=
 OpenBabel11072412013D

 45 47  0  0  1  0  0  0  0  0999 V2000
  160.0200  203.5210  151.0920 O   0  0  0  0  0  1  0  0  0  0  0  0
  160.8420  207.5480  150.8910 C   0  0  2  0  0  3  0  0  0  0  0  0
  160.8280  204.2970  150.2550 C   0  0  1  0  0  0  0  0  0  0  0  0
  160.6950  206.6560  152.1400 C   0  0  0  0  0  2  0  0  0  0  0  0
  159.9860  205.4620  149.6810 C   0  0  0  0  0  2  0  0  0  0  0  0
  161.7910  205.6000  152.2980 C   0  0  2  0  0  3  0  0  0  0  0  0
  162.0660  204.7660  151.0420 C   0  0  0  0  0  2  0  0  0  0  0  0
  161.4820  204.7610  153.3660 O   0  0  0  0  0  1  0  0  0  0  0  0
  160.7490  206.7870  149.5610 C   0  0  0  0  0  2  0  0  0  0  0  0
  161.3520  203.4220  149.1180 C   0  0  0  0  0  2  0  0  0  0  0  0
  160.8190  201.9930  149.1530 C   0  0  0  0  0  2  0  0  0  0  0  0
  160.0290  201.6670  147.8900 C   0  0  0  0  0  2  0  0  0  0  0  0
  160.9560  201.3050  146.7340 C   0  0  1  0  0  3  0  0  0  0  0  0
  161.7930  199.3630  147.8710 O   0  0  0  0  0  1  0  0  0  0  0  0
  161.3340  199.8600  146.8050 C   0  0  0  0  0  0  0  0  0  0  0  0
  161.2000  199.0650  145.6740 O   0  0  0  0  0  0  0  0  0  0  0  0
  159.7720  200.7670  144.7240 O   0  0  0  0  0  0  0  0  0  0  0  0
  160.4640  202.9790  144.8590 N   0  0  0  0  0  2  0  0  0  0  0  0
  160.3620  201.6540  145.3960 C   0  0  0  0  0  0  0  0  0  0  0  0
  160.5320  206.5140  146.0610 C   0  0  0  0  0  2  0  0  0  0  0  0
  161.8290  207.0200  146.2110 O   0  0  0  0  0  0  0  0  0  0  0  0
  162.4920  206.1270  147.0610 C   0  0  0  0  0  2  0  0  0  0  0  0
  161.0480  204.1300  145.5470 C   0  0  1  0  0  3  0  0  0  0  0  0
  163.3510  205.1860  146.2220 C   0  0  0  0  0  2  0  0  0  0  0  0
  162.5780  204.0370  145.5440 C   0  0  0  0  0  2  0  0  0  0  0  0
  160.5020  205.4370  144.9810 C   0  0  0  0  0  2  0  0  0  0  0  0
  162.0880  208.3040  150.9320 N   0  0  0  0  0  2  0  0  0  0  0  0
  162.2030  210.7170  149.8730 S   0  0  0  0  0  0  0  0  0  0  0  0
  162.1910  209.7160  151.1580 C   0  0  0  0  0  0  0  0  0  0  0  0
  162.3380  210.2740  152.4660 N   0  0  0  0  0  2  0  0  0  0  0  0
  161.6290  209.8000  153.5760 N   0  0  0  0  0  2  0  0  0  0  0  0
  161.9690  210.6650  154.6990 C   0  0  0  0  0  2  0  0  0  0  0  0
  161.0660  210.4240  155.9090 C   0  0  1  0  0  0  0  0  0  0  0  0
  161.2770  209.1160  156.3510 O   0  0  0  0  0  1  0  0  0  0  0  0
  161.4390  211.3910  157.0260 C   0  0  0  0  0  1  0  0  0  0  0  0
  159.6610  210.5980  155.5140 N   0  0  0  0  0  2  0  0  0  0  0  0
  159.3060  212.0140  155.4610 C   0  0  0  0  0  2  0  0  0  0  0  0
  155.8200  213.0340  154.6330 C   0  0  1  0  0  3  0  0  0  0  0  0
  155.2430  210.7310  154.5270 F   0  0  0  0  0  0  0  0  0  0  0  0
  158.0990  212.2930  156.3510 C   0  0  2  0  0  3  0  0  0  0  0  0
  155.2660  213.2790  153.3910 F   0  0  0  0  0  0  0  0  0  0  0  0
  156.3110  211.5910  154.6990 C   0  0  2  0  0  3  0  0  0  0  0  0
  156.9620  211.3130  156.0530 C   0  0  0  0  0  2  0  0  0  0  0  0
  156.9770  214.0010  154.8640 C   0  0  0  0  0  2  0  0  0  0  0  0
  157.6190  213.7420  156.2250 C   0  0  0  0  0  2  0  0  0  0  0  0
  2 27  1  1  0  0  0
  2  4  1  0  0  0  0
  3  7  1  0  0  0  0
  3  1  1  1  0  0  0
  4  6  1  0  0  0  0
  5  3  1  0  0  0  0
  6  8  1  1  0  0  0
  7  6  1  0  0  0  0
  9  5  1  0  0  0  0
  9  2  1  0  0  0  0
 10 11  1  0  0  0  0
 10  3  1  0  0  0  0
 12 11  1  0  0  0  0
 13 15  1  0  0  0  0
 13 12  1  1  0  0  0
 15 14  1  0  0  0  0
 16 15  2  0  0  0  0
 17 19  2  0  0  0  0
 18 19  1  0  0  0  0
 19 13  1  0  0  0  0
 20 21  1  0  0  0  0
 21 22  1  0  0  0  0
 23 18  1  6  0  0  0
 24 22  1  0  0  0  0
 25 23  1  0  0  0  0
 25 24  1  0  0  0  0
 26 23  1  0  0  0  0
 26 20  1  0  0  0  0
 27 29  1  0  0  0  0
 28 29  2  0  0  0  0
 29 30  1  0  0  0  0
 30 31  1  0  0  0  0
 31 32  1  0  0  0  0
 32 33  1  0  0  0  0
 33 34  1  0  0  0  0
 33 35  1  1  0  0  0
 36 33  1  0  0  0  0
 37 36  1  0  0  0  0
 38 41  1  6  0  0  0
 38 42  1  0  0  0  0
 38 44  1  0  0  0  0
 40 37  1  6  0  0  0
 42 39  1  1  0  0  0
 42 43  1  0  0  0  0
 43 40  1  0  0  0  0
 44 45  1  0  0  0  0
 45 40  1  0  0  0  0
M  END
>  <MODEL>
1

>  <REMARK>
 VINA RESULT:      -6.2      0.000      0.000
  Name = 
  16 active torsions:
  status: ('A' for Active; 'I' for Inactive)
    1  A    between atoms: N_2  and  C_4
    2  A    between atoms: N_2  and  C_22
    3  A    between atoms: C_5  and  C_16
    4  A    between atoms: C_10  and  C_19
    5  A    between atoms: C_10  and  N_44
    6  A    between atoms: C_13  and  N_36
    7  A    between atoms: C_16  and  C_41
    8  A    between atoms: C_22  and  N_31
    9  A    between atoms: C_26  and  C_27
   10  A    between atoms: C_26  and  C_41
   11  A    between atoms: C_27  and  C_37
   12  A    between atoms: C_27  and  C_38
   13  A    between atoms: C_28  and  C_32
   14  A    between atoms: C_28  and  N_44
   15  A    between atoms: N_30  and  N_31
   16  A    between atoms: N_30  and  C_32
                            x       y       z     vdW  Elec       q    Type
                         _______ _______ _______ _____ _____    ______ ____

>  <TORSDO>
F 16

$$$$
=
 OpenBabel11072412013D

 45 47  0  0  1  0  0  0  0  0999 V2000
  161.3080  209.3640  155.8060 O   0  0  0  0  0  1  0  0  0  0  0  0
  162.2250  209.2420  151.7970 C   0  0  2  0  0  3  0  0  0  0  0  0
  160.9180  210.1340  154.7070 C   0  0  1  0  0  0  0  0  0  0  0  0
  161.9530  208.0690  152.7580 C   0  0  0  0  0  2  0  0  0  0  0  0
  162.1830  210.6150  153.9560 C   0  0  0  0  0  2  0  0  0  0  0  0
  160.5140  207.9920  153.2760 C   0  0  2  0  0  3  0  0  0  0  0  0
  159.9590  209.3100  153.8270 C   0  0  0  0  0  2  0  0  0  0  0  0
  160.4170  206.9950  154.2430 O   0  0  0  0  0  1  0  0  0  0  0  0
  162.0370  210.6290  152.4290 C   0  0  0  0  0  2  0  0  0  0  0  0
  160.1160  211.3360  155.2010 C   0  0  0  0  0  2  0  0  0  0  0  0
  159.4270  211.1000  156.5420 C   0  0  0  0  0  2  0  0  0  0  0  0
  158.4180  212.2020  156.8470 C   0  0  0  0  0  2  0  0  0  0  0  0
  157.3810  212.3270  155.7350 C   0  0  1  0  0  3  0  0  0  0  0  0
  156.4850  210.4510  154.5330 O   0  0  0  0  0  0  0  0  0  0  0  0
  156.5790  211.0690  155.6300 C   0  0  0  0  0  0  0  0  0  0  0  0
  155.9090  210.5940  156.7490 O   0  0  0  0  0  1  0  0  0  0  0  0
  155.9340  213.7350  157.0200 O   0  0  0  0  0  0  0  0  0  0  0  0
  156.2700  214.4530  154.8380 N   0  0  0  0  0  2  0  0  0  0  0  0
  156.4980  213.5320  155.9120 C   0  0  0  0  0  0  0  0  0  0  0  0
  156.3030  214.2800  151.1080 C   0  0  0  0  0  2  0  0  0  0  0  0
  157.4540  213.6700  150.5950 O   0  0  0  0  0  0  0  0  0  0  0  0
  158.5350  214.3790  151.1320 C   0  0  0  0  0  2  0  0  0  0  0  0
  156.9080  214.3970  153.5230 C   0  0  1  0  0  3  0  0  0  0  0  0
  159.0980  213.6040  152.3200 C   0  0  0  0  0  2  0  0  0  0  0  0
  158.2940  213.7510  153.6270 C   0  0  0  0  0  2  0  0  0  0  0  0
  155.9880  213.7400  152.4990 C   0  0  0  0  0  2  0  0  0  0  0  0
  161.4010  209.1390  150.5980 N   0  0  0  0  0  2  0  0  0  0  0  0
  161.8430  210.6610  148.4900 S   0  0  0  0  0  0  0  0  0  0  0  0
  161.8860  209.2210  149.2520 C   0  0  0  0  0  0  0  0  0  0  0  0
  162.3560  208.0770  148.5350 N   0  0  0  0  0  2  0  0  0  0  0  0
  161.5100  207.0420  148.1200 N   0  0  0  0  0  2  0  0  0  0  0  0
  162.2560  206.2440  147.1550 C   0  0  0  0  0  2  0  0  0  0  0  0
  161.3360  205.4830  146.2010 C   0  0  1  0  0  0  0  0  0  0  0  0
  160.0380  205.9710  146.3710 O   0  0  0  0  0  1  0  0  0  0  0  0
  161.7740  205.7300  144.7620 C   0  0  0  0  0  1  0  0  0  0  0  0
  161.3770  204.0490  146.5210 N   0  0  0  0  0  2  0  0  0  0  0  0
  161.7350  203.8380  147.9220 C   0  0  0  0  0  2  0  0  0  0  0  0
  161.3360  202.2990  151.2920 C   0  0  1  0  0  3  0  0  0  0  0  0
  161.4450  204.4820  152.2260 F   0  0  0  0  0  0  0  0  0  0  0  0
  160.4900  203.5270  148.7470 C   0  0  2  0  0  3  0  0  0  0  0  0
  162.3160  201.8330  152.1460 F   0  0  0  0  0  0  0  0  0  0  0  0
  161.5470  203.7890  151.0350 C   0  0  2  0  0  3  0  0  0  0  0  0
  160.4950  204.3140  150.0600 C   0  0  0  0  0  2  0  0  0  0  0  0
  161.4030  201.5200  149.9820 C   0  0  0  0  0  2  0  0  0  0  0  0
  160.3390  202.0260  149.0110 C   0  0  0  0  0  2  0  0  0  0  0  0
  2 27  1  6  0  0  0
  2  9  1  0  0  0  0
  2  4  1  0  0  0  0
  3 10  1  0  0  0  0
  3  1  1  1  0  0  0
  4  6  1  0  0  0  0
  5  3  1  0  0  0  0
  6  7  1  0  0  0  0
  6  8  1  1  0  0  0
  7  3  1  0  0  0  0
  9  5  1  0  0  0  0
 10 11  1  0  0  0  0
 11 12  1  0  0  0  0
 13 19  1  0  0  0  0
 13 12  1  1  0  0  0
 14 15  2  0  0  0  0
 15 13  1  0  0  0  0
 15 16  1  0  0  0  0
 18 19  1  0  0  0  0
 19 17  2  0  0  0  0
 20 26  1  0  0  0  0
 21 20  1  0  0  0  0
 21 22  1  0  0  0  0
 22 24  1  0  0  0  0
 23 25  1  0  0  0  0
 23 18  1  1  0  0  0
 24 25  1  0  0  0  0
 26 23  1  0  0  0  0
 28 29  2  0  0  0  0
 29 27  1  0  0  0  0
 30 29  1  0  0  0  0
 31 30  1  0  0  0  0
 32 31  1  0  0  0  0
 33 35  1  6  0  0  0
 33 34  1  0  0  0  0
 33 36  1  0  0  0  0
 33 32  1  0  0  0  0
 36 37  1  0  0  0  0
 38 41  1  1  0  0  0
 40 37  1  1  0  0  0
 40 45  1  0  0  0  0
 40 43  1  0  0  0  0
 42 38  1  0  0  0  0
 42 39  1  1  0  0  0
 43 42  1  0  0  0  0
 44 38  1  0  0  0  0
 45 44  1  0  0  0  0
M  END
>  <MODEL>
2

>  <REMARK>
 VINA RESULT:      -5.7      3.506     10.892
  Name = 
  16 active torsions:
  status: ('A' for Active; 'I' for Inactive)
    1  A    between atoms: N_2  and  C_4
    2  A    between atoms: N_2  and  C_22
    3  A    between atoms: C_5  and  C_16
    4  A    between atoms: C_10  and  C_19
    5  A    between atoms: C_10  and  N_44
    6  A    between atoms: C_13  and  N_36
    7  A    between atoms: C_16  and  C_41
    8  A    between atoms: C_22  and  N_31
    9  A    between atoms: C_26  and  C_27
   10  A    between atoms: C_26  and  C_41
   11  A    between atoms: C_27  and  C_37
   12  A    between atoms: C_27  and  C_38
   13  A    between atoms: C_28  and  C_32
   14  A    between atoms: C_28  and  N_44
   15  A    between atoms: N_30  and  N_31
   16  A    between atoms: N_30  and  C_32
                            x       y       z     vdW  Elec       q    Type
                         _______ _______ _______ _____ _____    ______ ____

>  <TORSDO>
F 16

$$$$
=
 OpenBabel11072412013D

 45 47  0  0  1  0  0  0  0  0999 V2000
  160.8000  206.1220  150.3950 O   0  0  0  0  0  1  0  0  0  0  0  0
  160.6910  208.3880  153.8280 C   0  0  2  0  0  3  0  0  0  0  0  0
  161.4540  207.2900  150.7970 C   0  0  1  0  0  0  0  0  0  0  0  0
  160.6840  206.8530  153.6870 C   0  0  0  0  0  2  0  0  0  0  0  0
  160.4000  208.3130  151.2860 C   0  0  0  0  0  2  0  0  0  0  0  0
  161.9830  206.2610  153.1330 C   0  0  2  0  0  3  0  0  0  0  0  0
  162.5080  206.9390  151.8630 C   0  0  0  0  0  2  0  0  0  0  0  0
  161.8160  204.8960  152.9080 O   0  0  0  0  0  1  0  0  0  0  0  0
  160.8460  209.1400  152.4980 C   0  0  0  0  0  2  0  0  0  0  0  0
  162.2240  207.8630  149.6090 C   0  0  0  0  0  2  0  0  0  0  0  0
  162.4540  206.8550  148.4870 C   0  0  0  0  0  2  0  0  0  0  0  0
  161.4850  207.0810  147.3330 C   0  0  0  0  0  2  0  0  0  0  0  0
  161.1070  205.7660  146.6590 C   0  0  1  0  0  3  0  0  0  0  0  0
  159.0450  206.0110  145.4520 O   0  0  0  0  0  1  0  0  0  0  0  0
  160.3070  206.0270  145.4220 C   0  0  0  0  0  0  0  0  0  0  0  0
  160.9660  206.2660  144.2240 O   0  0  0  0  0  0  0  0  0  0  0  0
  163.2310  205.3540  145.6370 O   0  0  0  0  0  0  0  0  0  0  0  0
  162.4200  203.5800  146.8960 N   0  0  0  0  0  2  0  0  0  0  0  0
  162.3080  204.9080  146.3680 C   0  0  0  0  0  0  0  0  0  0  0  0
  160.4160  203.3480  150.0380 C   0  0  0  0  0  2  0  0  0  0  0  0
  160.1370  202.0290  150.4180 O   0  0  0  0  0  0  0  0  0  0  0  0
  159.5160  201.4370  149.3120 C   0  0  0  0  0  2  0  0  0  0  0  0
  161.4740  202.9510  147.8160 C   0  0  1  0  0  3  0  0  0  0  0  0
  160.5450  200.6100  148.5470 C   0  0  0  0  0  2  0  0  0  0  0  0
  161.4830  201.4280  147.6370 C   0  0  0  0  0  2  0  0  0  0  0  0
  161.7200  203.4120  149.2500 C   0  0  0  0  0  2  0  0  0  0  0  0
  161.7270  208.8240  154.7560 N   0  0  0  0  0  2  0  0  0  0  0  0
  163.1130  210.6350  156.0810 S   0  0  0  0  0  0  0  0  0  0  0  0
  161.7080  210.0490  155.5000 C   0  0  0  0  0  0  0  0  0  0  0  0
  160.4960  210.7480  155.7970 N   0  0  0  0  0  2  0  0  0  0  0  0
  160.2710  212.0740  155.4080 N   0  0  0  0  0  2  0  0  0  0  0  0
  159.4640  212.0290  154.1950 C   0  0  0  0  0  2  0  0  0  0  0  0
  158.0730  212.6280  154.4050 C   0  0  1  0  0  0  0  0  0  0  0  0
  157.2620  211.6450  154.9780 O   0  0  0  0  0  1  0  0  0  0  0  0
  158.1650  213.8130  155.3590 C   0  0  0  0  0  1  0  0  0  0  0  0
  157.5180  213.0420  153.1090 N   0  0  0  0  0  2  0  0  0  0  0  0
  158.5360  212.9820  152.0630 C   0  0  0  0  0  2  0  0  0  0  0  0
  158.7520  213.6780  148.4090 C   0  0  1  0  0  3  0  0  0  0  0  0
  156.3760  213.6840  148.3380 F   0  0  0  0  0  0  0  0  0  0  0  0
  158.5790  214.2950  151.2870 C   0  0  2  0  0  3  0  0  0  0  0  0
  158.8280  212.7780  147.3640 F   0  0  0  0  0  0  0  0  0  0  0  0
  157.4510  213.4620  149.1770 C   0  0  2  0  0  3  0  0  0  0  0  0
  157.3670  214.4230  150.3620 C   0  0  0  0  0  2  0  0  0  0  0  0
  159.9520  213.4790  149.3280 C   0  0  0  0  0  2  0  0  0  0  0  0
  159.8860  214.4530  150.5030 C   0  0  0  0  0  2  0  0  0  0  0  0
  2 27  1  1  0  0  0
  3  1  1  6  0  0  0
  3  5  1  0  0  0  0
  3  7  1  0  0  0  0
  4  2  1  0  0  0  0
  5  9  1  0  0  0  0
  6  8  1  6  0  0  0
  6  4  1  0  0  0  0
  7  6  1  0  0  0  0
  9  2  1  0  0  0  0
 10  3  1  0  0  0  0
 11 10  1  0  0  0  0
 12 11  1  0  0  0  0
 13 12  1  6  0  0  0
 15 14  1  0  0  0  0
 15 13  1  0  0  0  0
 16 15  2  0  0  0  0
 17 19  2  0  0  0  0
 19 13  1  0  0  0  0
 19 18  1  0  0  0  0
 20 21  1  0  0  0  0
 22 21  1  0  0  0  0
 23 18  1  6  0  0  0
 23 26  1  0  0  0  0
 24 22  1  0  0  0  0
 25 23  1  0  0  0  0
 25 24  1  0  0  0  0
 26 20  1  0  0  0  0
 27 29  1  0  0  0  0
 29 30  1  0  0  0  0
 29 28  2  0  0  0  0
 31 30  1  0  0  0  0
 32 33  1  0  0  0  0
 32 31  1  0  0  0  0
 33 34  1  0  0  0  0
 33 35  1  1  0  0  0
 36 33  1  0  0  0  0
 37 36  1  0  0  0  0
 38 41  1  6  0  0  0
 38 42  1  0  0  0  0
 38 44  1  0  0  0  0
 40 37  1  6  0  0  0
 42 39  1  6  0  0  0
 42 43  1  0  0  0  0
 43 40  1  0  0  0  0
 44 45  1  0  0  0  0
 45 40  1  0  0  0  0
M  END
>  <MODEL>
3

>  <REMARK>
 VINA RESULT:      -5.6      3.015      4.904
  Name = 
  16 active torsions:
  status: ('A' for Active; 'I' for Inactive)
    1  A    between atoms: N_2  and  C_4
    2  A    between atoms: N_2  and  C_22
    3  A    between atoms: C_5  and  C_16
    4  A    between atoms: C_10  and  C_19
    5  A    between atoms: C_10  and  N_44
    6  A    between atoms: C_13  and  N_36
    7  A    between atoms: C_16  and  C_41
    8  A    between atoms: C_22  and  N_31
    9  A    between atoms: C_26  and  C_27
   10  A    between atoms: C_26  and  C_41
   11  A    between atoms: C_27  and  C_37
   12  A    between atoms: C_27  and  C_38
   13  A    between atoms: C_28  and  C_32
   14  A    between atoms: C_28  and  N_44
   15  A    between atoms: N_30  and  N_31
   16  A    between atoms: N_30  and  C_32
                            x       y       z     vdW  Elec       q    Type
                         _______ _______ _______ _____ _____    ______ ____

>  <TORSDO>
F 16

$$$$
=
 OpenBabel11072412013D

 45 47  0  0  1  0  0  0  0  0999 V2000
  160.8360  210.6300  156.1430 O   0  0  0  0  0  1  0  0  0  0  0  0
  161.5540  207.5450  153.5160 C   0  0  2  0  0  3  0  0  0  0  0  0
  160.2870  210.2710  154.9080 C   0  0  1  0  0  0  0  0  0  0  0  0
  161.4970  207.5050  155.0550 C   0  0  0  0  0  2  0  0  0  0  0  0
  161.4330  210.0750  153.8870 C   0  0  0  0  0  2  0  0  0  0  0  0
  160.1110  207.7770  155.6460 C   0  0  2  0  0  3  0  0  0  0  0  0
  159.4080  209.0200  155.0910 C   0  0  0  0  0  2  0  0  0  0  0  0
  160.2030  207.8630  157.0340 O   0  0  0  0  0  1  0  0  0  0  0  0
  161.2080  208.9130  152.9100 C   0  0  0  0  0  2  0  0  0  0  0  0
  159.3520  211.3840  154.4370 C   0  0  0  0  0  2  0  0  0  0  0  0
  159.4180  211.6390  152.9340 C   0  0  0  0  0  2  0  0  0  0  0  0
  158.0310  211.8980  152.3570 C   0  0  0  0  0  2  0  0  0  0  0  0
  158.0200  213.1470  151.4800 C   0  0  1  0  0  3  0  0  0  0  0  0
  156.4460  214.2720  152.9020 O   0  0  0  0  0  1  0  0  0  0  0  0
  156.7790  213.9440  151.7300 C   0  0  0  0  0  0  0  0  0  0  0  0
  155.9740  214.3040  150.6570 O   0  0  0  0  0  0  0  0  0  0  0  0
  159.5370  214.4480  152.7970 O   0  0  0  0  0  0  0  0  0  0  0  0
  160.1270  214.2740  150.5590 N   0  0  0  0  0  2  0  0  0  0  0  0
  159.2580  213.9820  151.6600 C   0  0  0  0  0  0  0  0  0  0  0  0
  161.3770  213.1430  147.2260 C   0  0  0  0  0  2  0  0  0  0  0  0
  160.4340  213.2980  146.2020 O   0  0  0  0  0  0  0  0  0  0  0  0
  159.2880  212.6170  146.6310 C   0  0  0  0  0  2  0  0  0  0  0  0
  159.9820  213.7460  149.2020 C   0  0  1  0  0  3  0  0  0  0  0  0
  158.2940  213.6260  147.1990 C   0  0  0  0  0  2  0  0  0  0  0  0
  158.6030  214.1000  148.6340 C   0  0  0  0  0  2  0  0  0  0  0  0
  161.1500  214.1790  148.3210 C   0  0  0  0  0  2  0  0  0  0  0  0
  160.6920  206.5250  152.9320 N   0  0  0  0  0  2  0  0  0  0  0  0
  160.8930  206.0670  150.3430 S   0  0  0  0  0  0  0  0  0  0  0  0
  161.0750  205.6120  151.8960 C   0  0  0  0  0  0  0  0  0  0  0  0
  161.5630  204.2970  152.1740 N   0  0  0  0  0  2  0  0  0  0  0  0
  160.8270  203.1400  151.8900 N   0  0  0  0  0  2  0  0  0  0  0  0
  161.6760  202.2890  151.0660 C   0  0  0  0  0  2  0  0  0  0  0  0
  161.0180  201.9350  149.7310 C   0  0  1  0  0  0  0  0  0  0  0  0
  161.6850  200.8280  149.2010 O   0  0  0  0  0  1  0  0  0  0  0  0
  159.5560  201.5700  149.9630 C   0  0  0  0  0  1  0  0  0  0  0  0
  161.1320  203.0770  148.8120 N   0  0  0  0  0  2  0  0  0  0  0  0
  160.7180  202.7010  147.4620 C   0  0  0  0  0  2  0  0  0  0  0  0
  161.0260  205.7710  145.3720 C   0  0  1  0  0  3  0  0  0  0  0  0
  162.2840  206.7590  147.1300 F   0  0  0  0  0  0  0  0  0  0  0  0
  161.7720  203.1270  146.4450 C   0  0  2  0  0  3  0  0  0  0  0  0
  160.1740  206.8560  145.3060 F   0  0  0  0  0  0  0  0  0  0  0  0
  161.5650  205.6280  146.7920 C   0  0  2  0  0  3  0  0  0  0  0  0
  162.4790  204.4070  146.8940 C   0  0  0  0  0  2  0  0  0  0  0  0
  160.2650  204.5130  144.9640 C   0  0  0  0  0  2  0  0  0  0  0  0
  161.1790  203.2920  145.0420 C   0  0  0  0  0  2  0  0  0  0  0  0
  2 27  1  6  0  0  0
  2  4  1  0  0  0  0
  3  7  1  0  0  0  0
  3  1  1  1  0  0  0
  4  6  1  0  0  0  0
  5  3  1  0  0  0  0
  6  8  1  1  0  0  0
  7  6  1  0  0  0  0
  9  2  1  0  0  0  0
  9  5  1  0  0  0  0
 10  3  1  0  0  0  0
 11 10  1  0  0  0  0
 12 11  1  0  0  0  0
 13 19  1  0  0  0  0
 13 15  1  0  0  0  0
 13 12  1  1  0  0  0
 15 14  1  0  0  0  0
 16 15  2  0  0  0  0
 18 19  1  0  0  0  0
 19 17  2  0  0  0  0
 20 26  1  0  0  0  0
 21 22  1  0  0  0  0
 21 20  1  0  0  0  0
 22 24  1  0  0  0  0
 23 18  1  1  0  0  0
 24 25  1  0  0  0  0
 25 23  1  0  0  0  0
 26 23  1  0  0  0  0
 28 29  2  0  0  0  0
 29 30  1  0  0  0  0
 29 27  1  0  0  0  0
 31 30  1  0  0  0  0
 32 31  1  0  0  0  0
 33 35  1  1  0  0  0
 33 32  1  0  0  0  0
 34 33  1  0  0  0  0
 36 33  1  0  0  0  0
 37 36  1  0  0  0  0
 38 41  1  1  0  0  0
 38 42  1  0  0  0  0
 40 43  1  0  0  0  0
 40 37  1  1  0  0  0
 42 43  1  0  0  0  0
 42 39  1  6  0  0  0
 44 45  1  0  0  0  0
 44 38  1  0  0  0  0
 45 40  1  0  0  0  0
M  END
>  <MODEL>
4

>  <REMARK>
 VINA RESULT:      -5.5      4.520     10.507
  Name = 
  16 active torsions:
  status: ('A' for Active; 'I' for Inactive)
    1  A    between atoms: N_2  and  C_4
    2  A    between atoms: N_2  and  C_22
    3  A    between atoms: C_5  and  C_16
    4  A    between atoms: C_10  and  C_19
    5  A    between atoms: C_10  and  N_44
    6  A    between atoms: C_13  and  N_36
    7  A    between atoms: C_16  and  C_41
    8  A    between atoms: C_22  and  N_31
    9  A    between atoms: C_26  and  C_27
   10  A    between atoms: C_26  and  C_41
   11  A    between atoms: C_27  and  C_37
   12  A    between atoms: C_27  and  C_38
   13  A    between atoms: C_28  and  C_32
   14  A    between atoms: C_28  and  N_44
   15  A    between atoms: N_30  and  N_31
   16  A    between atoms: N_30  and  C_32
                            x       y       z     vdW  Elec       q    Type
                         _______ _______ _______ _____ _____    ______ ____

>  <TORSDO>
F 16

$$$$
=
 OpenBabel11072412013D

 45 47  0  0  1  0  0  0  0  0999 V2000
  161.4060  209.8440  150.2690 O   0  0  0  0  0  1  0  0  0  0  0  0
  160.8310  205.9070  151.3200 C   0  0  2  0  0  3  0  0  0  0  0  0
  161.8070  209.0730  151.3640 C   0  0  1  0  0  0  0  0  0  0  0  0
  161.1370  206.4980  149.9300 C   0  0  0  0  0  2  0  0  0  0  0  0
  160.5660  208.3700  151.9650 C   0  0  0  0  0  2  0  0  0  0  0  0
  162.5300  207.1190  149.7970 C   0  0  2  0  0  3  0  0  0  0  0  0
  162.9090  208.0940  150.9160 C   0  0  0  0  0  2  0  0  0  0  0  0
  162.6450  207.7490  148.5590 O   0  0  0  0  0  1  0  0  0  0  0  0
  160.8320  206.9410  152.4560 C   0  0  0  0  0  2  0  0  0  0  0  0
  162.4460  209.9860  152.4080 C   0  0  0  0  0  2  0  0  0  0  0  0
  161.4440  210.5800  153.3940 C   0  0  0  0  0  2  0  0  0  0  0  0
  161.9760  210.5270  154.8210 C   0  0  0  0  0  2  0  0  0  0  0  0
  160.8390  210.5610  155.8380 C   0  0  1  0  0  3  0  0  0  0  0  0
  159.8720  208.8030  157.1570 O   0  0  0  0  0  0  0  0  0  0  0  0
  160.9190  209.3740  156.7450 C   0  0  0  0  0  0  0  0  0  0  0  0
  162.1630  208.9140  157.1570 O   0  0  0  0  0  1  0  0  0  0  0  0
  161.8290  212.2140  157.2580 O   0  0  0  0  0  0  0  0  0  0  0  0
  159.6330  212.6660  156.6570 N   0  0  0  0  0  2  0  0  0  0  0  0
  160.8090  211.8480  156.6170 C   0  0  0  0  0  0  0  0  0  0  0  0
  157.0940  213.3650  154.0090 C   0  0  0  0  0  2  0  0  0  0  0  0
  155.8120  212.9110  154.3420 O   0  0  0  0  0  0  0  0  0  0  0  0
  155.9530  211.5500  154.6370 C   0  0  0  0  0  2  0  0  0  0  0  0
  158.4010  212.4180  155.9080 C   0  0  1  0  0  3  0  0  0  0  0  0
  156.0090  211.3730  156.1520 C   0  0  0  0  0  2  0  0  0  0  0  0
  157.3740  211.6980  156.7900 C   0  0  0  0  0  2  0  0  0  0  0  0
  157.8840  213.7030  155.2690 C   0  0  0  0  0  2  0  0  0  0  0  0
  161.7550  204.8280  151.6460 N   0  0  0  0  0  2  0  0  0  0  0  0
  162.6200  202.3500  151.9050 S   0  0  0  0  0  0  0  0  0  0  0  0
  161.5430  203.4410  151.3550 C   0  0  0  0  0  0  0  0  0  0  0  0
  160.4490  202.9840  150.5550 N   0  0  0  0  0  2  0  0  0  0  0  0
  160.2020  201.6270  150.3130 N   0  0  0  0  0  2  0  0  0  0  0  0
  159.7840  201.5130  148.9210 C   0  0  0  0  0  2  0  0  0  0  0  0
  160.9660  201.2800  147.9800 C   0  0  1  0  0  0  0  0  0  0  0  0
  161.7700  200.2820  148.5350 O   0  0  0  0  0  1  0  0  0  0  0  0
  160.4540  200.8070  146.6240 C   0  0  0  0  0  1  0  0  0  0  0  0
  161.7360  202.5250  147.8420 N   0  0  0  0  0  2  0  0  0  0  0  0
  160.8990  203.5990  147.3130 C   0  0  0  0  0  2  0  0  0  0  0  0
  161.8540  205.6620  144.3610 C   0  0  1  0  0  3  0  0  0  0  0  0
  159.8470  206.9000  144.6610 F   0  0  0  0  0  0  0  0  0  0  0  0
  161.7010  204.8920  147.2030 C   0  0  2  0  0  3  0  0  0  0  0  0
  161.5730  205.4390  143.0270 F   0  0  0  0  0  0  0  0  0  0  0  0
  160.5520  205.8110  145.1410 C   0  0  2  0  0  3  0  0  0  0  0  0
  160.8420  206.0200  146.6270 C   0  0  0  0  0  2  0  0  0  0  0  0
  162.6680  204.4910  144.9030 C   0  0  0  0  0  2  0  0  0  0  0  0
  162.9800  204.7040  146.3820 C   0  0  0  0  0  2  0  0  0  0  0  0
  2 27  1  1  0  0  0
  2  9  1  0  0  0  0
  3  1  1  6  0  0  0
  3  5  1  0  0  0  0
  3 10  1  0  0  0  0
  4  2  1  0  0  0  0
  5  9  1  0  0  0  0
  6  8  1  6  0  0  0
  6  4  1  0  0  0  0
  6  7  1  0  0  0  0
  7  3  1  0  0  0  0
 10 11  1  0  0  0  0
 11 12  1  0  0  0  0
 13 12  1  6  0  0  0
 13 19  1  0  0  0  0
 13 15  1  0  0  0  0
 15 14  2  0  0  0  0
 15 16  1  0  0  0  0
 19 18  1  0  0  0  0
 19 17  2  0  0  0  0
 20 21  1  0  0  0  0
 20 26  1  0  0  0  0
 21 22  1  0  0  0  0
 22 24  1  0  0  0  0
 23 18  1  1  0  0  0
 23 25  1  0  0  0  0
 24 25  1  0  0  0  0
 26 23  1  0  0  0  0
 29 27  1  0  0  0  0
 29 28  2  0  0  0  0
 30 29  1  0  0  0  0
 31 30  1  0  0  0  0
 32 31  1  0  0  0  0
 33 35  1  6  0  0  0
 33 34  1  0  0  0  0
 33 32  1  0  0  0  0
 36 33  1  0  0  0  0
 37 36  1  0  0  0  0
 38 41  1  6  0  0  0
 38 44  1  0  0  0  0
 38 42  1  0  0  0  0
 40 37  1  6  0  0  0
 42 39  1  6  0  0  0
 42 43  1  0  0  0  0
 43 40  1  0  0  0  0
 44 45  1  0  0  0  0
 45 40  1  0  0  0  0
M  END
>  <MODEL>
5

>  <REMARK>
 VINA RESULT:      -5.5      3.747     11.221
  Name = 
  16 active torsions:
  status: ('A' for Active; 'I' for Inactive)
    1  A    between atoms: N_2  and  C_4
    2  A    between atoms: N_2  and  C_22
    3  A    between atoms: C_5  and  C_16
    4  A    between atoms: C_10  and  C_19
    5  A    between atoms: C_10  and  N_44
    6  A    between atoms: C_13  and  N_36
    7  A    between atoms: C_16  and  C_41
    8  A    between atoms: C_22  and  N_31
    9  A    between atoms: C_26  and  C_27
   10  A    between atoms: C_26  and  C_41
   11  A    between atoms: C_27  and  C_37
   12  A    between atoms: C_27  and  C_38
   13  A    between atoms: C_28  and  C_32
   14  A    between atoms: C_28  and  N_44
   15  A    between atoms: N_30  and  N_31
   16  A    between atoms: N_30  and  C_32
                            x       y       z     vdW  Elec       q    Type
                         _______ _______ _______ _____ _____    ______ ____

>  <TORSDO>
F 16

$$$$
=
 OpenBabel11072412013D

 45 47  0  0  1  0  0  0  0  0999 V2000
  162.1150  206.0660  151.3100 O   0  0  0  0  0  1  0  0  0  0  0  0
  162.2100  206.1600  147.1970 C   0  0  2  0  0  3  0  0  0  0  0  0
  161.5430  206.9110  150.3540 C   0  0  1  0  0  0  0  0  0  0  0  0
  162.0910  204.9390  148.1300 C   0  0  0  0  0  2  0  0  0  0  0  0
  162.6500  207.4030  149.3910 C   0  0  0  0  0  2  0  0  0  0  0  0
  160.7820  204.8700  148.9210 C   0  0  2  0  0  3  0  0  0  0  0  0
  160.3980  206.1670  149.6420 C   0  0  0  0  0  2  0  0  0  0  0  0
  160.8420  203.8190  149.8330 O   0  0  0  0  0  1  0  0  0  0  0  0
  162.2040  207.5110  147.9270 C   0  0  0  0  0  2  0  0  0  0  0  0
  160.9010  208.1020  151.0620 C   0  0  0  0  0  2  0  0  0  0  0  0
  160.8760  207.9670  152.5820 C   0  0  0  0  0  2  0  0  0  0  0  0
  161.4500  209.2070  153.2570 C   0  0  0  0  0  2  0  0  0  0  0  0
  160.6680  209.5660  154.5160 C   0  0  1  0  0  3  0  0  0  0  0  0
  159.5640  207.8440  155.7740 O   0  0  0  0  0  0  0  0  0  0  0  0
  160.6500  208.4080  155.4630 C   0  0  0  0  0  0  0  0  0  0  0  0
  161.8420  207.9690  156.0240 O   0  0  0  0  0  1  0  0  0  0  0  0
  162.4180  210.8970  155.4640 O   0  0  0  0  0  0  0  0  0  0  0  0
  160.3260  211.9030  155.5070 N   0  0  0  0  0  2  0  0  0  0  0  0
  161.1940  210.8110  155.1780 C   0  0  0  0  0  0  0  0  0  0  0  0
  157.3540  213.2900  153.7210 C   0  0  0  0  0  2  0  0  0  0  0  0
  156.1610  213.1440  154.4410 O   0  0  0  0  0  0  0  0  0  0  0  0
  156.0540  211.7790  154.7310 C   0  0  0  0  0  2  0  0  0  0  0  0
  158.9040  211.9860  155.1740 C   0  0  1  0  0  3  0  0  0  0  0  0
  156.5190  211.5370  156.1640 C   0  0  0  0  0  2  0  0  0  0  0  0
  158.0490  211.5010  156.3490 C   0  0  0  0  0  2  0  0  0  0  0  0
  158.5430  213.3800  154.6720 C   0  0  0  0  0  2  0  0  0  0  0  0
  161.1610  206.1510  146.1850 N   0  0  0  0  0  2  0  0  0  0  0  0
  161.4570  203.8120  145.0030 S   0  0  0  0  0  0  0  0  0  0  0  0
  161.2080  205.4210  144.9520 C   0  0  0  0  0  0  0  0  0  0  0  0
  161.0960  206.0600  143.6780 N   0  0  0  0  0  2  0  0  0  0  0  0
  162.1530  206.1110  142.7610 N   0  0  0  0  0  2  0  0  0  0  0  0
  161.5640  206.0390  141.4300 C   0  0  0  0  0  2  0  0  0  0  0  0
  162.2250  207.0110  140.4520 C   0  0  1  0  0  0  0  0  0  0  0  0
  163.4670  207.3740  140.9780 O   0  0  0  0  0  1  0  0  0  0  0  0
  162.4380  206.3200  139.1100 C   0  0  0  0  0  1  0  0  0  0  0  0
  161.3780  208.2020  140.2980 N   0  0  0  0  0  2  0  0  0  0  0  0
  162.1930  209.4000  140.1100 C   0  0  0  0  0  2  0  0  0  0  0  0
  162.1470  213.0940  139.6210 C   0  0  1  0  0  3  0  0  0  0  0  0
  164.2090  212.8970  138.4550 F   0  0  0  0  0  0  0  0  0  0  0  0
  161.6210  210.2620  138.9890 C   0  0  2  0  0  3  0  0  0  0  0  0
  162.6530  214.0780  140.4470 F   0  0  0  0  0  0  0  0  0  0  0  0
  163.2760  212.1710  139.1720 C   0  0  2  0  0  3  0  0  0  0  0  0
  162.7290  211.0520  138.2870 C   0  0  0  0  0  2  0  0  0  0  0  0
  161.0840  212.3040  140.3780 C   0  0  0  0  0  2  0  0  0  0  0  0
  160.5170  211.1960  139.4920 C   0  0  0  0  0  2  0  0  0  0  0  0
  2 27  1  6  0  0  0
  2  9  1  0  0  0  0
  2  4  1  0  0  0  0
  3 10  1  0  0  0  0
  3  1  1  1  0  0  0
  4  6  1  0  0  0  0
  5  3  1  0  0  0  0
  6  7  1  0  0  0  0
  6  8  1  1  0  0  0
  7  3  1  0  0  0  0
  9  5  1  0  0  0  0
 10 11  1  0  0  0  0
 11 12  1  0  0  0  0
 13 12  1  6  0  0  0
 13 19  1  0  0  0  0
 13 15  1  0  0  0  0
 15 14  2  0  0  0  0
 15 16  1  0  0  0  0
 19 17  2  0  0  0  0
 19 18  1  0  0  0  0
 20 21  1  0  0  0  0
 20 26  1  0  0  0  0
 21 22  1  0  0  0  0
 22 24  1  0  0  0  0
 23 18  1  1  0  0  0
 23 25  1  0  0  0  0
 24 25  1  0  0  0  0
 26 23  1  0  0  0  0
 29 28  2  0  0  0  0
 29 27  1  0  0  0  0
 30 29  1  0  0  0  0
 31 30  1  0  0  0  0
 32 31  1  0  0  0  0
 33 35  1  6  0  0  0
 33 34  1  0  0  0  0
 33 32  1  0  0  0  0
 36 33  1  0  0  0  0
 37 36  1  0  0  0  0
 38 44  1  0  0  0  0
 38 41  1  1  0  0  0
 40 45  1  0  0  0  0
 40 37  1  1  0  0  0
 42 39  1  6  0  0  0
 42 38  1  0  0  0  0
 43 40  1  0  0  0  0
 43 42  1  0  0  0  0
 45 44  1  0  0  0  0
M  END
>  <MODEL>
6

>  <REMARK>
 VINA RESULT:      -5.4      5.552     12.277
  Name = 
  16 active torsions:
  status: ('A' for Active; 'I' for Inactive)
    1  A    between atoms: N_2  and  C_4
    2  A    between atoms: N_2  and  C_22
    3  A    between atoms: C_5  and  C_16
    4  A    between atoms: C_10  and  C_19
    5  A    between atoms: C_10  and  N_44
    6  A    between atoms: C_13  and  N_36
    7  A    between atoms: C_16  and  C_41
    8  A    between atoms: C_22  and  N_31
    9  A    between atoms: C_26  and  C_27
   10  A    between atoms: C_26  and  C_41
   11  A    between atoms: C_27  and  C_37
   12  A    between atoms: C_27  and  C_38
   13  A    between atoms: C_28  and  C_32
   14  A    between atoms: C_28  and  N_44
   15  A    between atoms: N_30  and  N_31
   16  A    between atoms: N_30  and  C_32
                            x       y       z     vdW  Elec       q    Type
                         _______ _______ _______ _____ _____    ______ ____

>  <TORSDO>
F 16

$$$$
=
 OpenBabel11072412013D

 45 47  0  0  1  0  0  0  0  0999 V2000
  160.9690  210.4070  151.6380 O   0  0  0  0  0  1  0  0  0  0  0  0
  160.7880  206.2970  151.5590 C   0  0  2  0  0  3  0  0  0  0  0  0
  161.5330  209.4040  152.4330 C   0  0  1  0  0  0  0  0  0  0  0  0
  160.9110  207.2780  150.3770 C   0  0  0  0  0  2  0  0  0  0  0  0
  160.4120  208.4440  152.8990 C   0  0  0  0  0  2  0  0  0  0  0  0
  162.2350  208.0440  150.3220 C   0  0  2  0  0  3  0  0  0  0  0  0
  162.6520  208.7010  151.6430 C   0  0  0  0  0  2  0  0  0  0  0  0
  162.1800  209.0020  149.3120 O   0  0  0  0  0  1  0  0  0  0  0  0
  160.8280  206.9680  152.9390 C   0  0  0  0  0  2  0  0  0  0  0  0
  162.2050  210.0480  153.6440 C   0  0  0  0  0  2  0  0  0  0  0  0
  161.3590  211.1310  154.3070 C   0  0  0  0  0  2  0  0  0  0  0  0
  159.9770  210.6040  154.6760 C   0  0  0  0  0  2  0  0  0  0  0  0
  158.8830  211.5900  154.2790 C   0  0  1  0  0  3  0  0  0  0  0  0
  157.5410  210.3100  155.8040 O   0  0  0  0  0  1  0  0  0  0  0  0
  157.5880  211.2160  154.9280 C   0  0  0  0  0  0  0  0  0  0  0  0
  156.4210  211.8600  154.5380 O   0  0  0  0  0  0  0  0  0  0  0  0
  159.7080  213.3120  155.7230 O   0  0  0  0  0  0  0  0  0  0  0  0
  159.1110  214.0500  153.6040 N   0  0  0  0  0  2  0  0  0  0  0  0
  159.2610  213.0140  154.5830 C   0  0  0  0  0  0  0  0  0  0  0  0
  159.6390  213.6900  149.9250 C   0  0  0  0  0  2  0  0  0  0  0  0
  158.5340  214.0980  149.1670 O   0  0  0  0  0  0  0  0  0  0  0  0
  157.4460  213.3620  149.6510 C   0  0  0  0  0  2  0  0  0  0  0  0
  158.6810  213.8520  152.2200 C   0  0  1  0  0  3  0  0  0  0  0  0
  156.6450  214.2330  150.6130 C   0  0  0  0  0  2  0  0  0  0  0  0
  157.2470  214.3570  152.0270 C   0  0  0  0  0  2  0  0  0  0  0  0
  159.6900  214.4510  151.2450 C   0  0  0  0  0  2  0  0  0  0  0  0
  161.8160  205.2650  151.4920 N   0  0  0  0  0  2  0  0  0  0  0  0
  162.6050  202.7610  151.7480 S   0  0  0  0  0  0  0  0  0  0  0  0
  161.5860  203.8890  151.1620 C   0  0  0  0  0  0  0  0  0  0  0  0
  160.5270  203.4750  150.2950 N   0  0  0  0  0  2  0  0  0  0  0  0
  160.1930  202.1300  150.0970 N   0  0  0  0  0  2  0  0  0  0  0  0
  159.8320  201.9840  148.6920 C   0  0  0  0  0  2  0  0  0  0  0  0
  161.0200  201.5540  147.8310 C   0  0  1  0  0  0  0  0  0  0  0  0
  161.9340  200.8950  148.6560 O   0  0  0  0  0  1  0  0  0  0  0  0
  160.5460  200.5930  146.7480 C   0  0  0  0  0  1  0  0  0  0  0  0
  161.6490  202.7420  147.2360 N   0  0  0  0  0  2  0  0  0  0  0  0
  161.2040  202.9320  145.8570 C   0  0  0  0  0  2  0  0  0  0  0  0
  161.3770  206.6160  146.3870 C   0  0  1  0  0  3  0  0  0  0  0  0
  163.1120  206.2390  147.9670 F   0  0  0  0  0  0  0  0  0  0  0  0
  162.0380  204.0110  145.1730 C   0  0  2  0  0  3  0  0  0  0  0  0
  160.6650  207.3920  147.2810 F   0  0  0  0  0  0  0  0  0  0  0  0
  162.2090  205.5880  147.1480 C   0  0  2  0  0  3  0  0  0  0  0  0
  162.9740  204.6940  146.1730 C   0  0  0  0  0  2  0  0  0  0  0  0
  160.4020  205.9180  145.4440 C   0  0  0  0  0  2  0  0  0  0  0  0
  161.1620  205.0390  144.4520 C   0  0  0  0  0  2  0  0  0  0  0  0
  2 27  1  1  0  0  0
  2  9  1  0  0  0  0
  3  1  1  6  0  0  0
  3  5  1  0  0  0  0
  3 10  1  0  0  0  0
  4  2  1  0  0  0  0
  5  9  1  0  0  0  0
  6  8  1  6  0  0  0
  6  4  1  0  0  0  0
  6  7  1  0  0  0  0
  7  3  1  0  0  0  0
 10 11  1  0  0  0  0
 11 12  1  0  0  0  0
 13 19  1  0  0  0  0
 13 12  1  1  0  0  0
 13 15  1  0  0  0  0
 15 14  1  0  0  0  0
 16 15  2  0  0  0  0
 18 19  1  0  0  0  0
 19 17  2  0  0  0  0
 20 26  1  0  0  0  0
 21 22  1  0  0  0  0
 21 20  1  0  0  0  0
 22 24  1  0  0  0  0
 23 18  1  1  0  0  0
 24 25  1  0  0  0  0
 25 23  1  0  0  0  0
 26 23  1  0  0  0  0
 29 27  1  0  0  0  0
 29 28  2  0  0  0  0
 30 29  1  0  0  0  0
 31 30  1  0  0  0  0
 32 31  1  0  0  0  0
 33 35  1  6  0  0  0
 33 34  1  0  0  0  0
 33 32  1  0  0  0  0
 36 33  1  0  0  0  0
 37 36  1  0  0  0  0
 38 42  1  0  0  0  0
 38 41  1  1  0  0  0
 40 37  1  1  0  0  0
 40 43  1  0  0  0  0
 42 39  1  1  0  0  0
 43 42  1  0  0  0  0
 44 38  1  0  0  0  0
 45 40  1  0  0  0  0
 45 44  1  0  0  0  0
M  END
>  <MODEL>
7

>  <REMARK>
 VINA RESULT:      -5.3      3.920     10.811
  Name = 
  16 active torsions:
  status: ('A' for Active; 'I' for Inactive)
    1  A    between atoms: N_2  and  C_4
    2  A    between atoms: N_2  and  C_22
    3  A    between atoms: C_5  and  C_16
    4  A    between atoms: C_10  and  C_19
    5  A    between atoms: C_10  and  N_44
    6  A    between atoms: C_13  and  N_36
    7  A    between atoms: C_16  and  C_41
    8  A    between atoms: C_22  and  N_31
    9  A    between atoms: C_26  and  C_27
   10  A    between atoms: C_26  and  C_41
   11  A    between atoms: C_27  and  C_37
   12  A    between atoms: C_27  and  C_38
   13  A    between atoms: C_28  and  C_32
   14  A    between atoms: C_28  and  N_44
   15  A    between atoms: N_30  and  N_31
   16  A    between atoms: N_30  and  C_32
                            x       y       z     vdW  Elec       q    Type
                         _______ _______ _______ _____ _____    ______ ____

>  <TORSDO>
F 16

$$$$
=
 OpenBabel11072412013D

 45 47  0  0  1  0  0  0  0  0999 V2000
  160.9070  205.6220  146.4250 O   0  0  0  0  0  1  0  0  0  0  0  0
  160.1670  204.3920  150.2820 C   0  0  2  0  0  3  0  0  0  0  0  0
  161.3090  206.0930  147.6790 C   0  0  1  0  0  0  0  0  0  0  0  0
  160.4500  203.5320  149.0340 C   0  0  0  0  0  2  0  0  0  0  0  0
  160.0570  206.2890  148.5670 C   0  0  0  0  0  2  0  0  0  0  0  0
  161.8670  203.6740  148.4730 C   0  0  2  0  0  3  0  0  0  0  0  0
  162.3400  205.1180  148.2780 C   0  0  0  0  0  2  0  0  0  0  0  0
  161.9670  202.9750  147.2720 O   0  0  0  0  0  1  0  0  0  0  0  0
  160.2670  205.9050  150.0380 C   0  0  0  0  0  2  0  0  0  0  0  0
  162.0360  207.4250  147.5000 C   0  0  0  0  0  2  0  0  0  0  0  0
  161.6270  208.4840  148.5200 C   0  0  0  0  0  2  0  0  0  0  0  0
  162.5050  209.7250  148.4090 C   0  0  0  0  0  2  0  0  0  0  0  0
  161.7250  210.9890  148.7560 C   0  0  1  0  0  3  0  0  0  0  0  0
  160.8510  212.0070  150.7480 O   0  0  0  0  0  0  0  0  0  0  0  0
  161.6150  211.1400  150.2410 C   0  0  0  0  0  0  0  0  0  0  0  0
  162.3840  210.3300  151.0650 O   0  0  0  0  0  1  0  0  0  0  0  0
  163.5440  212.4640  148.2610 O   0  0  0  0  0  0  0  0  0  0  0  0
  161.5090  213.1280  147.3640 N   0  0  0  0  0  2  0  0  0  0  0  0
  162.3170  212.2180  148.1200 C   0  0  0  0  0  0  0  0  0  0  0  0
  158.6020  212.5920  145.0810 C   0  0  0  0  0  2  0  0  0  0  0  0
  157.4030  213.1100  145.5850 O   0  0  0  0  0  0  0  0  0  0  0  0
  157.2370  212.5300  146.8480 C   0  0  0  0  0  2  0  0  0  0  0  0
  160.0930  212.9430  147.0480 C   0  0  1  0  0  3  0  0  0  0  0  0
  157.6870  213.5240  147.9140 C   0  0  0  0  0  2  0  0  0  0  0  0
  159.2140  213.6160  148.1080 C   0  0  0  0  0  2  0  0  0  0  0  0
  159.7910  213.3810  145.6180 C   0  0  0  0  0  2  0  0  0  0  0  0
  161.0450  204.0190  151.3840 N   0  0  0  0  0  2  0  0  0  0  0  0
  163.1510  205.5040  151.9440 S   0  0  0  0  0  0  0  0  0  0  0  0
  161.6650  204.9380  152.2940 C   0  0  0  0  0  0  0  0  0  0  0  0
  161.0490  205.3340  153.5220 N   0  0  0  0  0  2  0  0  0  0  0  0
  161.5800  206.3330  154.3470 N   0  0  0  0  0  2  0  0  0  0  0  0
  160.4530  207.1020  154.8600 C   0  0  0  0  0  2  0  0  0  0  0  0
  160.8770  208.4830  155.3620 C   0  0  1  0  0  0  0  0  0  0  0  0
  161.9320  208.3100  156.2620 O   0  0  0  0  0  1  0  0  0  0  0  0
  161.3600  209.3280  154.1890 C   0  0  0  0  0  1  0  0  0  0  0  0
  159.7420  209.1280  156.0380 N   0  0  0  0  0  2  0  0  0  0  0  0
  159.2080  210.2220  155.2310 C   0  0  0  0  0  2  0  0  0  0  0  0
  157.4540  213.4480  154.6000 C   0  0  1  0  0  3  0  0  0  0  0  0
  155.5560  212.5580  155.7220 F   0  0  0  0  0  0  0  0  0  0  0  0
  159.1190  211.5000  156.0590 C   0  0  2  0  0  3  0  0  0  0  0  0
  156.6940  213.8160  153.5070 F   0  0  0  0  0  0  0  0  0  0  0  0
  156.8240  212.2340  155.2770 C   0  0  2  0  0  3  0  0  0  0  0  0
  157.6730  211.7880  156.4670 C   0  0  0  0  0  2  0  0  0  0  0  0
  158.8710  213.1240  154.1390 C   0  0  0  0  0  2  0  0  0  0  0  0
  159.7300  212.6990  155.3270 C   0  0  0  0  0  2  0  0  0  0  0  0
  2 27  1  1  0  0  0
  3  1  1  6  0  0  0
  3  7  1  0  0  0  0
  3  5  1  0  0  0  0
  4  2  1  0  0  0  0
  5  9  1  0  0  0  0
  6  8  1  6  0  0  0
  6  4  1  0  0  0  0
  7  6  1  0  0  0  0
  9  2  1  0  0  0  0
 10  3  1  0  0  0  0
 10 11  1  0  0  0  0
 12 11  1  0  0  0  0
 13 12  1  1  0  0  0
 13 15  1  0  0  0  0
 15 14  2  0  0  0  0
 15 16  1  0  0  0  0
 18 19  1  0  0  0  0
 19 17  2  0  0  0  0
 19 13  1  0  0  0  0
 20 21  1  0  0  0  0
 20 26  1  0  0  0  0
 21 22  1  0  0  0  0
 22 24  1  0  0  0  0
 23 18  1  1  0  0  0
 23 25  1  0  0  0  0
 24 25  1  0  0  0  0
 26 23  1  0  0  0  0
 27 29  1  0  0  0  0
 28 29  2  0  0  0  0
 29 30  1  0  0  0  0
 30 31  1  0  0  0  0
 31 32  1  0  0  0  0
 32 33  1  0  0  0  0
 33 35  1  6  0  0  0
 33 36  1  0  0  0  0
 33 34  1  0  0  0  0
 37 36  1  0  0  0  0
 38 41  1  6  0  0  0
 38 42  1  0  0  0  0
 40 37  1  6  0  0  0
 40 43  1  0  0  0  0
 42 39  1  1  0  0  0
 42 43  1  0  0  0  0
 44 38  1  0  0  0  0
 44 45  1  0  0  0  0
 45 40  1  0  0  0  0
M  END
>  <MODEL>
8

>  <REMARK>
 VINA RESULT:      -5.0      3.738      6.561
  Name = 
  16 active torsions:
  status: ('A' for Active; 'I' for Inactive)
    1  A    between atoms: N_2  and  C_4
    2  A    between atoms: N_2  and  C_22
    3  A    between atoms: C_5  and  C_16
    4  A    between atoms: C_10  and  C_19
    5  A    between atoms: C_10  and  N_44
    6  A    between atoms: C_13  and  N_36
    7  A    between atoms: C_16  and  C_41
    8  A    between atoms: C_22  and  N_31
    9  A    between atoms: C_26  and  C_27
   10  A    between atoms: C_26  and  C_41
   11  A    between atoms: C_27  and  C_37
   12  A    between atoms: C_27  and  C_38
   13  A    between atoms: C_28  and  C_32
   14  A    between atoms: C_28  and  N_44
   15  A    between atoms: N_30  and  N_31
   16  A    between atoms: N_30  and  C_32
                            x       y       z     vdW  Elec       q    Type
                         _______ _______ _______ _____ _____    ______ ____

>  <TORSDO>
F 16

$$$$
=
 OpenBabel11072412013D

 45 47  0  0  1  0  0  0  0  0999 V2000
  160.9720  210.4340  151.4320 O   0  0  0  0  0  1  0  0  0  0  0  0
  160.7350  206.3370  151.1290 C   0  0  2  0  0  3  0  0  0  0  0  0
  161.5070  209.3820  152.1810 C   0  0  1  0  0  0  0  0  0  0  0  0
  160.8920  207.3780  150.0040 C   0  0  0  0  0  2  0  0  0  0  0  0
  160.3650  208.4150  152.5770 C   0  0  0  0  0  2  0  0  0  0  0  0
  162.2270  208.1260  150.0130 C   0  0  2  0  0  3  0  0  0  0  0  0
  162.6300  208.7060  151.3730 C   0  0  0  0  0  2  0  0  0  0  0  0
  162.2030  209.1370  149.0550 O   0  0  0  0  0  1  0  0  0  0  0  0
  160.7600  206.9330  152.5440 C   0  0  0  0  0  2  0  0  0  0  0  0
  162.1680  209.9500  153.4360 C   0  0  0  0  0  2  0  0  0  0  0  0
  161.2080  210.1070  154.6120 C   0  0  0  0  0  2  0  0  0  0  0  0
  161.2230  211.5330  155.1500 C   0  0  0  0  0  2  0  0  0  0  0  0
  159.8230  211.9910  155.5470 C   0  0  1  0  0  3  0  0  0  0  0  0
  157.9410  211.0760  156.7250 O   0  0  0  0  0  1  0  0  0  0  0  0
  159.1310  210.9230  156.3340 C   0  0  0  0  0  0  0  0  0  0  0  0
  159.8200  209.7620  156.6570 O   0  0  0  0  0  0  0  0  0  0  0  0
  160.6420  213.4640  157.2470 O   0  0  0  0  0  0  0  0  0  0  0  0
  158.9500  214.3660  155.9390 N   0  0  0  0  0  2  0  0  0  0  0  0
  159.8400  213.3000  156.2890 C   0  0  0  0  0  0  0  0  0  0  0  0
  155.5720  214.2290  154.3510 C   0  0  0  0  0  2  0  0  0  0  0  0
  155.5920  213.6880  153.0600 O   0  0  0  0  0  0  0  0  0  0  0  0
  156.5190  214.4520  152.3400 C   0  0  0  0  0  2  0  0  0  0  0  0
  158.0190  214.3580  154.8110 C   0  0  1  0  0  3  0  0  0  0  0  0
  157.8440  213.6980  152.2790 C   0  0  0  0  0  2  0  0  0  0  0  0
  158.6980  213.7890  153.5600 C   0  0  0  0  0  2  0  0  0  0  0  0
  156.7150  213.6600  155.1850 C   0  0  0  0  0  2  0  0  0  0  0  0
  161.7490  205.2950  151.0240 N   0  0  0  0  0  2  0  0  0  0  0  0
  161.3880  202.8040  151.8110 S   0  0  0  0  0  0  0  0  0  0  0  0
  161.5010  203.9350  150.6440 C   0  0  0  0  0  0  0  0  0  0  0  0
  161.4010  203.5260  149.2780 N   0  0  0  0  0  2  0  0  0  0  0  0
  160.3780  202.6920  148.8100 N   0  0  0  0  0  2  0  0  0  0  0  0
  161.0190  201.5180  148.2300 C   0  0  0  0  0  2  0  0  0  0  0  0
  160.7190  201.3740  146.7370 C   0  0  1  0  0  0  0  0  0  0  0  0
  161.2070  200.1340  146.3170 O   0  0  0  0  0  1  0  0  0  0  0  0
  159.2120  201.4160  146.5130 C   0  0  0  0  0  1  0  0  0  0  0  0
  161.3870  202.4530  145.9970 N   0  0  0  0  0  2  0  0  0  0  0  0
  160.4380  203.1660  145.1450 C   0  0  0  0  0  2  0  0  0  0  0  0
  162.3250  205.9840  146.6890 C   0  0  1  0  0  3  0  0  0  0  0  0
  164.3190  204.7280  146.3820 F   0  0  0  0  0  0  0  0  0  0  0  0
  161.0980  204.3960  144.5290 C   0  0  2  0  0  3  0  0  0  0  0  0
  162.6100  206.2010  148.0240 F   0  0  0  0  0  0  0  0  0  0  0  0
  162.9460  204.6650  146.2400 C   0  0  2  0  0  3  0  0  0  0  0  0
  162.6080  204.3890  144.7760 C   0  0  0  0  0  2  0  0  0  0  0  0
  160.8110  205.9510  146.5000 C   0  0  0  0  0  2  0  0  0  0  0  0
  160.4670  205.6970  145.0340 C   0  0  0  0  0  2  0  0  0  0  0  0
  2 27  1  1  0  0  0
  2  9  1  0  0  0  0
  3  1  1  6  0  0  0
  3  5  1  0  0  0  0
  3 10  1  0  0  0  0
  4  6  1  0  0  0  0
  4  2  1  0  0  0  0
  6  8  1  6  0  0  0
  6  7  1  0  0  0  0
  7  3  1  0  0  0  0
  9  5  1  0  0  0  0
 10 11  1  0  0  0  0
 11 12  1  0  0  0  0
 13 12  1  1  0  0  0
 13 19  1  0  0  0  0
 13 15  1  0  0  0  0
 15 16  2  0  0  0  0
 15 14  1  0  0  0  0
 18 19  1  0  0  0  0
 19 17  2  0  0  0  0
 20 26  1  0  0  0  0
 21 20  1  0  0  0  0
 22 21  1  0  0  0  0
 23 26  1  0  0  0  0
 23 18  1  1  0  0  0
 24 22  1  0  0  0  0
 24 25  1  0  0  0  0
 25 23  1  0  0  0  0
 29 27  1  0  0  0  0
 29 28  2  0  0  0  0
 30 29  1  0  0  0  0
 31 30  1  0  0  0  0
 32 31  1  0  0  0  0
 33 35  1  6  0  0  0
 33 32  1  0  0  0  0
 34 33  1  0  0  0  0
 36 33  1  0  0  0  0
 37 36  1  0  0  0  0
 38 41  1  1  0  0  0
 40 43  1  0  0  0  0
 40 45  1  0  0  0  0
 40 37  1  1  0  0  0
 42 39  1  6  0  0  0
 42 38  1  0  0  0  0
 43 42  1  0  0  0  0
 44 38  1  0  0  0  0
 45 44  1  0  0  0  0
M  END
>  <MODEL>
9

>  <REMARK>
 VINA RESULT:      -5.0      3.729     11.535
  Name = 
  16 active torsions:
  status: ('A' for Active; 'I' for Inactive)
    1  A    between atoms: N_2  and  C_4
    2  A    between atoms: N_2  and  C_22
    3  A    between atoms: C_5  and  C_16
    4  A    between atoms: C_10  and  C_19
    5  A    between atoms: C_10  and  N_44
    6  A    between atoms: C_13  and  N_36
    7  A    between atoms: C_16  and  C_41
    8  A    between atoms: C_22  and  N_31
    9  A    between atoms: C_26  and  C_27
   10  A    between atoms: C_26  and  C_41
   11  A    between atoms: C_27  and  C_37
   12  A    between atoms: C_27  and  C_38
   13  A    between atoms: C_28  and  C_32
   14  A    between atoms: C_28  and  N_44
   15  A    between atoms: N_30  and  N_31
   16  A    between atoms: N_30  and  C_32
                            x       y       z     vdW  Elec       q    Type
                         _______ _______ _______ _____ _____    ______ ____

>  <TORSDO>
F 16

$$$$
