=
 OpenBabel11072411273D

 35 41  0  0  1  0  0  0  0  0999 V2000
  161.5070  210.1760  154.5720 C   0  0  2  0  0  3  0  0  0  0  0  0
  162.0360  210.7480  156.9480 C   0  0  0  0  0  2  0  0  0  0  0  0
  158.5920  213.2210  154.8030 C   0  0  2  0  0  3  0  0  0  0  0  0
  160.1620  210.9010  154.7690 C   0  0  2  0  0  0  0  0  0  0  0  0
  155.6560  212.5340  156.4990 C   0  0  0  0  0  2  0  0  0  0  0  0
  160.1820  212.1080  155.7890 C   0  0  1  0  0  3  0  0  0  0  0  0
  158.9750  212.7790  156.0620 O   0  0  0  0  0  0  0  0  0  0  0  0
  157.8950  211.5160  153.3490 C   0  0  0  0  0  2  0  0  0  0  0  0
  156.3850  210.4950  155.5960 O   0  0  0  0  0  0  0  0  0  0  0  0
  162.5850  210.7150  155.5200 C   0  0  0  0  0  2  0  0  0  0  0  0
  156.5050  211.7160  155.5640 C   0  0  0  0  0  0  0  0  0  0  0  0
  156.8200  214.4530  155.7500 O   0  0  0  0  0  0  0  0  0  0  0  0
  159.0490  209.9030  155.0450 C   0  0  0  0  0  2  0  0  0  0  0  0
  159.1040  210.5720  153.6750 C   0  0  2  0  0  3  0  0  0  0  0  0
  155.5310  213.9450  155.9540 C   0  0  0  0  0  2  0  0  0  0  0  0
  157.2850  213.9180  154.5310 C   0  0  2  0  0  3  0  0  0  0  0  0
  160.8920  211.7620  157.1070 C   0  0  0  0  0  2  0  0  0  0  0  0
  157.3710  212.3800  154.4860 C   0  0  1  0  0  0  0  0  0  0  0  0
  161.6190  205.6530  151.7610 C   0  0  0  0  0  3  0  0  0  0  0  0
  161.9150  208.6670  149.8630 C   0  0  0  0  0  0  0  0  0  0  0  0
  162.1030  209.1100  148.5220 N   0  0  0  0  0  1  0  0  0  0  0  0
  161.7530  207.4000  150.1080 N   0  0  0  0  0  0  0  0  0  0  0  0
  161.5620  206.9430  151.4530 C   0  0  0  0  0  0  0  0  0  0  0  0
  161.2540  207.9290  152.5370 C   0  0  0  0  0  2  0  0  0  0  0  0
  162.0160  209.6130  150.9410 N   0  0  0  0  0  0  0  0  0  0  0  0
  161.9440  210.3010  153.1860 N   0  0  0  0  0  2  0  0  0  0  0  0
  161.7690  209.3010  152.1780 C   0  0  0  0  0  0  0  0  0  0  0  0
  161.9160  204.6540  150.7860 N   0  0  0  0  0  2  0  0  0  0  0  0
  161.0500  204.5300  149.6220 C   0  0  1  0  0  3  0  0  0  0  0  0
  161.1860  203.7700  147.4720 O   0  0  0  0  0  0  0  0  0  0  0  0
  161.8530  204.5980  148.3730 C   0  0  0  0  0  2  0  0  0  0  0  0
  160.8100  202.6970  148.1710 O   0  0  0  0  0  0  0  0  0  0  0  0
  160.4250  203.1620  149.4460 C   0  0  1  0  0  3  0  0  0  0  0  0
  160.8310  202.1520  150.4800 C   0  0  0  0  0  3  0  0  0  0  0  0
  161.2050  200.9790  150.1300 N   0  0  0  0  0  2  0  0  0  0  0  0
  1 26  1  6  0  0  0
  1  4  1  0  0  0  0
  1 10  1  0  0  0  0
  2 17  1  0  0  0  0
  3  7  1  1  0  0  0
  4 13  1  1  0  0  0
  4  6  1  0  0  0  0
  6  7  1  0  0  0  0
  6 17  1  1  0  0  0
 10  2  1  0  0  0  0
 11  9  2  0  0  0  0
 11  5  1  0  0  0  0
 12 15  1  0  0  0  0
 14  8  1  1  0  0  0
 14  4  1  0  0  0  0
 14 13  1  0  0  0  0
 15  5  1  0  0  0  0
 16  3  1  0  0  0  0
 16 12  1  1  0  0  0
 18  8  1  6  0  0  0
 18 16  1  0  0  0  0
 18  3  1  0  0  0  0
 18 11  1  0  0  0  0
 20 22  2  0  0  0  0
 20 25  1  0  0  0  0
 21 20  1  0  0  0  0
 22 23  1  0  0  0  0
 23 19  2  0  0  0  0
 23 24  1  0  0  0  0
 25 27  2  0  0  0  0
 27 24  1  0  0  0  0
 27 26  1  0  0  0  0
 28 19  1  0  0  0  0
 29 28  1  1  0  0  0
 30 32  1  0  0  0  0
 30 31  1  0  0  0  0
 31 29  1  0  0  0  0
 32 33  1  0  0  0  0
 33 29  1  0  0  0  0
 33 34  1  1  0  0  0
 35 34  2  0  0  0  0
M  END
>  <MODEL>
1

>  <REMARK>
 VINA RESULT:      -7.7      0.000      0.000
  Name = 
  4 active torsions:
  status: ('A' for Active; 'I' for Inactive)
    1  A    between atoms: C_1  and  N_23
    2  A    between atoms: C_8  and  N_22
    3  A    between atoms: C_9  and  N_22
    4  A    between atoms: C_19  and  C_26
                            x       y       z     vdW  Elec       q    Type
                         _______ _______ _______ _____ _____    ______ ____

>  <TORSDO>
F 4

$$$$
=
 OpenBabel11072411273D

 35 41  0  0  1  0  0  0  0  0999 V2000
  161.3570  209.1780  153.1230 C   0  0  2  0  0  3  0  0  0  0  0  0
  161.2020  211.0750  151.5000 C   0  0  0  0  0  2  0  0  0  0  0  0
  158.1920  211.0710  155.1770 C   0  0  2  0  0  3  0  0  0  0  0  0
  160.5810  210.0580  154.1210 C   0  0  2  0  0  0  0  0  0  0  0  0
  158.9320  213.8620  157.0840 C   0  0  0  0  0  2  0  0  0  0  0  0
  159.5530  211.0730  153.4770 C   0  0  1  0  0  3  0  0  0  0  0  0
  158.8510  211.9490  154.3270 O   0  0  0  0  0  0  0  0  0  0  0  0
  159.5960  209.9420  156.6800 C   0  0  0  0  0  2  0  0  0  0  0  0
  160.8500  212.5110  157.1250 O   0  0  0  0  0  0  0  0  0  0  0  0
  161.0490  209.5620  151.6700 C   0  0  0  0  0  2  0  0  0  0  0  0
  159.6500  212.5570  156.8700 C   0  0  0  0  0  0  0  0  0  0  0  0
  157.0040  212.8640  156.1430 O   0  0  0  0  0  0  0  0  0  0  0  0
  161.5310  210.7160  155.1080 C   0  0  0  0  0  2  0  0  0  0  0  0
  160.6610  209.5610  155.5930 C   0  0  2  0  0  3  0  0  0  0  0  0
  157.4480  213.5930  157.2530 C   0  0  0  0  0  2  0  0  0  0  0  0
  157.3730  211.5200  156.3580 C   0  0  2  0  0  3  0  0  0  0  0  0
  160.1490  211.8580  152.3000 C   0  0  0  0  0  2  0  0  0  0  0  0
  158.8880  211.2760  156.5090 C   0  0  1  0  0  0  0  0  0  0  0  0
  161.0200  206.1400  148.7600 C   0  0  0  0  0  3  0  0  0  0  0  0
  161.1790  204.3810  151.8670 C   0  0  0  0  0  0  0  0  0  0  0  0
  161.1450  203.0540  152.3850 N   0  0  0  0  0  1  0  0  0  0  0  0
  161.1930  204.5730  150.5810 N   0  0  0  0  0  0  0  0  0  0  0  0
  161.2300  205.9040  150.0490 C   0  0  0  0  0  0  0  0  0  0  0  0
  161.5470  207.0570  150.9510 C   0  0  0  0  0  2  0  0  0  0  0  0
  161.0870  205.4950  152.7720 N   0  0  0  0  0  0  0  0  0  0  0  0
  161.0470  207.7710  153.3510 N   0  0  0  0  0  2  0  0  0  0  0  0
  161.2010  206.7290  152.3820 C   0  0  0  0  0  0  0  0  0  0  0  0
  160.7040  205.0960  147.8400 N   0  0  0  0  0  2  0  0  0  0  0  0
  161.1140  205.2360  146.4500 C   0  0  1  0  0  3  0  0  0  0  0  0
  163.0510  205.2470  145.2400 O   0  0  0  0  0  0  0  0  0  0  0  0
  162.4780  205.8230  146.3730 C   0  0  0  0  0  2  0  0  0  0  0  0
  162.6890  203.9630  145.2580 O   0  0  0  0  0  0  0  0  0  0  0  0
  161.3610  203.9270  145.7330 C   0  0  1  0  0  3  0  0  0  0  0  0
  161.1770  202.7030  146.5820 C   0  0  0  0  0  3  0  0  0  0  0  0
  160.6460  201.6460  146.0940 N   0  0  0  0  0  2  0  0  0  0  0  0
  1 26  1  6  0  0  0
  1  4  1  0  0  0  0
  2 10  1  0  0  0  0
  2 17  1  0  0  0  0
  3  7  1  6  0  0  0
  3 16  1  0  0  0  0
  3 18  1  0  0  0  0
  4 13  1  1  0  0  0
  4 14  1  0  0  0  0
  5 15  1  0  0  0  0
  6 17  1  6  0  0  0
  6  4  1  0  0  0  0
  6  7  1  0  0  0  0
 10  1  1  0  0  0  0
 11  5  1  0  0  0  0
 11  9  2  0  0  0  0
 12 15  1  0  0  0  0
 14 13  1  1  0  0  0
 14  8  1  0  0  0  0
 16 12  1  6  0  0  0
 16 18  1  0  0  0  0
 18  8  1  1  0  0  0
 18 11  1  0  0  0  0
 19 23  2  0  0  0  0
 20 21  1  0  0  0  0
 20 25  1  0  0  0  0
 22 20  2  0  0  0  0
 23 22  1  0  0  0  0
 23 24  1  0  0  0  0
 24 27  1  0  0  0  0
 27 25  2  0  0  0  0
 27 26  1  0  0  0  0
 28 19  1  0  0  0  0
 29 28  1  1  0  0  0
 30 32  1  0  0  0  0
 30 31  1  0  0  0  0
 31 29  1  0  0  0  0
 32 33  1  0  0  0  0
 33 29  1  0  0  0  0
 33 34  1  1  0  0  0
 35 34  2  0  0  0  0
M  END
>  <MODEL>
2

>  <REMARK>
 VINA RESULT:      -7.6      2.131      3.521
  Name = 
  4 active torsions:
  status: ('A' for Active; 'I' for Inactive)
    1  A    between atoms: C_1  and  N_23
    2  A    between atoms: C_8  and  N_22
    3  A    between atoms: C_9  and  N_22
    4  A    between atoms: C_19  and  C_26
                            x       y       z     vdW  Elec       q    Type
                         _______ _______ _______ _____ _____    ______ ____

>  <TORSDO>
F 4

$$$$
=
 OpenBabel11072411273D

 35 41  0  0  1  0  0  0  0  0999 V2000
  161.5480  210.0810  154.4530 C   0  0  2  0  0  3  0  0  0  0  0  0
  162.0630  210.0910  156.9010 C   0  0  0  0  0  2  0  0  0  0  0  0
  158.9240  213.2790  155.2970 C   0  0  2  0  0  3  0  0  0  0  0  0
  160.2720  210.8760  154.7880 C   0  0  2  0  0  0  0  0  0  0  0  0
  155.8920  212.5410  156.7900 C   0  0  0  0  0  2  0  0  0  0  0  0
  160.3770  211.8360  156.0400 C   0  0  1  0  0  3  0  0  0  0  0  0
  159.2300  212.5500  156.4390 O   0  0  0  0  0  0  0  0  0  0  0  0
  158.1120  211.9900  153.5130 C   0  0  0  0  0  2  0  0  0  0  0  0
  156.4530  210.6750  155.4840 O   0  0  0  0  0  0  0  0  0  0  0  0
  162.6460  210.3030  155.5020 C   0  0  0  0  0  2  0  0  0  0  0  0
  156.6860  211.8580  155.7110 C   0  0  0  0  0  0  0  0  0  0  0  0
  157.2500  214.4520  156.4690 O   0  0  0  0  0  0  0  0  0  0  0  0
  159.0640  209.9550  154.8410 C   0  0  0  0  0  2  0  0  0  0  0  0
  159.2180  210.8860  153.6430 C   0  0  2  0  0  3  0  0  0  0  0  0
  155.9140  214.0400  156.5530 C   0  0  0  0  0  2  0  0  0  0  0  0
  157.6960  214.1400  155.1690 C   0  0  2  0  0  3  0  0  0  0  0  0
  161.0150  211.1560  157.2600 C   0  0  0  0  0  2  0  0  0  0  0  0
  157.6400  212.6440  154.8030 C   0  0  1  0  0  0  0  0  0  0  0  0
  161.1420  206.3140  150.7090 C   0  0  0  0  0  3  0  0  0  0  0  0
  161.8760  209.6060  149.5250 C   0  0  0  0  0  0  0  0  0  0  0  0
  162.1550  210.3050  148.3160 N   0  0  0  0  0  1  0  0  0  0  0  0
  161.5450  208.3490  149.4840 N   0  0  0  0  0  0  0  0  0  0  0  0
  161.2610  207.6360  150.6950 C   0  0  0  0  0  0  0  0  0  0  0  0
  161.0570  208.3910  151.9730 C   0  0  0  0  0  2  0  0  0  0  0  0
  162.0720  210.2700  150.7860 N   0  0  0  0  0  0  0  0  0  0  0  0
  162.0330  210.4490  153.1280 N   0  0  0  0  0  2  0  0  0  0  0  0
  161.7550  209.7280  151.9240 C   0  0  0  0  0  0  0  0  0  0  0  0
  161.3310  205.5250  149.5350 N   0  0  0  0  0  2  0  0  0  0  0  0
  161.4910  204.0850  149.6760 C   0  0  1  0  0  3  0  0  0  0  0  0
  160.1690  202.2230  149.7270 O   0  0  0  0  0  0  0  0  0  0  0  0
  160.2770  203.4900  150.2960 C   0  0  0  0  0  2  0  0  0  0  0  0
  160.4620  202.3750  148.4340 O   0  0  0  0  0  0  0  0  0  0  0  0
  161.5050  203.3230  148.3670 C   0  0  1  0  0  3  0  0  0  0  0  0
  161.3160  204.1750  147.1460 C   0  0  0  0  0  3  0  0  0  0  0  0
  162.1580  204.1270  146.1830 N   0  0  0  0  0  2  0  0  0  0  0  0
  1 26  1  6  0  0  0
  1  4  1  0  0  0  0
  1 10  1  0  0  0  0
  2 17  1  0  0  0  0
  3  7  1  1  0  0  0
  4 13  1  1  0  0  0
  4  6  1  0  0  0  0
  6  7  1  0  0  0  0
  6 17  1  1  0  0  0
  9 11  2  0  0  0  0
 10  2  1  0  0  0  0
 11  5  1  0  0  0  0
 12 15  1  0  0  0  0
 14  8  1  1  0  0  0
 14  4  1  0  0  0  0
 14 13  1  0  0  0  0
 15  5  1  0  0  0  0
 16  3  1  0  0  0  0
 16 12  1  1  0  0  0
 18  8  1  6  0  0  0
 18 16  1  0  0  0  0
 18  3  1  0  0  0  0
 18 11  1  0  0  0  0
 20 25  1  0  0  0  0
 21 20  1  0  0  0  0
 22 20  2  0  0  0  0
 22 23  1  0  0  0  0
 23 19  2  0  0  0  0
 23 24  1  0  0  0  0
 25 27  2  0  0  0  0
 27 24  1  0  0  0  0
 27 26  1  0  0  0  0
 28 19  1  0  0  0  0
 29 28  1  6  0  0  0
 29 31  1  0  0  0  0
 30 31  1  0  0  0  0
 32 30  1  0  0  0  0
 33 34  1  6  0  0  0
 33 32  1  0  0  0  0
 33 29  1  0  0  0  0
 35 34  2  0  0  0  0
M  END
>  <MODEL>
3

>  <REMARK>
 VINA RESULT:      -7.6      1.136      1.475
  Name = 
  4 active torsions:
  status: ('A' for Active; 'I' for Inactive)
    1  A    between atoms: C_1  and  N_23
    2  A    between atoms: C_8  and  N_22
    3  A    between atoms: C_9  and  N_22
    4  A    between atoms: C_19  and  C_26
                            x       y       z     vdW  Elec       q    Type
                         _______ _______ _______ _____ _____    ______ ____

>  <TORSDO>
F 4

$$$$
=
 OpenBabel11072411273D

 35 41  0  0  1  0  0  0  0  0999 V2000
  161.5730  208.8800  152.9530 C   0  0  2  0  0  3  0  0  0  0  0  0
  161.5210  210.8420  151.4040 C   0  0  0  0  0  2  0  0  0  0  0  0
  158.5200  210.8650  155.0890 C   0  0  2  0  0  3  0  0  0  0  0  0
  160.8470  209.7630  153.9870 C   0  0  2  0  0  0  0  0  0  0  0  0
  159.4150  213.5370  157.0970 C   0  0  0  0  0  2  0  0  0  0  0  0
  159.8760  210.8560  153.3850 C   0  0  1  0  0  3  0  0  0  0  0  0
  159.2250  211.7370  154.2700 O   0  0  0  0  0  0  0  0  0  0  0  0
  159.8610  209.6040  156.5430 C   0  0  0  0  0  2  0  0  0  0  0  0
  161.2560  212.0810  157.0800 O   0  0  0  0  0  0  0  0  0  0  0  0
  161.2840  209.3350  151.5170 C   0  0  0  0  0  2  0  0  0  0  0  0
  160.0600  212.2030  156.8320 C   0  0  0  0  0  0  0  0  0  0  0  0
  157.4340  212.6830  156.1250 O   0  0  0  0  0  0  0  0  0  0  0  0
  161.8340  210.3290  154.9950 C   0  0  0  0  0  2  0  0  0  0  0  0
  160.9020  209.2060  155.4390 C   0  0  2  0  0  3  0  0  0  0  0  0
  157.9190  213.3440  157.2610 C   0  0  0  0  0  2  0  0  0  0  0  0
  157.7290  211.3140  156.2890 C   0  0  2  0  0  3  0  0  0  0  0  0
  160.5130  211.6510  152.2360 C   0  0  0  0  0  2  0  0  0  0  0  0
  159.2270  210.9810  156.4250 C   0  0  1  0  0  0  0  0  0  0  0  0
  160.9770  206.0560  148.4750 C   0  0  0  0  0  3  0  0  0  0  0  0
  161.0930  204.1590  151.5020 C   0  0  0  0  0  0  0  0  0  0  0  0
  160.9910  202.8160  151.9650 N   0  0  0  0  0  1  0  0  0  0  0  0
  161.0940  204.4050  150.2250 N   0  0  0  0  0  0  0  0  0  0  0  0
  161.1980  205.7530  149.7490 C   0  0  0  0  0  0  0  0  0  0  0  0
  161.5980  206.8470  150.6910 C   0  0  0  0  0  2  0  0  0  0  0  0
  161.0830  205.2370  152.4550 N   0  0  0  0  0  0  0  0  0  0  0  0
  161.1860  207.4840  153.1290 N   0  0  0  0  0  2  0  0  0  0  0  0
  161.2610  206.4780  152.1150 C   0  0  0  0  0  0  0  0  0  0  0  0
  160.5840  205.0720  147.5200 N   0  0  0  0  0  2  0  0  0  0  0  0
  161.4910  203.9700  147.2340 C   0  0  1  0  0  3  0  0  0  0  0  0
  161.3630  201.7360  146.7770 O   0  0  0  0  0  0  0  0  0  0  0  0
  160.8960  202.6840  147.6850 C   0  0  0  0  0  2  0  0  0  0  0  0
  161.2980  202.3150  145.5770 O   0  0  0  0  0  0  0  0  0  0  0  0
  161.6650  203.6650  145.7620 C   0  0  1  0  0  3  0  0  0  0  0  0
  160.8470  204.5250  144.8430 C   0  0  0  0  0  3  0  0  0  0  0  0
  161.3800  205.5150  144.2320 N   0  0  0  0  0  2  0  0  0  0  0  0
  1 26  1  6  0  0  0
  1  4  1  0  0  0  0
  2 10  1  0  0  0  0
  2 17  1  0  0  0  0
  3  7  1  6  0  0  0
  3 16  1  0  0  0  0
  3 18  1  0  0  0  0
  4 13  1  1  0  0  0
  4 14  1  0  0  0  0
  5 15  1  0  0  0  0
  6 17  1  6  0  0  0
  6  4  1  0  0  0  0
  6  7  1  0  0  0  0
 10  1  1  0  0  0  0
 11  9  2  0  0  0  0
 11  5  1  0  0  0  0
 12 15  1  0  0  0  0
 14 13  1  1  0  0  0
 14  8  1  0  0  0  0
 16 12  1  6  0  0  0
 16 18  1  0  0  0  0
 18  8  1  1  0  0  0
 18 11  1  0  0  0  0
 19 23  2  0  0  0  0
 20 21  1  0  0  0  0
 20 25  1  0  0  0  0
 22 20  2  0  0  0  0
 23 22  1  0  0  0  0
 23 24  1  0  0  0  0
 24 27  1  0  0  0  0
 27 25  2  0  0  0  0
 27 26  1  0  0  0  0
 28 19  1  0  0  0  0
 29 28  1  6  0  0  0
 29 31  1  0  0  0  0
 30 31  1  0  0  0  0
 32 33  1  0  0  0  0
 32 30  1  0  0  0  0
 33 34  1  6  0  0  0
 33 29  1  0  0  0  0
 35 34  2  0  0  0  0
M  END
>  <MODEL>
4

>  <REMARK>
 VINA RESULT:      -7.3      2.106      3.820
  Name = 
  4 active torsions:
  status: ('A' for Active; 'I' for Inactive)
    1  A    between atoms: C_1  and  N_23
    2  A    between atoms: C_8  and  N_22
    3  A    between atoms: C_9  and  N_22
    4  A    between atoms: C_19  and  C_26
                            x       y       z     vdW  Elec       q    Type
                         _______ _______ _______ _____ _____    ______ ____

>  <TORSDO>
F 4

$$$$
=
 OpenBabel11072411273D

 35 41  0  0  1  0  0  0  0  0999 V2000
  160.6320  210.3160  152.9980 C   0  0  2  0  0  3  0  0  0  0  0  0
  160.4960  212.3200  151.5070 C   0  0  0  0  0  2  0  0  0  0  0  0
  157.0940  211.7760  154.7810 C   0  0  2  0  0  3  0  0  0  0  0  0
  159.6700  211.0480  153.9540 C   0  0  2  0  0  0  0  0  0  0  0  0
  157.3560  214.4520  156.9570 C   0  0  0  0  0  2  0  0  0  0  0  0
  158.6360  212.0250  153.2630 C   0  0  1  0  0  3  0  0  0  0  0  0
  157.7650  212.7700  154.0820 O   0  0  0  0  0  0  0  0  0  0  0  0
  158.4100  210.6440  156.3580 C   0  0  0  0  0  2  0  0  0  0  0  0
  159.3700  213.2610  157.1350 O   0  0  0  0  0  0  0  0  0  0  0  0
  160.4600  210.7910  151.5490 C   0  0  0  0  0  2  0  0  0  0  0  0
  158.2080  213.2310  156.7400 C   0  0  0  0  0  0  0  0  0  0  0  0
  155.6470  213.3820  155.7190 O   0  0  0  0  0  0  0  0  0  0  0  0
  160.4370  211.6960  155.0940 C   0  0  0  0  0  2  0  0  0  0  0  0
  159.6240  210.4390  155.3860 C   0  0  2  0  0  3  0  0  0  0  0  0
  155.8930  214.0520  156.9240 C   0  0  0  0  0  2  0  0  0  0  0  0
  156.1080  212.0600  155.8820 C   0  0  2  0  0  3  0  0  0  0  0  0
  159.2920  212.9490  152.2260 C   0  0  0  0  0  2  0  0  0  0  0  0
  157.6100  211.9270  156.1980 C   0  0  1  0  0  0  0  0  0  0  0  0
  162.4040  207.4630  148.8630 C   0  0  0  0  0  3  0  0  0  0  0  0
  161.5300  205.5910  151.7800 C   0  0  0  0  0  0  0  0  0  0  0  0
  161.4500  204.2460  152.2420 N   0  0  0  0  0  1  0  0  0  0  0  0
  162.0280  205.8420  150.6050 N   0  0  0  0  0  0  0  0  0  0  0  0
  162.1140  207.1920  150.1300 C   0  0  0  0  0  0  0  0  0  0  0  0
  161.9110  208.3300  151.0820 C   0  0  0  0  0  2  0  0  0  0  0  0
  160.9580  206.6460  152.5720 N   0  0  0  0  0  0  0  0  0  0  0  0
  160.4250  208.8750  153.0860 N   0  0  0  0  0  2  0  0  0  0  0  0
  161.0700  207.9020  152.2590 C   0  0  0  0  0  0  0  0  0  0  0  0
  162.6020  206.4340  147.8950 N   0  0  0  0  0  2  0  0  0  0  0  0
  161.5580  206.1840  146.9120 C   0  0  1  0  0  3  0  0  0  0  0  0
  161.3630  205.2590  144.8330 O   0  0  0  0  0  0  0  0  0  0  0  0
  162.1320  206.1810  145.5410 C   0  0  0  0  0  2  0  0  0  0  0  0
  161.1670  204.2320  145.6630 O   0  0  0  0  0  0  0  0  0  0  0  0
  160.9820  204.7850  146.9480 C   0  0  1  0  0  3  0  0  0  0  0  0
  161.6090  203.8770  147.9660 C   0  0  0  0  0  3  0  0  0  0  0  0
  160.8820  203.2500  148.8130 N   0  0  0  0  0  2  0  0  0  0  0  0
  1 26  1  6  0  0  0
  1  4  1  0  0  0  0
  2 10  1  0  0  0  0
  2 17  1  0  0  0  0
  3  7  1  6  0  0  0
  3 16  1  0  0  0  0
  3 18  1  0  0  0  0
  4 13  1  1  0  0  0
  4 14  1  0  0  0  0
  6 17  1  1  0  0  0
  6  4  1  0  0  0  0
  6  7  1  0  0  0  0
 10  1  1  0  0  0  0
 11  5  1  0  0  0  0
 11  9  2  0  0  0  0
 12 15  1  0  0  0  0
 14 13  1  1  0  0  0
 14  8  1  0  0  0  0
 15  5  1  0  0  0  0
 16 12  1  6  0  0  0
 16 18  1  0  0  0  0
 18  8  1  1  0  0  0
 18 11  1  0  0  0  0
 19 23  2  0  0  0  0
 20 21  1  0  0  0  0
 20 25  1  0  0  0  0
 22 20  2  0  0  0  0
 23 22  1  0  0  0  0
 23 24  1  0  0  0  0
 24 27  1  0  0  0  0
 27 25  2  0  0  0  0
 27 26  1  0  0  0  0
 28 19  1  0  0  0  0
 29 33  1  0  0  0  0
 29 28  1  1  0  0  0
 30 31  1  0  0  0  0
 30 32  1  0  0  0  0
 31 29  1  0  0  0  0
 32 33  1  0  0  0  0
 33 34  1  1  0  0  0
 34 35  2  0  0  0  0
M  END
>  <MODEL>
5

>  <REMARK>
 VINA RESULT:      -6.8      1.825      3.102
  Name = 
  4 active torsions:
  status: ('A' for Active; 'I' for Inactive)
    1  A    between atoms: C_1  and  N_23
    2  A    between atoms: C_8  and  N_22
    3  A    between atoms: C_9  and  N_22
    4  A    between atoms: C_19  and  C_26
                            x       y       z     vdW  Elec       q    Type
                         _______ _______ _______ _____ _____    ______ ____

>  <TORSDO>
F 4

$$$$
=
 OpenBabel11072411273D

 35 41  0  0  1  0  0  0  0  0999 V2000
  160.6000  208.6290  153.9340 C   0  0  2  0  0  3  0  0  0  0  0  0
  160.6640  207.7170  156.2620 C   0  0  0  0  0  2  0  0  0  0  0  0
  160.1500  212.4140  155.7490 C   0  0  2  0  0  3  0  0  0  0  0  0
  159.9630  209.9020  154.5240 C   0  0  2  0  0  0  0  0  0  0  0  0
  157.0510  213.2340  157.0510 C   0  0  0  0  0  2  0  0  0  0  0  0
  160.4060  210.2660  155.9970 C   0  0  1  0  0  3  0  0  0  0  0  0
  159.8190  211.3840  156.6190 O   0  0  0  0  0  0  0  0  0  0  0  0
  159.0250  212.3440  153.6920 C   0  0  0  0  0  2  0  0  0  0  0  0
  156.6450  211.7950  155.2420 O   0  0  0  0  0  0  0  0  0  0  0  0
  161.4630  207.8960  154.9700 C   0  0  0  0  0  2  0  0  0  0  0  0
  157.4690  212.5160  155.7960 C   0  0  0  0  0  0  0  0  0  0  0  0
  159.2800  214.0000  157.2610 O   0  0  0  0  0  0  0  0  0  0  0  0
  158.4540  209.8810  154.3410 C   0  0  0  0  0  2  0  0  0  0  0  0
  159.2810  210.8130  153.4620 C   0  0  2  0  0  3  0  0  0  0  0  0
  157.9500  214.4380  157.2600 C   0  0  0  0  0  2  0  0  0  0  0  0
  159.6570  213.8270  155.9130 C   0  0  2  0  0  3  0  0  0  0  0  0
  160.3610  209.0600  156.9470 C   0  0  0  0  0  2  0  0  0  0  0  0
  158.8210  212.7980  155.1290 C   0  0  1  0  0  0  0  0  0  0  0  0
  161.2090  204.7350  150.3510 C   0  0  0  0  0  3  0  0  0  0  0  0
  162.1640  208.0050  149.2670 C   0  0  0  0  0  0  0  0  0  0  0  0
  162.7260  208.6720  148.1400 N   0  0  0  0  0  1  0  0  0  0  0  0
  161.8740  206.7390  149.1910 N   0  0  0  0  0  0  0  0  0  0  0  0
  161.3060  206.0590  150.3180 C   0  0  0  0  0  0  0  0  0  0  0  0
  160.7750  206.8490  151.4740 C   0  0  0  0  0  2  0  0  0  0  0  0
  162.0250  208.7140  150.5110 N   0  0  0  0  0  0  0  0  0  0  0  0
  161.3960  208.9670  152.7600 N   0  0  0  0  0  2  0  0  0  0  0  0
  161.4420  208.2000  151.5520 C   0  0  0  0  0  0  0  0  0  0  0  0
  161.7000  203.9140  149.2920 N   0  0  0  0  0  2  0  0  0  0  0  0
  160.8500  203.6800  148.1330 C   0  0  1  0  0  3  0  0  0  0  0  0
  161.0780  203.0000  145.9650 O   0  0  0  0  0  0  0  0  0  0  0  0
  161.6160  203.9030  146.8800 C   0  0  0  0  0  2  0  0  0  0  0  0
  160.8860  201.8650  146.6400 O   0  0  0  0  0  0  0  0  0  0  0  0
  160.4480  202.2350  147.9300 C   0  0  1  0  0  3  0  0  0  0  0  0
  161.0220  201.2780  148.9350 C   0  0  0  0  0  3  0  0  0  0  0  0
  161.5910  200.1970  148.5530 N   0  0  0  0  0  2  0  0  0  0  0  0
  1 26  1  6  0  0  0
  1  4  1  0  0  0  0
  1 10  1  0  0  0  0
  2 17  1  0  0  0  0
  3 16  1  0  0  0  0
  3  7  1  1  0  0  0
  4 13  1  1  0  0  0
  4  6  1  0  0  0  0
  5 15  1  0  0  0  0
  6  7  1  0  0  0  0
  6 17  1  1  0  0  0
  9 11  2  0  0  0  0
 10  2  1  0  0  0  0
 11  5  1  0  0  0  0
 14  8  1  1  0  0  0
 14 13  1  0  0  0  0
 14  4  1  0  0  0  0
 15 12  1  0  0  0  0
 16 12  1  1  0  0  0
 18  8  1  6  0  0  0
 18  3  1  0  0  0  0
 18 11  1  0  0  0  0
 18 16  1  0  0  0  0
 20 25  1  0  0  0  0
 21 20  1  0  0  0  0
 22 20  2  0  0  0  0
 22 23  1  0  0  0  0
 23 19  2  0  0  0  0
 23 24  1  0  0  0  0
 24 27  1  0  0  0  0
 25 27  2  0  0  0  0
 27 26  1  0  0  0  0
 28 19  1  0  0  0  0
 29 28  1  1  0  0  0
 30 32  1  0  0  0  0
 30 31  1  0  0  0  0
 31 29  1  0  0  0  0
 32 33  1  0  0  0  0
 33 29  1  0  0  0  0
 33 34  1  1  0  0  0
 35 34  2  0  0  0  0
M  END
>  <MODEL>
6

>  <REMARK>
 VINA RESULT:      -6.8      1.564      1.846
  Name = 
  4 active torsions:
  status: ('A' for Active; 'I' for Inactive)
    1  A    between atoms: C_1  and  N_23
    2  A    between atoms: C_8  and  N_22
    3  A    between atoms: C_9  and  N_22
    4  A    between atoms: C_19  and  C_26
                            x       y       z     vdW  Elec       q    Type
                         _______ _______ _______ _____ _____    ______ ____

>  <TORSDO>
F 4

$$$$
