=
 OpenBabel11072414353D

 36 42  0  0  1  0  0  0  0  0999 V2000
  160.8000  210.6450  154.0260 C   0  0  1  0  0  3  0  0  0  0  0  0
  161.1380  211.5080  156.2360 C   0  0  0  0  0  0  0  0  0  0  0  0
  161.5360  210.7190  155.2110 C   0  0  0  0  0  0  0  0  0  0  0  0
  160.0160  212.2580  156.1670 N   0  0  0  0  0  0  0  0  0  0  0  0
  159.2800  212.2200  155.0490 N   0  0  0  0  0  0  0  0  0  0  0  0
  162.9550  210.5960  156.8850 N   0  0  0  0  0  0  0  0  0  0  0  0
  162.7110  210.1350  155.6300 C   0  0  0  0  0  3  0  0  0  0  0  0
  159.6320  211.4490  153.9670 C   0  0  0  0  0  0  0  0  0  0  0  0
  161.9950  211.4380  157.2610 N   0  0  0  0  0  0  0  0  0  0  0  0
  162.1040  208.1750  150.7810 C   0  0  0  0  0  3  0  0  0  0  0  0
  161.4230  207.5810  151.8490 C   0  0  0  0  0  0  0  0  0  0  0  0
  161.2300  209.7750  152.9070 C   0  0  0  0  0  0  0  0  0  0  0  0
  162.3360  209.5490  150.7600 C   0  0  0  0  0  3  0  0  0  0  0  0
  161.8970  210.3450  151.8170 C   0  0  0  0  0  3  0  0  0  0  0  0
  161.0010  208.3840  152.9310 C   0  0  0  0  0  0  0  0  0  0  0  0
  160.3740  207.8060  154.0320 O   0  0  0  0  0  1  0  0  0  0  0  0
  160.8750  203.1780  150.0450 N   0  0  0  0  0  0  0  0  0  0  0  0
  161.0750  203.8330  152.3650 C   0  0  0  0  0  3  0  0  0  0  0  0
  161.0340  205.5340  149.0840 S   0  0  0  0  0  0  0  0  0  0  0  0
  160.8800  203.8460  148.8570 C   0  0  0  0  0  3  0  0  0  0  0  0
  160.9890  204.0580  151.0670 C   0  0  0  0  0  0  0  0  0  0  0  0
  161.2460  205.1970  153.0060 C   0  0  0  0  0  2  0  0  0  0  0  0
  161.0660  205.3550  150.7490 C   0  0  0  0  0  0  0  0  0  0  0  0
  161.2030  206.1230  151.8130 C   0  0  0  0  0  0  0  0  0  0  0  0
  158.7400  211.4400  152.7640 C   0  0  0  0  0  2  0  0  0  0  0  0
  159.0140  212.6330  151.8550 C   0  0  0  0  0  2  0  0  0  0  0  0
  157.8980  213.6640  151.9390 C   0  0  2  0  0  3  0  0  0  0  0  0
  157.0100  213.3340  152.9650 O   0  0  0  0  0  1  0  0  0  0  0  0
  158.4820  213.3810  147.4570 C   0  0  0  0  0  3  0  0  0  0  0  0
  155.5900  214.0810  149.2040 O   0  0  0  0  0  0  0  0  0  0  0  0
  155.8520  214.0480  150.4920 N   0  0  0  0  0  0  0  0  0  0  0  0
  156.6880  213.8070  148.5480 C   0  0  0  0  0  0  0  0  0  0  0  0
  157.1130  213.6870  147.2510 C   0  0  0  0  0  3  0  0  0  0  0  0
  157.1710  213.7340  150.6380 C   0  0  0  0  0  0  0  0  0  0  0  0
  158.7870  213.3350  148.7550 O   0  0  0  0  0  0  0  0  0  0  0  0
  157.6740  213.5960  149.3720 C   0  0  0  0  0  0  0  0  0  0  0  0
  1 12  1  6  0  0  0
  1  3  1  0  0  0  0
  2  9  1  0  0  0  0
  3  7  2  0  0  0  0
  3  2  1  0  0  0  0
  4  2  2  0  0  0  0
  5  4  1  0  0  0  0
  6  9  2  0  0  0  0
  7  6  1  0  0  0  0
  8  1  1  0  0  0  0
  8  5  2  0  0  0  0
 10 11  1  0  0  0  0
 11 15  2  0  0  0  0
 12 15  1  0  0  0  0
 13 10  2  0  0  0  0
 13 14  1  0  0  0  0
 14 12  2  0  0  0  0
 15 16  1  0  0  0  0
 17 21  1  0  0  0  0
 18 22  1  0  0  0  0
 19 23  1  0  0  0  0
 20 19  1  0  0  0  0
 20 17  2  0  0  0  0
 21 18  2  0  0  0  0
 23 21  1  0  0  0  0
 23 24  2  0  0  0  0
 24 11  1  0  0  0  0
 24 22  1  0  0  0  0
 25  8  1  0  0  0  0
 26 27  1  0  0  0  0
 26 25  1  0  0  0  0
 27 28  1  1  0  0  0
 29 35  1  0  0  0  0
 30 31  1  0  0  0  0
 31 34  2  0  0  0  0
 32 30  1  0  0  0  0
 32 36  2  0  0  0  0
 33 29  2  0  0  0  0
 33 32  1  0  0  0  0
 34 27  1  0  0  0  0
 35 36  1  0  0  0  0
 36 34  1  0  0  0  0
M  END
>  <MODEL>
1

>  <REMARK>
 VINA RESULT:      -8.4      0.000      0.000
  Name = 
  6 active torsions:
  status: ('A' for Active; 'I' for Inactive)
    1  A    between atoms: C_2  and  C_15
    2  A    between atoms: C_4  and  C_17
    3  A    between atoms: C_4  and  C_28
    4  A    between atoms: C_10  and  C_32
    5  A    between atoms: C_17  and  C_24
    6  A    between atoms: C_24  and  C_34
                            x       y       z     vdW  Elec       q    Type
                         _______ _______ _______ _____ _____    ______ ____

>  <TORSDO>
F 6

$$$$
=
 OpenBabel11072414353D

 36 42  0  0  1  0  0  0  0  0999 V2000
  160.6590  211.0450  153.5720 C   0  0  1  0  0  3  0  0  0  0  0  0
  160.7120  211.8200  155.8400 C   0  0  0  0  0  0  0  0  0  0  0  0
  161.1610  210.9840  154.8740 C   0  0  0  0  0  0  0  0  0  0  0  0
  159.7610  212.7480  155.5960 N   0  0  0  0  0  0  0  0  0  0  0  0
  159.2520  212.8440  154.3610 N   0  0  0  0  0  0  0  0  0  0  0  0
  162.2000  210.6090  156.7750 N   0  0  0  0  0  0  0  0  0  0  0  0
  162.1260  210.2070  155.4790 C   0  0  0  0  0  3  0  0  0  0  0  0
  159.6700  212.0340  153.3320 C   0  0  0  0  0  0  0  0  0  0  0  0
  161.3380  211.5970  157.0010 N   0  0  0  0  0  0  0  0  0  0  0  0
  162.1210  208.4310  150.5120 C   0  0  0  0  0  3  0  0  0  0  0  0
  161.4110  207.8830  151.5860 C   0  0  0  0  0  0  0  0  0  0  0  0
  161.1440  210.1250  152.5170 C   0  0  0  0  0  0  0  0  0  0  0  0
  162.3310  209.8060  150.4260 C   0  0  0  0  0  3  0  0  0  0  0  0
  161.8400  210.6490  151.4230 C   0  0  0  0  0  3  0  0  0  0  0  0
  160.9370  208.7330  152.6080 C   0  0  0  0  0  0  0  0  0  0  0  0
  160.2800  208.2030  153.7150 O   0  0  0  0  0  1  0  0  0  0  0  0
  160.8800  203.3970  149.9930 N   0  0  0  0  0  0  0  0  0  0  0  0
  161.1510  204.1550  152.2730 C   0  0  0  0  0  3  0  0  0  0  0  0
  160.9620  205.7110  148.9270 S   0  0  0  0  0  0  0  0  0  0  0  0
  160.8310  204.0120  148.7780 C   0  0  0  0  0  3  0  0  0  0  0  0
  161.0140  204.3220  150.9710 C   0  0  0  0  0  0  0  0  0  0  0  0
  161.3200  205.5480  152.8490 C   0  0  0  0  0  2  0  0  0  0  0  0
  161.0560  205.6050  150.5960 C   0  0  0  0  0  0  0  0  0  0  0  0
  161.2170  206.4200  151.6200 C   0  0  0  0  0  0  0  0  0  0  0  0
  159.0310  212.1860  151.9860 C   0  0  0  0  0  2  0  0  0  0  0  0
  159.5370  213.4290  151.2630 C   0  0  0  0  0  2  0  0  0  0  0  0
  158.7330  213.7030  150.0000 C   0  0  2  0  0  3  0  0  0  0  0  0
  157.5150  213.0210  150.0430 O   0  0  0  0  0  1  0  0  0  0  0  0
  158.3150  212.5780  145.6330 C   0  0  0  0  0  3  0  0  0  0  0  0
  161.1640  212.6050  147.5780 O   0  0  0  0  0  0  0  0  0  0  0  0
  160.8490  213.0130  148.7880 N   0  0  0  0  0  0  0  0  0  0  0  0
  160.0820  212.6050  146.8440 C   0  0  0  0  0  0  0  0  0  0  0  0
  159.7040  212.3010  145.5630 C   0  0  0  0  0  3  0  0  0  0  0  0
  159.5130  213.2820  148.7990 C   0  0  0  0  0  0  0  0  0  0  0  0
  157.9570  212.9990  146.8460 O   0  0  0  0  0  0  0  0  0  0  0  0
  159.0540  213.0000  147.5400 C   0  0  0  0  0  0  0  0  0  0  0  0
  1 12  1  6  0  0  0
  1  3  1  0  0  0  0
  2  9  1  0  0  0  0
  3  7  2  0  0  0  0
  3  2  1  0  0  0  0
  4  2  2  0  0  0  0
  5  4  1  0  0  0  0
  6  9  2  0  0  0  0
  7  6  1  0  0  0  0
  8  1  1  0  0  0  0
  8  5  2  0  0  0  0
 10 11  1  0  0  0  0
 11 24  1  0  0  0  0
 11 15  2  0  0  0  0
 12 15  1  0  0  0  0
 13 10  2  0  0  0  0
 13 14  1  0  0  0  0
 14 12  2  0  0  0  0
 15 16  1  0  0  0  0
 17 21  1  0  0  0  0
 18 22  1  0  0  0  0
 19 23  1  0  0  0  0
 20 19  1  0  0  0  0
 20 17  2  0  0  0  0
 21 18  2  0  0  0  0
 23 21  1  0  0  0  0
 23 24  2  0  0  0  0
 24 22  1  0  0  0  0
 25  8  1  0  0  0  0
 26 25  1  0  0  0  0
 27 28  1  1  0  0  0
 27 26  1  0  0  0  0
 29 35  1  0  0  0  0
 30 31  1  0  0  0  0
 31 34  2  0  0  0  0
 32 36  2  0  0  0  0
 32 30  1  0  0  0  0
 33 29  2  0  0  0  0
 33 32  1  0  0  0  0
 34 27  1  0  0  0  0
 35 36  1  0  0  0  0
 36 34  1  0  0  0  0
M  END
>  <MODEL>
2

>  <REMARK>
 VINA RESULT:      -8.3      1.423      1.960
  Name = 
  6 active torsions:
  status: ('A' for Active; 'I' for Inactive)
    1  A    between atoms: C_2  and  C_15
    2  A    between atoms: C_4  and  C_17
    3  A    between atoms: C_4  and  C_28
    4  A    between atoms: C_10  and  C_32
    5  A    between atoms: C_17  and  C_24
    6  A    between atoms: C_24  and  C_34
                            x       y       z     vdW  Elec       q    Type
                         _______ _______ _______ _____ _____    ______ ____

>  <TORSDO>
F 6

$$$$
=
 OpenBabel11072414353D

 36 42  0  0  1  0  0  0  0  0999 V2000
  161.5360  209.7300  151.4060 C   0  0  2  0  0  3  0  0  0  0  0  0
  161.9390  210.1570  149.0820 C   0  0  0  0  0  0  0  0  0  0  0  0
  161.6640  210.6090  150.3280 C   0  0  0  0  0  0  0  0  0  0  0  0
  162.1010  208.8410  148.8190 N   0  0  0  0  0  0  0  0  0  0  0  0
  161.9890  207.9620  149.8230 N   0  0  0  0  0  0  0  0  0  0  0  0
  161.8170  212.2800  148.9080 N   0  0  0  0  0  0  0  0  0  0  0  0
  161.5910  211.9810  150.2140 C   0  0  0  0  0  3  0  0  0  0  0  0
  161.7210  208.3540  151.1120 C   0  0  0  0  0  0  0  0  0  0  0  0
  162.0320  211.1670  148.2110 N   0  0  0  0  0  0  0  0  0  0  0  0
  160.7100  211.1880  155.3470 C   0  0  0  0  0  3  0  0  0  0  0  0
  159.6630  211.1170  154.4200 C   0  0  0  0  0  0  0  0  0  0  0  0
  161.2250  210.2240  152.7680 C   0  0  0  0  0  0  0  0  0  0  0  0
  161.9940  210.7710  155.0030 C   0  0  0  0  0  3  0  0  0  0  0  0
  162.2490  210.2870  153.7200 C   0  0  0  0  0  3  0  0  0  0  0  0
  159.9270  210.6520  153.1130 C   0  0  0  0  0  0  0  0  0  0  0  0
  158.9150  210.6290  152.1580 O   0  0  0  0  0  1  0  0  0  0  0  0
  155.6250  213.6900  154.5070 N   0  0  0  0  0  0  0  0  0  0  0  0
  156.1500  211.6830  155.7500 C   0  0  0  0  0  3  0  0  0  0  0  0
  157.8620  213.8520  153.2980 S   0  0  0  0  0  0  0  0  0  0  0  0
  156.2880  214.4530  153.5940 C   0  0  0  0  0  3  0  0  0  0  0  0
  156.4170  212.6730  154.9200 C   0  0  0  0  0  0  0  0  0  0  0  0
  157.3990  210.8230  155.7760 C   0  0  0  0  0  2  0  0  0  0  0  0
  157.6470  212.6100  154.4000 C   0  0  0  0  0  0  0  0  0  0  0  0
  158.3240  211.5690  154.8440 C   0  0  0  0  0  0  0  0  0  0  0  0
  161.5840  207.3060  152.1740 C   0  0  0  0  0  2  0  0  0  0  0  0
  162.0440  205.9410  151.6770 C   0  0  0  0  0  2  0  0  0  0  0  0
  160.8710  204.9850  151.5130 C   0  0  2  0  0  3  0  0  0  0  0  0
  160.8750  204.0330  152.5340 O   0  0  0  0  0  1  0  0  0  0  0  0
  160.8480  200.9170  149.5210 C   0  0  0  0  0  3  0  0  0  0  0  0
  161.2430  204.0180  148.0610 O   0  0  0  0  0  0  0  0  0  0  0  0
  161.1680  204.9410  148.9960 N   0  0  0  0  0  0  0  0  0  0  0  0
  161.0850  202.8470  148.6210 C   0  0  0  0  0  0  0  0  0  0  0  0
  161.0590  201.5250  148.2580 C   0  0  0  0  0  3  0  0  0  0  0  0
  160.9480  204.3100  150.1840 C   0  0  0  0  0  0  0  0  0  0  0  0
  160.7630  201.8230  150.4970 O   0  0  0  0  0  0  0  0  0  0  0  0
  160.9100  202.9700  149.9050 C   0  0  0  0  0  0  0  0  0  0  0  0
  1 12  1  6  0  0  0
  2  3  1  0  0  0  0
  3  1  1  0  0  0  0
  4  2  2  0  0  0  0
  4  5  1  0  0  0  0
  5  8  2  0  0  0  0
  6  7  1  0  0  0  0
  7  3  2  0  0  0  0
  8  1  1  0  0  0  0
  8 25  1  0  0  0  0
  9  6  2  0  0  0  0
  9  2  1  0  0  0  0
 11 24  1  0  0  0  0
 11 10  2  0  0  0  0
 12 15  2  0  0  0  0
 12 14  1  0  0  0  0
 13 10  1  0  0  0  0
 14 13  2  0  0  0  0
 15 11  1  0  0  0  0
 16 15  1  0  0  0  0
 17 21  1  0  0  0  0
 18 22  1  0  0  0  0
 19 20  1  0  0  0  0
 19 23  1  0  0  0  0
 20 17  2  0  0  0  0
 21 18  2  0  0  0  0
 23 24  2  0  0  0  0
 23 21  1  0  0  0  0
 24 22  1  0  0  0  0
 26 25  1  0  0  0  0
 27 26  1  0  0  0  0
 27 28  1  1  0  0  0
 29 35  1  0  0  0  0
 30 32  1  0  0  0  0
 30 31  1  0  0  0  0
 31 34  2  0  0  0  0
 32 36  2  0  0  0  0
 33 32  1  0  0  0  0
 33 29  2  0  0  0  0
 34 27  1  0  0  0  0
 36 34  1  0  0  0  0
 36 35  1  0  0  0  0
M  END
>  <MODEL>
3

>  <REMARK>
 VINA RESULT:      -8.2      3.663      8.593
  Name = 
  6 active torsions:
  status: ('A' for Active; 'I' for Inactive)
    1  A    between atoms: C_2  and  C_15
    2  A    between atoms: C_4  and  C_17
    3  A    between atoms: C_4  and  C_28
    4  A    between atoms: C_10  and  C_32
    5  A    between atoms: C_17  and  C_24
    6  A    between atoms: C_24  and  C_34
                            x       y       z     vdW  Elec       q    Type
                         _______ _______ _______ _____ _____    ______ ____

>  <TORSDO>
F 6

$$$$
=
 OpenBabel11072414353D

 36 42  0  0  1  0  0  0  0  0999 V2000
  161.5080  209.8590  151.2110 C   0  0  1  0  0  3  0  0  0  0  0  0
  161.9550  210.1980  148.8810 C   0  0  0  0  0  0  0  0  0  0  0  0
  161.7220  210.7000  150.1160 C   0  0  0  0  0  0  0  0  0  0  0  0
  161.9920  208.8680  148.6450 N   0  0  0  0  0  0  0  0  0  0  0  0
  161.7940  208.0240  149.6660 N   0  0  0  0  0  0  0  0  0  0  0  0
  162.0380  212.3200  148.6640 N   0  0  0  0  0  0  0  0  0  0  0  0
  161.7810  212.0700  149.9750 C   0  0  0  0  0  3  0  0  0  0  0  0
  161.5610  208.4660  150.9460 C   0  0  0  0  0  0  0  0  0  0  0  0
  162.1470  211.1770  147.9900 N   0  0  0  0  0  0  0  0  0  0  0  0
  160.8190  211.4530  155.1250 C   0  0  0  0  0  3  0  0  0  0  0  0
  159.8750  211.6980  154.1210 C   0  0  0  0  0  0  0  0  0  0  0  0
  161.2430  210.4080  152.5610 C   0  0  0  0  0  0  0  0  0  0  0  0
  161.9520  210.6860  154.8650 C   0  0  0  0  0  3  0  0  0  0  0  0
  162.1600  210.1620  153.5890 C   0  0  0  0  0  3  0  0  0  0  0  0
  160.0990  211.1900  152.8230 C   0  0  0  0  0  0  0  0  0  0  0  0
  159.2050  211.4710  151.7940 O   0  0  0  0  0  1  0  0  0  0  0  0
  155.6230  212.8620  155.9920 N   0  0  0  0  0  0  0  0  0  0  0  0
  157.2220  214.3060  154.8940 C   0  0  0  0  0  3  0  0  0  0  0  0
  156.9780  210.7180  155.7430 S   0  0  0  0  0  0  0  0  0  0  0  0
  155.5820  211.5350  156.2990 C   0  0  0  0  0  3  0  0  0  0  0  0
  156.7660  213.1450  155.3260 C   0  0  1  0  0  3  0  0  0  0  0  0
  158.5760  214.0100  154.2780 C   0  0  0  0  0  3  0  0  0  0  0  0
  157.5990  212.1270  155.0850 C   0  0  0  0  0  0  0  0  0  0  0  0
  158.6930  212.5140  154.4580 C   0  0  0  0  0  0  0  0  0  0  0  0
  161.3220  207.4580  152.0270 C   0  0  0  0  0  2  0  0  0  0  0  0
  161.9130  206.1000  151.6680 C   0  0  0  0  0  2  0  0  0  0  0  0
  160.8300  205.0360  151.5510 C   0  0  2  0  0  3  0  0  0  0  0  0
  160.9720  204.0870  152.5660 O   0  0  0  0  0  1  0  0  0  0  0  0
  160.8330  200.9870  149.5220 C   0  0  0  0  0  3  0  0  0  0  0  0
  161.2060  204.1040  148.0910 O   0  0  0  0  0  0  0  0  0  0  0  0
  161.1260  205.0180  149.0340 N   0  0  0  0  0  0  0  0  0  0  0  0
  161.0560  202.9260  148.6390 C   0  0  0  0  0  0  0  0  0  0  0  0
  161.0400  201.6080  148.2640 C   0  0  0  0  0  3  0  0  0  0  0  0
  160.9110  204.3740  150.2170 C   0  0  0  0  0  0  0  0  0  0  0  0
  160.7430  201.8830  150.5060 O   0  0  0  0  0  0  0  0  0  0  0  0
  160.8810  203.0360  149.9250 C   0  0  0  0  0  0  0  0  0  0  0  0
  1 12  1  1  0  0  0
  2  3  1  0  0  0  0
  3  1  1  0  0  0  0
  4  2  2  0  0  0  0
  4  5  1  0  0  0  0
  5  8  2  0  0  0  0
  6  7  1  0  0  0  0
  7  3  2  0  0  0  0
  8  1  1  0  0  0  0
  8 25  1  0  0  0  0
  9  6  2  0  0  0  0
  9  2  1  0  0  0  0
 11 24  1  0  0  0  0
 11 10  2  0  0  0  0
 12 15  2  0  0  0  0
 12 14  1  0  0  0  0
 13 10  1  0  0  0  0
 14 13  2  0  0  0  0
 15 11  1  0  0  0  0
 16 15  1  0  0  0  0
 17 20  2  0  0  0  0
 19 20  1  0  0  0  0
 21 18  1  1  0  0  0
 21 17  1  0  0  0  0
 22 24  1  0  0  0  0
 22 18  2  0  0  0  0
 23 21  1  0  0  0  0
 23 19  1  0  0  0  0
 24 23  2  0  0  0  0
 26 25  1  0  0  0  0
 27 26  1  0  0  0  0
 27 28  1  1  0  0  0
 29 35  1  0  0  0  0
 30 32  1  0  0  0  0
 30 31  1  0  0  0  0
 31 34  2  0  0  0  0
 32 36  2  0  0  0  0
 33 32  1  0  0  0  0
 33 29  2  0  0  0  0
 34 27  1  0  0  0  0
 36 34  1  0  0  0  0
 36 35  1  0  0  0  0
M  END
>  <MODEL>
4

>  <REMARK>
 VINA RESULT:      -7.7      3.671      8.692
  Name = 
  6 active torsions:
  status: ('A' for Active; 'I' for Inactive)
    1  A    between atoms: C_2  and  C_15
    2  A    between atoms: C_4  and  C_17
    3  A    between atoms: C_4  and  C_28
    4  A    between atoms: C_10  and  C_32
    5  A    between atoms: C_17  and  C_24
    6  A    between atoms: C_24  and  C_34
                            x       y       z     vdW  Elec       q    Type
                         _______ _______ _______ _____ _____    ______ ____

>  <TORSDO>
F 6

$$$$
=
 OpenBabel11072414353D

 36 42  0  0  1  0  0  0  0  0999 V2000
  161.4570  208.9670  152.3070 C   0  0  1  0  0  3  0  0  0  0  0  0
  161.7840  206.7290  151.5160 C   0  0  0  0  0  0  0  0  0  0  0  0
  161.4310  207.5850  152.5030 C   0  0  0  0  0  0  0  0  0  0  0  0
  162.1770  207.1640  150.2990 N   0  0  0  0  0  0  0  0  0  0  0  0
  162.2150  208.4820  150.0650 N   0  0  0  0  0  0  0  0  0  0  0  0
  161.2380  205.5000  153.1740 N   0  0  0  0  0  0  0  0  0  0  0  0
  161.0750  206.7900  153.5710 C   0  0  0  0  0  3  0  0  0  0  0  0
  161.8610  209.4050  151.0190 C   0  0  0  0  0  0  0  0  0  0  0  0
  161.6720  205.4570  151.9160 N   0  0  0  0  0  0  0  0  0  0  0  0
  160.4400  211.7020  155.4410 C   0  0  0  0  0  3  0  0  0  0  0  0
  159.4890  211.4250  154.4520 C   0  0  0  0  0  0  0  0  0  0  0  0
  161.0800  209.9050  153.3900 C   0  0  0  0  0  0  0  0  0  0  0  0
  161.6880  211.0830  155.4210 C   0  0  0  0  0  3  0  0  0  0  0  0
  162.0040  210.1850  154.4020 C   0  0  0  0  0  3  0  0  0  0  0  0
  159.8190  210.5370  153.4060 C   0  0  0  0  0  0  0  0  0  0  0  0
  158.9110  210.2920  152.3790 O   0  0  0  0  0  1  0  0  0  0  0  0
  155.7760  214.1490  153.1360 N   0  0  0  0  0  0  0  0  0  0  0  0
  155.9770  212.7280  155.0820 C   0  0  0  0  0  3  0  0  0  0  0  0
  158.0990  213.6630  152.2060 S   0  0  0  0  0  0  0  0  0  0  0  0
  156.5870  214.4530  152.0840 C   0  0  0  0  0  3  0  0  0  0  0  0
  156.4150  213.3050  153.9790 C   0  0  0  0  0  0  0  0  0  0  0  0
  157.1140  211.8460  155.5620 C   0  0  0  0  0  2  0  0  0  0  0  0
  157.6640  212.9530  153.6590 C   0  0  0  0  0  0  0  0  0  0  0  0
  158.1840  212.1080  154.5280 C   0  0  0  0  0  0  0  0  0  0  0  0
  161.9570  210.8630  150.6860 C   0  0  0  0  0  2  0  0  0  0  0  0
  161.9480  211.0960  149.1810 C   0  0  0  0  0  2  0  0  0  0  0  0
  161.8580  212.5790  148.8480 C   0  0  2  0  0  3  0  0  0  0  0  0
  160.8240  213.1760  149.5710 O   0  0  0  0  0  1  0  0  0  0  0  0
  158.6290  212.5930  145.6730 C   0  0  0  0  0  3  0  0  0  0  0  0
  162.0340  212.9800  145.2710 O   0  0  0  0  0  0  0  0  0  0  0  0
  162.6100  212.9310  146.4530 N   0  0  0  0  0  0  0  0  0  0  0  0
  160.7430  212.8410  145.4320 C   0  0  0  0  0  0  0  0  0  0  0  0
  159.6080  212.7900  144.6670 C   0  0  0  0  0  3  0  0  0  0  0  0
  161.6290  212.7580  147.3850 C   0  0  0  0  0  0  0  0  0  0  0  0
  159.1750  212.5410  146.8880 O   0  0  0  0  0  0  0  0  0  0  0  0
  160.4490  212.6960  146.6920 C   0  0  0  0  0  0  0  0  0  0  0  0
  1  3  1  0  0  0  0
  1 12  1  6  0  0  0
  2  9  1  0  0  0  0
  2  3  1  0  0  0  0
  3  7  2  0  0  0  0
  4  2  2  0  0  0  0
  5  4  1  0  0  0  0
  5  8  2  0  0  0  0
  6  7  1  0  0  0  0
  8  1  1  0  0  0  0
  9  6  2  0  0  0  0
 11 24  1  0  0  0  0
 11 10  2  0  0  0  0
 12 15  2  0  0  0  0
 12 14  1  0  0  0  0
 13 10  1  0  0  0  0
 14 13  2  0  0  0  0
 15 11  1  0  0  0  0
 16 15  1  0  0  0  0
 17 21  1  0  0  0  0
 18 22  1  0  0  0  0
 19 23  1  0  0  0  0
 20 19  1  0  0  0  0
 20 17  2  0  0  0  0
 21 18  2  0  0  0  0
 23 21  1  0  0  0  0
 23 24  2  0  0  0  0
 24 22  1  0  0  0  0
 25  8  1  0  0  0  0
 26 25  1  0  0  0  0
 27 26  1  0  0  0  0
 27 28  1  1  0  0  0
 29 35  1  0  0  0  0
 30 32  1  0  0  0  0
 30 31  1  0  0  0  0
 31 34  2  0  0  0  0
 32 36  2  0  0  0  0
 33 32  1  0  0  0  0
 33 29  2  0  0  0  0
 34 27  1  0  0  0  0
 36 35  1  0  0  0  0
 36 34  1  0  0  0  0
M  END
>  <MODEL>
5

>  <REMARK>
 VINA RESULT:      -7.5      3.294      6.552
  Name = 
  6 active torsions:
  status: ('A' for Active; 'I' for Inactive)
    1  A    between atoms: C_2  and  C_15
    2  A    between atoms: C_4  and  C_17
    3  A    between atoms: C_4  and  C_28
    4  A    between atoms: C_10  and  C_32
    5  A    between atoms: C_17  and  C_24
    6  A    between atoms: C_24  and  C_34
                            x       y       z     vdW  Elec       q    Type
                         _______ _______ _______ _____ _____    ______ ____

>  <TORSDO>
F 6

$$$$
=
 OpenBabel11072414353D

 36 42  0  0  1  0  0  0  0  0999 V2000
  161.2940  208.2090  151.3270 C   0  0  1  0  0  3  0  0  0  0  0  0
  161.9530  209.1810  149.2380 C   0  0  0  0  0  0  0  0  0  0  0  0
  161.6910  209.3060  150.5600 C   0  0  0  0  0  0  0  0  0  0  0  0
  161.8430  207.9960  148.5970 N   0  0  0  0  0  0  0  0  0  0  0  0
  161.4680  206.9160  149.2940 N   0  0  0  0  0  0  0  0  0  0  0  0
  162.3100  211.2330  149.7020 N   0  0  0  0  0  0  0  0  0  0  0  0
  161.9270  210.6310  150.8590 C   0  0  0  0  0  3  0  0  0  0  0  0
  161.1970  206.9710  150.6390 C   0  0  0  0  0  0  0  0  0  0  0  0
  162.3280  210.3500  148.7070 N   0  0  0  0  0  0  0  0  0  0  0  0
  160.5090  208.5800  155.5200 C   0  0  0  0  0  3  0  0  0  0  0  0
  159.9470  209.5150  154.6430 C   0  0  0  0  0  0  0  0  0  0  0  0
  160.9980  208.3470  152.7720 C   0  0  0  0  0  0  0  0  0  0  0  0
  161.2930  207.5330  155.0380 C   0  0  0  0  0  3  0  0  0  0  0  0
  161.5320  207.4150  153.6700 C   0  0  0  0  0  3  0  0  0  0  0  0
  160.2110  209.4110  153.2600 C   0  0  0  0  0  0  0  0  0  0  0  0
  159.7120  210.3620  152.3750 O   0  0  0  0  0  1  0  0  0  0  0  0
  158.8490  213.5680  156.9460 N   0  0  0  0  0  0  0  0  0  0  0  0
  157.3870  212.1270  155.6680 C   0  0  0  0  0  3  0  0  0  0  0  0
  160.9590  212.1770  156.6120 S   0  0  0  0  0  0  0  0  0  0  0  0
  160.1760  213.5530  157.2580 C   0  0  0  0  0  3  0  0  0  0  0  0
  158.5370  212.4730  156.2140 C   0  0  1  0  0  3  0  0  0  0  0  0
  157.6610  210.8370  154.9200 C   0  0  0  0  0  3  0  0  0  0  0  0
  159.5260  211.6110  155.9540 C   0  0  0  0  0  0  0  0  0  0  0  0
  159.1240  210.5980  155.2120 C   0  0  0  0  0  0  0  0  0  0  0  0
  160.7560  205.7230  151.3410 C   0  0  0  0  0  2  0  0  0  0  0  0
  161.5680  204.5130  150.8950 C   0  0  0  0  0  2  0  0  0  0  0  0
  160.7350  203.2390  150.9330 C   0  0  2  0  0  3  0  0  0  0  0  0
  161.1220  202.4400  152.0110 O   0  0  0  0  0  1  0  0  0  0  0  0
  161.2310  203.7780  146.4640 C   0  0  0  0  0  3  0  0  0  0  0  0
  160.9590  200.8410  148.2530 O   0  0  0  0  0  0  0  0  0  0  0  0
  160.8480  201.1300  149.5320 N   0  0  0  0  0  0  0  0  0  0  0  0
  161.0700  201.9580  147.5820 C   0  0  0  0  0  0  0  0  0  0  0  0
  161.2030  202.3720  146.2830 C   0  0  0  0  0  3  0  0  0  0  0  0
  160.8980  202.4870  149.6550 C   0  0  0  0  0  0  0  0  0  0  0  0
  161.1240  204.1120  147.7500 O   0  0  0  0  0  0  0  0  0  0  0  0
  161.0310  202.9820  148.3850 C   0  0  0  0  0  0  0  0  0  0  0  0
  1 12  1  1  0  0  0
  2  3  1  0  0  0  0
  3  7  2  0  0  0  0
  3  1  1  0  0  0  0
  4  2  2  0  0  0  0
  4  5  1  0  0  0  0
  5  8  2  0  0  0  0
  6  7  1  0  0  0  0
  8  1  1  0  0  0  0
  8 25  1  0  0  0  0
  9  2  1  0  0  0  0
  9  6  2  0  0  0  0
 11 24  1  0  0  0  0
 11 10  2  0  0  0  0
 12 15  2  0  0  0  0
 12 14  1  0  0  0  0
 13 10  1  0  0  0  0
 14 13  2  0  0  0  0
 15 11  1  0  0  0  0
 16 15  1  0  0  0  0
 17 20  2  0  0  0  0
 19 20  1  0  0  0  0
 21 18  1  6  0  0  0
 21 17  1  0  0  0  0
 22 24  1  0  0  0  0
 22 18  2  0  0  0  0
 23 21  1  0  0  0  0
 23 19  1  0  0  0  0
 24 23  2  0  0  0  0
 26 27  1  0  0  0  0
 26 25  1  0  0  0  0
 27 28  1  1  0  0  0
 29 35  1  0  0  0  0
 30 31  1  0  0  0  0
 31 34  2  0  0  0  0
 32 30  1  0  0  0  0
 32 36  2  0  0  0  0
 33 29  2  0  0  0  0
 33 32  1  0  0  0  0
 34 27  1  0  0  0  0
 35 36  1  0  0  0  0
 36 34  1  0  0  0  0
M  END
>  <MODEL>
6

>  <REMARK>
 VINA RESULT:      -7.4      3.868      8.840
  Name = 
  6 active torsions:
  status: ('A' for Active; 'I' for Inactive)
    1  A    between atoms: C_2  and  C_15
    2  A    between atoms: C_4  and  C_17
    3  A    between atoms: C_4  and  C_28
    4  A    between atoms: C_10  and  C_32
    5  A    between atoms: C_17  and  C_24
    6  A    between atoms: C_24  and  C_34
                            x       y       z     vdW  Elec       q    Type
                         _______ _______ _______ _____ _____    ______ ____

>  <TORSDO>
F 6

$$$$
=
 OpenBabel11072414353D

 36 42  0  0  1  0  0  0  0  0999 V2000
  161.3300  207.5300  151.5210 C   0  0  1  0  0  3  0  0  0  0  0  0
  161.6070  209.7360  150.6260 C   0  0  0  0  0  0  0  0  0  0  0  0
  161.6960  208.3920  150.4860 C   0  0  0  0  0  0  0  0  0  0  0  0
  161.1630  210.3070  151.7670 N   0  0  0  0  0  0  0  0  0  0  0  0
  160.7990  209.5190  152.7860 N   0  0  0  0  0  0  0  0  0  0  0  0
  162.3310  209.4120  148.6440 N   0  0  0  0  0  0  0  0  0  0  0  0
  162.1590  208.1850  149.2040 C   0  0  0  0  0  3  0  0  0  0  0  0
  160.8550  208.1480  152.7070 C   0  0  0  0  0  0  0  0  0  0  0  0
  161.9940  210.3640  149.5100 N   0  0  0  0  0  0  0  0  0  0  0  0
  161.6160  203.2730  151.1630 C   0  0  0  0  0  3  0  0  0  0  0  0
  161.1980  204.0170  150.0540 C   0  0  0  0  0  0  0  0  0  0  0  0
  161.4360  206.0600  151.3720 C   0  0  0  0  0  0  0  0  0  0  0  0
  161.9560  203.9050  152.3580 C   0  0  0  0  0  3  0  0  0  0  0  0
  161.8700  205.2940  152.4590 C   0  0  0  0  0  3  0  0  0  0  0  0
  161.0860  205.4200  150.1650 C   0  0  0  0  0  0  0  0  0  0  0  0
  160.6150  206.1740  149.0940 O   0  0  0  0  0  1  0  0  0  0  0  0
  161.2060  202.8220  145.4160 N   0  0  0  0  0  0  0  0  0  0  0  0
  160.1570  201.6620  147.2610 C   0  0  0  0  0  3  0  0  0  0  0  0
  162.1680  204.7280  146.8080 S   0  0  0  0  0  0  0  0  0  0  0  0
  161.9570  203.9520  145.2980 C   0  0  0  0  0  3  0  0  0  0  0  0
  160.8390  202.6470  146.7070 C   0  0  0  0  0  0  0  0  0  0  0  0
  160.1100  201.9800  148.7430 C   0  0  0  0  0  2  0  0  0  0  0  0
  161.2410  203.5710  147.5860 C   0  0  0  0  0  0  0  0  0  0  0  0
  160.8560  203.2910  148.8160 C   0  0  0  0  0  0  0  0  0  0  0  0
  160.4550  207.3380  153.9020 C   0  0  0  0  0  2  0  0  0  0  0  0
  161.4000  207.5660  155.0760 C   0  0  0  0  0  2  0  0  0  0  0  0
  160.6330  207.8710  156.3550 C   0  0  2  0  0  3  0  0  0  0  0  0
  159.3310  207.3730  156.2700 O   0  0  0  0  0  1  0  0  0  0  0  0
  158.2730  211.6270  155.4420 C   0  0  0  0  0  3  0  0  0  0  0  0
  161.2330  211.3250  157.1880 O   0  0  0  0  0  0  0  0  0  0  0  0
  161.5690  210.0540  157.2400 N   0  0  0  0  0  0  0  0  0  0  0  0
  160.1070  211.4310  156.5320 C   0  0  0  0  0  0  0  0  0  0  0  0
  159.2410  212.4100  156.1210 C   0  0  0  0  0  3  0  0  0  0  0  0
  160.6020  209.3440  156.5910 C   0  0  0  0  0  0  0  0  0  0  0  0
  158.5770  210.3290  155.4750 O   0  0  0  0  0  0  0  0  0  0  0  0
  159.6890  210.2610  156.1440 C   0  0  0  0  0  0  0  0  0  0  0  0
  1 12  1  6  0  0  0
  1  8  1  0  0  0  0
  2  4  2  0  0  0  0
  3  2  1  0  0  0  0
  3  1  1  0  0  0  0
  4  5  1  0  0  0  0
  6  7  1  0  0  0  0
  6  9  2  0  0  0  0
  7  3  2  0  0  0  0
  8  5  2  0  0  0  0
  8 25  1  0  0  0  0
  9  2  1  0  0  0  0
 10 13  1  0  0  0  0
 11 15  1  0  0  0  0
 11 10  2  0  0  0  0
 12 14  1  0  0  0  0
 13 14  2  0  0  0  0
 15 12  2  0  0  0  0
 16 15  1  0  0  0  0
 17 21  1  0  0  0  0
 18 22  1  0  0  0  0
 19 23  1  0  0  0  0
 20 17  2  0  0  0  0
 20 19  1  0  0  0  0
 21 18  2  0  0  0  0
 21 23  1  0  0  0  0
 22 24  1  0  0  0  0
 23 24  2  0  0  0  0
 24 11  1  0  0  0  0
 25 26  1  0  0  0  0
 26 27  1  0  0  0  0
 27 28  1  6  0  0  0
 27 34  1  0  0  0  0
 29 35  1  0  0  0  0
 29 33  2  0  0  0  0
 30 31  1  0  0  0  0
 32 30  1  0  0  0  0
 33 32  1  0  0  0  0
 34 31  2  0  0  0  0
 35 36  1  0  0  0  0
 36 32  2  0  0  0  0
 36 34  1  0  0  0  0
M  END
>  <MODEL>
7

>  <REMARK>
 VINA RESULT:      -7.3      3.711      6.262
  Name = 
  6 active torsions:
  status: ('A' for Active; 'I' for Inactive)
    1  A    between atoms: C_2  and  C_15
    2  A    between atoms: C_4  and  C_17
    3  A    between atoms: C_4  and  C_28
    4  A    between atoms: C_10  and  C_32
    5  A    between atoms: C_17  and  C_24
    6  A    between atoms: C_24  and  C_34
                            x       y       z     vdW  Elec       q    Type
                         _______ _______ _______ _____ _____    ______ ____

>  <TORSDO>
F 6

$$$$
=
 OpenBabel11072414353D

 36 42  0  0  1  0  0  0  0  0999 V2000
  161.1700  206.2580  150.2360 C   0  0  1  0  0  3  0  0  0  0  0  0
  160.9180  204.0800  151.2030 C   0  0  0  0  0  0  0  0  0  0  0  0
  161.1720  205.4030  151.3400 C   0  0  0  0  0  0  0  0  0  0  0  0
  160.6520  203.5240  150.0010 N   0  0  0  0  0  0  0  0  0  0  0  0
  160.6370  204.3070  148.9150 N   0  0  0  0  0  0  0  0  0  0  0  0
  161.2370  204.3910  153.2910 N   0  0  0  0  0  0  0  0  0  0  0  0
  161.3720  205.6020  152.6890 C   0  0  0  0  0  3  0  0  0  0  0  0
  160.8770  205.6580  148.9840 C   0  0  0  0  0  0  0  0  0  0  0  0
  160.9570  203.4560  152.3860 N   0  0  0  0  0  0  0  0  0  0  0  0
  161.9870  210.4470  150.5870 C   0  0  0  0  0  3  0  0  0  0  0  0
  161.3900  209.7830  151.6650 C   0  0  0  0  0  0  0  0  0  0  0  0
  161.4570  207.7040  150.3840 C   0  0  0  0  0  0  0  0  0  0  0  0
  162.3300  209.7550  149.4270 C   0  0  0  0  0  3  0  0  0  0  0  0
  162.0700  208.3890  149.3290 C   0  0  0  0  0  3  0  0  0  0  0  0
  161.1030  208.4050  151.5550 C   0  0  0  0  0  0  0  0  0  0  0  0
  160.4560  207.7370  152.5910 O   0  0  0  0  0  1  0  0  0  0  0  0
  159.0810  212.8930  154.4820 N   0  0  0  0  0  0  0  0  0  0  0  0
  160.8290  211.3350  155.0870 C   0  0  0  0  0  3  0  0  0  0  0  0
  159.0110  212.2740  152.0110 S   0  0  0  0  0  0  0  0  0  0  0  0
  158.4250  213.1960  153.3270 C   0  0  0  0  0  3  0  0  0  0  0  0
  160.0160  211.9440  154.2440 C   0  0  0  0  0  0  0  0  0  0  0  0
  161.6030  210.3310  154.2550 C   0  0  0  0  0  2  0  0  0  0  0  0
  160.1370  211.5090  152.9860 C   0  0  0  0  0  0  0  0  0  0  0  0
  161.0530  210.5680  152.8680 C   0  0  0  0  0  0  0  0  0  0  0  0
  160.8690  206.4600  147.7190 C   0  0  0  0  0  2  0  0  0  0  0  0
  162.1700  206.2970  146.9440 C   0  0  0  0  0  2  0  0  0  0  0  0
  162.5170  204.8280  146.7420 C   0  0  2  0  0  3  0  0  0  0  0  0
  163.7870  204.7040  146.1750 O   0  0  0  0  0  1  0  0  0  0  0  0
  160.4130  200.9000  145.9340 C   0  0  0  0  0  3  0  0  0  0  0  0
  160.1120  203.8840  144.2300 O   0  0  0  0  0  0  0  0  0  0  0  0
  160.8860  204.7810  144.8020 N   0  0  0  0  0  0  0  0  0  0  0  0
  160.2250  202.7590  144.8850 C   0  0  0  0  0  0  0  0  0  0  0  0
  159.7360  201.4800  144.8320 C   0  0  0  0  0  3  0  0  0  0  0  0
  161.4990  204.1820  145.8630 C   0  0  0  0  0  0  0  0  0  0  0  0
  161.2060  201.7810  146.5450 O   0  0  0  0  0  0  0  0  0  0  0  0
  161.0580  202.8860  145.8780 C   0  0  0  0  0  0  0  0  0  0  0  0
  1 12  1  1  0  0  0
  1  3  1  0  0  0  0
  2  3  1  0  0  0  0
  2  9  1  0  0  0  0
  3  7  2  0  0  0  0
  4  2  2  0  0  0  0
  5  8  2  0  0  0  0
  5  4  1  0  0  0  0
  7  6  1  0  0  0  0
  8  1  1  0  0  0  0
  9  6  2  0  0  0  0
 10 11  1  0  0  0  0
 11 24  1  0  0  0  0
 12 15  1  0  0  0  0
 13 10  2  0  0  0  0
 14 13  1  0  0  0  0
 14 12  2  0  0  0  0
 15 11  2  0  0  0  0
 15 16  1  0  0  0  0
 19 23  1  0  0  0  0
 19 20  1  0  0  0  0
 20 17  2  0  0  0  0
 21 17  1  0  0  0  0
 21 18  2  0  0  0  0
 22 18  1  0  0  0  0
 23 21  1  0  0  0  0
 24 23  2  0  0  0  0
 24 22  1  0  0  0  0
 25  8  1  0  0  0  0
 26 25  1  0  0  0  0
 27 28  1  6  0  0  0
 27 26  1  0  0  0  0
 29 35  1  0  0  0  0
 30 31  1  0  0  0  0
 30 32  1  0  0  0  0
 31 34  2  0  0  0  0
 32 36  2  0  0  0  0
 33 32  1  0  0  0  0
 33 29  2  0  0  0  0
 34 36  1  0  0  0  0
 34 27  1  0  0  0  0
 36 35  1  0  0  0  0
M  END
>  <MODEL>
8

>  <REMARK>
 VINA RESULT:      -7.1      3.810      8.764
  Name = 
  6 active torsions:
  status: ('A' for Active; 'I' for Inactive)
    1  A    between atoms: C_2  and  C_15
    2  A    between atoms: C_4  and  C_17
    3  A    between atoms: C_4  and  C_28
    4  A    between atoms: C_10  and  C_32
    5  A    between atoms: C_17  and  C_24
    6  A    between atoms: C_24  and  C_34
                            x       y       z     vdW  Elec       q    Type
                         _______ _______ _______ _____ _____    ______ ____

>  <TORSDO>
F 6

$$$$
=
 OpenBabel11072414353D

 36 42  0  0  1  0  0  0  0  0999 V2000
  160.8580  209.6740  153.3440 C   0  0  1  0  0  3  0  0  0  0  0  0
  161.5800  209.0100  155.5300 C   0  0  0  0  0  0  0  0  0  0  0  0
  161.2340  209.9820  154.6530 C   0  0  0  0  0  0  0  0  0  0  0  0
  161.5780  207.7030  155.1860 N   0  0  0  0  0  0  0  0  0  0  0  0
  161.2210  207.3620  153.9420 N   0  0  0  0  0  0  0  0  0  0  0  0
  161.7370  210.8430  156.6120 N   0  0  0  0  0  0  0  0  0  0  0  0
  161.3320  211.1640  155.3550 C   0  0  0  0  0  3  0  0  0  0  0  0
  160.8510  208.2960  153.0050 C   0  0  0  0  0  0  0  0  0  0  0  0
  161.8890  209.5260  156.7250 N   0  0  0  0  0  0  0  0  0  0  0  0
  159.7690  212.7930  150.6180 C   0  0  0  0  0  3  0  0  0  0  0  0
  160.8330  211.9460  150.2850 C   0  0  0  0  0  0  0  0  0  0  0  0
  160.4880  210.7380  152.3800 C   0  0  0  0  0  0  0  0  0  0  0  0
  159.0610  212.6130  151.8050 C   0  0  0  0  0  3  0  0  0  0  0  0
  159.4170  211.5870  152.6790 C   0  0  0  0  0  3  0  0  0  0  0  0
  161.2100  210.9240  151.1830 C   0  0  0  0  0  0  0  0  0  0  0  0
  162.3010  210.1070  150.9010 O   0  0  0  0  0  1  0  0  0  0  0  0
  161.5460  213.2360  145.7280 N   0  0  0  0  0  0  0  0  0  0  0  0
  163.1910  212.5850  147.3760 C   0  0  0  0  0  3  0  0  0  0  0  0
  159.5180  212.9580  147.2460 S   0  0  0  0  0  0  0  0  0  0  0  0
  160.1900  213.3750  145.7300 C   0  0  0  0  0  3  0  0  0  0  0  0
  161.9650  212.7990  146.9380 C   0  0  0  0  0  0  0  0  0  0  0  0
  163.0410  212.1630  148.8250 C   0  0  0  0  0  2  0  0  0  0  0  0
  161.0270  212.5770  147.8650 C   0  0  0  0  0  0  0  0  0  0  0  0
  161.5420  212.1830  149.0130 C   0  0  0  0  0  0  0  0  0  0  0  0
  160.4910  207.8350  151.6260 C   0  0  0  0  0  2  0  0  0  0  0  0
  161.4300  206.7380  151.1390 C   0  0  0  0  0  2  0  0  0  0  0  0
  160.7440  205.3790  151.1370 C   0  0  2  0  0  3  0  0  0  0  0  0
  161.2530  204.5770  152.1600 O   0  0  0  0  0  1  0  0  0  0  0  0
  160.8240  201.3290  149.1120 C   0  0  0  0  0  3  0  0  0  0  0  0
  161.4530  204.4290  147.7340 O   0  0  0  0  0  0  0  0  0  0  0  0
  161.3040  205.3460  148.6650 N   0  0  0  0  0  0  0  0  0  0  0  0
  161.2060  203.2580  148.2610 C   0  0  0  0  0  0  0  0  0  0  0  0
  161.1840  201.9400  147.8850 C   0  0  0  0  0  3  0  0  0  0  0  0
  160.9430  204.7120  149.8170 C   0  0  0  0  0  0  0  0  0  0  0  0
  160.6600  202.2290  150.0820 O   0  0  0  0  0  0  0  0  0  0  0  0
  160.8990  203.3760  149.5210 C   0  0  0  0  0  0  0  0  0  0  0  0
  1 12  1  1  0  0  0
  1  3  1  0  0  0  0
  2  9  1  0  0  0  0
  3  7  2  0  0  0  0
  3  2  1  0  0  0  0
  4  2  2  0  0  0  0
  5  4  1  0  0  0  0
  6  9  2  0  0  0  0
  7  6  1  0  0  0  0
  8  1  1  0  0  0  0
  8  5  2  0  0  0  0
 10 13  1  0  0  0  0
 11 10  2  0  0  0  0
 11 15  1  0  0  0  0
 12 14  1  0  0  0  0
 13 14  2  0  0  0  0
 15 12  2  0  0  0  0
 16 15  1  0  0  0  0
 17 20  2  0  0  0  0
 17 21  1  0  0  0  0
 18 22  1  0  0  0  0
 19 23  1  0  0  0  0
 20 19  1  0  0  0  0
 21 18  2  0  0  0  0
 21 23  1  0  0  0  0
 22 24  1  0  0  0  0
 23 24  2  0  0  0  0
 24 11  1  0  0  0  0
 25  8  1  0  0  0  0
 26 25  1  0  0  0  0
 27 26  1  0  0  0  0
 27 28  1  1  0  0  0
 29 35  1  0  0  0  0
 30 32  1  0  0  0  0
 30 31  1  0  0  0  0
 31 34  2  0  0  0  0
 32 36  2  0  0  0  0
 33 32  1  0  0  0  0
 33 29  2  0  0  0  0
 34 27  1  0  0  0  0
 36 34  1  0  0  0  0
 36 35  1  0  0  0  0
M  END
>  <MODEL>
9

>  <REMARK>
 VINA RESULT:      -7.0      3.313      7.634
  Name = 
  6 active torsions:
  status: ('A' for Active; 'I' for Inactive)
    1  A    between atoms: C_2  and  C_15
    2  A    between atoms: C_4  and  C_17
    3  A    between atoms: C_4  and  C_28
    4  A    between atoms: C_10  and  C_32
    5  A    between atoms: C_17  and  C_24
    6  A    between atoms: C_24  and  C_34
                            x       y       z     vdW  Elec       q    Type
                         _______ _______ _______ _____ _____    ______ ____

>  <TORSDO>
F 6

$$$$
