=
 OpenBabel11072413293D

 41 47  0  0  1  0  0  0  0  0999 V2000
  156.4180  211.8320  152.8970 N   0  0  0  0  0  2  0  0  0  0  0  0
  161.3690  210.1900  151.4050 C   0  0  1  0  0  0  0  0  0  0  0  0
  160.6120  211.1030  150.4190 C   0  0  0  0  0  2  0  0  0  0  0  0
  160.5400  206.9310  150.7050 C   0  0  0  0  0  2  0  0  0  0  0  0
  162.9900  209.3800  156.8410 C   0  0  0  0  0  2  0  0  0  0  0  0
  161.9100  211.0610  152.5510 C   0  0  0  0  0  2  0  0  0  0  0  0
  159.7290  208.6890  154.3050 C   0  0  0  0  0  1  0  0  0  0  0  0
  161.5130  209.3700  157.2610 C   0  0  0  0  0  2  0  0  0  0  0  0
  160.7800  206.9680  153.1010 O   0  0  0  0  0  0  0  0  0  0  0  0
  159.8540  212.4870  154.2160 N   0  0  0  0  0  0  0  0  0  0  0  0
  160.9330  211.1500  155.5920 C   0  0  1  0  0  3  0  0  0  0  0  0
  160.7870  208.3790  153.2680 C   0  0  2  0  0  0  0  0  0  0  0  0
  156.4410  211.4060  154.2330 N   0  0  0  0  0  0  0  0  0  0  0  0
  157.6940  211.5870  154.8560 C   0  0  0  0  0  2  0  0  0  0  0  0
  157.7830  212.3240  152.6650 C   0  0  1  0  0  3  0  0  0  0  0  0
  159.7340  208.2150  150.9220 C   0  0  0  0  0  2  0  0  0  0  0  0
  162.5030  210.3000  153.7390 C   0  0  2  0  0  3  0  0  0  0  0  0
  160.8280  210.7170  157.0550 C   0  0  0  0  0  2  0  0  0  0  0  0
  158.4830  212.2760  150.2060 N   0  0  2  0  0  0  0  0  0  0  0  0
  155.3000  210.7910  154.8810 C   0  0  0  0  0  1  0  0  0  0  0  0
  158.5000  212.1060  153.9610 C   0  0  0  0  0  0  0  0  0  0  0  0
  162.1590  208.8020  153.8260 C   0  0  0  0  0  2  0  0  0  0  0  0
  160.3760  209.1390  151.9700 C   0  0  2  0  0  3  0  0  0  0  0  0
  161.4390  206.6300  151.9040 C   0  0  1  0  0  3  0  0  0  0  0  0
  163.4140  210.6500  156.0920 C   0  0  0  0  0  2  0  0  0  0  0  0
  160.4020  212.4380  155.4580 O   0  0  0  0  0  0  0  0  0  0  0  0
  158.4150  211.5420  151.5060 C   0  0  1  0  0  3  0  0  0  0  0  0
  162.3770  211.0900  155.0490 C   0  0  2  0  0  3  0  0  0  0  0  0
  159.6810  212.1350  151.0590 C   0  0  1  0  0  3  0  0  0  0  0  0
  156.6190  213.7220  149.4560 C   0  0  0  0  0  2  0  0  0  0  0  0
  158.9150  214.4530  149.2190 C   0  0  0  0  0  2  0  0  0  0  0  0
  157.9250  214.4530  151.4650 C   0  0  0  0  0  1  0  0  0  0  0  0
  157.9850  213.6810  150.1380 C   0  0  0  0  0  0  0  0  0  0  0  0
  156.7920  214.4170  148.1200 C   0  0  0  0  0  2  0  0  0  0  0  0
  158.2760  214.4210  147.8500 C   0  0  0  0  0  2  0  0  0  0  0  0
  160.8750  204.2090  152.1770 O   0  0  0  0  0  1  0  0  0  0  0  0
  161.8240  205.1910  151.9120 C   0  0  0  0  0  0  0  0  0  0  0  0
  163.0060  204.8600  151.6320 O   0  0  0  0  0  0  0  0  0  0  0  0
  162.7390  209.8160  149.3060 O   0  0  0  0  0  0  0  0  0  0  0  0
  163.2980  208.7460  151.2440 O   0  0  0  0  0  1  0  0  0  0  0  0
  162.5140  209.5370  150.6510 C   0  0  0  0  0  0  0  0  0  0  0  0
  1 13  1  0  0  0  0
  2 41  1  6  0  0  0
  2 23  1  0  0  0  0
  2  6  1  0  0  0  0
  3 29  1  0  0  0  0
  3  2  1  0  0  0  0
  4 16  1  0  0  0  0
  4 24  1  0  0  0  0
  5  8  1  0  0  0  0
  9 12  1  0  0  0  0
 10 26  1  0  0  0  0
 11 18  1  1  0  0  0
 12 22  1  0  0  0  0
 12  7  1  1  0  0  0
 13 14  1  0  0  0  0
 13 20  1  0  0  0  0
 15  1  1  1  0  0  0
 15 21  1  0  0  0  0
 17  6  1  6  0  0  0
 17 22  1  0  0  0  0
 17 28  1  0  0  0  0
 18  8  1  0  0  0  0
 19 33  1  1  0  0  0
 19 29  1  0  0  0  0
 19 27  1  0  0  0  0
 21 10  2  0  0  0  0
 21 14  1  0  0  0  0
 23 16  1  6  0  0  0
 23 12  1  0  0  0  0
 24 37  1  1  0  0  0
 24  9  1  0  0  0  0
 25  5  1  0  0  0  0
 26 11  1  0  0  0  0
 27 15  1  0  0  0  0
 28 11  1  0  0  0  0
 28 25  1  0  0  0  0
 29 27  1  0  0  0  0
 30 33  1  0  0  0  0
 31 33  1  0  0  0  0
 33 32  1  0  0  0  0
 34 30  1  0  0  0  0
 35 34  1  0  0  0  0
 35 31  1  0  0  0  0
 37 36  1  0  0  0  0
 38 37  2  0  0  0  0
 39 41  2  0  0  0  0
 41 40  1  0  0  0  0
M  END
>  <MODEL>
1

>  <REMARK>
 VINA RESULT:       9.4      0.000      0.000
  Name = 
  3 active torsions:
  status: ('A' for Active; 'I' for Inactive)
    1  A    between atoms: C_3  and  C_36
    2  A    between atoms: C_17  and  C_35
    3  A    between atoms: C_23  and  N_28
                            x       y       z     vdW  Elec       q    Type
                         _______ _______ _______ _____ _____    ______ ____

>  <TORSDO>
F 3

$$$$
=
 OpenBabel11072413293D

 41 47  0  0  1  0  0  0  0  0999 V2000
  157.7420  212.5410  151.7220 N   0  0  0  0  0  2  0  0  0  0  0  0
  162.0500  209.2480  151.5600 C   0  0  1  0  0  0  0  0  0  0  0  0
  161.9070  210.2650  150.4070 C   0  0  0  0  0  2  0  0  0  0  0  0
  160.3620  206.3880  150.6860 C   0  0  0  0  0  2  0  0  0  0  0  0
  161.9480  208.4550  157.2330 C   0  0  0  0  0  2  0  0  0  0  0  0
  162.5630  209.9970  152.8010 C   0  0  0  0  0  2  0  0  0  0  0  0
  159.3550  208.6350  153.9490 C   0  0  0  0  0  1  0  0  0  0  0  0
  160.5000  208.9640  157.2600 C   0  0  0  0  0  2  0  0  0  0  0  0
  160.0180  206.5630  153.0630 O   0  0  0  0  0  0  0  0  0  0  0  0
  160.7730  212.1600  153.8750 N   0  0  0  0  0  0  0  0  0  0  0  0
  160.9730  210.6760  155.4890 C   0  0  1  0  0  3  0  0  0  0  0  0
  160.4620  207.9030  153.2200 C   0  0  2  0  0  0  0  0  0  0  0  0
  157.2980  212.2550  153.0210 N   0  0  0  0  0  0  0  0  0  0  0  0
  158.3500  212.0750  153.9440 C   0  0  0  0  0  2  0  0  0  0  0  0
  159.2060  212.5390  151.8460 C   0  0  1  0  0  3  0  0  0  0  0  0
  160.0110  207.8780  150.6820 C   0  0  0  0  0  2  0  0  0  0  0  0
  162.5600  209.1960  154.1050 C   0  0  2  0  0  3  0  0  0  0  0  0
  160.3800  210.4360  156.8780 C   0  0  0  0  0  2  0  0  0  0  0  0
  160.4170  212.0420  149.6490 N   0  0  2  0  0  0  0  0  0  0  0  0
  155.8970  212.1060  153.3580 C   0  0  0  0  0  1  0  0  0  0  0  0
  159.4740  212.2190  153.2830 C   0  0  0  0  0  0  0  0  0  0  0  0
  161.7200  207.9070  154.1080 C   0  0  0  0  0  2  0  0  0  0  0  0
  160.6560  208.6340  151.8560 C   0  0  2  0  0  3  0  0  0  0  0  0
  160.7910  205.9210  152.0770 C   0  0  1  0  0  3  0  0  0  0  0  0
  162.9430  209.4440  156.6110 C   0  0  0  0  0  2  0  0  0  0  0  0
  160.9580  212.0490  155.2170 O   0  0  0  0  0  0  0  0  0  0  0  0
  159.7950  211.4920  150.8920 C   0  0  1  0  0  3  0  0  0  0  0  0
  162.3980  210.1000  155.3350 C   0  0  2  0  0  3  0  0  0  0  0  0
  161.2550  211.5970  150.7820 C   0  0  1  0  0  3  0  0  0  0  0  0
  159.2080  213.9810  148.6970 C   0  0  0  0  0  2  0  0  0  0  0  0
  161.6170  213.8270  148.5220 C   0  0  0  0  0  2  0  0  0  0  0  0
  160.6470  214.3780  150.7080 C   0  0  0  0  0  1  0  0  0  0  0  0
  160.4550  213.5190  149.4490 C   0  0  0  0  0  0  0  0  0  0  0  0
  159.6440  214.4470  147.3230 C   0  0  0  0  0  2  0  0  0  0  0  0
  161.0370  213.9010  147.1290 C   0  0  0  0  0  2  0  0  0  0  0  0
  160.4670  203.6620  151.0540 O   0  0  0  0  0  0  0  0  0  0  0  0
  160.6540  204.4420  152.1910 C   0  0  0  0  0  0  0  0  0  0  0  0
  160.7550  203.8910  153.3180 O   0  0  0  0  0  1  0  0  0  0  0  0
  163.4950  207.2160  152.0160 O   0  0  0  0  0  1  0  0  0  0  0  0
  163.4810  208.1700  149.9410 O   0  0  0  0  0  0  0  0  0  0  0  0
  163.0520  208.1920  151.1270 C   0  0  0  0  0  0  0  0  0  0  0  0
  1 13  1  0  0  0  0
  2 41  1  6  0  0  0
  2 23  1  0  0  0  0
  2  6  1  0  0  0  0
  3 29  1  0  0  0  0
  3  2  1  0  0  0  0
  4 24  1  0  0  0  0
  5  8  1  0  0  0  0
  9 12  1  0  0  0  0
 10 26  1  0  0  0  0
 11 18  1  1  0  0  0
 12  7  1  1  0  0  0
 12 22  1  0  0  0  0
 13 20  1  0  0  0  0
 13 14  1  0  0  0  0
 15  1  1  1  0  0  0
 15 21  1  0  0  0  0
 16  4  1  0  0  0  0
 17  6  1  6  0  0  0
 17 22  1  0  0  0  0
 17 28  1  0  0  0  0
 18  8  1  0  0  0  0
 19 33  1  1  0  0  0
 19 29  1  0  0  0  0
 19 27  1  0  0  0  0
 21 10  2  0  0  0  0
 21 14  1  0  0  0  0
 23 16  1  6  0  0  0
 23 12  1  0  0  0  0
 24 37  1  6  0  0  0
 24  9  1  0  0  0  0
 25  5  1  0  0  0  0
 26 11  1  0  0  0  0
 27 15  1  0  0  0  0
 28 11  1  0  0  0  0
 28 25  1  0  0  0  0
 29 27  1  0  0  0  0
 30 33  1  0  0  0  0
 31 33  1  0  0  0  0
 33 32  1  0  0  0  0
 34 30  1  0  0  0  0
 35 34  1  0  0  0  0
 35 31  1  0  0  0  0
 36 37  2  0  0  0  0
 37 38  1  0  0  0  0
 40 41  2  0  0  0  0
 41 39  1  0  0  0  0
M  END
>  <MODEL>
2

>  <REMARK>
 VINA RESULT:      10.2      1.328      1.741
  Name = 
  3 active torsions:
  status: ('A' for Active; 'I' for Inactive)
    1  A    between atoms: C_3  and  C_36
    2  A    between atoms: C_17  and  C_35
    3  A    between atoms: C_23  and  N_28
                            x       y       z     vdW  Elec       q    Type
                         _______ _______ _______ _____ _____    ______ ____

>  <TORSDO>
F 3

$$$$
=
 OpenBabel11072413293D

 41 47  0  0  1  0  0  0  0  0999 V2000
  158.5230  212.7810  149.2400 N   0  0  0  0  0  2  0  0  0  0  0  0
  162.4130  209.1410  150.2630 C   0  0  1  0  0  0  0  0  0  0  0  0
  162.5900  210.0140  149.0030 C   0  0  0  0  0  2  0  0  0  0  0  0
  160.6170  206.3470  149.3900 C   0  0  0  0  0  2  0  0  0  0  0  0
  161.1970  209.0720  155.8620 C   0  0  0  0  0  2  0  0  0  0  0  0
  162.7680  209.9920  151.4930 C   0  0  0  0  0  2  0  0  0  0  0  0
  159.2780  209.0600  152.1380 C   0  0  0  0  0  1  0  0  0  0  0  0
  159.8310  209.7020  155.5540 C   0  0  0  0  0  2  0  0  0  0  0  0
  159.8670  206.8450  151.6240 O   0  0  0  0  0  0  0  0  0  0  0  0
  161.0540  212.4160  151.9650 N   0  0  0  0  0  2  0  0  0  0  0  0
  160.7980  211.1330  153.7360 C   0  0  1  0  0  3  0  0  0  0  0  0
  160.4150  208.1530  151.7190 C   0  0  2  0  0  0  0  0  0  0  0  0
  157.8220  212.6970  150.4520 N   0  0  0  0  0  0  0  0  0  0  0  0
  158.6640  212.5450  151.5740 C   0  0  0  0  0  3  0  0  0  0  0  0
  159.9310  212.6700  149.6430 C   0  0  1  0  0  3  0  0  0  0  0  0
  160.4330  207.8490  149.1600 C   0  0  0  0  0  2  0  0  0  0  0  0
  162.4430  209.3630  152.8500 C   0  0  2  0  0  3  0  0  0  0  0  0
  159.9400  211.1190  155.0020 C   0  0  0  0  0  2  0  0  0  0  0  0
  161.4610  211.8030  147.7870 N   0  0  2  0  0  0  0  0  0  0  0  0
  156.3750  212.7110  150.5260 C   0  0  0  0  0  1  0  0  0  0  0  0
  159.8970  212.5110  151.1310 C   0  0  0  0  0  0  0  0  0  0  0  0
  161.4830  208.1600  152.8280 C   0  0  0  0  0  2  0  0  0  0  0  0
  160.9310  208.6880  150.3480 C   0  0  2  0  0  3  0  0  0  0  0  0
  160.7340  206.0220  150.8790 C   0  0  1  0  0  3  0  0  0  0  0  0
  162.3880  209.8880  155.3420 C   0  0  0  0  0  2  0  0  0  0  0  0
  160.9790  212.4580  153.3210 O   0  0  0  0  0  0  0  0  0  0  0  0
  160.5690  211.4670  148.9370 C   0  0  1  0  0  3  0  0  0  0  0  0
  162.1570  210.4240  153.9220 C   0  0  2  0  0  3  0  0  0  0  0  0
  162.0270  211.4330  149.1010 C   0  0  1  0  0  3  0  0  0  0  0  0
  160.5250  213.7720  146.6160 C   0  0  0  0  0  2  0  0  0  0  0  0
  162.8960  213.2960  146.5190 C   0  0  0  0  0  2  0  0  0  0  0  0
  161.9780  214.1870  148.6130 C   0  0  0  0  0  1  0  0  0  0  0  0
  161.6920  213.2350  147.4420 C   0  0  0  0  0  0  0  0  0  0  0  0
  161.0350  214.0360  145.2140 C   0  0  0  0  0  2  0  0  0  0  0  0
  162.3480  213.3010  145.1110 C   0  0  0  0  0  2  0  0  0  0  0  0
  160.1800  203.7280  150.0530 O   0  0  0  0  0  0  0  0  0  0  0  0
  160.4210  204.5860  151.1210 C   0  0  0  0  0  0  0  0  0  0  0  0
  160.4210  204.1380  152.2970 O   0  0  0  0  0  1  0  0  0  0  0  0
  163.6370  207.1510  151.2460 O   0  0  0  0  0  1  0  0  0  0  0  0
  163.8890  207.6740  149.0380 O   0  0  0  0  0  0  0  0  0  0  0  0
  163.3590  207.9590  150.1470 C   0  0  0  0  0  0  0  0  0  0  0  0
  1 13  1  0  0  0  0
  2 41  1  6  0  0  0
  2 23  1  0  0  0  0
  2  6  1  0  0  0  0
  3 29  1  0  0  0  0
  3  2  1  0  0  0  0
  4 24  1  0  0  0  0
  8  5  1  0  0  0  0
  9 12  1  0  0  0  0
 10 26  1  0  0  0  0
 11 28  1  0  0  0  0
 11 18  1  1  0  0  0
 12  7  1  1  0  0  0
 12 22  1  0  0  0  0
 13 20  1  0  0  0  0
 13 14  1  0  0  0  0
 15  1  1  6  0  0  0
 15 21  1  0  0  0  0
 16  4  1  0  0  0  0
 17  6  1  6  0  0  0
 17 28  1  0  0  0  0
 18  8  1  0  0  0  0
 19 33  1  1  0  0  0
 19 27  1  0  0  0  0
 19 29  1  0  0  0  0
 21 14  2  0  0  0  0
 21 10  1  0  0  0  0
 22 17  1  0  0  0  0
 23 16  1  6  0  0  0
 23 12  1  0  0  0  0
 24 37  1  6  0  0  0
 24  9  1  0  0  0  0
 25  5  1  0  0  0  0
 26 11  1  0  0  0  0
 27 29  1  0  0  0  0
 27 15  1  0  0  0  0
 28 25  1  0  0  0  0
 30 33  1  0  0  0  0
 31 33  1  0  0  0  0
 33 32  1  0  0  0  0
 34 30  1  0  0  0  0
 35 34  1  0  0  0  0
 35 31  1  0  0  0  0
 36 37  2  0  0  0  0
 37 38  1  0  0  0  0
 40 41  2  0  0  0  0
 41 39  1  0  0  0  0
M  END
>  <MODEL>
3

>  <REMARK>
 VINA RESULT:      12.2      2.122      3.079
  Name = 
  3 active torsions:
  status: ('A' for Active; 'I' for Inactive)
    1  A    between atoms: C_3  and  C_36
    2  A    between atoms: C_17  and  C_35
    3  A    between atoms: C_23  and  N_28
                            x       y       z     vdW  Elec       q    Type
                         _______ _______ _______ _____ _____    ______ ____

>  <TORSDO>
F 3

$$$$
