=
 OpenBabel11072413243D

 44 47  0  0  1  0  0  0  0  0999 V2000
  159.8040  207.8930  156.1710 N   0  0  0  0  0  0  0  0  0  0  0  0
  160.1590  211.0650  153.6200 C   0  0  0  0  0  0  0  0  0  0  0  0
  161.2650  209.1940  152.1540 C   0  0  0  0  0  3  0  0  0  0  0  0
  159.5220  211.2730  154.7210 N   0  0  0  0  0  0  0  0  0  0  0  0
  160.7420  209.7090  153.3040 C   0  0  0  0  0  0  0  0  0  0  0  0
  159.9450  209.0360  155.4750 C   0  0  0  0  0  0  0  0  0  0  0  0
  160.8550  207.5030  154.3210 C   0  0  0  0  0  0  0  0  0  0  0  0
  159.3720  210.3120  155.7260 N   0  0  0  0  0  2  0  0  0  0  0  0
  160.5860  208.8020  154.3380 C   0  0  0  0  0  0  0  0  0  0  0  0
  161.7720  207.8470  152.0810 C   0  0  0  0  0  0  0  0  0  0  0  0
  160.4140  206.9280  155.4050 N   0  0  0  0  0  2  0  0  0  0  0  0
  161.4940  206.9600  153.1560 C   0  0  0  0  0  3  0  0  0  0  0  0
  162.1580  207.3230  150.6790 C   0  0  0  0  0  2  0  0  0  0  0  0
  160.9930  205.2820  150.8930 C   0  0  0  0  0  3  0  0  0  0  0  0
  161.3600  206.2650  149.9820 C   0  0  0  0  0  0  0  0  0  0  0  0
  160.4740  206.1060  146.2670 C   0  0  0  0  0  3  0  0  0  0  0  0
  162.3220  205.0800  148.0870 C   0  0  0  0  0  3  0  0  0  0  0  0
  161.4730  205.1900  145.8290 C   0  0  0  0  0  0  0  0  0  0  0  0
  162.3960  204.7120  146.7530 C   0  0  0  0  0  3  0  0  0  0  0  0
  161.3280  205.9090  148.5530 C   0  0  0  0  0  0  0  0  0  0  0  0
  160.4050  206.4820  147.6030 C   0  0  0  0  0  3  0  0  0  0  0  0
  161.5770  204.7510  144.5250 O   0  0  0  0  0  0  0  0  0  0  0  0
  161.2610  205.5670  143.4060 C   0  0  0  0  0  1  0  0  0  0  0  0
  160.3010  204.0170  150.6740 C   0  0  0  0  0  2  0  0  0  0  0  0
  161.2830  202.8730  150.8380 C   0  0  0  0  0  2  0  0  0  0  0  0
  159.1150  201.6740  148.7050 O   0  0  0  0  0  1  0  0  0  0  0  0
  161.0000  200.3980  150.7270 O   0  0  0  0  0  1  0  0  0  0  0  0
  161.2380  201.4440  147.7760 O   0  0  0  0  0  0  0  0  0  0  0  0
  160.3870  201.6320  148.8630 C   0  0  0  0  0  0  0  0  0  0  0  0
  160.8630  201.6350  150.1650 N   0  0  0  0  0  0  0  0  0  0  0  0
  160.1070  212.1430  152.5640 C   0  0  0  0  0  2  0  0  0  0  0  0
  158.7310  212.8770  152.4350 C   0  0  2  0  0  3  0  0  0  0  0  0
  158.0190  212.8580  151.1530 N   0  0  0  0  0  2  0  0  0  0  0  0
  157.6510  214.2160  150.7440 C   0  0  0  0  0  2  0  0  0  0  0  0
  157.8310  214.3340  149.2350 C   0  0  0  0  0  2  0  0  0  0  0  0
  159.0280  213.5990  148.6490 C   0  0  0  0  0  2  0  0  0  0  0  0
  159.1030  213.8730  147.2100 N   0  0  0  0  0  2  0  0  0  0  0  0
  159.7760  212.2630  145.5420 C   0  0  0  0  0  1  0  0  0  0  0  0
  160.2550  213.1930  146.6650 C   0  0  0  0  0  3  0  0  0  0  0  0
  160.9540  212.3180  147.6930 C   0  0  0  0  0  1  0  0  0  0  0  0
  158.6650  214.2840  153.0510 C   0  0  0  0  0  2  0  0  0  0  0  0
  158.5210  214.4000  155.4580 O   0  0  0  0  0  1  0  0  0  0  0  0
  157.7620  214.4140  154.2880 C   0  0  2  0  0  3  0  0  0  0  0  0
  156.7270  213.2860  154.3400 C   0  0  0  0  0  1  0  0  0  0  0  0
  2  4  2  0  0  0  0
  3  5  1  0  0  0  0
  4  8  1  0  0  0  0
  5  2  1  0  0  0  0
  5  9  2  0  0  0  0
  6  8  1  0  0  0  0
  6  1  2  0  0  0  0
  7  9  1  0  0  0  0
  7 11  1  0  0  0  0
  9  6  1  0  0  0  0
 10  3  2  0  0  0  0
 10 12  1  0  0  0  0
 11  1  1  0  0  0  0
 12  7  2  0  0  0  0
 13 10  1  0  0  0  0
 15 13  1  0  0  0  0
 15 14  2  0  0  0  0
 16 21  1  0  0  0  0
 17 20  1  0  0  0  0
 18 16  2  0  0  0  0
 18 19  1  0  0  0  0
 19 17  2  0  0  0  0
 20 15  1  0  0  0  0
 21 20  2  0  0  0  0
 22 18  1  0  0  0  0
 23 22  1  0  0  0  0
 24 25  1  0  0  0  0
 24 14  1  0  0  0  0
 26 29  1  0  0  0  0
 28 29  2  0  0  0  0
 29 30  1  0  0  0  0
 30 27  1  0  0  0  0
 30 25  1  0  0  0  0
 31  2  1  0  0  0  0
 32 31  1  6  0  0  0
 32 41  1  0  0  0  0
 33 32  1  0  0  0  0
 34 33  1  0  0  0  0
 35 34  1  0  0  0  0
 36 35  1  0  0  0  0
 37 36  1  0  0  0  0
 38 39  1  0  0  0  0
 39 37  1  0  0  0  0
 39 40  1  0  0  0  0
 41 43  1  0  0  0  0
 43 44  1  1  0  0  0
 43 42  1  0  0  0  0
M  END
>  <MODEL>
1

>  <REMARK>
 VINA RESULT:      -6.7      0.000      0.000
  Name = 
  17 active torsions:
  status: ('A' for Active; 'I' for Inactive)
    1  A    between atoms: C_3  and  C_12
    2  A    between atoms: C_3  and  C_16
    3  A    between atoms: C_5  and  C_6
    4  A    between atoms: C_5  and  C_12
    5  A    between atoms: C_9  and  C_33
    6  A    between atoms: C_9  and  N_40
    7  A    between atoms: C_11  and  O_25
    8  A    between atoms: C_12  and  N_40
    9  A    between atoms: C_17  and  N_32
   10  A    between atoms: C_21  and  C_35
   11  A    between atoms: C_21  and  C_42
   12  A    between atoms: C_22  and  C_41
   13  A    between atoms: C_28  and  C_35
   14  A    between atoms: C_31  and  N_39
   15  A    between atoms: C_31  and  C_41
   16  A    between atoms: N_32  and  C_37
   17  A    between atoms: C_33  and  C_37
                            x       y       z     vdW  Elec       q    Type
                         _______ _______ _______ _____ _____    ______ ____

>  <TORSDO>
F 17

$$$$
=
 OpenBabel11072413243D

 44 47  0  0  1  0  0  0  0  0999 V2000
  161.2080  208.5420  156.8460 N   0  0  0  0  0  0  0  0  0  0  0  0
  158.6040  211.1040  155.0140 C   0  0  0  0  0  0  0  0  0  0  0  0
  159.7260  210.0300  152.9010 C   0  0  0  0  0  3  0  0  0  0  0  0
  158.5400  211.0300  156.2990 N   0  0  0  0  0  0  0  0  0  0  0  0
  159.6020  210.2780  154.2370 C   0  0  0  0  0  0  0  0  0  0  0  0
  160.3810  209.4940  156.3770 C   0  0  0  0  0  0  0  0  0  0  0  0
  161.3240  208.6220  154.6870 C   0  0  0  0  0  0  0  0  0  0  0  0
  159.4040  210.2530  157.0770 N   0  0  0  0  0  2  0  0  0  0  0  0
  160.4460  209.5460  155.0540 C   0  0  0  0  0  0  0  0  0  0  0  0
  160.7760  209.1940  152.3740 C   0  0  0  0  0  0  0  0  0  0  0  0
  161.8110  208.0090  155.7310 N   0  0  0  0  0  2  0  0  0  0  0  0
  161.5410  208.4140  153.2830 C   0  0  0  0  0  3  0  0  0  0  0  0
  160.6940  208.8370  150.8730 C   0  0  0  0  0  2  0  0  0  0  0  0
  161.9970  208.0530  149.0690 C   0  0  0  0  0  3  0  0  0  0  0  0
  161.4470  207.6820  150.2910 C   0  0  0  0  0  0  0  0  0  0  0  0
  161.4350  204.2530  151.9790 C   0  0  0  0  0  3  0  0  0  0  0  0
  160.6810  205.4810  149.5910 C   0  0  0  0  0  3  0  0  0  0  0  0
  160.8560  203.4810  150.9310 C   0  0  0  0  0  0  0  0  0  0  0  0
  160.4680  204.1230  149.7600 C   0  0  0  0  0  3  0  0  0  0  0  0
  161.3000  206.2410  150.5560 C   0  0  0  0  0  0  0  0  0  0  0  0
  161.6410  205.6170  151.8120 C   0  0  0  0  0  3  0  0  0  0  0  0
  160.6540  202.1180  151.0190 O   0  0  0  0  0  0  0  0  0  0  0  0
  161.2010  201.1920  150.0920 C   0  0  0  0  0  1  0  0  0  0  0  0
  162.7260  207.2530  148.0920 C   0  0  0  0  0  2  0  0  0  0  0  0
  161.7940  206.8770  146.9560 C   0  0  0  0  0  2  0  0  0  0  0  0
  160.5420  204.2850  145.4070 O   0  0  0  0  0  1  0  0  0  0  0  0
  163.2700  204.8970  146.6130 O   0  0  0  0  0  1  0  0  0  0  0  0
  161.8360  205.4770  143.8800 O   0  0  0  0  0  0  0  0  0  0  0  0
  161.4640  205.1490  145.1820 C   0  0  0  0  0  0  0  0  0  0  0  0
  162.1640  205.6260  146.2790 N   0  0  0  0  0  0  0  0  0  0  0  0
  157.5100  211.8590  154.2970 C   0  0  0  0  0  2  0  0  0  0  0  0
  157.7130  213.4090  154.2280 C   0  0  2  0  0  3  0  0  0  0  0  0
  158.9920  213.9500  153.7570 N   0  0  0  0  0  2  0  0  0  0  0  0
  158.8670  214.4530  152.3850 C   0  0  0  0  0  2  0  0  0  0  0  0
  159.2740  213.3420  151.4240 C   0  0  0  0  0  2  0  0  0  0  0  0
  160.1810  213.7570  150.2740 C   0  0  0  0  0  2  0  0  0  0  0  0
  160.8260  212.5630  149.7160 N   0  0  0  0  0  2  0  0  0  0  0  0
  162.5640  211.9290  148.1650 C   0  0  0  0  0  1  0  0  0  0  0  0
  161.4090  212.9030  148.4390 C   0  0  0  0  0  3  0  0  0  0  0  0
  162.0010  214.3020  148.4230 C   0  0  0  0  0  1  0  0  0  0  0  0
  157.2280  214.2000  155.4530 C   0  0  0  0  0  2  0  0  0  0  0  0
  155.3060  213.0600  156.3680 O   0  0  0  0  0  1  0  0  0  0  0  0
  155.7060  214.2000  155.6700 C   0  0  2  0  0  3  0  0  0  0  0  0
  154.9550  214.2690  154.3360 C   0  0  0  0  0  1  0  0  0  0  0  0
  2  4  2  0  0  0  0
  3  5  1  0  0  0  0
  4  8  1  0  0  0  0
  5  2  1  0  0  0  0
  5  9  2  0  0  0  0
  6  1  2  0  0  0  0
  6  8  1  0  0  0  0
  7  9  1  0  0  0  0
  7 11  1  0  0  0  0
  9  6  1  0  0  0  0
 10  3  2  0  0  0  0
 10 12  1  0  0  0  0
 11  1  1  0  0  0  0
 12  7  2  0  0  0  0
 13 10  1  0  0  0  0
 14 15  2  0  0  0  0
 15 20  1  0  0  0  0
 15 13  1  0  0  0  0
 17 19  2  0  0  0  0
 17 20  1  0  0  0  0
 18 22  1  0  0  0  0
 18 16  2  0  0  0  0
 19 18  1  0  0  0  0
 20 21  2  0  0  0  0
 21 16  1  0  0  0  0
 23 22  1  0  0  0  0
 24 14  1  0  0  0  0
 25 24  1  0  0  0  0
 28 29  2  0  0  0  0
 29 26  1  0  0  0  0
 29 30  1  0  0  0  0
 30 27  1  0  0  0  0
 30 25  1  0  0  0  0
 31  2  1  0  0  0  0
 32 31  1  1  0  0  0
 32 41  1  0  0  0  0
 33 32  1  0  0  0  0
 34 33  1  0  0  0  0
 35 34  1  0  0  0  0
 36 35  1  0  0  0  0
 37 36  1  0  0  0  0
 38 39  1  0  0  0  0
 39 37  1  0  0  0  0
 40 39  1  0  0  0  0
 41 43  1  0  0  0  0
 43 44  1  6  0  0  0
 43 42  1  0  0  0  0
M  END
>  <MODEL>
2

>  <REMARK>
 VINA RESULT:      -6.4      1.989      3.650
  Name = 
  17 active torsions:
  status: ('A' for Active; 'I' for Inactive)
    1  A    between atoms: C_3  and  C_12
    2  A    between atoms: C_3  and  C_16
    3  A    between atoms: C_5  and  C_6
    4  A    between atoms: C_5  and  C_12
    5  A    between atoms: C_9  and  C_33
    6  A    between atoms: C_9  and  N_40
    7  A    between atoms: C_11  and  O_25
    8  A    between atoms: C_12  and  N_40
    9  A    between atoms: C_17  and  N_32
   10  A    between atoms: C_21  and  C_35
   11  A    between atoms: C_21  and  C_42
   12  A    between atoms: C_22  and  C_41
   13  A    between atoms: C_28  and  C_35
   14  A    between atoms: C_31  and  N_39
   15  A    between atoms: C_31  and  C_41
   16  A    between atoms: N_32  and  C_37
   17  A    between atoms: C_33  and  C_37
                            x       y       z     vdW  Elec       q    Type
                         _______ _______ _______ _____ _____    ______ ____

>  <TORSDO>
F 17

$$$$
=
 OpenBabel11072413243D

 44 47  0  0  1  0  0  0  0  0999 V2000
  160.8060  206.7960  155.3130 N   0  0  0  0  0  0  0  0  0  0  0  0
  160.3990  210.5220  153.6840 C   0  0  0  0  0  0  0  0  0  0  0  0
  161.3350  209.2310  151.6040 C   0  0  0  0  0  3  0  0  0  0  0  0
  159.9780  210.3660  154.8930 N   0  0  0  0  0  0  0  0  0  0  0  0
  161.0130  209.3720  152.9210 C   0  0  0  0  0  0  0  0  0  0  0  0
  160.7170  208.0850  154.9350 C   0  0  0  0  0  0  0  0  0  0  0  0
  161.4970  207.0160  153.2750 C   0  0  0  0  0  0  0  0  0  0  0  0
  160.1060  209.1740  155.6130 N   0  0  0  0  0  2  0  0  0  0  0  0
  161.1360  208.2240  153.6860 C   0  0  0  0  0  0  0  0  0  0  0  0
  161.9220  208.0200  151.0870 C   0  0  0  0  0  0  0  0  0  0  0  0
  161.3260  206.1380  154.2240 N   0  0  0  0  0  2  0  0  0  0  0  0
  161.9340  206.8660  151.9160 C   0  0  0  0  0  3  0  0  0  0  0  0
  162.0630  207.9140  149.5510 C   0  0  0  0  0  2  0  0  0  0  0  0
  160.9570  207.0950  147.6350 C   0  0  0  0  0  3  0  0  0  0  0  0
  161.6130  206.7030  148.7960 C   0  0  0  0  0  0  0  0  0  0  0  0
  160.4760  203.7130  150.8880 C   0  0  0  0  0  3  0  0  0  0  0  0
  161.6740  204.2960  148.4380 C   0  0  0  0  0  3  0  0  0  0  0  0
  160.8740  202.6570  150.0190 C   0  0  0  0  0  0  0  0  0  0  0  0
  161.4480  202.9770  148.7940 C   0  0  0  0  0  3  0  0  0  0  0  0
  161.3630  205.3360  149.2850 C   0  0  0  0  0  0  0  0  0  0  0  0
  160.6950  205.0360  150.5280 C   0  0  0  0  0  3  0  0  0  0  0  0
  160.7150  201.3210  150.3300 O   0  0  0  0  0  0  0  0  0  0  0  0
  160.7450  200.2900  149.3540 C   0  0  0  0  0  1  0  0  0  0  0  0
  160.2640  206.2900  146.6370 C   0  0  0  0  0  2  0  0  0  0  0  0
  160.7540  206.6740  145.2530 C   0  0  0  0  0  2  0  0  0  0  0  0
  163.0370  204.3410  145.4260 O   0  0  0  0  0  1  0  0  0  0  0  0
  161.4090  205.5220  143.1410 O   0  0  0  0  0  1  0  0  0  0  0  0
  160.9560  203.3010  145.3140 O   0  0  0  0  0  0  0  0  0  0  0  0
  161.7890  204.4030  145.1350 C   0  0  0  0  0  0  0  0  0  0  0  0
  161.3440  205.5540  144.5050 N   0  0  0  0  0  0  0  0  0  0  0  0
  160.0540  211.8130  152.9810 C   0  0  0  0  0  2  0  0  0  0  0  0
  158.6190  212.3630  153.2750 C   0  0  2  0  0  3  0  0  0  0  0  0
  157.9680  213.2420  152.2970 N   0  0  0  0  0  2  0  0  0  0  0  0
  158.8280  214.3850  151.9750 C   0  0  0  0  0  2  0  0  0  0  0  0
  159.0280  214.4300  150.4650 C   0  0  0  0  0  2  0  0  0  0  0  0
  160.4710  214.3800  149.9830 C   0  0  0  0  0  2  0  0  0  0  0  0
  160.7680  213.0290  149.4940 N   0  0  0  0  0  2  0  0  0  0  0  0
  162.4190  212.0250  148.0480 C   0  0  0  0  0  1  0  0  0  0  0  0
  161.3610  213.1290  148.1810 C   0  0  0  0  0  3  0  0  0  0  0  0
  162.0770  214.4520  147.9650 C   0  0  0  0  0  1  0  0  0  0  0  0
  158.3890  212.8990  154.6970 C   0  0  0  0  0  2  0  0  0  0  0  0
  156.5900  211.2880  154.7220 O   0  0  0  0  0  1  0  0  0  0  0  0
  157.3720  212.1080  155.5360 C   0  0  2  0  0  3  0  0  0  0  0  0
  156.4630  213.0470  156.3350 C   0  0  0  0  0  1  0  0  0  0  0  0
  2  4  2  0  0  0  0
  3  5  1  0  0  0  0
  4  8  1  0  0  0  0
  5  2  1  0  0  0  0
  5  9  2  0  0  0  0
  6  1  2  0  0  0  0
  6  8  1  0  0  0  0
  7  9  1  0  0  0  0
  7 11  1  0  0  0  0
  9  6  1  0  0  0  0
 10  3  2  0  0  0  0
 10 12  1  0  0  0  0
 11  1  1  0  0  0  0
 12  7  2  0  0  0  0
 13 10  1  0  0  0  0
 14 15  2  0  0  0  0
 15 20  1  0  0  0  0
 15 13  1  0  0  0  0
 17 19  2  0  0  0  0
 17 20  1  0  0  0  0
 18 22  1  0  0  0  0
 18 16  2  0  0  0  0
 19 18  1  0  0  0  0
 20 21  2  0  0  0  0
 21 16  1  0  0  0  0
 23 22  1  0  0  0  0
 24 14  1  0  0  0  0
 25 24  1  0  0  0  0
 27 30  1  0  0  0  0
 29 28  2  0  0  0  0
 29 26  1  0  0  0  0
 30 29  1  0  0  0  0
 30 25  1  0  0  0  0
 31  2  1  0  0  0  0
 32 31  1  6  0  0  0
 32 41  1  0  0  0  0
 33 32  1  0  0  0  0
 34 33  1  0  0  0  0
 35 34  1  0  0  0  0
 36 35  1  0  0  0  0
 37 36  1  0  0  0  0
 38 39  1  0  0  0  0
 39 37  1  0  0  0  0
 40 39  1  0  0  0  0
 41 43  1  0  0  0  0
 42 43  1  0  0  0  0
 43 44  1  6  0  0  0
M  END
>  <MODEL>
3

>  <REMARK>
 VINA RESULT:      -6.2      1.759      3.554
  Name = 
  17 active torsions:
  status: ('A' for Active; 'I' for Inactive)
    1  A    between atoms: C_3  and  C_12
    2  A    between atoms: C_3  and  C_16
    3  A    between atoms: C_5  and  C_6
    4  A    between atoms: C_5  and  C_12
    5  A    between atoms: C_9  and  C_33
    6  A    between atoms: C_9  and  N_40
    7  A    between atoms: C_11  and  O_25
    8  A    between atoms: C_12  and  N_40
    9  A    between atoms: C_17  and  N_32
   10  A    between atoms: C_21  and  C_35
   11  A    between atoms: C_21  and  C_42
   12  A    between atoms: C_22  and  C_41
   13  A    between atoms: C_28  and  C_35
   14  A    between atoms: C_31  and  N_39
   15  A    between atoms: C_31  and  C_41
   16  A    between atoms: N_32  and  C_37
   17  A    between atoms: C_33  and  C_37
                            x       y       z     vdW  Elec       q    Type
                         _______ _______ _______ _____ _____    ______ ____

>  <TORSDO>
F 17

$$$$
=
 OpenBabel11072413243D

 44 47  0  0  1  0  0  0  0  0999 V2000
  160.6200  214.0800  150.0990 N   0  0  0  0  0  0  0  0  0  0  0  0
  159.1570  211.9820  153.2870 C   0  0  0  0  0  0  0  0  0  0  0  0
  160.5720  210.1010  152.1320 C   0  0  0  0  0  3  0  0  0  0  0  0
  158.8780  213.2400  153.2400 N   0  0  0  0  0  0  0  0  0  0  0  0
  159.9850  211.3300  152.2050 C   0  0  0  0  0  0  0  0  0  0  0  0
  159.9930  213.4850  151.1310 C   0  0  0  0  0  0  0  0  0  0  0  0
  161.1290  211.9780  150.1600 C   0  0  0  0  0  0  0  0  0  0  0  0
  159.2460  214.0790  152.1850 N   0  0  0  0  0  2  0  0  0  0  0  0
  160.3040  212.1980  151.1740 C   0  0  0  0  0  0  0  0  0  0  0  0
  161.3310  209.6840  150.9800 C   0  0  0  0  0  0  0  0  0  0  0  0
  161.3330  213.0770  149.4870 N   0  0  0  0  0  2  0  0  0  0  0  0
  161.6820  210.6620  150.0110 C   0  0  0  0  0  3  0  0  0  0  0  0
  162.1030  208.3500  151.0990 C   0  0  0  0  0  2  0  0  0  0  0  0
  161.3780  207.6750  148.9580 C   0  0  0  0  0  3  0  0  0  0  0  0
  161.8430  207.1990  150.1790 C   0  0  0  0  0  0  0  0  0  0  0  0
  161.2010  203.9280  152.0490 C   0  0  0  0  0  3  0  0  0  0  0  0
  161.2630  204.9490  149.4540 C   0  0  0  0  0  3  0  0  0  0  0  0
  160.9510  203.0710  150.9390 C   0  0  0  0  0  0  0  0  0  0  0  0
  160.9660  203.6120  149.6580 C   0  0  0  0  0  3  0  0  0  0  0  0
  161.5760  205.7870  150.5000 C   0  0  0  0  0  0  0  0  0  0  0  0
  161.4910  205.2720  151.8460 C   0  0  0  0  0  3  0  0  0  0  0  0
  160.6890  201.7230  151.0690 O   0  0  0  0  0  0  0  0  0  0  0  0
  160.2220  200.9170  149.9960 C   0  0  0  0  0  1  0  0  0  0  0  0
  160.9030  206.9420  147.7900 C   0  0  0  0  0  2  0  0  0  0  0  0
  162.0710  206.6610  146.8640 C   0  0  0  0  0  2  0  0  0  0  0  0
  163.3090  204.1850  145.1260 O   0  0  0  0  0  0  0  0  0  0  0  0
  160.8960  206.0050  144.7650 O   0  0  0  0  0  1  0  0  0  0  0  0
  161.5080  203.3680  146.3560 O   0  0  0  0  0  1  0  0  0  0  0  0
  162.2340  204.4130  145.7880 C   0  0  0  0  0  0  0  0  0  0  0  0
  161.7540  205.7130  145.7860 N   0  0  0  0  0  0  0  0  0  0  0  0
  158.8310  211.2360  154.5580 C   0  0  0  0  0  2  0  0  0  0  0  0
  158.5030  212.1420  155.7910 C   0  0  2  0  0  3  0  0  0  0  0  0
  159.3340  212.0490  156.9970 N   0  0  0  0  0  2  0  0  0  0  0  0
  160.7000  212.5000  156.7200 C   0  0  0  0  0  2  0  0  0  0  0  0
  161.6730  211.4570  157.2590 C   0  0  0  0  0  2  0  0  0  0  0  0
  161.1820  210.0170  157.2400 C   0  0  0  0  0  2  0  0  0  0  0  0
  161.5670  209.3950  155.9680 N   0  0  0  0  0  2  0  0  0  0  0  0
  160.8900  207.4880  154.6520 C   0  0  0  0  0  1  0  0  0  0  0  0
  161.3090  207.9760  156.0460 C   0  0  0  0  0  3  0  0  0  0  0  0
  160.1660  207.6430  156.9900 C   0  0  0  0  0  1  0  0  0  0  0  0
  157.0190  212.2260  156.1810 C   0  0  0  0  0  2  0  0  0  0  0  0
  155.3480  213.9380  156.5020 O   0  0  0  0  0  1  0  0  0  0  0  0
  156.2520  213.4140  155.5780 C   0  0  2  0  0  3  0  0  0  0  0  0
  155.5000  213.0020  154.3090 C   0  0  0  0  0  1  0  0  0  0  0  0
  1  6  2  0  0  0  0
  2 31  1  0  0  0  0
  3  5  1  0  0  0  0
  4  2  2  0  0  0  0
  5  2  1  0  0  0  0
  6  9  1  0  0  0  0
  6  8  1  0  0  0  0
  7  9  1  0  0  0  0
  8  4  1  0  0  0  0
  9  5  2  0  0  0  0
 10 13  1  0  0  0  0
 10  3  2  0  0  0  0
 11  1  1  0  0  0  0
 11  7  1  0  0  0  0
 12  7  2  0  0  0  0
 12 10  1  0  0  0  0
 14 15  2  0  0  0  0
 15 20  1  0  0  0  0
 15 13  1  0  0  0  0
 17 19  2  0  0  0  0
 17 20  1  0  0  0  0
 18 22  1  0  0  0  0
 18 16  2  0  0  0  0
 19 18  1  0  0  0  0
 20 21  2  0  0  0  0
 21 16  1  0  0  0  0
 23 22  1  0  0  0  0
 24 14  1  0  0  0  0
 25 24  1  0  0  0  0
 26 29  2  0  0  0  0
 27 30  1  0  0  0  0
 29 28  1  0  0  0  0
 30 29  1  0  0  0  0
 30 25  1  0  0  0  0
 32 31  1  6  0  0  0
 32 41  1  0  0  0  0
 32 33  1  0  0  0  0
 34 33  1  0  0  0  0
 34 35  1  0  0  0  0
 36 35  1  0  0  0  0
 37 39  1  0  0  0  0
 37 36  1  0  0  0  0
 38 39  1  0  0  0  0
 39 40  1  0  0  0  0
 43 44  1  6  0  0  0
 43 41  1  0  0  0  0
 43 42  1  0  0  0  0
M  END
>  <MODEL>
4

>  <REMARK>
 VINA RESULT:      -6.1      2.252      5.882
  Name = 
  17 active torsions:
  status: ('A' for Active; 'I' for Inactive)
    1  A    between atoms: C_3  and  C_12
    2  A    between atoms: C_3  and  C_16
    3  A    between atoms: C_5  and  C_6
    4  A    between atoms: C_5  and  C_12
    5  A    between atoms: C_9  and  C_33
    6  A    between atoms: C_9  and  N_40
    7  A    between atoms: C_11  and  O_25
    8  A    between atoms: C_12  and  N_40
    9  A    between atoms: C_17  and  N_32
   10  A    between atoms: C_21  and  C_35
   11  A    between atoms: C_21  and  C_42
   12  A    between atoms: C_22  and  C_41
   13  A    between atoms: C_28  and  C_35
   14  A    between atoms: C_31  and  N_39
   15  A    between atoms: C_31  and  C_41
   16  A    between atoms: N_32  and  C_37
   17  A    between atoms: C_33  and  C_37
                            x       y       z     vdW  Elec       q    Type
                         _______ _______ _______ _____ _____    ______ ____

>  <TORSDO>
F 17

$$$$
=
 OpenBabel11072413243D

 44 47  0  0  1  0  0  0  0  0999 V2000
  160.7100  202.2410  151.2150 N   0  0  0  0  0  0  0  0  0  0  0  0
  161.4300  204.6130  147.9650 C   0  0  0  0  0  0  0  0  0  0  0  0
  161.7670  206.3730  149.8790 C   0  0  0  0  0  3  0  0  0  0  0  0
  161.2290  203.3600  147.7380 N   0  0  0  0  0  0  0  0  0  0  0  0
  161.3950  205.1620  149.3720 C   0  0  0  0  0  0  0  0  0  0  0  0
  160.8250  202.9270  150.0620 C   0  0  0  0  0  0  0  0  0  0  0  0
  161.0690  204.3330  151.6340 C   0  0  0  0  0  0  0  0  0  0  0  0
  160.9050  202.4320  148.7320 N   0  0  0  0  0  2  0  0  0  0  0  0
  161.0480  204.2090  150.3140 C   0  0  0  0  0  0  0  0  0  0  0  0
  161.6430  206.6830  151.2810 C   0  0  0  0  0  0  0  0  0  0  0  0
  160.8580  203.1810  152.2070 N   0  0  0  0  0  2  0  0  0  0  0  0
  161.3640  205.6240  152.1870 C   0  0  0  0  0  3  0  0  0  0  0  0
  162.2750  208.0100  151.7600 C   0  0  0  0  0  2  0  0  0  0  0  0
  162.0040  209.9900  150.5050 C   0  0  0  0  0  3  0  0  0  0  0  0
  161.5580  209.3180  151.6380 C   0  0  0  0  0  0  0  0  0  0  0  0
  160.8140  211.3080  154.8150 C   0  0  0  0  0  3  0  0  0  0  0  0
  159.6330  210.6040  152.3890 C   0  0  0  0  0  3  0  0  0  0  0  0
  159.4890  211.7370  154.5160 C   0  0  0  0  0  0  0  0  0  0  0  0
  158.9340  211.3910  153.2890 C   0  0  0  0  0  3  0  0  0  0  0  0
  160.8870  210.1170  152.6770 C   0  0  0  0  0  0  0  0  0  0  0  0
  161.5190  210.5250  153.9090 C   0  0  0  0  0  3  0  0  0  0  0  0
  158.7240  212.4880  155.3840 O   0  0  0  0  0  0  0  0  0  0  0  0
  158.3330  212.0270  156.6700 C   0  0  0  0  0  1  0  0  0  0  0  0
  161.6780  211.3270  150.0230 C   0  0  0  0  0  2  0  0  0  0  0  0
  162.0780  211.4460  148.5650 C   0  0  0  0  0  2  0  0  0  0  0  0
  162.4100  213.2820  145.8810 O   0  0  0  0  0  0  0  0  0  0  0  0
  161.1780  213.7710  148.6220 O   0  0  0  0  0  1  0  0  0  0  0  0
  160.2290  212.4670  145.9280 O   0  0  0  0  0  1  0  0  0  0  0  0
  161.4390  212.7720  146.5460 C   0  0  0  0  0  0  0  0  0  0  0  0
  161.5960  212.6760  147.9200 N   0  0  0  0  0  0  0  0  0  0  0  0
  161.9240  205.4650  146.8210 C   0  0  0  0  0  2  0  0  0  0  0  0
  161.6630  204.8730  145.3960 C   0  0  2  0  0  3  0  0  0  0  0  0
  162.3930  205.4150  144.2440 N   0  0  0  0  0  2  0  0  0  0  0  0
  161.4620  205.9490  143.2460 C   0  0  0  0  0  2  0  0  0  0  0  0
  162.1610  205.9640  141.8910 C   0  0  0  0  0  2  0  0  0  0  0  0
  161.8180  207.1330  140.9790 C   0  0  0  0  0  2  0  0  0  0  0  0
  162.3240  206.8540  139.6300 N   0  0  0  0  0  2  0  0  0  0  0  0
  162.0470  207.2570  137.2670 C   0  0  0  0  0  1  0  0  0  0  0  0
  161.5080  207.5610  138.6710 C   0  0  0  0  0  3  0  0  0  0  0  0
  161.5750  209.0690  138.8500 C   0  0  0  0  0  1  0  0  0  0  0  0
  160.1890  204.6510  145.0250 C   0  0  0  0  0  2  0  0  0  0  0  0
  158.5270  203.2160  144.0210 O   0  0  0  0  0  1  0  0  0  0  0  0
  159.8830  203.3130  144.3340 C   0  0  2  0  0  3  0  0  0  0  0  0
  160.2850  202.1280  145.2180 C   0  0  0  0  0  1  0  0  0  0  0  0
  1 11  1  0  0  0  0
  2  5  1  0  0  0  0
  3 10  1  0  0  0  0
  4  2  2  0  0  0  0
  4  8  1  0  0  0  0
  5  3  2  0  0  0  0
  5  9  1  0  0  0  0
  6  9  1  0  0  0  0
  6  1  2  0  0  0  0
  7 12  1  0  0  0  0
  7 11  1  0  0  0  0
  8  6  1  0  0  0  0
  9  7  2  0  0  0  0
 10 13  1  0  0  0  0
 10 12  2  0  0  0  0
 14 15  2  0  0  0  0
 15 13  1  0  0  0  0
 15 20  1  0  0  0  0
 17 20  2  0  0  0  0
 17 19  1  0  0  0  0
 18 16  1  0  0  0  0
 18 22  1  0  0  0  0
 19 18  2  0  0  0  0
 20 21  1  0  0  0  0
 21 16  2  0  0  0  0
 22 23  1  0  0  0  0
 24 14  1  0  0  0  0
 25 24  1  0  0  0  0
 26 29  2  0  0  0  0
 28 29  1  0  0  0  0
 29 30  1  0  0  0  0
 30 25  1  0  0  0  0
 30 27  1  0  0  0  0
 31  2  1  0  0  0  0
 32 41  1  6  0  0  0
 32 31  1  0  0  0  0
 33 32  1  0  0  0  0
 34 33  1  0  0  0  0
 35 34  1  0  0  0  0
 36 35  1  0  0  0  0
 37 36  1  0  0  0  0
 38 39  1  0  0  0  0
 39 40  1  0  0  0  0
 39 37  1  0  0  0  0
 42 43  1  0  0  0  0
 43 41  1  0  0  0  0
 43 44  1  1  0  0  0
M  END
>  <MODEL>
5

>  <REMARK>
 VINA RESULT:      -5.8      3.644      9.906
  Name = 
  17 active torsions:
  status: ('A' for Active; 'I' for Inactive)
    1  A    between atoms: C_3  and  C_12
    2  A    between atoms: C_3  and  C_16
    3  A    between atoms: C_5  and  C_6
    4  A    between atoms: C_5  and  C_12
    5  A    between atoms: C_9  and  C_33
    6  A    between atoms: C_9  and  N_40
    7  A    between atoms: C_11  and  O_25
    8  A    between atoms: C_12  and  N_40
    9  A    between atoms: C_17  and  N_32
   10  A    between atoms: C_21  and  C_35
   11  A    between atoms: C_21  and  C_42
   12  A    between atoms: C_22  and  C_41
   13  A    between atoms: C_28  and  C_35
   14  A    between atoms: C_31  and  N_39
   15  A    between atoms: C_31  and  C_41
   16  A    between atoms: N_32  and  C_37
   17  A    between atoms: C_33  and  C_37
                            x       y       z     vdW  Elec       q    Type
                         _______ _______ _______ _____ _____    ______ ____

>  <TORSDO>
F 17

$$$$
=
 OpenBabel11072413243D

 44 47  0  0  1  0  0  0  0  0999 V2000
  161.7650  213.5380  148.0070 N   0  0  0  0  0  0  0  0  0  0  0  0
  161.3720  210.2920  150.4590 C   0  0  0  0  0  0  0  0  0  0  0  0
  159.9130  212.0220  151.7810 C   0  0  0  0  0  3  0  0  0  0  0  0
  162.0230  210.1160  149.3600 N   0  0  0  0  0  0  0  0  0  0  0  0
  160.7910  211.6410  150.8090 C   0  0  0  0  0  0  0  0  0  0  0  0
  161.8010  212.4300  148.7710 C   0  0  0  0  0  0  0  0  0  0  0  0
  160.6440  213.8610  149.8290 C   0  0  0  0  0  0  0  0  0  0  0  0
  162.3020  211.1390  148.4490 N   0  0  0  0  0  2  0  0  0  0  0  0
  161.1130  212.6220  149.8870 C   0  0  0  0  0  0  0  0  0  0  0  0
  159.4880  213.3920  151.9310 C   0  0  0  0  0  0  0  0  0  0  0  0
  161.0230  214.4450  148.7260 N   0  0  0  0  0  2  0  0  0  0  0  0
  159.7950  214.3140  150.8950 C   0  0  0  0  0  3  0  0  0  0  0  0
  158.3500  213.6610  152.9410 C   0  0  0  0  0  2  0  0  0  0  0  0
  157.7210  214.1270  155.1670 C   0  0  0  0  0  3  0  0  0  0  0  0
  158.4480  213.2450  154.3760 C   0  0  0  0  0  0  0  0  0  0  0  0
  161.2030  212.0340  156.7320 C   0  0  0  0  0  3  0  0  0  0  0  0
  159.5670  211.1050  154.6730 C   0  0  0  0  0  3  0  0  0  0  0  0
  161.3230  210.6890  156.2760 C   0  0  0  0  0  0  0  0  0  0  0  0
  160.4790  210.2460  155.2650 C   0  0  0  0  0  3  0  0  0  0  0  0
  159.4740  212.4270  155.0440 C   0  0  0  0  0  0  0  0  0  0  0  0
  160.2830  212.8930  156.1440 C   0  0  0  0  0  3  0  0  0  0  0  0
  162.2380  209.7950  156.7940 O   0  0  0  0  0  0  0  0  0  0  0  0
  161.9980  208.3960  156.8670 C   0  0  0  0  0  1  0  0  0  0  0  0
  157.5950  214.1940  156.6180 C   0  0  0  0  0  2  0  0  0  0  0  0
  156.3410  213.4560  157.0480 C   0  0  0  0  0  2  0  0  0  0  0  0
  154.5210  210.7440  156.9410 O   0  0  0  0  0  1  0  0  0  0  0  0
  157.5090  211.2590  157.2110 O   0  0  0  0  0  1  0  0  0  0  0  0
  155.4660  211.0570  154.8350 O   0  0  0  0  0  0  0  0  0  0  0  0
  155.4190  211.2920  156.2080 C   0  0  0  0  0  0  0  0  0  0  0  0
  156.4180  212.0000  156.8560 N   0  0  0  0  0  0  0  0  0  0  0  0
  161.0140  209.0680  151.2680 C   0  0  0  0  0  2  0  0  0  0  0  0
  161.5940  207.7210  150.7210 C   0  0  2  0  0  3  0  0  0  0  0  0
  160.8330  206.9590  149.7250 N   0  0  0  0  0  2  0  0  0  0  0  0
  161.7220  206.0840  148.9540 C   0  0  0  0  0  2  0  0  0  0  0  0
  161.2260  204.6500  149.0900 C   0  0  0  0  0  2  0  0  0  0  0  0
  161.2310  203.8200  147.8130 C   0  0  0  0  0  2  0  0  0  0  0  0
  162.3000  204.3020  146.9310 N   0  0  0  0  0  2  0  0  0  0  0  0
  160.9570  205.5830  145.3880 C   0  0  0  0  0  1  0  0  0  0  0  0
  161.8110  204.3200  145.5730 C   0  0  0  0  0  3  0  0  0  0  0  0
  160.9130  203.1340  145.2620 C   0  0  0  0  0  1  0  0  0  0  0  0
  162.1770  206.7690  151.7770 C   0  0  0  0  0  2  0  0  0  0  0  0
  161.3130  206.5560  154.0220 O   0  0  0  0  0  1  0  0  0  0  0  0
  161.1440  206.1150  152.7090 C   0  0  2  0  0  3  0  0  0  0  0  0
  161.2500  204.5870  152.6680 C   0  0  0  0  0  1  0  0  0  0  0  0
  1 11  1  0  0  0  0
  1  6  2  0  0  0  0
  2  5  1  0  0  0  0
  2 31  1  0  0  0  0
  3 10  1  0  0  0  0
  4  2  2  0  0  0  0
  5  3  2  0  0  0  0
  6  9  1  0  0  0  0
  7  9  2  0  0  0  0
  7 12  1  0  0  0  0
  8  6  1  0  0  0  0
  8  4  1  0  0  0  0
  9  5  1  0  0  0  0
 10 13  1  0  0  0  0
 11  7  1  0  0  0  0
 12 10  2  0  0  0  0
 13 15  1  0  0  0  0
 14 24  1  0  0  0  0
 15 20  1  0  0  0  0
 15 14  2  0  0  0  0
 17 20  2  0  0  0  0
 17 19  1  0  0  0  0
 18 16  1  0  0  0  0
 18 22  1  0  0  0  0
 19 18  2  0  0  0  0
 20 21  1  0  0  0  0
 21 16  2  0  0  0  0
 22 23  1  0  0  0  0
 24 25  1  0  0  0  0
 28 29  2  0  0  0  0
 29 30  1  0  0  0  0
 29 26  1  0  0  0  0
 30 25  1  0  0  0  0
 30 27  1  0  0  0  0
 32 31  1  1  0  0  0
 32 41  1  0  0  0  0
 33 32  1  0  0  0  0
 34 35  1  0  0  0  0
 34 33  1  0  0  0  0
 36 35  1  0  0  0  0
 37 36  1  0  0  0  0
 38 39  1  0  0  0  0
 39 37  1  0  0  0  0
 40 39  1  0  0  0  0
 41 43  1  0  0  0  0
 43 44  1  1  0  0  0
 43 42  1  0  0  0  0
M  END
>  <MODEL>
6

>  <REMARK>
 VINA RESULT:      -5.5      3.403      9.645
  Name = 
  17 active torsions:
  status: ('A' for Active; 'I' for Inactive)
    1  A    between atoms: C_3  and  C_12
    2  A    between atoms: C_3  and  C_16
    3  A    between atoms: C_5  and  C_6
    4  A    between atoms: C_5  and  C_12
    5  A    between atoms: C_9  and  C_33
    6  A    between atoms: C_9  and  N_40
    7  A    between atoms: C_11  and  O_25
    8  A    between atoms: C_12  and  N_40
    9  A    between atoms: C_17  and  N_32
   10  A    between atoms: C_21  and  C_35
   11  A    between atoms: C_21  and  C_42
   12  A    between atoms: C_22  and  C_41
   13  A    between atoms: C_28  and  C_35
   14  A    between atoms: C_31  and  N_39
   15  A    between atoms: C_31  and  C_41
   16  A    between atoms: N_32  and  C_37
   17  A    between atoms: C_33  and  C_37
                            x       y       z     vdW  Elec       q    Type
                         _______ _______ _______ _____ _____    ______ ____

>  <TORSDO>
F 17

$$$$
=
 OpenBabel11072413243D

 44 47  0  0  1  0  0  0  0  0999 V2000
  160.9310  203.6770  152.3800 N   0  0  0  0  0  0  0  0  0  0  0  0
  161.2760  207.7110  151.8220 C   0  0  0  0  0  0  0  0  0  0  0  0
  161.1780  206.9270  149.3220 C   0  0  0  0  0  3  0  0  0  0  0  0
  161.1660  207.2990  153.0380 N   0  0  0  0  0  0  0  0  0  0  0  0
  161.2780  206.7350  150.6690 C   0  0  0  0  0  0  0  0  0  0  0  0
  161.1470  205.0050  152.3390 C   0  0  0  0  0  0  0  0  0  0  0  0
  161.0870  204.3360  150.3250 C   0  0  0  0  0  0  0  0  0  0  0  0
  161.1070  205.9500  153.4000 N   0  0  0  0  0  2  0  0  0  0  0  0
  161.2400  205.4140  151.0820 C   0  0  0  0  0  0  0  0  0  0  0  0
  161.2020  205.8270  148.3910 C   0  0  0  0  0  0  0  0  0  0  0  0
  160.9120  203.2760  151.0650 N   0  0  0  0  0  2  0  0  0  0  0  0
  161.0760  204.5060  148.9000 C   0  0  0  0  0  3  0  0  0  0  0  0
  160.8890  206.1570  146.9140 C   0  0  0  0  0  2  0  0  0  0  0  0
  161.5500  205.9540  144.6590 C   0  0  0  0  0  3  0  0  0  0  0  0
  161.2430  205.2230  145.8000 C   0  0  0  0  0  0  0  0  0  0  0  0
  159.7090  201.9700  144.5070 C   0  0  0  0  0  3  0  0  0  0  0  0
  161.5820  202.8790  146.3620 C   0  0  0  0  0  3  0  0  0  0  0  0
  160.3950  201.0410  145.3420 C   0  0  0  0  0  0  0  0  0  0  0  0
  161.3410  201.5210  146.2410 C   0  0  0  0  0  3  0  0  0  0  0  0
  160.8860  203.8050  145.6200 C   0  0  0  0  0  0  0  0  0  0  0  0
  159.9560  203.3320  144.6220 C   0  0  0  0  0  3  0  0  0  0  0  0
  160.1730  199.6800  145.3000 O   0  0  0  0  0  0  0  0  0  0  0  0
  161.1830  198.7210  145.5800 C   0  0  0  0  0  1  0  0  0  0  0  0
  161.8570  205.4940  143.3090 C   0  0  0  0  0  2  0  0  0  0  0  0
  161.2130  206.4280  142.3020 C   0  0  0  0  0  2  0  0  0  0  0  0
  161.0510  207.5190  139.2250 O   0  0  0  0  0  0  0  0  0  0  0  0
  163.0720  205.8300  140.7520 O   0  0  0  0  0  1  0  0  0  0  0  0
  162.5130  208.8990  140.4000 O   0  0  0  0  0  1  0  0  0  0  0  0
  161.8110  207.7070  140.2410 C   0  0  0  0  0  0  0  0  0  0  0  0
  162.0150  206.6270  141.0860 N   0  0  0  0  0  0  0  0  0  0  0  0
  161.1730  209.1960  151.5700 C   0  0  0  0  0  2  0  0  0  0  0  0
  160.4850  210.0140  152.7130 C   0  0  2  0  0  3  0  0  0  0  0  0
  159.3850  210.9280  152.3860 N   0  0  0  0  0  2  0  0  0  0  0  0
  159.8950  212.2760  152.1190 C   0  0  0  0  0  2  0  0  0  0  0  0
  158.7530  213.1270  151.5760 C   0  0  0  0  0  2  0  0  0  0  0  0
  159.0150  213.8220  150.2470 C   0  0  0  0  0  2  0  0  0  0  0  0
  160.2650  213.3100  149.6740 N   0  0  0  0  0  2  0  0  0  0  0  0
  158.7410  213.1940  147.8070 C   0  0  0  0  0  1  0  0  0  0  0  0
  160.1980  213.4190  148.2360 C   0  0  0  0  0  3  0  0  0  0  0  0
  161.0310  212.3600  147.5330 C   0  0  0  0  0  1  0  0  0  0  0  0
  161.4350  210.6760  153.7240 C   0  0  0  0  0  2  0  0  0  0  0  0
  160.3720  209.8880  155.7430 O   0  0  0  0  0  1  0  0  0  0  0  0
  161.5880  209.9320  155.0600 C   0  0  2  0  0  3  0  0  0  0  0  0
  162.6440  210.5990  155.9480 C   0  0  0  0  0  1  0  0  0  0  0  0
  2  4  2  0  0  0  0
  3  5  1  0  0  0  0
  4  8  1  0  0  0  0
  5  9  2  0  0  0  0
  5  2  1  0  0  0  0
  6  1  2  0  0  0  0
  6  8  1  0  0  0  0
  7 11  1  0  0  0  0
  7  9  1  0  0  0  0
  9  6  1  0  0  0  0
 10 12  1  0  0  0  0
 10  3  2  0  0  0  0
 11  1  1  0  0  0  0
 12  7  2  0  0  0  0
 13 10  1  0  0  0  0
 14 15  2  0  0  0  0
 15 13  1  0  0  0  0
 16 21  2  0  0  0  0
 16 18  1  0  0  0  0
 18 19  2  0  0  0  0
 19 17  1  0  0  0  0
 20 15  1  0  0  0  0
 20 17  2  0  0  0  0
 21 20  1  0  0  0  0
 22 18  1  0  0  0  0
 22 23  1  0  0  0  0
 24 14  1  0  0  0  0
 25 24  1  0  0  0  0
 26 29  2  0  0  0  0
 27 30  1  0  0  0  0
 29 28  1  0  0  0  0
 29 30  1  0  0  0  0
 30 25  1  0  0  0  0
 31  2  1  0  0  0  0
 32 31  1  6  0  0  0
 32 41  1  0  0  0  0
 33 32  1  0  0  0  0
 34 33  1  0  0  0  0
 35 34  1  0  0  0  0
 36 35  1  0  0  0  0
 37 36  1  0  0  0  0
 38 39  1  0  0  0  0
 39 37  1  0  0  0  0
 40 39  1  0  0  0  0
 41 43  1  0  0  0  0
 43 42  1  0  0  0  0
 43 44  1  1  0  0  0
M  END
>  <MODEL>
7

>  <REMARK>
 VINA RESULT:      -5.3      2.924      5.754
  Name = 
  17 active torsions:
  status: ('A' for Active; 'I' for Inactive)
    1  A    between atoms: C_3  and  C_12
    2  A    between atoms: C_3  and  C_16
    3  A    between atoms: C_5  and  C_6
    4  A    between atoms: C_5  and  C_12
    5  A    between atoms: C_9  and  C_33
    6  A    between atoms: C_9  and  N_40
    7  A    between atoms: C_11  and  O_25
    8  A    between atoms: C_12  and  N_40
    9  A    between atoms: C_17  and  N_32
   10  A    between atoms: C_21  and  C_35
   11  A    between atoms: C_21  and  C_42
   12  A    between atoms: C_22  and  C_41
   13  A    between atoms: C_28  and  C_35
   14  A    between atoms: C_31  and  N_39
   15  A    between atoms: C_31  and  C_41
   16  A    between atoms: N_32  and  C_37
   17  A    between atoms: C_33  and  C_37
                            x       y       z     vdW  Elec       q    Type
                         _______ _______ _______ _____ _____    ______ ____

>  <TORSDO>
F 17

$$$$
=
 OpenBabel11072413243D

 44 47  0  0  1  0  0  0  0  0999 V2000
  161.3620  207.1730  149.0280 N   0  0  0  0  0  0  0  0  0  0  0  0
  161.8960  209.5530  152.3070 C   0  0  0  0  0  0  0  0  0  0  0  0
  161.9860  211.3720  150.4220 C   0  0  0  0  0  3  0  0  0  0  0  0
  161.6670  208.3030  152.5260 N   0  0  0  0  0  0  0  0  0  0  0  0
  161.9630  210.0950  150.8990 C   0  0  0  0  0  0  0  0  0  0  0  0
  161.6270  207.8220  150.1770 C   0  0  0  0  0  0  0  0  0  0  0  0
  161.7180  209.2680  148.6260 C   0  0  0  0  0  0  0  0  0  0  0  0
  161.5290  207.3490  151.5140 N   0  0  0  0  0  2  0  0  0  0  0  0
  161.8430  209.1070  149.9360 C   0  0  0  0  0  0  0  0  0  0  0  0
  162.0520  211.6590  149.0100 C   0  0  0  0  0  0  0  0  0  0  0  0
  161.4420  208.1320  148.0470 N   0  0  0  0  0  2  0  0  0  0  0  0
  161.8360  210.5960  148.0930 C   0  0  0  0  0  3  0  0  0  0  0  0
  161.8790  213.1360  148.5910 C   0  0  0  0  0  2  0  0  0  0  0  0
  159.7340  213.7570  147.8290 C   0  0  0  0  0  3  0  0  0  0  0  0
  161.0420  213.5340  147.4150 C   0  0  0  0  0  0  0  0  0  0  0  0
  162.6070  213.3140  143.9350 C   0  0  0  0  0  3  0  0  0  0  0  0
  160.3040  212.5540  145.3130 C   0  0  0  0  0  3  0  0  0  0  0  0
  161.5630  212.6240  143.2540 C   0  0  0  0  0  0  0  0  0  0  0  0
  160.4370  212.2360  143.9720 C   0  0  0  0  0  3  0  0  0  0  0  0
  161.2640  213.2790  145.9810 C   0  0  0  0  0  0  0  0  0  0  0  0
  162.4780  213.6250  145.2820 C   0  0  0  0  0  3  0  0  0  0  0  0
  161.6130  212.3120  141.9110 O   0  0  0  0  0  0  0  0  0  0  0  0
  162.8060  211.9100  141.2520 C   0  0  0  0  0  1  0  0  0  0  0  0
  158.5460  214.0660  147.0420 C   0  0  0  0  0  2  0  0  0  0  0  0
  157.4100  214.4420  147.9750 C   0  0  0  0  0  2  0  0  0  0  0  0
  158.6090  213.7370  150.9330 O   0  0  0  0  0  0  0  0  0  0  0  0
  156.8180  212.2380  148.9800 O   0  0  0  0  0  1  0  0  0  0  0  0
  156.3980  214.4200  151.1990 O   0  0  0  0  0  1  0  0  0  0  0  0
  157.4500  213.9390  150.4220 C   0  0  0  0  0  0  0  0  0  0  0  0
  157.2540  213.5250  149.1140 N   0  0  0  0  0  0  0  0  0  0  0  0
  161.8670  210.4910  153.4900 C   0  0  0  0  0  2  0  0  0  0  0  0
  160.8770  210.0850  154.6320 C   0  0  2  0  0  3  0  0  0  0  0  0
  159.6380  210.8490  154.8200 N   0  0  0  0  0  2  0  0  0  0  0  0
  159.9260  212.2820  154.9280 C   0  0  0  0  0  2  0  0  0  0  0  0
  159.0600  213.0270  153.9190 C   0  0  0  0  0  2  0  0  0  0  0  0
  157.6670  213.4140  154.3950 C   0  0  0  0  0  2  0  0  0  0  0  0
  156.7020  212.4170  153.9190 N   0  0  0  0  0  2  0  0  0  0  0  0
  156.3540  212.6890  156.2910 C   0  0  0  0  0  1  0  0  0  0  0  0
  155.7830  212.1090  154.9890 C   0  0  0  0  0  3  0  0  0  0  0  0
  155.6230  210.6140  155.2080 C   0  0  0  0  0  1  0  0  0  0  0  0
  161.5190  209.7830  155.9950 C   0  0  0  0  0  2  0  0  0  0  0  0
  162.2240  207.6610  156.9060 O   0  0  0  0  0  1  0  0  0  0  0  0
  161.1040  208.4460  156.6300 C   0  0  2  0  0  3  0  0  0  0  0  0
  160.1510  207.6690  155.7150 C   0  0  0  0  0  1  0  0  0  0  0  0
  1  6  2  0  0  0  0
  2  4  2  0  0  0  0
  2 31  1  0  0  0  0
  3  5  1  0  0  0  0
  5  2  1  0  0  0  0
  6  8  1  0  0  0  0
  7  9  1  0  0  0  0
  8  4  1  0  0  0  0
  9  6  1  0  0  0  0
  9  5  2  0  0  0  0
 10  3  2  0  0  0  0
 11  7  1  0  0  0  0
 11  1  1  0  0  0  0
 12  7  2  0  0  0  0
 12 10  1  0  0  0  0
 13 10  1  0  0  0  0
 15 14  2  0  0  0  0
 15 13  1  0  0  0  0
 16 21  1  0  0  0  0
 17 20  1  0  0  0  0
 18 16  2  0  0  0  0
 18 19  1  0  0  0  0
 19 17  2  0  0  0  0
 20 15  1  0  0  0  0
 21 20  2  0  0  0  0
 22 18  1  0  0  0  0
 23 22  1  0  0  0  0
 24 14  1  0  0  0  0
 24 25  1  0  0  0  0
 25 30  1  0  0  0  0
 27 30  1  0  0  0  0
 29 26  2  0  0  0  0
 29 28  1  0  0  0  0
 30 29  1  0  0  0  0
 32 31  1  6  0  0  0
 32 33  1  0  0  0  0
 32 41  1  0  0  0  0
 33 34  1  0  0  0  0
 35 36  1  0  0  0  0
 35 34  1  0  0  0  0
 37 36  1  0  0  0  0
 37 39  1  0  0  0  0
 39 40  1  0  0  0  0
 39 38  1  0  0  0  0
 41 43  1  0  0  0  0
 43 44  1  6  0  0  0
 43 42  1  0  0  0  0
M  END
>  <MODEL>
8

>  <REMARK>
 VINA RESULT:      -5.0      4.121      7.978
  Name = 
  17 active torsions:
  status: ('A' for Active; 'I' for Inactive)
    1  A    between atoms: C_3  and  C_12
    2  A    between atoms: C_3  and  C_16
    3  A    between atoms: C_5  and  C_6
    4  A    between atoms: C_5  and  C_12
    5  A    between atoms: C_9  and  C_33
    6  A    between atoms: C_9  and  N_40
    7  A    between atoms: C_11  and  O_25
    8  A    between atoms: C_12  and  N_40
    9  A    between atoms: C_17  and  N_32
   10  A    between atoms: C_21  and  C_35
   11  A    between atoms: C_21  and  C_42
   12  A    between atoms: C_22  and  C_41
   13  A    between atoms: C_28  and  C_35
   14  A    between atoms: C_31  and  N_39
   15  A    between atoms: C_31  and  C_41
   16  A    between atoms: N_32  and  C_37
   17  A    between atoms: C_33  and  C_37
                            x       y       z     vdW  Elec       q    Type
                         _______ _______ _______ _____ _____    ______ ____

>  <TORSDO>
F 17

$$$$
=
 OpenBabel11072413243D

 44 47  0  0  1  0  0  0  0  0999 V2000
  155.3040  214.1040  149.0640 N   0  0  0  0  0  0  0  0  0  0  0  0
  159.3690  214.3260  148.7140 C   0  0  0  0  0  0  0  0  0  0  0  0
  159.1520  214.3060  151.3270 C   0  0  0  0  0  3  0  0  0  0  0  0
  158.6970  214.2040  147.6210 N   0  0  0  0  0  0  0  0  0  0  0  0
  158.6720  214.3840  150.0520 C   0  0  0  0  0  0  0  0  0  0  0  0
  156.6140  214.2760  148.8070 C   0  0  0  0  0  0  0  0  0  0  0  0
  156.4030  214.2810  150.9190 C   0  0  0  0  0  0  0  0  0  0  0  0
  157.3000  214.1820  147.5660 N   0  0  0  0  0  2  0  0  0  0  0  0
  157.2920  214.3820  149.9410 C   0  0  0  0  0  0  0  0  0  0  0  0
  158.2850  214.3860  152.4760 C   0  0  0  0  0  0  0  0  0  0  0  0
  155.2010  214.1250  150.4350 N   0  0  0  0  0  2  0  0  0  0  0  0
  156.8810  214.2940  152.2730 C   0  0  0  0  0  3  0  0  0  0  0  0
  158.9230  214.0930  153.8520 C   0  0  0  0  0  2  0  0  0  0  0  0
  159.7240  211.8740  153.8920 C   0  0  0  0  0  3  0  0  0  0  0  0
  158.8280  212.7470  154.4990 C   0  0  0  0  0  0  0  0  0  0  0  0
  156.3030  211.9220  157.2470 C   0  0  0  0  0  3  0  0  0  0  0  0
  156.8720  211.3020  154.5880 C   0  0  0  0  0  3  0  0  0  0  0  0
  155.4880  210.9900  156.5410 C   0  0  0  0  0  0  0  0  0  0  0  0
  155.7810  210.7180  155.2100 C   0  0  0  0  0  3  0  0  0  0  0  0
  157.7170  212.1520  155.2620 C   0  0  0  0  0  0  0  0  0  0  0  0
  157.3920  212.5140  156.6210 C   0  0  0  0  0  3  0  0  0  0  0  0
  154.4120  210.3430  157.1130 O   0  0  0  0  0  0  0  0  0  0  0  0
  153.1330  210.9440  157.2570 C   0  0  0  0  0  1  0  0  0  0  0  0
  159.9270  210.4460  154.1060 C   0  0  0  0  0  2  0  0  0  0  0  0
  161.3290  210.2130  154.6370 C   0  0  0  0  0  2  0  0  0  0  0  0
  159.7050  207.5650  155.6550 O   0  0  0  0  0  1  0  0  0  0  0  0
  162.1950  209.0110  156.6430 O   0  0  0  0  0  1  0  0  0  0  0  0
  161.5680  206.8470  154.4550 O   0  0  0  0  0  0  0  0  0  0  0  0
  160.8650  207.8160  155.1680 C   0  0  0  0  0  0  0  0  0  0  0  0
  161.4420  209.0300  155.5040 N   0  0  0  0  0  0  0  0  0  0  0  0
  160.8700  214.1780  148.6370 C   0  0  0  0  0  2  0  0  0  0  0  0
  161.3860  213.2640  147.4760 C   0  0  2  0  0  3  0  0  0  0  0  0
  161.6500  211.8440  147.7380 N   0  0  0  0  0  2  0  0  0  0  0  0
  161.8030  211.6030  149.1760 C   0  0  0  0  0  2  0  0  0  0  0  0
  162.3350  210.1890  149.3750 C   0  0  0  0  0  2  0  0  0  0  0  0
  161.6110  209.3470  150.4160 C   0  0  0  0  0  2  0  0  0  0  0  0
  162.2700  208.0400  150.5190 N   0  0  0  0  0  2  0  0  0  0  0  0
  161.8870  205.8440  151.4450 C   0  0  0  0  0  1  0  0  0  0  0  0
  161.2590  207.0210  150.6860 C   0  0  0  0  0  3  0  0  0  0  0  0
  160.7610  206.4730  149.3590 C   0  0  0  0  0  1  0  0  0  0  0  0
  162.5080  213.8560  146.6100 C   0  0  0  0  0  2  0  0  0  0  0  0
  161.2690  212.8300  144.8090 O   0  0  0  0  0  1  0  0  0  0  0  0
  162.2970  213.7300  145.0920 C   0  0  2  0  0  3  0  0  0  0  0  0
  163.5790  213.2740  144.3900 C   0  0  0  0  0  1  0  0  0  0  0  0
  1 11  1  0  0  0  0
  2  5  1  0  0  0  0
  3 10  1  0  0  0  0
  4  2  2  0  0  0  0
  5  3  2  0  0  0  0
  6  1  2  0  0  0  0
  6  9  1  0  0  0  0
  7 12  1  0  0  0  0
  8  4  1  0  0  0  0
  8  6  1  0  0  0  0
  9  5  1  0  0  0  0
  9  7  2  0  0  0  0
 10 13  1  0  0  0  0
 11  7  1  0  0  0  0
 12 10  2  0  0  0  0
 13 15  1  0  0  0  0
 14 24  1  0  0  0  0
 14 15  2  0  0  0  0
 15 20  1  0  0  0  0
 17 19  2  0  0  0  0
 17 20  1  0  0  0  0
 18 22  1  0  0  0  0
 18 16  2  0  0  0  0
 19 18  1  0  0  0  0
 20 21  2  0  0  0  0
 21 16  1  0  0  0  0
 22 23  1  0  0  0  0
 24 25  1  0  0  0  0
 25 30  1  0  0  0  0
 28 29  2  0  0  0  0
 29 30  1  0  0  0  0
 29 26  1  0  0  0  0
 30 27  1  0  0  0  0
 31  2  1  0  0  0  0
 32 41  1  1  0  0  0
 32 33  1  0  0  0  0
 32 31  1  0  0  0  0
 33 34  1  0  0  0  0
 34 35  1  0  0  0  0
 35 36  1  0  0  0  0
 36 37  1  0  0  0  0
 37 39  1  0  0  0  0
 39 38  1  0  0  0  0
 40 39  1  0  0  0  0
 42 43  1  0  0  0  0
 43 44  1  6  0  0  0
 43 41  1  0  0  0  0
M  END
>  <MODEL>
9

>  <REMARK>
 VINA RESULT:      -5.0      3.513      9.236
  Name = 
  17 active torsions:
  status: ('A' for Active; 'I' for Inactive)
    1  A    between atoms: C_3  and  C_12
    2  A    between atoms: C_3  and  C_16
    3  A    between atoms: C_5  and  C_6
    4  A    between atoms: C_5  and  C_12
    5  A    between atoms: C_9  and  C_33
    6  A    between atoms: C_9  and  N_40
    7  A    between atoms: C_11  and  O_25
    8  A    between atoms: C_12  and  N_40
    9  A    between atoms: C_17  and  N_32
   10  A    between atoms: C_21  and  C_35
   11  A    between atoms: C_21  and  C_42
   12  A    between atoms: C_22  and  C_41
   13  A    between atoms: C_28  and  C_35
   14  A    between atoms: C_31  and  N_39
   15  A    between atoms: C_31  and  C_41
   16  A    between atoms: N_32  and  C_37
   17  A    between atoms: C_33  and  C_37
                            x       y       z     vdW  Elec       q    Type
                         _______ _______ _______ _____ _____    ______ ____

>  <TORSDO>
F 17

$$$$
