=
 OpenBabel11072414383D

 26 29  0  0  1  0  0  0  0  0999 V2000
  161.1600  204.3710  149.9240 C   0  0  2  0  0  3  0  0  0  0  0  0
  160.5300  205.4520  152.1490 C   0  0  0  0  0  2  0  0  0  0  0  0
  160.9880  208.8810  153.3470 O   0  0  0  0  0  0  0  0  0  0  0  0
  162.6170  206.4860  152.8600 O   0  0  0  0  0  0  0  0  0  0  0  0
  161.3190  208.1480  151.0060 C   0  0  0  0  0  2  0  0  0  0  0  0
  163.0660  206.5220  151.5000 C   0  0  0  0  0  2  0  0  0  0  0  0
  161.1930  206.5790  152.9570 C   0  0  2  0  0  0  0  0  0  0  0  0
  162.4050  206.9530  149.2160 F   0  0  0  0  0  0  0  0  0  0  0  0
  161.9290  206.8240  150.5080 C   0  0  2  0  0  0  0  0  0  0  0  0
  160.7780  206.7120  154.3820 C   0  0  0  0  0  2  0  0  0  0  0  0
  160.7860  208.2320  154.5890 C   0  0  0  0  0  2  0  0  0  0  0  0
  160.7000  207.8990  152.3960 C   0  0  1  0  0  3  0  0  0  0  0  0
  160.8600  205.6910  150.6500 C   0  0  1  0  0  3  0  0  0  0  0  0
  160.9590  204.4810  148.4840 N   0  0  0  0  0  2  0  0  0  0  0  0
  161.4940  203.3720  147.9190 O   0  0  0  0  0  0  0  0  0  0  0  0
  161.1900  205.5230  144.3790 C   0  0  2  0  0  3  0  0  0  0  0  0
  162.1430  205.3110  146.6710 C   0  0  0  0  0  2  0  0  0  0  0  0
  160.9600  203.3540  145.5990 C   0  0  0  0  0  3  0  0  0  0  0  0
  162.4180  205.7880  145.2500 C   0  0  0  0  0  2  0  0  0  0  0  0
  160.6620  204.1180  144.5360 C   0  0  0  0  0  3  0  0  0  0  0  0
  161.4960  205.7680  143.0420 O   0  0  0  0  0  1  0  0  0  0  0  0
  161.9340  203.7960  146.6640 C   0  0  2  0  0  3  0  0  0  0  0  0
  160.3110  203.2450  150.4920 C   0  0  0  0  0  2  0  0  0  0  0  0
  161.1650  202.0880  150.8860 C   0  0  0  0  0  0  0  0  0  0  0  0
  161.9110  202.1670  151.8990 O   0  0  0  0  0  1  0  0  0  0  0  0
  161.1640  200.9350  150.1150 O   0  0  0  0  0  0  0  0  0  0  0  0
  1 23  1  1  0  0  0
  3 11  1  0  0  0  0
  4  7  1  0  0  0  0
  6  4  1  0  0  0  0
  7  2  1  6  0  0  0
  7 10  1  0  0  0  0
  9  8  1  6  0  0  0
  9 13  1  0  0  0  0
  9  5  1  0  0  0  0
  9  6  1  0  0  0  0
 10 11  1  0  0  0  0
 12  5  1  6  0  0  0
 12  7  1  0  0  0  0
 12  3  1  0  0  0  0
 13  1  1  1  0  0  0
 13  2  1  0  0  0  0
 14  1  1  0  0  0  0
 15 14  1  0  0  0  0
 16 21  1  6  0  0  0
 16 20  1  0  0  0  0
 16 19  1  0  0  0  0
 18 22  1  0  0  0  0
 19 17  1  0  0  0  0
 20 18  2  0  0  0  0
 22 17  1  0  0  0  0
 22 15  1  1  0  0  0
 23 24  1  0  0  0  0
 24 25  1  0  0  0  0
 26 24  2  0  0  0  0
M  END
>  <MODEL>
1

>  <REMARK>
 VINA RESULT:      -7.5      0.000      0.000
  Name = 
  6 active torsions:
  status: ('A' for Active; 'I' for Inactive)
    1  A    between atoms: O_2  and  N_16
    2  A    between atoms: O_2  and  C_26
    3  A    between atoms: C_6  and  C_20
    4  A    between atoms: C_8  and  N_16
    5  A    between atoms: C_8  and  C_20
    6  A    between atoms: C_8  and  C_25
                            x       y       z     vdW  Elec       q    Type
                         _______ _______ _______ _____ _____    ______ ____

>  <TORSDO>
F 6

$$$$
=
 OpenBabel11072414383D

 26 29  0  0  1  0  0  0  0  0999 V2000
  161.2130  207.9700  151.4520 C   0  0  2  0  0  3  0  0  0  0  0  0
  161.0190  207.9070  153.9970 C   0  0  0  0  0  2  0  0  0  0  0  0
  159.8940  210.4620  156.3650 O   0  0  0  0  0  0  0  0  0  0  0  0
  162.2360  209.9010  154.6830 O   0  0  0  0  0  0  0  0  0  0  0  0
  159.6300  210.6010  153.9080 C   0  0  0  0  0  2  0  0  0  0  0  0
  162.0090  210.4860  153.3940 C   0  0  0  0  0  2  0  0  0  0  0  0
  161.1850  209.0070  155.0570 C   0  0  2  0  0  0  0  0  0  0  0  0
  160.3900  210.7990  151.6290 F   0  0  0  0  0  0  0  0  0  0  0  0
  160.6230  210.1430  152.8230 C   0  0  2  0  0  0  0  0  0  0  0  0
  161.3670  208.5540  156.4660 C   0  0  0  0  0  2  0  0  0  0  0  0
  160.6000  209.6200  157.2580 C   0  0  0  0  0  2  0  0  0  0  0  0
  159.8640  209.7430  155.1670 C   0  0  1  0  0  3  0  0  0  0  0  0
  160.5370  208.5870  152.6860 C   0  0  1  0  0  3  0  0  0  0  0  0
  161.8250  206.6800  151.7510 N   0  0  0  0  0  2  0  0  0  0  0  0
  160.8530  205.7420  151.6470 O   0  0  0  0  0  0  0  0  0  0  0  0
  160.6970  202.3460  149.2630 C   0  0  2  0  0  3  0  0  0  0  0  0
  160.7760  204.8290  149.4340 C   0  0  0  0  0  2  0  0  0  0  0  0
  161.2310  203.3990  151.4650 C   0  0  0  0  0  3  0  0  0  0  0  0
  161.2260  203.6250  148.6150 C   0  0  0  0  0  2  0  0  0  0  0  0
  160.9600  202.2960  150.7480 C   0  0  0  0  0  3  0  0  0  0  0  0
  161.2630  201.2330  148.6440 O   0  0  0  0  0  1  0  0  0  0  0  0
  161.4030  204.7560  150.8270 C   0  0  2  0  0  3  0  0  0  0  0  0
  162.2470  208.9250  150.8760 C   0  0  0  0  0  2  0  0  0  0  0  0
  162.0330  209.1130  149.4130 C   0  0  0  0  0  0  0  0  0  0  0  0
  162.0930  210.2660  148.9080 O   0  0  0  0  0  1  0  0  0  0  0  0
  161.7340  208.0200  148.6130 O   0  0  0  0  0  0  0  0  0  0  0  0
  1 23  1  1  0  0  0
  1 14  1  0  0  0  0
  3 11  1  0  0  0  0
  4  7  1  0  0  0  0
  6  4  1  0  0  0  0
  7  2  1  6  0  0  0
  7 12  1  0  0  0  0
  7 10  1  0  0  0  0
  9  8  1  6  0  0  0
  9  6  1  0  0  0  0
  9  5  1  0  0  0  0
 10 11  1  0  0  0  0
 12  5  1  6  0  0  0
 12  3  1  0  0  0  0
 13  1  1  6  0  0  0
 13  9  1  0  0  0  0
 13  2  1  0  0  0  0
 15 14  1  0  0  0  0
 16 21  1  6  0  0  0
 16 20  1  0  0  0  0
 17 22  1  0  0  0  0
 19 16  1  0  0  0  0
 19 17  1  0  0  0  0
 20 18  2  0  0  0  0
 22 18  1  0  0  0  0
 22 15  1  1  0  0  0
 24 23  1  0  0  0  0
 25 24  1  0  0  0  0
 26 24  2  0  0  0  0
M  END
>  <MODEL>
2

>  <REMARK>
 VINA RESULT:      -6.9      2.798      4.983
  Name = 
  6 active torsions:
  status: ('A' for Active; 'I' for Inactive)
    1  A    between atoms: O_2  and  N_16
    2  A    between atoms: O_2  and  C_26
    3  A    between atoms: C_6  and  C_20
    4  A    between atoms: C_8  and  N_16
    5  A    between atoms: C_8  and  C_20
    6  A    between atoms: C_8  and  C_25
                            x       y       z     vdW  Elec       q    Type
                         _______ _______ _______ _____ _____    ______ ____

>  <TORSDO>
F 6

$$$$
=
 OpenBabel11072414383D

 26 29  0  0  1  0  0  0  0  0999 V2000
  160.8670  207.8020  152.8810 C   0  0  2  0  0  3  0  0  0  0  0  0
  160.6410  210.1470  153.8640 C   0  0  0  0  0  2  0  0  0  0  0  0
  161.2590  211.3800  157.2560 O   0  0  0  0  0  0  0  0  0  0  0  0
  159.2500  209.7800  155.8280 O   0  0  0  0  0  0  0  0  0  0  0  0
  161.9190  209.1440  156.4250 C   0  0  0  0  0  2  0  0  0  0  0  0
  159.6640  208.4080  155.8680 C   0  0  0  0  0  2  0  0  0  0  0  0
  160.2590  210.6270  155.2730 C   0  0  2  0  0  0  0  0  0  0  0  0
  161.5380  206.9060  155.6130 F   0  0  0  0  0  0  0  0  0  0  0  0
  161.1370  208.2210  155.4690 C   0  0  2  0  0  0  0  0  0  0  0  0
  159.8650  212.0580  155.4070 C   0  0  0  0  0  2  0  0  0  0  0  0
  160.4490  212.4360  156.7740 C   0  0  0  0  0  2  0  0  0  0  0  0
  161.5140  210.6010  156.1240 C   0  0  1  0  0  3  0  0  0  0  0  0
  161.3050  208.7500  154.0070 C   0  0  1  0  0  3  0  0  0  0  0  0
  161.7740  206.6700  152.7350 N   0  0  0  0  0  2  0  0  0  0  0  0
  161.0170  205.5460  152.7350 O   0  0  0  0  0  0  0  0  0  0  0  0
  160.5980  202.8250  149.6270 C   0  0  2  0  0  3  0  0  0  0  0  0
  160.6470  205.1930  150.3940 C   0  0  0  0  0  2  0  0  0  0  0  0
  161.4160  203.3420  151.9300 C   0  0  0  0  0  3  0  0  0  0  0  0
  161.0020  204.2500  149.2510 C   0  0  0  0  0  2  0  0  0  0  0  0
  161.0700  202.4320  151.0050 C   0  0  0  0  0  3  0  0  0  0  0  0
  161.0940  201.9280  148.6830 O   0  0  0  0  0  1  0  0  0  0  0  0
  161.4660  204.8200  151.6310 C   0  0  2  0  0  3  0  0  0  0  0  0
  160.7460  208.5560  151.5660 C   0  0  0  0  0  2  0  0  0  0  0  0
  162.0910  208.7800  150.9620 C   0  0  0  0  0  0  0  0  0  0  0  0
  162.7340  209.8320  151.2230 O   0  0  0  0  0  1  0  0  0  0  0  0
  162.6200  207.8450  150.0850 O   0  0  0  0  0  0  0  0  0  0  0  0
  1 23  1  6  0  0  0
  2 13  1  0  0  0  0
  4  6  1  0  0  0  0
  7  2  1  6  0  0  0
  7 10  1  0  0  0  0
  7  4  1  0  0  0  0
  7 12  1  0  0  0  0
  9  8  1  1  0  0  0
  9  6  1  0  0  0  0
  9  5  1  0  0  0  0
 10 11  1  0  0  0  0
 11  3  1  0  0  0  0
 12  5  1  1  0  0  0
 12  3  1  0  0  0  0
 13  1  1  6  0  0  0
 13  9  1  0  0  0  0
 14 15  1  0  0  0  0
 14  1  1  0  0  0  0
 16 21  1  6  0  0  0
 16 20  1  0  0  0  0
 17 22  1  0  0  0  0
 19 16  1  0  0  0  0
 19 17  1  0  0  0  0
 20 18  2  0  0  0  0
 22 18  1  0  0  0  0
 22 15  1  1  0  0  0
 24 25  1  0  0  0  0
 24 23  1  0  0  0  0
 26 24  2  0  0  0  0
M  END
>  <MODEL>
3

>  <REMARK>
 VINA RESULT:      -6.9      3.162      5.604
  Name = 
  6 active torsions:
  status: ('A' for Active; 'I' for Inactive)
    1  A    between atoms: O_2  and  N_16
    2  A    between atoms: O_2  and  C_26
    3  A    between atoms: C_6  and  C_20
    4  A    between atoms: C_8  and  N_16
    5  A    between atoms: C_8  and  C_20
    6  A    between atoms: C_8  and  C_25
                            x       y       z     vdW  Elec       q    Type
                         _______ _______ _______ _____ _____    ______ ____

>  <TORSDO>
F 6

$$$$
=
 OpenBabel11072414383D

 26 29  0  0  1  0  0  0  0  0999 V2000
  160.7790  205.9770  148.4800 C   0  0  2  0  0  3  0  0  0  0  0  0
  160.5570  205.7780  151.0150 C   0  0  0  0  0  2  0  0  0  0  0  0
  161.2880  208.1920  153.6690 O   0  0  0  0  0  0  0  0  0  0  0  0
  162.7570  206.4570  151.8070 O   0  0  0  0  0  0  0  0  0  0  0  0
  161.2040  208.7310  151.2550 C   0  0  0  0  0  2  0  0  0  0  0  0
  162.9710  207.1880  150.5930 C   0  0  0  0  0  2  0  0  0  0  0  0
  161.3720  206.4000  152.1600 C   0  0  2  0  0  0  0  0  0  0  0  0
  161.9450  208.6460  148.9620 F   0  0  0  0  0  0  0  0  0  0  0  0
  161.6910  207.8670  150.0750 C   0  0  2  0  0  0  0  0  0  0  0  0
  161.2060  205.7860  153.5080 C   0  0  0  0  0  2  0  0  0  0  0  0
  161.2840  207.0030  154.4380 C   0  0  0  0  0  2  0  0  0  0  0  0
  160.8220  207.7900  152.4140 C   0  0  1  0  0  3  0  0  0  0  0  0
  160.6360  206.7450  149.8030 C   0  0  1  0  0  3  0  0  0  0  0  0
  161.6210  204.7960  148.6210 N   0  0  0  0  0  2  0  0  0  0  0  0
  160.7980  203.7230  148.7020 O   0  0  0  0  0  0  0  0  0  0  0  0
  160.8310  200.2030  146.5000 C   0  0  2  0  0  3  0  0  0  0  0  0
  160.5950  202.6820  146.5550 C   0  0  0  0  0  2  0  0  0  0  0  0
  161.4640  201.4410  148.5760 C   0  0  0  0  0  3  0  0  0  0  0  0
  161.1070  201.5000  145.7400 C   0  0  0  0  0  2  0  0  0  0  0  0
  161.2640  200.2740  147.9440 C   0  0  0  0  0  3  0  0  0  0  0  0
  161.4680  199.1380  145.8660 O   0  0  0  0  0  1  0  0  0  0  0  0
  161.3790  202.7700  147.8650 C   0  0  2  0  0  3  0  0  0  0  0  0
  161.3240  206.8880  147.3900 C   0  0  0  0  0  2  0  0  0  0  0  0
  161.2770  206.2080  146.0640 C   0  0  0  0  0  0  0  0  0  0  0  0
  162.3160  205.6800  145.5860 O   0  0  0  0  0  1  0  0  0  0  0  0
  160.0940  206.1880  145.3400 O   0  0  0  0  0  0  0  0  0  0  0  0
  1 23  1  6  0  0  0
  1 14  1  0  0  0  0
  3 11  1  0  0  0  0
  4  7  1  0  0  0  0
  6  4  1  0  0  0  0
  7  2  1  6  0  0  0
  7 12  1  0  0  0  0
  7 10  1  0  0  0  0
  9  8  1  6  0  0  0
  9  6  1  0  0  0  0
  9  5  1  0  0  0  0
 10 11  1  0  0  0  0
 12  5  1  6  0  0  0
 12  3  1  0  0  0  0
 13  1  1  6  0  0  0
 13  9  1  0  0  0  0
 13  2  1  0  0  0  0
 14 15  1  0  0  0  0
 16 21  1  6  0  0  0
 16 20  1  0  0  0  0
 17 22  1  0  0  0  0
 19 16  1  0  0  0  0
 19 17  1  0  0  0  0
 20 18  2  0  0  0  0
 22 18  1  0  0  0  0
 22 15  1  1  0  0  0
 24 23  1  0  0  0  0
 25 24  1  0  0  0  0
 26 24  2  0  0  0  0
M  END
>  <MODEL>
4

>  <REMARK>
 VINA RESULT:      -6.7      1.924      3.653
  Name = 
  6 active torsions:
  status: ('A' for Active; 'I' for Inactive)
    1  A    between atoms: O_2  and  N_16
    2  A    between atoms: O_2  and  C_26
    3  A    between atoms: C_6  and  C_20
    4  A    between atoms: C_8  and  N_16
    5  A    between atoms: C_8  and  C_20
    6  A    between atoms: C_8  and  C_25
                            x       y       z     vdW  Elec       q    Type
                         _______ _______ _______ _____ _____    ______ ____

>  <TORSDO>
F 6

$$$$
=
 OpenBabel11072414383D

 26 29  0  0  1  0  0  0  0  0999 V2000
  161.3590  207.2750  151.8490 C   0  0  2  0  0  3  0  0  0  0  0  0
  160.5330  208.6460  153.8390 C   0  0  0  0  0  2  0  0  0  0  0  0
  160.0200  212.2530  154.2000 O   0  0  0  0  0  0  0  0  0  0  0  0
  162.2560  210.3510  154.0740 O   0  0  0  0  0  0  0  0  0  0  0  0
  160.4540  211.0970  152.0540 C   0  0  0  0  0  2  0  0  0  0  0  0
  162.6180  210.1790  152.6980 C   0  0  0  0  0  2  0  0  0  0  0  0
  160.8720  210.0710  154.3030 C   0  0  2  0  0  0  0  0  0  0  0  0
  161.7650  209.8490  150.4620 F   0  0  0  0  0  0  0  0  0  0  0  0
  161.4020  209.9100  151.7940 C   0  0  2  0  0  0  0  0  0  0  0  0
  160.4960  210.4250  155.7010 C   0  0  0  0  0  2  0  0  0  0  0  0
  160.0690  211.8930  155.5670 C   0  0  0  0  0  2  0  0  0  0  0  0
  159.9920  211.0300  153.5240 C   0  0  1  0  0  3  0  0  0  0  0  0
  160.7170  208.5980  152.2970 C   0  0  1  0  0  3  0  0  0  0  0  0
  160.7770  206.7780  150.6090 N   0  0  0  0  0  2  0  0  0  0  0  0
  161.7140  206.9210  149.6410 O   0  0  0  0  0  0  0  0  0  0  0  0
  162.0750  204.2500  146.4810 C   0  0  2  0  0  3  0  0  0  0  0  0
  161.4300  204.6780  148.8490 C   0  0  0  0  0  2  0  0  0  0  0  0
  161.8950  206.6080  147.2880 C   0  0  0  0  0  3  0  0  0  0  0  0
  161.0940  203.8810  147.5940 C   0  0  0  0  0  2  0  0  0  0  0  0
  162.2320  205.7420  146.3190 C   0  0  0  0  0  3  0  0  0  0  0  0
  161.6600  203.6840  145.2780 O   0  0  0  0  0  1  0  0  0  0  0  0
  161.2300  206.1690  148.5690 C   0  0  2  0  0  3  0  0  0  0  0  0
  161.2420  206.2280  152.9460 C   0  0  0  0  0  2  0  0  0  0  0  0
  161.4950  204.8630  152.4000 C   0  0  0  0  0  0  0  0  0  0  0  0
  162.6280  204.5680  151.9340 O   0  0  0  0  0  0  0  0  0  0  0  0
  160.4710  203.9290  152.3750 O   0  0  0  0  0  1  0  0  0  0  0  0
  1 23  1  1  0  0  0
  3 11  1  0  0  0  0
  4  7  1  0  0  0  0
  6  4  1  0  0  0  0
  7  2  1  6  0  0  0
  7 10  1  0  0  0  0
  9  8  1  6  0  0  0
  9  5  1  0  0  0  0
  9 13  1  0  0  0  0
  9  6  1  0  0  0  0
 11 10  1  0  0  0  0
 12  5  1  6  0  0  0
 12  3  1  0  0  0  0
 12  7  1  0  0  0  0
 13  1  1  1  0  0  0
 13  2  1  0  0  0  0
 14  1  1  0  0  0  0
 15 14  1  0  0  0  0
 16 21  1  6  0  0  0
 16 19  1  0  0  0  0
 18 22  1  0  0  0  0
 19 17  1  0  0  0  0
 20 16  1  0  0  0  0
 20 18  2  0  0  0  0
 22 17  1  0  0  0  0
 22 15  1  1  0  0  0
 24 23  1  0  0  0  0
 25 24  2  0  0  0  0
 26 24  1  0  0  0  0
M  END
>  <MODEL>
5

>  <REMARK>
 VINA RESULT:      -6.7      2.295      3.435
  Name = 
  6 active torsions:
  status: ('A' for Active; 'I' for Inactive)
    1  A    between atoms: O_2  and  N_16
    2  A    between atoms: O_2  and  C_26
    3  A    between atoms: C_6  and  C_20
    4  A    between atoms: C_8  and  N_16
    5  A    between atoms: C_8  and  C_20
    6  A    between atoms: C_8  and  C_25
                            x       y       z     vdW  Elec       q    Type
                         _______ _______ _______ _____ _____    ______ ____

>  <TORSDO>
F 6

$$$$
=
 OpenBabel11072414383D

 26 29  0  0  1  0  0  0  0  0999 V2000
  161.0360  205.3790  150.7810 C   0  0  2  0  0  3  0  0  0  0  0  0
  161.6090  204.2920  148.5430 C   0  0  0  0  0  2  0  0  0  0  0  0
  162.5750  205.7890  145.3440 O   0  0  0  0  0  0  0  0  0  0  0  0
  160.1570  205.4680  146.9810 O   0  0  0  0  0  0  0  0  0  0  0  0
  162.4470  207.0110  147.4920 C   0  0  0  0  0  2  0  0  0  0  0  0
  160.0810  206.5780  147.8840 C   0  0  0  0  0  2  0  0  0  0  0  0
  161.3990  204.7690  147.0970 C   0  0  2  0  0  0  0  0  0  0  0  0
  161.3370  207.9740  149.4040 F   0  0  0  0  0  0  0  0  0  0  0  0
  161.4080  206.8390  148.6180 C   0  0  2  0  0  0  0  0  0  0  0  0
  161.5130  203.7340  146.0300 C   0  0  0  0  0  2  0  0  0  0  0  0
  162.1770  204.5100  144.8860 C   0  0  0  0  0  2  0  0  0  0  0  0
  162.5630  205.6720  146.7370 C   0  0  1  0  0  3  0  0  0  0  0  0
  161.7590  205.5540  149.4360 C   0  0  1  0  0  3  0  0  0  0  0  0
  161.9480  205.5000  151.9120 N   0  0  0  0  0  2  0  0  0  0  0  0
  162.3260  206.7990  151.9860 O   0  0  0  0  0  0  0  0  0  0  0  0
  160.6440  209.1410  154.9740 C   0  0  2  0  0  3  0  0  0  0  0  0
  161.4940  208.9480  152.6410 C   0  0  0  0  0  2  0  0  0  0  0  0
  161.1120  206.8750  154.0320 C   0  0  0  0  0  3  0  0  0  0  0  0
  160.4510  209.6110  153.5320 C   0  0  0  0  0  2  0  0  0  0  0  0
  160.7790  207.6420  155.0820 C   0  0  0  0  0  3  0  0  0  0  0  0
  159.5810  209.5800  155.7610 O   0  0  0  0  0  1  0  0  0  0  0  0
  161.2690  207.4350  152.6390 C   0  0  2  0  0  3  0  0  0  0  0  0
  160.3110  204.0430  150.8260 C   0  0  0  0  0  2  0  0  0  0  0  0
  160.8530  203.1870  151.9200 C   0  0  0  0  0  0  0  0  0  0  0  0
  160.4560  203.3480  153.1050 O   0  0  0  0  0  1  0  0  0  0  0  0
  161.8200  202.2350  151.6360 O   0  0  0  0  0  0  0  0  0  0  0  0
  1 23  1  6  0  0  0
  1 14  1  0  0  0  0
  2 13  1  0  0  0  0
  3 12  1  0  0  0  0
  4  7  1  0  0  0  0
  4  6  1  0  0  0  0
  5  9  1  0  0  0  0
  6  9  1  0  0  0  0
  7 10  1  6  0  0  0
  7  2  1  0  0  0  0
  9  8  1  1  0  0  0
  9 13  1  0  0  0  0
 11  3  1  0  0  0  0
 11 10  1  0  0  0  0
 12  7  1  0  0  0  0
 12  5  1  1  0  0  0
 13  1  1  1  0  0  0
 14 15  1  0  0  0  0
 16 20  1  0  0  0  0
 16 21  1  1  0  0  0
 17 19  1  0  0  0  0
 18 20  2  0  0  0  0
 19 16  1  0  0  0  0
 22 15  1  1  0  0  0
 22 17  1  0  0  0  0
 22 18  1  0  0  0  0
 23 24  1  0  0  0  0
 24 25  1  0  0  0  0
 26 24  2  0  0  0  0
M  END
>  <MODEL>
6

>  <REMARK>
 VINA RESULT:      -6.6      1.722      6.798
  Name = 
  6 active torsions:
  status: ('A' for Active; 'I' for Inactive)
    1  A    between atoms: O_2  and  N_16
    2  A    between atoms: O_2  and  C_26
    3  A    between atoms: C_6  and  C_20
    4  A    between atoms: C_8  and  N_16
    5  A    between atoms: C_8  and  C_20
    6  A    between atoms: C_8  and  C_25
                            x       y       z     vdW  Elec       q    Type
                         _______ _______ _______ _____ _____    ______ ____

>  <TORSDO>
F 6

$$$$
=
 OpenBabel11072414383D

 26 29  0  0  1  0  0  0  0  0999 V2000
  161.0530  204.6920  149.6030 C   0  0  2  0  0  3  0  0  0  0  0  0
  160.4970  205.6290  151.9120 C   0  0  0  0  0  2  0  0  0  0  0  0
  161.1950  208.9060  153.3870 O   0  0  0  0  0  0  0  0  0  0  0  0
  162.6510  206.4500  152.6970 O   0  0  0  0  0  0  0  0  0  0  0  0
  161.4770  208.3470  150.9920 C   0  0  0  0  0  2  0  0  0  0  0  0
  163.1030  206.5660  151.3420 C   0  0  0  0  0  2  0  0  0  0  0  0
  161.2370  206.6350  152.8070 C   0  0  2  0  0  0  0  0  0  0  0  0
  162.4790  207.2300  149.1050 F   0  0  0  0  0  0  0  0  0  0  0  0
  161.9930  207.0290  150.3840 C   0  0  2  0  0  0  0  0  0  0  0  0
  160.8300  206.6800  154.2400 C   0  0  0  0  0  2  0  0  0  0  0  0
  160.9460  208.1730  154.5710 C   0  0  0  0  0  2  0  0  0  0  0  0
  160.8390  208.0280  152.3590 C   0  0  1  0  0  3  0  0  0  0  0  0
  160.8460  205.9670  150.4370 C   0  0  1  0  0  3  0  0  0  0  0  0
  160.8290  204.9270  148.1820 N   0  0  0  0  0  2  0  0  0  0  0  0
  162.0400  204.9000  147.5750 O   0  0  0  0  0  0  0  0  0  0  0  0
  159.9730  202.0470  145.3750 C   0  0  2  0  0  3  0  0  0  0  0  0
  160.7680  204.3960  145.6080 C   0  0  0  0  0  2  0  0  0  0  0  0
  161.6710  202.5910  147.1260 C   0  0  0  0  0  3  0  0  0  0  0  0
  160.4810  203.2740  144.6180 C   0  0  0  0  0  2  0  0  0  0  0  0
  160.8360  201.7020  146.5650 C   0  0  0  0  0  3  0  0  0  0  0  0
  159.8990  200.9560  144.5120 O   0  0  0  0  0  1  0  0  0  0  0  0
  161.8960  203.9670  146.5470 C   0  0  2  0  0  3  0  0  0  0  0  0
  160.1510  203.5750  150.1040 C   0  0  0  0  0  2  0  0  0  0  0  0
  160.9620  202.4360  150.6220 C   0  0  0  0  0  0  0  0  0  0  0  0
  160.7810  201.2740  150.1690 O   0  0  0  0  0  0  0  0  0  0  0  0
  161.8920  202.6520  151.6270 O   0  0  0  0  0  1  0  0  0  0  0  0
  1 23  1  1  0  0  0
  3 11  1  0  0  0  0
  4  7  1  0  0  0  0
  6  4  1  0  0  0  0
  7  2  1  6  0  0  0
  7 10  1  0  0  0  0
  9  8  1  6  0  0  0
  9 13  1  0  0  0  0
  9  5  1  0  0  0  0
  9  6  1  0  0  0  0
 10 11  1  0  0  0  0
 12  5  1  6  0  0  0
 12  7  1  0  0  0  0
 12  3  1  0  0  0  0
 13  1  1  6  0  0  0
 13  2  1  0  0  0  0
 14  1  1  0  0  0  0
 15 14  1  0  0  0  0
 16 21  1  6  0  0  0
 16 20  1  0  0  0  0
 17 22  1  0  0  0  0
 19 16  1  0  0  0  0
 19 17  1  0  0  0  0
 20 18  2  0  0  0  0
 22 18  1  0  0  0  0
 22 15  1  1  0  0  0
 23 24  1  0  0  0  0
 24 26  1  0  0  0  0
 25 24  2  0  0  0  0
M  END
>  <MODEL>
7

>  <REMARK>
 VINA RESULT:      -6.4      1.211      1.813
  Name = 
  6 active torsions:
  status: ('A' for Active; 'I' for Inactive)
    1  A    between atoms: O_2  and  N_16
    2  A    between atoms: O_2  and  C_26
    3  A    between atoms: C_6  and  C_20
    4  A    between atoms: C_8  and  N_16
    5  A    between atoms: C_8  and  C_20
    6  A    between atoms: C_8  and  C_25
                            x       y       z     vdW  Elec       q    Type
                         _______ _______ _______ _____ _____    ______ ____

>  <TORSDO>
F 6

$$$$
=
 OpenBabel11072414383D

 26 29  0  0  1  0  0  0  0  0999 V2000
  160.7840  204.0980  149.6270 C   0  0  2  0  0  3  0  0  0  0  0  0
  160.8310  203.8000  147.0920 C   0  0  0  0  0  2  0  0  0  0  0  0
  162.4040  205.8290  144.4820 O   0  0  0  0  0  0  0  0  0  0  0  0
  160.0830  205.9690  146.2770 O   0  0  0  0  0  0  0  0  0  0  0  0
  162.8160  206.0850  146.9090 C   0  0  0  0  0  2  0  0  0  0  0  0
  160.5050  206.5790  147.5040 C   0  0  0  0  0  2  0  0  0  0  0  0
  160.8750  204.8250  145.9480 C   0  0  2  0  0  0  0  0  0  0  0  0
  162.2390  206.6290  149.1850 F   0  0  0  0  0  0  0  0  0  0  0  0
  161.7990  205.9590  148.0590 C   0  0  2  0  0  0  0  0  0  0  0  0
  160.5210  204.3240  144.5890 C   0  0  0  0  0  2  0  0  0  0  0  0
  161.4770  205.1140  143.6860 C   0  0  0  0  0  2  0  0  0  0  0  0
  162.3240  205.2150  145.7350 C   0  0  1  0  0  3  0  0  0  0  0  0
  161.5240  204.4430  148.3250 C   0  0  1  0  0  3  0  0  0  0  0  0
  160.9170  205.1520  150.6260 N   0  0  0  0  0  2  0  0  0  0  0  0
  161.6990  204.6650  151.6200 O   0  0  0  0  0  0  0  0  0  0  0  0
  160.6630  208.1520  153.6230 C   0  0  2  0  0  3  0  0  0  0  0  0
  161.0770  205.6970  153.6910 C   0  0  0  0  0  2  0  0  0  0  0  0
  161.7450  207.0450  151.6620 C   0  0  0  0  0  3  0  0  0  0  0  0
  161.2060  207.0010  154.4690 C   0  0  0  0  0  2  0  0  0  0  0  0
  161.2050  208.1430  152.2150 C   0  0  0  0  0  3  0  0  0  0  0  0
  160.9560  209.3690  154.2360 O   0  0  0  0  0  1  0  0  0  0  0  0
  161.9520  205.7670  152.4390 C   0  0  2  0  0  3  0  0  0  0  0  0
  161.2790  202.7730  150.1870 C   0  0  0  0  0  2  0  0  0  0  0  0
  160.7130  201.6310  149.4130 C   0  0  0  0  0  0  0  0  0  0  0  0
  159.4680  201.4400  149.3860 O   0  0  0  0  0  1  0  0  0  0  0  0
  161.5630  200.7590  148.7490 O   0  0  0  0  0  0  0  0  0  0  0  0
  1 23  1  1  0  0  0
  1 14  1  0  0  0  0
  2 13  1  0  0  0  0
  3 12  1  0  0  0  0
  4  6  1  0  0  0  0
  5  9  1  0  0  0  0
  6  9  1  0  0  0  0
  7 10  1  6  0  0  0
  7  4  1  0  0  0  0
  7  2  1  0  0  0  0
  9 13  1  0  0  0  0
  9  8  1  1  0  0  0
 11  3  1  0  0  0  0
 11 10  1  0  0  0  0
 12  7  1  0  0  0  0
 12  5  1  1  0  0  0
 13  1  1  1  0  0  0
 14 15  1  0  0  0  0
 16 21  1  1  0  0  0
 16 19  1  0  0  0  0
 17 19  1  0  0  0  0
 18 20  2  0  0  0  0
 18 22  1  0  0  0  0
 20 16  1  0  0  0  0
 22 15  1  6  0  0  0
 22 17  1  0  0  0  0
 24 23  1  0  0  0  0
 25 24  1  0  0  0  0
 26 24  2  0  0  0  0
M  END
>  <MODEL>
8

>  <REMARK>
 VINA RESULT:      -6.1      1.493      6.618
  Name = 
  6 active torsions:
  status: ('A' for Active; 'I' for Inactive)
    1  A    between atoms: O_2  and  N_16
    2  A    between atoms: O_2  and  C_26
    3  A    between atoms: C_6  and  C_20
    4  A    between atoms: C_8  and  N_16
    5  A    between atoms: C_8  and  C_20
    6  A    between atoms: C_8  and  C_25
                            x       y       z     vdW  Elec       q    Type
                         _______ _______ _______ _____ _____    ______ ____

>  <TORSDO>
F 6

$$$$
=
 OpenBabel11072414383D

 26 29  0  0  1  0  0  0  0  0999 V2000
  160.9050  209.6750  151.8300 C   0  0  2  0  0  3  0  0  0  0  0  0
  159.2510  211.2490  152.9720 C   0  0  0  0  0  2  0  0  0  0  0  0
  159.2410  212.6500  156.3540 O   0  0  0  0  0  0  0  0  0  0  0  0
  158.7230  210.0750  155.0390 O   0  0  0  0  0  0  0  0  0  0  0  0
  161.1510  211.4570  155.3270 C   0  0  0  0  0  2  0  0  0  0  0  0
  159.9640  209.3620  154.9530 C   0  0  0  0  0  2  0  0  0  0  0  0
  158.8080  211.3700  154.4390 C   0  0  2  0  0  0  0  0  0  0  0  0
  162.3130  209.5490  154.4220 F   0  0  0  0  0  0  0  0  0  0  0  0
  161.1090  210.2270  154.4000 C   0  0  2  0  0  0  0  0  0  0  0  0
  157.5610  212.1440  154.6980 C   0  0  0  0  0  2  0  0  0  0  0  0
  157.8800  212.8520  156.0210 C   0  0  0  0  0  2  0  0  0  0  0  0
  159.8280  212.2320  155.1570 C   0  0  1  0  0  3  0  0  0  0  0  0
  160.7010  210.6920  152.9630 C   0  0  1  0  0  3  0  0  0  0  0  0
  160.8060  208.3000  152.3050 N   0  0  0  0  0  2  0  0  0  0  0  0
  161.6390  207.5510  151.5430 O   0  0  0  0  0  0  0  0  0  0  0  0
  161.2270  203.6630  150.1440 C   0  0  2  0  0  3  0  0  0  0  0  0
  161.6740  205.2090  152.0450 C   0  0  0  0  0  2  0  0  0  0  0  0
  160.7780  206.1050  149.8600 C   0  0  0  0  0  3  0  0  0  0  0  0
  161.0340  203.8850  151.6440 C   0  0  0  0  0  2  0  0  0  0  0  0
  160.8540  204.8750  149.3250 C   0  0  0  0  0  3  0  0  0  0  0  0
  160.4790  202.5630  149.7280 O   0  0  0  0  0  1  0  0  0  0  0  0
  160.9480  206.3560  151.3380 C   0  0  2  0  0  3  0  0  0  0  0  0
  162.2430  209.9020  151.1440 C   0  0  0  0  0  2  0  0  0  0  0  0
  162.0440  210.3320  149.7300 C   0  0  0  0  0  0  0  0  0  0  0  0
  162.1610  209.4980  148.7930 O   0  0  0  0  0  0  0  0  0  0  0  0
  161.7610  211.6590  149.4450 O   0  0  0  0  0  1  0  0  0  0  0  0
  1 23  1  1  0  0  0
  1 14  1  0  0  0  0
  6  4  1  0  0  0  0
  7  2  1  6  0  0  0
  7 10  1  0  0  0  0
  7  4  1  0  0  0  0
  7 12  1  0  0  0  0
  9  8  1  6  0  0  0
  9  6  1  0  0  0  0
  9  5  1  0  0  0  0
 10 11  1  0  0  0  0
 11  3  1  0  0  0  0
 12  5  1  1  0  0  0
 12  3  1  0  0  0  0
 13  1  1  6  0  0  0
 13  2  1  0  0  0  0
 13  9  1  0  0  0  0
 15 14  1  0  0  0  0
 16 21  1  6  0  0  0
 16 19  1  0  0  0  0
 18 22  1  0  0  0  0
 19 17  1  0  0  0  0
 20 18  2  0  0  0  0
 20 16  1  0  0  0  0
 22 15  1  6  0  0  0
 22 17  1  0  0  0  0
 24 23  1  0  0  0  0
 25 24  2  0  0  0  0
 26 24  1  0  0  0  0
M  END
>  <MODEL>
9

>  <REMARK>
 VINA RESULT:      -6.0      3.398      6.239
  Name = 
  6 active torsions:
  status: ('A' for Active; 'I' for Inactive)
    1  A    between atoms: O_2  and  N_16
    2  A    between atoms: O_2  and  C_26
    3  A    between atoms: C_6  and  C_20
    4  A    between atoms: C_8  and  N_16
    5  A    between atoms: C_8  and  C_20
    6  A    between atoms: C_8  and  C_25
                            x       y       z     vdW  Elec       q    Type
                         _______ _______ _______ _____ _____    ______ ____

>  <TORSDO>
F 6

$$$$
