=
 OpenBabel11072410153D

 37 42  0  0  1  0  0  0  0  0999 V2000
  161.9470  209.3840  150.4170 C   0  0  0  0  0  0  0  0  0  0  0  0
  161.7010  208.9700  149.1460 N   0  0  0  0  0  0  0  0  0  0  0  0
  161.2280  207.7260  148.8750 C   0  0  0  0  0  3  0  0  0  0  0  0
  161.6730  208.5310  151.5060 C   0  0  0  0  0  0  0  0  0  0  0  0
  162.5010  210.6800  150.6280 N   0  0  0  0  0  1  0  0  0  0  0  0
  161.2480  207.2140  151.2310 C   0  0  0  0  0  0  0  0  0  0  0  0
  161.0060  206.8250  149.9120 C   0  0  0  0  0  3  0  0  0  0  0  0
  161.9660  209.1100  153.2000 S   0  0  0  0  0  0  0  0  0  0  0  0
  159.2880  211.9190  154.8020 C   0  0  0  0  0  2  0  0  0  0  0  0
  159.8640  210.5960  152.3130 C   0  0  0  0  0  3  0  0  0  0  0  0
  163.0180  210.6480  156.5710 O   0  0  0  0  0  0  0  0  0  0  0  0
  159.7500  208.1660  155.5930 C   0  0  0  0  0  2  0  0  0  0  0  0
  162.0520  209.8550  156.4330 C   0  0  0  0  0  0  0  0  0  0  0  0
  158.7550  211.5690  152.4100 C   0  0  0  0  0  3  0  0  0  0  0  0
  158.4580  212.1600  153.5700 C   0  0  0  0  0  3  0  0  0  0  0  0
  160.4320  210.0570  153.4010 C   0  0  0  0  0  0  0  0  0  0  0  0
  160.8080  210.2770  155.9200 N   0  0  0  0  0  0  0  0  0  0  0  0
  159.4580  209.6660  155.7370 C   0  0  1  0  0  3  0  0  0  0  0  0
  162.1570  208.3930  156.7480 C   0  0  0  0  0  2  0  0  0  0  0  0
  160.5830  206.6980  157.2600 O   0  0  0  0  0  0  0  0  0  0  0  0
  159.9100  210.5250  154.7560 C   0  0  1  0  0  0  0  0  0  0  0  0
  160.8040  207.6980  156.5990 C   0  0  0  0  0  0  0  0  0  0  0  0
  161.0970  205.9650  152.5060 S   0  0  0  0  0  0  0  0  0  0  0  0
  161.5750  204.6080  151.3930 C   0  0  0  0  0  2  0  0  0  0  0  0
  160.8320  203.4050  151.7290 N   0  0  0  0  0  2  0  0  0  0  0  0
  160.9870  201.3300  150.4910 C   0  0  0  0  0  1  0  0  0  0  0  0
  160.4750  202.7570  150.4800 C   0  0  2  0  0  3  0  0  0  0  0  0
  161.0910  203.5150  149.3170 C   0  0  0  0  0  2  0  0  0  0  0  0
  160.6650  202.9590  148.1090 O   0  0  0  0  0  0  0  0  0  0  0  0
  161.4690  204.6050  145.3010 C   0  0  2  0  0  0  0  0  0  0  0  0
  162.2960  204.4640  147.4690 O   0  0  0  0  0  0  0  0  0  0  0  0
  162.6010  206.4790  146.3430 O   0  0  0  0  0  0  0  0  0  0  0  0
  161.2000  205.1410  143.9520 C   0  0  0  0  0  2  0  0  0  0  0  0
  162.1650  205.2980  146.3810 C   0  0  0  0  0  0  0  0  0  0  0  0
  161.1740  203.2000  145.7730 C   0  0  0  0  0  2  0  0  0  0  0  0
  160.2660  205.2670  144.9970 O   0  0  0  0  0  0  0  0  0  0  0  0
  161.7180  203.1800  147.2200 C   0  0  2  0  0  3  0  0  0  0  0  0
  1  5  1  0  0  0  0
  1  4  1  0  0  0  0
  2  1  2  0  0  0  0
  3  2  1  0  0  0  0
  3  7  2  0  0  0  0
  4  8  1  0  0  0  0
  6  4  2  0  0  0  0
  6 23  1  0  0  0  0
  7  6  1  0  0  0  0
  8 16  1  0  0  0  0
 10 14  1  0  0  0  0
 10 16  2  0  0  0  0
 12 22  1  0  0  0  0
 13 11  2  0  0  0  0
 13 19  1  0  0  0  0
 14 15  2  0  0  0  0
 15  9  1  0  0  0  0
 16 21  1  0  0  0  0
 17 13  1  0  0  0  0
 18 12  1  6  0  0  0
 18 17  1  0  0  0  0
 21  9  1  6  0  0  0
 21 18  1  0  0  0  0
 21 17  1  0  0  0  0
 22 19  1  0  0  0  0
 22 20  2  0  0  0  0
 24 25  1  0  0  0  0
 24 23  1  0  0  0  0
 27 26  1  1  0  0  0
 27 25  1  0  0  0  0
 28 27  1  0  0  0  0
 29 28  1  0  0  0  0
 30 33  1  6  0  0  0
 30 35  1  0  0  0  0
 30 34  1  0  0  0  0
 32 34  2  0  0  0  0
 33 36  1  0  0  0  0
 34 31  1  0  0  0  0
 35 37  1  0  0  0  0
 36 30  1  0  0  0  0
 37 31  1  0  0  0  0
 37 29  1  1  0  0  0
M  END
>  <MODEL>
1

>  <REMARK>
 VINA RESULT:      -7.6      0.000      0.000
  Name = 
  9 active torsions:
  status: ('A' for Active; 'I' for Inactive)
    1  A    between atoms: N_10  and  C_28
    2  A    between atoms: N_10  and  C_30
    3  A    between atoms: C_15  and  O_16
    4  A    between atoms: C_15  and  C_30
    5  A    between atoms: O_16  and  C_34
    6  A    between atoms: C_18  and  S_20
    7  A    between atoms: S_20  and  C_26
    8  A    between atoms: S_22  and  C_28
    9  A    between atoms: S_22  and  C_29
                            x       y       z     vdW  Elec       q    Type
                         _______ _______ _______ _____ _____    ______ ____

>  <TORSDO>
F 9

$$$$
=
 OpenBabel11072410153D

 37 42  0  0  1  0  0  0  0  0999 V2000
  160.4280  207.4410  154.3710 C   0  0  0  0  0  0  0  0  0  0  0  0
  161.0850  206.2520  154.3200 N   0  0  0  0  0  0  0  0  0  0  0  0
  161.9380  205.9460  153.3080 C   0  0  0  0  0  3  0  0  0  0  0  0
  160.6520  208.4180  153.3800 C   0  0  0  0  0  0  0  0  0  0  0  0
  159.5010  207.6740  155.4280 N   0  0  0  0  0  1  0  0  0  0  0  0
  161.4800  208.0820  152.2880 C   0  0  0  0  0  0  0  0  0  0  0  0
  162.1390  206.8510  152.2700 C   0  0  0  0  0  3  0  0  0  0  0  0
  159.8000  210.0160  153.4810 S   0  0  0  0  0  0  0  0  0  0  0  0
  160.8700  211.4990  157.2610 C   0  0  0  0  0  2  0  0  0  0  0  0
  162.0790  210.2910  154.9460 C   0  0  0  0  0  3  0  0  0  0  0  0
  156.8790  210.5040  155.9440 O   0  0  0  0  0  0  0  0  0  0  0  0
  159.4610  213.3250  154.1610 C   0  0  0  0  0  2  0  0  0  0  0  0
  157.5250  211.4510  155.4260 C   0  0  0  0  0  0  0  0  0  0  0  0
  162.9020  210.6700  156.1140 C   0  0  0  0  0  3  0  0  0  0  0  0
  162.3550  211.2650  157.1770 C   0  0  0  0  0  3  0  0  0  0  0  0
  160.8350  210.7600  154.7720 C   0  0  0  0  0  0  0  0  0  0  0  0
  158.8010  211.8280  155.8950 N   0  0  0  0  0  0  0  0  0  0  0  0
  159.7670  212.9300  155.6130 C   0  0  1  0  0  3  0  0  0  0  0  0
  157.0220  212.2180  154.2410 C   0  0  0  0  0  2  0  0  0  0  0  0
  157.4900  214.3590  153.3410 O   0  0  0  0  0  0  0  0  0  0  0  0
  160.2840  211.6750  155.8620 C   0  0  1  0  0  0  0  0  0  0  0  0
  157.9540  213.3800  153.8990 C   0  0  0  0  0  0  0  0  0  0  0  0
  161.6540  209.1380  150.8510 S   0  0  0  0  0  0  0  0  0  0  0  0
  162.2950  207.7970  149.8020 C   0  0  0  0  0  2  0  0  0  0  0  0
  162.0750  208.1140  148.4010 N   0  0  0  0  0  2  0  0  0  0  0  0
  160.6430  206.2540  148.9970 C   0  0  0  0  0  1  0  0  0  0  0  0
  161.1980  207.0900  147.8610 C   0  0  2  0  0  3  0  0  0  0  0  0
  161.9770  206.2050  146.9030 C   0  0  0  0  0  2  0  0  0  0  0  0
  161.1010  205.3570  146.2220 O   0  0  0  0  0  0  0  0  0  0  0  0
  161.2180  202.1570  147.2120 C   0  0  2  0  0  0  0  0  0  0  0  0
  161.0810  203.2920  145.1890 O   0  0  0  0  0  0  0  0  0  0  0  0
  160.0880  201.1890  145.2980 O   0  0  0  0  0  0  0  0  0  0  0  0
  161.1010  201.0660  148.2010 C   0  0  0  0  0  2  0  0  0  0  0  0
  160.7280  202.1300  145.8370 C   0  0  0  0  0  0  0  0  0  0  0  0
  161.9670  203.4540  147.4060 C   0  0  0  0  0  2  0  0  0  0  0  0
  160.1400  202.0900  148.1120 O   0  0  0  0  0  0  0  0  0  0  0  0
  161.8140  204.1710  146.0450 C   0  0  2  0  0  3  0  0  0  0  0  0
  1  5  1  0  0  0  0
  2  1  1  0  0  0  0
  3  2  2  0  0  0  0
  4  8  1  0  0  0  0
  4  1  2  0  0  0  0
  6  4  1  0  0  0  0
  7  6  2  0  0  0  0
  7  3  1  0  0  0  0
  8 16  1  0  0  0  0
 10 14  1  0  0  0  0
 13 17  1  0  0  0  0
 13 11  2  0  0  0  0
 14 15  2  0  0  0  0
 15  9  1  0  0  0  0
 16 10  2  0  0  0  0
 16 21  1  0  0  0  0
 18 12  1  6  0  0  0
 18 21  1  0  0  0  0
 18 17  1  0  0  0  0
 19 13  1  0  0  0  0
 20 22  2  0  0  0  0
 21 17  1  0  0  0  0
 21  9  1  1  0  0  0
 22 12  1  0  0  0  0
 22 19  1  0  0  0  0
 23  6  1  0  0  0  0
 24 23  1  0  0  0  0
 25 24  1  0  0  0  0
 27 25  1  0  0  0  0
 27 26  1  1  0  0  0
 28 27  1  0  0  0  0
 29 28  1  0  0  0  0
 30 35  1  1  0  0  0
 30 36  1  0  0  0  0
 30 33  1  0  0  0  0
 31 34  1  0  0  0  0
 31 37  1  0  0  0  0
 32 34  2  0  0  0  0
 34 30  1  0  0  0  0
 36 33  1  0  0  0  0
 37 29  1  1  0  0  0
 37 35  1  0  0  0  0
M  END
>  <MODEL>
2

>  <REMARK>
 VINA RESULT:      -7.3      2.396      4.579
  Name = 
  9 active torsions:
  status: ('A' for Active; 'I' for Inactive)
    1  A    between atoms: N_10  and  C_28
    2  A    between atoms: N_10  and  C_30
    3  A    between atoms: C_15  and  O_16
    4  A    between atoms: C_15  and  C_30
    5  A    between atoms: O_16  and  C_34
    6  A    between atoms: C_18  and  S_20
    7  A    between atoms: S_20  and  C_26
    8  A    between atoms: S_22  and  C_28
    9  A    between atoms: S_22  and  C_29
                            x       y       z     vdW  Elec       q    Type
                         _______ _______ _______ _____ _____    ______ ____

>  <TORSDO>
F 9

$$$$
=
 OpenBabel11072410153D

 37 42  0  0  1  0  0  0  0  0999 V2000
  161.0480  210.4850  151.6110 C   0  0  0  0  0  0  0  0  0  0  0  0
  161.9130  210.2270  150.5950 N   0  0  0  0  0  0  0  0  0  0  0  0
  162.4230  208.9860  150.3850 C   0  0  0  0  0  3  0  0  0  0  0  0
  160.6200  209.4440  152.4600 C   0  0  0  0  0  0  0  0  0  0  0  0
  160.5970  211.8220  151.8140 N   0  0  0  0  0  1  0  0  0  0  0  0
  161.1980  208.1680  152.2930 C   0  0  0  0  0  0  0  0  0  0  0  0
  162.0840  207.9410  151.2380 C   0  0  0  0  0  3  0  0  0  0  0  0
  159.4320  209.7930  153.7860 S   0  0  0  0  0  0  0  0  0  0  0  0
  160.7710  211.7330  157.2600 C   0  0  0  0  0  2  0  0  0  0  0  0
  161.7940  210.1370  155.0950 C   0  0  0  0  0  3  0  0  0  0  0  0
  156.6710  210.8010  156.2750 O   0  0  0  0  0  0  0  0  0  0  0  0
  159.3030  213.1790  153.9920 C   0  0  0  0  0  2  0  0  0  0  0  0
  157.3380  211.6240  155.5980 C   0  0  0  0  0  0  0  0  0  0  0  0
  162.6950  210.6290  156.1590 C   0  0  0  0  0  3  0  0  0  0  0  0
  162.2350  211.4020  157.1480 C   0  0  0  0  0  3  0  0  0  0  0  0
  160.5690  210.6500  154.9090 C   0  0  0  0  0  0  0  0  0  0  0  0
  158.6550  211.9860  155.9510 N   0  0  0  0  0  0  0  0  0  0  0  0
  159.6620  212.9780  155.4710 C   0  0  1  0  0  3  0  0  0  0  0  0
  156.8170  212.2420  154.3360 C   0  0  0  0  0  2  0  0  0  0  0  0
  157.3500  214.2010  153.1150 O   0  0  0  0  0  0  0  0  0  0  0  0
  160.1240  211.7420  155.8770 C   0  0  1  0  0  0  0  0  0  0  0  0
  157.7900  213.2860  153.7890 C   0  0  0  0  0  0  0  0  0  0  0  0
  160.9210  206.8270  153.4490 S   0  0  0  0  0  0  0  0  0  0  0  0
  161.5460  205.5590  152.3030 C   0  0  0  0  0  2  0  0  0  0  0  0
  160.8810  204.2920  152.5560 N   0  0  0  0  0  2  0  0  0  0  0  0
  161.1690  202.2340  151.3110 C   0  0  0  0  0  1  0  0  0  0  0  0
  160.6550  203.6600  151.2680 C   0  0  2  0  0  3  0  0  0  0  0  0
  161.3820  204.4360  150.1840 C   0  0  0  0  0  2  0  0  0  0  0  0
  160.4720  205.2180  149.4690 O   0  0  0  0  0  0  0  0  0  0  0  0
  161.6620  204.9300  146.3480 C   0  0  2  0  0  0  0  0  0  0  0  0
  160.3880  206.4720  147.5320 O   0  0  0  0  0  0  0  0  0  0  0  0
  159.9940  206.3000  145.2430 O   0  0  0  0  0  0  0  0  0  0  0  0
  162.2320  204.1870  145.2060 C   0  0  0  0  0  2  0  0  0  0  0  0
  160.6110  205.9410  146.2810 C   0  0  0  0  0  0  0  0  0  0  0  0
  162.1430  204.8640  147.7790 C   0  0  0  0  0  2  0  0  0  0  0  0
  161.1560  203.6780  145.9580 O   0  0  0  0  0  0  0  0  0  0  0  0
  161.2430  205.8830  148.5140 C   0  0  2  0  0  3  0  0  0  0  0  0
  1  5  1  0  0  0  0
  1  4  1  0  0  0  0
  2  1  2  0  0  0  0
  3  2  1  0  0  0  0
  3  7  2  0  0  0  0
  4  8  1  0  0  0  0
  6  4  2  0  0  0  0
  6 23  1  0  0  0  0
  7  6  1  0  0  0  0
  8 16  1  0  0  0  0
 10 14  1  0  0  0  0
 13 17  1  0  0  0  0
 13 11  2  0  0  0  0
 14 15  2  0  0  0  0
 15  9  1  0  0  0  0
 16 10  2  0  0  0  0
 16 21  1  0  0  0  0
 18 12  1  6  0  0  0
 18 21  1  0  0  0  0
 18 17  1  0  0  0  0
 19 13  1  0  0  0  0
 20 22  2  0  0  0  0
 21 17  1  0  0  0  0
 21  9  1  1  0  0  0
 22 12  1  0  0  0  0
 22 19  1  0  0  0  0
 24 25  1  0  0  0  0
 24 23  1  0  0  0  0
 27 26  1  1  0  0  0
 27 25  1  0  0  0  0
 28 27  1  0  0  0  0
 29 28  1  0  0  0  0
 30 33  1  6  0  0  0
 30 35  1  0  0  0  0
 31 37  1  0  0  0  0
 32 34  2  0  0  0  0
 33 36  1  0  0  0  0
 34 30  1  0  0  0  0
 34 31  1  0  0  0  0
 35 37  1  0  0  0  0
 36 30  1  0  0  0  0
 37 29  1  1  0  0  0
M  END
>  <MODEL>
3

>  <REMARK>
 VINA RESULT:      -6.7      2.212      3.579
  Name = 
  9 active torsions:
  status: ('A' for Active; 'I' for Inactive)
    1  A    between atoms: N_10  and  C_28
    2  A    between atoms: N_10  and  C_30
    3  A    between atoms: C_15  and  O_16
    4  A    between atoms: C_15  and  C_30
    5  A    between atoms: O_16  and  C_34
    6  A    between atoms: C_18  and  S_20
    7  A    between atoms: S_20  and  C_26
    8  A    between atoms: S_22  and  C_28
    9  A    between atoms: S_22  and  C_29
                            x       y       z     vdW  Elec       q    Type
                         _______ _______ _______ _____ _____    ______ ____

>  <TORSDO>
F 9

$$$$
=
 OpenBabel11072410153D

 37 42  0  0  1  0  0  0  0  0999 V2000
  161.2640  211.7780  156.9580 C   0  0  0  0  0  0  0  0  0  0  0  0
  162.6000  211.5310  156.9490 N   0  0  0  0  0  0  0  0  0  0  0  0
  163.0980  210.2840  156.7500 C   0  0  0  0  0  3  0  0  0  0  0  0
  160.3480  210.7340  156.7160 C   0  0  0  0  0  0  0  0  0  0  0  0
  160.8060  213.0990  157.2340 N   0  0  0  0  0  1  0  0  0  0  0  0
  160.8530  209.4230  156.5790 C   0  0  0  0  0  0  0  0  0  0  0  0
  162.2320  209.2090  156.5740 C   0  0  0  0  0  3  0  0  0  0  0  0
  158.5680  211.0830  156.6910 S   0  0  0  0  0  0  0  0  0  0  0  0
  157.4520  213.1130  153.1900 C   0  0  0  0  0  2  0  0  0  0  0  0
  159.5130  211.3510  154.1520 C   0  0  0  0  0  3  0  0  0  0  0  0
  155.9830  213.8980  157.1750 O   0  0  0  0  0  0  0  0  0  0  0  0
  155.6960  210.2420  155.0880 C   0  0  0  0  0  2  0  0  0  0  0  0
  155.7380  212.8140  156.5850 C   0  0  0  0  0  0  0  0  0  0  0  0
  159.5320  211.8420  152.7570 C   0  0  0  0  0  3  0  0  0  0  0  0
  158.5590  212.6300  152.2920 C   0  0  0  0  0  3  0  0  0  0  0  0
  158.4160  211.4330  154.9180 C   0  0  0  0  0  0  0  0  0  0  0  0
  156.1540  212.5750  155.2590 N   0  0  0  0  0  0  0  0  0  0  0  0
  155.9460  211.5010  154.2450 C   0  0  1  0  0  3  0  0  0  0  0  0
  155.0360  211.6720  157.2550 C   0  0  0  0  0  2  0  0  0  0  0  0
  153.8250  209.7920  156.4740 O   0  0  0  0  0  0  0  0  0  0  0  0
  157.1900  212.0970  154.2990 C   0  0  1  0  0  0  0  0  0  0  0  0
  154.7710  210.5330  156.2720 C   0  0  0  0  0  0  0  0  0  0  0  0
  159.7880  207.9840  156.5070 S   0  0  0  0  0  0  0  0  0  0  0  0
  160.0210  207.7600  154.7170 C   0  0  0  0  0  2  0  0  0  0  0  0
  160.7720  206.5420  154.4630 N   0  0  0  0  0  2  0  0  0  0  0  0
  161.2980  208.1400  152.7210 C   0  0  0  0  0  1  0  0  0  0  0  0
  161.6690  206.8130  153.3530 C   0  0  2  0  0  3  0  0  0  0  0  0
  161.5570  205.7030  152.3230 C   0  0  0  0  0  2  0  0  0  0  0  0
  161.9110  206.1880  151.0630 O   0  0  0  0  0  0  0  0  0  0  0  0
  161.1630  205.6560  147.8380 C   0  0  2  0  0  0  0  0  0  0  0  0
  161.0740  204.4350  149.8140 O   0  0  0  0  0  0  0  0  0  0  0  0
  161.4260  203.2460  147.8430 O   0  0  0  0  0  0  0  0  0  0  0  0
  161.2260  205.9530  146.3930 C   0  0  0  0  0  2  0  0  0  0  0  0
  161.2430  204.3340  148.4510 C   0  0  0  0  0  0  0  0  0  0  0  0
  160.8890  206.6550  148.9390 C   0  0  0  0  0  2  0  0  0  0  0  0
  162.3770  205.9700  147.2020 O   0  0  0  0  0  0  0  0  0  0  0  0
  160.8720  205.7900  150.2200 C   0  0  2  0  0  3  0  0  0  0  0  0
  1  5  1  0  0  0  0
  2  1  1  0  0  0  0
  3  2  2  0  0  0  0
  4  1  2  0  0  0  0
  6  4  1  0  0  0  0
  7  6  2  0  0  0  0
  7  3  1  0  0  0  0
  8  4  1  0  0  0  0
 10 16  2  0  0  0  0
 12 22  1  0  0  0  0
 13 11  2  0  0  0  0
 13 19  1  0  0  0  0
 14 10  1  0  0  0  0
 15 14  2  0  0  0  0
 15  9  1  0  0  0  0
 16  8  1  0  0  0  0
 17 13  1  0  0  0  0
 18 21  1  0  0  0  0
 18 12  1  1  0  0  0
 18 17  1  0  0  0  0
 21  9  1  6  0  0  0
 21 16  1  0  0  0  0
 21 17  1  0  0  0  0
 22 20  2  0  0  0  0
 22 19  1  0  0  0  0
 23  6  1  0  0  0  0
 24 23  1  0  0  0  0
 25 24  1  0  0  0  0
 27 26  1  6  0  0  0
 27 25  1  0  0  0  0
 28 27  1  0  0  0  0
 29 28  1  0  0  0  0
 30 33  1  6  0  0  0
 30 34  1  0  0  0  0
 30 35  1  0  0  0  0
 31 37  1  0  0  0  0
 32 34  2  0  0  0  0
 33 36  1  0  0  0  0
 34 31  1  0  0  0  0
 35 37  1  0  0  0  0
 36 30  1  0  0  0  0
 37 29  1  1  0  0  0
M  END
>  <MODEL>
4

>  <REMARK>
 VINA RESULT:      -6.6      3.138      5.258
  Name = 
  9 active torsions:
  status: ('A' for Active; 'I' for Inactive)
    1  A    between atoms: N_10  and  C_28
    2  A    between atoms: N_10  and  C_30
    3  A    between atoms: C_15  and  O_16
    4  A    between atoms: C_15  and  C_30
    5  A    between atoms: O_16  and  C_34
    6  A    between atoms: C_18  and  S_20
    7  A    between atoms: S_20  and  C_26
    8  A    between atoms: S_22  and  C_28
    9  A    between atoms: S_22  and  C_29
                            x       y       z     vdW  Elec       q    Type
                         _______ _______ _______ _____ _____    ______ ____

>  <TORSDO>
F 9

$$$$
=
 OpenBabel11072410153D

 37 42  0  0  1  0  0  0  0  0999 V2000
  162.0840  213.8550  141.3710 C   0  0  0  0  0  0  0  0  0  0  0  0
  163.2640  214.2520  141.9180 N   0  0  0  0  0  0  0  0  0  0  0  0
  163.5410  214.0710  143.2350 C   0  0  0  0  0  3  0  0  0  0  0  0
  161.1220  213.1970  142.1630 C   0  0  0  0  0  0  0  0  0  0  0  0
  161.8310  214.1310  139.9960 N   0  0  0  0  0  1  0  0  0  0  0  0
  161.3710  213.0670  143.5450 C   0  0  0  0  0  0  0  0  0  0  0  0
  162.5950  213.4870  144.0710 C   0  0  0  0  0  3  0  0  0  0  0  0
  159.5690  212.6340  141.4120 S   0  0  0  0  0  0  0  0  0  0  0  0
  161.0380  210.6690  138.0060 C   0  0  0  0  0  2  0  0  0  0  0  0
  161.3200  210.6210  140.8690 C   0  0  0  0  0  3  0  0  0  0  0  0
  158.9570  214.4520  138.0720 O   0  0  0  0  0  0  0  0  0  0  0  0
  157.4760  210.7680  139.4980 C   0  0  0  0  0  2  0  0  0  0  0  0
  158.3850  213.3820  138.4030 C   0  0  0  0  0  0  0  0  0  0  0  0
  162.0860  209.6840  140.0210 C   0  0  0  0  0  3  0  0  0  0  0  0
  161.9330  209.6740  138.6940 C   0  0  0  0  0  3  0  0  0  0  0  0
  160.2600  211.2960  140.4020 C   0  0  0  0  0  0  0  0  0  0  0  0
  159.0350  212.1330  138.3190 N   0  0  0  0  0  0  0  0  0  0  0  0
  158.6440  210.7040  138.5050 C   0  0  1  0  0  3  0  0  0  0  0  0
  156.9950  213.3490  138.9620 C   0  0  0  0  0  2  0  0  0  0  0  0
  155.3190  211.6810  139.1210 O   0  0  0  0  0  0  0  0  0  0  0  0
  159.9000  211.0850  138.9340 C   0  0  1  0  0  0  0  0  0  0  0  0
  156.5160  211.9120  139.1650 C   0  0  0  0  0  0  0  0  0  0  0  0
  160.1350  212.4690  144.6960 S   0  0  0  0  0  0  0  0  0  0  0  0
  161.1740  212.7860  146.1550 C   0  0  0  0  0  2  0  0  0  0  0  0
  160.8400  211.8490  147.2150 N   0  0  0  0  0  2  0  0  0  0  0  0
  163.0910  212.5550  147.7630 C   0  0  0  0  0  1  0  0  0  0  0  0
  161.7540  212.1000  148.3150 C   0  0  2  0  0  3  0  0  0  0  0  0
  161.9380  210.8300  149.1270 C   0  0  0  0  0  2  0  0  0  0  0  0
  161.5920  209.7200  148.3550 O   0  0  0  0  0  0  0  0  0  0  0  0
  161.3660  206.4480  149.0510 C   0  0  2  0  0  0  0  0  0  0  0  0
  162.8240  207.8260  147.8770 O   0  0  0  0  0  0  0  0  0  0  0  0
  162.6100  205.6280  147.1380 O   0  0  0  0  0  0  0  0  0  0  0  0
  160.6560  205.2270  149.4820 C   0  0  0  0  0  2  0  0  0  0  0  0
  162.3010  206.5530  147.9350 C   0  0  0  0  0  0  0  0  0  0  0  0
  161.3430  207.7840  149.7560 C   0  0  0  0  0  2  0  0  0  0  0  0
  160.0800  206.1380  148.5770 O   0  0  0  0  0  0  0  0  0  0  0  0
  162.3020  208.6570  148.9160 C   0  0  2  0  0  3  0  0  0  0  0  0
  1  2  2  0  0  0  0
  1  4  1  0  0  0  0
  2  3  1  0  0  0  0
  3  7  2  0  0  0  0
  4  6  2  0  0  0  0
  5  1  1  0  0  0  0
  6  7  1  0  0  0  0
  6 23  1  0  0  0  0
  8  4  1  0  0  0  0
  9 15  1  0  0  0  0
 11 13  2  0  0  0  0
 13 19  1  0  0  0  0
 14 10  1  0  0  0  0
 15 14  2  0  0  0  0
 16 10  2  0  0  0  0
 16  8  1  0  0  0  0
 17 13  1  0  0  0  0
 17 18  1  0  0  0  0
 17 21  1  0  0  0  0
 18 21  1  0  0  0  0
 18 12  1  1  0  0  0
 19 22  1  0  0  0  0
 20 22  2  0  0  0  0
 21  9  1  6  0  0  0
 21 16  1  0  0  0  0
 22 12  1  0  0  0  0
 23 24  1  0  0  0  0
 24 25  1  0  0  0  0
 25 27  1  0  0  0  0
 27 26  1  6  0  0  0
 27 28  1  0  0  0  0
 29 28  1  0  0  0  0
 30 33  1  1  0  0  0
 30 35  1  0  0  0  0
 31 34  1  0  0  0  0
 31 37  1  0  0  0  0
 32 34  2  0  0  0  0
 34 30  1  0  0  0  0
 36 30  1  0  0  0  0
 36 33  1  0  0  0  0
 37 29  1  6  0  0  0
 37 35  1  0  0  0  0
M  END
>  <MODEL>
5

>  <REMARK>
 VINA RESULT:      -6.2      7.369     12.245
  Name = 
  9 active torsions:
  status: ('A' for Active; 'I' for Inactive)
    1  A    between atoms: N_10  and  C_28
    2  A    between atoms: N_10  and  C_30
    3  A    between atoms: C_15  and  O_16
    4  A    between atoms: C_15  and  C_30
    5  A    between atoms: O_16  and  C_34
    6  A    between atoms: C_18  and  S_20
    7  A    between atoms: S_20  and  C_26
    8  A    between atoms: S_22  and  C_28
    9  A    between atoms: S_22  and  C_29
                            x       y       z     vdW  Elec       q    Type
                         _______ _______ _______ _____ _____    ______ ____

>  <TORSDO>
F 9

$$$$
=
 OpenBabel11072410153D

 37 42  0  0  1  0  0  0  0  0999 V2000
  162.7980  213.6020  142.5870 C   0  0  0  0  0  0  0  0  0  0  0  0
  163.4880  214.4240  143.4210 N   0  0  0  0  0  0  0  0  0  0  0  0
  163.2620  214.4420  144.7600 C   0  0  0  0  0  3  0  0  0  0  0  0
  161.8440  212.7030  143.1060 C   0  0  0  0  0  0  0  0  0  0  0  0
  163.0400  213.6760  141.1850 N   0  0  0  0  0  1  0  0  0  0  0  0
  161.5520  212.7640  144.4850 C   0  0  0  0  0  0  0  0  0  0  0  0
  162.2820  213.6210  145.3110 C   0  0  0  0  0  3  0  0  0  0  0  0
  160.9590  211.5820  141.9880 S   0  0  0  0  0  0  0  0  0  0  0  0
  157.7080  213.0540  139.7760 C   0  0  0  0  0  2  0  0  0  0  0  0
  159.1580  213.6120  142.1980 C   0  0  0  0  0  3  0  0  0  0  0  0
  159.5540  209.1760  139.3280 O   0  0  0  0  0  0  0  0  0  0  0  0
  161.4690  212.9110  138.9060 C   0  0  0  0  0  2  0  0  0  0  0  0
  160.1760  210.2350  139.0570 C   0  0  0  0  0  0  0  0  0  0  0  0
  158.0100  214.4530  141.7970 C   0  0  0  0  0  3  0  0  0  0  0  0
  157.3550  214.2240  140.6560 C   0  0  0  0  0  3  0  0  0  0  0  0
  159.7640  212.7810  141.3380 C   0  0  0  0  0  0  0  0  0  0  0  0
  159.5610  211.5010  139.1340 N   0  0  0  0  0  0  0  0  0  0  0  0
  159.9390  212.9030  138.7870 C   0  0  1  0  0  3  0  0  0  0  0  0
  161.6280  210.2460  138.6850 C   0  0  0  0  0  2  0  0  0  0  0  0
  163.0230  211.7680  137.5250 O   0  0  0  0  0  0  0  0  0  0  0  0
  159.1870  212.7070  139.9270 C   0  0  1  0  0  0  0  0  0  0  0  0
  162.0880  211.6500  138.2980 C   0  0  0  0  0  0  0  0  0  0  0  0
  160.2000  211.8500  145.2250 S   0  0  0  0  0  0  0  0  0  0  0  0
  160.5370  212.4830  146.8970 C   0  0  0  0  0  2  0  0  0  0  0  0
  160.6860  211.3750  147.8260 N   0  0  0  0  0  2  0  0  0  0  0  0
  162.9930  212.1070  147.9230 C   0  0  0  0  0  1  0  0  0  0  0  0
  161.7710  211.7150  148.7300 C   0  0  2  0  0  3  0  0  0  0  0  0
  162.0970  210.5190  149.6090 C   0  0  0  0  0  2  0  0  0  0  0  0
  161.3670  209.4070  149.1870 O   0  0  0  0  0  0  0  0  0  0  0  0
  161.5160  206.0680  148.9390 C   0  0  2  0  0  0  0  0  0  0  0  0
  162.7200  207.8760  148.1110 O   0  0  0  0  0  0  0  0  0  0  0  0
  162.6420  205.9560  146.7950 O   0  0  0  0  0  0  0  0  0  0  0  0
  160.9690  204.7010  149.0510 C   0  0  0  0  0  2  0  0  0  0  0  0
  162.3260  206.5840  147.8400 C   0  0  0  0  0  0  0  0  0  0  0  0
  161.4360  207.1450  149.9940 C   0  0  0  0  0  2  0  0  0  0  0  0
  160.2250  205.7510  148.4820 O   0  0  0  0  0  0  0  0  0  0  0  0
  162.2240  208.3220  149.3750 C   0  0  2  0  0  3  0  0  0  0  0  0
  1  4  2  0  0  0  0
  1  2  1  0  0  0  0
  2  3  2  0  0  0  0
  3  7  1  0  0  0  0
  4  6  1  0  0  0  0
  5  1  1  0  0  0  0
  6 23  1  0  0  0  0
  6  7  2  0  0  0  0
  8  4  1  0  0  0  0
  9 15  1  0  0  0  0
 13 17  1  0  0  0  0
 13 11  2  0  0  0  0
 14 10  1  0  0  0  0
 15 14  2  0  0  0  0
 16  8  1  0  0  0  0
 16 10  2  0  0  0  0
 17 21  1  0  0  0  0
 18 12  1  1  0  0  0
 18 17  1  0  0  0  0
 18 21  1  0  0  0  0
 19 13  1  0  0  0  0
 20 22  2  0  0  0  0
 21  9  1  6  0  0  0
 21 16  1  0  0  0  0
 22 19  1  0  0  0  0
 22 12  1  0  0  0  0
 23 24  1  0  0  0  0
 24 25  1  0  0  0  0
 25 27  1  0  0  0  0
 27 26  1  6  0  0  0
 27 28  1  0  0  0  0
 29 28  1  0  0  0  0
 30 33  1  1  0  0  0
 30 35  1  0  0  0  0
 31 37  1  0  0  0  0
 32 34  2  0  0  0  0
 34 31  1  0  0  0  0
 34 30  1  0  0  0  0
 36 30  1  0  0  0  0
 36 33  1  0  0  0  0
 37 29  1  6  0  0  0
 37 35  1  0  0  0  0
M  END
>  <MODEL>
6

>  <REMARK>
 VINA RESULT:      -5.0      7.137     11.611
  Name = 
  9 active torsions:
  status: ('A' for Active; 'I' for Inactive)
    1  A    between atoms: N_10  and  C_28
    2  A    between atoms: N_10  and  C_30
    3  A    between atoms: C_15  and  O_16
    4  A    between atoms: C_15  and  C_30
    5  A    between atoms: O_16  and  C_34
    6  A    between atoms: C_18  and  S_20
    7  A    between atoms: S_20  and  C_26
    8  A    between atoms: S_22  and  C_28
    9  A    between atoms: S_22  and  C_29
                            x       y       z     vdW  Elec       q    Type
                         _______ _______ _______ _____ _____    ______ ____

>  <TORSDO>
F 9

$$$$
=
 OpenBabel11072410153D

 37 42  0  0  1  0  0  0  0  0999 V2000
  161.2250  210.2850  151.4850 C   0  0  0  0  0  0  0  0  0  0  0  0
  162.1190  209.9880  150.5050 N   0  0  0  0  0  0  0  0  0  0  0  0
  162.5650  208.7220  150.3010 C   0  0  0  0  0  3  0  0  0  0  0  0
  160.6980  209.2610  152.2990 C   0  0  0  0  0  0  0  0  0  0  0  0
  160.8440  211.6430  151.6860 N   0  0  0  0  0  1  0  0  0  0  0  0
  161.2080  207.9550  152.1400 C   0  0  0  0  0  0  0  0  0  0  0  0
  162.1260  207.6880  151.1230 C   0  0  0  0  0  3  0  0  0  0  0  0
  159.4740  209.6640  153.5750 S   0  0  0  0  0  0  0  0  0  0  0  0
  160.7930  211.3890  157.1690 C   0  0  0  0  0  2  0  0  0  0  0  0
  161.8280  209.9220  154.9200 C   0  0  0  0  0  3  0  0  0  0  0  0
  156.6980  210.5310  156.1000 O   0  0  0  0  0  0  0  0  0  0  0  0
  159.3530  213.0330  153.9820 C   0  0  0  0  0  2  0  0  0  0  0  0
  157.3720  211.3900  155.4780 C   0  0  0  0  0  0  0  0  0  0  0  0
  162.7220  210.3470  156.0180 C   0  0  0  0  0  3  0  0  0  0  0  0
  162.2570  211.0600  157.0470 C   0  0  0  0  0  3  0  0  0  0  0  0
  160.6060  210.4490  154.7560 C   0  0  0  0  0  0  0  0  0  0  0  0
  158.6870  211.7270  155.8620 N   0  0  0  0  0  0  0  0  0  0  0  0
  159.7010  212.7420  155.4490 C   0  0  1  0  0  3  0  0  0  0  0  0
  156.8620  212.0850  154.2520 C   0  0  0  0  0  2  0  0  0  0  0  0
  157.4100  214.1110  153.1540 O   0  0  0  0  0  0  0  0  0  0  0  0
  160.1560  211.4830  155.7840 C   0  0  1  0  0  0  0  0  0  0  0  0
  157.8420  213.1560  153.7760 C   0  0  0  0  0  0  0  0  0  0  0  0
  160.8020  206.6200  153.2640 S   0  0  0  0  0  0  0  0  0  0  0  0
  162.0650  205.5050  152.5760 C   0  0  0  0  0  2  0  0  0  0  0  0
  161.7080  205.1270  151.2200 N   0  0  0  0  0  2  0  0  0  0  0  0
  161.2130  203.0220  152.3120 C   0  0  0  0  0  1  0  0  0  0  0  0
  160.7300  204.0570  151.3150 C   0  0  2  0  0  3  0  0  0  0  0  0
  160.5440  203.4120  149.9530 C   0  0  0  0  0  2  0  0  0  0  0  0
  161.3090  202.2460  149.8720 O   0  0  0  0  0  0  0  0  0  0  0  0
  160.4640  201.3580  146.7510 C   0  0  2  0  0  0  0  0  0  0  0  0
  161.3360  200.3000  148.6280 O   0  0  0  0  0  0  0  0  0  0  0  0
  161.9510  199.4540  146.5480 O   0  0  0  0  0  0  0  0  0  0  0  0
  160.1380  201.6240  145.3360 C   0  0  0  0  0  2  0  0  0  0  0  0
  161.3210  200.2870  147.2520 C   0  0  0  0  0  0  0  0  0  0  0  0
  159.8800  202.0730  147.9470 C   0  0  0  0  0  2  0  0  0  0  0  0
  161.2170  202.2590  145.9780 O   0  0  0  0  0  0  0  0  0  0  0  0
  160.5180  201.3480  149.1540 C   0  0  2  0  0  3  0  0  0  0  0  0
  1  5  1  0  0  0  0
  1  4  1  0  0  0  0
  2  1  2  0  0  0  0
  3  2  1  0  0  0  0
  3  7  2  0  0  0  0
  4  8  1  0  0  0  0
  6  4  2  0  0  0  0
  6 23  1  0  0  0  0
  7  6  1  0  0  0  0
  8 16  1  0  0  0  0
 10 14  1  0  0  0  0
 13 17  1  0  0  0  0
 13 11  2  0  0  0  0
 14 15  2  0  0  0  0
 15  9  1  0  0  0  0
 16 10  2  0  0  0  0
 16 21  1  0  0  0  0
 18 12  1  6  0  0  0
 18 21  1  0  0  0  0
 18 17  1  0  0  0  0
 19 13  1  0  0  0  0
 20 22  2  0  0  0  0
 21 17  1  0  0  0  0
 21  9  1  1  0  0  0
 22 12  1  0  0  0  0
 22 19  1  0  0  0  0
 24 23  1  0  0  0  0
 25 27  1  0  0  0  0
 25 24  1  0  0  0  0
 27 26  1  1  0  0  0
 28 27  1  0  0  0  0
 29 28  1  0  0  0  0
 30 33  1  6  0  0  0
 30 34  1  0  0  0  0
 30 35  1  0  0  0  0
 31 37  1  0  0  0  0
 32 34  2  0  0  0  0
 33 36  1  0  0  0  0
 34 31  1  0  0  0  0
 35 37  1  0  0  0  0
 36 30  1  0  0  0  0
 37 29  1  6  0  0  0
M  END
>  <MODEL>
7

>  <REMARK>
 VINA RESULT:      -4.7      2.554      3.916
  Name = 
  9 active torsions:
  status: ('A' for Active; 'I' for Inactive)
    1  A    between atoms: N_10  and  C_28
    2  A    between atoms: N_10  and  C_30
    3  A    between atoms: C_15  and  O_16
    4  A    between atoms: C_15  and  C_30
    5  A    between atoms: O_16  and  C_34
    6  A    between atoms: C_18  and  S_20
    7  A    between atoms: S_20  and  C_26
    8  A    between atoms: S_22  and  C_28
    9  A    between atoms: S_22  and  C_29
                            x       y       z     vdW  Elec       q    Type
                         _______ _______ _______ _____ _____    ______ ____

>  <TORSDO>
F 9

$$$$
=
 OpenBabel11072410153D

 37 42  0  0  1  0  0  0  0  0999 V2000
  162.3310  207.2380  151.7010 C   0  0  0  0  0  0  0  0  0  0  0  0
  161.9560  208.0270  152.7430 N   0  0  0  0  0  0  0  0  0  0  0  0
  161.4650  209.2790  152.5550 C   0  0  0  0  0  3  0  0  0  0  0  0
  162.1780  207.6940  150.3760 C   0  0  0  0  0  0  0  0  0  0  0  0
  162.8960  205.9580  151.9710 N   0  0  0  0  0  1  0  0  0  0  0  0
  161.7350  209.0180  150.1740 C   0  0  0  0  0  0  0  0  0  0  0  0
  161.3590  209.7980  151.2690 C   0  0  0  0  0  3  0  0  0  0  0  0
  162.6430  206.6170  148.9930 S   0  0  0  0  0  0  0  0  0  0  0  0
  161.1110  202.7080  148.9690 C   0  0  0  0  0  2  0  0  0  0  0  0
  161.1630  205.0430  150.6500 C   0  0  0  0  0  3  0  0  0  0  0  0
  164.2060  204.2540  146.3840 O   0  0  0  0  0  0  0  0  0  0  0  0
  160.2730  205.7400  146.7260 C   0  0  0  0  0  2  0  0  0  0  0  0
  163.0250  204.6820  146.3230 C   0  0  0  0  0  0  0  0  0  0  0  0
  160.4560  203.8190  151.0820 C   0  0  0  0  0  3  0  0  0  0  0  0
  160.3950  202.7430  150.2920 C   0  0  0  0  0  3  0  0  0  0  0  0
  161.5280  205.2380  149.3750 C   0  0  0  0  0  0  0  0  0  0  0  0
  161.9930  204.1360  147.1140 N   0  0  0  0  0  0  0  0  0  0  0  0
  160.5130  204.3060  147.2160 C   0  0  1  0  0  3  0  0  0  0  0  0
  162.6280  205.8360  145.4530 C   0  0  0  0  0  2  0  0  0  0  0  0
  160.5770  206.5760  144.5270 O   0  0  0  0  0  0  0  0  0  0  0  0
  161.2180  204.1160  148.3880 C   0  0  1  0  0  0  0  0  0  0  0  0
  161.1180  206.0620  145.4910 C   0  0  0  0  0  0  0  0  0  0  0  0
  161.7250  209.7940  148.5590 S   0  0  0  0  0  0  0  0  0  0  0  0
  161.9560  211.4670  149.2360 C   0  0  0  0  0  2  0  0  0  0  0  0
  162.7010  212.2850  148.2930 N   0  0  0  0  0  2  0  0  0  0  0  0
  160.8400  213.5940  149.1240 C   0  0  0  0  0  1  0  0  0  0  0  0
  161.9340  213.5000  148.0790 C   0  0  2  0  0  3  0  0  0  0  0  0
  161.3190  213.4780  146.6900 C   0  0  0  0  0  2  0  0  0  0  0  0
  162.2330  212.9540  145.7750 O   0  0  0  0  0  0  0  0  0  0  0  0
  162.0610  213.1750  142.4340 C   0  0  2  0  0  0  0  0  0  0  0  0
  160.9290  214.0920  144.2460 O   0  0  0  0  0  0  0  0  0  0  0  0
  159.7230  213.7980  142.2750 O   0  0  0  0  0  0  0  0  0  0  0  0
  162.3350  212.7200  141.0560 C   0  0  0  0  0  2  0  0  0  0  0  0
  160.7930  213.6990  142.9330 C   0  0  0  0  0  0  0  0  0  0  0  0
  163.0740  213.2900  143.5490 C   0  0  0  0  0  2  0  0  0  0  0  0
  161.9150  211.8280  142.0600 O   0  0  0  0  0  0  0  0  0  0  0  0
  162.2580  213.8730  144.7250 C   0  0  2  0  0  3  0  0  0  0  0  0
  1  5  1  0  0  0  0
  1  2  1  0  0  0  0
  3  2  2  0  0  0  0
  4  1  2  0  0  0  0
  6  4  1  0  0  0  0
  6  7  2  0  0  0  0
  7  3  1  0  0  0  0
  8 16  1  0  0  0  0
  8  4  1  0  0  0  0
  9 15  1  0  0  0  0
 10 14  1  0  0  0  0
 13 11  2  0  0  0  0
 13 17  1  0  0  0  0
 15 14  2  0  0  0  0
 16 10  2  0  0  0  0
 17 18  1  0  0  0  0
 17 21  1  0  0  0  0
 18 12  1  1  0  0  0
 18 21  1  0  0  0  0
 19 22  1  0  0  0  0
 19 13  1  0  0  0  0
 20 22  2  0  0  0  0
 21  9  1  1  0  0  0
 21 16  1  0  0  0  0
 22 12  1  0  0  0  0
 23 24  1  0  0  0  0
 23  6  1  0  0  0  0
 25 24  1  0  0  0  0
 27 25  1  0  0  0  0
 27 26  1  1  0  0  0
 28 27  1  0  0  0  0
 29 28  1  0  0  0  0
 30 33  1  6  0  0  0
 30 34  1  0  0  0  0
 30 35  1  0  0  0  0
 31 37  1  0  0  0  0
 32 34  2  0  0  0  0
 33 36  1  0  0  0  0
 34 31  1  0  0  0  0
 35 37  1  0  0  0  0
 36 30  1  0  0  0  0
 37 29  1  1  0  0  0
M  END
>  <MODEL>
8

>  <REMARK>
 VINA RESULT:      -4.7      4.521      8.889
  Name = 
  9 active torsions:
  status: ('A' for Active; 'I' for Inactive)
    1  A    between atoms: N_10  and  C_28
    2  A    between atoms: N_10  and  C_30
    3  A    between atoms: C_15  and  O_16
    4  A    between atoms: C_15  and  C_30
    5  A    between atoms: O_16  and  C_34
    6  A    between atoms: C_18  and  S_20
    7  A    between atoms: S_20  and  C_26
    8  A    between atoms: S_22  and  C_28
    9  A    between atoms: S_22  and  C_29
                            x       y       z     vdW  Elec       q    Type
                         _______ _______ _______ _____ _____    ______ ____

>  <TORSDO>
F 9

$$$$
