=
 OpenBabel11072412153D

 38 42  0  0  1  0  0  0  0  0999 V2000
  162.0350  209.4720  148.7480 N   0  0  0  0  0  0  0  0  0  0  0  0
  161.0310  208.1650  153.3830 C   0  0  0  0  0  0  0  0  0  0  0  0
  160.9030  210.4100  152.7500 F   0  0  0  0  0  0  0  0  0  0  0  0
  161.5610  206.4440  151.6820 N   0  0  0  0  0  0  0  0  0  0  0  0
  162.3340  208.1130  148.4140 C   0  0  0  0  0  3  0  0  0  0  0  0
  161.4350  206.7390  153.1090 C   0  0  0  0  0  3  0  0  0  0  0  0
  161.9350  209.9180  150.1360 C   0  0  0  0  0  2  0  0  0  0  0  0
  161.8180  207.4980  150.7250 C   0  0  0  0  0  0  0  0  0  0  0  0
  162.2440  207.1690  149.3460 C   0  0  0  0  0  3  0  0  0  0  0  0
  161.1750  209.1140  152.4470 C   0  0  0  0  0  0  0  0  0  0  0  0
  161.6260  208.7820  151.0830 C   0  0  0  0  0  0  0  0  0  0  0  0
  161.5940  205.0270  151.3210 C   0  0  1  0  0  3  0  0  0  0  0  0
  161.0370  204.2530  152.3400 O   0  0  0  0  0  1  0  0  0  0  0  0
  160.8670  204.7790  150.0090 C   0  0  0  0  0  2  0  0  0  0  0  0
  160.2220  203.4070  150.0350 C   0  0  0  0  0  2  0  0  0  0  0  0
  161.6610  204.5220  145.6490 S   0  0  1  0  0  0  0  0  0  0  0  0
  161.6940  203.2210  147.9630 C   0  0  2  0  0  3  0  0  0  0  0  0
  160.8290  202.5050  148.9710 C   0  0  2  0  0  0  0  0  0  0  0  0
  161.5520  204.6390  147.4670 C   0  0  0  0  0  2  0  0  0  0  0  0
  160.7170  201.9290  146.3240 C   0  0  0  0  0  2  0  0  0  0  0  0
  163.1310  204.1950  145.4090 O   0  0  0  0  0  0  0  0  0  0  0  0
  160.3120  202.6900  147.5640 C   0  0  2  0  0  3  0  0  0  0  0  0
  160.7990  202.9610  145.1780 C   0  0  0  0  0  2  0  0  0  0  0  0
  161.7030  200.3400  148.4530 O   0  0  0  0  0  0  0  0  0  0  0  0
  161.3160  200.7430  150.6740 O   0  0  0  0  0  1  0  0  0  0  0  0
  161.2950  201.1340  149.3420 C   0  0  0  0  0  0  0  0  0  0  0  0
  160.6140  208.5530  154.7760 C   0  0  2  0  0  3  0  0  0  0  0  0
  163.6370  211.1140  157.2600 C   0  0  0  0  0  1  0  0  0  0  0  0
  162.5310  209.7560  155.7770 N   0  0  0  0  0  2  0  0  0  0  0  0
  161.3030  211.1430  157.1570 C   0  0  0  0  0  2  0  0  0  0  0  0
  162.4670  210.2720  157.0860 N   0  0  0  0  0  0  0  0  0  0  0  0
  161.2120  209.9080  155.1630 C   0  0  2  0  0  3  0  0  0  0  0  0
  160.3290  210.6280  156.1430 C   0  0  2  0  0  3  0  0  0  0  0  0
  159.9790  212.9430  155.6090 O   0  0  0  0  0  1  0  0  0  0  0  0
  159.5910  211.7510  155.4840 C   0  0  0  0  0  0  0  0  0  0  0  0
  158.4560  211.4740  154.7310 O   0  0  0  0  0  0  0  0  0  0  0  0
  160.9560  207.5650  155.7080 O   0  0  0  0  0  0  0  0  0  0  0  0
  159.7530  207.2310  156.3340 C   0  0  0  0  0  1  0  0  0  0  0  0
  1  7  1  0  0  0  0
  2 27  1  0  0  0  0
  4  6  1  0  0  0  0
  5  1  2  0  0  0  0
  5  9  1  0  0  0  0
  6  2  2  0  0  0  0
  7 11  1  0  0  0  0
  8 11  1  0  0  0  0
  8  4  1  0  0  0  0
  9  8  2  0  0  0  0
 10  3  1  0  0  0  0
 10  2  1  0  0  0  0
 11 10  2  0  0  0  0
 12  4  1  0  0  0  0
 12 13  1  1  0  0  0
 14 15  1  0  0  0  0
 14 12  1  0  0  0  0
 16 21  2  1  0  0  0
 16 19  1  0  0  0  0
 17 19  1  1  0  0  0
 17 18  1  0  0  0  0
 18 26  1  0  0  0  0
 18 15  1  1  0  0  0
 22 20  1  6  0  0  0
 22 17  1  0  0  0  0
 22 18  1  0  0  0  0
 23 16  1  0  0  0  0
 23 20  1  0  0  0  0
 24 26  2  0  0  0  0
 26 25  1  0  0  0  0
 27 37  1  1  0  0  0
 29 31  1  0  0  0  0
 31 30  1  0  0  0  0
 31 28  1  0  0  0  0
 32 27  1  1  0  0  0
 32 29  1  0  0  0  0
 32 33  1  0  0  0  0
 33 35  1  6  0  0  0
 33 30  1  0  0  0  0
 35 34  1  0  0  0  0
 36 35  2  0  0  0  0
 37 38  1  0  0  0  0
M  END
>  <MODEL>
1

>  <REMARK>
 VINA RESULT:      -8.6      0.000      0.000
  Name = 
  9 active torsions:
  status: ('A' for Active; 'I' for Inactive)
    1  A    between atoms: C_3  and  C_16
    2  A    between atoms: C_3  and  C_17
    3  A    between atoms: C_4  and  C_36
    4  A    between atoms: O_5  and  C_26
    5  A    between atoms: C_8  and  C_26
    6  A    between atoms: N_11  and  C_16
    7  A    between atoms: C_17  and  C_23
    8  A    between atoms: C_22  and  C_26
    9  A    between atoms: C_23  and  C_32
                            x       y       z     vdW  Elec       q    Type
                         _______ _______ _______ _____ _____    ______ ____

>  <TORSDO>
F 9

$$$$
=
 OpenBabel11072412153D

 38 42  0  0  1  0  0  0  0  0999 V2000
  160.8860  209.6040  153.8350 N   0  0  0  0  0  0  0  0  0  0  0  0
  161.5300  211.3090  149.2660 C   0  0  0  0  0  0  0  0  0  0  0  0
  160.9510  212.7770  150.9880 F   0  0  0  0  0  0  0  0  0  0  0  0
  161.9280  208.9190  149.7800 N   0  0  0  0  0  0  0  0  0  0  0  0
  161.1480  208.2690  153.3900 C   0  0  0  0  0  3  0  0  0  0  0  0
  161.7110  209.9120  148.7290 C   0  0  0  0  0  3  0  0  0  0  0  0
  160.5960  210.6850  152.8950 C   0  0  0  0  0  3  0  0  0  0  0  0
  161.4710  209.1540  151.1310 C   0  0  1  0  0  3  0  0  0  0  0  0
  161.4170  208.0420  152.1070 C   0  0  0  0  0  3  0  0  0  0  0  0
  161.2100  211.5170  150.5510 C   0  0  0  0  0  0  0  0  0  0  0  0
  161.1320  210.4010  151.5110 C   0  0  0  0  0  0  0  0  0  0  0  0
  162.4610  207.6290  149.3410 C   0  0  1  0  0  3  0  0  0  0  0  0
  162.0840  206.6200  150.2270 O   0  0  0  0  0  1  0  0  0  0  0  0
  162.0010  207.2980  147.9300 C   0  0  0  0  0  2  0  0  0  0  0  0
  162.6550  206.0090  147.4700 C   0  0  0  0  0  2  0  0  0  0  0  0
  160.8430  201.8420  148.8510 S   0  0  1  0  0  0  0  0  0  0  0  0
  160.8540  204.2160  147.6620 C   0  0  2  0  0  3  0  0  0  0  0  0
  161.6500  205.1200  146.7530 C   0  0  2  0  0  0  0  0  0  0  0  0
  161.2910  203.6070  148.9720 C   0  0  0  0  0  2  0  0  0  0  0  0
  161.1420  202.5350  146.1130 C   0  0  0  0  0  2  0  0  0  0  0  0
  159.3210  201.8630  148.9460 O   0  0  0  0  0  0  0  0  0  0  0  0
  161.9480  203.6390  146.7550 C   0  0  2  0  0  3  0  0  0  0  0  0
  161.1500  201.3480  147.1020 C   0  0  0  0  0  2  0  0  0  0  0  0
  159.8010  206.2510  145.7430 O   0  0  0  0  0  1  0  0  0  0  0  0
  161.4250  205.5270  144.2990 O   0  0  0  0  0  0  0  0  0  0  0  0
  160.8980  205.6540  145.5770 C   0  0  0  0  0  0  0  0  0  0  0  0
  161.5520  212.4710  148.3090 C   0  0  2  0  0  3  0  0  0  0  0  0
  159.6120  213.0570  144.0950 C   0  0  0  0  0  1  0  0  0  0  0  0
  160.7270  212.3670  145.9780 N   0  0  0  0  0  2  0  0  0  0  0  0
  159.1640  214.0590  146.1580 C   0  0  0  0  0  2  0  0  0  0  0  0
  160.2280  213.5130  145.3280 N   0  0  0  0  0  0  0  0  0  0  0  0
  160.3320  212.4340  147.3850 C   0  0  2  0  0  3  0  0  0  0  0  0
  159.4800  213.6600  147.5660 C   0  0  2  0  0  3  0  0  0  0  0  0
  158.1300  213.6390  149.5520 O   0  0  0  0  0  1  0  0  0  0  0  0
  158.2340  213.3450  148.3310 C   0  0  0  0  0  0  0  0  0  0  0  0
  157.1780  212.7100  147.6860 O   0  0  0  0  0  0  0  0  0  0  0  0
  162.7430  212.5070  147.5720 O   0  0  0  0  0  0  0  0  0  0  0  0
  163.2350  213.8010  147.7500 C   0  0  0  0  0  1  0  0  0  0  0  0
  2 10  1  0  0  0  0
  4  8  1  0  0  0  0
  5  1  1  0  0  0  0
  6  2  2  0  0  0  0
  6  4  1  0  0  0  0
  7  1  2  0  0  0  0
  8 11  1  0  0  0  0
  8  9  1  1  0  0  0
  9  5  2  0  0  0  0
 10  3  1  0  0  0  0
 10 11  2  0  0  0  0
 11  7  1  0  0  0  0
 12  4  1  0  0  0  0
 12 13  1  1  0  0  0
 14 12  1  0  0  0  0
 15 14  1  0  0  0  0
 16 21  2  6  0  0  0
 16 19  1  0  0  0  0
 17 19  1  1  0  0  0
 18 22  1  0  0  0  0
 18 15  1  1  0  0  0
 18 17  1  0  0  0  0
 20 23  1  0  0  0  0
 22 20  1  6  0  0  0
 22 17  1  0  0  0  0
 23 16  1  0  0  0  0
 25 26  2  0  0  0  0
 26 24  1  0  0  0  0
 26 18  1  0  0  0  0
 27 37  1  6  0  0  0
 27  2  1  0  0  0  0
 28 31  1  0  0  0  0
 29 32  1  0  0  0  0
 30 33  1  0  0  0  0
 31 29  1  0  0  0  0
 31 30  1  0  0  0  0
 32 33  1  0  0  0  0
 32 27  1  1  0  0  0
 33 35  1  1  0  0  0
 35 34  1  0  0  0  0
 36 35  2  0  0  0  0
 37 38  1  0  0  0  0
M  END
>  <MODEL>
2

>  <REMARK>
 VINA RESULT:      -8.2      3.648      6.506
  Name = 
  9 active torsions:
  status: ('A' for Active; 'I' for Inactive)
    1  A    between atoms: C_3  and  C_16
    2  A    between atoms: C_3  and  C_17
    3  A    between atoms: C_4  and  C_36
    4  A    between atoms: O_5  and  C_26
    5  A    between atoms: C_8  and  C_26
    6  A    between atoms: N_11  and  C_16
    7  A    between atoms: C_17  and  C_23
    8  A    between atoms: C_22  and  C_26
    9  A    between atoms: C_23  and  C_32
                            x       y       z     vdW  Elec       q    Type
                         _______ _______ _______ _____ _____    ______ ____

>  <TORSDO>
F 9

$$$$
=
 OpenBabel11072412153D

 38 42  0  0  1  0  0  0  0  0999 V2000
  160.0850  208.0710  156.8140 N   0  0  0  0  0  0  0  0  0  0  0  0
  161.4360  206.3580  152.4050 C   0  0  0  0  0  0  0  0  0  0  0  0
  160.7020  204.8790  154.0560 F   0  0  0  0  0  0  0  0  0  0  0  0
  161.4180  208.7950  152.8520 N   0  0  0  0  0  0  0  0  0  0  0  0
  160.4090  209.4050  156.4120 C   0  0  0  0  0  3  0  0  0  0  0  0
  161.8890  207.7290  151.9690 C   0  0  0  0  0  3  0  0  0  0  0  0
  160.5400  206.9070  156.0560 C   0  0  0  0  0  3  0  0  0  0  0  0
  161.0640  208.5200  154.2270 C   0  0  1  0  0  3  0  0  0  0  0  0
  160.8840  209.6300  155.1900 C   0  0  0  0  0  3  0  0  0  0  0  0
  161.0070  206.1410  153.6560 C   0  0  0  0  0  0  0  0  0  0  0  0
  160.8560  207.2480  154.6180 C   0  0  0  0  0  0  0  0  0  0  0  0
  161.5030  210.1540  152.3170 C   0  0  1  0  0  3  0  0  0  0  0  0
  162.2170  210.1600  151.1180 O   0  0  0  0  0  1  0  0  0  0  0  0
  160.1200  210.7500  152.1150 C   0  0  0  0  0  2  0  0  0  0  0  0
  160.1480  212.2290  152.4540 C   0  0  0  0  0  2  0  0  0  0  0  0
  158.2270  212.6390  156.7780 S   0  0  1  0  0  0  0  0  0  0  0  0
  158.6620  213.2790  154.2380 C   0  0  2  0  0  3  0  0  0  0  0  0
  158.7610  212.7200  152.8400 C   0  0  2  0  0  0  0  0  0  0  0  0
  159.4600  212.8740  155.4540 C   0  0  0  0  0  2  0  0  0  0  0  0
  156.6580  212.1630  154.4580 C   0  0  0  0  0  2  0  0  0  0  0  0
  157.7780  214.0620  157.0920 O   0  0  0  0  0  0  0  0  0  0  0  0
  158.0400  211.9200  153.8980 C   0  0  2  0  0  3  0  0  0  0  0  0
  156.7410  211.8950  155.9770 C   0  0  0  0  0  2  0  0  0  0  0  0
  157.2740  214.4520  152.1300 O   0  0  0  0  0  1  0  0  0  0  0  0
  157.8530  212.9270  150.5220 O   0  0  0  0  0  0  0  0  0  0  0  0
  157.9120  213.4110  151.8220 C   0  0  0  0  0  0  0  0  0  0  0  0
  161.6210  205.1940  151.4700 C   0  0  2  0  0  3  0  0  0  0  0  0
  161.7970  208.5770  148.2470 C   0  0  0  0  0  1  0  0  0  0  0  0
  162.0850  207.1380  150.0110 N   0  0  0  0  0  2  0  0  0  0  0  0
  160.7380  206.4940  148.2470 C   0  0  0  0  0  2  0  0  0  0  0  0
  161.1230  207.6110  149.0970 N   0  0  0  0  0  0  0  0  0  0  0  0
  161.9820  205.6800  150.0640 C   0  0  2  0  0  3  0  0  0  0  0  0
  160.9460  205.2540  149.0620 C   0  0  2  0  0  3  0  0  0  0  0  0
  161.0710  202.9420  148.4250 O   0  0  0  0  0  1  0  0  0  0  0  0
  161.4430  204.1270  148.2130 C   0  0  0  0  0  0  0  0  0  0  0  0
  162.3370  204.3920  147.1820 O   0  0  0  0  0  0  0  0  0  0  0  0
  160.4880  204.3700  151.4440 O   0  0  0  0  0  0  0  0  0  0  0  0
  160.9670  203.0920  151.7380 C   0  0  0  0  0  1  0  0  0  0  0  0
  2 10  1  0  0  0  0
  4  8  1  0  0  0  0
  5  1  1  0  0  0  0
  6  2  2  0  0  0  0
  6  4  1  0  0  0  0
  7  1  2  0  0  0  0
  8 11  1  0  0  0  0
  8  9  1  6  0  0  0
  9  5  2  0  0  0  0
 10  3  1  0  0  0  0
 10 11  2  0  0  0  0
 11  7  1  0  0  0  0
 12 13  1  6  0  0  0
 12  4  1  0  0  0  0
 14 12  1  0  0  0  0
 14 15  1  0  0  0  0
 16 21  2  6  0  0  0
 17 19  1  1  0  0  0
 18 15  1  6  0  0  0
 18 22  1  0  0  0  0
 18 17  1  0  0  0  0
 19 16  1  0  0  0  0
 20 23  1  0  0  0  0
 22 17  1  0  0  0  0
 22 20  1  6  0  0  0
 23 16  1  0  0  0  0
 25 26  2  0  0  0  0
 26 24  1  0  0  0  0
 26 18  1  0  0  0  0
 27 37  1  6  0  0  0
 27  2  1  0  0  0  0
 28 31  1  0  0  0  0
 29 32  1  0  0  0  0
 30 33  1  0  0  0  0
 30 31  1  0  0  0  0
 31 29  1  0  0  0  0
 32 27  1  1  0  0  0
 33 35  1  6  0  0  0
 33 32  1  0  0  0  0
 35 34  1  0  0  0  0
 36 35  2  0  0  0  0
 37 38  1  0  0  0  0
M  END
>  <MODEL>
3

>  <REMARK>
 VINA RESULT:      -7.6      3.391      9.430
  Name = 
  9 active torsions:
  status: ('A' for Active; 'I' for Inactive)
    1  A    between atoms: C_3  and  C_16
    2  A    between atoms: C_3  and  C_17
    3  A    between atoms: C_4  and  C_36
    4  A    between atoms: O_5  and  C_26
    5  A    between atoms: C_8  and  C_26
    6  A    between atoms: N_11  and  C_16
    7  A    between atoms: C_17  and  C_23
    8  A    between atoms: C_22  and  C_26
    9  A    between atoms: C_23  and  C_32
                            x       y       z     vdW  Elec       q    Type
                         _______ _______ _______ _____ _____    ______ ____

>  <TORSDO>
F 9

$$$$
=
 OpenBabel11072412153D

 38 42  0  0  1  0  0  0  0  0999 V2000
  161.2920  213.2380  148.0540 N   0  0  0  0  0  0  0  0  0  0  0  0
  160.2550  211.4380  152.5120 C   0  0  0  0  0  0  0  0  0  0  0  0
  159.3380  213.4760  151.8350 F   0  0  0  0  0  0  0  0  0  0  0  0
  161.6530  210.1420  150.9310 N   0  0  0  0  0  0  0  0  0  0  0  0
  162.1480  212.1230  147.7850 C   0  0  0  0  0  3  0  0  0  0  0  0
  161.2240  210.2990  152.3200 C   0  0  0  0  0  3  0  0  0  0  0  0
  160.8320  213.5470  149.4060 C   0  0  0  0  0  2  0  0  0  0  0  0
  161.6020  211.2530  150.0060 C   0  0  0  0  0  0  0  0  0  0  0  0
  162.3100  211.1790  148.7080 C   0  0  0  0  0  3  0  0  0  0  0  0
  160.1410  212.4070  151.5930 C   0  0  0  0  0  0  0  0  0  0  0  0
  160.8700  212.3410  150.3140 C   0  0  0  0  0  0  0  0  0  0  0  0
  162.2940  208.8690  150.5990 C   0  0  1  0  0  3  0  0  0  0  0  0
  162.3360  208.0390  151.7200 O   0  0  0  0  0  1  0  0  0  0  0  0
  161.5750  208.1770  149.4520 C   0  0  0  0  0  2  0  0  0  0  0  0
  160.6090  207.1460  150.0040 C   0  0  0  0  0  2  0  0  0  0  0  0
  162.4390  205.2340  146.0610 S   0  0  1  0  0  0  0  0  0  0  0  0
  162.1540  205.6180  148.6730 C   0  0  2  0  0  3  0  0  0  0  0  0
  161.1400  205.7380  149.7840 C   0  0  2  0  0  0  0  0  0  0  0  0
  162.2450  206.4440  147.4130 C   0  0  0  0  0  2  0  0  0  0  0  0
  161.0970  203.6770  148.0220 C   0  0  0  0  0  2  0  0  0  0  0  0
  163.8580  204.7120  146.2610 O   0  0  0  0  0  0  0  0  0  0  0  0
  160.7350  205.0660  148.4930 C   0  0  2  0  0  3  0  0  0  0  0  0
  161.3900  203.7840  146.5090 C   0  0  0  0  0  2  0  0  0  0  0  0
  160.5300  203.9770  151.2820 O   0  0  0  0  0  0  0  0  0  0  0  0
  162.5660  204.9490  151.6770 O   0  0  0  0  0  1  0  0  0  0  0  0
  161.3820  204.8460  150.9590 C   0  0  0  0  0  0  0  0  0  0  0  0
  159.5300  211.5680  153.8250 C   0  0  2  0  0  3  0  0  0  0  0  0
  160.2690  207.8570  156.5710 C   0  0  0  0  0  1  0  0  0  0  0  0
  160.1270  209.4200  154.8970 N   0  0  0  0  0  2  0  0  0  0  0  0
  159.7340  210.0750  157.0770 C   0  0  0  0  0  2  0  0  0  0  0  0
  159.5250  209.0130  156.1040 N   0  0  0  0  0  0  0  0  0  0  0  0
  160.3060  210.8710  154.9440 C   0  0  2  0  0  3  0  0  0  0  0  0
  159.8500  211.3470  156.2960 C   0  0  2  0  0  3  0  0  0  0  0  0
  161.9900  211.8520  157.2600 O   0  0  0  0  0  1  0  0  0  0  0  0
  160.8530  212.2700  156.9120 C   0  0  0  0  0  0  0  0  0  0  0  0
  160.5220  213.6050  157.1110 O   0  0  0  0  0  0  0  0  0  0  0  0
  158.2200  211.0800  153.7380 O   0  0  0  0  0  0  0  0  0  0  0  0
  157.4140  212.1390  154.1630 C   0  0  0  0  0  1  0  0  0  0  0  0
  1  7  1  0  0  0  0
  2 27  1  0  0  0  0
  4  6  1  0  0  0  0
  5  1  2  0  0  0  0
  5  9  1  0  0  0  0
  6  2  2  0  0  0  0
  7 11  1  0  0  0  0
  8 11  1  0  0  0  0
  8  4  1  0  0  0  0
  9  8  2  0  0  0  0
 10  3  1  0  0  0  0
 10  2  1  0  0  0  0
 11 10  2  0  0  0  0
 12  4  1  0  0  0  0
 12 13  1  1  0  0  0
 14 15  1  0  0  0  0
 14 12  1  0  0  0  0
 16 21  2  1  0  0  0
 16 23  1  0  0  0  0
 16 19  1  0  0  0  0
 17 19  1  6  0  0  0
 17 18  1  0  0  0  0
 18 15  1  1  0  0  0
 18 26  1  0  0  0  0
 22 20  1  1  0  0  0
 22 17  1  0  0  0  0
 22 18  1  0  0  0  0
 23 20  1  0  0  0  0
 26 24  2  0  0  0  0
 26 25  1  0  0  0  0
 27 37  1  6  0  0  0
 29 32  1  0  0  0  0
 29 31  1  0  0  0  0
 31 28  1  0  0  0  0
 31 30  1  0  0  0  0
 32 27  1  6  0  0  0
 32 33  1  0  0  0  0
 33 35  1  1  0  0  0
 33 30  1  0  0  0  0
 35 36  2  0  0  0  0
 35 34  1  0  0  0  0
 37 38  1  0  0  0  0
M  END
>  <MODEL>
4

>  <REMARK>
 VINA RESULT:      -7.5      2.168      3.465
  Name = 
  9 active torsions:
  status: ('A' for Active; 'I' for Inactive)
    1  A    between atoms: C_3  and  C_16
    2  A    between atoms: C_3  and  C_17
    3  A    between atoms: C_4  and  C_36
    4  A    between atoms: O_5  and  C_26
    5  A    between atoms: C_8  and  C_26
    6  A    between atoms: N_11  and  C_16
    7  A    between atoms: C_17  and  C_23
    8  A    between atoms: C_22  and  C_26
    9  A    between atoms: C_23  and  C_32
                            x       y       z     vdW  Elec       q    Type
                         _______ _______ _______ _____ _____    ______ ____

>  <TORSDO>
F 9

$$$$
=
 OpenBabel11072412153D

 38 42  0  0  1  0  0  0  0  0999 V2000
  160.9590  204.1810  149.5160 N   0  0  0  0  0  0  0  0  0  0  0  0
  160.9590  207.7040  152.9490 C   0  0  0  0  0  0  0  0  0  0  0  0
  160.4940  205.4940  153.5450 F   0  0  0  0  0  0  0  0  0  0  0  0
  161.5620  208.2360  150.6060 N   0  0  0  0  0  0  0  0  0  0  0  0
  161.2500  205.1480  148.5020 C   0  0  0  0  0  3  0  0  0  0  0  0
  161.1630  208.7740  151.9060 C   0  0  0  0  0  3  0  0  0  0  0  0
  160.4940  204.5760  150.8440 C   0  0  0  0  0  3  0  0  0  0  0  0
  161.2520  206.8730  150.2370 C   0  0  1  0  0  3  0  0  0  0  0  0
  161.3820  206.4290  148.8310 C   0  0  0  0  0  3  0  0  0  0  0  0
  160.7790  206.4240  152.5960 C   0  0  0  0  0  0  0  0  0  0  0  0
  160.8830  205.9940  151.1890 C   0  0  0  0  0  0  0  0  0  0  0  0
  162.1200  209.2010  149.6580 C   0  0  1  0  0  3  0  0  0  0  0  0
  161.6960  208.9100  148.3610 O   0  0  0  0  0  1  0  0  0  0  0  0
  161.7370  210.6230  150.0360 C   0  0  0  0  0  2  0  0  0  0  0  0
  162.2240  211.5830  148.9670 C   0  0  0  0  0  2  0  0  0  0  0  0
  160.0640  212.4310  144.8240 S   0  0  1  0  0  0  0  0  0  0  0  0
  160.2800  212.2590  147.4640 C   0  0  2  0  0  3  0  0  0  0  0  0
  161.1550  212.6150  148.6410 C   0  0  2  0  0  0  0  0  0  0  0  0
  160.6550  211.4510  146.2450 C   0  0  0  0  0  2  0  0  0  0  0  0
  160.4400  214.4530  146.7810 C   0  0  0  0  0  2  0  0  0  0  0  0
  158.5480  212.2850  144.9070 O   0  0  0  0  0  0  0  0  0  0  0  0
  161.3290  213.3710  147.3450 C   0  0  2  0  0  3  0  0  0  0  0  0
  160.3420  214.2000  145.2610 C   0  0  0  0  0  2  0  0  0  0  0  0
  159.3480  212.9180  150.1770 O   0  0  0  0  0  0  0  0  0  0  0  0
  161.0510  214.4410  150.3430 O   0  0  0  0  0  1  0  0  0  0  0  0
  160.4580  213.3330  149.7510 C   0  0  0  0  0  0  0  0  0  0  0  0
  160.7970  208.1080  154.3900 C   0  0  2  0  0  3  0  0  0  0  0  0
  162.8410  211.4560  156.9350 C   0  0  0  0  0  1  0  0  0  0  0  0
  162.2800  209.6960  155.5720 N   0  0  0  0  0  2  0  0  0  0  0  0
  160.6450  211.2160  156.1690 C   0  0  0  0  0  2  0  0  0  0  0  0
  161.8070  210.4780  156.6440 N   0  0  0  0  0  0  0  0  0  0  0  0
  161.2020  209.5700  154.5910 C   0  0  2  0  0  3  0  0  0  0  0  0
  160.0400  210.3910  155.0760 C   0  0  2  0  0  3  0  0  0  0  0  0
  160.0670  212.3350  153.6650 O   0  0  0  0  0  1  0  0  0  0  0  0
  159.4960  211.2570  153.9840 C   0  0  0  0  0  0  0  0  0  0  0  0
  158.3390  210.8710  153.3180 O   0  0  0  0  0  0  0  0  0  0  0  0
  161.5150  207.2620  155.2440 O   0  0  0  0  0  0  0  0  0  0  0  0
  160.5970  206.8810  156.2250 C   0  0  0  0  0  1  0  0  0  0  0  0
  1  7  2  0  0  0  0
  2 27  1  0  0  0  0
  4  6  1  0  0  0  0
  5  9  2  0  0  0  0
  5  1  1  0  0  0  0
  6  2  2  0  0  0  0
  7 11  1  0  0  0  0
  8  9  1  1  0  0  0
  8  4  1  0  0  0  0
  8 11  1  0  0  0  0
 10  2  1  0  0  0  0
 10  3  1  0  0  0  0
 11 10  2  0  0  0  0
 12 13  1  6  0  0  0
 12 14  1  0  0  0  0
 12  4  1  0  0  0  0
 15 14  1  0  0  0  0
 16 21  2  1  0  0  0
 16 23  1  0  0  0  0
 16 19  1  0  0  0  0
 17 19  1  6  0  0  0
 17 18  1  0  0  0  0
 18 15  1  1  0  0  0
 18 26  1  0  0  0  0
 22 20  1  1  0  0  0
 22 17  1  0  0  0  0
 22 18  1  0  0  0  0
 23 20  1  0  0  0  0
 26 24  2  0  0  0  0
 26 25  1  0  0  0  0
 27 37  1  1  0  0  0
 29 31  1  0  0  0  0
 30 31  1  0  0  0  0
 31 28  1  0  0  0  0
 32 27  1  1  0  0  0
 32 33  1  0  0  0  0
 32 29  1  0  0  0  0
 33 35  1  6  0  0  0
 33 30  1  0  0  0  0
 34 35  1  0  0  0  0
 36 35  2  0  0  0  0
 37 38  1  0  0  0  0
M  END
>  <MODEL>
5

>  <REMARK>
 VINA RESULT:      -7.2      3.497      6.481
  Name = 
  9 active torsions:
  status: ('A' for Active; 'I' for Inactive)
    1  A    between atoms: C_3  and  C_16
    2  A    between atoms: C_3  and  C_17
    3  A    between atoms: C_4  and  C_36
    4  A    between atoms: O_5  and  C_26
    5  A    between atoms: C_8  and  C_26
    6  A    between atoms: N_11  and  C_16
    7  A    between atoms: C_17  and  C_23
    8  A    between atoms: C_22  and  C_26
    9  A    between atoms: C_23  and  C_32
                            x       y       z     vdW  Elec       q    Type
                         _______ _______ _______ _____ _____    ______ ____

>  <TORSDO>
F 9

$$$$
=
 OpenBabel11072412153D

 38 42  0  0  1  0  0  0  0  0999 V2000
  161.8970  205.4480  152.9200 N   0  0  0  0  0  0  0  0  0  0  0  0
  160.3440  210.0930  153.3740 C   0  0  0  0  0  0  0  0  0  0  0  0
  160.0260  208.5810  155.1250 F   0  0  0  0  0  0  0  0  0  0  0  0
  161.5670  209.3730  151.3440 N   0  0  0  0  0  0  0  0  0  0  0  0
  162.3530  205.7150  151.5900 C   0  0  0  0  0  3  0  0  0  0  0  0
  160.7120  210.3970  151.9440 C   0  0  0  0  0  3  0  0  0  0  0  0
  160.9930  206.3580  153.6200 C   0  0  0  0  0  3  0  0  0  0  0  0
  161.5770  208.0200  151.8540 C   0  0  1  0  0  3  0  0  0  0  0  0
  162.1980  206.9290  151.0700 C   0  0  0  0  0  3  0  0  0  0  0  0
  160.4610  208.8520  153.8660 C   0  0  0  0  0  0  0  0  0  0  0  0
  161.0560  207.7640  153.0690 C   0  0  0  0  0  0  0  0  0  0  0  0
  162.2530  209.7550  150.1090 C   0  0  1  0  0  3  0  0  0  0  0  0
  161.9320  208.8690  149.0800 O   0  0  0  0  0  1  0  0  0  0  0  0
  161.9070  211.1810  149.7090 C   0  0  0  0  0  2  0  0  0  0  0  0
  161.9410  211.3080  148.1980 C   0  0  0  0  0  2  0  0  0  0  0  0
  159.0270  212.7470  144.7360 S   0  0  1  0  0  0  0  0  0  0  0  0
  160.2570  212.8640  147.0850 C   0  0  2  0  0  3  0  0  0  0  0  0
  161.5950  212.7260  147.7690 C   0  0  2  0  0  0  0  0  0  0  0  0
  159.5460  211.8410  146.2330 C   0  0  0  0  0  2  0  0  0  0  0  0
  161.2610  214.2850  145.5760 C   0  0  0  0  0  2  0  0  0  0  0  0
  157.9030  213.6440  145.2440 O   0  0  0  0  0  0  0  0  0  0  0  0
  161.5560  212.9830  146.2810 C   0  0  2  0  0  3  0  0  0  0  0  0
  160.3800  213.9400  144.3550 C   0  0  0  0  0  2  0  0  0  0  0  0
  163.0890  214.4530  148.4780 O   0  0  0  0  0  0  0  0  0  0  0  0
  161.1000  214.3410  149.6090 O   0  0  0  0  0  1  0  0  0  0  0  0
  161.9800  213.8770  148.6410 C   0  0  0  0  0  0  0  0  0  0  0  0
  159.6880  211.1640  154.2040 C   0  0  2  0  0  3  0  0  0  0  0  0
  158.0070  214.4520  151.3360 C   0  0  0  0  0  1  0  0  0  0  0  0
  158.9980  212.6450  152.3470 N   0  0  0  0  0  2  0  0  0  0  0  0
  157.4600  213.8920  153.5380 C   0  0  0  0  0  2  0  0  0  0  0  0
  158.5590  213.9630  152.5860 N   0  0  0  0  0  0  0  0  0  0  0  0
  158.5230  211.8020  153.4430 C   0  0  2  0  0  3  0  0  0  0  0  0
  157.6870  212.6570  154.3530 C   0  0  2  0  0  3  0  0  0  0  0  0
  156.3630  210.9640  155.4250 O   0  0  0  0  0  1  0  0  0  0  0  0
  156.3920  211.9860  154.6890 C   0  0  0  0  0  0  0  0  0  0  0  0
  155.2060  212.4940  154.1710 O   0  0  0  0  0  0  0  0  0  0  0  0
  160.6120  212.1320  154.6170 O   0  0  0  0  0  0  0  0  0  0  0  0
  161.1050  211.6590  155.8350 C   0  0  0  0  0  1  0  0  0  0  0  0
  1  7  2  0  0  0  0
  2 10  1  0  0  0  0
  2 27  1  0  0  0  0
  4  8  1  0  0  0  0
  4  6  1  0  0  0  0
  5  1  1  0  0  0  0
  6  2  2  0  0  0  0
  8  9  1  1  0  0  0
  8 11  1  0  0  0  0
  9  5  2  0  0  0  0
 10  3  1  0  0  0  0
 11  7  1  0  0  0  0
 11 10  2  0  0  0  0
 12 13  1  6  0  0  0
 12  4  1  0  0  0  0
 14 12  1  0  0  0  0
 15 14  1  0  0  0  0
 16 21  2  1  0  0  0
 16 19  1  0  0  0  0
 17 19  1  6  0  0  0
 17 18  1  0  0  0  0
 18 15  1  1  0  0  0
 18 26  1  0  0  0  0
 22 20  1  1  0  0  0
 22 17  1  0  0  0  0
 22 18  1  0  0  0  0
 23 16  1  0  0  0  0
 23 20  1  0  0  0  0
 24 26  2  0  0  0  0
 26 25  1  0  0  0  0
 27 37  1  6  0  0  0
 28 31  1  0  0  0  0
 29 31  1  0  0  0  0
 29 32  1  0  0  0  0
 30 33  1  0  0  0  0
 31 30  1  0  0  0  0
 32 27  1  1  0  0  0
 32 33  1  0  0  0  0
 33 35  1  6  0  0  0
 35 34  1  0  0  0  0
 36 35  2  0  0  0  0
 37 38  1  0  0  0  0
M  END
>  <MODEL>
6

>  <REMARK>
 VINA RESULT:      -7.2      4.279      7.245
  Name = 
  9 active torsions:
  status: ('A' for Active; 'I' for Inactive)
    1  A    between atoms: C_3  and  C_16
    2  A    between atoms: C_3  and  C_17
    3  A    between atoms: C_4  and  C_36
    4  A    between atoms: O_5  and  C_26
    5  A    between atoms: C_8  and  C_26
    6  A    between atoms: N_11  and  C_16
    7  A    between atoms: C_17  and  C_23
    8  A    between atoms: C_22  and  C_26
    9  A    between atoms: C_23  and  C_32
                            x       y       z     vdW  Elec       q    Type
                         _______ _______ _______ _____ _____    ______ ____

>  <TORSDO>
F 9

$$$$
=
 OpenBabel11072412153D

 38 42  0  0  1  0  0  0  0  0999 V2000
  160.8460  205.4540  154.3230 N   0  0  0  0  0  0  0  0  0  0  0  0
  160.9930  206.3640  149.4910 C   0  0  0  0  0  0  0  0  0  0  0  0
  160.3780  204.2470  150.2610 F   0  0  0  0  0  0  0  0  0  0  0  0
  161.4550  208.1710  151.1210 N   0  0  0  0  0  0  0  0  0  0  0  0
  161.2930  206.7850  154.6020 C   0  0  0  0  0  3  0  0  0  0  0  0
  161.5620  207.7400  149.7280 C   0  0  0  0  0  3  0  0  0  0  0  0
  160.9470  204.8740  152.9850 C   0  0  0  0  0  3  0  0  0  0  0  0
  161.3440  207.2050  152.1920 C   0  0  1  0  0  3  0  0  0  0  0  0
  161.5420  207.6220  153.5990 C   0  0  0  0  0  3  0  0  0  0  0  0
  160.7950  205.5160  150.5090 C   0  0  0  0  0  0  0  0  0  0  0  0
  161.0190  205.9300  151.9060 C   0  0  0  0  0  0  0  0  0  0  0  0
  161.6480  209.6000  151.3650 C   0  0  1  0  0  3  0  0  0  0  0  0
  161.9560  210.2600  150.1750 O   0  0  0  0  0  1  0  0  0  0  0  0
  160.4170  210.2160  152.0110 C   0  0  0  0  0  2  0  0  0  0  0  0
  160.8310  211.3860  152.8830 C   0  0  0  0  0  2  0  0  0  0  0  0
  156.7790  213.6760  153.8260 S   0  0  1  0  0  0  0  0  0  0  0  0
  158.5580  211.7120  153.9890 C   0  0  2  0  0  3  0  0  0  0  0  0
  160.0240  211.4080  154.1730 C   0  0  2  0  0  0  0  0  0  0  0  0
  157.9200  212.5720  152.9250 C   0  0  0  0  0  2  0  0  0  0  0  0
  158.6870  213.0760  155.8410 C   0  0  0  0  0  2  0  0  0  0  0  0
  155.6570  212.7380  154.2600 O   0  0  0  0  0  0  0  0  0  0  0  0
  159.4960  212.7550  154.6070 C   0  0  2  0  0  3  0  0  0  0  0  0
  157.6130  214.1000  155.4150 C   0  0  0  0  0  2  0  0  0  0  0  0
  161.4940  210.3660  155.7450 O   0  0  0  0  0  0  0  0  0  0  0  0
  159.3340  209.6020  155.7550 O   0  0  0  0  0  1  0  0  0  0  0  0
  160.3340  210.4260  155.2560 C   0  0  0  0  0  0  0  0  0  0  0  0
  160.7970  205.8860  148.0770 C   0  0  2  0  0  3  0  0  0  0  0  0
  163.9910  203.9530  145.2610 C   0  0  0  0  0  1  0  0  0  0  0  0
  162.7780  205.1840  146.7720 N   0  0  0  0  0  2  0  0  0  0  0  0
  161.9210  203.1760  146.0170 C   0  0  0  0  0  2  0  0  0  0  0  0
  162.6500  204.3740  145.6270 N   0  0  0  0  0  0  0  0  0  0  0  0
  161.7750  204.7570  147.7460 C   0  0  2  0  0  3  0  0  0  0  0  0
  161.0550  203.5680  147.1740 C   0  0  2  0  0  3  0  0  0  0  0  0
  161.9280  202.1770  148.9270 O   0  0  0  0  0  1  0  0  0  0  0  0
  160.9570  202.4600  148.1750 C   0  0  0  0  0  0  0  0  0  0  0  0
  159.7790  201.7270  148.2690 O   0  0  0  0  0  0  0  0  0  0  0  0
  160.9120  206.9380  147.1590 O   0  0  0  0  0  0  0  0  0  0  0  0
  160.0810  206.5780  146.0960 C   0  0  0  0  0  1  0  0  0  0  0  0
  1  5  1  0  0  0  0
  2  6  2  0  0  0  0
  2 10  1  0  0  0  0
  3 10  1  0  0  0  0
  4 12  1  0  0  0  0
  4  8  1  0  0  0  0
  6  4  1  0  0  0  0
  7  1  2  0  0  0  0
  8  9  1  1  0  0  0
  9  5  2  0  0  0  0
 10 11  2  0  0  0  0
 11  8  1  0  0  0  0
 11  7  1  0  0  0  0
 12 13  1  6  0  0  0
 12 14  1  0  0  0  0
 14 15  1  0  0  0  0
 16 21  2  1  0  0  0
 16 23  1  0  0  0  0
 17 19  1  6  0  0  0
 17 18  1  0  0  0  0
 17 22  1  0  0  0  0
 18 15  1  6  0  0  0
 18 22  1  0  0  0  0
 18 26  1  0  0  0  0
 19 16  1  0  0  0  0
 22 20  1  1  0  0  0
 23 20  1  0  0  0  0
 26 24  2  0  0  0  0
 26 25  1  0  0  0  0
 27 37  1  6  0  0  0
 27  2  1  0  0  0  0
 28 31  1  0  0  0  0
 29 32  1  0  0  0  0
 30 33  1  0  0  0  0
 31 30  1  0  0  0  0
 31 29  1  0  0  0  0
 32 27  1  6  0  0  0
 33 32  1  0  0  0  0
 33 35  1  1  0  0  0
 35 36  2  0  0  0  0
 35 34  1  0  0  0  0
 38 37  1  0  0  0  0
M  END
>  <MODEL>
7

>  <REMARK>
 VINA RESULT:      -7.0      3.435      9.821
  Name = 
  9 active torsions:
  status: ('A' for Active; 'I' for Inactive)
    1  A    between atoms: C_3  and  C_16
    2  A    between atoms: C_3  and  C_17
    3  A    between atoms: C_4  and  C_36
    4  A    between atoms: O_5  and  C_26
    5  A    between atoms: C_8  and  C_26
    6  A    between atoms: N_11  and  C_16
    7  A    between atoms: C_17  and  C_23
    8  A    between atoms: C_22  and  C_26
    9  A    between atoms: C_23  and  C_32
                            x       y       z     vdW  Elec       q    Type
                         _______ _______ _______ _____ _____    ______ ____

>  <TORSDO>
F 9

$$$$
=
 OpenBabel11072412153D

 38 42  0  0  1  0  0  0  0  0999 V2000
  161.2310  205.2560  149.0890 N   0  0  0  0  0  0  0  0  0  0  0  0
  161.8600  210.1010  149.6570 C   0  0  0  0  0  0  0  0  0  0  0  0
  162.0010  209.1490  147.5300 F   0  0  0  0  0  0  0  0  0  0  0  0
  161.2800  208.6760  151.5990 N   0  0  0  0  0  0  0  0  0  0  0  0
  161.0620  205.0970  150.5010 C   0  0  0  0  0  3  0  0  0  0  0  0
  161.7920  209.9730  151.1580 C   0  0  0  0  0  3  0  0  0  0  0  0
  161.7860  206.4790  148.5140 C   0  0  0  0  0  2  0  0  0  0  0  0
  161.3700  207.5120  150.7450 C   0  0  0  0  0  0  0  0  0  0  0  0
  161.1350  206.1590  151.2980 C   0  0  0  0  0  3  0  0  0  0  0  0
  161.8340  209.0160  148.8720 C   0  0  0  0  0  0  0  0  0  0  0  0
  161.6270  207.6680  149.4320 C   0  0  0  0  0  0  0  0  0  0  0  0
  160.8490  208.5990  152.9950 C   0  0  1  0  0  3  0  0  0  0  0  0
  161.7250  207.7990  153.7300 O   0  0  0  0  0  1  0  0  0  0  0  0
  160.7470  209.9840  153.6130 C   0  0  0  0  0  2  0  0  0  0  0  0
  160.0940  209.8840  154.9790 C   0  0  0  0  0  2  0  0  0  0  0  0
  156.1990  212.5780  154.6200 S   0  0  1  0  0  0  0  0  0  0  0  0
  158.3760  211.5910  155.7750 C   0  0  2  0  0  3  0  0  0  0  0  0
  159.8340  211.2680  155.5540 C   0  0  2  0  0  0  0  0  0  0  0  0
  157.1900  211.0900  154.9870 C   0  0  0  0  0  2  0  0  0  0  0  0
  158.7930  213.6930  154.9300 C   0  0  0  0  0  2  0  0  0  0  0  0
  155.6090  212.9460  155.9770 O   0  0  0  0  0  0  0  0  0  0  0  0
  159.1560  212.2570  154.6350 C   0  0  2  0  0  3  0  0  0  0  0  0
  157.4030  213.9380  154.3010 C   0  0  0  0  0  2  0  0  0  0  0  0
  160.4290  212.8340  157.2610 O   0  0  0  0  0  1  0  0  0  0  0  0
  161.9970  211.2280  156.8030 O   0  0  0  0  0  0  0  0  0  0  0  0
  160.7670  211.8310  156.5770 C   0  0  0  0  0  0  0  0  0  0  0  0
  162.1220  211.4530  149.0490 C   0  0  2  0  0  3  0  0  0  0  0  0
  159.6470  213.4780  145.6380 C   0  0  0  0  0  1  0  0  0  0  0  0
  160.7780  212.0880  147.0710 N   0  0  0  0  0  2  0  0  0  0  0  0
  160.2240  214.2160  147.7790 C   0  0  0  0  0  2  0  0  0  0  0  0
  160.6900  213.4280  146.6470 N   0  0  0  0  0  0  0  0  0  0  0  0
  160.8220  212.0760  148.5330 C   0  0  2  0  0  3  0  0  0  0  0  0
  160.6750  213.4940  149.0100 C   0  0  2  0  0  3  0  0  0  0  0  0
  158.4350  213.7570  149.8340 O   0  0  0  0  0  0  0  0  0  0  0  0
  159.6560  213.5950  150.1000 C   0  0  0  0  0  0  0  0  0  0  0  0
  160.0650  213.5200  151.4270 O   0  0  0  0  0  1  0  0  0  0  0  0
  163.0860  211.3830  148.0360 O   0  0  0  0  0  0  0  0  0  0  0  0
  163.8480  212.5430  148.1850 C   0  0  0  0  0  1  0  0  0  0  0  0
  1  5  2  0  0  0  0
  2  6  2  0  0  0  0
  3 10  1  0  0  0  0
  4 12  1  0  0  0  0
  5  9  1  0  0  0  0
  6  4  1  0  0  0  0
  7  1  1  0  0  0  0
  7 11  1  0  0  0  0
  8  9  2  0  0  0  0
  8  4  1  0  0  0  0
 10 11  2  0  0  0  0
 10  2  1  0  0  0  0
 11  8  1  0  0  0  0
 12 14  1  0  0  0  0
 12 13  1  1  0  0  0
 14 15  1  0  0  0  0
 16 19  1  0  0  0  0
 16 21  2  1  0  0  0
 17 19  1  6  0  0  0
 18 15  1  6  0  0  0
 18 17  1  0  0  0  0
 18 26  1  0  0  0  0
 22 20  1  1  0  0  0
 22 18  1  0  0  0  0
 22 17  1  0  0  0  0
 23 16  1  0  0  0  0
 23 20  1  0  0  0  0
 26 25  2  0  0  0  0
 26 24  1  0  0  0  0
 27 37  1  6  0  0  0
 27  2  1  0  0  0  0
 28 31  1  0  0  0  0
 29 32  1  0  0  0  0
 30 33  1  0  0  0  0
 31 29  1  0  0  0  0
 31 30  1  0  0  0  0
 32 33  1  0  0  0  0
 32 27  1  6  0  0  0
 33 35  1  1  0  0  0
 34 35  2  0  0  0  0
 35 36  1  0  0  0  0
 37 38  1  0  0  0  0
M  END
>  <MODEL>
8

>  <REMARK>
 VINA RESULT:      -6.9      4.150      9.019
  Name = 
  9 active torsions:
  status: ('A' for Active; 'I' for Inactive)
    1  A    between atoms: C_3  and  C_16
    2  A    between atoms: C_3  and  C_17
    3  A    between atoms: C_4  and  C_36
    4  A    between atoms: O_5  and  C_26
    5  A    between atoms: C_8  and  C_26
    6  A    between atoms: N_11  and  C_16
    7  A    between atoms: C_17  and  C_23
    8  A    between atoms: C_22  and  C_26
    9  A    between atoms: C_23  and  C_32
                            x       y       z     vdW  Elec       q    Type
                         _______ _______ _______ _____ _____    ______ ____

>  <TORSDO>
F 9

$$$$
=
 OpenBabel11072412153D

 38 42  0  0  1  0  0  0  0  0999 V2000
  161.3090  204.1210  153.1050 N   0  0  0  0  0  0  0  0  0  0  0  0
  160.7570  209.0090  153.1350 C   0  0  0  0  0  0  0  0  0  0  0  0
  160.5310  207.7970  155.1190 F   0  0  0  0  0  0  0  0  0  0  0  0
  161.3880  207.8310  151.0490 N   0  0  0  0  0  0  0  0  0  0  0  0
  161.5250  204.1380  151.6910 C   0  0  0  0  0  3  0  0  0  0  0  0
  160.8760  209.0700  151.6330 C   0  0  0  0  0  3  0  0  0  0  0  0
  160.7480  205.2700  153.8120 C   0  0  0  0  0  3  0  0  0  0  0  0
  161.2550  206.5700  151.7440 C   0  0  1  0  0  3  0  0  0  0  0  0
  161.4930  205.2930  151.0330 C   0  0  0  0  0  3  0  0  0  0  0  0
  160.7430  207.8320  153.7770 C   0  0  0  0  0  0  0  0  0  0  0  0
  160.9530  206.5630  153.0570 C   0  0  0  0  0  0  0  0  0  0  0  0
  161.8670  207.9230  149.6700 C   0  0  1  0  0  3  0  0  0  0  0  0
  163.2420  207.6920  149.6150 O   0  0  0  0  0  1  0  0  0  0  0  0
  161.1270  206.9490  148.7670 C   0  0  0  0  0  2  0  0  0  0  0  0
  162.1080  206.2940  147.8120 C   0  0  0  0  0  2  0  0  0  0  0  0
  160.8000  201.8150  148.6960 S   0  0  1  0  0  0  0  0  0  0  0  0
  160.6190  204.2350  147.6190 C   0  0  2  0  0  3  0  0  0  0  0  0
  161.3950  205.3100  146.8980 C   0  0  2  0  0  0  0  0  0  0  0  0
  160.9270  203.6170  148.9610 C   0  0  0  0  0  2  0  0  0  0  0  0
  161.4300  202.7250  146.0810 C   0  0  0  0  0  2  0  0  0  0  0  0
  159.3010  201.5930  148.5260 O   0  0  0  0  0  0  0  0  0  0  0  0
  161.9260  203.8960  146.8950 C   0  0  2  0  0  3  0  0  0  0  0  0
  161.4680  201.4910  147.0090 C   0  0  0  0  0  2  0  0  0  0  0  0
  159.5720  206.1870  145.6230 O   0  0  0  0  0  1  0  0  0  0  0  0
  161.5200  205.8560  144.4640 O   0  0  0  0  0  0  0  0  0  0  0  0
  160.7700  205.7970  145.6300 C   0  0  0  0  0  0  0  0  0  0  0  0
  160.4910  210.2770  153.9000 C   0  0  2  0  0  3  0  0  0  0  0  0
  159.1670  213.6770  150.9760 C   0  0  0  0  0  1  0  0  0  0  0  0
  159.8910  211.7630  152.0150 N   0  0  0  0  0  2  0  0  0  0  0  0
  158.7910  213.3680  153.2620 C   0  0  0  0  0  2  0  0  0  0  0  0
  159.7580  213.1540  152.1950 N   0  0  0  0  0  0  0  0  0  0  0  0
  159.3940  211.1000  153.2200 C   0  0  2  0  0  3  0  0  0  0  0  0
  158.8630  212.1600  154.1440 C   0  0  2  0  0  3  0  0  0  0  0  0
  156.5150  212.5430  154.4760 O   0  0  0  0  0  0  0  0  0  0  0  0
  157.5110  211.7940  154.6690 C   0  0  0  0  0  0  0  0  0  0  0  0
  157.3530  210.6140  155.3870 O   0  0  0  0  0  1  0  0  0  0  0  0
  161.6590  211.0320  154.0660 O   0  0  0  0  0  0  0  0  0  0  0  0
  162.1220  210.6990  155.3410 C   0  0  0  0  0  1  0  0  0  0  0  0
  1  7  2  0  0  0  0
  2 10  1  0  0  0  0
  2 27  1  0  0  0  0
  4  6  1  0  0  0  0
  4  8  1  0  0  0  0
  5  1  1  0  0  0  0
  6  2  2  0  0  0  0
  8  9  1  1  0  0  0
  8 11  1  0  0  0  0
  9  5  2  0  0  0  0
 10  3  1  0  0  0  0
 11 10  2  0  0  0  0
 11  7  1  0  0  0  0
 12 13  1  1  0  0  0
 12  4  1  0  0  0  0
 14 12  1  0  0  0  0
 15 14  1  0  0  0  0
 16 21  2  6  0  0  0
 16 19  1  0  0  0  0
 17 19  1  1  0  0  0
 18 17  1  0  0  0  0
 18 15  1  1  0  0  0
 20 23  1  0  0  0  0
 22 20  1  6  0  0  0
 22 18  1  0  0  0  0
 22 17  1  0  0  0  0
 23 16  1  0  0  0  0
 24 26  1  0  0  0  0
 25 26  2  0  0  0  0
 26 18  1  0  0  0  0
 27 37  1  6  0  0  0
 28 31  1  0  0  0  0
 29 31  1  0  0  0  0
 29 32  1  0  0  0  0
 30 33  1  0  0  0  0
 31 30  1  0  0  0  0
 32 27  1  1  0  0  0
 32 33  1  0  0  0  0
 33 35  1  6  0  0  0
 34 35  2  0  0  0  0
 35 36  1  0  0  0  0
 37 38  1  0  0  0  0
M  END
>  <MODEL>
9

>  <REMARK>
 VINA RESULT:      -6.9      2.485      4.213
  Name = 
  9 active torsions:
  status: ('A' for Active; 'I' for Inactive)
    1  A    between atoms: C_3  and  C_16
    2  A    between atoms: C_3  and  C_17
    3  A    between atoms: C_4  and  C_36
    4  A    between atoms: O_5  and  C_26
    5  A    between atoms: C_8  and  C_26
    6  A    between atoms: N_11  and  C_16
    7  A    between atoms: C_17  and  C_23
    8  A    between atoms: C_22  and  C_26
    9  A    between atoms: C_23  and  C_32
                            x       y       z     vdW  Elec       q    Type
                         _______ _______ _______ _____ _____    ______ ____

>  <TORSDO>
F 9

$$$$
