=
 OpenBabel11072410313D

 32 34  0  0  1  0  0  0  0  0999 V2000
  161.7600  208.6130  151.5720 C   0  0  0  0  0  0  0  0  0  0  0  0
  160.2140  209.8360  152.6840 C   0  0  1  0  0  3  0  0  0  0  0  0
  161.2360  210.6190  152.0720 O   0  0  0  0  0  0  0  0  0  0  0  0
  160.6030  208.5160  152.3260 O   0  0  0  0  0  0  0  0  0  0  0  0
  162.1460  209.8290  151.4140 N   0  0  0  0  0  0  0  0  0  0  0  0
  159.6080  211.2920  154.6320 N   0  0  0  0  0  0  0  0  0  0  0  0
  160.2310  210.0140  154.2150 C   0  0  2  0  0  3  0  0  0  0  0  0
  160.7670  211.8470  156.6970 C   0  0  0  0  0  0  0  0  0  0  0  0
  162.0380  211.0580  156.5840 C   0  0  0  0  0  2  0  0  0  0  0  0
  160.7720  212.9290  157.2600 O   0  0  0  0  0  0  0  0  0  0  0  0
  161.7010  209.9660  154.6650 C   0  0  0  0  0  2  0  0  0  0  0  0
  161.7880  209.7860  156.0500 O   0  0  0  0  0  0  0  0  0  0  0  0
  159.5000  211.3310  156.0910 C   0  0  0  0  0  2  0  0  0  0  0  0
  158.2270  211.3480  154.1730 C   0  0  0  0  0  2  0  0  0  0  0  0
  155.8720  211.0590  154.8690 C   0  0  0  0  0  1  0  0  0  0  0  0
  157.2890  211.2670  155.3590 C   0  0  0  0  0  2  0  0  0  0  0  0
  162.4960  207.4420  151.0210 C   0  0  0  0  0  2  0  0  0  0  0  0
  162.2950  206.3220  151.8490 O   0  0  0  0  0  0  0  0  0  0  0  0
  161.1510  205.6630  149.8080 C   0  0  0  0  0  3  0  0  0  0  0  0
  160.6800  203.0520  151.3600 C   0  0  0  0  0  3  0  0  0  0  0  0
  160.8080  204.8170  148.8390 C   0  0  0  0  0  3  0  0  0  0  0  0
  161.8440  205.2330  151.0670 C   0  0  2  0  0  3  0  0  0  0  0  0
  160.9810  203.3500  148.8580 C   0  0  0  0  0  0  0  0  0  0  0  0
  160.8810  202.5970  149.9700 C   0  0  0  0  0  3  0  0  0  0  0  0
  161.0680  204.2250  151.8580 C   0  0  0  0  0  3  0  0  0  0  0  0
  161.1270  202.7080  147.5880 N   0  0  0  0  0  2  0  0  0  0  0  0
  161.9580  203.2260  146.5120 C   0  0  0  0  0  2  0  0  0  0  0  0
  161.0820  203.5980  145.3340 C   0  0  0  0  0  2  0  0  0  0  0  0
  162.6030  205.8060  145.5460 O   0  0  0  0  0  0  0  0  0  0  0  0
  160.0060  206.2460  145.4170 N   0  0  0  0  0  1  0  0  0  0  0  0
  161.3510  205.3000  144.8880 S   0  0  0  0  0  0  0  0  0  0  0  0
  161.4850  205.4180  143.3970 O   0  0  0  0  0  0  0  0  0  0  0  0
  1  4  1  0  0  0  0
  2  3  1  6  0  0  0
  2  7  1  0  0  0  0
  4  2  1  0  0  0  0
  5  1  2  0  0  0  0
  5  3  1  0  0  0  0
  6 13  1  0  0  0  0
  7  6  1  0  0  0  0
  7 11  1  6  0  0  0
  8 10  2  0  0  0  0
  9  8  1  0  0  0  0
 11 12  1  0  0  0  0
 12  9  1  0  0  0  0
 13  8  1  0  0  0  0
 14  6  1  0  0  0  0
 14 16  1  0  0  0  0
 15 16  1  0  0  0  0
 17  1  1  0  0  0  0
 17 18  1  0  0  0  0
 19 22  1  0  0  0  0
 20 25  2  0  0  0  0
 21 23  1  0  0  0  0
 21 19  2  0  0  0  0
 22 18  1  1  0  0  0
 22 25  1  0  0  0  0
 23 24  2  0  0  0  0
 24 20  1  0  0  0  0
 26 23  1  0  0  0  0
 27 26  1  0  0  0  0
 28 27  1  0  0  0  0
 31 28  1  0  0  0  0
 31 30  1  0  0  0  0
 31 29  2  0  0  0  0
 32 31  2  0  0  0  0
M  END
>  <MODEL>
1

>  <REMARK>
 VINA RESULT:      -7.7      0.000      0.000
  Name = 
  10 active torsions:
  status: ('A' for Active; 'I' for Inactive)
    1  A    between atoms: N_1  and  C_32
    2  A    between atoms: C_2  and  C_27
    3  A    between atoms: C_3  and  C_4
    4  A    between atoms: C_9  and  O_20
    5  A    between atoms: C_11  and  N_31
    6  A    between atoms: C_14  and  S_17
    7  A    between atoms: C_14  and  C_28
    8  A    between atoms: O_20  and  C_27
    9  A    between atoms: C_26  and  C_32
   10  A    between atoms: C_28  and  N_31
                            x       y       z     vdW  Elec       q    Type
                         _______ _______ _______ _____ _____    ______ ____

>  <TORSDO>
F 10

$$$$
=
 OpenBabel11072410313D

 32 34  0  0  1  0  0  0  0  0999 V2000
  161.0870  207.8930  154.1250 C   0  0  0  0  0  0  0  0  0  0  0  0
  160.7570  210.1310  154.0580 C   0  0  1  0  0  3  0  0  0  0  0  0
  161.0030  209.6240  155.3680 O   0  0  0  0  0  0  0  0  0  0  0  0
  160.8220  208.9490  153.2700 O   0  0  0  0  0  0  0  0  0  0  0  0
  161.1940  208.2640  155.3500 N   0  0  0  0  0  0  0  0  0  0  0  0
  159.4010  212.1340  153.4010 N   0  0  0  0  0  0  0  0  0  0  0  0
  159.3550  210.7680  153.9720 C   0  0  2  0  0  3  0  0  0  0  0  0
  157.5040  213.2510  154.4350 C   0  0  0  0  0  0  0  0  0  0  0  0
  157.2590  212.4190  155.6590 C   0  0  0  0  0  2  0  0  0  0  0  0
  157.2960  214.4530  154.4670 O   0  0  0  0  0  0  0  0  0  0  0  0
  158.7810  210.8050  155.3980 C   0  0  0  0  0  2  0  0  0  0  0  0
  157.4050  211.0540  155.3700 O   0  0  0  0  0  0  0  0  0  0  0  0
  158.0380  212.6210  153.1870 C   0  0  0  0  0  2  0  0  0  0  0  0
  159.9790  212.0990  152.0640 C   0  0  0  0  0  2  0  0  0  0  0  0
  160.3360  213.3860  149.9830 C   0  0  0  0  0  1  0  0  0  0  0  0
  159.8480  213.4610  151.4140 C   0  0  0  0  0  2  0  0  0  0  0  0
  161.2110  206.4760  153.6840 C   0  0  0  0  0  2  0  0  0  0  0  0
  162.2620  206.3570  152.7560 O   0  0  0  0  0  0  0  0  0  0  0  0
  161.1420  206.2850  150.6000 C   0  0  0  0  0  3  0  0  0  0  0  0
  160.7740  203.3180  151.3110 C   0  0  0  0  0  3  0  0  0  0  0  0
  160.8310  205.7500  149.4210 C   0  0  0  0  0  3  0  0  0  0  0  0
  161.8530  205.5300  151.6840 C   0  0  2  0  0  3  0  0  0  0  0  0
  161.0600  204.3500  149.0100 C   0  0  0  0  0  0  0  0  0  0  0  0
  160.9910  203.3000  149.8500 C   0  0  0  0  0  3  0  0  0  0  0  0
  161.1170  204.3050  152.1350 C   0  0  0  0  0  3  0  0  0  0  0  0
  161.2300  204.1150  147.6090 N   0  0  0  0  0  2  0  0  0  0  0  0
  162.4770  204.3480  146.8970 C   0  0  0  0  0  2  0  0  0  0  0  0
  162.3250  205.5560  145.9970 C   0  0  0  0  0  2  0  0  0  0  0  0
  160.6630  203.8180  144.7930 O   0  0  0  0  0  0  0  0  0  0  0  0
  161.5720  205.7500  143.2450 N   0  0  0  0  0  1  0  0  0  0  0  0
  161.0250  205.2760  144.8130 S   0  0  0  0  0  0  0  0  0  0  0  0
  159.8180  206.0880  145.1850 O   0  0  0  0  0  0  0  0  0  0  0  0
  1  5  2  0  0  0  0
  2  4  1  6  0  0  0
  2  3  1  0  0  0  0
  4  1  1  0  0  0  0
  5  3  1  0  0  0  0
  6  7  1  0  0  0  0
  7  2  1  0  0  0  0
  7 11  1  1  0  0  0
  8 10  2  0  0  0  0
  8  9  1  0  0  0  0
 12 11  1  0  0  0  0
 12  9  1  0  0  0  0
 13  6  1  0  0  0  0
 13  8  1  0  0  0  0
 14  6  1  0  0  0  0
 15 16  1  0  0  0  0
 16 14  1  0  0  0  0
 17  1  1  0  0  0  0
 18 17  1  0  0  0  0
 19 22  1  0  0  0  0
 20 25  2  0  0  0  0
 21 19  2  0  0  0  0
 22 25  1  0  0  0  0
 22 18  1  1  0  0  0
 23 21  1  0  0  0  0
 23 24  2  0  0  0  0
 24 20  1  0  0  0  0
 26 23  1  0  0  0  0
 27 26  1  0  0  0  0
 28 27  1  0  0  0  0
 29 31  2  0  0  0  0
 30 31  1  0  0  0  0
 31 32  2  0  0  0  0
 31 28  1  0  0  0  0
M  END
>  <MODEL>
2

>  <REMARK>
 VINA RESULT:      -7.5      2.196      2.984
  Name = 
  10 active torsions:
  status: ('A' for Active; 'I' for Inactive)
    1  A    between atoms: N_1  and  C_32
    2  A    between atoms: C_2  and  C_27
    3  A    between atoms: C_3  and  C_4
    4  A    between atoms: C_9  and  O_20
    5  A    between atoms: C_11  and  N_31
    6  A    between atoms: C_14  and  S_17
    7  A    between atoms: C_14  and  C_28
    8  A    between atoms: O_20  and  C_27
    9  A    between atoms: C_26  and  C_32
   10  A    between atoms: C_28  and  N_31
                            x       y       z     vdW  Elec       q    Type
                         _______ _______ _______ _____ _____    ______ ____

>  <TORSDO>
F 10

$$$$
=
 OpenBabel11072410313D

 32 34  0  0  1  0  0  0  0  0999 V2000
  160.9550  209.6920  152.6110 C   0  0  0  0  0  0  0  0  0  0  0  0
  160.1370  211.5180  153.6690 C   0  0  1  0  0  3  0  0  0  0  0  0
  160.5480  210.4770  154.5520 O   0  0  0  0  0  0  0  0  0  0  0  0
  160.4250  210.9530  152.3960 O   0  0  0  0  0  0  0  0  0  0  0  0
  161.0330  209.3950  153.8590 N   0  0  0  0  0  0  0  0  0  0  0  0
  158.3350  213.2440  153.9080 N   0  0  0  0  0  0  0  0  0  0  0  0
  158.6270  211.7940  153.8130 C   0  0  2  0  0  3  0  0  0  0  0  0
  156.3060  213.3330  155.2480 C   0  0  0  0  0  0  0  0  0  0  0  0
  156.3270  212.0150  155.9650 C   0  0  0  0  0  2  0  0  0  0  0  0
  155.8410  214.3160  155.7990 O   0  0  0  0  0  0  0  0  0  0  0  0
  158.1480  211.0700  155.0820 C   0  0  0  0  0  2  0  0  0  0  0  0
  156.7510  210.9890  155.1080 O   0  0  0  0  0  0  0  0  0  0  0  0
  156.8870  213.4550  153.8740 C   0  0  0  0  0  2  0  0  0  0  0  0
  158.8220  213.9320  152.7210 C   0  0  0  0  0  2  0  0  0  0  0  0
  158.7850  213.6800  150.2610 C   0  0  0  0  0  1  0  0  0  0  0  0
  157.9640  213.5640  151.5280 C   0  0  0  0  0  2  0  0  0  0  0  0
  161.3690  208.7660  151.5220 C   0  0  0  0  0  2  0  0  0  0  0  0
  162.1880  207.7500  152.0460 O   0  0  0  0  0  0  0  0  0  0  0  0
  160.8840  206.6510  150.3140 C   0  0  0  0  0  3  0  0  0  0  0  0
  161.1230  204.2310  152.1940 C   0  0  0  0  0  3  0  0  0  0  0  0
  160.5540  205.6400  149.5140 C   0  0  0  0  0  3  0  0  0  0  0  0
  161.8250  206.5080  151.4740 C   0  0  2  0  0  3  0  0  0  0  0  0
  160.9840  204.2340  149.6600 C   0  0  0  0  0  0  0  0  0  0  0  0
  161.1890  203.6310  150.8460 C   0  0  0  0  0  3  0  0  0  0  0  0
  161.3680  205.5060  152.4900 C   0  0  0  0  0  3  0  0  0  0  0  0
  161.0480  203.4580  148.4600 N   0  0  0  0  0  2  0  0  0  0  0  0
  161.9670  203.7360  147.3670 C   0  0  0  0  0  2  0  0  0  0  0  0
  161.1950  203.8030  146.0650 C   0  0  0  0  0  2  0  0  0  0  0  0
  161.7060  205.5060  144.0470 O   0  0  0  0  0  0  0  0  0  0  0  0
  162.1750  206.4610  146.4600 N   0  0  0  0  0  1  0  0  0  0  0  0
  161.1770  205.4740  145.4520 S   0  0  0  0  0  0  0  0  0  0  0  0
  159.7730  206.0060  145.4720 O   0  0  0  0  0  0  0  0  0  0  0  0
  1  5  2  0  0  0  0
  2  4  1  6  0  0  0
  2  7  1  0  0  0  0
  2  3  1  0  0  0  0
  4  1  1  0  0  0  0
  5  3  1  0  0  0  0
  7  6  1  0  0  0  0
  7 11  1  1  0  0  0
  8 10  2  0  0  0  0
  8  9  1  0  0  0  0
 11 12  1  0  0  0  0
 12  9  1  0  0  0  0
 13  6  1  0  0  0  0
 13  8  1  0  0  0  0
 14  6  1  0  0  0  0
 15 16  1  0  0  0  0
 16 14  1  0  0  0  0
 17 18  1  0  0  0  0
 17  1  1  0  0  0  0
 19 22  1  0  0  0  0
 20 25  2  0  0  0  0
 21 23  1  0  0  0  0
 21 19  2  0  0  0  0
 22 18  1  1  0  0  0
 22 25  1  0  0  0  0
 23 24  2  0  0  0  0
 24 20  1  0  0  0  0
 26 23  1  0  0  0  0
 27 26  1  0  0  0  0
 28 27  1  0  0  0  0
 29 31  2  0  0  0  0
 31 32  2  0  0  0  0
 31 28  1  0  0  0  0
 31 30  1  0  0  0  0
M  END
>  <MODEL>
3

>  <REMARK>
 VINA RESULT:      -7.4      2.216      2.992
  Name = 
  10 active torsions:
  status: ('A' for Active; 'I' for Inactive)
    1  A    between atoms: N_1  and  C_32
    2  A    between atoms: C_2  and  C_27
    3  A    between atoms: C_3  and  C_4
    4  A    between atoms: C_9  and  O_20
    5  A    between atoms: C_11  and  N_31
    6  A    between atoms: C_14  and  S_17
    7  A    between atoms: C_14  and  C_28
    8  A    between atoms: O_20  and  C_27
    9  A    between atoms: C_26  and  C_32
   10  A    between atoms: C_28  and  N_31
                            x       y       z     vdW  Elec       q    Type
                         _______ _______ _______ _____ _____    ______ ____

>  <TORSDO>
F 10

$$$$
=
 OpenBabel11072410313D

 32 34  0  0  1  0  0  0  0  0999 V2000
  160.8110  207.3610  154.8070 C   0  0  0  0  0  0  0  0  0  0  0  0
  160.7140  209.5730  155.2740 C   0  0  1  0  0  3  0  0  0  0  0  0
  160.3910  208.7360  156.3820 O   0  0  0  0  0  0  0  0  0  0  0  0
  160.9840  208.6180  154.2550 O   0  0  0  0  0  0  0  0  0  0  0  0
  160.4630  207.4070  156.0430 N   0  0  0  0  0  0  0  0  0  0  0  0
  159.7760  211.2490  153.6620 N   0  0  0  0  0  0  0  0  0  0  0  0
  159.5110  210.4580  154.8870 C   0  0  2  0  0  3  0  0  0  0  0  0
  158.4170  213.2430  153.9640 C   0  0  0  0  0  0  0  0  0  0  0  0
  158.2070  213.2770  155.4490 C   0  0  0  0  0  2  0  0  0  0  0  0
  158.5100  214.2880  153.3400 O   0  0  0  0  0  0  0  0  0  0  0  0
  159.2300  211.3930  156.0750 C   0  0  0  0  0  2  0  0  0  0  0  0
  157.9700  211.9880  155.9470 O   0  0  0  0  0  0  0  0  0  0  0  0
  158.5520  211.9360  153.2490 C   0  0  0  0  0  2  0  0  0  0  0  0
  160.0780  210.3600  152.5480 C   0  0  0  0  0  2  0  0  0  0  0  0
  162.0790  209.8410  151.1910 C   0  0  0  0  0  1  0  0  0  0  0  0
  161.1920  210.9530  151.7090 C   0  0  0  0  0  2  0  0  0  0  0  0
  160.9810  206.0890  154.0510 C   0  0  0  0  0  2  0  0  0  0  0  0
  162.0240  206.2280  153.1170 O   0  0  0  0  0  0  0  0  0  0  0  0
  161.0470  206.2420  150.8910 C   0  0  0  0  0  3  0  0  0  0  0  0
  160.8170  203.2160  151.3810 C   0  0  0  0  0  3  0  0  0  0  0  0
  160.8440  205.7720  149.6620 C   0  0  0  0  0  3  0  0  0  0  0  0
  161.7340  205.4550  151.9680 C   0  0  2  0  0  3  0  0  0  0  0  0
  161.1830  204.4190  149.1770 C   0  0  0  0  0  0  0  0  0  0  0  0
  161.1250  203.3110  149.9400 C   0  0  0  0  0  3  0  0  0  0  0  0
  161.0470  204.1620  152.2890 C   0  0  0  0  0  3  0  0  0  0  0  0
  161.4530  204.2920  147.7780 N   0  0  0  0  0  2  0  0  0  0  0  0
  162.3080  205.2050  147.0350 C   0  0  0  0  0  2  0  0  0  0  0  0
  162.4980  204.6830  145.6250 C   0  0  0  0  0  2  0  0  0  0  0  0
  161.5500  205.6180  143.2890 O   0  0  0  0  0  0  0  0  0  0  0  0
  160.1710  206.3330  145.4200 N   0  0  0  0  0  1  0  0  0  0  0  0
  161.0890  205.1050  144.6230 S   0  0  0  0  0  0  0  0  0  0  0  0
  160.2270  203.8910  144.4240 O   0  0  0  0  0  0  0  0  0  0  0  0
  1  5  2  0  0  0  0
  2  4  1  6  0  0  0
  2  3  1  0  0  0  0
  4  1  1  0  0  0  0
  5  3  1  0  0  0  0
  6  7  1  0  0  0  0
  7  2  1  0  0  0  0
  7 11  1  1  0  0  0
  8  9  1  0  0  0  0
  9 12  1  0  0  0  0
 10  8  2  0  0  0  0
 12 11  1  0  0  0  0
 13  6  1  0  0  0  0
 13  8  1  0  0  0  0
 14  6  1  0  0  0  0
 15 16  1  0  0  0  0
 16 14  1  0  0  0  0
 17  1  1  0  0  0  0
 18 17  1  0  0  0  0
 19 22  1  0  0  0  0
 20 25  2  0  0  0  0
 21 19  2  0  0  0  0
 22 25  1  0  0  0  0
 22 18  1  1  0  0  0
 23 21  1  0  0  0  0
 23 24  2  0  0  0  0
 24 20  1  0  0  0  0
 26 23  1  0  0  0  0
 27 26  1  0  0  0  0
 28 27  1  0  0  0  0
 29 31  2  0  0  0  0
 31 30  1  0  0  0  0
 31 28  1  0  0  0  0
 32 31  2  0  0  0  0
M  END
>  <MODEL>
4

>  <REMARK>
 VINA RESULT:      -7.3      1.881      3.102
  Name = 
  10 active torsions:
  status: ('A' for Active; 'I' for Inactive)
    1  A    between atoms: N_1  and  C_32
    2  A    between atoms: C_2  and  C_27
    3  A    between atoms: C_3  and  C_4
    4  A    between atoms: C_9  and  O_20
    5  A    between atoms: C_11  and  N_31
    6  A    between atoms: C_14  and  S_17
    7  A    between atoms: C_14  and  C_28
    8  A    between atoms: O_20  and  C_27
    9  A    between atoms: C_26  and  C_32
   10  A    between atoms: C_28  and  N_31
                            x       y       z     vdW  Elec       q    Type
                         _______ _______ _______ _____ _____    ______ ____

>  <TORSDO>
F 10

$$$$
=
 OpenBabel11072410313D

 32 34  0  0  1  0  0  0  0  0999 V2000
  161.4780  208.8760  152.5740 C   0  0  0  0  0  0  0  0  0  0  0  0
  161.1810  210.6490  153.9490 C   0  0  1  0  0  3  0  0  0  0  0  0
  160.2380  209.5980  154.1520 O   0  0  0  0  0  0  0  0  0  0  0  0
  161.9800  210.1250  152.8960 O   0  0  0  0  0  0  0  0  0  0  0  0
  160.4620  208.5510  153.2920 N   0  0  0  0  0  0  0  0  0  0  0  0
  159.3160  212.2690  154.3740 N   0  0  0  0  0  0  0  0  0  0  0  0
  160.4710  211.9430  153.5040 C   0  0  2  0  0  3  0  0  0  0  0  0
  157.8020  213.4640  152.8910 C   0  0  0  0  0  0  0  0  0  0  0  0
  158.2530  213.0180  151.5310 C   0  0  0  0  0  2  0  0  0  0  0  0
  156.6230  213.7010  153.0930 O   0  0  0  0  0  0  0  0  0  0  0  0
  160.0030  211.7330  152.0540 C   0  0  0  0  0  2  0  0  0  0  0  0
  159.6520  212.9540  151.4670 O   0  0  0  0  0  0  0  0  0  0  0  0
  158.7870  213.5850  154.0120 C   0  0  0  0  0  2  0  0  0  0  0  0
  159.7570  212.4310  155.7530 C   0  0  0  0  0  2  0  0  0  0  0  0
  157.6190  211.2010  155.9270 C   0  0  0  0  0  1  0  0  0  0  0  0
  158.8680  211.6200  156.6730 C   0  0  0  0  0  2  0  0  0  0  0  0
  162.0320  208.0080  151.4990 C   0  0  0  0  0  2  0  0  0  0  0  0
  162.4980  206.8020  152.0540 O   0  0  0  0  0  0  0  0  0  0  0  0
  161.2340  206.1390  150.0870 C   0  0  0  0  0  3  0  0  0  0  0  0
  160.7820  203.5660  151.7060 C   0  0  0  0  0  3  0  0  0  0  0  0
  160.8210  205.2860  149.1510 C   0  0  0  0  0  3  0  0  0  0  0  0
  161.9810  205.7120  151.3160 C   0  0  2  0  0  3  0  0  0  0  0  0
  160.9590  203.8160  149.1880 C   0  0  0  0  0  0  0  0  0  0  0  0
  160.8990  203.0840  150.3160 C   0  0  0  0  0  3  0  0  0  0  0  0
  161.2230  204.7360  152.1630 C   0  0  0  0  0  3  0  0  0  0  0  0
  161.0230  203.1490  147.9230 N   0  0  0  0  0  2  0  0  0  0  0  0
  161.9890  203.4780  146.8860 C   0  0  0  0  0  2  0  0  0  0  0  0
  161.2710  203.6450  145.5630 C   0  0  0  0  0  2  0  0  0  0  0  0
  162.6600  205.9480  145.5590 O   0  0  0  0  0  0  0  0  0  0  0  0
  160.0370  206.2250  145.5510 N   0  0  0  0  0  1  0  0  0  0  0  0
  161.4090  205.3300  145.0030 S   0  0  0  0  0  0  0  0  0  0  0  0
  161.4570  205.3620  143.5020 O   0  0  0  0  0  0  0  0  0  0  0  0
  1  4  1  0  0  0  0
  1  5  2  0  0  0  0
  2  4  1  6  0  0  0
  2  3  1  0  0  0  0
  5  3  1  0  0  0  0
  6 14  1  0  0  0  0
  7 11  1  6  0  0  0
  7  2  1  0  0  0  0
  7  6  1  0  0  0  0
  8 10  2  0  0  0  0
  8 13  1  0  0  0  0
  9  8  1  0  0  0  0
 12  9  1  0  0  0  0
 12 11  1  0  0  0  0
 13  6  1  0  0  0  0
 14 16  1  0  0  0  0
 15 16  1  0  0  0  0
 17 18  1  0  0  0  0
 17  1  1  0  0  0  0
 19 22  1  0  0  0  0
 20 25  2  0  0  0  0
 21 23  1  0  0  0  0
 21 19  2  0  0  0  0
 22 18  1  1  0  0  0
 22 25  1  0  0  0  0
 23 24  2  0  0  0  0
 24 20  1  0  0  0  0
 26 23  1  0  0  0  0
 27 26  1  0  0  0  0
 28 27  1  0  0  0  0
 31 30  1  0  0  0  0
 31 29  2  0  0  0  0
 31 28  1  0  0  0  0
 32 31  2  0  0  0  0
M  END
>  <MODEL>
5

>  <REMARK>
 VINA RESULT:      -7.2      1.714      2.566
  Name = 
  10 active torsions:
  status: ('A' for Active; 'I' for Inactive)
    1  A    between atoms: N_1  and  C_32
    2  A    between atoms: C_2  and  C_27
    3  A    between atoms: C_3  and  C_4
    4  A    between atoms: C_9  and  O_20
    5  A    between atoms: C_11  and  N_31
    6  A    between atoms: C_14  and  S_17
    7  A    between atoms: C_14  and  C_28
    8  A    between atoms: O_20  and  C_27
    9  A    between atoms: C_26  and  C_32
   10  A    between atoms: C_28  and  N_31
                            x       y       z     vdW  Elec       q    Type
                         _______ _______ _______ _____ _____    ______ ____

>  <TORSDO>
F 10

$$$$
=
 OpenBabel11072410313D

 32 34  0  0  1  0  0  0  0  0999 V2000
  161.5790  204.3190  151.6440 C   0  0  0  0  0  0  0  0  0  0  0  0
  160.5120  203.4910  149.8280 C   0  0  1  0  0  3  0  0  0  0  0  0
  160.9330  202.4920  150.7540 O   0  0  0  0  0  0  0  0  0  0  0  0
  160.9610  204.6830  150.4600 O   0  0  0  0  0  0  0  0  0  0  0  0
  161.5760  203.0480  151.8330 N   0  0  0  0  0  0  0  0  0  0  0  0
  161.1560  204.5320  147.6420 N   0  0  0  0  0  0  0  0  0  0  0  0
  161.2050  203.3010  148.4640 C   0  0  2  0  0  3  0  0  0  0  0  0
  161.1670  203.6950  145.3570 C   0  0  0  0  0  0  0  0  0  0  0  0
  160.6830  202.2850  145.5210 C   0  0  0  0  0  2  0  0  0  0  0  0
  160.8800  204.3230  144.3520 O   0  0  0  0  0  0  0  0  0  0  0  0
  160.4880  202.1480  147.7420 C   0  0  0  0  0  2  0  0  0  0  0  0
  161.2490  201.6940  146.6600 O   0  0  0  0  0  0  0  0  0  0  0  0
  161.9690  204.3500  146.4390 C   0  0  0  0  0  2  0  0  0  0  0  0
  161.8050  205.6310  148.3450 C   0  0  0  0  0  2  0  0  0  0  0  0
  161.8750  208.0850  148.6410 C   0  0  0  0  0  1  0  0  0  0  0  0
  161.1990  206.9480  147.9060 C   0  0  0  0  0  2  0  0  0  0  0  0
  162.2040  205.2850  152.5880 C   0  0  0  0  0  2  0  0  0  0  0  0
  161.2710  205.6610  153.5720 O   0  0  0  0  0  0  0  0  0  0  0  0
  160.4310  207.5560  154.8400 C   0  0  0  0  0  3  0  0  0  0  0  0
  160.8690  209.0470  152.1880 C   0  0  0  0  0  3  0  0  0  0  0  0
  160.4020  208.8300  155.2260 C   0  0  0  0  0  3  0  0  0  0  0  0
  161.2220  207.0720  153.6620 C   0  0  2  0  0  3  0  0  0  0  0  0
  161.0640  209.9630  154.5460 C   0  0  0  0  0  0  0  0  0  0  0  0
  161.2210  210.0510  153.2120 C   0  0  0  0  0  3  0  0  0  0  0  0
  160.8320  207.7290  152.3730 C   0  0  0  0  0  3  0  0  0  0  0  0
  161.4270  211.0770  155.3690 N   0  0  0  0  0  2  0  0  0  0  0  0
  160.4910  211.7810  156.2310 C   0  0  0  0  0  2  0  0  0  0  0  0
  159.6950  212.7730  155.4080 C   0  0  0  0  0  2  0  0  0  0  0  0
  158.0220  211.4660  153.7570 O   0  0  0  0  0  0  0  0  0  0  0  0
  156.9300  213.4420  155.1200 N   0  0  0  0  0  1  0  0  0  0  0  0
  158.0610  212.1370  155.1000 S   0  0  0  0  0  0  0  0  0  0  0  0
  157.6950  211.1460  156.1670 O   0  0  0  0  0  0  0  0  0  0  0  0
  1  5  2  0  0  0  0
  1 17  1  0  0  0  0
  2  4  1  1  0  0  0
  2  3  1  0  0  0  0
  3  5  1  0  0  0  0
  4  1  1  0  0  0  0
  6 14  1  0  0  0  0
  6  7  1  0  0  0  0
  7 11  1  6  0  0  0
  7  2  1  0  0  0  0
  8  9  1  0  0  0  0
  8 13  1  0  0  0  0
  9 12  1  0  0  0  0
 10  8  2  0  0  0  0
 12 11  1  0  0  0  0
 13  6  1  0  0  0  0
 16 14  1  0  0  0  0
 16 15  1  0  0  0  0
 17 18  1  0  0  0  0
 19 21  2  0  0  0  0
 20 25  2  0  0  0  0
 20 24  1  0  0  0  0
 22 18  1  6  0  0  0
 22 19  1  0  0  0  0
 23 21  1  0  0  0  0
 23 26  1  0  0  0  0
 24 23  2  0  0  0  0
 25 22  1  0  0  0  0
 26 27  1  0  0  0  0
 28 27  1  0  0  0  0
 29 31  2  0  0  0  0
 31 30  1  0  0  0  0
 31 28  1  0  0  0  0
 31 32  2  0  0  0  0
M  END
>  <MODEL>
6

>  <REMARK>
 VINA RESULT:      -7.1      3.192      9.865
  Name = 
  10 active torsions:
  status: ('A' for Active; 'I' for Inactive)
    1  A    between atoms: N_1  and  C_32
    2  A    between atoms: C_2  and  C_27
    3  A    between atoms: C_3  and  C_4
    4  A    between atoms: C_9  and  O_20
    5  A    between atoms: C_11  and  N_31
    6  A    between atoms: C_14  and  S_17
    7  A    between atoms: C_14  and  C_28
    8  A    between atoms: O_20  and  C_27
    9  A    between atoms: C_26  and  C_32
   10  A    between atoms: C_28  and  N_31
                            x       y       z     vdW  Elec       q    Type
                         _______ _______ _______ _____ _____    ______ ____

>  <TORSDO>
F 10

$$$$
=
 OpenBabel11072410313D

 32 34  0  0  1  0  0  0  0  0999 V2000
  161.4600  205.0330  151.9390 C   0  0  0  0  0  0  0  0  0  0  0  0
  160.6250  204.5080  149.9020 C   0  0  1  0  0  3  0  0  0  0  0  0
  161.1780  203.3960  150.6020 O   0  0  0  0  0  0  0  0  0  0  0  0
  160.8350  205.5690  150.8260 O   0  0  0  0  0  0  0  0  0  0  0  0
  161.6720  203.7710  151.8280 N   0  0  0  0  0  0  0  0  0  0  0  0
  160.8110  205.8910  147.8200 N   0  0  0  0  0  0  0  0  0  0  0  0
  161.3930  204.7670  148.5910 C   0  0  2  0  0  3  0  0  0  0  0  0
  161.3290  205.3310  145.5110 C   0  0  0  0  0  0  0  0  0  0  0  0
  161.5590  203.8490  145.5750 C   0  0  0  0  0  2  0  0  0  0  0  0
  160.8310  205.8250  144.5130 O   0  0  0  0  0  0  0  0  0  0  0  0
  161.3400  203.4710  147.7650 C   0  0  0  0  0  2  0  0  0  0  0  0
  162.2790  203.5070  146.7280 O   0  0  0  0  0  0  0  0  0  0  0  0
  161.6730  206.2010  146.6790 C   0  0  0  0  0  2  0  0  0  0  0  0
  160.8300  207.1090  148.6190 C   0  0  0  0  0  2  0  0  0  0  0  0
  161.9840  209.2930  148.7320 C   0  0  0  0  0  1  0  0  0  0  0  0
  162.1560  207.8180  148.4410 C   0  0  0  0  0  2  0  0  0  0  0  0
  161.8700  205.8300  153.1280 C   0  0  0  0  0  2  0  0  0  0  0  0
  160.7310  206.2090  153.8630 O   0  0  0  0  0  0  0  0  0  0  0  0
  161.2350  208.3540  152.8400 C   0  0  0  0  0  3  0  0  0  0  0  0
  161.3500  209.2980  155.7630 C   0  0  0  0  0  3  0  0  0  0  0  0
  161.1530  209.6770  152.7120 C   0  0  0  0  0  3  0  0  0  0  0  0
  160.7290  207.6120  154.0400 C   0  0  2  0  0  3  0  0  0  0  0  0
  160.6300  210.6210  153.7210 C   0  0  0  0  0  0  0  0  0  0  0  0
  160.7650  210.4500  155.0500 C   0  0  0  0  0  3  0  0  0  0  0  0
  161.3750  208.0420  155.3220 C   0  0  0  0  0  3  0  0  0  0  0  0
  160.0740  211.8430  153.2250 N   0  0  0  0  0  2  0  0  0  0  0  0
  158.7390  211.9490  152.6570 C   0  0  0  0  0  2  0  0  0  0  0  0
  158.0280  213.1440  153.2590 C   0  0  0  0  0  2  0  0  0  0  0  0
  155.5520  213.0610  154.3030 O   0  0  0  0  0  0  0  0  0  0  0  0
  157.5000  213.3150  156.0640 N   0  0  0  0  0  1  0  0  0  0  0  0
  156.9590  212.6150  154.5800 S   0  0  0  0  0  0  0  0  0  0  0  0
  156.9970  211.1180  154.6940 O   0  0  0  0  0  0  0  0  0  0  0  0
  1 17  1  0  0  0  0
  2  3  1  1  0  0  0
  2  4  1  0  0  0  0
  3  5  1  0  0  0  0
  4  1  1  0  0  0  0
  5  1  2  0  0  0  0
  6  7  1  0  0  0  0
  6 14  1  0  0  0  0
  7 11  1  6  0  0  0
  7  2  1  0  0  0  0
  8  9  1  0  0  0  0
  8 13  1  0  0  0  0
  9 12  1  0  0  0  0
 10  8  2  0  0  0  0
 12 11  1  0  0  0  0
 13  6  1  0  0  0  0
 16 14  1  0  0  0  0
 16 15  1  0  0  0  0
 17 18  1  0  0  0  0
 19 22  1  0  0  0  0
 21 19  2  0  0  0  0
 21 23  1  0  0  0  0
 22 18  1  6  0  0  0
 22 25  1  0  0  0  0
 23 24  2  0  0  0  0
 24 20  1  0  0  0  0
 25 20  2  0  0  0  0
 26 23  1  0  0  0  0
 27 26  1  0  0  0  0
 27 28  1  0  0  0  0
 28 31  1  0  0  0  0
 29 31  2  0  0  0  0
 31 32  2  0  0  0  0
 31 30  1  0  0  0  0
M  END
>  <MODEL>
7

>  <REMARK>
 VINA RESULT:      -7.1      3.346      9.405
  Name = 
  10 active torsions:
  status: ('A' for Active; 'I' for Inactive)
    1  A    between atoms: N_1  and  C_32
    2  A    between atoms: C_2  and  C_27
    3  A    between atoms: C_3  and  C_4
    4  A    between atoms: C_9  and  O_20
    5  A    between atoms: C_11  and  N_31
    6  A    between atoms: C_14  and  S_17
    7  A    between atoms: C_14  and  C_28
    8  A    between atoms: O_20  and  C_27
    9  A    between atoms: C_26  and  C_32
   10  A    between atoms: C_28  and  N_31
                            x       y       z     vdW  Elec       q    Type
                         _______ _______ _______ _____ _____    ______ ____

>  <TORSDO>
F 10

$$$$
=
 OpenBabel11072410313D

 32 34  0  0  1  0  0  0  0  0999 V2000
  161.5450  207.3960  150.1540 C   0  0  0  0  0  0  0  0  0  0  0  0
  162.0640  207.9380  152.2890 C   0  0  1  0  0  3  0  0  0  0  0  0
  162.1410  206.5410  152.0140 O   0  0  0  0  0  0  0  0  0  0  0  0
  161.6660  208.4620  151.0280 O   0  0  0  0  0  0  0  0  0  0  0  0
  161.8150  206.2690  150.7090 N   0  0  0  0  0  0  0  0  0  0  0  0
  161.2380  209.5140  154.0540 N   0  0  0  0  0  0  0  0  0  0  0  0
  160.9950  208.2270  153.3620 C   0  0  2  0  0  3  0  0  0  0  0  0
  160.2950  209.1600  156.2680 C   0  0  0  0  0  0  0  0  0  0  0  0
  160.2810  207.6650  156.3850 C   0  0  0  0  0  2  0  0  0  0  0  0
  160.4890  209.8450  157.2590 O   0  0  0  0  0  0  0  0  0  0  0  0
  161.0310  207.0650  154.3680 C   0  0  0  0  0  2  0  0  0  0  0  0
  159.8880  207.0750  155.1750 O   0  0  0  0  0  0  0  0  0  0  0  0
  160.1100  209.8170  154.9360 C   0  0  0  0  0  2  0  0  0  0  0  0
  161.2390  210.6080  153.0920 C   0  0  0  0  0  2  0  0  0  0  0  0
  159.8050  212.3720  152.1200 C   0  0  0  0  0  1  0  0  0  0  0  0
  159.8140  211.0010  152.7620 C   0  0  0  0  0  2  0  0  0  0  0  0
  161.1250  207.5280  148.7320 C   0  0  0  0  0  2  0  0  0  0  0  0
  162.1820  207.1470  147.8850 O   0  0  0  0  0  0  0  0  0  0  0  0
  162.8490  205.1210  146.7220 C   0  0  0  0  0  3  0  0  0  0  0  0
  160.3950  205.7580  144.9840 C   0  0  0  0  0  3  0  0  0  0  0  0
  162.6370  203.9630  146.1000 C   0  0  0  0  0  3  0  0  0  0  0  0
  161.7550  206.0950  147.0420 C   0  0  2  0  0  3  0  0  0  0  0  0
  161.3440  203.4790  145.5730 C   0  0  0  0  0  0  0  0  0  0  0  0
  160.3960  204.2830  145.0540 C   0  0  0  0  0  3  0  0  0  0  0  0
  161.0150  206.5770  145.8310 C   0  0  0  0  0  3  0  0  0  0  0  0
  161.1750  202.0600  145.5000 N   0  0  0  0  0  2  0  0  0  0  0  0
  160.4020  201.2890  146.4610 C   0  0  0  0  0  2  0  0  0  0  0  0
  161.2690  200.9620  147.6590 C   0  0  0  0  0  2  0  0  0  0  0  0
  159.0780  201.3280  149.1750 O   0  0  0  0  0  0  0  0  0  0  0  0
  160.7670  203.3540  149.1430 N   0  0  0  0  0  1  0  0  0  0  0  0
  160.5470  201.6410  149.1380 S   0  0  0  0  0  0  0  0  0  0  0  0
  161.2160  201.0500  150.3460 O   0  0  0  0  0  0  0  0  0  0  0  0
  1  5  2  0  0  0  0
  1  4  1  0  0  0  0
  2  4  1  6  0  0  0
  2  7  1  0  0  0  0
  3  2  1  0  0  0  0
  5  3  1  0  0  0  0
  6 13  1  0  0  0  0
  7  6  1  0  0  0  0
  7 11  1  1  0  0  0
  8  9  1  0  0  0  0
  8 10  2  0  0  0  0
 11 12  1  0  0  0  0
 12  9  1  0  0  0  0
 13  8  1  0  0  0  0
 14  6  1  0  0  0  0
 15 16  1  0  0  0  0
 16 14  1  0  0  0  0
 17  1  1  0  0  0  0
 18 17  1  0  0  0  0
 19 22  1  0  0  0  0
 20 24  1  0  0  0  0
 20 25  2  0  0  0  0
 21 19  2  0  0  0  0
 22 18  1  6  0  0  0
 23 21  1  0  0  0  0
 24 23  2  0  0  0  0
 25 22  1  0  0  0  0
 26 23  1  0  0  0  0
 26 27  1  0  0  0  0
 27 28  1  0  0  0  0
 28 31  1  0  0  0  0
 31 30  1  0  0  0  0
 31 29  2  0  0  0  0
 31 32  2  0  0  0  0
M  END
>  <MODEL>
8

>  <REMARK>
 VINA RESULT:      -7.1      2.760      4.125
  Name = 
  10 active torsions:
  status: ('A' for Active; 'I' for Inactive)
    1  A    between atoms: N_1  and  C_32
    2  A    between atoms: C_2  and  C_27
    3  A    between atoms: C_3  and  C_4
    4  A    between atoms: C_9  and  O_20
    5  A    between atoms: C_11  and  N_31
    6  A    between atoms: C_14  and  S_17
    7  A    between atoms: C_14  and  C_28
    8  A    between atoms: O_20  and  C_27
    9  A    between atoms: C_26  and  C_32
   10  A    between atoms: C_28  and  N_31
                            x       y       z     vdW  Elec       q    Type
                         _______ _______ _______ _____ _____    ______ ____

>  <TORSDO>
F 10

$$$$
=
 OpenBabel11072410313D

 32 34  0  0  1  0  0  0  0  0999 V2000
  161.0570  207.8000  153.3760 C   0  0  0  0  0  0  0  0  0  0  0  0
  160.9950  209.5060  154.8620 C   0  0  1  0  0  3  0  0  0  0  0  0
  160.7130  208.2320  155.4360 O   0  0  0  0  0  0  0  0  0  0  0  0
  161.2160  209.1700  153.4980 O   0  0  0  0  0  0  0  0  0  0  0  0
  160.7620  207.2360  154.4920 N   0  0  0  0  0  0  0  0  0  0  0  0
  160.0840  211.8140  154.5080 N   0  0  0  0  0  0  0  0  0  0  0  0
  159.7840  210.4500  155.0030 C   0  0  2  0  0  3  0  0  0  0  0  0
  158.6410  213.2400  155.8500 C   0  0  0  0  0  0  0  0  0  0  0  0
  158.3520  212.3830  157.0480 C   0  0  0  0  0  2  0  0  0  0  0  0
  158.7280  214.4500  155.9770 O   0  0  0  0  0  0  0  0  0  0  0  0
  159.4080  210.4940  156.4930 C   0  0  0  0  0  2  0  0  0  0  0  0
  158.1360  211.0510  156.6650 O   0  0  0  0  0  0  0  0  0  0  0  0
  158.8590  212.6150  154.5080 C   0  0  0  0  0  2  0  0  0  0  0  0
  160.4750  211.7630  153.1050 C   0  0  0  0  0  2  0  0  0  0  0  0
  159.9430  213.0140  151.0400 C   0  0  0  0  0  1  0  0  0  0  0  0
  159.3550  212.3070  152.2420 C   0  0  0  0  0  2  0  0  0  0  0  0
  161.1870  207.0580  152.0920 C   0  0  0  0  0  2  0  0  0  0  0  0
  162.0570  205.9660  152.2590 O   0  0  0  0  0  0  0  0  0  0  0  0
  160.9380  205.4290  150.1690 C   0  0  0  0  0  3  0  0  0  0  0  0
  160.7370  202.6330  151.4300 C   0  0  0  0  0  3  0  0  0  0  0  0
  160.6550  204.6660  149.1160 C   0  0  0  0  0  3  0  0  0  0  0  0
  161.6920  204.9310  151.3670 C   0  0  2  0  0  3  0  0  0  0  0  0
  160.9600  203.2270  148.9730 C   0  0  0  0  0  0  0  0  0  0  0  0
  160.9510  202.3520  149.9960 C   0  0  0  0  0  3  0  0  0  0  0  0
  161.0260  203.7750  152.0490 C   0  0  0  0  0  3  0  0  0  0  0  0
  161.1390  202.7420  147.6390 N   0  0  0  0  0  2  0  0  0  0  0  0
  161.9810  203.3960  146.6490 C   0  0  0  0  0  2  0  0  0  0  0  0
  161.1790  203.6420  145.3880 C   0  0  0  0  0  2  0  0  0  0  0  0
  161.5260  205.5930  143.5700 O   0  0  0  0  0  0  0  0  0  0  0  0
  162.2930  206.1990  146.0200 N   0  0  0  0  0  1  0  0  0  0  0  0
  161.1540  205.3810  145.0100 S   0  0  0  0  0  0  0  0  0  0  0  0
  159.7810  205.9350  145.2600 O   0  0  0  0  0  0  0  0  0  0  0  0
  1  4  1  0  0  0  0
  1  5  2  0  0  0  0
  2  4  1  6  0  0  0
  2  7  1  0  0  0  0
  2  3  1  0  0  0  0
  5  3  1  0  0  0  0
  6  7  1  0  0  0  0
  7 11  1  1  0  0  0
  8 10  2  0  0  0  0
  8  9  1  0  0  0  0
 11 12  1  0  0  0  0
 12  9  1  0  0  0  0
 13  6  1  0  0  0  0
 13  8  1  0  0  0  0
 14  6  1  0  0  0  0
 15 16  1  0  0  0  0
 16 14  1  0  0  0  0
 17 18  1  0  0  0  0
 17  1  1  0  0  0  0
 19 22  1  0  0  0  0
 20 25  2  0  0  0  0
 21 19  2  0  0  0  0
 22 25  1  0  0  0  0
 22 18  1  1  0  0  0
 23 21  1  0  0  0  0
 23 24  2  0  0  0  0
 24 20  1  0  0  0  0
 26 23  1  0  0  0  0
 27 26  1  0  0  0  0
 28 27  1  0  0  0  0
 29 31  2  0  0  0  0
 31 32  2  0  0  0  0
 31 28  1  0  0  0  0
 31 30  1  0  0  0  0
M  END
>  <MODEL>
9

>  <REMARK>
 VINA RESULT:      -7.0      1.767      2.417
  Name = 
  10 active torsions:
  status: ('A' for Active; 'I' for Inactive)
    1  A    between atoms: N_1  and  C_32
    2  A    between atoms: C_2  and  C_27
    3  A    between atoms: C_3  and  C_4
    4  A    between atoms: C_9  and  O_20
    5  A    between atoms: C_11  and  N_31
    6  A    between atoms: C_14  and  S_17
    7  A    between atoms: C_14  and  C_28
    8  A    between atoms: O_20  and  C_27
    9  A    between atoms: C_26  and  C_32
   10  A    between atoms: C_28  and  N_31
                            x       y       z     vdW  Elec       q    Type
                         _______ _______ _______ _____ _____    ______ ____

>  <TORSDO>
F 10

$$$$
