=
 OpenBabel11072412183D

 38 43  0  0  1  0  0  0  0  0999 V2000
  160.5000  206.9550  150.1480 C   0  0  0  0  0  3  0  0  0  0  0  0
  158.2500  212.4710  151.6230 C   0  0  0  0  0  2  0  0  0  0  0  0
  163.0280  207.4300  147.6950 O   0  0  0  0  0  0  0  0  0  0  0  0
  162.4980  210.2780  152.6540 C   0  0  0  0  0  3  0  0  0  0  0  0
  158.7380  209.5240  153.8040 C   0  0  0  0  0  0  0  0  0  0  0  0
  158.4600  213.5510  156.2110 C   0  0  0  0  0  0  0  0  0  0  0  0
  162.3090  207.6570  148.7020 C   0  0  0  0  0  0  0  0  0  0  0  0
  162.0240  210.2680  151.3380 C   0  0  0  0  0  0  0  0  0  0  0  0
  158.5700  209.6040  155.1870 C   0  0  0  0  0  3  0  0  0  0  0  0
  161.9140  208.9970  150.6310 C   0  0  0  0  0  0  0  0  0  0  0  0
  162.0280  211.2340  153.5570 C   0  0  0  0  0  3  0  0  0  0  0  0
  159.7020  208.6390  153.2560 C   0  0  0  0  0  0  0  0  0  0  0  0
  157.9220  212.9070  155.0960 C   0  0  0  0  0  3  0  0  0  0  0  0
  160.3290  207.9920  155.5390 C   0  0  0  0  0  0  0  0  0  0  0  0
  159.6000  213.1340  151.3290 C   0  0  0  0  0  2  0  0  0  0  0  0
  159.3650  208.8580  156.0450 C   0  0  0  0  0  3  0  0  0  0  0  0
  160.7230  212.2540  151.7810 C   0  0  0  0  0  0  0  0  0  0  0  0
  158.7730  212.4870  154.0720 C   0  0  0  0  0  0  0  0  0  0  0  0
  159.8320  208.5490  151.8520 O   0  0  0  0  0  0  0  0  0  0  0  0
  159.8040  213.7520  156.3040 N   0  0  0  0  0  0  0  0  0  0  0  0
  160.6580  213.3470  155.3270 C   0  0  0  0  0  3  0  0  0  0  0  0
  161.1680  211.2760  150.9010 C   0  0  0  0  0  3  0  0  0  0  0  0
  160.1620  212.7240  154.1770 C   0  0  0  0  0  0  0  0  0  0  0  0
  161.0710  212.1720  153.1490 C   0  0  0  0  0  0  0  0  0  0  0  0
  158.2480  211.7970  152.9210 N   0  0  0  0  0  0  0  0  0  0  0  0
  161.1710  206.7810  149.0090 C   0  0  0  0  0  3  0  0  0  0  0  0
  160.4910  207.8450  154.1380 C   0  0  0  0  0  0  0  0  0  0  0  0
  160.9520  207.9540  151.1800 C   0  0  1  0  0  3  0  0  0  0  0  0
  162.5450  208.8150  149.5090 N   0  0  0  0  0  0  0  0  0  0  0  0
  157.6050  213.9880  157.2590 N   0  0  0  0  0  1  0  0  0  0  0  0
  157.8430  210.3840  152.9510 C   0  0  0  0  0  2  0  0  0  0  0  0
  161.1680  207.3150  156.4940 C   0  0  0  0  0  0  0  0  0  0  0  0
  161.8400  206.7670  157.2600 N   0  0  0  0  0  0  0  0  0  0  0  0
  161.4170  206.9390  153.5950 O   0  0  0  0  0  0  0  0  0  0  0  0
  161.3510  205.5230  153.7390 C   0  0  0  0  0  2  0  0  0  0  0  0
  161.6670  204.8350  152.4180 C   0  0  0  0  0  2  0  0  0  0  0  0
  161.3400  202.6490  151.5110 O   0  0  0  0  0  1  0  0  0  0  0  0
  160.6870  203.7060  152.1440 C   0  0  0  0  0  2  0  0  0  0  0  0
  2 25  1  0  0  0  0
  3  7  2  0  0  0  0
  4 11  1  0  0  0  0
  5  9  1  0  0  0  0
  6 20  1  0  0  0  0
  6 30  1  0  0  0  0
  7 26  1  0  0  0  0
  7 29  1  0  0  0  0
  8  4  2  0  0  0  0
  9 16  2  0  0  0  0
 10 28  1  0  0  0  0
 10  8  1  0  0  0  0
 12  5  2  0  0  0  0
 12 27  1  0  0  0  0
 13  6  2  0  0  0  0
 14 16  1  0  0  0  0
 14 32  1  0  0  0  0
 15  2  1  0  0  0  0
 15 17  1  0  0  0  0
 17 24  1  0  0  0  0
 18 23  2  0  0  0  0
 18 13  1  0  0  0  0
 19 12  1  0  0  0  0
 21 20  2  0  0  0  0
 22  8  1  0  0  0  0
 22 17  2  0  0  0  0
 23 21  1  0  0  0  0
 24 11  2  0  0  0  0
 24 23  1  0  0  0  0
 25 31  1  0  0  0  0
 25 18  1  0  0  0  0
 26  1  2  0  0  0  0
 27 14  2  0  0  0  0
 28  1  1  6  0  0  0
 28 19  1  0  0  0  0
 29 10  2  0  0  0  0
 31  5  1  0  0  0  0
 32 33  3  0  0  0  0
 34 35  1  0  0  0  0
 34 27  1  0  0  0  0
 36 35  1  0  0  0  0
 37 38  1  0  0  0  0
 38 36  1  0  0  0  0
M  END
>  <MODEL>
1

>  <REMARK>
 VINA RESULT:       6.8      0.000      0.000
  Name = 
  5 active torsions:
  status: ('A' for Active; 'I' for Inactive)
    1  A    between atoms: C_7  and  C_20
    2  A    between atoms: C_12  and  C_18
    3  A    between atoms: C_13  and  C_20
    4  A    between atoms: C_13  and  O_23
    5  A    between atoms: O_23  and  C_33
                            x       y       z     vdW  Elec       q    Type
                         _______ _______ _______ _____ _____    ______ ____

>  <TORSDO>
F 5

$$$$
=
 OpenBabel11072412183D

 38 43  0  0  1  0  0  0  0  0999 V2000
  163.1560  206.1310  151.6900 C   0  0  0  0  0  3  0  0  0  0  0  0
  162.2040  208.8980  157.0840 C   0  0  0  0  0  2  0  0  0  0  0  0
  161.5940  202.9400  151.8110 O   0  0  0  0  0  0  0  0  0  0  0  0
  159.2390  207.9600  153.3100 C   0  0  0  0  0  3  0  0  0  0  0  0
  162.3740  210.4150  153.7150 C   0  0  0  0  0  0  0  0  0  0  0  0
  160.1050  213.1160  156.8210 C   0  0  0  0  0  0  0  0  0  0  0  0
  161.7840  204.1660  152.0230 C   0  0  0  0  0  0  0  0  0  0  0  0
  160.0610  206.9410  153.8040 C   0  0  0  0  0  0  0  0  0  0  0  0
  162.0440  211.7530  153.5000 C   0  0  0  0  0  3  0  0  0  0  0  0
  160.9260  206.2150  152.8830 C   0  0  0  0  0  0  0  0  0  0  0  0
  158.9370  209.0630  154.1100 C   0  0  0  0  0  3  0  0  0  0  0  0
  162.1170  209.4500  152.7080 C   0  0  0  0  0  0  0  0  0  0  0  0
  161.1920  212.2450  156.7210 C   0  0  0  0  0  3  0  0  0  0  0  0
  161.1440  211.2280  151.3250 C   0  0  0  0  0  0  0  0  0  0  0  0
  160.8700  208.1630  157.2600 C   0  0  0  0  0  2  0  0  0  0  0  0
  161.4230  212.1530  152.3260 C   0  0  0  0  0  3  0  0  0  0  0  0
  160.1590  208.0500  155.9480 C   0  0  0  0  0  0  0  0  0  0  0  0
  160.9790  210.9340  156.2920 C   0  0  0  0  0  0  0  0  0  0  0  0
  162.4910  208.1060  152.9330 O   0  0  0  0  0  0  0  0  0  0  0  0
  158.8550  212.6920  156.4880 N   0  0  0  0  0  0  0  0  0  0  0  0
  158.6190  211.4240  156.0590 C   0  0  0  0  0  3  0  0  0  0  0  0
  160.4850  206.9750  155.1310 C   0  0  0  0  0  3  0  0  0  0  0  0
  159.6710  210.5070  155.9710 C   0  0  0  0  0  0  0  0  0  0  0  0
  159.4680  209.1570  155.4030 C   0  0  0  0  0  0  0  0  0  0  0  0
  162.0850  210.0200  156.1530 N   0  0  0  0  0  0  0  0  0  0  0  0
  163.0260  204.8090  151.5750 C   0  0  0  0  0  3  0  0  0  0  0  0
  161.5140  209.8700  151.4870 C   0  0  0  0  0  0  0  0  0  0  0  0
  162.0160  206.9930  152.1610 C   0  0  1  0  0  3  0  0  0  0  0  0
  160.8280  204.9230  152.7720 N   0  0  0  0  0  0  0  0  0  0  0  0
  160.3070  214.4530  157.2610 N   0  0  0  0  0  1  0  0  0  0  0  0
  163.0290  210.0700  155.0270 C   0  0  0  0  0  2  0  0  0  0  0  0
  160.4260  211.7070  150.1720 C   0  0  0  0  0  0  0  0  0  0  0  0
  159.8470  212.0940  149.2480 N   0  0  0  0  0  0  0  0  0  0  0  0
  161.2970  208.9210  150.4730 O   0  0  0  0  0  0  0  0  0  0  0  0
  162.0760  208.8040  149.2870 C   0  0  0  0  0  2  0  0  0  0  0  0
  161.5320  207.6970  148.3950 C   0  0  0  0  0  2  0  0  0  0  0  0
  160.8040  205.5200  149.0600 O   0  0  0  0  0  1  0  0  0  0  0  0
  160.4820  206.8760  149.1260 C   0  0  0  0  0  2  0  0  0  0  0  0
  2 15  1  0  0  0  0
  3  7  2  0  0  0  0
  4  8  2  0  0  0  0
  4 11  1  0  0  0  0
  5 31  1  0  0  0  0
  6 30  1  0  0  0  0
  7 29  1  0  0  0  0
  8 22  1  0  0  0  0
  9  5  1  0  0  0  0
 10  8  1  0  0  0  0
 11 24  2  0  0  0  0
 12 19  1  0  0  0  0
 12  5  2  0  0  0  0
 13  6  1  0  0  0  0
 14 27  2  0  0  0  0
 14 16  1  0  0  0  0
 16  9  2  0  0  0  0
 17 15  1  0  0  0  0
 18 13  2  0  0  0  0
 20  6  2  0  0  0  0
 21 20  1  0  0  0  0
 22 17  2  0  0  0  0
 23 21  2  0  0  0  0
 23 18  1  0  0  0  0
 24 17  1  0  0  0  0
 24 23  1  0  0  0  0
 25 18  1  0  0  0  0
 25  2  1  0  0  0  0
 26  1  2  0  0  0  0
 26  7  1  0  0  0  0
 27 12  1  0  0  0  0
 28  1  1  1  0  0  0
 28 10  1  0  0  0  0
 28 19  1  0  0  0  0
 29 10  2  0  0  0  0
 31 25  1  0  0  0  0
 32 14  1  0  0  0  0
 33 32  3  0  0  0  0
 34 27  1  0  0  0  0
 35 34  1  0  0  0  0
 36 38  1  0  0  0  0
 36 35  1  0  0  0  0
 37 38  1  0  0  0  0
M  END
>  <MODEL>
2

>  <REMARK>
 VINA RESULT:       9.3      1.826      4.829
  Name = 
  5 active torsions:
  status: ('A' for Active; 'I' for Inactive)
    1  A    between atoms: C_7  and  C_20
    2  A    between atoms: C_12  and  C_18
    3  A    between atoms: C_13  and  C_20
    4  A    between atoms: C_13  and  O_23
    5  A    between atoms: O_23  and  C_33
                            x       y       z     vdW  Elec       q    Type
                         _______ _______ _______ _____ _____    ______ ____

>  <TORSDO>
F 5

$$$$
=
 OpenBabel11072412183D

 38 43  0  0  1  0  0  0  0  0999 V2000
  159.9020  208.4270  153.9490 C   0  0  0  0  0  3  0  0  0  0  0  0
  159.7700  203.8160  149.9010 C   0  0  0  0  0  2  0  0  0  0  0  0
  161.3850  207.2080  156.9410 O   0  0  0  0  0  0  0  0  0  0  0  0
  163.4260  206.5780  151.6100 C   0  0  0  0  0  3  0  0  0  0  0  0
  160.2910  207.4230  149.2690 C   0  0  0  0  0  0  0  0  0  0  0  0
  161.9080  204.7070  145.7910 C   0  0  0  0  0  0  0  0  0  0  0  0
  161.1650  207.3510  155.7110 C   0  0  0  0  0  0  0  0  0  0  0  0
  162.5150  206.0160  152.5100 C   0  0  0  0  0  0  0  0  0  0  0  0
  160.6670  207.8960  148.0120 C   0  0  0  0  0  3  0  0  0  0  0  0
  161.8460  206.8780  153.4770 C   0  0  0  0  0  0  0  0  0  0  0  0
  163.5690  206.0350  150.3310 C   0  0  0  0  0  3  0  0  0  0  0  0
  160.7380  208.0870  150.4400 C   0  0  0  0  0  0  0  0  0  0  0  0
  160.8580  204.7980  146.7060 C   0  0  0  0  0  3  0  0  0  0  0  0
  161.9820  209.6510  149.0160 C   0  0  0  0  0  0  0  0  0  0  0  0
  161.0350  203.2040  150.5120 C   0  0  0  0  0  2  0  0  0  0  0  0
  161.5140  208.9870  147.8860 C   0  0  0  0  0  3  0  0  0  0  0  0
  161.9950  204.2800  150.9140 C   0  0  0  0  0  0  0  0  0  0  0  0
  161.1440  204.8360  148.0720 C   0  0  0  0  0  0  0  0  0  0  0  0
  160.3170  207.6100  151.7020 O   0  0  0  0  0  0  0  0  0  0  0  0
  163.1970  204.6720  146.2290 N   0  0  0  0  0  0  0  0  0  0  0  0
  163.5060  204.7150  147.5520 C   0  0  0  0  0  3  0  0  0  0  0  0
  161.8320  204.8510  152.1690 C   0  0  0  0  0  3  0  0  0  0  0  0
  162.4860  204.7770  148.5070 C   0  0  0  0  0  0  0  0  0  0  0  0
  162.7900  204.9370  149.9450 C   0  0  0  0  0  0  0  0  0  0  0  0
  160.0810  204.9560  149.0390 N   0  0  0  0  0  0  0  0  0  0  0  0
  160.0430  208.1790  155.2520 C   0  0  0  0  0  3  0  0  0  0  0  0
  161.5770  209.2310  150.3080 C   0  0  0  0  0  0  0  0  0  0  0  0
  160.9300  207.9720  152.9490 C   0  0  1  0  0  3  0  0  0  0  0  0
  161.9560  206.6420  154.7510 N   0  0  0  0  0  0  0  0  0  0  0  0
  161.6310  204.6640  144.3970 N   0  0  0  0  0  1  0  0  0  0  0  0
  159.3840  206.2210  149.3090 C   0  0  0  0  0  2  0  0  0  0  0  0
  162.9200  210.7230  148.8060 C   0  0  0  0  0  0  0  0  0  0  0  0
  163.6720  211.5850  148.6320 N   0  0  0  0  0  0  0  0  0  0  0  0
  161.9870  209.9120  151.4660 O   0  0  0  0  0  0  0  0  0  0  0  0
  161.5810  211.2310  151.8220 C   0  0  0  0  0  2  0  0  0  0  0  0
  160.0720  211.2920  152.0150 C   0  0  0  0  0  2  0  0  0  0  0  0
  160.4560  211.8280  154.3120 O   0  0  0  0  0  1  0  0  0  0  0  0
  159.7090  212.1860  153.1890 C   0  0  0  0  0  2  0  0  0  0  0  0
  1 26  2  0  0  0  0
  2 15  1  0  0  0  0
  4  8  1  0  0  0  0
  5 31  1  0  0  0  0
  5 12  1  0  0  0  0
  6 20  2  0  0  0  0
  6 13  1  0  0  0  0
  7  3  2  0  0  0  0
  8 10  1  0  0  0  0
  9  5  2  0  0  0  0
 10 29  2  0  0  0  0
 11  4  2  0  0  0  0
 12 19  1  0  0  0  0
 13 18  2  0  0  0  0
 14 27  1  0  0  0  0
 15 17  1  0  0  0  0
 16  9  1  0  0  0  0
 16 14  2  0  0  0  0
 17 22  1  0  0  0  0
 18 23  1  0  0  0  0
 18 25  1  0  0  0  0
 19 28  1  0  0  0  0
 20 21  1  0  0  0  0
 21 23  2  0  0  0  0
 22  8  2  0  0  0  0
 23 24  1  0  0  0  0
 24 11  1  0  0  0  0
 24 17  2  0  0  0  0
 25 31  1  0  0  0  0
 25  2  1  0  0  0  0
 26  7  1  0  0  0  0
 27 12  2  0  0  0  0
 27 34  1  0  0  0  0
 28 10  1  0  0  0  0
 28  1  1  1  0  0  0
 29  7  1  0  0  0  0
 30  6  1  0  0  0  0
 32 14  1  0  0  0  0
 33 32  3  0  0  0  0
 34 35  1  0  0  0  0
 35 36  1  0  0  0  0
 36 38  1  0  0  0  0
 38 37  1  0  0  0  0
M  END
>  <MODEL>
3

>  <REMARK>
 VINA RESULT:       9.8      2.939      8.267
  Name = 
  5 active torsions:
  status: ('A' for Active; 'I' for Inactive)
    1  A    between atoms: C_7  and  C_20
    2  A    between atoms: C_12  and  C_18
    3  A    between atoms: C_13  and  C_20
    4  A    between atoms: C_13  and  O_23
    5  A    between atoms: O_23  and  C_33
                            x       y       z     vdW  Elec       q    Type
                         _______ _______ _______ _____ _____    ______ ____

>  <TORSDO>
F 5

$$$$
