=
 OpenBabel11072412183D

 38 39  0  0  1  0  0  0  0  0999 V2000
  159.4370  211.5240  154.6680 C   0  0  2  0  0  3  0  0  0  0  0  0
  158.8760  211.2120  153.2690 C   0  0  2  0  0  3  0  0  0  0  0  0
  162.5400  209.8570  154.4160 O   0  0  0  0  0  0  0  0  0  0  0  0
  161.5900  210.4650  153.9440 C   0  0  0  0  0  0  0  0  0  0  0  0
  159.5660  210.0260  152.5900 C   0  0  0  0  0  2  0  0  0  0  0  0
  156.4170  212.0570  154.1030 O   0  0  0  0  0  0  0  0  0  0  0  0
  157.9220  213.8440  153.3280 C   0  0  2  0  0  3  0  0  0  0  0  0
  158.7750  212.6800  152.1820 S   0  0  0  0  0  0  0  0  0  0  0  0
  160.9690  211.5860  154.7180 C   0  0  0  0  0  2  0  0  0  0  0  0
  157.3090  210.4900  155.6660 C   0  0  0  0  0  2  0  0  0  0  0  0
  158.8500  214.4520  154.3610 C   0  0  0  0  0  1  0  0  0  0  0  0
  156.5660  213.4390  153.9290 C   0  0  1  0  0  3  0  0  0  0  0  0
  161.0850  210.1860  152.5520 C   0  0  2  0  0  3  0  0  0  0  0  0
  159.1820  211.1650  157.0750 N   0  0  0  0  0  1  0  0  0  0  0  0
  158.8360  210.6380  155.7640 C   0  0  2  0  0  3  0  0  0  0  0  0
  156.5740  211.8150  155.4760 C   0  0  2  0  0  3  0  0  0  0  0  0
  155.6230  214.2380  151.8770 O   0  0  0  0  0  0  0  0  0  0  0  0
  154.2110  214.2160  153.6880 O   0  0  0  0  0  1  0  0  0  0  0  0
  155.4470  213.9770  153.0990 C   0  0  0  0  0  0  0  0  0  0  0  0
  161.7260  208.9400  151.9480 C   0  0  0  0  0  2  0  0  0  0  0  0
  161.8300  209.0550  150.4360 C   0  0  0  0  0  2  0  0  0  0  0  0
  162.5300  207.8390  149.8560 C   0  0  0  0  0  2  0  0  0  0  0  0
  161.6370  207.1660  148.8260 C   0  0  2  0  0  3  0  0  0  0  0  0
  160.8690  206.0330  149.4400 C   0  0  0  0  0  0  0  0  0  0  0  0
  159.7800  206.2340  149.9610 O   0  0  0  0  0  0  0  0  0  0  0  0
  161.4330  204.1470  148.1210 O   0  0  0  0  0  1  0  0  0  0  0  0
  161.4600  204.6600  149.4200 C   0  0  2  0  0  3  0  0  0  0  0  0
  160.6950  203.7410  150.3600 C   0  0  0  0  0  2  0  0  0  0  0  0
  161.4520  203.5530  151.6640 C   0  0  0  0  0  2  0  0  0  0  0  0
  162.6260  205.9920  152.5560 O   0  0  0  0  0  0  0  0  0  0  0  0
  161.5540  205.6230  153.1040 C   0  0  0  0  0  0  0  0  0  0  0  0
  160.9700  206.4310  154.2030 C   0  0  0  0  0  1  0  0  0  0  0  0
  160.8960  204.4260  152.6860 N   0  0  0  0  0  2  0  0  0  0  0  0
  162.4080  206.6970  147.7590 O   0  0  0  0  0  0  0  0  0  0  0  0
  161.5750  206.8080  146.6450 C   0  0  0  0  0  1  0  0  0  0  0  0
  155.3140  211.7250  156.0750 O   0  0  0  0  0  0  0  0  0  0  0  0
  155.4130  212.4950  157.2370 C   0  0  0  0  0  2  0  0  0  0  0  0
  154.7770  213.7200  157.0380 O   0  0  0  0  0  1  0  0  0  0  0  0
  1  9  1  6  0  0  0
  1 15  1  0  0  0  0
  2  5  1  6  0  0  0
  2  1  1  0  0  0  0
  4  3  2  0  0  0  0
  4  9  1  0  0  0  0
  6 16  1  0  0  0  0
  7 12  1  0  0  0  0
  7 11  1  1  0  0  0
  8  2  1  0  0  0  0
  8  7  1  0  0  0  0
 10 15  1  0  0  0  0
 12 19  1  6  0  0  0
 12  6  1  0  0  0  0
 13 20  1  1  0  0  0
 13  5  1  0  0  0  0
 13  4  1  0  0  0  0
 15 14  1  1  0  0  0
 16 10  1  0  0  0  0
 16 36  1  1  0  0  0
 17 19  2  0  0  0  0
 19 18  1  0  0  0  0
 21 20  1  0  0  0  0
 22 21  1  0  0  0  0
 23 24  1  0  0  0  0
 23 22  1  1  0  0  0
 24 25  2  0  0  0  0
 27 26  1  6  0  0  0
 27 24  1  0  0  0  0
 27 28  1  0  0  0  0
 28 29  1  0  0  0  0
 29 33  1  0  0  0  0
 30 31  2  0  0  0  0
 31 32  1  0  0  0  0
 33 31  1  0  0  0  0
 34 23  1  0  0  0  0
 35 34  1  0  0  0  0
 36 37  1  0  0  0  0
 38 37  1  0  0  0  0
M  END
>  <MODEL>
1

>  <REMARK>
 VINA RESULT:      -5.2      0.000      0.000
  Name = 
  13 active torsions:
  status: ('A' for Active; 'I' for Inactive)
    1  A    between atoms: C_4  and  C_26
    2  A    between atoms: C_4  and  C_29
    3  A    between atoms: C_9  and  C_29
    4  A    between atoms: C_9  and  C_30
    5  A    between atoms: C_10  and  O_33
    6  A    between atoms: C_14  and  C_26
    7  A    between atoms: C_14  and  C_37
    8  A    between atoms: C_20  and  N_23
    9  A    between atoms: C_20  and  C_31
   10  A    between atoms: C_22  and  C_28
   11  A    between atoms: C_26  and  O_32
   12  A    between atoms: C_31  and  C_37
   13  A    between atoms: O_33  and  C_38
                            x       y       z     vdW  Elec       q    Type
                         _______ _______ _______ _____ _____    ______ ____

>  <TORSDO>
F 13

$$$$
=
 OpenBabel11072412183D

 38 39  0  0  1  0  0  0  0  0999 V2000
  159.6460  211.9750  155.3840 C   0  0  2  0  0  3  0  0  0  0  0  0
  158.6030  211.0170  154.7820 C   0  0  2  0  0  3  0  0  0  0  0  0
  162.2370  209.6610  156.0190 O   0  0  0  0  0  0  0  0  0  0  0  0
  161.2660  210.0630  155.3930 C   0  0  0  0  0  0  0  0  0  0  0  0
  158.8620  209.5470  155.1230 C   0  0  0  0  0  2  0  0  0  0  0  0
  156.7090  212.9650  155.0480 O   0  0  0  0  0  0  0  0  0  0  0  0
  158.0650  213.1070  152.9980 C   0  0  2  0  0  3  0  0  0  0  0  0
  158.3170  211.2820  152.9950 S   0  0  0  0  0  0  0  0  0  0  0  0
  161.0960  211.5310  155.1530 C   0  0  0  0  0  2  0  0  0  0  0  0
  157.8810  212.6890  157.1070 C   0  0  0  0  0  2  0  0  0  0  0  0
  159.3600  213.8880  153.0890 C   0  0  0  0  0  1  0  0  0  0  0  0
  156.9600  213.7050  153.8840 C   0  0  1  0  0  3  0  0  0  0  0  0
  160.2820  209.1130  154.7630 C   0  0  2  0  0  3  0  0  0  0  0  0
  160.1940  213.4480  157.2590 N   0  0  0  0  0  1  0  0  0  0  0  0
  159.3540  212.3360  156.8450 C   0  0  2  0  0  3  0  0  0  0  0  0
  157.2980  213.6800  156.1020 C   0  0  2  0  0  3  0  0  0  0  0  0
  154.5770  213.7990  153.6700 O   0  0  0  0  0  1  0  0  0  0  0  0
  155.7700  214.0990  151.7310 O   0  0  0  0  0  0  0  0  0  0  0  0
  155.7000  213.8770  153.1010 C   0  0  0  0  0  0  0  0  0  0  0  0
  160.5140  207.6700  155.2060 C   0  0  0  0  0  2  0  0  0  0  0  0
  161.6230  207.0200  154.3940 C   0  0  0  0  0  2  0  0  0  0  0  0
  161.0400  206.1030  153.3340 C   0  0  0  0  0  2  0  0  0  0  0  0
  161.9640  206.0490  152.1280 C   0  0  2  0  0  3  0  0  0  0  0  0
  161.5450  207.0420  151.0850 C   0  0  0  0  0  0  0  0  0  0  0  0
  160.5510  206.8380  150.4000 O   0  0  0  0  0  0  0  0  0  0  0  0
  162.1990  209.1430  151.9600 O   0  0  0  0  0  1  0  0  0  0  0  0
  162.3670  208.2730  150.8810 C   0  0  2  0  0  3  0  0  0  0  0  0
  161.9720  208.9660  149.5850 C   0  0  0  0  0  2  0  0  0  0  0  0
  162.0680  210.4750  149.7310 C   0  0  0  0  0  2  0  0  0  0  0  0
  160.9070  212.9760  149.0060 O   0  0  0  0  0  0  0  0  0  0  0  0
  161.5260  212.3360  148.1150 C   0  0  0  0  0  0  0  0  0  0  0  0
  161.5950  212.8750  146.7330 C   0  0  0  0  0  1  0  0  0  0  0  0
  162.1570  211.0910  148.4160 N   0  0  0  0  0  2  0  0  0  0  0  0
  161.9670  204.7600  151.5870 O   0  0  0  0  0  0  0  0  0  0  0  0
  160.9640  204.0830  152.2810 C   0  0  0  0  0  1  0  0  0  0  0  0
  156.3220  214.4510  156.7390 O   0  0  0  0  0  0  0  0  0  0  0  0
  155.4150  213.5240  157.2600 C   0  0  0  0  0  2  0  0  0  0  0  0
  154.1130  213.9750  157.0470 O   0  0  0  0  0  1  0  0  0  0  0  0
  1  9  1  1  0  0  0
  1 15  1  0  0  0  0
  2  5  1  6  0  0  0
  2  1  1  0  0  0  0
  4  3  2  0  0  0  0
  6 16  1  0  0  0  0
  7 11  1  1  0  0  0
  7 12  1  0  0  0  0
  8  7  1  0  0  0  0
  8  2  1  0  0  0  0
  9  4  1  0  0  0  0
 12 19  1  6  0  0  0
 12  6  1  0  0  0  0
 13  5  1  0  0  0  0
 13 20  1  1  0  0  0
 13  4  1  0  0  0  0
 15 10  1  0  0  0  0
 15 14  1  6  0  0  0
 16 36  1  1  0  0  0
 16 10  1  0  0  0  0
 18 19  2  0  0  0  0
 19 17  1  0  0  0  0
 21 20  1  0  0  0  0
 22 21  1  0  0  0  0
 23 22  1  1  0  0  0
 24 23  1  0  0  0  0
 25 24  2  0  0  0  0
 27 24  1  0  0  0  0
 27 26  1  1  0  0  0
 28 29  1  0  0  0  0
 28 27  1  0  0  0  0
 31 33  1  0  0  0  0
 31 30  2  0  0  0  0
 32 31  1  0  0  0  0
 33 29  1  0  0  0  0
 34 23  1  0  0  0  0
 34 35  1  0  0  0  0
 36 37  1  0  0  0  0
 38 37  1  0  0  0  0
M  END
>  <MODEL>
2

>  <REMARK>
 VINA RESULT:      -5.0      2.388      4.085
  Name = 
  13 active torsions:
  status: ('A' for Active; 'I' for Inactive)
    1  A    between atoms: C_4  and  C_26
    2  A    between atoms: C_4  and  C_29
    3  A    between atoms: C_9  and  C_29
    4  A    between atoms: C_9  and  C_30
    5  A    between atoms: C_10  and  O_33
    6  A    between atoms: C_14  and  C_26
    7  A    between atoms: C_14  and  C_37
    8  A    between atoms: C_20  and  N_23
    9  A    between atoms: C_20  and  C_31
   10  A    between atoms: C_22  and  C_28
   11  A    between atoms: C_26  and  O_32
   12  A    between atoms: C_31  and  C_37
   13  A    between atoms: O_33  and  C_38
                            x       y       z     vdW  Elec       q    Type
                         _______ _______ _______ _____ _____    ______ ____

>  <TORSDO>
F 13

$$$$
=
 OpenBabel11072412183D

 38 39  0  0  1  0  0  0  0  0999 V2000
  160.7550  208.2910  154.7660 C   0  0  2  0  0  3  0  0  0  0  0  0
  160.5060  208.9990  153.4230 C   0  0  2  0  0  3  0  0  0  0  0  0
  162.0600  205.2390  153.5610 O   0  0  0  0  0  0  0  0  0  0  0  0
  161.8630  206.4430  153.4850 C   0  0  0  0  0  0  0  0  0  0  0  0
  160.4450  208.0380  152.2320 C   0  0  0  0  0  2  0  0  0  0  0  0
  159.0110  210.8750  154.7270 O   0  0  0  0  0  0  0  0  0  0  0  0
  161.4380  211.2920  154.7330 C   0  0  2  0  0  3  0  0  0  0  0  0
  161.6300  210.4120  153.1250 S   0  0  0  0  0  0  0  0  0  0  0  0
  161.9090  207.2810  154.7260 C   0  0  0  0  0  2  0  0  0  0  0  0
  158.2860  208.6880  155.3440 C   0  0  0  0  0  2  0  0  0  0  0  0
  162.2360  210.6640  155.8570 C   0  0  0  0  0  1  0  0  0  0  0  0
  160.0320  211.7200  155.1840 C   0  0  1  0  0  3  0  0  0  0  0  0
  161.6740  207.1320  152.1590 C   0  0  2  0  0  3  0  0  0  0  0  0
  159.7250  207.3240  156.7640 N   0  0  0  0  0  1  0  0  0  0  0  0
  159.4760  207.7180  155.3860 C   0  0  2  0  0  3  0  0  0  0  0  0
  158.6230  210.0970  155.8270 C   0  0  2  0  0  3  0  0  0  0  0  0
  159.7970  214.0640  155.6180 O   0  0  0  0  0  1  0  0  0  0  0  0
  159.4310  213.4040  153.4490 O   0  0  0  0  0  0  0  0  0  0  0  0
  159.7580  213.1290  154.7710 C   0  0  0  0  0  0  0  0  0  0  0  0
  161.5200  206.1360  151.0130 C   0  0  0  0  0  2  0  0  0  0  0  0
  160.4140  206.5630  150.0610 C   0  0  0  0  0  2  0  0  0  0  0  0
  160.4810  205.7640  148.7720 C   0  0  0  0  0  2  0  0  0  0  0  0
  161.0750  206.6150  147.6620 C   0  0  2  0  0  3  0  0  0  0  0  0
  161.1190  205.8570  146.3680 C   0  0  0  0  0  0  0  0  0  0  0  0
  160.5400  206.2860  145.3790 O   0  0  0  0  0  0  0  0  0  0  0  0
  163.1740  204.7840  145.8800 O   0  0  0  0  0  1  0  0  0  0  0  0
  161.8640  204.5620  146.3090 C   0  0  2  0  0  3  0  0  0  0  0  0
  161.1640  203.5910  145.3710 C   0  0  0  0  0  2  0  0  0  0  0  0
  160.9970  202.2320  146.0290 C   0  0  0  0  0  2  0  0  0  0  0  0
  161.5140  200.2180  147.9780 O   0  0  0  0  0  0  0  0  0  0  0  0
  161.0940  201.3330  148.3850 C   0  0  0  0  0  0  0  0  0  0  0  0
  160.8470  201.5470  149.8330 C   0  0  0  0  0  1  0  0  0  0  0  0
  160.8430  202.3970  147.4660 N   0  0  0  0  0  2  0  0  0  0  0  0
  162.3630  207.0290  148.0160 O   0  0  0  0  0  0  0  0  0  0  0  0
  162.2490  208.4050  148.2180 C   0  0  0  0  0  1  0  0  0  0  0  0
  157.4860  210.6600  156.4120 O   0  0  0  0  0  0  0  0  0  0  0  0
  156.6590  210.9980  155.3380 C   0  0  0  0  0  2  0  0  0  0  0  0
  155.3700  210.5210  155.5750 O   0  0  0  0  0  1  0  0  0  0  0  0
  1  9  1  6  0  0  0
  1 15  1  0  0  0  0
  2  5  1  6  0  0  0
  2  1  1  0  0  0  0
  4  3  2  0  0  0  0
  4  9  1  0  0  0  0
  6 12  1  0  0  0  0
  6 16  1  0  0  0  0
  7 12  1  0  0  0  0
  7 11  1  1  0  0  0
  8  2  1  0  0  0  0
  8  7  1  0  0  0  0
 10 15  1  0  0  0  0
 10 16  1  0  0  0  0
 12 19  1  6  0  0  0
 13 20  1  6  0  0  0
 13  5  1  0  0  0  0
 13  4  1  0  0  0  0
 15 14  1  1  0  0  0
 16 36  1  6  0  0  0
 18 19  2  0  0  0  0
 19 17  1  0  0  0  0
 21 20  1  0  0  0  0
 22 21  1  0  0  0  0
 23 34  1  0  0  0  0
 23 22  1  1  0  0  0
 24 23  1  0  0  0  0
 25 24  2  0  0  0  0
 27 26  1  6  0  0  0
 27 24  1  0  0  0  0
 28 29  1  0  0  0  0
 28 27  1  0  0  0  0
 29 33  1  0  0  0  0
 30 31  2  0  0  0  0
 31 32  1  0  0  0  0
 33 31  1  0  0  0  0
 34 35  1  0  0  0  0
 37 38  1  0  0  0  0
 37 36  1  0  0  0  0
M  END
>  <MODEL>
3

>  <REMARK>
 VINA RESULT:      -4.8      2.477      4.096
  Name = 
  13 active torsions:
  status: ('A' for Active; 'I' for Inactive)
    1  A    between atoms: C_4  and  C_26
    2  A    between atoms: C_4  and  C_29
    3  A    between atoms: C_9  and  C_29
    4  A    between atoms: C_9  and  C_30
    5  A    between atoms: C_10  and  O_33
    6  A    between atoms: C_14  and  C_26
    7  A    between atoms: C_14  and  C_37
    8  A    between atoms: C_20  and  N_23
    9  A    between atoms: C_20  and  C_31
   10  A    between atoms: C_22  and  C_28
   11  A    between atoms: C_26  and  O_32
   12  A    between atoms: C_31  and  C_37
   13  A    between atoms: O_33  and  C_38
                            x       y       z     vdW  Elec       q    Type
                         _______ _______ _______ _____ _____    ______ ____

>  <TORSDO>
F 13

$$$$
=
 OpenBabel11072412183D

 38 39  0  0  1  0  0  0  0  0999 V2000
  161.9700  207.7320  150.4780 C   0  0  2  0  0  3  0  0  0  0  0  0
  160.8170  207.3950  151.4390 C   0  0  2  0  0  3  0  0  0  0  0  0
  162.1500  211.2180  151.0130 O   0  0  0  0  0  0  0  0  0  0  0  0
  161.9120  210.0730  151.3710 C   0  0  0  0  0  0  0  0  0  0  0  0
  159.9670  208.6110  151.8170 C   0  0  0  0  0  2  0  0  0  0  0  0
  160.6170  204.9300  150.2820 O   0  0  0  0  0  0  0  0  0  0  0  0
  162.3170  205.1110  152.0540 C   0  0  2  0  0  3  0  0  0  0  0  0
  161.3470  206.4300  152.9010 S   0  0  0  0  0  0  0  0  0  0  0  0
  162.7920  208.9540  150.9050 C   0  0  0  0  0  2  0  0  0  0  0  0
  160.6230  206.6190  148.5970 C   0  0  0  0  0  2  0  0  0  0  0  0
  163.6990  205.5660  151.6300 C   0  0  0  0  0  1  0  0  0  0  0  0
  161.6300  204.2550  150.9780 C   0  0  1  0  0  3  0  0  0  0  0  0
  160.8150  209.7630  152.3550 C   0  0  2  0  0  3  0  0  0  0  0  0
  162.6940  207.8250  148.1420 N   0  0  0  0  0  1  0  0  0  0  0  0
  161.5280  207.7890  149.0110 C   0  0  2  0  0  3  0  0  0  0  0  0
  161.1510  205.2510  149.0250 C   0  0  2  0  0  3  0  0  0  0  0  0
  161.2030  201.8990  150.9670 O   0  0  0  0  0  0  0  0  0  0  0  0
  160.4410  203.0470  152.8040 O   0  0  0  0  0  1  0  0  0  0  0  0
  161.0920  202.9970  151.5770 C   0  0  0  0  0  0  0  0  0  0  0  0
  159.9310  210.9770  152.6290 C   0  0  0  0  0  2  0  0  0  0  0  0
  160.4700  211.7950  153.7920 C   0  0  0  0  0  2  0  0  0  0  0  0
  160.6180  210.9290  155.0300 C   0  0  0  0  0  2  0  0  0  0  0  0
  159.2490  210.4920  155.5260 C   0  0  2  0  0  3  0  0  0  0  0  0
  158.5330  211.6260  156.1970 C   0  0  0  0  0  0  0  0  0  0  0  0
  158.9400  212.0730  157.2610 O   0  0  0  0  0  0  0  0  0  0  0  0
  156.9650  211.4390  154.4300 O   0  0  0  0  0  1  0  0  0  0  0  0
  157.3060  212.1920  155.5560 C   0  0  2  0  0  3  0  0  0  0  0  0
  157.5360  213.6430  155.1630 C   0  0  0  0  0  2  0  0  0  0  0  0
  157.1340  213.8800  153.7170 C   0  0  0  0  0  2  0  0  0  0  0  0
  157.3730  213.6490  150.8860 O   0  0  0  0  0  0  0  0  0  0  0  0
  158.3610  214.1000  151.5230 C   0  0  0  0  0  0  0  0  0  0  0  0
  159.6090  214.4530  150.7990 C   0  0  0  0  0  1  0  0  0  0  0  0
  158.3000  214.2700  152.9390 N   0  0  0  0  0  2  0  0  0  0  0  0
  159.3830  209.4210  156.4140 O   0  0  0  0  0  0  0  0  0  0  0  0
  160.3330  208.5870  155.8220 C   0  0  0  0  0  1  0  0  0  0  0  0
  160.7420  204.2940  148.0920 O   0  0  0  0  0  0  0  0  0  0  0  0
  161.6010  204.4650  147.0040 C   0  0  0  0  0  2  0  0  0  0  0  0
  161.4020  203.4320  146.0880 O   0  0  0  0  0  1  0  0  0  0  0  0
  1  9  1  1  0  0  0
  1  2  1  0  0  0  0
  2  5  1  1  0  0  0
  2  8  1  0  0  0  0
  3  4  2  0  0  0  0
  4 13  1  0  0  0  0
  5 13  1  0  0  0  0
  6 12  1  0  0  0  0
  7 11  1  6  0  0  0
  7  8  1  0  0  0  0
  9  4  1  0  0  0  0
 10 15  1  0  0  0  0
 10 16  1  0  0  0  0
 12 19  1  1  0  0  0
 12  7  1  0  0  0  0
 13 20  1  6  0  0  0
 15 14  1  6  0  0  0
 15  1  1  0  0  0  0
 16 36  1  6  0  0  0
 16  6  1  0  0  0  0
 17 19  2  0  0  0  0
 19 18  1  0  0  0  0
 20 21  1  0  0  0  0
 21 22  1  0  0  0  0
 23 22  1  1  0  0  0
 23 24  1  0  0  0  0
 23 34  1  0  0  0  0
 24 25  2  0  0  0  0
 27 26  1  6  0  0  0
 27 24  1  0  0  0  0
 28 27  1  0  0  0  0
 29 28  1  0  0  0  0
 30 31  2  0  0  0  0
 31 33  1  0  0  0  0
 32 31  1  0  0  0  0
 33 29  1  0  0  0  0
 35 34  1  0  0  0  0
 37 36  1  0  0  0  0
 38 37  1  0  0  0  0
M  END
>  <MODEL>
4

>  <REMARK>
 VINA RESULT:      -4.0      2.548      9.402
  Name = 
  13 active torsions:
  status: ('A' for Active; 'I' for Inactive)
    1  A    between atoms: C_4  and  C_26
    2  A    between atoms: C_4  and  C_29
    3  A    between atoms: C_9  and  C_29
    4  A    between atoms: C_9  and  C_30
    5  A    between atoms: C_10  and  O_33
    6  A    between atoms: C_14  and  C_26
    7  A    between atoms: C_14  and  C_37
    8  A    between atoms: C_20  and  N_23
    9  A    between atoms: C_20  and  C_31
   10  A    between atoms: C_22  and  C_28
   11  A    between atoms: C_26  and  O_32
   12  A    between atoms: C_31  and  C_37
   13  A    between atoms: O_33  and  C_38
                            x       y       z     vdW  Elec       q    Type
                         _______ _______ _______ _____ _____    ______ ____

>  <TORSDO>
F 13

$$$$
=
 OpenBabel11072412183D

 38 39  0  0  1  0  0  0  0  0999 V2000
  161.9940  207.8280  150.7030 C   0  0  2  0  0  3  0  0  0  0  0  0
  160.8570  207.4930  151.6830 C   0  0  2  0  0  3  0  0  0  0  0  0
  162.3610  211.2670  151.4200 O   0  0  0  0  0  0  0  0  0  0  0  0
  162.0790  210.1160  151.7220 C   0  0  0  0  0  0  0  0  0  0  0  0
  160.0790  208.7250  152.1540 C   0  0  0  0  0  2  0  0  0  0  0  0
  160.5000  205.1090  150.4010 O   0  0  0  0  0  0  0  0  0  0  0  0
  162.2610  205.1100  152.1220 C   0  0  2  0  0  3  0  0  0  0  0  0
  161.3840  206.4240  153.0710 S   0  0  0  0  0  0  0  0  0  0  0  0
  162.8890  208.9850  151.1680 C   0  0  0  0  0  2  0  0  0  0  0  0
  160.5370  206.8870  148.8110 C   0  0  0  0  0  2  0  0  0  0  0  0
  163.6500  205.5220  151.6770 C   0  0  0  0  0  1  0  0  0  0  0  0
  161.5000  204.3490  151.0250 C   0  0  1  0  0  3  0  0  0  0  0  0
  160.9990  209.8040  152.7250 C   0  0  2  0  0  3  0  0  0  0  0  0
  162.6490  208.0170  148.3520 N   0  0  0  0  0  1  0  0  0  0  0  0
  161.5100  207.9880  149.2570 C   0  0  2  0  0  3  0  0  0  0  0  0
  161.0100  205.4740  149.1460 C   0  0  2  0  0  3  0  0  0  0  0  0
  160.4620  203.0490  152.7480 O   0  0  0  0  0  1  0  0  0  0  0  0
  160.9120  201.9390  150.7890 O   0  0  0  0  0  0  0  0  0  0  0  0
  160.9200  203.0870  151.5730 C   0  0  0  0  0  0  0  0  0  0  0  0
  160.1850  211.0410  153.0940 C   0  0  0  0  0  2  0  0  0  0  0  0
  158.7030  210.8180  152.8390 C   0  0  0  0  0  2  0  0  0  0  0  0
  157.8770  211.8950  153.5180 C   0  0  0  0  0  2  0  0  0  0  0  0
  158.7670  213.0620  153.9130 C   0  0  2  0  0  3  0  0  0  0  0  0
  158.7350  213.2850  155.3960 C   0  0  0  0  0  0  0  0  0  0  0  0
  158.6100  214.4140  155.8500 O   0  0  0  0  0  0  0  0  0  0  0  0
  157.8450  212.1160  157.2540 O   0  0  0  0  0  1  0  0  0  0  0  0
  158.8740  212.1100  156.3100 C   0  0  2  0  0  3  0  0  0  0  0  0
  160.2240  212.1410  157.0090 C   0  0  0  0  0  2  0  0  0  0  0  0
  161.0440  210.9120  156.6510 C   0  0  0  0  0  2  0  0  0  0  0  0
  161.9040  208.2040  156.4300 O   0  0  0  0  0  0  0  0  0  0  0  0
  160.6680  208.4340  156.3600 C   0  0  0  0  0  0  0  0  0  0  0  0
  159.7200  207.3150  156.1300 C   0  0  0  0  0  1  0  0  0  0  0  0
  160.1650  209.7640  156.4930 N   0  0  0  0  0  2  0  0  0  0  0  0
  158.3570  214.2210  153.2480 O   0  0  0  0  0  0  0  0  0  0  0  0
  158.9230  214.1180  151.9760 C   0  0  0  0  0  1  0  0  0  0  0  0
  160.5260  204.5910  148.1770 O   0  0  0  0  0  0  0  0  0  0  0  0
  161.6230  204.3250  147.3540 C   0  0  0  0  0  2  0  0  0  0  0  0
  161.2320  203.4830  146.3140 O   0  0  0  0  0  1  0  0  0  0  0  0
  1  9  1  1  0  0  0
  1  2  1  0  0  0  0
  2  5  1  1  0  0  0
  2  8  1  0  0  0  0
  3  4  2  0  0  0  0
  4 13  1  0  0  0  0
  5 13  1  0  0  0  0
  6 12  1  0  0  0  0
  7 11  1  6  0  0  0
  7  8  1  0  0  0  0
  9  4  1  0  0  0  0
 10 16  1  0  0  0  0
 10 15  1  0  0  0  0
 12 19  1  1  0  0  0
 12  7  1  0  0  0  0
 13 20  1  6  0  0  0
 15 14  1  6  0  0  0
 15  1  1  0  0  0  0
 16 36  1  6  0  0  0
 16  6  1  0  0  0  0
 18 19  2  0  0  0  0
 19 17  1  0  0  0  0
 21 20  1  0  0  0  0
 21 22  1  0  0  0  0
 23 22  1  1  0  0  0
 23 24  1  0  0  0  0
 24 25  2  0  0  0  0
 24 27  1  0  0  0  0
 27 28  1  0  0  0  0
 27 26  1  1  0  0  0
 29 28  1  0  0  0  0
 31 30  2  0  0  0  0
 31 33  1  0  0  0  0
 32 31  1  0  0  0  0
 33 29  1  0  0  0  0
 34 23  1  0  0  0  0
 35 34  1  0  0  0  0
 37 36  1  0  0  0  0
 38 37  1  0  0  0  0
M  END
>  <MODEL>
5

>  <REMARK>
 VINA RESULT:      -4.0      2.549      8.984
  Name = 
  13 active torsions:
  status: ('A' for Active; 'I' for Inactive)
    1  A    between atoms: C_4  and  C_26
    2  A    between atoms: C_4  and  C_29
    3  A    between atoms: C_9  and  C_29
    4  A    between atoms: C_9  and  C_30
    5  A    between atoms: C_10  and  O_33
    6  A    between atoms: C_14  and  C_26
    7  A    between atoms: C_14  and  C_37
    8  A    between atoms: C_20  and  N_23
    9  A    between atoms: C_20  and  C_31
   10  A    between atoms: C_22  and  C_28
   11  A    between atoms: C_26  and  O_32
   12  A    between atoms: C_31  and  C_37
   13  A    between atoms: O_33  and  C_38
                            x       y       z     vdW  Elec       q    Type
                         _______ _______ _______ _____ _____    ______ ____

>  <TORSDO>
F 13

$$$$
=
 OpenBabel11072412183D

 38 39  0  0  1  0  0  0  0  0999 V2000
  161.5540  207.5860  153.0160 C   0  0  2  0  0  3  0  0  0  0  0  0
  160.5840  207.7710  151.8360 C   0  0  2  0  0  3  0  0  0  0  0  0
  162.5300  204.2440  152.4240 O   0  0  0  0  0  0  0  0  0  0  0  0
  162.1500  205.3480  152.0590 C   0  0  0  0  0  0  0  0  0  0  0  0
  160.0900  206.4480  151.2430 C   0  0  0  0  0  2  0  0  0  0  0  0
  159.6610  210.0630  152.9980 O   0  0  0  0  0  0  0  0  0  0  0  0
  161.6950  210.3340  151.6370 C   0  0  2  0  0  3  0  0  0  0  0  0
  161.2040  208.9230  150.5570 S   0  0  0  0  0  0  0  0  0  0  0  0
  162.6730  206.5740  152.7410 C   0  0  0  0  0  2  0  0  0  0  0  0
  159.6500  208.2860  154.5900 C   0  0  0  0  0  2  0  0  0  0  0  0
  163.0200  210.1170  152.3390 C   0  0  0  0  0  1  0  0  0  0  0  0
  160.6420  210.9650  152.5620 C   0  0  1  0  0  3  0  0  0  0  0  0
  161.2430  205.5180  150.8690 C   0  0  2  0  0  3  0  0  0  0  0  0
  161.7770  207.4590  155.4500 N   0  0  0  0  0  1  0  0  0  0  0  0
  160.8350  207.3390  154.3480 C   0  0  2  0  0  3  0  0  0  0  0  0
  159.9730  209.7560  154.3300 C   0  0  2  0  0  3  0  0  0  0  0  0
  159.0280  212.7310  152.4420 O   0  0  0  0  0  1  0  0  0  0  0  0
  160.4690  212.5670  150.6620 O   0  0  0  0  0  0  0  0  0  0  0  0
  160.0020  212.1400  151.8990 C   0  0  0  0  0  0  0  0  0  0  0  0
  160.6950  204.1840  150.3700 C   0  0  0  0  0  2  0  0  0  0  0  0
  160.6710  204.1360  148.8510 C   0  0  0  0  0  2  0  0  0  0  0  0
  161.6160  205.1720  148.2690 C   0  0  0  0  0  2  0  0  0  0  0  0
  160.9140  205.9610  147.1760 C   0  0  2  0  0  3  0  0  0  0  0  0
  161.2880  205.4480  145.8170 C   0  0  0  0  0  0  0  0  0  0  0  0
  161.2930  206.1990  144.8510 O   0  0  0  0  0  0  0  0  0  0  0  0
  162.8420  203.8770  144.9620 O   0  0  0  0  0  1  0  0  0  0  0  0
  161.6380  204.0030  145.6580 C   0  0  2  0  0  3  0  0  0  0  0  0
  160.5290  203.2680  144.9200 C   0  0  0  0  0  2  0  0  0  0  0  0
  160.4450  201.8210  145.3760 C   0  0  0  0  0  2  0  0  0  0  0  0
  161.5870  199.6290  146.7960 O   0  0  0  0  0  0  0  0  0  0  0  0
  161.1630  200.6060  147.4680 C   0  0  0  0  0  0  0  0  0  0  0  0
  161.2330  200.5690  148.9510 C   0  0  0  0  0  1  0  0  0  0  0  0
  160.6070  201.7510  146.8200 N   0  0  0  0  0  2  0  0  0  0  0  0
  161.2420  207.3160  147.2810 O   0  0  0  0  0  0  0  0  0  0  0  0
  162.5110  207.3290  147.8600 C   0  0  0  0  0  1  0  0  0  0  0  0
  159.1970  210.5490  155.1810 O   0  0  0  0  0  0  0  0  0  0  0  0
  160.0870  211.4870  155.7080 C   0  0  0  0  0  2  0  0  0  0  0  0
  161.2360  210.8380  156.1590 O   0  0  0  0  0  1  0  0  0  0  0  0
  1  9  1  6  0  0  0
  1 15  1  0  0  0  0
  2  5  1  6  0  0  0
  2  1  1  0  0  0  0
  4  3  2  0  0  0  0
  4  9  1  0  0  0  0
  6 16  1  0  0  0  0
  7 11  1  1  0  0  0
  7 12  1  0  0  0  0
  8  7  1  0  0  0  0
  8  2  1  0  0  0  0
 12 19  1  6  0  0  0
 12  6  1  0  0  0  0
 13 20  1  1  0  0  0
 13  5  1  0  0  0  0
 13  4  1  0  0  0  0
 15 10  1  0  0  0  0
 15 14  1  1  0  0  0
 16 10  1  0  0  0  0
 16 36  1  1  0  0  0
 18 19  2  0  0  0  0
 19 17  1  0  0  0  0
 21 20  1  0  0  0  0
 22 21  1  0  0  0  0
 23 34  1  0  0  0  0
 23 22  1  1  0  0  0
 24 23  1  0  0  0  0
 25 24  2  0  0  0  0
 27 26  1  6  0  0  0
 27 24  1  0  0  0  0
 28 29  1  0  0  0  0
 28 27  1  0  0  0  0
 29 33  1  0  0  0  0
 30 31  2  0  0  0  0
 31 32  1  0  0  0  0
 33 31  1  0  0  0  0
 34 35  1  0  0  0  0
 36 37  1  0  0  0  0
 37 38  1  0  0  0  0
M  END
>  <MODEL>
6

>  <REMARK>
 VINA RESULT:      -3.8      3.011      5.164
  Name = 
  13 active torsions:
  status: ('A' for Active; 'I' for Inactive)
    1  A    between atoms: C_4  and  C_26
    2  A    between atoms: C_4  and  C_29
    3  A    between atoms: C_9  and  C_29
    4  A    between atoms: C_9  and  C_30
    5  A    between atoms: C_10  and  O_33
    6  A    between atoms: C_14  and  C_26
    7  A    between atoms: C_14  and  C_37
    8  A    between atoms: C_20  and  N_23
    9  A    between atoms: C_20  and  C_31
   10  A    between atoms: C_22  and  C_28
   11  A    between atoms: C_26  and  O_32
   12  A    between atoms: C_31  and  C_37
   13  A    between atoms: O_33  and  C_38
                            x       y       z     vdW  Elec       q    Type
                         _______ _______ _______ _____ _____    ______ ____

>  <TORSDO>
F 13

$$$$
=
 OpenBabel11072412183D

 38 39  0  0  1  0  0  0  0  0999 V2000
  161.5740  207.9300  152.8170 C   0  0  2  0  0  3  0  0  0  0  0  0
  160.6950  208.0550  151.5610 C   0  0  2  0  0  3  0  0  0  0  0  0
  162.4280  204.5120  152.5680 O   0  0  0  0  0  0  0  0  0  0  0  0
  162.1260  205.5960  152.0890 C   0  0  0  0  0  0  0  0  0  0  0  0
  160.1790  206.7090  151.0440 C   0  0  0  0  0  2  0  0  0  0  0  0
  159.8060  210.4730  152.4650 O   0  0  0  0  0  0  0  0  0  0  0  0
  161.9360  210.5440  151.2330 C   0  0  2  0  0  3  0  0  0  0  0  0
  161.4530  209.0690  150.2390 S   0  0  0  0  0  0  0  0  0  0  0  0
  162.6600  206.8520  152.7040 C   0  0  0  0  0  2  0  0  0  0  0  0
  159.6050  208.8390  154.1910 C   0  0  0  0  0  2  0  0  0  0  0  0
  163.2000  210.3310  152.0410 C   0  0  0  0  0  1  0  0  0  0  0  0
  160.8550  211.2940  152.0270 C   0  0  1  0  0  3  0  0  0  0  0  0
  161.3090  205.7030  150.8280 C   0  0  2  0  0  3  0  0  0  0  0  0
  161.6290  207.9990  155.2630 N   0  0  0  0  0  1  0  0  0  0  0  0
  160.7580  207.8260  154.1100 C   0  0  2  0  0  3  0  0  0  0  0  0
  160.0140  210.2670  153.8370 C   0  0  2  0  0  3  0  0  0  0  0  0
  159.3820  213.1500  151.6810 O   0  0  0  0  0  1  0  0  0  0  0  0
  160.8370  212.6910  149.9650 O   0  0  0  0  0  0  0  0  0  0  0  0
  160.3180  212.4350  151.2280 C   0  0  0  0  0  0  0  0  0  0  0  0
  160.7330  204.3560  150.4010 C   0  0  0  0  0  2  0  0  0  0  0  0
  161.2820  203.9290  149.0500 C   0  0  0  0  0  2  0  0  0  0  0  0
  160.4750  202.7720  148.4880 C   0  0  0  0  0  2  0  0  0  0  0  0
  161.3810  201.5780  148.2380 C   0  0  2  0  0  3  0  0  0  0  0  0
  161.1590  201.0120  146.8660 C   0  0  0  0  0  0  0  0  0  0  0  0
  161.5650  199.8930  146.5850 O   0  0  0  0  0  0  0  0  0  0  0  0
  159.9500  201.0240  144.8290 O   0  0  0  0  0  1  0  0  0  0  0  0
  160.4490  201.8410  145.8450 C   0  0  2  0  0  3  0  0  0  0  0  0
  161.3920  202.8820  145.2600 C   0  0  0  0  0  2  0  0  0  0  0  0
  160.6120  204.0590  144.6970 C   0  0  0  0  0  2  0  0  0  0  0  0
  162.7060  205.8260  145.4840 O   0  0  0  0  0  0  0  0  0  0  0  0
  161.5970  205.9330  146.0710 C   0  0  0  0  0  0  0  0  0  0  0  0
  161.4300  206.9280  147.1600 C   0  0  0  0  0  1  0  0  0  0  0  0
  160.4960  205.1000  145.7060 N   0  0  0  0  0  2  0  0  0  0  0  0
  161.1500  200.5940  149.2030 O   0  0  0  0  0  0  0  0  0  0  0  0
  159.9290  200.9440  149.7800 C   0  0  0  0  0  1  0  0  0  0  0  0
  159.2220  211.1600  154.5630 O   0  0  0  0  0  0  0  0  0  0  0  0
  159.8190  211.2260  155.8240 C   0  0  0  0  0  2  0  0  0  0  0  0
  158.8310  211.2060  156.8090 O   0  0  0  0  0  1  0  0  0  0  0  0
  1  9  1  6  0  0  0
  1 15  1  0  0  0  0
  2  5  1  6  0  0  0
  2  1  1  0  0  0  0
  4  3  2  0  0  0  0
  4  9  1  0  0  0  0
  6 16  1  0  0  0  0
  7 12  1  0  0  0  0
  7 11  1  1  0  0  0
  8  7  1  0  0  0  0
  8  2  1  0  0  0  0
 12 19  1  6  0  0  0
 12  6  1  0  0  0  0
 13 20  1  1  0  0  0
 13  5  1  0  0  0  0
 13  4  1  0  0  0  0
 15 10  1  0  0  0  0
 15 14  1  1  0  0  0
 16 10  1  0  0  0  0
 16 36  1  1  0  0  0
 18 19  2  0  0  0  0
 19 17  1  0  0  0  0
 21 20  1  0  0  0  0
 22 21  1  0  0  0  0
 23 22  1  1  0  0  0
 23 34  1  0  0  0  0
 24 23  1  0  0  0  0
 25 24  2  0  0  0  0
 27 26  1  6  0  0  0
 27 24  1  0  0  0  0
 28 27  1  0  0  0  0
 29 28  1  0  0  0  0
 29 33  1  0  0  0  0
 30 31  2  0  0  0  0
 31 32  1  0  0  0  0
 33 31  1  0  0  0  0
 34 35  1  0  0  0  0
 36 37  1  0  0  0  0
 37 38  1  0  0  0  0
M  END
>  <MODEL>
7

>  <REMARK>
 VINA RESULT:      -3.7      3.133      5.485
  Name = 
  13 active torsions:
  status: ('A' for Active; 'I' for Inactive)
    1  A    between atoms: C_4  and  C_26
    2  A    between atoms: C_4  and  C_29
    3  A    between atoms: C_9  and  C_29
    4  A    between atoms: C_9  and  C_30
    5  A    between atoms: C_10  and  O_33
    6  A    between atoms: C_14  and  C_26
    7  A    between atoms: C_14  and  C_37
    8  A    between atoms: C_20  and  N_23
    9  A    between atoms: C_20  and  C_31
   10  A    between atoms: C_22  and  C_28
   11  A    between atoms: C_26  and  O_32
   12  A    between atoms: C_31  and  C_37
   13  A    between atoms: O_33  and  C_38
                            x       y       z     vdW  Elec       q    Type
                         _______ _______ _______ _____ _____    ______ ____

>  <TORSDO>
F 13

$$$$
=
 OpenBabel11072412183D

 38 39  0  0  1  0  0  0  0  0999 V2000
  161.8910  207.8400  150.6380 C   0  0  2  0  0  3  0  0  0  0  0  0
  160.7850  207.4960  151.6510 C   0  0  2  0  0  3  0  0  0  0  0  0
  161.9450  211.3490  151.0340 O   0  0  0  0  0  0  0  0  0  0  0  0
  161.7670  210.2100  151.4420 C   0  0  0  0  0  0  0  0  0  0  0  0
  159.8990  208.6920  152.0110 C   0  0  0  0  0  2  0  0  0  0  0  0
  160.6480  204.9810  150.5960 O   0  0  0  0  0  0  0  0  0  0  0  0
  162.3970  205.2990  152.3000 C   0  0  2  0  0  3  0  0  0  0  0  0
  161.4020  206.6110  153.1290 S   0  0  0  0  0  0  0  0  0  0  0  0
  162.6760  209.1100  150.9900 C   0  0  0  0  0  2  0  0  0  0  0  0
  160.5290  206.6010  148.8490 C   0  0  0  0  0  2  0  0  0  0  0  0
  163.7440  205.7910  151.8120 C   0  0  0  0  0  1  0  0  0  0  0  0
  161.7100  204.3750  151.2820 C   0  0  1  0  0  3  0  0  0  0  0  0
  160.7160  209.8960  152.4750 C   0  0  2  0  0  3  0  0  0  0  0  0
  162.5330  207.8690  148.2760 N   0  0  0  0  0  1  0  0  0  0  0  0
  161.3990  207.8220  149.1860 C   0  0  2  0  0  3  0  0  0  0  0  0
  161.1270  205.2730  149.3100 C   0  0  2  0  0  3  0  0  0  0  0  0
  160.2500  203.1400  152.7240 O   0  0  0  0  0  1  0  0  0  0  0  0
  161.9310  201.9340  151.7270 O   0  0  0  0  0  0  0  0  0  0  0  0
  161.2440  203.1220  151.9470 C   0  0  0  0  0  0  0  0  0  0  0  0
  159.7930  211.0840  152.7330 C   0  0  0  0  0  2  0  0  0  0  0  0
  158.9920  210.8880  154.0100 C   0  0  0  0  0  2  0  0  0  0  0  0
  159.7090  209.9330  154.9480 C   0  0  0  0  0  2  0  0  0  0  0  0
  159.6370  210.4530  156.3740 C   0  0  2  0  0  3  0  0  0  0  0  0
  160.4370  211.7120  156.5280 C   0  0  0  0  0  0  0  0  0  0  0  0
  161.6340  211.6590  156.7780 O   0  0  0  0  0  0  0  0  0  0  0  0
  160.4370  214.0070  157.1140 O   0  0  0  0  0  1  0  0  0  0  0  0
  159.7490  213.0320  156.3900 C   0  0  2  0  0  3  0  0  0  0  0  0
  158.3130  212.9340  156.8820 C   0  0  0  0  0  2  0  0  0  0  0  0
  157.5880  214.2560  156.6950 C   0  0  0  0  0  2  0  0  0  0  0  0
  154.8130  213.9800  156.1070 O   0  0  0  0  0  0  0  0  0  0  0  0
  155.6040  214.1370  155.1400 C   0  0  0  0  0  0  0  0  0  0  0  0
  155.0820  214.1340  153.7500 C   0  0  0  0  0  1  0  0  0  0  0  0
  157.0030  214.3120  155.3640 N   0  0  0  0  0  2  0  0  0  0  0  0
  160.1050  209.4790  157.2610 O   0  0  0  0  0  0  0  0  0  0  0  0
  160.2180  208.3220  156.4880 C   0  0  0  0  0  1  0  0  0  0  0  0
  160.7270  204.2650  148.4290 O   0  0  0  0  0  0  0  0  0  0  0  0
  161.6970  204.2620  147.4240 C   0  0  0  0  0  2  0  0  0  0  0  0
  161.2860  203.4290  146.3830 O   0  0  0  0  0  1  0  0  0  0  0  0
  1  9  1  1  0  0  0
  1  2  1  0  0  0  0
  2  5  1  1  0  0  0
  2  8  1  0  0  0  0
  3  4  2  0  0  0  0
  4 13  1  0  0  0  0
  5 13  1  0  0  0  0
  6 12  1  0  0  0  0
  7 11  1  6  0  0  0
  7  8  1  0  0  0  0
  9  4  1  0  0  0  0
 10 15  1  0  0  0  0
 10 16  1  0  0  0  0
 12 19  1  1  0  0  0
 12  7  1  0  0  0  0
 13 20  1  6  0  0  0
 15 14  1  6  0  0  0
 15  1  1  0  0  0  0
 16 36  1  6  0  0  0
 16  6  1  0  0  0  0
 18 19  2  0  0  0  0
 19 17  1  0  0  0  0
 20 21  1  0  0  0  0
 21 22  1  0  0  0  0
 23 22  1  6  0  0  0
 23 24  1  0  0  0  0
 23 34  1  0  0  0  0
 24 25  2  0  0  0  0
 27 24  1  0  0  0  0
 27 28  1  0  0  0  0
 27 26  1  1  0  0  0
 29 28  1  0  0  0  0
 31 33  1  0  0  0  0
 31 30  2  0  0  0  0
 32 31  1  0  0  0  0
 33 29  1  0  0  0  0
 35 34  1  0  0  0  0
 37 36  1  0  0  0  0
 38 37  1  0  0  0  0
M  END
>  <MODEL>
8

>  <REMARK>
 VINA RESULT:      -3.5      2.641      9.672
  Name = 
  13 active torsions:
  status: ('A' for Active; 'I' for Inactive)
    1  A    between atoms: C_4  and  C_26
    2  A    between atoms: C_4  and  C_29
    3  A    between atoms: C_9  and  C_29
    4  A    between atoms: C_9  and  C_30
    5  A    between atoms: C_10  and  O_33
    6  A    between atoms: C_14  and  C_26
    7  A    between atoms: C_14  and  C_37
    8  A    between atoms: C_20  and  N_23
    9  A    between atoms: C_20  and  C_31
   10  A    between atoms: C_22  and  C_28
   11  A    between atoms: C_26  and  O_32
   12  A    between atoms: C_31  and  C_37
   13  A    between atoms: O_33  and  C_38
                            x       y       z     vdW  Elec       q    Type
                         _______ _______ _______ _____ _____    ______ ____

>  <TORSDO>
F 13

$$$$
=
 OpenBabel11072412183D

 38 39  0  0  1  0  0  0  0  0999 V2000
  162.0060  207.8620  150.9850 C   0  0  2  0  0  3  0  0  0  0  0  0
  160.8540  207.3830  151.8850 C   0  0  2  0  0  3  0  0  0  0  0  0
  162.2900  211.1830  152.1520 O   0  0  0  0  0  0  0  0  0  0  0  0
  162.0240  209.9980  152.2950 C   0  0  0  0  0  0  0  0  0  0  0  0
  160.0420  208.5310  152.4930 C   0  0  0  0  0  2  0  0  0  0  0  0
  160.5730  205.1810  150.2970 O   0  0  0  0  0  0  0  0  0  0  0  0
  162.2950  204.9870  152.0460 C   0  0  2  0  0  3  0  0  0  0  0  0
  161.3700  206.1510  153.1350 S   0  0  0  0  0  0  0  0  0  0  0  0
  162.8670  208.9630  151.6190 C   0  0  0  0  0  2  0  0  0  0  0  0
  160.6100  207.1510  148.9520 C   0  0  0  0  0  2  0  0  0  0  0  0
  163.6850  205.4760  151.6930 C   0  0  0  0  0  1  0  0  0  0  0  0
  161.5730  204.3630  150.8410 C   0  0  1  0  0  3  0  0  0  0  0  0
  160.9280  209.5410  153.2210 C   0  0  2  0  0  3  0  0  0  0  0  0
  162.7100  208.3660  148.6960 N   0  0  0  0  0  1  0  0  0  0  0  0
  161.5520  208.2010  149.5610 C   0  0  2  0  0  3  0  0  0  0  0  0
  161.1030  205.7140  149.1130 C   0  0  2  0  0  3  0  0  0  0  0  0
  160.9620  202.0980  150.3570 O   0  0  0  0  0  0  0  0  0  0  0  0
  160.4980  202.8280  152.4840 O   0  0  0  0  0  1  0  0  0  0  0  0
  161.0050  203.0300  151.2060 C   0  0  0  0  0  0  0  0  0  0  0  0
  160.0810  210.7060  153.7280 C   0  0  0  0  0  2  0  0  0  0  0  0
  159.0590  211.1330  152.6880 C   0  0  0  0  0  2  0  0  0  0  0  0
  158.3810  212.4260  153.1060 C   0  0  0  0  0  2  0  0  0  0  0  0
  157.8580  212.3030  154.5270 C   0  0  2  0  0  3  0  0  0  0  0  0
  156.3660  212.4540  154.5650 C   0  0  0  0  0  0  0  0  0  0  0  0
  155.6540  211.5000  154.8480 O   0  0  0  0  0  0  0  0  0  0  0  0
  154.9340  214.2010  155.2800 O   0  0  0  0  0  1  0  0  0  0  0  0
  155.7610  213.7810  154.2360 C   0  0  2  0  0  3  0  0  0  0  0  0
  154.9660  213.6950  152.9420 C   0  0  0  0  0  2  0  0  0  0  0  0
  155.6670  214.4530  151.8280 C   0  0  0  0  0  2  0  0  0  0  0  0
  157.9440  214.3530  150.1160 O   0  0  0  0  0  0  0  0  0  0  0  0
  156.9610  213.6200  149.8280 C   0  0  0  0  0  0  0  0  0  0  0  0
  157.0020  212.7750  148.6080 C   0  0  0  0  0  1  0  0  0  0  0  0
  155.7990  213.5980  150.6580 N   0  0  0  0  0  2  0  0  0  0  0  0
  158.4550  213.2700  155.3410 O   0  0  0  0  0  0  0  0  0  0  0  0
  158.3290  212.7680  156.6370 C   0  0  0  0  0  1  0  0  0  0  0  0
  160.6590  204.9570  148.0260 O   0  0  0  0  0  0  0  0  0  0  0  0
  160.8350  205.7860  146.9150 C   0  0  0  0  0  2  0  0  0  0  0  0
  161.8490  205.2730  146.1070 O   0  0  0  0  0  1  0  0  0  0  0  0
  1  9  1  1  0  0  0
  1  2  1  0  0  0  0
  2  5  1  1  0  0  0
  2  8  1  0  0  0  0
  3  4  2  0  0  0  0
  4 13  1  0  0  0  0
  5 13  1  0  0  0  0
  6 12  1  0  0  0  0
  7 11  1  6  0  0  0
  7  8  1  0  0  0  0
  9  4  1  0  0  0  0
 10 16  1  0  0  0  0
 10 15  1  0  0  0  0
 12 19  1  1  0  0  0
 12  7  1  0  0  0  0
 13 20  1  6  0  0  0
 15 14  1  6  0  0  0
 15  1  1  0  0  0  0
 16 36  1  6  0  0  0
 16  6  1  0  0  0  0
 17 19  2  0  0  0  0
 19 18  1  0  0  0  0
 21 22  1  0  0  0  0
 21 20  1  0  0  0  0
 23 22  1  6  0  0  0
 23 24  1  0  0  0  0
 23 34  1  0  0  0  0
 24 25  2  0  0  0  0
 27 24  1  0  0  0  0
 27 26  1  1  0  0  0
 28 27  1  0  0  0  0
 29 28  1  0  0  0  0
 31 30  2  0  0  0  0
 31 33  1  0  0  0  0
 32 31  1  0  0  0  0
 33 29  1  0  0  0  0
 34 35  1  0  0  0  0
 37 36  1  0  0  0  0
 38 37  1  0  0  0  0
M  END
>  <MODEL>
9

>  <REMARK>
 VINA RESULT:      -3.3      2.723      9.600
  Name = 
  13 active torsions:
  status: ('A' for Active; 'I' for Inactive)
    1  A    between atoms: C_4  and  C_26
    2  A    between atoms: C_4  and  C_29
    3  A    between atoms: C_9  and  C_29
    4  A    between atoms: C_9  and  C_30
    5  A    between atoms: C_10  and  O_33
    6  A    between atoms: C_14  and  C_26
    7  A    between atoms: C_14  and  C_37
    8  A    between atoms: C_20  and  N_23
    9  A    between atoms: C_20  and  C_31
   10  A    between atoms: C_22  and  C_28
   11  A    between atoms: C_26  and  O_32
   12  A    between atoms: C_31  and  C_37
   13  A    between atoms: O_33  and  C_38
                            x       y       z     vdW  Elec       q    Type
                         _______ _______ _______ _____ _____    ______ ____

>  <TORSDO>
F 13

$$$$
