=
 OpenBabel11072412123D

 31 34  0  0  1  0  0  0  0  0999 V2000
  159.8210  211.2130  153.3960 C   0  0  2  0  0  3  0  0  0  0  0  0
  161.4660  208.5890  154.0610 O   0  0  0  0  0  0  0  0  0  0  0  0
  160.7080  208.7800  152.8980 C   0  0  1  0  0  3  0  0  0  0  0  0
  159.1850  210.5560  154.6130 C   0  0  0  0  0  2  0  0  0  0  0  0
  160.7030  208.8110  157.2590 N   0  0  0  0  0  1  0  0  0  0  0  0
  160.1790  210.3250  155.5700 O   0  0  0  0  0  0  0  0  0  0  0  0
  160.5810  207.9880  154.9670 C   0  0  0  0  0  2  0  0  0  0  0  0
  160.0270  208.9940  155.9880 C   0  0  1  0  0  3  0  0  0  0  0  0
  159.3100  210.6460  152.2090 O   0  0  0  0  0  0  0  0  0  0  0  0
  160.6280  210.2740  152.5560 C   0  0  1  0  0  0  0  0  0  0  0  0
  161.7070  210.8950  151.6480 C   0  0  1  0  0  3  0  0  0  0  0  0
  163.1260  210.3890  151.9140 C   0  0  0  0  0  1  0  0  0  0  0  0
  161.3100  210.9350  150.1630 C   0  0  1  0  0  3  0  0  0  0  0  0
  160.0440  213.0810  150.3390 O   0  0  0  0  0  1  0  0  0  0  0  0
  161.0470  212.3420  149.7200 C   0  0  0  0  0  0  0  0  0  0  0  0
  161.7400  212.8690  148.8080 O   0  0  0  0  0  0  0  0  0  0  0  0
  162.3270  210.2300  149.2590 C   0  0  0  0  0  2  0  0  0  0  0  0
  161.7860  208.9310  148.7460 C   0  0  0  0  0  3  0  0  0  0  0  0
  162.5040  208.1570  148.1320 O   0  0  0  0  0  0  0  0  0  0  0  0
  161.2920  208.0300  151.7910 N   0  0  0  0  0  2  0  0  0  0  0  0
  161.0000  204.0620  148.9490 C   0  0  0  0  0  0  0  0  0  0  0  0
  160.8760  201.8600  149.9680 C   0  0  0  0  0  3  0  0  0  0  0  0
  161.1550  206.0410  150.3900 C   0  0  0  0  0  3  0  0  0  0  0  0
  161.0410  203.8200  151.3770 C   0  0  0  0  0  0  0  0  0  0  0  0
  160.9030  202.6710  148.8300 C   0  0  0  0  0  3  0  0  0  0  0  0
  161.1020  204.3900  152.6520 C   0  0  0  0  0  3  0  0  0  0  0  0
  160.9470  202.4340  151.2390 C   0  0  0  0  0  3  0  0  0  0  0  0
  161.1880  205.7770  152.7960 C   0  0  0  0  0  3  0  0  0  0  0  0
  161.0260  204.8840  147.7040 C   0  0  0  0  0  1  0  0  0  0  0  0
  161.2180  206.6080  151.6660 C   0  0  0  0  0  0  0  0  0  0  0  0
  161.0680  204.6490  150.2280 C   0  0  0  0  0  0  0  0  0  0  0  0
  1  4  1  1  0  0  0
  2  7  1  0  0  0  0
  3 20  1  6  0  0  0
  3  2  1  0  0  0  0
  4  6  1  0  0  0  0
  6  8  1  0  0  0  0
  7  8  1  0  0  0  0
  8  5  1  1  0  0  0
  9 10  1  0  0  0  0
  9  1  1  0  0  0  0
 10 11  1  6  0  0  0
 10  3  1  0  0  0  0
 10  1  1  0  0  0  0
 11 12  1  6  0  0  0
 13 17  1  6  0  0  0
 13 11  1  0  0  0  0
 15 13  1  0  0  0  0
 15 14  1  0  0  0  0
 16 15  2  0  0  0  0
 18 17  1  0  0  0  0
 19 18  2  0  0  0  0
 21 31  1  0  0  0  0
 22 27  2  0  0  0  0
 23 30  1  0  0  0  0
 24 26  2  0  0  0  0
 25 21  2  0  0  0  0
 25 22  1  0  0  0  0
 26 28  1  0  0  0  0
 27 24  1  0  0  0  0
 29 21  1  0  0  0  0
 30 20  1  0  0  0  0
 30 28  2  0  0  0  0
 31 23  2  0  0  0  0
 31 24  1  0  0  0  0
M  END
>  <MODEL>
1

>  <REMARK>
 VINA RESULT:      -6.9      0.000      0.000
  Name = 
  7 active torsions:
  status: ('A' for Active; 'I' for Inactive)
    1  A    between atoms: C_3  and  C_20
    2  A    between atoms: C_3  and  C_26
    3  A    between atoms: C_8  and  N_11
    4  A    between atoms: N_11  and  C_25
    5  A    between atoms: C_18  and  C_26
    6  A    between atoms: C_26  and  C_29
    7  A    between atoms: C_28  and  C_29
                            x       y       z     vdW  Elec       q    Type
                         _______ _______ _______ _____ _____    ______ ____

>  <TORSDO>
F 7

$$$$
=
 OpenBabel11072412123D

 31 34  0  0  1  0  0  0  0  0999 V2000
  162.0110  210.2740  152.9260 C   0  0  2  0  0  3  0  0  0  0  0  0
  160.7970  208.1030  150.9650 O   0  0  0  0  0  0  0  0  0  0  0  0
  161.4800  207.8090  152.1530 C   0  0  1  0  0  3  0  0  0  0  0  0
  162.7770  210.3470  151.6120 C   0  0  0  0  0  2  0  0  0  0  0  0
  161.6230  209.8920  148.3230 N   0  0  0  0  0  1  0  0  0  0  0  0
  161.8600  210.4800  150.5630 O   0  0  0  0  0  0  0  0  0  0  0  0
  161.7910  208.1070  149.9760 C   0  0  0  0  0  2  0  0  0  0  0  0
  162.2220  209.5310  149.5950 C   0  0  1  0  0  3  0  0  0  0  0  0
  162.5610  209.2780  153.7600 O   0  0  0  0  0  0  0  0  0  0  0  0
  161.3260  208.9640  153.1520 C   0  0  1  0  0  0  0  0  0  0  0  0
  160.1370  208.9540  154.1330 C   0  0  1  0  0  3  0  0  0  0  0  0
  160.1720  207.8200  155.1600 C   0  0  0  0  0  1  0  0  0  0  0  0
  159.8160  210.3390  154.7200 C   0  0  1  0  0  3  0  0  0  0  0  0
  157.5180  211.3120  154.8160 O   0  0  0  0  0  1  0  0  0  0  0  0
  158.6170  210.9360  154.0500 C   0  0  0  0  0  0  0  0  0  0  0  0
  158.6020  211.1210  152.8030 O   0  0  0  0  0  0  0  0  0  0  0  0
  159.6670  210.3150  156.2460 C   0  0  0  0  0  2  0  0  0  0  0  0
  160.7620  211.0930  156.9090 C   0  0  0  0  0  3  0  0  0  0  0  0
  161.8740  211.1530  156.4080 O   0  0  0  0  0  0  0  0  0  0  0  0
  160.9770  206.5640  152.7250 N   0  0  0  0  0  2  0  0  0  0  0  0
  161.1810  204.0610  148.5290 C   0  0  0  0  0  0  0  0  0  0  0  0
  161.0840  201.6340  148.5720 C   0  0  0  0  0  3  0  0  0  0  0  0
  161.0860  205.3000  150.6440 C   0  0  0  0  0  3  0  0  0  0  0  0
  161.0030  202.8680  150.6510 C   0  0  0  0  0  0  0  0  0  0  0  0
  161.1750  202.8320  147.8590 C   0  0  0  0  0  3  0  0  0  0  0  0
  160.9090  202.8820  152.0460 C   0  0  0  0  0  3  0  0  0  0  0  0
  161.0000  201.6520  149.9660 C   0  0  0  0  0  3  0  0  0  0  0  0
  160.9030  204.0960  152.7360 C   0  0  0  0  0  3  0  0  0  0  0  0
  161.2810  205.3130  147.7230 C   0  0  0  0  0  1  0  0  0  0  0  0
  160.9950  205.3100  152.0390 C   0  0  0  0  0  0  0  0  0  0  0  0
  161.0930  204.0880  149.9350 C   0  0  0  0  0  0  0  0  0  0  0  0
  1  4  1  6  0  0  0
  1 10  1  0  0  0  0
  1  9  1  0  0  0  0
  2  3  1  0  0  0  0
  3 20  1  1  0  0  0
  3 10  1  0  0  0  0
  6  4  1  0  0  0  0
  7  2  1  0  0  0  0
  8  5  1  6  0  0  0
  8  7  1  0  0  0  0
  8  6  1  0  0  0  0
 10  9  1  0  0  0  0
 10 11  1  1  0  0  0
 11 13  1  0  0  0  0
 11 12  1  1  0  0  0
 13 17  1  1  0  0  0
 15 13  1  0  0  0  0
 15 14  1  0  0  0  0
 16 15  2  0  0  0  0
 17 18  1  0  0  0  0
 19 18  2  0  0  0  0
 21 31  1  0  0  0  0
 22 27  2  0  0  0  0
 23 30  1  0  0  0  0
 24 26  2  0  0  0  0
 25 21  2  0  0  0  0
 25 22  1  0  0  0  0
 26 28  1  0  0  0  0
 27 24  1  0  0  0  0
 29 21  1  0  0  0  0
 30 20  1  0  0  0  0
 30 28  2  0  0  0  0
 31 23  2  0  0  0  0
 31 24  1  0  0  0  0
M  END
>  <MODEL>
2

>  <REMARK>
 VINA RESULT:      -6.8      1.760      4.441
  Name = 
  7 active torsions:
  status: ('A' for Active; 'I' for Inactive)
    1  A    between atoms: C_3  and  C_20
    2  A    between atoms: C_3  and  C_26
    3  A    between atoms: C_8  and  N_11
    4  A    between atoms: N_11  and  C_25
    5  A    between atoms: C_18  and  C_26
    6  A    between atoms: C_26  and  C_29
    7  A    between atoms: C_28  and  C_29
                            x       y       z     vdW  Elec       q    Type
                         _______ _______ _______ _____ _____    ______ ____

>  <TORSDO>
F 7

$$$$
=
 OpenBabel11072412123D

 31 34  0  0  1  0  0  0  0  0999 V2000
  162.0040  210.3030  152.9610 C   0  0  2  0  0  3  0  0  0  0  0  0
  160.7570  208.1920  150.9550 O   0  0  0  0  0  0  0  0  0  0  0  0
  161.4140  207.8640  152.1490 C   0  0  1  0  0  3  0  0  0  0  0  0
  162.7900  210.3700  151.6590 C   0  0  0  0  0  2  0  0  0  0  0  0
  161.6710  209.9900  148.3490 N   0  0  0  0  0  1  0  0  0  0  0  0
  161.8930  210.5430  150.6000 O   0  0  0  0  0  0  0  0  0  0  0  0
  161.7650  208.1800  149.9800 C   0  0  0  0  0  2  0  0  0  0  0  0
  162.2420  209.5960  149.6240 C   0  0  1  0  0  3  0  0  0  0  0  0
  162.5130  209.2810  153.7900 O   0  0  0  0  0  0  0  0  0  0  0  0
  161.2780  209.0100  153.1610 C   0  0  1  0  0  0  0  0  0  0  0  0
  160.0760  209.0220  154.1240 C   0  0  1  0  0  3  0  0  0  0  0  0
  160.3990  208.5560  155.5460 C   0  0  0  0  0  1  0  0  0  0  0  0
  159.2420  210.3110  154.0480 C   0  0  1  0  0  3  0  0  0  0  0  0
  158.6000  211.2820  156.2580 O   0  0  0  0  0  1  0  0  0  0  0  0
  159.5250  211.1990  155.2210 C   0  0  0  0  0  0  0  0  0  0  0  0
  160.6000  211.8530  155.2880 O   0  0  0  0  0  0  0  0  0  0  0  0
  159.4150  211.0510  152.7160 C   0  0  0  0  0  2  0  0  0  0  0  0
  158.4900  212.2260  152.6250 C   0  0  0  0  0  3  0  0  0  0  0  0
  158.1910  212.7000  151.5400 O   0  0  0  0  0  0  0  0  0  0  0  0
  160.8680  206.6270  152.6970 N   0  0  0  0  0  2  0  0  0  0  0  0
  161.1540  204.0790  148.5340 C   0  0  0  0  0  0  0  0  0  0  0  0
  161.1420  201.6500  148.6080 C   0  0  0  0  0  3  0  0  0  0  0  0
  161.0180  205.3410  150.6320 C   0  0  0  0  0  3  0  0  0  0  0  0
  161.0200  202.9080  150.6710 C   0  0  0  0  0  0  0  0  0  0  0  0
  161.1900  202.8420  147.8790 C   0  0  0  0  0  3  0  0  0  0  0  0
  160.9280  202.9360  152.0650 C   0  0  0  0  0  3  0  0  0  0  0  0
  161.0590  201.6830  150.0010 C   0  0  0  0  0  3  0  0  0  0  0  0
  160.8800  204.1580  152.7400 C   0  0  0  0  0  3  0  0  0  0  0  0
  161.2100  205.3230  147.7120 C   0  0  0  0  0  1  0  0  0  0  0  0
  160.9280  205.3650  152.0270 C   0  0  0  0  0  0  0  0  0  0  0  0
  161.0670  204.1210  149.9390 C   0  0  0  0  0  0  0  0  0  0  0  0
  1  4  1  6  0  0  0
  1 10  1  0  0  0  0
  1  9  1  0  0  0  0
  2  3  1  0  0  0  0
  3 20  1  1  0  0  0
  3 10  1  0  0  0  0
  6  4  1  0  0  0  0
  7  2  1  0  0  0  0
  8  5  1  6  0  0  0
  8  7  1  0  0  0  0
  8  6  1  0  0  0  0
 10  9  1  0  0  0  0
 10 11  1  1  0  0  0
 11 12  1  1  0  0  0
 13 17  1  6  0  0  0
 13 11  1  0  0  0  0
 13 15  1  0  0  0  0
 15 16  2  0  0  0  0
 15 14  1  0  0  0  0
 18 17  1  0  0  0  0
 19 18  2  0  0  0  0
 21 31  1  0  0  0  0
 22 27  2  0  0  0  0
 23 30  1  0  0  0  0
 24 26  2  0  0  0  0
 25 21  2  0  0  0  0
 25 22  1  0  0  0  0
 26 28  1  0  0  0  0
 27 24  1  0  0  0  0
 29 21  1  0  0  0  0
 30 20  1  0  0  0  0
 30 28  2  0  0  0  0
 31 23  2  0  0  0  0
 31 24  1  0  0  0  0
M  END
>  <MODEL>
3

>  <REMARK>
 VINA RESULT:      -6.1      1.710      4.171
  Name = 
  7 active torsions:
  status: ('A' for Active; 'I' for Inactive)
    1  A    between atoms: C_3  and  C_20
    2  A    between atoms: C_3  and  C_26
    3  A    between atoms: C_8  and  N_11
    4  A    between atoms: N_11  and  C_25
    5  A    between atoms: C_18  and  C_26
    6  A    between atoms: C_26  and  C_29
    7  A    between atoms: C_28  and  C_29
                            x       y       z     vdW  Elec       q    Type
                         _______ _______ _______ _____ _____    ______ ____

>  <TORSDO>
F 7

$$$$
=
 OpenBabel11072412123D

 31 34  0  0  1  0  0  0  0  0999 V2000
  161.1160  202.9860  147.4720 C   0  0  2  0  0  3  0  0  0  0  0  0
  160.4570  203.5990  150.5090 O   0  0  0  0  0  0  0  0  0  0  0  0
  161.5840  204.0770  149.8270 C   0  0  1  0  0  3  0  0  0  0  0  0
  161.1980  201.6770  148.2440 C   0  0  0  0  0  2  0  0  0  0  0  0
  159.2690  200.5590  150.9610 N   0  0  0  0  0  1  0  0  0  0  0  0
  160.0140  201.5070  148.9690 O   0  0  0  0  0  0  0  0  0  0  0  0
  160.8750  202.3900  151.0820 C   0  0  0  0  0  2  0  0  0  0  0  0
  160.3940  201.1730  150.2790 C   0  0  1  0  0  3  0  0  0  0  0  0
  162.3420  203.6810  147.5510 O   0  0  0  0  0  0  0  0  0  0  0  0
  161.2830  204.2020  148.3270 C   0  0  1  0  0  0  0  0  0  0  0  0
  160.7100  205.5260  147.7840 C   0  0  1  0  0  3  0  0  0  0  0  0
  159.8580  206.3060  148.7880 C   0  0  0  0  0  1  0  0  0  0  0  0
  161.7420  206.3750  147.0250 C   0  0  1  0  0  3  0  0  0  0  0  0
  160.4450  206.2030  144.8980 O   0  0  0  0  0  1  0  0  0  0  0  0
  161.6690  206.1110  145.5520 C   0  0  0  0  0  0  0  0  0  0  0  0
  162.7090  205.8290  144.8970 O   0  0  0  0  0  0  0  0  0  0  0  0
  161.6300  207.8700  147.3450 C   0  0  0  0  0  2  0  0  0  0  0  0
  162.5380  208.2520  148.4740 C   0  0  0  0  0  3  0  0  0  0  0  0
  162.3140  209.2480  149.1440 O   0  0  0  0  0  0  0  0  0  0  0  0
  161.9940  205.3650  150.3780 N   0  0  0  0  0  2  0  0  0  0  0  0
  160.8230  209.1080  153.2990 C   0  0  0  0  0  0  0  0  0  0  0  0
  160.2720  208.6880  155.6270 C   0  0  0  0  0  3  0  0  0  0  0  0
  161.4000  207.2180  151.8460 C   0  0  0  0  0  3  0  0  0  0  0  0
  160.8310  206.8320  154.1800 C   0  0  0  0  0  0  0  0  0  0  0  0
  160.4530  209.5780  154.5640 C   0  0  0  0  0  3  0  0  0  0  0  0
  161.0260  205.4600  153.9950 C   0  0  0  0  0  3  0  0  0  0  0  0
  160.4590  207.3180  155.4350 C   0  0  0  0  0  3  0  0  0  0  0  0
  161.4070  204.9690  152.7440 C   0  0  0  0  0  3  0  0  0  0  0  0
  161.0030  210.0960  152.1960 C   0  0  0  0  0  1  0  0  0  0  0  0
  161.5920  205.8450  151.6630 C   0  0  0  0  0  0  0  0  0  0  0  0
  161.0180  207.7270  153.0970 C   0  0  0  0  0  0  0  0  0  0  0  0
  1  9  1  0  0  0  0
  1  4  1  1  0  0  0
  1 10  1  0  0  0  0
  2  7  1  0  0  0  0
  3 20  1  1  0  0  0
  3  2  1  0  0  0  0
  4  6  1  0  0  0  0
  6  8  1  0  0  0  0
  8  5  1  1  0  0  0
  8  7  1  0  0  0  0
  9 10  1  0  0  0  0
 10 11  1  6  0  0  0
 10  3  1  0  0  0  0
 11 12  1  1  0  0  0
 13 17  1  6  0  0  0
 13 11  1  0  0  0  0
 14 15  1  0  0  0  0
 15 13  1  0  0  0  0
 16 15  2  0  0  0  0
 17 18  1  0  0  0  0
 18 19  2  0  0  0  0
 20 30  1  0  0  0  0
 21 25  1  0  0  0  0
 23 31  1  0  0  0  0
 24 27  2  0  0  0  0
 25 22  2  0  0  0  0
 26 24  1  0  0  0  0
 27 22  1  0  0  0  0
 28 26  2  0  0  0  0
 29 21  1  0  0  0  0
 30 23  2  0  0  0  0
 30 28  1  0  0  0  0
 31 21  2  0  0  0  0
 31 24  1  0  0  0  0
M  END
>  <MODEL>
4

>  <REMARK>
 VINA RESULT:      -5.8      2.817      6.899
  Name = 
  7 active torsions:
  status: ('A' for Active; 'I' for Inactive)
    1  A    between atoms: C_3  and  C_20
    2  A    between atoms: C_3  and  C_26
    3  A    between atoms: C_8  and  N_11
    4  A    between atoms: N_11  and  C_25
    5  A    between atoms: C_18  and  C_26
    6  A    between atoms: C_26  and  C_29
    7  A    between atoms: C_28  and  C_29
                            x       y       z     vdW  Elec       q    Type
                         _______ _______ _______ _____ _____    ______ ____

>  <TORSDO>
F 7

$$$$
=
 OpenBabel11072412123D

 31 34  0  0  1  0  0  0  0  0999 V2000
  159.5000  212.1630  153.7410 C   0  0  2  0  0  3  0  0  0  0  0  0
  162.0580  210.3190  154.0460 O   0  0  0  0  0  0  0  0  0  0  0  0
  160.9620  210.0300  153.2220 C   0  0  1  0  0  3  0  0  0  0  0  0
  159.5320  211.6360  155.1690 C   0  0  0  0  0  2  0  0  0  0  0  0
  162.2870  211.0100  157.2600 N   0  0  0  0  0  1  0  0  0  0  0  0
  160.7880  211.9090  155.7210 O   0  0  0  0  0  0  0  0  0  0  0  0
  161.7530  209.7060  155.2700 C   0  0  0  0  0  2  0  0  0  0  0  0
  161.2330  210.7130  156.3070 C   0  0  1  0  0  3  0  0  0  0  0  0
  158.8740  211.2300  152.8870 O   0  0  0  0  0  0  0  0  0  0  0  0
  160.2790  211.3290  152.7730 C   0  0  1  0  0  0  0  0  0  0  0  0
  160.7480  212.0140  151.4750 C   0  0  1  0  0  3  0  0  0  0  0  0
  161.1710  211.0490  150.3660 C   0  0  0  0  0  1  0  0  0  0  0  0
  159.8230  213.1530  151.0140 C   0  0  1  0  0  3  0  0  0  0  0  0
  159.5440  213.4410  148.5490 O   0  0  0  0  0  0  0  0  0  0  0  0
  160.2790  213.7090  149.7000 C   0  0  0  0  0  0  0  0  0  0  0  0
  161.3070  214.4360  149.6310 O   0  0  0  0  0  1  0  0  0  0  0  0
  158.3470  212.7400  150.9810 C   0  0  0  0  0  2  0  0  0  0  0  0
  157.4520  213.9140  151.2340 C   0  0  0  0  0  3  0  0  0  0  0  0
  156.5160  214.1550  150.4870 O   0  0  0  0  0  0  0  0  0  0  0  0
  161.3960  209.2520  152.0660 N   0  0  0  0  0  2  0  0  0  0  0  0
  161.0070  205.1950  149.3640 C   0  0  0  0  0  0  0  0  0  0  0  0
  160.9060  203.0280  150.4580 C   0  0  0  0  0  3  0  0  0  0  0  0
  161.2110  207.2190  150.7350 C   0  0  0  0  0  3  0  0  0  0  0  0
  161.1190  205.0320  151.7970 C   0  0  0  0  0  0  0  0  0  0  0  0
  160.9020  203.8010  149.2930 C   0  0  0  0  0  3  0  0  0  0  0  0
  161.2190  205.6420  153.0500 C   0  0  0  0  0  3  0  0  0  0  0  0
  161.0150  203.6420  151.7070 C   0  0  0  0  0  3  0  0  0  0  0  0
  161.3140  207.0330  153.1460 C   0  0  0  0  0  3  0  0  0  0  0  0
  160.9990  205.9770  148.0930 C   0  0  0  0  0  1  0  0  0  0  0  0
  161.3130  207.8260  151.9900 C   0  0  0  0  0  0  0  0  0  0  0  0
  161.1140  205.8230  150.6210 C   0  0  0  0  0  0  0  0  0  0  0  0
  1  4  1  1  0  0  0
  2  7  1  0  0  0  0
  3 20  1  6  0  0  0
  3  2  1  0  0  0  0
  4  6  1  0  0  0  0
  6  8  1  0  0  0  0
  7  8  1  0  0  0  0
  8  5  1  1  0  0  0
  9  1  1  0  0  0  0
 10 11  1  6  0  0  0
 10  9  1  0  0  0  0
 10  3  1  0  0  0  0
 10  1  1  0  0  0  0
 11 12  1  6  0  0  0
 13 17  1  6  0  0  0
 13 11  1  0  0  0  0
 14 15  2  0  0  0  0
 15 13  1  0  0  0  0
 16 15  1  0  0  0  0
 17 18  1  0  0  0  0
 19 18  2  0  0  0  0
 21 31  1  0  0  0  0
 22 27  2  0  0  0  0
 23 30  1  0  0  0  0
 24 26  2  0  0  0  0
 25 21  2  0  0  0  0
 25 22  1  0  0  0  0
 26 28  1  0  0  0  0
 27 24  1  0  0  0  0
 29 21  1  0  0  0  0
 30 20  1  0  0  0  0
 30 28  2  0  0  0  0
 31 23  2  0  0  0  0
 31 24  1  0  0  0  0
M  END
>  <MODEL>
5

>  <REMARK>
 VINA RESULT:      -5.7      1.826      2.703
  Name = 
  7 active torsions:
  status: ('A' for Active; 'I' for Inactive)
    1  A    between atoms: C_3  and  C_20
    2  A    between atoms: C_3  and  C_26
    3  A    between atoms: C_8  and  N_11
    4  A    between atoms: N_11  and  C_25
    5  A    between atoms: C_18  and  C_26
    6  A    between atoms: C_26  and  C_29
    7  A    between atoms: C_28  and  C_29
                            x       y       z     vdW  Elec       q    Type
                         _______ _______ _______ _____ _____    ______ ____

>  <TORSDO>
F 7

$$$$
=
 OpenBabel11072412123D

 31 34  0  0  1  0  0  0  0  0999 V2000
  161.2750  204.8390  152.2740 C   0  0  2  0  0  3  0  0  0  0  0  0
  160.8790  207.9730  152.0320 O   0  0  0  0  0  0  0  0  0  0  0  0
  161.8880  207.2450  151.3850 C   0  0  1  0  0  3  0  0  0  0  0  0
  161.5440  205.4540  153.6410 C   0  0  0  0  0  2  0  0  0  0  0  0
  160.0000  208.1990  155.1990 N   0  0  0  0  0  1  0  0  0  0  0  0
  160.4570  206.2620  153.9920 O   0  0  0  0  0  0  0  0  0  0  0  0
  161.4520  208.3700  153.2480 C   0  0  0  0  0  2  0  0  0  0  0  0
  160.9950  207.4870  154.4180 C   0  0  1  0  0  3  0  0  0  0  0  0
  162.4410  204.8800  151.4790 O   0  0  0  0  0  0  0  0  0  0  0  0
  161.4270  205.8030  151.1390 C   0  0  1  0  0  0  0  0  0  0  0  0
  160.6940  205.4620  149.8270 C   0  0  1  0  0  3  0  0  0  0  0  0
  160.0810  206.6680  149.1120 C   0  0  0  0  0  1  0  0  0  0  0  0
  161.4830  204.5100  148.9130 C   0  0  1  0  0  3  0  0  0  0  0  0
  161.0520  202.2620  147.9160 O   0  0  0  0  0  0  0  0  0  0  0  0
  160.9480  203.1140  149.0100 C   0  0  0  0  0  0  0  0  0  0  0  0
  160.4260  202.6980  150.0800 O   0  0  0  0  0  1  0  0  0  0  0  0
  161.5470  204.9990  147.4620 C   0  0  0  0  0  2  0  0  0  0  0  0
  162.8980  204.7490  146.8660 C   0  0  0  0  0  3  0  0  0  0  0  0
  163.1200  205.0120  145.6940 O   0  0  0  0  0  0  0  0  0  0  0  0
  162.2430  207.8930  150.1270 N   0  0  0  0  0  2  0  0  0  0  0  0
  160.3810  212.2020  151.4960 C   0  0  0  0  0  0  0  0  0  0  0  0
  160.4560  214.0850  149.9620 C   0  0  0  0  0  3  0  0  0  0  0  0
  161.3280  210.0500  150.7960 C   0  0  0  0  0  3  0  0  0  0  0  0
  161.3950  211.9600  149.2890 C   0  0  0  0  0  0  0  0  0  0  0  0
  160.0960  213.5400  151.1990 C   0  0  0  0  0  3  0  0  0  0  0  0
  162.0380  211.1730  148.3290 C   0  0  0  0  0  3  0  0  0  0  0  0
  161.1050  213.2970  149.0100 C   0  0  0  0  0  3  0  0  0  0  0  0
  162.3230  209.8320  148.6000 C   0  0  0  0  0  3  0  0  0  0  0  0
  159.9790  211.6670  152.8290 C   0  0  0  0  0  1  0  0  0  0  0  0
  161.9730  209.2660  149.8340 C   0  0  0  0  0  0  0  0  0  0  0  0
  161.0340  211.3990  150.5390 C   0  0  0  0  0  0  0  0  0  0  0  0
  1  4  1  1  0  0  0
  2  7  1  0  0  0  0
  3 20  1  6  0  0  0
  3  2  1  0  0  0  0
  4  6  1  0  0  0  0
  6  8  1  0  0  0  0
  7  8  1  0  0  0  0
  8  5  1  6  0  0  0
  9  1  1  0  0  0  0
 10 11  1  6  0  0  0
 10  3  1  0  0  0  0
 10  9  1  0  0  0  0
 10  1  1  0  0  0  0
 11 12  1  6  0  0  0
 13 17  1  6  0  0  0
 13 15  1  0  0  0  0
 13 11  1  0  0  0  0
 14 15  2  0  0  0  0
 15 16  1  0  0  0  0
 18 17  1  0  0  0  0
 19 18  2  0  0  0  0
 21 29  1  0  0  0  0
 22 25  2  0  0  0  0
 24 31  1  0  0  0  0
 25 21  1  0  0  0  0
 26 28  2  0  0  0  0
 26 24  1  0  0  0  0
 27 24  2  0  0  0  0
 27 22  1  0  0  0  0
 28 30  1  0  0  0  0
 30 20  1  0  0  0  0
 30 23  2  0  0  0  0
 31 23  1  0  0  0  0
 31 21  2  0  0  0  0
M  END
>  <MODEL>
6

>  <REMARK>
 VINA RESULT:      -5.2      2.311      6.893
  Name = 
  7 active torsions:
  status: ('A' for Active; 'I' for Inactive)
    1  A    between atoms: C_3  and  C_20
    2  A    between atoms: C_3  and  C_26
    3  A    between atoms: C_8  and  N_11
    4  A    between atoms: N_11  and  C_25
    5  A    between atoms: C_18  and  C_26
    6  A    between atoms: C_26  and  C_29
    7  A    between atoms: C_28  and  C_29
                            x       y       z     vdW  Elec       q    Type
                         _______ _______ _______ _____ _____    ______ ____

>  <TORSDO>
F 7

$$$$
=
 OpenBabel11072412123D

 31 34  0  0  1  0  0  0  0  0999 V2000
  161.2610  206.9430  148.4190 C   0  0  2  0  0  3  0  0  0  0  0  0
  162.2900  208.6440  150.8850 O   0  0  0  0  0  0  0  0  0  0  0  0
  161.1150  207.8790  150.8810 C   0  0  1  0  0  3  0  0  0  0  0  0
  161.2060  208.4150  148.0310 C   0  0  0  0  0  2  0  0  0  0  0  0
  163.3780  211.0370  148.9000 N   0  0  0  0  0  1  0  0  0  0  0  0
  162.4560  208.9920  148.2790 O   0  0  0  0  0  0  0  0  0  0  0  0
  161.8840  209.9200  150.4690 C   0  0  0  0  0  2  0  0  0  0  0  0
  162.2130  210.1770  148.9910 C   0  0  1  0  0  3  0  0  0  0  0  0
  160.0850  206.5730  149.1070 O   0  0  0  0  0  0  0  0  0  0  0  0
  161.2490  206.7090  149.8970 C   0  0  1  0  0  0  0  0  0  0  0  0
  161.8170  205.3670  150.3980 C   0  0  1  0  0  3  0  0  0  0  0  0
  162.7400  205.4840  151.6130 C   0  0  0  0  0  1  0  0  0  0  0  0
  160.7600  204.2550  150.5030 C   0  0  1  0  0  3  0  0  0  0  0  0
  159.9700  202.2500  149.2400 O   0  0  0  0  0  1  0  0  0  0  0  0
  160.8400  203.3320  149.3250 C   0  0  0  0  0  0  0  0  0  0  0  0
  161.6730  203.5400  148.4010 O   0  0  0  0  0  0  0  0  0  0  0  0
  160.8310  203.4940  151.8320 C   0  0  0  0  0  2  0  0  0  0  0  0
  161.3930  202.1180  151.6390 C   0  0  0  0  0  3  0  0  0  0  0  0
  162.5250  201.8510  152.0110 O   0  0  0  0  0  0  0  0  0  0  0  0
  160.8310  207.3890  152.2260 N   0  0  0  0  0  2  0  0  0  0  0  0
  160.0560  211.7610  154.2730 C   0  0  0  0  0  0  0  0  0  0  0  0
  160.4560  212.0630  156.6510 C   0  0  0  0  0  3  0  0  0  0  0  0
  160.4420  209.5590  153.2640 C   0  0  0  0  0  3  0  0  0  0  0  0
  160.8210  209.8930  155.6450 C   0  0  0  0  0  0  0  0  0  0  0  0
  160.0720  212.5790  155.4090 C   0  0  0  0  0  3  0  0  0  0  0  0
  161.2040  208.5540  155.7660 C   0  0  0  0  0  3  0  0  0  0  0  0
  160.8290  210.7230  156.7680 C   0  0  0  0  0  3  0  0  0  0  0  0
  161.2070  207.7220  154.6440 C   0  0  0  0  0  3  0  0  0  0  0  0
  159.6370  212.3580  152.9710 C   0  0  0  0  0  1  0  0  0  0  0  0
  160.8230  208.2200  153.3890 C   0  0  0  0  0  0  0  0  0  0  0  0
  160.4340  210.4080  154.3830 C   0  0  0  0  0  0  0  0  0  0  0  0
  1  4  1  1  0  0  0
  1  9  1  0  0  0  0
  1 10  1  0  0  0  0
  3  2  1  0  0  0  0
  3 20  1  1  0  0  0
  4  6  1  0  0  0  0
  6  8  1  0  0  0  0
  7  2  1  0  0  0  0
  8  5  1  1  0  0  0
  8  7  1  0  0  0  0
  9 10  1  0  0  0  0
 10 11  1  1  0  0  0
 10  3  1  0  0  0  0
 11 13  1  0  0  0  0
 11 12  1  1  0  0  0
 13 17  1  1  0  0  0
 14 15  1  0  0  0  0
 15 13  1  0  0  0  0
 16 15  2  0  0  0  0
 18 17  1  0  0  0  0
 18 19  2  0  0  0  0
 20 30  1  0  0  0  0
 21 31  2  0  0  0  0
 21 25  1  0  0  0  0
 22 27  1  0  0  0  0
 23 30  2  0  0  0  0
 23 31  1  0  0  0  0
 24 26  1  0  0  0  0
 24 27  2  0  0  0  0
 25 22  2  0  0  0  0
 28 26  2  0  0  0  0
 29 21  1  0  0  0  0
 30 28  1  0  0  0  0
 31 24  1  0  0  0  0
M  END
>  <MODEL>
7

>  <REMARK>
 VINA RESULT:      -5.1      2.533      7.335
  Name = 
  7 active torsions:
  status: ('A' for Active; 'I' for Inactive)
    1  A    between atoms: C_3  and  C_20
    2  A    between atoms: C_3  and  C_26
    3  A    between atoms: C_8  and  N_11
    4  A    between atoms: N_11  and  C_25
    5  A    between atoms: C_18  and  C_26
    6  A    between atoms: C_26  and  C_29
    7  A    between atoms: C_28  and  C_29
                            x       y       z     vdW  Elec       q    Type
                         _______ _______ _______ _____ _____    ______ ____

>  <TORSDO>
F 7

$$$$
=
 OpenBabel11072412123D

 31 34  0  0  1  0  0  0  0  0999 V2000
  162.1520  210.6630  151.6760 C   0  0  2  0  0  3  0  0  0  0  0  0
  161.1190  208.9750  149.2020 O   0  0  0  0  0  0  0  0  0  0  0  0
  162.0340  208.5100  150.1560 C   0  0  1  0  0  3  0  0  0  0  0  0
  162.6590  211.3320  150.4050 C   0  0  0  0  0  2  0  0  0  0  0  0
  161.1040  211.6440  147.2700 N   0  0  0  0  0  1  0  0  0  0  0  0
  161.5760  211.5470  149.5470 O   0  0  0  0  0  0  0  0  0  0  0  0
  161.9140  209.5380  148.1930 C   0  0  0  0  0  2  0  0  0  0  0  0
  161.9660  211.0700  148.2860 C   0  0  1  0  0  3  0  0  0  0  0  0
  163.0300  209.6300  152.0710 O   0  0  0  0  0  0  0  0  0  0  0  0
  161.8060  209.2180  151.4990 C   0  0  1  0  0  0  0  0  0  0  0  0
  160.8240  208.6030  152.5150 C   0  0  1  0  0  3  0  0  0  0  0  0
  160.8310  207.0730  152.5570 C   0  0  0  0  0  1  0  0  0  0  0  0
  160.8640  209.2810  153.8940 C   0  0  1  0  0  3  0  0  0  0  0  0
  159.0050  210.6670  152.9670 O   0  0  0  0  0  0  0  0  0  0  0  0
  160.0250  210.5210  153.9020 C   0  0  0  0  0  0  0  0  0  0  0  0
  160.2200  211.4240  154.7610 O   0  0  0  0  0  1  0  0  0  0  0  0
  160.4870  208.3270  155.0340 C   0  0  0  0  0  2  0  0  0  0  0  0
  161.5820  208.2430  156.0540 C   0  0  0  0  0  3  0  0  0  0  0  0
  162.0110  209.2530  156.5890 O   0  0  0  0  0  0  0  0  0  0  0  0
  161.9060  207.0640  150.3100 N   0  0  0  0  0  2  0  0  0  0  0  0
  160.8320  202.5990  148.6310 C   0  0  0  0  0  0  0  0  0  0  0  0
  161.0900  202.1100  146.2650 C   0  0  0  0  0  3  0  0  0  0  0  0
  161.3670  204.8470  149.4550 C   0  0  0  0  0  3  0  0  0  0  0  0
  161.6040  204.3260  147.0890 C   0  0  0  0  0  0  0  0  0  0  0  0
  160.7500  201.7030  147.5590 C   0  0  0  0  0  3  0  0  0  0  0  0
  162.0380  205.6330  146.8510 C   0  0  0  0  0  3  0  0  0  0  0  0
  161.5150  203.4190  146.0310 C   0  0  0  0  0  3  0  0  0  0  0  0
  162.1380  206.5420  147.9070 C   0  0  0  0  0  3  0  0  0  0  0  0
  160.4560  202.1180  149.9930 C   0  0  0  0  0  1  0  0  0  0  0  0
  161.8000  206.1540  149.2120 C   0  0  0  0  0  0  0  0  0  0  0  0
  161.2620  203.9210  148.4040 C   0  0  0  0  0  0  0  0  0  0  0  0
  1  4  1  6  0  0  0
  1  9  1  0  0  0  0
  2  3  1  0  0  0  0
  3 20  1  1  0  0  0
  3 10  1  0  0  0  0
  6  4  1  0  0  0  0
  7  8  1  0  0  0  0
  7  2  1  0  0  0  0
  8  5  1  6  0  0  0
  8  6  1  0  0  0  0
 10  1  1  0  0  0  0
 10  9  1  0  0  0  0
 10 11  1  1  0  0  0
 11 12  1  1  0  0  0
 11 13  1  0  0  0  0
 13 15  1  0  0  0  0
 13 17  1  1  0  0  0
 14 15  2  0  0  0  0
 15 16  1  0  0  0  0
 17 18  1  0  0  0  0
 18 19  2  0  0  0  0
 21 29  1  0  0  0  0
 22 25  1  0  0  0  0
 24 31  1  0  0  0  0
 25 21  2  0  0  0  0
 26 24  2  0  0  0  0
 26 28  1  0  0  0  0
 27 22  2  0  0  0  0
 27 24  1  0  0  0  0
 28 30  2  0  0  0  0
 30 23  1  0  0  0  0
 30 20  1  0  0  0  0
 31 21  1  0  0  0  0
 31 23  2  0  0  0  0
M  END
>  <MODEL>
8

>  <REMARK>
 VINA RESULT:      -5.1      1.923      5.067
  Name = 
  7 active torsions:
  status: ('A' for Active; 'I' for Inactive)
    1  A    between atoms: C_3  and  C_20
    2  A    between atoms: C_3  and  C_26
    3  A    between atoms: C_8  and  N_11
    4  A    between atoms: N_11  and  C_25
    5  A    between atoms: C_18  and  C_26
    6  A    between atoms: C_26  and  C_29
    7  A    between atoms: C_28  and  C_29
                            x       y       z     vdW  Elec       q    Type
                         _______ _______ _______ _____ _____    ______ ____

>  <TORSDO>
F 7

$$$$
=
 OpenBabel11072412123D

 31 34  0  0  1  0  0  0  0  0999 V2000
  162.2630  210.0080  151.9900 C   0  0  2  0  0  3  0  0  0  0  0  0
  161.0300  208.6380  149.4130 O   0  0  0  0  0  0  0  0  0  0  0  0
  161.8870  208.0000  150.3210 C   0  0  1  0  0  3  0  0  0  0  0  0
  162.8400  210.7040  150.7650 C   0  0  0  0  0  2  0  0  0  0  0  0
  161.3210  211.4240  147.6790 N   0  0  0  0  0  1  0  0  0  0  0  0
  161.7860  211.1070  149.9380 O   0  0  0  0  0  0  0  0  0  0  0  0
  161.8810  209.1760  148.4380 C   0  0  0  0  0  2  0  0  0  0  0  0
  162.1140  210.6810  148.6410 C   0  0  1  0  0  3  0  0  0  0  0  0
  163.0140  208.8530  152.2980 O   0  0  0  0  0  0  0  0  0  0  0  0
  161.7480  208.6300  151.7130 C   0  0  1  0  0  0  0  0  0  0  0  0
  160.7040  208.0620  152.6940 C   0  0  1  0  0  3  0  0  0  0  0  0
  161.2060  206.8950  153.5470 C   0  0  0  0  0  1  0  0  0  0  0  0
  159.9440  209.1460  153.4760 C   0  0  1  0  0  3  0  0  0  0  0  0
  159.7580  208.6690  155.9200 O   0  0  0  0  0  1  0  0  0  0  0  0
  160.4650  209.2560  154.8760 C   0  0  0  0  0  0  0  0  0  0  0  0
  161.5480  209.8560  155.1130 O   0  0  0  0  0  0  0  0  0  0  0  0
  159.9380  210.5000  152.7580 C   0  0  0  0  0  2  0  0  0  0  0  0
  158.7550  211.3230  153.1650 C   0  0  0  0  0  3  0  0  0  0  0  0
  158.8910  212.2890  153.8990 O   0  0  0  0  0  0  0  0  0  0  0  0
  161.5910  206.5720  150.3710 N   0  0  0  0  0  2  0  0  0  0  0  0
  160.8320  202.1570  148.4120 C   0  0  0  0  0  0  0  0  0  0  0  0
  161.1150  201.8390  146.0200 C   0  0  0  0  0  3  0  0  0  0  0  0
  161.2090  204.3800  149.3770 C   0  0  0  0  0  3  0  0  0  0  0  0
  161.4710  204.0290  146.9830 C   0  0  0  0  0  0  0  0  0  0  0  0
  160.8110  201.3270  147.2850 C   0  0  0  0  0  3  0  0  0  0  0  0
  161.8100  205.3760  146.8280 C   0  0  0  0  0  3  0  0  0  0  0  0
  161.4430  203.1870  145.8700 C   0  0  0  0  0  3  0  0  0  0  0  0
  161.8480  206.2210  147.9400 C   0  0  0  0  0  3  0  0  0  0  0  0
  160.4990  201.5640  149.7400 C   0  0  0  0  0  1  0  0  0  0  0  0
  161.5450  205.7280  149.2180 C   0  0  0  0  0  0  0  0  0  0  0  0
  161.1660  203.5180  148.2690 C   0  0  0  0  0  0  0  0  0  0  0  0
  1  4  1  6  0  0  0
  1  9  1  0  0  0  0
  2  3  1  0  0  0  0
  3 20  1  1  0  0  0
  3 10  1  0  0  0  0
  6  4  1  0  0  0  0
  7  8  1  0  0  0  0
  7  2  1  0  0  0  0
  8  5  1  6  0  0  0
  8  6  1  0  0  0  0
 10  1  1  0  0  0  0
 10  9  1  0  0  0  0
 10 11  1  1  0  0  0
 11 13  1  0  0  0  0
 11 12  1  1  0  0  0
 13 17  1  6  0  0  0
 13 15  1  0  0  0  0
 15 16  2  0  0  0  0
 15 14  1  0  0  0  0
 17 18  1  0  0  0  0
 18 19  2  0  0  0  0
 21 29  1  0  0  0  0
 22 25  1  0  0  0  0
 24 31  1  0  0  0  0
 25 21  2  0  0  0  0
 26 24  2  0  0  0  0
 26 28  1  0  0  0  0
 27 22  2  0  0  0  0
 27 24  1  0  0  0  0
 28 30  2  0  0  0  0
 30 23  1  0  0  0  0
 30 20  1  0  0  0  0
 31 21  1  0  0  0  0
 31 23  2  0  0  0  0
M  END
>  <MODEL>
9

>  <REMARK>
 VINA RESULT:      -5.0      2.027      5.064
  Name = 
  7 active torsions:
  status: ('A' for Active; 'I' for Inactive)
    1  A    between atoms: C_3  and  C_20
    2  A    between atoms: C_3  and  C_26
    3  A    between atoms: C_8  and  N_11
    4  A    between atoms: N_11  and  C_25
    5  A    between atoms: C_18  and  C_26
    6  A    between atoms: C_26  and  C_29
    7  A    between atoms: C_28  and  C_29
                            x       y       z     vdW  Elec       q    Type
                         _______ _______ _______ _____ _____    ______ ____

>  <TORSDO>
F 7

$$$$
