=
 OpenBabel11072411363D

 25 27  0  0  1  0  0  0  0  0999 V2000
  160.9770  205.7450  151.8760 C   0  0  0  0  0  0  0  0  0  0  0  0
  160.8420  205.8080  150.4740 C   0  0  0  0  0  0  0  0  0  0  0  0
  160.7790  204.6670  149.7240 C   0  0  0  0  0  0  0  0  0  0  0  0
  160.7900  206.9970  149.5660 C   0  0  2  0  0  3  0  0  0  0  0  0
  160.6310  204.9280  148.3430 N   0  0  0  0  0  0  0  0  0  0  0  0
  160.5640  206.3760  148.1720 C   0  0  0  0  0  3  0  0  0  0  0  0
  160.8760  203.4100  150.3190 C   0  0  0  0  0  0  0  0  0  0  0  0
  161.0360  203.3400  151.6690 N   0  0  0  0  0  0  0  0  0  0  0  0
  161.0830  204.4620  152.4470 C   0  0  0  0  0  3  0  0  0  0  0  0
  160.6770  209.3190  153.1030 C   0  0  0  0  0  3  0  0  0  0  0  0
  160.6690  208.2130  152.2510 C   0  0  0  0  0  3  0  0  0  0  0  0
  161.3120  206.8190  154.1110 C   0  0  0  0  0  3  0  0  0  0  0  0
  160.9980  206.9450  152.7490 C   0  0  0  0  0  0  0  0  0  0  0  0
  161.3080  207.9480  154.9320 C   0  0  0  0  0  3  0  0  0  0  0  0
  160.9950  209.1660  154.4150 N   0  0  0  0  0  0  0  0  0  0  0  0
  162.0860  207.7610  149.5770 C   0  0  0  0  0  0  0  0  0  0  0  0
  163.0510  207.2910  150.1580 O   0  0  0  0  0  0  0  0  0  0  0  0
  162.0410  210.1150  149.8330 O   0  0  0  0  0  1  0  0  0  0  0  0
  162.2110  209.0910  148.9000 C   0  0  0  0  0  2  0  0  0  0  0  0
  160.8510  202.1580  149.5040 C   0  0  0  0  0  2  0  0  0  0  0  0
  161.4630  202.3930  148.1280 C   0  0  0  0  0  2  0  0  0  0  0  0
  161.0870  203.0730  145.3730 O   0  0  0  0  0  1  0  0  0  0  0  0
  160.8240  201.5500  147.1260 N   0  0  0  0  0  2  0  0  0  0  0  0
  160.0170  201.1110  144.8720 O   0  0  0  0  0  0  0  0  0  0  0  0
  160.6570  201.9570  145.7670 C   0  0  0  0  0  0  0  0  0  0  0  0
  1  9  1  0  0  0  0
  1 13  1  0  0  0  0
  2  1  2  0  0  0  0
  3  7  2  0  0  0  0
  3  2  1  0  0  0  0
  4 16  1  6  0  0  0
  4  2  1  0  0  0  0
  5  3  1  0  0  0  0
  6  5  2  0  0  0  0
  6  4  1  0  0  0  0
  7  8  1  0  0  0  0
  8  9  2  0  0  0  0
 10 15  1  0  0  0  0
 11 13  1  0  0  0  0
 11 10  2  0  0  0  0
 12 14  1  0  0  0  0
 13 12  2  0  0  0  0
 15 14  2  0  0  0  0
 16 17  2  0  0  0  0
 19 16  1  0  0  0  0
 19 18  1  0  0  0  0
 20  7  1  0  0  0  0
 21 20  1  0  0  0  0
 22 25  1  0  0  0  0
 23 21  1  0  0  0  0
 24 25  2  0  0  0  0
 25 23  1  0  0  0  0
M  END
>  <MODEL>
1

>  <REMARK>
 VINA RESULT:      -8.5      0.000      0.000
  Name = 
  6 active torsions:
  status: ('A' for Active; 'I' for Inactive)
    1  A    between atoms: C_1  and  C_13
    2  A    between atoms: C_2  and  N_6
    3  A    between atoms: C_2  and  C_18
    4  A    between atoms: C_14  and  C_21
    5  A    between atoms: C_18  and  C_22
    6  A    between atoms: C_20  and  C_21
                            x       y       z     vdW  Elec       q    Type
                         _______ _______ _______ _____ _____    ______ ____

>  <TORSDO>
F 6

$$$$
=
 OpenBabel11072411363D

 25 27  0  0  1  0  0  0  0  0999 V2000
  161.2070  205.1670  150.4560 C   0  0  0  0  0  0  0  0  0  0  0  0
  161.6720  206.2910  149.7430 C   0  0  0  0  0  0  0  0  0  0  0  0
  161.8010  207.5050  150.3550 C   0  0  0  0  0  0  0  0  0  0  0  0
  162.0450  206.4250  148.2990 C   0  0  2  0  0  3  0  0  0  0  0  0
  162.2920  208.5060  149.4870 N   0  0  0  0  0  0  0  0  0  0  0  0
  162.5310  207.8860  148.1880 C   0  0  0  0  0  3  0  0  0  0  0  0
  161.4510  207.6760  151.6940 C   0  0  0  0  0  0  0  0  0  0  0  0
  160.9740  206.6020  152.3830 N   0  0  0  0  0  0  0  0  0  0  0  0
  160.8510  205.3720  151.8030 C   0  0  0  0  0  3  0  0  0  0  0  0
  161.1910  202.3110  147.9630 C   0  0  0  0  0  3  0  0  0  0  0  0
  161.2820  203.6020  148.4880 C   0  0  0  0  0  3  0  0  0  0  0  0
  160.8370  202.7020  150.6810 C   0  0  0  0  0  3  0  0  0  0  0  0
  161.0950  203.8110  149.8610 C   0  0  0  0  0  0  0  0  0  0  0  0
  160.7550  201.4270  150.1190 C   0  0  0  0  0  3  0  0  0  0  0  0
  160.9300  201.2590  148.7820 N   0  0  0  0  0  0  0  0  0  0  0  0
  160.8590  206.2160  147.3970 C   0  0  0  0  0  0  0  0  0  0  0  0
  159.7350  206.3930  147.8380 O   0  0  0  0  0  0  0  0  0  0  0  0
  159.9660  206.2490  145.2040 O   0  0  0  0  0  1  0  0  0  0  0  0
  161.0310  205.7820  145.9740 C   0  0  0  0  0  2  0  0  0  0  0  0
  161.5490  209.0080  152.3620 C   0  0  0  0  0  2  0  0  0  0  0  0
  160.6060  209.0880  153.5560 C   0  0  0  0  0  2  0  0  0  0  0  0
  160.5370  207.1970  155.7040 O   0  0  0  0  0  0  0  0  0  0  0  0
  161.3550  209.1920  154.8020 N   0  0  0  0  0  2  0  0  0  0  0  0
  161.9900  208.3910  157.0110 O   0  0  0  0  0  1  0  0  0  0  0  0
  161.2650  208.2150  155.8410 C   0  0  0  0  0  0  0  0  0  0  0  0
  1  9  1  0  0  0  0
  2  3  1  0  0  0  0
  2  1  2  0  0  0  0
  3  7  2  0  0  0  0
  4 16  1  6  0  0  0
  4  2  1  0  0  0  0
  5  3  1  0  0  0  0
  6  4  1  0  0  0  0
  6  5  2  0  0  0  0
  7 20  1  0  0  0  0
  7  8  1  0  0  0  0
  9  8  2  0  0  0  0
 10 11  2  0  0  0  0
 10 15  1  0  0  0  0
 11 13  1  0  0  0  0
 13  1  1  0  0  0  0
 13 12  2  0  0  0  0
 14 12  1  0  0  0  0
 15 14  2  0  0  0  0
 16 17  2  0  0  0  0
 18 19  1  0  0  0  0
 19 16  1  0  0  0  0
 20 21  1  0  0  0  0
 21 23  1  0  0  0  0
 22 25  2  0  0  0  0
 23 25  1  0  0  0  0
 25 24  1  0  0  0  0
M  END
>  <MODEL>
2

>  <REMARK>
 VINA RESULT:      -8.2      2.579      6.919
  Name = 
  6 active torsions:
  status: ('A' for Active; 'I' for Inactive)
    1  A    between atoms: C_1  and  C_13
    2  A    between atoms: C_2  and  N_6
    3  A    between atoms: C_2  and  C_18
    4  A    between atoms: C_14  and  C_21
    5  A    between atoms: C_18  and  C_22
    6  A    between atoms: C_20  and  C_21
                            x       y       z     vdW  Elec       q    Type
                         _______ _______ _______ _____ _____    ______ ____

>  <TORSDO>
F 6

$$$$
=
 OpenBabel11072411363D

 25 27  0  0  1  0  0  0  0  0999 V2000
  161.1910  205.1330  150.4210 C   0  0  0  0  0  0  0  0  0  0  0  0
  161.6200  206.3040  149.7630 C   0  0  0  0  0  0  0  0  0  0  0  0
  161.7430  207.4840  150.4400 C   0  0  0  0  0  0  0  0  0  0  0  0
  161.9590  206.5260  148.3210 C   0  0  2  0  0  3  0  0  0  0  0  0
  162.1970  208.5410  149.6190 N   0  0  0  0  0  0  0  0  0  0  0  0
  162.4190  207.9990  148.2830 C   0  0  0  0  0  3  0  0  0  0  0  0
  161.4190  207.5730  151.7930 C   0  0  0  0  0  0  0  0  0  0  0  0
  160.9760  206.4540  152.4300 N   0  0  0  0  0  0  0  0  0  0  0  0
  160.8610  205.2560  151.7850 C   0  0  0  0  0  3  0  0  0  0  0  0
  161.3140  202.3960  147.8010 C   0  0  0  0  0  3  0  0  0  0  0  0
  161.3990  203.6570  148.3950 C   0  0  0  0  0  3  0  0  0  0  0  0
  160.7140  202.6780  150.4900 C   0  0  0  0  0  3  0  0  0  0  0  0
  161.0880  203.8120  149.7530 C   0  0  0  0  0  0  0  0  0  0  0  0
  160.6410  201.4340  149.8610 C   0  0  0  0  0  3  0  0  0  0  0  0
  160.9380  201.3190  148.5390 N   0  0  0  0  0  0  0  0  0  0  0  0
  160.7580  206.3460  147.4330 C   0  0  0  0  0  0  0  0  0  0  0  0
  159.6400  206.4470  147.9140 O   0  0  0  0  0  0  0  0  0  0  0  0
  162.2550  205.8620  145.6650 O   0  0  0  0  0  1  0  0  0  0  0  0
  160.9070  206.0340  145.9770 C   0  0  0  0  0  2  0  0  0  0  0  0
  161.5090  208.8670  152.5330 C   0  0  0  0  0  2  0  0  0  0  0  0
  161.0070  208.7110  153.9640 C   0  0  0  0  0  2  0  0  0  0  0  0
  162.4270  210.7840  155.3370 O   0  0  0  0  0  0  0  0  0  0  0  0
  160.4290  209.9580  154.4490 N   0  0  0  0  0  2  0  0  0  0  0  0
  160.5720  212.1020  155.5940 O   0  0  0  0  0  1  0  0  0  0  0  0
  161.1950  210.9480  155.1400 C   0  0  0  0  0  0  0  0  0  0  0  0
  1  9  1  0  0  0  0
  2  1  2  0  0  0  0
  2  3  1  0  0  0  0
  3  7  2  0  0  0  0
  4 16  1  6  0  0  0
  4  2  1  0  0  0  0
  5  3  1  0  0  0  0
  6  4  1  0  0  0  0
  6  5  2  0  0  0  0
  7  8  1  0  0  0  0
  7 20  1  0  0  0  0
  9  8  2  0  0  0  0
 10 11  2  0  0  0  0
 10 15  1  0  0  0  0
 11 13  1  0  0  0  0
 13  1  1  0  0  0  0
 13 12  2  0  0  0  0
 14 12  1  0  0  0  0
 15 14  2  0  0  0  0
 16 17  2  0  0  0  0
 18 19  1  0  0  0  0
 19 16  1  0  0  0  0
 20 21  1  0  0  0  0
 21 23  1  0  0  0  0
 23 25  1  0  0  0  0
 25 22  2  0  0  0  0
 25 24  1  0  0  0  0
M  END
>  <MODEL>
3

>  <REMARK>
 VINA RESULT:      -8.2      2.480      7.203
  Name = 
  6 active torsions:
  status: ('A' for Active; 'I' for Inactive)
    1  A    between atoms: C_1  and  C_13
    2  A    between atoms: C_2  and  N_6
    3  A    between atoms: C_2  and  C_18
    4  A    between atoms: C_14  and  C_21
    5  A    between atoms: C_18  and  C_22
    6  A    between atoms: C_20  and  C_21
                            x       y       z     vdW  Elec       q    Type
                         _______ _______ _______ _____ _____    ______ ____

>  <TORSDO>
F 6

$$$$
=
 OpenBabel11072411363D

 25 27  0  0  1  0  0  0  0  0999 V2000
  161.6130  205.9460  148.8340 C   0  0  0  0  0  0  0  0  0  0  0  0
  161.0830  204.9760  149.7100 C   0  0  0  0  0  0  0  0  0  0  0  0
  161.2060  205.1120  151.0640 C   0  0  0  0  0  0  0  0  0  0  0  0
  160.3830  203.6880  149.4070 C   0  0  2  0  0  3  0  0  0  0  0  0
  160.6040  204.0510  151.7770 N   0  0  0  0  0  0  0  0  0  0  0  0
  160.0050  203.1460  150.8010 C   0  0  0  0  0  3  0  0  0  0  0  0
  161.8840  206.1970  151.6190 C   0  0  0  0  0  0  0  0  0  0  0  0
  162.4240  207.1240  150.7790 N   0  0  0  0  0  0  0  0  0  0  0  0
  162.3010  207.0250  149.4230 C   0  0  0  0  0  3  0  0  0  0  0  0
  160.1470  206.1360  145.3440 C   0  0  0  0  0  3  0  0  0  0  0  0
  160.2470  206.1840  146.7360 C   0  0  0  0  0  3  0  0  0  0  0  0
  162.5680  205.5530  146.5560 C   0  0  0  0  0  3  0  0  0  0  0  0
  161.4660  205.8820  147.3590 C   0  0  0  0  0  0  0  0  0  0  0  0
  162.4290  205.5160  145.1670 C   0  0  0  0  0  3  0  0  0  0  0  0
  161.2300  205.8030  144.5930 N   0  0  0  0  0  0  0  0  0  0  0  0
  161.2930  202.7110  148.7120 C   0  0  0  0  0  0  0  0  0  0  0  0
  161.8740  203.0560  147.6960 O   0  0  0  0  0  0  0  0  0  0  0  0
  161.3960  200.4040  148.1890 O   0  0  0  0  0  1  0  0  0  0  0  0
  161.4880  201.3220  149.2360 C   0  0  0  0  0  2  0  0  0  0  0  0
  162.0610  206.3340  153.0960 C   0  0  0  0  0  2  0  0  0  0  0  0
  160.8680  207.0450  153.7220 C   0  0  0  0  0  2  0  0  0  0  0  0
  160.3670  209.4460  152.2450 O   0  0  0  0  0  0  0  0  0  0  0  0
  161.2310  208.3920  154.1440 N   0  0  0  0  0  2  0  0  0  0  0  0
  161.3570  210.7990  153.8050 O   0  0  0  0  0  1  0  0  0  0  0  0
  160.9620  209.5490  153.3500 C   0  0  0  0  0  0  0  0  0  0  0  0
  1  9  2  0  0  0  0
  1  2  1  0  0  0  0
  2  3  2  0  0  0  0
  3  7  1  0  0  0  0
  3  5  1  0  0  0  0
  4 16  1  1  0  0  0
  4  2  1  0  0  0  0
  4  6  1  0  0  0  0
  6  5  2  0  0  0  0
  7 20  1  0  0  0  0
  8  7  2  0  0  0  0
  9  8  1  0  0  0  0
 10 11  1  0  0  0  0
 11 13  2  0  0  0  0
 12 13  1  0  0  0  0
 13  1  1  0  0  0  0
 14 12  2  0  0  0  0
 15 14  1  0  0  0  0
 15 10  2  0  0  0  0
 16 19  1  0  0  0  0
 17 16  2  0  0  0  0
 18 19  1  0  0  0  0
 20 21  1  0  0  0  0
 21 23  1  0  0  0  0
 22 25  2  0  0  0  0
 25 24  1  0  0  0  0
 25 23  1  0  0  0  0
M  END
>  <MODEL>
4

>  <REMARK>
 VINA RESULT:      -8.1      2.183      7.146
  Name = 
  6 active torsions:
  status: ('A' for Active; 'I' for Inactive)
    1  A    between atoms: C_1  and  C_13
    2  A    between atoms: C_2  and  N_6
    3  A    between atoms: C_2  and  C_18
    4  A    between atoms: C_14  and  C_21
    5  A    between atoms: C_18  and  C_22
    6  A    between atoms: C_20  and  C_21
                            x       y       z     vdW  Elec       q    Type
                         _______ _______ _______ _____ _____    ______ ____

>  <TORSDO>
F 6

$$$$
=
 OpenBabel11072411363D

 25 27  0  0  1  0  0  0  0  0999 V2000
  161.1150  204.1930  149.6080 C   0  0  0  0  0  0  0  0  0  0  0  0
  161.6210  205.4780  149.3220 C   0  0  0  0  0  0  0  0  0  0  0  0
  161.6570  206.4480  150.2840 C   0  0  0  0  0  0  0  0  0  0  0  0
  162.1350  206.0430  148.0350 C   0  0  2  0  0  3  0  0  0  0  0  0
  162.2080  207.6620  149.8160 N   0  0  0  0  0  0  0  0  0  0  0  0
  162.5940  207.4640  148.4230 C   0  0  0  0  0  3  0  0  0  0  0  0
  161.1680  206.2050  151.5670 C   0  0  0  0  0  0  0  0  0  0  0  0
  160.6510  204.9760  151.8440 N   0  0  0  0  0  0  0  0  0  0  0  0
  160.6190  203.9810  150.9100 C   0  0  0  0  0  3  0  0  0  0  0  0
  161.1870  202.2660  146.3450 C   0  0  0  0  0  3  0  0  0  0  0  0
  161.1830  203.3330  147.2460 C   0  0  0  0  0  3  0  0  0  0  0  0
  161.0380  201.7530  149.0620 C   0  0  0  0  0  3  0  0  0  0  0  0
  161.0980  203.0840  148.6230 C   0  0  0  0  0  0  0  0  0  0  0  0
  161.0450  200.7130  148.1310 C   0  0  0  0  0  3  0  0  0  0  0  0
  161.1160  200.9880  146.8010 N   0  0  0  0  0  0  0  0  0  0  0  0
  161.0530  206.1250  146.9920 C   0  0  0  0  0  0  0  0  0  0  0  0
  159.9140  206.3950  147.3360 O   0  0  0  0  0  0  0  0  0  0  0  0
  160.1730  205.9850  144.7990 O   0  0  0  0  0  1  0  0  0  0  0  0
  161.3460  205.8720  145.5460 C   0  0  0  0  0  2  0  0  0  0  0  0
  161.1640  207.2710  152.6140 C   0  0  0  0  0  2  0  0  0  0  0  0
  161.0960  206.6620  154.0090 C   0  0  0  0  0  2  0  0  0  0  0  0
  159.3340  207.1030  156.2220 O   0  0  0  0  0  0  0  0  0  0  0  0
  161.2580  207.6880  155.0310 N   0  0  0  0  0  2  0  0  0  0  0  0
  160.5370  208.8760  157.0300 O   0  0  0  0  0  1  0  0  0  0  0  0
  160.3310  207.8620  156.1050 C   0  0  0  0  0  0  0  0  0  0  0  0
  1  9  1  0  0  0  0
  2  1  2  0  0  0  0
  2  3  1  0  0  0  0
  3  7  2  0  0  0  0
  4 16  1  6  0  0  0
  4  6  1  0  0  0  0
  4  2  1  0  0  0  0
  5  3  1  0  0  0  0
  6  5  2  0  0  0  0
  7  8  1  0  0  0  0
  7 20  1  0  0  0  0
  9  8  2  0  0  0  0
 10 15  2  0  0  0  0
 10 11  1  0  0  0  0
 11 13  2  0  0  0  0
 13 12  1  0  0  0  0
 13  1  1  0  0  0  0
 14 12  2  0  0  0  0
 15 14  1  0  0  0  0
 16 17  2  0  0  0  0
 18 19  1  0  0  0  0
 19 16  1  0  0  0  0
 20 21  1  0  0  0  0
 21 23  1  0  0  0  0
 23 25  1  0  0  0  0
 25 22  2  0  0  0  0
 25 24  1  0  0  0  0
M  END
>  <MODEL>
5

>  <REMARK>
 VINA RESULT:      -7.9      2.663      7.147
  Name = 
  6 active torsions:
  status: ('A' for Active; 'I' for Inactive)
    1  A    between atoms: C_1  and  C_13
    2  A    between atoms: C_2  and  N_6
    3  A    between atoms: C_2  and  C_18
    4  A    between atoms: C_14  and  C_21
    5  A    between atoms: C_18  and  C_22
    6  A    between atoms: C_20  and  C_21
                            x       y       z     vdW  Elec       q    Type
                         _______ _______ _______ _____ _____    ______ ____

>  <TORSDO>
F 6

$$$$
=
 OpenBabel11072411363D

 25 27  0  0  1  0  0  0  0  0999 V2000
  161.2250  205.4250  150.7160 C   0  0  0  0  0  0  0  0  0  0  0  0
  161.6780  206.5280  149.9640 C   0  0  0  0  0  0  0  0  0  0  0  0
  161.7680  207.7700  150.5250 C   0  0  0  0  0  0  0  0  0  0  0  0
  162.0770  206.6090  148.5230 C   0  0  2  0  0  3  0  0  0  0  0  0
  162.2540  208.7440  149.6230 N   0  0  0  0  0  0  0  0  0  0  0  0
  162.5330  208.0740  148.3580 C   0  0  0  0  0  3  0  0  0  0  0  0
  161.3870  207.9900  151.8480 C   0  0  0  0  0  0  0  0  0  0  0  0
  160.9210  206.9360  152.5740 N   0  0  0  0  0  0  0  0  0  0  0  0
  160.8370  205.6790  152.0460 C   0  0  0  0  0  3  0  0  0  0  0  0
  160.9400  201.6520  150.4930 C   0  0  0  0  0  3  0  0  0  0  0  0
  161.0250  202.9380  151.0310 C   0  0  0  0  0  3  0  0  0  0  0  0
  161.1770  203.8250  148.7930 C   0  0  0  0  0  3  0  0  0  0  0  0
  161.1550  204.0430  150.1790 C   0  0  0  0  0  0  0  0  0  0  0  0
  161.0880  202.5240  148.2940 C   0  0  0  0  0  3  0  0  0  0  0  0
  160.9750  201.4720  149.1470 N   0  0  0  0  0  0  0  0  0  0  0  0
  160.9150  206.3330  147.6080 C   0  0  0  0  0  0  0  0  0  0  0  0
  159.7780  206.4860  148.0250 O   0  0  0  0  0  0  0  0  0  0  0  0
  160.0780  206.3030  145.3930 O   0  0  0  0  0  1  0  0  0  0  0  0
  161.1270  205.8630  146.2020 C   0  0  0  0  0  2  0  0  0  0  0  0
  161.4420  209.3520  152.4600 C   0  0  0  0  0  2  0  0  0  0  0  0
  160.0390  209.8810  152.7340 C   0  0  0  0  0  2  0  0  0  0  0  0
  158.8410  212.4450  152.3000 O   0  0  0  0  0  0  0  0  0  0  0  0
  160.0820  211.0050  153.6610 N   0  0  0  0  0  2  0  0  0  0  0  0
  159.5710  213.2990  154.2950 O   0  0  0  0  0  1  0  0  0  0  0  0
  159.4710  212.2650  153.3750 C   0  0  0  0  0  0  0  0  0  0  0  0
  1  9  1  0  0  0  0
  2  3  1  0  0  0  0
  2  1  2  0  0  0  0
  3  7  2  0  0  0  0
  4 16  1  6  0  0  0
  4  2  1  0  0  0  0
  5  3  1  0  0  0  0
  6  4  1  0  0  0  0
  6  5  2  0  0  0  0
  7 20  1  0  0  0  0
  7  8  1  0  0  0  0
  9  8  2  0  0  0  0
 10 11  1  0  0  0  0
 12 13  1  0  0  0  0
 13  1  1  0  0  0  0
 13 11  2  0  0  0  0
 14 12  2  0  0  0  0
 14 15  1  0  0  0  0
 15 10  2  0  0  0  0
 16 17  2  0  0  0  0
 18 19  1  0  0  0  0
 19 16  1  0  0  0  0
 20 21  1  0  0  0  0
 21 23  1  0  0  0  0
 22 25  2  0  0  0  0
 25 23  1  0  0  0  0
 25 24  1  0  0  0  0
M  END
>  <MODEL>
6

>  <REMARK>
 VINA RESULT:      -7.5      2.449      7.174
  Name = 
  6 active torsions:
  status: ('A' for Active; 'I' for Inactive)
    1  A    between atoms: C_1  and  C_13
    2  A    between atoms: C_2  and  N_6
    3  A    between atoms: C_2  and  C_18
    4  A    between atoms: C_14  and  C_21
    5  A    between atoms: C_18  and  C_22
    6  A    between atoms: C_20  and  C_21
                            x       y       z     vdW  Elec       q    Type
                         _______ _______ _______ _____ _____    ______ ____

>  <TORSDO>
F 6

$$$$
=
 OpenBabel11072411363D

 25 27  0  0  1  0  0  0  0  0999 V2000
  160.9700  207.7670  152.9020 C   0  0  0  0  0  0  0  0  0  0  0  0
  161.0060  207.4130  151.5370 C   0  0  0  0  0  0  0  0  0  0  0  0
  161.1970  206.1160  151.1540 C   0  0  0  0  0  0  0  0  0  0  0  0
  160.9050  208.2770  150.3190 C   0  0  2  0  0  3  0  0  0  0  0  0
  161.1900  205.9530  149.7500 N   0  0  0  0  0  0  0  0  0  0  0  0
  160.9450  207.2630  149.1550 C   0  0  0  0  0  3  0  0  0  0  0  0
  161.3920  205.1090  152.0990 C   0  0  0  0  0  0  0  0  0  0  0  0
  161.3880  205.4460  153.4180 N   0  0  0  0  0  0  0  0  0  0  0  0
  161.1800  206.7310  153.8330 C   0  0  0  0  0  3  0  0  0  0  0  0
  161.2330  211.0270  154.8180 C   0  0  0  0  0  3  0  0  0  0  0  0
  161.4840  209.7170  154.4040 C   0  0  0  0  0  3  0  0  0  0  0  0
  159.7120  209.9270  152.7820 C   0  0  0  0  0  3  0  0  0  0  0  0
  160.7140  209.1480  153.3810 C   0  0  0  0  0  0  0  0  0  0  0  0
  159.4910  211.2330  153.2220 C   0  0  0  0  0  3  0  0  0  0  0  0
  160.2480  211.7520  154.2250 N   0  0  0  0  0  0  0  0  0  0  0  0
  162.0700  209.2220  150.2080 C   0  0  0  0  0  0  0  0  0  0  0  0
  162.8120  209.3680  151.1660 O   0  0  0  0  0  0  0  0  0  0  0  0
  161.9710  211.3310  149.1360 O   0  0  0  0  0  1  0  0  0  0  0  0
  162.3290  209.9950  148.9520 C   0  0  0  0  0  2  0  0  0  0  0  0
  161.6440  203.6940  151.6900 C   0  0  0  0  0  2  0  0  0  0  0  0
  160.4730  203.1450  150.8850 C   0  0  0  0  0  2  0  0  0  0  0  0
  160.8300  202.8200  148.0640 O   0  0  0  0  0  0  0  0  0  0  0  0
  160.8410  201.9050  150.2140 N   0  0  0  0  0  2  0  0  0  0  0  0
  161.3220  200.5890  148.2240 O   0  0  0  0  0  1  0  0  0  0  0  0
  160.9910  201.8090  148.7970 C   0  0  0  0  0  0  0  0  0  0  0  0
  1 13  1  0  0  0  0
  1  9  1  0  0  0  0
  2  1  2  0  0  0  0
  3  2  1  0  0  0  0
  3  7  2  0  0  0  0
  4 16  1  6  0  0  0
  4  2  1  0  0  0  0
  5  3  1  0  0  0  0
  6  5  2  0  0  0  0
  6  4  1  0  0  0  0
  7  8  1  0  0  0  0
  8  9  2  0  0  0  0
 11 10  1  0  0  0  0
 12 14  2  0  0  0  0
 12 13  1  0  0  0  0
 13 11  2  0  0  0  0
 14 15  1  0  0  0  0
 15 10  2  0  0  0  0
 16 17  2  0  0  0  0
 19 18  1  0  0  0  0
 19 16  1  0  0  0  0
 20  7  1  0  0  0  0
 21 20  1  0  0  0  0
 22 25  2  0  0  0  0
 23 21  1  0  0  0  0
 24 25  1  0  0  0  0
 25 23  1  0  0  0  0
M  END
>  <MODEL>
7

>  <REMARK>
 VINA RESULT:      -7.5      1.775      2.579
  Name = 
  6 active torsions:
  status: ('A' for Active; 'I' for Inactive)
    1  A    between atoms: C_1  and  C_13
    2  A    between atoms: C_2  and  N_6
    3  A    between atoms: C_2  and  C_18
    4  A    between atoms: C_14  and  C_21
    5  A    between atoms: C_18  and  C_22
    6  A    between atoms: C_20  and  C_21
                            x       y       z     vdW  Elec       q    Type
                         _______ _______ _______ _____ _____    ______ ____

>  <TORSDO>
F 6

$$$$
=
 OpenBabel11072411363D

 25 27  0  0  1  0  0  0  0  0999 V2000
  161.6660  206.6650  148.8340 C   0  0  0  0  0  0  0  0  0  0  0  0
  161.4090  207.1100  150.1460 C   0  0  0  0  0  0  0  0  0  0  0  0
  161.5370  208.4300  150.4770 C   0  0  0  0  0  0  0  0  0  0  0  0
  161.0260  206.3330  151.3670 C   0  0  2  0  0  3  0  0  0  0  0  0
  161.2260  208.6880  151.8310 N   0  0  0  0  0  0  0  0  0  0  0  0
  160.8310  207.4230  152.4420 C   0  0  0  0  0  3  0  0  0  0  0  0
  161.9550  209.3690  149.5340 C   0  0  0  0  0  0  0  0  0  0  0  0
  162.2330  208.9430  148.2710 N   0  0  0  0  0  0  0  0  0  0  0  0
  162.0950  207.6340  147.9060 C   0  0  0  0  0  3  0  0  0  0  0  0
  161.8560  203.4620  146.8150 C   0  0  0  0  0  3  0  0  0  0  0  0
  162.0160  204.7990  147.1830 C   0  0  0  0  0  3  0  0  0  0  0  0
  160.8320  204.3400  149.2330 C   0  0  0  0  0  3  0  0  0  0  0  0
  161.4930  205.2550  148.4010 C   0  0  0  0  0  0  0  0  0  0  0  0
  160.6920  203.0100  148.8300 C   0  0  0  0  0  3  0  0  0  0  0  0
  161.2010  202.6020  147.6380 N   0  0  0  0  0  0  0  0  0  0  0  0
  162.1200  205.3910  151.7920 C   0  0  0  0  0  0  0  0  0  0  0  0
  163.2390  205.8310  151.9990 O   0  0  0  0  0  0  0  0  0  0  0  0
  160.7260  203.7250  152.7350 O   0  0  0  0  0  1  0  0  0  0  0  0
  161.8650  203.9240  151.9540 C   0  0  0  0  0  2  0  0  0  0  0  0
  162.1390  210.8070  149.8950 C   0  0  0  0  0  2  0  0  0  0  0  0
  162.2940  211.6650  148.6450 C   0  0  0  0  0  2  0  0  0  0  0  0
  160.3350  212.1840  146.6230 O   0  0  0  0  0  0  0  0  0  0  0  0
  161.3390  212.7660  148.6520 N   0  0  0  0  0  2  0  0  0  0  0  0
  159.5290  214.0590  147.6630 O   0  0  0  0  0  1  0  0  0  0  0  0
  160.3930  212.9750  147.6010 C   0  0  0  0  0  0  0  0  0  0  0  0
  1  2  1  0  0  0  0
  2  3  2  0  0  0  0
  2  4  1  0  0  0  0
  3  5  1  0  0  0  0
  4 16  1  1  0  0  0
  4  6  1  0  0  0  0
  5  6  2  0  0  0  0
  7 20  1  0  0  0  0
  7  3  1  0  0  0  0
  8  7  2  0  0  0  0
  9  8  1  0  0  0  0
  9  1  2  0  0  0  0
 10 11  2  0  0  0  0
 10 15  1  0  0  0  0
 11 13  1  0  0  0  0
 13  1  1  0  0  0  0
 13 12  2  0  0  0  0
 14 12  1  0  0  0  0
 15 14  2  0  0  0  0
 16 19  1  0  0  0  0
 16 17  2  0  0  0  0
 19 18  1  0  0  0  0
 21 23  1  0  0  0  0
 21 20  1  0  0  0  0
 22 25  2  0  0  0  0
 25 24  1  0  0  0  0
 25 23  1  0  0  0  0
M  END
>  <MODEL>
8

>  <REMARK>
 VINA RESULT:      -7.3      2.903      7.182
  Name = 
  6 active torsions:
  status: ('A' for Active; 'I' for Inactive)
    1  A    between atoms: C_1  and  C_13
    2  A    between atoms: C_2  and  N_6
    3  A    between atoms: C_2  and  C_18
    4  A    between atoms: C_14  and  C_21
    5  A    between atoms: C_18  and  C_22
    6  A    between atoms: C_20  and  C_21
                            x       y       z     vdW  Elec       q    Type
                         _______ _______ _______ _____ _____    ______ ____

>  <TORSDO>
F 6

$$$$
=
 OpenBabel11072411363D

 25 27  0  0  1  0  0  0  0  0999 V2000
  161.5840  207.7520  150.1730 C   0  0  0  0  0  0  0  0  0  0  0  0
  161.2360  207.4040  151.4950 C   0  0  0  0  0  0  0  0  0  0  0  0
  161.2140  208.3450  152.4850 C   0  0  0  0  0  0  0  0  0  0  0  0
  160.8950  206.0680  152.0780 C   0  0  2  0  0  3  0  0  0  0  0  0
  160.8310  207.8130  153.7370 N   0  0  0  0  0  0  0  0  0  0  0  0
  160.5490  206.3940  153.5470 C   0  0  0  0  0  3  0  0  0  0  0  0
  161.5630  209.6700  152.2250 C   0  0  0  0  0  0  0  0  0  0  0  0
  161.9280  210.0090  150.9570 N   0  0  0  0  0  0  0  0  0  0  0  0
  161.9410  209.0940  149.9430 C   0  0  0  0  0  3  0  0  0  0  0  0
  162.3270  206.0710  146.8580 C   0  0  0  0  0  3  0  0  0  0  0  0
  162.3400  207.0090  147.8920 C   0  0  0  0  0  3  0  0  0  0  0  0
  160.8240  205.6050  149.1370 C   0  0  0  0  0  3  0  0  0  0  0  0
  161.5750  206.7870  149.0460 C   0  0  0  0  0  0  0  0  0  0  0  0
  160.8370  204.6910  148.0810 C   0  0  0  0  0  3  0  0  0  0  0  0
  161.5810  204.9410  146.9710 N   0  0  0  0  0  0  0  0  0  0  0  0
  162.0660  205.1250  152.0300 C   0  0  0  0  0  0  0  0  0  0  0  0
  163.1800  205.5420  152.3060 O   0  0  0  0  0  0  0  0  0  0  0  0
  160.8250  203.1330  152.3420 O   0  0  0  0  0  1  0  0  0  0  0  0
  161.8930  203.6890  151.6400 C   0  0  0  0  0  2  0  0  0  0  0  0
  161.5830  210.6980  153.3080 C   0  0  0  0  0  2  0  0  0  0  0  0
  160.3660  211.6100  153.2140 C   0  0  0  0  0  2  0  0  0  0  0  0
  157.8870  212.9390  153.7470 O   0  0  0  0  0  0  0  0  0  0  0  0
  159.2350  211.0390  153.9350 N   0  0  0  0  0  2  0  0  0  0  0  0
  157.0000  211.1650  154.8920 O   0  0  0  0  0  1  0  0  0  0  0  0
  158.0280  211.7640  154.1780 C   0  0  0  0  0  0  0  0  0  0  0  0
  1  2  1  0  0  0  0
  2  4  1  0  0  0  0
  2  3  2  0  0  0  0
  3  5  1  0  0  0  0
  4 16  1  1  0  0  0
  4  6  1  0  0  0  0
  6  5  2  0  0  0  0
  7  3  1  0  0  0  0
  7 20  1  0  0  0  0
  8  7  2  0  0  0  0
  9  1  2  0  0  0  0
  9  8  1  0  0  0  0
 10 15  2  0  0  0  0
 10 11  1  0  0  0  0
 11 13  2  0  0  0  0
 13 12  1  0  0  0  0
 13  1  1  0  0  0  0
 14 12  2  0  0  0  0
 15 14  1  0  0  0  0
 16 17  2  0  0  0  0
 19 16  1  0  0  0  0
 19 18  1  0  0  0  0
 21 20  1  0  0  0  0
 21 23  1  0  0  0  0
 22 25  2  0  0  0  0
 23 25  1  0  0  0  0
 25 24  1  0  0  0  0
M  END
>  <MODEL>
9

>  <REMARK>
 VINA RESULT:      -7.2      3.062      7.709
  Name = 
  6 active torsions:
  status: ('A' for Active; 'I' for Inactive)
    1  A    between atoms: C_1  and  C_13
    2  A    between atoms: C_2  and  N_6
    3  A    between atoms: C_2  and  C_18
    4  A    between atoms: C_14  and  C_21
    5  A    between atoms: C_18  and  C_22
    6  A    between atoms: C_20  and  C_21
                            x       y       z     vdW  Elec       q    Type
                         _______ _______ _______ _____ _____    ______ ____

>  <TORSDO>
F 6

$$$$
