=
 OpenBabel11072412143D

 31 35  0  0  1  0  0  0  0  0999 V2000
  157.8080  213.4160  155.5690 C   0  0  2  0  0  3  0  0  0  0  0  0
  161.9680  211.9200  149.6690 O   0  0  0  0  0  1  0  0  0  0  0  0
  162.1370  206.2160  151.1410 O   0  0  0  0  0  0  0  0  0  0  0  0
  160.0000  210.1570  151.6170 C   0  0  0  0  0  2  0  0  0  0  0  0
  158.4920  212.1710  156.0490 C   0  0  0  0  0  0  0  0  0  0  0  0
  159.0240  211.8500  153.0580 C   0  0  2  0  0  3  0  0  0  0  0  0
  158.3240  213.2060  153.0410 C   0  0  0  0  0  2  0  0  0  0  0  0
  160.8490  208.6480  155.7850 C   0  0  2  0  0  0  0  0  0  0  0  0
  158.5190  214.0090  154.3370 C   0  0  0  0  0  2  0  0  0  0  0  0
  161.4650  209.7080  151.5390 C   0  0  2  0  0  3  0  0  0  0  0  0
  161.9030  209.5840  150.0970 C   0  0  0  0  0  0  0  0  0  0  0  0
  161.9640  207.4570  151.0040 C   0  0  0  0  0  0  0  0  0  0  0  0
  161.3650  207.9740  153.4390 C   0  0  0  0  0  0  0  0  0  0  0  0
  160.7820  206.2710  155.0470 N   0  0  0  0  0  0  0  0  0  0  0  0
  157.8610  210.9410  155.8380 C   0  0  0  0  0  3  0  0  0  0  0  0
  162.7440  207.7160  148.6790 C   0  0  0  0  0  2  0  0  0  0  0  0
  162.1290  208.1790  149.7620 C   0  0  0  0  0  0  0  0  0  0  0  0
  162.0180  208.6270  156.5270 F   0  0  0  0  0  0  0  0  0  0  0  0
  159.9650  209.7840  156.2240 C   0  0  0  0  0  0  0  0  0  0  0  0
  160.5680  211.0160  156.5260 C   0  0  0  0  0  3  0  0  0  0  0  0
  159.8380  212.2010  156.4410 C   0  0  0  0  0  3  0  0  0  0  0  0
  161.2880  206.5680  153.8840 C   0  0  0  0  0  3  0  0  0  0  0  0
  158.5950  209.7560  155.9170 C   0  0  0  0  0  3  0  0  0  0  0  0
  160.4810  212.0360  153.1350 N   0  0  0  0  0  2  0  0  0  0  0  0
  160.1540  207.2780  155.9140 C   0  0  0  0  0  2  0  0  0  0  0  0
  162.1340  210.6010  149.2650 C   0  0  0  0  0  3  0  0  0  0  0  0
  161.1720  208.9320  154.3430 C   0  0  0  0  0  3  0  0  0  0  0  0
  161.5810  208.3360  152.0610 N   0  0  0  0  0  0  0  0  0  0  0  0
  159.8460  211.6580  151.8630 C   0  0  1  0  0  3  0  0  0  0  0  0
  157.6690  214.4530  156.6790 C   0  0  0  0  0  2  0  0  0  0  0  0
  156.3970  214.4130  157.2580 O   0  0  0  0  0  1  0  0  0  0  0  0
  1  5  1  0  0  0  0
  1 30  1  1  0  0  0
  5 21  1  0  0  0  0
  6  7  1  6  0  0  0
  6 24  1  0  0  0  0
  7  9  1  0  0  0  0
  8 25  1  0  0  0  0
  8 19  1  0  0  0  0
  8 18  1  1  0  0  0
  9  1  1  0  0  0  0
 10  4  1  6  0  0  0
 10 28  1  0  0  0  0
 11 10  1  0  0  0  0
 12  3  2  0  0  0  0
 12 28  1  0  0  0  0
 13 22  1  0  0  0  0
 13 27  2  0  0  0  0
 14 25  1  0  0  0  0
 15 23  1  0  0  0  0
 15  5  2  0  0  0  0
 16 17  2  0  0  0  0
 17 11  1  0  0  0  0
 17 12  1  0  0  0  0
 19 20  1  0  0  0  0
 21 20  2  0  0  0  0
 22 14  2  0  0  0  0
 23 19  2  0  0  0  0
 26  2  1  0  0  0  0
 26 11  2  0  0  0  0
 27  8  1  0  0  0  0
 28 13  1  0  0  0  0
 29  4  1  1  0  0  0
 29  6  1  0  0  0  0
 29 24  1  0  0  0  0
 30 31  1  0  0  0  0
M  END
>  <MODEL>
1

>  <REMARK>
 VINA RESULT:      -4.7      0.000      0.000
  Name = 
  1 active torsions:
  status: ('A' for Active; 'I' for Inactive)
    1  A    between atoms: C_1  and  C_21
                            x       y       z     vdW  Elec       q    Type
                         _______ _______ _______ _____ _____    ______ ____

>  <TORSDO>
F 1

$$$$
=
 OpenBabel11072412143D

 31 35  0  0  1  0  0  0  0  0999 V2000
  155.6680  213.4510  156.0310 C   0  0  2  0  0  3  0  0  0  0  0  0
  160.0250  214.4520  150.1690 O   0  0  0  0  0  1  0  0  0  0  0  0
  162.3510  209.0840  150.8870 O   0  0  0  0  0  0  0  0  0  0  0  0
  158.8880  211.8290  151.7830 C   0  0  0  0  0  2  0  0  0  0  0  0
  156.7770  212.5010  156.3720 C   0  0  0  0  0  0  0  0  0  0  0  0
  157.3610  212.8170  153.3910 C   0  0  2  0  0  3  0  0  0  0  0  0
  156.1990  213.7990  153.5210 C   0  0  0  0  0  2  0  0  0  0  0  0
  160.2870  210.1920  155.7500 C   0  0  2  0  0  0  0  0  0  0  0  0
  156.0900  214.4310  154.9180 C   0  0  0  0  0  2  0  0  0  0  0  0
  160.4140  211.9790  151.7090 C   0  0  2  0  0  3  0  0  0  0  0  0
  160.8520  212.2270  150.2840 C   0  0  0  0  0  0  0  0  0  0  0  0
  161.7210  210.1760  150.9060 C   0  0  0  0  0  0  0  0  0  0  0  0
  160.9950  210.0900  153.3600 C   0  0  0  0  0  0  0  0  0  0  0  0
  161.1140  208.0900  154.7050 N   0  0  0  0  0  0  0  0  0  0  0  0
  156.6540  211.1650  155.9750 C   0  0  0  0  0  3  0  0  0  0  0  0
  162.3220  211.0250  148.6700 C   0  0  0  0  0  2  0  0  0  0  0  0
  161.5880  211.0700  149.7780 C   0  0  0  0  0  0  0  0  0  0  0  0
  161.3850  210.5110  156.5320 F   0  0  0  0  0  0  0  0  0  0  0  0
  159.0440  210.8420  156.2960 C   0  0  0  0  0  0  0  0  0  0  0  0
  159.1390  212.1550  156.7820 C   0  0  0  0  0  3  0  0  0  0  0  0
  158.0150  212.9790  156.8220 C   0  0  0  0  0  3  0  0  0  0  0  0
  161.4590  208.7120  153.6140 C   0  0  0  0  0  3  0  0  0  0  0  0
  157.7820  210.3440  155.9290 C   0  0  0  0  0  3  0  0  0  0  0  0
  158.6390  213.5240  153.5530 N   0  0  0  0  0  2  0  0  0  0  0  0
  160.1620  208.6580  155.6690 C   0  0  0  0  0  2  0  0  0  0  0  0
  160.6740  213.3600  149.6030 C   0  0  0  0  0  3  0  0  0  0  0  0
  160.4640  210.7720  154.3730 C   0  0  0  0  0  3  0  0  0  0  0  0
  161.0450  210.6920  152.0520 N   0  0  0  0  0  0  0  0  0  0  0  0
  158.1820  213.1130  152.2170 C   0  0  1  0  0  3  0  0  0  0  0  0
  155.1580  214.1970  157.2600 C   0  0  0  0  0  2  0  0  0  0  0  0
  153.7880  214.4530  157.1690 O   0  0  0  0  0  1  0  0  0  0  0  0
  1  5  1  0  0  0  0
  1 30  1  1  0  0  0
  3 12  2  0  0  0  0
  5 21  1  0  0  0  0
  6  7  1  6  0  0  0
  6 24  1  0  0  0  0
  7  9  1  0  0  0  0
  8 19  1  0  0  0  0
  8 18  1  1  0  0  0
  9  1  1  0  0  0  0
 10  4  1  6  0  0  0
 10 28  1  0  0  0  0
 11 10  1  0  0  0  0
 12 28  1  0  0  0  0
 13 22  1  0  0  0  0
 13 27  2  0  0  0  0
 14 25  1  0  0  0  0
 15  5  2  0  0  0  0
 16 17  2  0  0  0  0
 17 11  1  0  0  0  0
 17 12  1  0  0  0  0
 19 20  1  0  0  0  0
 20 21  2  0  0  0  0
 22 14  2  0  0  0  0
 23 15  1  0  0  0  0
 23 19  2  0  0  0  0
 25  8  1  0  0  0  0
 26  2  1  0  0  0  0
 26 11  2  0  0  0  0
 27  8  1  0  0  0  0
 28 13  1  0  0  0  0
 29  4  1  1  0  0  0
 29  6  1  0  0  0  0
 29 24  1  0  0  0  0
 31 30  1  0  0  0  0
M  END
>  <MODEL>
2

>  <REMARK>
 VINA RESULT:      -4.3      1.768      2.308
  Name = 
  1 active torsions:
  status: ('A' for Active; 'I' for Inactive)
    1  A    between atoms: C_1  and  C_21
                            x       y       z     vdW  Elec       q    Type
                         _______ _______ _______ _____ _____    ______ ____

>  <TORSDO>
F 1

$$$$
=
 OpenBabel11072412143D

 31 35  0  0  1  0  0  0  0  0999 V2000
  161.8650  209.3590  151.1020 C   0  0  2  0  0  3  0  0  0  0  0  0
  162.3670  205.5170  144.8300 O   0  0  0  0  0  1  0  0  0  0  0  0
  159.9310  200.8190  147.4250 O   0  0  0  0  0  0  0  0  0  0  0  0
  160.5310  205.2860  147.5420 C   0  0  0  0  0  2  0  0  0  0  0  0
  161.8890  207.9670  151.6570 C   0  0  0  0  0  0  0  0  0  0  0  0
  161.1500  207.2840  148.7730 C   0  0  2  0  0  3  0  0  0  0  0  0
  161.3240  208.7950  148.6340 C   0  0  0  0  0  2  0  0  0  0  0  0
  161.7530  203.7230  151.5960 C   0  0  2  0  0  0  0  0  0  0  0  0
  162.3310  209.3870  149.6330 C   0  0  0  0  0  2  0  0  0  0  0  0
  161.4070  204.0720  147.2030 C   0  0  2  0  0  3  0  0  0  0  0  0
  161.2080  203.6630  145.7610 C   0  0  0  0  0  0  0  0  0  0  0  0
  160.4150  201.9270  147.0670 C   0  0  0  0  0  0  0  0  0  0  0  0
  161.0240  202.7860  149.4010 C   0  0  0  0  0  0  0  0  0  0  0  0
  160.1870  201.7940  151.4350 N   0  0  0  0  0  0  0  0  0  0  0  0
  160.6700  207.3190  151.8840 C   0  0  0  0  0  3  0  0  0  0  0  0
  160.3980  201.6010  144.6230 C   0  0  0  0  0  2  0  0  0  0  0  0
  160.5220  202.3740  145.6970 C   0  0  0  0  0  0  0  0  0  0  0  0
  162.8960  203.0600  152.0110 F   0  0  0  0  0  0  0  0  0  0  0  0
  161.8170  205.1760  151.9800 C   0  0  0  0  0  0  0  0  0  0  0  0
  163.0440  205.8450  151.8470 C   0  0  0  0  0  3  0  0  0  0  0  0
  163.0810  207.2300  151.6880 C   0  0  0  0  0  3  0  0  0  0  0  0
  160.3590  201.7000  150.1480 C   0  0  0  0  0  3  0  0  0  0  0  0
  160.6340  205.9320  152.0350 C   0  0  0  0  0  3  0  0  0  0  0  0
  162.4090  206.6000  148.4450 N   0  0  0  0  0  2  0  0  0  0  0  0
  160.5220  203.0100  152.1890 C   0  0  0  0  0  2  0  0  0  0  0  0
  161.6590  204.3290  144.6970 C   0  0  0  0  0  3  0  0  0  0  0  0
  161.6830  203.7130  150.0930 C   0  0  0  0  0  3  0  0  0  0  0  0
  160.9340  202.9050  147.9680 N   0  0  0  0  0  0  0  0  0  0  0  0
  161.2950  206.6090  147.4840 C   0  0  1  0  0  3  0  0  0  0  0  0
  162.6760  210.3280  151.9570 C   0  0  0  0  0  2  0  0  0  0  0  0
  162.2360  210.3280  153.2840 O   0  0  0  0  0  1  0  0  0  0  0  0
  1  5  1  0  0  0  0
  1 30  1  1  0  0  0
  5 21  2  0  0  0  0
  5 15  1  0  0  0  0
  6  7  1  6  0  0  0
  7  9  1  0  0  0  0
  8 19  1  0  0  0  0
  8 18  1  1  0  0  0
  8 25  1  0  0  0  0
  9  1  1  0  0  0  0
 10  4  1  1  0  0  0
 10 28  1  0  0  0  0
 11 10  1  0  0  0  0
 12  3  2  0  0  0  0
 12 28  1  0  0  0  0
 13 27  2  0  0  0  0
 13 22  1  0  0  0  0
 14 25  1  0  0  0  0
 15 23  2  0  0  0  0
 16 17  2  0  0  0  0
 17 11  1  0  0  0  0
 17 12  1  0  0  0  0
 19 23  1  0  0  0  0
 20 19  2  0  0  0  0
 21 20  1  0  0  0  0
 22 14  2  0  0  0  0
 24  6  1  0  0  0  0
 26  2  1  0  0  0  0
 26 11  2  0  0  0  0
 27  8  1  0  0  0  0
 28 13  1  0  0  0  0
 29  4  1  1  0  0  0
 29 24  1  0  0  0  0
 29  6  1  0  0  0  0
 30 31  1  0  0  0  0
M  END
>  <MODEL>
3

>  <REMARK>
 VINA RESULT:      -4.2      4.782      7.010
  Name = 
  1 active torsions:
  status: ('A' for Active; 'I' for Inactive)
    1  A    between atoms: C_1  and  C_21
                            x       y       z     vdW  Elec       q    Type
                         _______ _______ _______ _____ _____    ______ ____

>  <TORSDO>
F 1

$$$$
=
 OpenBabel11072412143D

 31 35  0  0  1  0  0  0  0  0999 V2000
  161.3810  209.1000  156.1260 C   0  0  2  0  0  3  0  0  0  0  0  0
  159.8920  203.5610  151.4960 O   0  0  0  0  0  1  0  0  0  0  0  0
  162.3750  206.5160  147.0420 O   0  0  0  0  0  0  0  0  0  0  0  0
  162.0370  206.0450  151.5130 C   0  0  0  0  0  2  0  0  0  0  0  0
  161.3510  209.8530  154.8300 C   0  0  0  0  0  0  0  0  0  0  0  0
  161.6860  207.0340  153.7020 C   0  0  2  0  0  3  0  0  0  0  0  0
  161.5780  206.6960  155.1880 C   0  0  0  0  0  2  0  0  0  0  0  0
  161.2480  210.3990  150.6190 C   0  0  2  0  0  0  0  0  0  0  0  0
  160.7380  207.7070  155.9830 C   0  0  0  0  0  2  0  0  0  0  0  0
  161.0620  205.9920  150.3290 C   0  0  2  0  0  3  0  0  0  0  0  0
  161.0570  204.6120  149.7110 C   0  0  0  0  0  0  0  0  0  0  0  0
  161.9110  206.0580  148.1210 C   0  0  0  0  0  0  0  0  0  0  0  0
  161.6450  208.2950  149.3380 C   0  0  0  0  0  0  0  0  0  0  0  0
  162.6750  210.3420  148.5800 N   0  0  0  0  0  0  0  0  0  0  0  0
  162.5520  210.0290  154.1340 C   0  0  0  0  0  3  0  0  0  0  0  0
  161.6050  203.7020  147.4580 C   0  0  0  0  0  2  0  0  0  0  0  0
  161.6570  204.6590  148.3800 C   0  0  0  0  0  0  0  0  0  0  0  0
  160.1310  211.0360  150.1040 F   0  0  0  0  0  0  0  0  0  0  0  0
  161.3110  210.5710  152.1140 C   0  0  0  0  0  0  0  0  0  0  0  0
  160.1160  210.4830  152.8430 C   0  0  0  0  0  3  0  0  0  0  0  0
  160.1340  210.1290  154.1920 C   0  0  0  0  0  3  0  0  0  0  0  0
  162.3390  209.1110  148.3210 C   0  0  0  0  0  3  0  0  0  0  0  0
  162.5310  210.3770  152.7830 C   0  0  0  0  0  3  0  0  0  0  0  0
  160.3610  206.9570  153.0710 N   0  0  0  0  0  2  0  0  0  0  0  0
  162.5030  210.9430  149.9100 C   0  0  0  0  0  2  0  0  0  0  0  0
  160.5130  203.5210  150.2530 C   0  0  0  0  0  3  0  0  0  0  0  0
  161.1290  208.9160  150.3970 C   0  0  0  0  0  3  0  0  0  0  0  0
  161.5620  206.8600  149.2490 N   0  0  0  0  0  0  0  0  0  0  0  0
  161.3450  205.8830  152.8660 C   0  0  1  0  0  3  0  0  0  0  0  0
  160.7380  209.8920  157.2600 C   0  0  0  0  0  2  0  0  0  0  0  0
  161.1660  211.2220  157.2600 O   0  0  0  0  0  1  0  0  0  0  0  0
  1 30  1  1  0  0  0
  3 12  2  0  0  0  0
  5  1  1  0  0  0  0
  6  7  1  1  0  0  0
  7  9  1  0  0  0  0
  8 18  1  6  0  0  0
  8 19  1  0  0  0  0
  9  1  1  0  0  0  0
 10  4  1  1  0  0  0
 11 26  2  0  0  0  0
 11 10  1  0  0  0  0
 12 17  1  0  0  0  0
 12 28  1  0  0  0  0
 13 27  2  0  0  0  0
 14 25  1  0  0  0  0
 15  5  2  0  0  0  0
 16 17  2  0  0  0  0
 17 11  1  0  0  0  0
 19 23  2  0  0  0  0
 19 20  1  0  0  0  0
 20 21  2  0  0  0  0
 21  5  1  0  0  0  0
 22 14  2  0  0  0  0
 22 13  1  0  0  0  0
 23 15  1  0  0  0  0
 24  6  1  0  0  0  0
 25  8  1  0  0  0  0
 26  2  1  0  0  0  0
 27  8  1  0  0  0  0
 28 13  1  0  0  0  0
 28 10  1  0  0  0  0
 29  4  1  6  0  0  0
 29 24  1  0  0  0  0
 29  6  1  0  0  0  0
 30 31  1  0  0  0  0
M  END
>  <MODEL>
4

>  <REMARK>
 VINA RESULT:      -3.6      3.092      5.492
  Name = 
  1 active torsions:
  status: ('A' for Active; 'I' for Inactive)
    1  A    between atoms: C_1  and  C_21
                            x       y       z     vdW  Elec       q    Type
                         _______ _______ _______ _____ _____    ______ ____

>  <TORSDO>
F 1

$$$$
=
 OpenBabel11072412143D

 31 35  0  0  1  0  0  0  0  0999 V2000
  155.9590  212.9810  137.8930 C   0  0  2  0  0  3  0  0  0  0  0  0
  158.9250  212.9100  144.6420 O   0  0  0  0  0  1  0  0  0  0  0  0
  164.1680  214.4530  142.4360 O   0  0  0  0  0  0  0  0  0  0  0  0
  159.7080  214.3310  141.7880 C   0  0  0  0  0  2  0  0  0  0  0  0
  157.3940  212.7330  137.5380 C   0  0  0  0  0  0  0  0  0  0  0  0
  157.8110  213.7730  140.3800 C   0  0  2  0  0  3  0  0  0  0  0  0
  156.2850  213.7830  140.3330 C   0  0  0  0  0  2  0  0  0  0  0  0
  161.5840  212.4140  138.1570 C   0  0  2  0  0  0  0  0  0  0  0  0
  155.6960  212.7220  139.3900 C   0  0  0  0  0  2  0  0  0  0  0  0
  160.7540  213.3820  142.3900 C   0  0  2  0  0  3  0  0  0  0  0  0
  161.0070  213.7270  143.8400 C   0  0  0  0  0  0  0  0  0  0  0  0
  162.9740  214.1440  142.6960 C   0  0  0  0  0  0  0  0  0  0  0  0
  162.3320  213.3250  140.3560 C   0  0  0  0  0  0  0  0  0  0  0  0
  163.6590  213.7690  138.3900 N   0  0  0  0  0  0  0  0  0  0  0  0
  158.2120  213.8330  137.2590 C   0  0  0  0  0  3  0  0  0  0  0  0
  163.0030  214.4530  145.1420 C   0  0  0  0  0  2  0  0  0  0  0  0
  162.3550  214.2700  143.9960 C   0  0  0  0  0  0  0  0  0  0  0  0
  162.1440  211.1610  137.9750 F   0  0  0  0  0  0  0  0  0  0  0  0
  160.1900  212.4580  137.5900 C   0  0  0  0  0  0  0  0  0  0  0  0
  159.3620  211.3400  137.7770 C   0  0  0  0  0  3  0  0  0  0  0  0
  157.9750  211.4740  137.7490 C   0  0  0  0  0  3  0  0  0  0  0  0
  163.5750  213.7630  139.6900 C   0  0  0  0  0  3  0  0  0  0  0  0
  159.6000  213.6970  137.2930 C   0  0  0  0  0  3  0  0  0  0  0  0
  158.2890  212.5020  140.9450 N   0  0  0  0  0  2  0  0  0  0  0  0
  162.5110  213.4700  137.5240 C   0  0  0  0  0  2  0  0  0  0  0  0
  160.1670  213.4970  144.8500 C   0  0  0  0  0  3  0  0  0  0  0  0
  161.4210  212.6830  139.6290 C   0  0  0  0  0  3  0  0  0  0  0  0
  162.0540  213.6190  141.7390 N   0  0  0  0  0  0  0  0  0  0  0  0
  158.3030  213.7290  141.7570 C   0  0  1  0  0  3  0  0  0  0  0  0
  155.0070  212.1740  137.0170 C   0  0  0  0  0  2  0  0  0  0  0  0
  154.4240  211.1230  137.7310 O   0  0  0  0  0  1  0  0  0  0  0  0
  1 30  1  6  0  0  0
  1  9  1  0  0  0  0
  2 26  1  0  0  0  0
  3 12  2  0  0  0  0
  5 21  1  0  0  0  0
  5  1  1  0  0  0  0
  6  7  1  1  0  0  0
  6 24  1  0  0  0  0
  6 29  1  0  0  0  0
  8 18  1  6  0  0  0
  8 27  1  0  0  0  0
  9  7  1  0  0  0  0
 10  4  1  6  0  0  0
 10 11  1  0  0  0  0
 11 17  1  0  0  0  0
 11 26  2  0  0  0  0
 12 17  1  0  0  0  0
 13 28  1  0  0  0  0
 14 22  2  0  0  0  0
 15 23  1  0  0  0  0
 15  5  2  0  0  0  0
 17 16  2  0  0  0  0
 19 20  1  0  0  0  0
 19  8  1  0  0  0  0
 21 20  2  0  0  0  0
 22 13  1  0  0  0  0
 23 19  2  0  0  0  0
 24 29  1  0  0  0  0
 25  8  1  0  0  0  0
 25 14  1  0  0  0  0
 27 13  2  0  0  0  0
 28 10  1  0  0  0  0
 28 12  1  0  0  0  0
 29  4  1  6  0  0  0
 30 31  1  0  0  0  0
M  END
>  <MODEL>
5

>  <REMARK>
 VINA RESULT:      -3.3     11.093     15.040
  Name = 
  1 active torsions:
  status: ('A' for Active; 'I' for Inactive)
    1  A    between atoms: C_1  and  C_21
                            x       y       z     vdW  Elec       q    Type
                         _______ _______ _______ _____ _____    ______ ____

>  <TORSDO>
F 1

$$$$
=
 OpenBabel11072412143D

 31 35  0  0  1  0  0  0  0  0999 V2000
  161.0690  203.8500  148.2610 C   0  0  2  0  0  3  0  0  0  0  0  0
  161.8900  206.5790  155.0610 O   0  0  0  0  0  1  0  0  0  0  0  0
  160.8310  212.0280  153.0830 O   0  0  0  0  0  0  0  0  0  0  0  0
  160.3990  207.6050  152.3220 C   0  0  0  0  0  2  0  0  0  0  0  0
  161.4600  205.2580  147.9260 C   0  0  0  0  0  0  0  0  0  0  0  0
  160.6480  205.7020  150.8360 C   0  0  2  0  0  3  0  0  0  0  0  0
  160.4590  204.1890  150.7540 C   0  0  0  0  0  2  0  0  0  0  0  0
  162.2950  209.3630  148.6230 C   0  0  2  0  0  0  0  0  0  0  0  0
  161.3860  203.5130  149.7310 C   0  0  0  0  0  2  0  0  0  0  0  0
  161.4970  208.5180  152.8870 C   0  0  2  0  0  3  0  0  0  0  0  0
  161.2710  208.7640  154.3620 C   0  0  0  0  0  0  0  0  0  0  0  0
  161.0150  210.7990  153.2940 C   0  0  0  0  0  0  0  0  0  0  0  0
  161.6120  210.1420  150.8920 C   0  0  0  0  0  0  0  0  0  0  0  0
  161.2050  211.5710  148.9900 N   0  0  0  0  0  0  0  0  0  0  0  0
  160.4460  206.2030  147.7360 C   0  0  0  0  0  3  0  0  0  0  0  0
  160.8600  210.7870  155.7550 C   0  0  0  0  0  2  0  0  0  0  0  0
  160.8970  210.1590  154.5840 C   0  0  0  0  0  0  0  0  0  0  0  0
  163.5920  209.7830  148.3740 F   0  0  0  0  0  0  0  0  0  0  0  0
  162.0580  208.0020  148.0260 C   0  0  0  0  0  0  0  0  0  0  0  0
  163.0820  207.0470  148.1210 C   0  0  0  0  0  3  0  0  0  0  0  0
  162.7870  205.6850  148.0700 C   0  0  0  0  0  3  0  0  0  0  0  0
  161.2810  211.4460  150.2850 C   0  0  0  0  0  3  0  0  0  0  0  0
  160.7420  207.5660  147.7940 C   0  0  0  0  0  3  0  0  0  0  0  0
  161.9970  206.0140  151.3310 N   0  0  0  0  0  2  0  0  0  0  0  0
  161.3170  210.4230  148.0800 C   0  0  0  0  0  2  0  0  0  0  0  0
  161.4640  207.8720  155.3350 C   0  0  0  0  0  3  0  0  0  0  0  0
  162.0990  209.1860  150.1040 C   0  0  0  0  0  3  0  0  0  0  0  0
  161.3720  209.8560  152.2840 N   0  0  0  0  0  0  0  0  0  0  0  0
  160.8310  206.1430  152.2190 C   0  0  1  0  0  3  0  0  0  0  0  0
  161.7070  202.8390  147.3130 C   0  0  0  0  0  2  0  0  0  0  0  0
  161.2060  202.9710  146.0150 O   0  0  0  0  0  1  0  0  0  0  0  0
  1 30  1  6  0  0  0
  1  9  1  0  0  0  0
  2 26  1  0  0  0  0
  3 12  2  0  0  0  0
  5 21  1  0  0  0  0
  5  1  1  0  0  0  0
  6  7  1  1  0  0  0
  6 24  1  0  0  0  0
  6 29  1  0  0  0  0
  8 18  1  6  0  0  0
  8 27  1  0  0  0  0
  9  7  1  0  0  0  0
 10  4  1  6  0  0  0
 10 11  1  0  0  0  0
 11 17  1  0  0  0  0
 11 26  2  0  0  0  0
 12 17  1  0  0  0  0
 13 28  1  0  0  0  0
 14 22  2  0  0  0  0
 15 23  1  0  0  0  0
 15  5  2  0  0  0  0
 17 16  2  0  0  0  0
 19 20  1  0  0  0  0
 19  8  1  0  0  0  0
 21 20  2  0  0  0  0
 22 13  1  0  0  0  0
 23 19  2  0  0  0  0
 24 29  1  0  0  0  0
 25  8  1  0  0  0  0
 25 14  1  0  0  0  0
 27 13  2  0  0  0  0
 28 10  1  0  0  0  0
 28 12  1  0  0  0  0
 29  4  1  6  0  0  0
 31 30  1  0  0  0  0
M  END
>  <MODEL>
6

>  <REMARK>
 VINA RESULT:      -3.0      3.083      8.457
  Name = 
  1 active torsions:
  status: ('A' for Active; 'I' for Inactive)
    1  A    between atoms: C_1  and  C_21
                            x       y       z     vdW  Elec       q    Type
                         _______ _______ _______ _____ _____    ______ ____

>  <TORSDO>
F 1

$$$$
=
 OpenBabel11072412143D

 31 35  0  0  1  0  0  0  0  0999 V2000
  161.5860  210.0360  149.9700 C   0  0  2  0  0  3  0  0  0  0  0  0
  162.3650  204.8590  144.7800 O   0  0  0  0  0  1  0  0  0  0  0  0
  160.3180  200.7450  148.4710 O   0  0  0  0  0  0  0  0  0  0  0  0
  160.5640  205.1430  147.5100 C   0  0  0  0  0  2  0  0  0  0  0  0
  161.7220  208.8220  150.8400 C   0  0  0  0  0  0  0  0  0  0  0  0
  161.0280  207.4180  148.2180 C   0  0  2  0  0  3  0  0  0  0  0  0
  161.0820  208.8610  147.7200 C   0  0  0  0  0  2  0  0  0  0  0  0
  161.9220  204.6880  151.7910 C   0  0  2  0  0  0  0  0  0  0  0  0
  162.0430  209.7490  148.5270 C   0  0  0  0  0  2  0  0  0  0  0  0
  161.5310  203.9530  147.4500 C   0  0  2  0  0  3  0  0  0  0  0  0
  161.3590  203.1980  146.1510 C   0  0  0  0  0  0  0  0  0  0  0  0
  160.7110  201.7690  147.8490 C   0  0  0  0  0  0  0  0  0  0  0  0
  161.2600  203.2030  149.8980 C   0  0  0  0  0  0  0  0  0  0  0  0
  160.5130  202.6640  152.1280 N   0  0  0  0  0  0  0  0  0  0  0  0
  160.5590  208.1570  151.2410 C   0  0  0  0  0  3  0  0  0  0  0  0
  160.7100  200.8680  145.5530 C   0  0  0  0  0  2  0  0  0  0  0  0
  160.7780  201.8830  146.4100 C   0  0  0  0  0  0  0  0  0  0  0  0
  163.1150  204.2320  152.3250 F   0  0  0  0  0  0  0  0  0  0  0  0
  161.8720  206.1920  151.8170 C   0  0  0  0  0  0  0  0  0  0  0  0
  163.0420  206.9010  151.5010 C   0  0  0  0  0  3  0  0  0  0  0  0
  162.9690  208.2070  151.0170 C   0  0  0  0  0  3  0  0  0  0  0  0
  160.6860  202.2800  150.8960 C   0  0  0  0  0  3  0  0  0  0  0  0
  160.6340  206.8480  151.7180 C   0  0  0  0  0  3  0  0  0  0  0  0
  162.3360  206.7720  148.0320 N   0  0  0  0  0  2  0  0  0  0  0  0
  160.7530  204.0470  152.5640 C   0  0  0  0  0  2  0  0  0  0  0  0
  161.7520  203.6230  144.9490 C   0  0  0  0  0  3  0  0  0  0  0  0
  161.8470  204.3160  150.3350 C   0  0  0  0  0  3  0  0  0  0  0  0
  161.1550  202.9690  148.4800 N   0  0  0  0  0  0  0  0  0  0  0  0
  161.2200  206.4670  147.1230 C   0  0  1  0  0  3  0  0  0  0  0  0
  162.3210  211.2400  150.5520 C   0  0  0  0  0  2  0  0  0  0  0  0
  162.3790  212.2940  149.6370 O   0  0  0  0  0  1  0  0  0  0  0  0
  1 30  1  1  0  0  0
  1  5  1  0  0  0  0
  2 26  1  0  0  0  0
  5 21  2  0  0  0  0
  5 15  1  0  0  0  0
  6  7  1  6  0  0  0
  7  9  1  0  0  0  0
  8 19  1  0  0  0  0
  8 18  1  1  0  0  0
  8 25  1  0  0  0  0
  9  1  1  0  0  0  0
 10  4  1  6  0  0  0
 10 28  1  0  0  0  0
 11 17  1  0  0  0  0
 11 10  1  0  0  0  0
 12  3  2  0  0  0  0
 12 28  1  0  0  0  0
 13 27  2  0  0  0  0
 13 22  1  0  0  0  0
 14 25  1  0  0  0  0
 15 23  2  0  0  0  0
 16 17  2  0  0  0  0
 17 12  1  0  0  0  0
 20 19  2  0  0  0  0
 21 20  1  0  0  0  0
 22 14  2  0  0  0  0
 23 19  1  0  0  0  0
 24  6  1  0  0  0  0
 26 11  2  0  0  0  0
 27  8  1  0  0  0  0
 28 13  1  0  0  0  0
 29  4  1  1  0  0  0
 29 24  1  0  0  0  0
 29  6  1  0  0  0  0
 31 30  1  0  0  0  0
M  END
>  <MODEL>
7

>  <REMARK>
 VINA RESULT:      -2.3      4.975      6.955
  Name = 
  1 active torsions:
  status: ('A' for Active; 'I' for Inactive)
    1  A    between atoms: C_1  and  C_21
                            x       y       z     vdW  Elec       q    Type
                         _______ _______ _______ _____ _____    ______ ____

>  <TORSDO>
F 1

$$$$
=
 OpenBabel11072412143D

 31 35  0  0  1  0  0  0  0  0999 V2000
  162.2380  206.5680  149.6760 C   0  0  2  0  0  3  0  0  0  0  0  0
  158.9470  212.8900  151.5610 O   0  0  0  0  0  1  0  0  0  0  0  0
  160.0970  211.8790  157.2530 O   0  0  0  0  0  0  0  0  0  0  0  0
  161.1650  210.9260  152.9770 C   0  0  0  0  0  2  0  0  0  0  0  0
  161.8530  206.2440  151.0890 C   0  0  0  0  0  0  0  0  0  0  0  0
  161.6020  209.2840  151.2440 C   0  0  2  0  0  3  0  0  0  0  0  0
  161.9470  209.1390  149.7630 C   0  0  0  0  0  2  0  0  0  0  0  0
  160.4570  206.9710  155.0330 C   0  0  2  0  0  0  0  0  0  0  0  0
  161.4810  207.8060  149.1570 C   0  0  0  0  0  2  0  0  0  0  0  0
  159.8620  211.1600  153.7550 C   0  0  2  0  0  3  0  0  0  0  0  0
  159.5590  212.6390  153.8440 C   0  0  0  0  0  0  0  0  0  0  0  0
  159.9680  211.9050  155.9990 C   0  0  0  0  0  0  0  0  0  0  0  0
  160.2700  209.3970  155.5860 C   0  0  0  0  0  0  0  0  0  0  0  0
  161.1530  207.8810  157.2430 N   0  0  0  0  0  0  0  0  0  0  0  0
  162.7800  206.4950  152.1060 C   0  0  0  0  0  3  0  0  0  0  0  0
  159.2930  214.2610  155.7160 C   0  0  0  0  0  2  0  0  0  0  0  0
  159.7070  213.0970  155.2230 C   0  0  0  0  0  0  0  0  0  0  0  0
  159.2850  206.3320  155.4030 F   0  0  0  0  0  0  0  0  0  0  0  0
  161.0050  206.3740  153.7640 C   0  0  0  0  0  0  0  0  0  0  0  0
  160.1010  206.0300  152.7480 C   0  0  0  0  0  3  0  0  0  0  0  0
  160.5210  205.9630  151.4200 C   0  0  0  0  0  3  0  0  0  0  0  0
  160.6620  209.0560  156.9680 C   0  0  0  0  0  3  0  0  0  0  0  0
  162.3570  206.5680  153.4340 C   0  0  0  0  0  3  0  0  0  0  0  0
  160.1430  209.3140  151.4200 N   0  0  0  0  0  2  0  0  0  0  0  0
  161.4590  206.8900  156.2020 C   0  0  0  0  0  2  0  0  0  0  0  0
  159.1360  213.4060  152.8380 C   0  0  0  0  0  3  0  0  0  0  0  0
  160.1640  208.4090  154.7000 C   0  0  0  0  0  3  0  0  0  0  0  0
  160.0560  210.7560  155.1580 N   0  0  0  0  0  0  0  0  0  0  0  0
  160.9290  210.5540  151.5140 C   0  0  1  0  0  3  0  0  0  0  0  0
  162.0490  205.3740  148.7450 C   0  0  0  0  0  2  0  0  0  0  0  0
  160.9220  205.5330  147.9340 O   0  0  0  0  0  1  0  0  0  0  0  0
  1 30  1  6  0  0  0
  1  5  1  0  0  0  0
  2 26  1  0  0  0  0
  5 21  2  0  0  0  0
  5 15  1  0  0  0  0
  6  7  1  6  0  0  0
  6 24  1  0  0  0  0
  6 29  1  0  0  0  0
  8 18  1  1  0  0  0
  8 25  1  0  0  0  0
  9  1  1  0  0  0  0
  9  7  1  0  0  0  0
 10  4  1  6  0  0  0
 10 11  1  0  0  0  0
 10 28  1  0  0  0  0
 11 17  1  0  0  0  0
 12  3  2  0  0  0  0
 13 22  1  0  0  0  0
 15 23  2  0  0  0  0
 17 16  2  0  0  0  0
 17 12  1  0  0  0  0
 19  8  1  0  0  0  0
 20 19  2  0  0  0  0
 21 20  1  0  0  0  0
 22 14  2  0  0  0  0
 23 19  1  0  0  0  0
 24 29  1  0  0  0  0
 25 14  1  0  0  0  0
 26 11  2  0  0  0  0
 27  8  1  0  0  0  0
 27 13  2  0  0  0  0
 28 13  1  0  0  0  0
 28 12  1  0  0  0  0
 29  4  1  1  0  0  0
 31 30  1  0  0  0  0
M  END
>  <MODEL>
8

>  <REMARK>
 VINA RESULT:      -2.2      1.970      6.526
  Name = 
  1 active torsions:
  status: ('A' for Active; 'I' for Inactive)
    1  A    between atoms: C_1  and  C_21
                            x       y       z     vdW  Elec       q    Type
                         _______ _______ _______ _____ _____    ______ ____

>  <TORSDO>
F 1

$$$$
