=
 OpenBabel11072411143D

 30 31  0  0  1  0  0  0  0  0999 V2000
  162.8730  206.9390  151.6190 C   0  0  0  0  0  2  0  0  0  0  0  0
  161.3080  205.7000  150.0890 C   0  0  0  0  0  0  0  0  0  0  0  0
  161.0970  208.1440  150.3340 C   0  0  1  0  0  3  0  0  0  0  0  0
  162.2530  205.5970  151.2520 C   0  0  0  0  0  2  0  0  0  0  0  0
  160.7580  206.8370  149.7620 N   0  0  0  0  0  0  0  0  0  0  0  0
  161.8010  208.0270  151.6970 C   0  0  1  0  0  3  0  0  0  0  0  0
  161.3330  206.7580  153.8400 C   0  0  0  0  0  2  0  0  0  0  0  0
  160.4300  209.0880  153.5210 C   0  0  0  0  0  3  0  0  0  0  0  0
  160.3790  206.6650  155.0250 C   0  0  0  0  0  2  0  0  0  0  0  0
  160.1870  209.1700  154.8390 C   0  0  0  0  0  3  0  0  0  0  0  0
  160.3690  207.9990  155.7700 C   0  0  0  0  0  2  0  0  0  0  0  0
  160.8000  207.7890  152.8380 C   0  0  1  0  0  3  0  0  0  0  0  0
  160.9130  204.4750  149.4510 N   0  0  0  0  0  0  0  0  0  0  0  0
  161.1240  204.0930  148.2210 C   0  0  0  0  0  0  0  0  0  0  0  0
  161.0730  205.8920  146.6780 O   0  0  0  0  0  1  0  0  0  0  0  0
  162.4620  204.0860  146.2140 N   0  0  0  0  0  1  0  0  0  0  0  0
  161.9040  204.9300  147.2540 C   0  0  2  0  0  3  0  0  0  0  0  0
  160.6560  202.8480  147.7710 O   0  0  0  0  0  0  0  0  0  0  0  0
  160.6130  201.6680  148.5250 C   0  0  0  0  0  0  0  0  0  0  0  0
  159.5380  201.4480  149.3760 O   0  0  0  0  0  1  0  0  0  0  0  0
  161.5280  200.8040  148.4520 O   0  0  0  0  0  0  0  0  0  0  0  0
  161.9460  208.9270  149.3370 C   0  0  0  0  0  2  0  0  0  0  0  0
  162.3560  210.5900  149.9600 S   0  0  0  0  0  0  0  0  0  0  0  0
  162.1400  211.3940  148.3720 C   0  0  0  0  0  0  0  0  0  0  0  0
  161.1230  211.1980  147.7260 O   0  0  0  0  0  0  0  0  0  0  0  0
  163.1740  212.3650  147.8860 C   0  0  0  0  0  2  0  0  0  0  0  0
  162.6600  213.7990  147.8300 C   0  0  0  0  0  2  0  0  0  0  0  0
  162.4080  214.2610  146.4010 C   0  0  0  0  0  2  0  0  0  0  0  0
  161.6150  213.1440  144.6660 C   0  0  0  0  0  1  0  0  0  0  0  0
  162.7240  213.2380  145.5060 O   0  0  0  0  0  0  0  0  0  0  0  0
  2  4  1  0  0  0  0
  3 22  1  6  0  0  0
  3  6  1  0  0  0  0
  4  1  1  0  0  0  0
  5  2  2  0  0  0  0
  5  3  1  0  0  0  0
  6  1  1  6  0  0  0
  6 12  1  0  0  0  0
  7  9  1  0  0  0  0
  8 10  2  0  0  0  0
  9 11  1  0  0  0  0
 10 11  1  0  0  0  0
 12  8  1  1  0  0  0
 12  7  1  0  0  0  0
 13  2  1  0  0  0  0
 14 13  2  0  0  0  0
 15 17  1  0  0  0  0
 17 16  1  6  0  0  0
 17 14  1  0  0  0  0
 18 14  1  0  0  0  0
 18 19  1  0  0  0  0
 19 20  1  0  0  0  0
 21 19  2  0  0  0  0
 22 23  1  0  0  0  0
 24 23  1  0  0  0  0
 25 24  2  0  0  0  0
 26 24  1  0  0  0  0
 27 26  1  0  0  0  0
 28 27  1  0  0  0  0
 29 30  1  0  0  0  0
 30 28  1  0  0  0  0
M  END
>  <MODEL>
1

>  <REMARK>
 VINA RESULT:      -6.2      0.000      0.000
  Name = 
  12 active torsions:
  status: ('A' for Active; 'I' for Inactive)
    1  A    between atoms: C_2  and  O_19
    2  A    between atoms: C_3  and  C_11
    3  A    between atoms: C_3  and  S_15
    4  A    between atoms: C_6  and  N_8
    5  A    between atoms: C_10  and  O_19
    6  A    between atoms: C_10  and  C_26
    7  A    between atoms: C_13  and  C_14
    8  A    between atoms: C_13  and  C_22
    9  A    between atoms: C_14  and  S_15
   10  A    between atoms: C_18  and  C_22
   11  A    between atoms: C_18  and  O_28
   12  A    between atoms: C_25  and  C_30
                            x       y       z     vdW  Elec       q    Type
                         _______ _______ _______ _____ _____    ______ ____

>  <TORSDO>
F 12

$$$$
=
 OpenBabel11072411143D

 30 31  0  0  1  0  0  0  0  0999 V2000
  160.1160  205.9020  148.2310 C   0  0  0  0  0  2  0  0  0  0  0  0
  161.6520  207.8860  148.4070 C   0  0  0  0  0  0  0  0  0  0  0  0
  162.5270  205.7310  147.5870 C   0  0  1  0  0  3  0  0  0  0  0  0
  160.3640  207.2660  148.8650 C   0  0  0  0  0  2  0  0  0  0  0  0
  162.6180  207.1580  147.9150 N   0  0  0  0  0  0  0  0  0  0  0  0
  161.3700  205.0300  148.3180 C   0  0  1  0  0  3  0  0  0  0  0  0
  160.9890  205.5550  150.7670 C   0  0  0  0  0  2  0  0  0  0  0  0
  161.5140  203.2010  150.0400 C   0  0  0  0  0  3  0  0  0  0  0  0
  161.2740  205.0680  152.1830 C   0  0  0  0  0  2  0  0  0  0  0  0
  161.0920  202.7430  151.2290 C   0  0  0  0  0  3  0  0  0  0  0  0
  160.7010  203.6630  152.3580 C   0  0  0  0  0  2  0  0  0  0  0  0
  161.7410  204.6720  149.7650 C   0  0  1  0  0  3  0  0  0  0  0  0
  161.8430  209.2840  148.6760 N   0  0  0  0  0  0  0  0  0  0  0  0
  161.9940  209.8780  149.8290 C   0  0  0  0  0  0  0  0  0  0  0  0
  160.7370  208.8770  151.5710 O   0  0  0  0  0  1  0  0  0  0  0  0
  162.7690  209.8680  152.1130 N   0  0  0  0  0  1  0  0  0  0  0  0
  162.0340  209.1130  151.1160 C   0  0  2  0  0  3  0  0  0  0  0  0
  162.1680  211.2700  149.8960 O   0  0  0  0  0  0  0  0  0  0  0  0
  162.1570  212.1500  148.8060 C   0  0  0  0  0  0  0  0  0  0  0  0
  160.9790  212.8090  148.4810 O   0  0  0  0  0  1  0  0  0  0  0  0
  163.1890  212.3550  148.1130 O   0  0  0  0  0  0  0  0  0  0  0  0
  162.4080  205.5680  146.0750 C   0  0  0  0  0  2  0  0  0  0  0  0
  162.7600  203.8570  145.5520 S   0  0  0  0  0  0  0  0  0  0  0  0
  161.0640  203.4970  145.0930 C   0  0  0  0  0  0  0  0  0  0  0  0
  160.4200  204.3190  144.4610 O   0  0  0  0  0  0  0  0  0  0  0  0
  160.4780  202.1570  145.4170 C   0  0  0  0  0  2  0  0  0  0  0  0
  160.9360  201.6210  146.7700 C   0  0  0  0  0  2  0  0  0  0  0  0
  161.2330  200.1290  146.7240 C   0  0  0  0  0  2  0  0  0  0  0  0
  161.4320  198.3580  145.4170 C   0  0  0  0  0  1  0  0  0  0  0  0
  160.7880  199.5910  145.5160 O   0  0  0  0  0  0  0  0  0  0  0  0
  1  4  1  0  0  0  0
  2 13  1  0  0  0  0
  2  4  1  0  0  0  0
  3 22  1  6  0  0  0
  3  5  1  0  0  0  0
  3  6  1  0  0  0  0
  5  2  2  0  0  0  0
  6  1  1  1  0  0  0
  6 12  1  0  0  0  0
  7  9  1  0  0  0  0
  8 10  2  0  0  0  0
  9 11  1  0  0  0  0
 10 11  1  0  0  0  0
 12  8  1  1  0  0  0
 12  7  1  0  0  0  0
 13 14  2  0  0  0  0
 14 18  1  0  0  0  0
 14 17  1  0  0  0  0
 17 15  1  1  0  0  0
 17 16  1  0  0  0  0
 19 18  1  0  0  0  0
 20 19  1  0  0  0  0
 21 19  2  0  0  0  0
 23 22  1  0  0  0  0
 24 26  1  0  0  0  0
 24 23  1  0  0  0  0
 25 24  2  0  0  0  0
 26 27  1  0  0  0  0
 28 27  1  0  0  0  0
 29 30  1  0  0  0  0
 30 28  1  0  0  0  0
M  END
>  <MODEL>
2

>  <REMARK>
 VINA RESULT:      -5.9      3.078      8.191
  Name = 
  12 active torsions:
  status: ('A' for Active; 'I' for Inactive)
    1  A    between atoms: C_2  and  O_19
    2  A    between atoms: C_3  and  C_11
    3  A    between atoms: C_3  and  S_15
    4  A    between atoms: C_6  and  N_8
    5  A    between atoms: C_10  and  O_19
    6  A    between atoms: C_10  and  C_26
    7  A    between atoms: C_13  and  C_14
    8  A    between atoms: C_13  and  C_22
    9  A    between atoms: C_14  and  S_15
   10  A    between atoms: C_18  and  C_22
   11  A    between atoms: C_18  and  O_28
   12  A    between atoms: C_25  and  C_30
                            x       y       z     vdW  Elec       q    Type
                         _______ _______ _______ _____ _____    ______ ____

>  <TORSDO>
F 12

$$$$
=
 OpenBabel11072411143D

 30 31  0  0  1  0  0  0  0  0999 V2000
  162.6730  209.7250  151.4870 C   0  0  0  0  0  2  0  0  0  0  0  0
  160.4290  210.6860  152.0930 C   0  0  0  0  0  0  0  0  0  0  0  0
  160.8600  208.2810  152.4280 C   0  0  1  0  0  3  0  0  0  0  0  0
  161.6850  210.8680  151.2900 C   0  0  0  0  0  2  0  0  0  0  0  0
  160.0600  209.5070  152.5150 N   0  0  0  0  0  0  0  0  0  0  0  0
  161.9670  208.3730  151.3650 C   0  0  1  0  0  3  0  0  0  0  0  0
  162.5630  207.9690  148.9350 C   0  0  0  0  0  2  0  0  0  0  0  0
  160.5010  206.9180  149.9280 C   0  0  0  0  0  3  0  0  0  0  0  0
  161.9860  207.5710  147.5830 C   0  0  0  0  0  2  0  0  0  0  0  0
  160.4340  206.0750  148.8860 C   0  0  0  0  0  3  0  0  0  0  0  0
  161.3500  206.1870  147.6940 C   0  0  0  0  0  2  0  0  0  0  0  0
  161.4240  208.1170  149.9510 C   0  0  1  0  0  3  0  0  0  0  0  0
  159.5720  211.8290  152.2440 N   0  0  0  0  0  0  0  0  0  0  0  0
  159.2600  212.4740  153.3350 C   0  0  0  0  0  0  0  0  0  0  0  0
  159.0840  211.0720  155.2380 O   0  0  0  0  0  1  0  0  0  0  0  0
  159.8200  213.2560  155.5470 N   0  0  0  0  0  1  0  0  0  0  0  0
  159.8330  212.1010  154.6680 C   0  0  2  0  0  3  0  0  0  0  0  0
  158.3950  213.5800  153.2870 O   0  0  0  0  0  0  0  0  0  0  0  0
  156.9970  213.5290  153.3500 C   0  0  0  0  0  0  0  0  0  0  0  0
  156.2520  214.4280  152.5980 O   0  0  0  0  0  0  0  0  0  0  0  0
  156.3990  212.6900  154.0760 O   0  0  0  0  0  1  0  0  0  0  0  0
  161.4370  207.9570  153.8030 C   0  0  0  0  0  2  0  0  0  0  0  0
  160.8240  206.3600  154.4320 S   0  0  0  0  0  0  0  0  0  0  0  0
  161.5470  205.3970  153.1030 C   0  0  0  0  0  0  0  0  0  0  0  0
  162.6890  205.6290  152.7380 O   0  0  0  0  0  0  0  0  0  0  0  0
  160.7730  204.2600  152.5050 C   0  0  0  0  0  2  0  0  0  0  0  0
  161.5620  203.4980  151.4470 C   0  0  0  0  0  2  0  0  0  0  0  0
  160.6540  202.8770  150.3940 C   0  0  0  0  0  2  0  0  0  0  0  0
  161.0950  201.1780  149.0510 C   0  0  0  0  0  1  0  0  0  0  0  0
  160.8160  201.4910  150.3810 O   0  0  0  0  0  0  0  0  0  0  0  0
  2 13  1  0  0  0  0
  2  5  2  0  0  0  0
  3  5  1  0  0  0  0
  3 22  1  1  0  0  0
  4  1  1  0  0  0  0
  4  2  1  0  0  0  0
  6  1  1  6  0  0  0
  6  3  1  0  0  0  0
  8 12  1  0  0  0  0
  9 11  1  0  0  0  0
  9  7  1  0  0  0  0
 10  8  2  0  0  0  0
 11 10  1  0  0  0  0
 12  7  1  6  0  0  0
 12  6  1  0  0  0  0
 13 14  2  0  0  0  0
 14 17  1  0  0  0  0
 17 15  1  1  0  0  0
 17 16  1  0  0  0  0
 18 14  1  0  0  0  0
 18 19  1  0  0  0  0
 19 21  1  0  0  0  0
 20 19  2  0  0  0  0
 22 23  1  0  0  0  0
 24 23  1  0  0  0  0
 25 24  2  0  0  0  0
 26 24  1  0  0  0  0
 27 26  1  0  0  0  0
 28 27  1  0  0  0  0
 29 30  1  0  0  0  0
 30 28  1  0  0  0  0
M  END
>  <MODEL>
3

>  <REMARK>
 VINA RESULT:      -5.7      4.214      9.044
  Name = 
  12 active torsions:
  status: ('A' for Active; 'I' for Inactive)
    1  A    between atoms: C_2  and  O_19
    2  A    between atoms: C_3  and  C_11
    3  A    between atoms: C_3  and  S_15
    4  A    between atoms: C_6  and  N_8
    5  A    between atoms: C_10  and  O_19
    6  A    between atoms: C_10  and  C_26
    7  A    between atoms: C_13  and  C_14
    8  A    between atoms: C_13  and  C_22
    9  A    between atoms: C_14  and  S_15
   10  A    between atoms: C_18  and  C_22
   11  A    between atoms: C_18  and  O_28
   12  A    between atoms: C_25  and  C_30
                            x       y       z     vdW  Elec       q    Type
                         _______ _______ _______ _____ _____    ______ ____

>  <TORSDO>
F 12

$$$$
=
 OpenBabel11072411143D

 30 31  0  0  1  0  0  0  0  0999 V2000
  162.8720  207.0120  151.6480 C   0  0  0  0  0  2  0  0  0  0  0  0
  161.3130  205.7980  150.0920 C   0  0  0  0  0  0  0  0  0  0  0  0
  161.1150  208.2410  150.3610 C   0  0  1  0  0  3  0  0  0  0  0  0
  162.2470  205.6770  151.2620 C   0  0  0  0  0  2  0  0  0  0  0  0
  160.7720  206.9420  149.7720 N   0  0  0  0  0  0  0  0  0  0  0  0
  161.8060  208.1050  151.7280 C   0  0  1  0  0  3  0  0  0  0  0  0
  161.3240  206.8370  153.8680 C   0  0  0  0  0  2  0  0  0  0  0  0
  160.4070  209.1590  153.5350 C   0  0  0  0  0  3  0  0  0  0  0  0
  160.3570  206.7400  155.0420 C   0  0  0  0  0  2  0  0  0  0  0  0
  160.1480  209.2420  154.8490 C   0  0  0  0  0  3  0  0  0  0  0  0
  160.3280  208.0740  155.7840 C   0  0  0  0  0  2  0  0  0  0  0  0
  160.7950  207.8620  152.8580 C   0  0  1  0  0  3  0  0  0  0  0  0
  160.9150  204.5820  149.4390 N   0  0  0  0  0  0  0  0  0  0  0  0
  161.1220  204.2170  148.2030 C   0  0  0  0  0  0  0  0  0  0  0  0
  161.0400  205.9500  146.5870 O   0  0  0  0  0  1  0  0  0  0  0  0
  162.5670  204.2250  146.2710 N   0  0  0  0  0  1  0  0  0  0  0  0
  161.8980  205.0680  147.2440 C   0  0  2  0  0  3  0  0  0  0  0  0
  160.6530  202.9780  147.7370 O   0  0  0  0  0  0  0  0  0  0  0  0
  160.5960  201.7920  148.4800 C   0  0  0  0  0  0  0  0  0  0  0  0
  159.4750  201.5350  149.2580 O   0  0  0  0  0  1  0  0  0  0  0  0
  161.5380  200.9560  148.4620 O   0  0  0  0  0  0  0  0  0  0  0  0
  161.9770  209.0280  149.3790 C   0  0  0  0  0  2  0  0  0  0  0  0
  162.3770  210.6890  150.0140 S   0  0  0  0  0  0  0  0  0  0  0  0
  161.6200  211.5540  148.6370 C   0  0  0  0  0  0  0  0  0  0  0  0
  161.3400  210.9430  147.6180 O   0  0  0  0  0  0  0  0  0  0  0  0
  161.2630  213.0030  148.7780 C   0  0  0  0  0  2  0  0  0  0  0  0
  160.4660  213.2960  150.0450 C   0  0  0  0  0  2  0  0  0  0  0  0
  159.0140  213.6360  149.7400 C   0  0  0  0  0  2  0  0  0  0  0  0
  159.0370  212.6440  151.7150 C   0  0  0  0  0  1  0  0  0  0  0  0
  158.2180  213.3790  150.8570 O   0  0  0  0  0  0  0  0  0  0  0  0
  2  4  1  0  0  0  0
  3 22  1  6  0  0  0
  3  6  1  0  0  0  0
  4  1  1  0  0  0  0
  5  2  2  0  0  0  0
  5  3  1  0  0  0  0
  6  1  1  6  0  0  0
  6 12  1  0  0  0  0
  7  9  1  0  0  0  0
  8 10  2  0  0  0  0
  9 11  1  0  0  0  0
 10 11  1  0  0  0  0
 12  8  1  1  0  0  0
 12  7  1  0  0  0  0
 13  2  1  0  0  0  0
 14 13  2  0  0  0  0
 15 17  1  0  0  0  0
 17 16  1  6  0  0  0
 17 14  1  0  0  0  0
 18 14  1  0  0  0  0
 18 19  1  0  0  0  0
 19 20  1  0  0  0  0
 21 19  2  0  0  0  0
 22 23  1  0  0  0  0
 24 26  1  0  0  0  0
 24 23  1  0  0  0  0
 25 24  2  0  0  0  0
 26 27  1  0  0  0  0
 28 27  1  0  0  0  0
 28 30  1  0  0  0  0
 30 29  1  0  0  0  0
M  END
>  <MODEL>
4

>  <REMARK>
 VINA RESULT:      -5.6      1.538      2.192
  Name = 
  12 active torsions:
  status: ('A' for Active; 'I' for Inactive)
    1  A    between atoms: C_2  and  O_19
    2  A    between atoms: C_3  and  C_11
    3  A    between atoms: C_3  and  S_15
    4  A    between atoms: C_6  and  N_8
    5  A    between atoms: C_10  and  O_19
    6  A    between atoms: C_10  and  C_26
    7  A    between atoms: C_13  and  C_14
    8  A    between atoms: C_13  and  C_22
    9  A    between atoms: C_14  and  S_15
   10  A    between atoms: C_18  and  C_22
   11  A    between atoms: C_18  and  O_28
   12  A    between atoms: C_25  and  C_30
                            x       y       z     vdW  Elec       q    Type
                         _______ _______ _______ _____ _____    ______ ____

>  <TORSDO>
F 12

$$$$
=
 OpenBabel11072411143D

 30 31  0  0  1  0  0  0  0  0999 V2000
  159.9500  205.9630  148.7820 C   0  0  0  0  0  2  0  0  0  0  0  0
  161.6030  207.4660  149.9350 C   0  0  0  0  0  0  0  0  0  0  0  0
  162.3460  206.0360  148.0690 C   0  0  1  0  0  3  0  0  0  0  0  0
  160.2790  206.7650  150.0340 C   0  0  0  0  0  2  0  0  0  0  0  0
  162.5230  207.0620  149.1020 N   0  0  0  0  0  0  0  0  0  0  0  0
  161.1470  205.1140  148.3520 C   0  0  1  0  0  3  0  0  0  0  0  0
  160.5790  204.0980  150.6030 C   0  0  0  0  0  2  0  0  0  0  0  0
  161.4640  202.6490  148.7420 C   0  0  0  0  0  3  0  0  0  0  0  0
  160.8610  202.9120  151.5170 C   0  0  0  0  0  2  0  0  0  0  0  0
  161.0520  201.5550  149.4030 C   0  0  0  0  0  3  0  0  0  0  0  0
  160.4820  201.6190  150.7970 C   0  0  0  0  0  2  0  0  0  0  0  0
  161.4950  204.0230  149.3750 C   0  0  1  0  0  3  0  0  0  0  0  0
  161.8780  208.4950  150.8990 N   0  0  0  0  0  0  0  0  0  0  0  0
  161.6720  208.4780  152.1880 C   0  0  0  0  0  0  0  0  0  0  0  0
  160.6460  207.6320  154.1500 O   0  0  0  0  0  1  0  0  0  0  0  0
  162.1540  206.2670  153.0230 N   0  0  0  0  0  1  0  0  0  0  0  0
  161.1180  207.2750  152.8870 C   0  0  2  0  0  3  0  0  0  0  0  0
  162.0060  209.5900  152.9780 O   0  0  0  0  0  0  0  0  0  0  0  0
  161.1990  210.7150  153.1930 C   0  0  0  0  0  0  0  0  0  0  0  0
  160.4020  211.1830  152.1560 O   0  0  0  0  0  0  0  0  0  0  0  0
  161.1800  211.3130  154.3020 O   0  0  0  0  0  1  0  0  0  0  0  0
  162.2190  206.7080  146.7050 C   0  0  0  0  0  2  0  0  0  0  0  0
  162.5090  205.5310  145.3440 S   0  0  0  0  0  0  0  0  0  0  0  0
  160.7660  205.2680  145.0110 C   0  0  0  0  0  0  0  0  0  0  0  0
  159.9980  206.2160  145.0160 O   0  0  0  0  0  0  0  0  0  0  0  0
  160.2810  203.8970  144.6460 C   0  0  0  0  0  2  0  0  0  0  0  0
  161.0470  202.7880  145.3600 C   0  0  0  0  0  2  0  0  0  0  0  0
  160.1460  201.6200  145.7340 C   0  0  0  0  0  2  0  0  0  0  0  0
  160.8660  199.5470  145.4720 C   0  0  0  0  0  1  0  0  0  0  0  0
  160.2650  200.6020  144.7870 O   0  0  0  0  0  0  0  0  0  0  0  0
  1  4  1  0  0  0  0
  2  4  1  0  0  0  0
  2 13  1  0  0  0  0
  3 22  1  6  0  0  0
  3  6  1  0  0  0  0
  3  5  1  0  0  0  0
  5  2  2  0  0  0  0
  6  1  1  1  0  0  0
  6 12  1  0  0  0  0
  7  9  1  0  0  0  0
  8 10  2  0  0  0  0
 10 11  1  0  0  0  0
 11  9  1  0  0  0  0
 12  8  1  6  0  0  0
 12  7  1  0  0  0  0
 13 14  2  0  0  0  0
 14 17  1  0  0  0  0
 14 18  1  0  0  0  0
 17 16  1  1  0  0  0
 17 15  1  0  0  0  0
 18 19  1  0  0  0  0
 19 21  1  0  0  0  0
 20 19  2  0  0  0  0
 23 22  1  0  0  0  0
 24 25  2  0  0  0  0
 24 23  1  0  0  0  0
 26 24  1  0  0  0  0
 26 27  1  0  0  0  0
 27 28  1  0  0  0  0
 30 29  1  0  0  0  0
 30 28  1  0  0  0  0
M  END
>  <MODEL>
5

>  <REMARK>
 VINA RESULT:      -5.6      3.849      7.880
  Name = 
  12 active torsions:
  status: ('A' for Active; 'I' for Inactive)
    1  A    between atoms: C_2  and  O_19
    2  A    between atoms: C_3  and  C_11
    3  A    between atoms: C_3  and  S_15
    4  A    between atoms: C_6  and  N_8
    5  A    between atoms: C_10  and  O_19
    6  A    between atoms: C_10  and  C_26
    7  A    between atoms: C_13  and  C_14
    8  A    between atoms: C_13  and  C_22
    9  A    between atoms: C_14  and  S_15
   10  A    between atoms: C_18  and  C_22
   11  A    between atoms: C_18  and  O_28
   12  A    between atoms: C_25  and  C_30
                            x       y       z     vdW  Elec       q    Type
                         _______ _______ _______ _____ _____    ______ ____

>  <TORSDO>
F 12

$$$$
=
 OpenBabel11072411143D

 30 31  0  0  1  0  0  0  0  0999 V2000
  159.9220  206.0780  149.4490 C   0  0  0  0  0  2  0  0  0  0  0  0
  161.8030  207.3730  150.5020 C   0  0  0  0  0  0  0  0  0  0  0  0
  162.1750  206.1920  148.3700 C   0  0  1  0  0  3  0  0  0  0  0  0
  160.4810  206.6960  150.7250 C   0  0  0  0  0  2  0  0  0  0  0  0
  162.5590  207.0650  149.4840 N   0  0  0  0  0  0  0  0  0  0  0  0
  160.9970  205.2680  148.7230 C   0  0  1  0  0  3  0  0  0  0  0  0
  160.6550  203.8970  150.8270 C   0  0  0  0  0  2  0  0  0  0  0  0
  161.3830  202.7820  148.6890 C   0  0  0  0  0  3  0  0  0  0  0  0
  161.0380  202.5920  151.5130 C   0  0  0  0  0  2  0  0  0  0  0  0
  161.0500  201.5880  149.2030 C   0  0  0  0  0  3  0  0  0  0  0  0
  160.6120  201.4170  150.6350 C   0  0  0  0  0  2  0  0  0  0  0  0
  161.4540  204.0410  149.5260 C   0  0  1  0  0  3  0  0  0  0  0  0
  162.2730  208.2560  151.5340 N   0  0  0  0  0  0  0  0  0  0  0  0
  162.1340  209.5510  151.6220 C   0  0  0  0  0  0  0  0  0  0  0  0
  162.2280  210.7470  149.5790 O   0  0  0  0  0  1  0  0  0  0  0  0
  160.7730  211.5020  151.2270 N   0  0  0  0  0  1  0  0  0  0  0  0
  161.3720  210.3380  150.6010 C   0  0  2  0  0  3  0  0  0  0  0  0
  162.6680  210.2520  152.7160 O   0  0  0  0  0  0  0  0  0  0  0  0
  162.1290  210.2860  154.0090 C   0  0  0  0  0  0  0  0  0  0  0  0
  160.8250  209.8540  154.2100 O   0  0  0  0  0  0  0  0  0  0  0  0
  162.7980  210.7020  154.9920 O   0  0  0  0  0  1  0  0  0  0  0  0
  161.8630  207.0450  147.1440 C   0  0  0  0  0  2  0  0  0  0  0  0
  160.4320  206.3980  146.2190 S   0  0  0  0  0  0  0  0  0  0  0  0
  161.4270  205.5600  144.9860 C   0  0  0  0  0  0  0  0  0  0  0  0
  161.4940  206.0090  143.8530 O   0  0  0  0  0  0  0  0  0  0  0  0
  162.2350  204.3590  145.3770 C   0  0  0  0  0  2  0  0  0  0  0  0
  161.3770  203.1250  145.6340 C   0  0  0  0  0  2  0  0  0  0  0  0
  160.1650  203.0700  144.7140 C   0  0  0  0  0  2  0  0  0  0  0  0
  160.4690  201.0390  145.5320 C   0  0  0  0  0  1  0  0  0  0  0  0
  159.6020  201.7940  144.7420 O   0  0  0  0  0  0  0  0  0  0  0  0
  1  4  1  0  0  0  0
  2  4  1  0  0  0  0
  2 13  1  0  0  0  0
  3 22  1  6  0  0  0
  3  6  1  0  0  0  0
  3  5  1  0  0  0  0
  5  2  2  0  0  0  0
  6  1  1  1  0  0  0
  6 12  1  0  0  0  0
  7  9  1  0  0  0  0
  8 10  2  0  0  0  0
 10 11  1  0  0  0  0
 11  9  1  0  0  0  0
 12  8  1  6  0  0  0
 12  7  1  0  0  0  0
 13 14  2  0  0  0  0
 14 18  1  0  0  0  0
 17 15  1  6  0  0  0
 17 16  1  0  0  0  0
 17 14  1  0  0  0  0
 18 19  1  0  0  0  0
 19 20  2  0  0  0  0
 19 21  1  0  0  0  0
 23 22  1  0  0  0  0
 24 26  1  0  0  0  0
 24 23  1  0  0  0  0
 25 24  2  0  0  0  0
 26 27  1  0  0  0  0
 28 30  1  0  0  0  0
 28 27  1  0  0  0  0
 30 29  1  0  0  0  0
M  END
>  <MODEL>
6

>  <REMARK>
 VINA RESULT:      -5.5      3.419      7.620
  Name = 
  12 active torsions:
  status: ('A' for Active; 'I' for Inactive)
    1  A    between atoms: C_2  and  O_19
    2  A    between atoms: C_3  and  C_11
    3  A    between atoms: C_3  and  S_15
    4  A    between atoms: C_6  and  N_8
    5  A    between atoms: C_10  and  O_19
    6  A    between atoms: C_10  and  C_26
    7  A    between atoms: C_13  and  C_14
    8  A    between atoms: C_13  and  C_22
    9  A    between atoms: C_14  and  S_15
   10  A    between atoms: C_18  and  C_22
   11  A    between atoms: C_18  and  O_28
   12  A    between atoms: C_25  and  C_30
                            x       y       z     vdW  Elec       q    Type
                         _______ _______ _______ _____ _____    ______ ____

>  <TORSDO>
F 12

$$$$
=
 OpenBabel11072411143D

 30 31  0  0  1  0  0  0  0  0999 V2000
  159.9770  206.5790  148.8130 C   0  0  0  0  0  2  0  0  0  0  0  0
  161.3780  206.9480  150.8690 C   0  0  0  0  0  0  0  0  0  0  0  0
  162.3300  207.4090  148.6420 C   0  0  1  0  0  3  0  0  0  0  0  0
  160.1800  206.2530  150.2880 C   0  0  0  0  0  2  0  0  0  0  0  0
  162.3470  207.3790  150.1090 N   0  0  0  0  0  0  0  0  0  0  0  0
  161.2920  206.4450  148.0430 C   0  0  1  0  0  3  0  0  0  0  0  0
  160.8810  204.0550  148.7780 C   0  0  0  0  0  2  0  0  0  0  0  0
  162.0190  204.5300  146.5820 C   0  0  0  0  0  3  0  0  0  0  0  0
  161.3510  202.6180  148.5900 C   0  0  0  0  0  2  0  0  0  0  0  0
  161.7930  203.2650  146.1960 C   0  0  0  0  0  3  0  0  0  0  0  0
  161.2060  202.2290  147.1200 C   0  0  0  0  0  2  0  0  0  0  0  0
  161.8090  205.0000  148.0050 C   0  0  1  0  0  3  0  0  0  0  0  0
  161.4900  206.9790  152.3010 N   0  0  0  0  0  0  0  0  0  0  0  0
  161.4540  208.0120  153.0980 C   0  0  0  0  0  0  0  0  0  0  0  0
  162.0460  210.3000  153.2730 O   0  0  0  0  0  1  0  0  0  0  0  0
  159.8400  209.7730  152.7640 N   0  0  0  0  0  1  0  0  0  0  0  0
  161.2310  209.4010  152.5850 C   0  0  2  0  0  3  0  0  0  0  0  0
  161.5840  207.8460  154.4870 O   0  0  0  0  0  0  0  0  0  0  0  0
  160.5380  207.8940  155.4180 C   0  0  0  0  0  0  0  0  0  0  0  0
  160.4210  209.0010  156.2480 O   0  0  0  0  0  1  0  0  0  0  0  0
  159.7040  206.9550  155.5230 O   0  0  0  0  0  0  0  0  0  0  0  0
  162.0950  208.8410  148.1700 C   0  0  0  0  0  2  0  0  0  0  0  0
  162.3300  210.0430  149.5190 S   0  0  0  0  0  0  0  0  0  0  0  0
  162.3100  211.4750  148.4400 C   0  0  0  0  0  0  0  0  0  0  0  0
  163.3350  212.1130  148.2600 O   0  0  0  0  0  0  0  0  0  0  0  0
  161.0540  211.8280  147.7010 C   0  0  0  0  0  2  0  0  0  0  0  0
  161.1470  213.1690  146.9820 C   0  0  0  0  0  2  0  0  0  0  0  0
  161.3140  213.0010  145.4780 C   0  0  0  0  0  2  0  0  0  0  0  0
  162.6890  212.9550  143.7480 C   0  0  0  0  0  1  0  0  0  0  0  0
  162.6470  213.2050  145.1200 O   0  0  0  0  0  0  0  0  0  0  0  0
  1  4  1  0  0  0  0
  2 13  1  0  0  0  0
  3 22  1  1  0  0  0
  3  5  1  0  0  0  0
  4  2  1  0  0  0  0
  5  2  2  0  0  0  0
  6  3  1  0  0  0  0
  6  1  1  1  0  0  0
  9  7  1  0  0  0  0
 10  8  2  0  0  0  0
 10 11  1  0  0  0  0
 11  9  1  0  0  0  0
 12  8  1  6  0  0  0
 12  6  1  0  0  0  0
 12  7  1  0  0  0  0
 13 14  2  0  0  0  0
 14 18  1  0  0  0  0
 17 16  1  1  0  0  0
 17 14  1  0  0  0  0
 17 15  1  0  0  0  0
 18 19  1  0  0  0  0
 19 21  2  0  0  0  0
 19 20  1  0  0  0  0
 22 23  1  0  0  0  0
 24 23  1  0  0  0  0
 25 24  2  0  0  0  0
 26 24  1  0  0  0  0
 27 26  1  0  0  0  0
 28 27  1  0  0  0  0
 29 30  1  0  0  0  0
 30 28  1  0  0  0  0
M  END
>  <MODEL>
7

>  <REMARK>
 VINA RESULT:      -5.2      3.416      6.025
  Name = 
  12 active torsions:
  status: ('A' for Active; 'I' for Inactive)
    1  A    between atoms: C_2  and  O_19
    2  A    between atoms: C_3  and  C_11
    3  A    between atoms: C_3  and  S_15
    4  A    between atoms: C_6  and  N_8
    5  A    between atoms: C_10  and  O_19
    6  A    between atoms: C_10  and  C_26
    7  A    between atoms: C_13  and  C_14
    8  A    between atoms: C_13  and  C_22
    9  A    between atoms: C_14  and  S_15
   10  A    between atoms: C_18  and  C_22
   11  A    between atoms: C_18  and  O_28
   12  A    between atoms: C_25  and  C_30
                            x       y       z     vdW  Elec       q    Type
                         _______ _______ _______ _____ _____    ______ ____

>  <TORSDO>
F 12

$$$$
=
 OpenBabel11072411143D

 30 31  0  0  1  0  0  0  0  0999 V2000
  162.9580  205.8920  152.3960 C   0  0  0  0  0  2  0  0  0  0  0  0
  161.8850  207.9010  151.3280 C   0  0  0  0  0  0  0  0  0  0  0  0
  160.8180  206.8370  153.2800 C   0  0  1  0  0  3  0  0  0  0  0  0
  162.8490  206.7630  151.1500 C   0  0  0  0  0  2  0  0  0  0  0  0
  160.9490  207.8600  152.2370 N   0  0  0  0  0  0  0  0  0  0  0  0
  161.5700  205.5410  152.9340 C   0  0  1  0  0  3  0  0  0  0  0  0
  161.2320  204.8520  150.5190 C   0  0  0  0  0  2  0  0  0  0  0  0
  160.8310  203.2010  152.3780 C   0  0  0  0  0  3  0  0  0  0  0  0
  160.5160  203.8520  149.6200 C   0  0  0  0  0  2  0  0  0  0  0  0
  160.8590  202.1970  151.4880 C   0  0  0  0  0  3  0  0  0  0  0  0
  160.9420  202.4360  150.0020 C   0  0  0  0  0  2  0  0  0  0  0  0
  160.7690  204.6560  151.9670 C   0  0  1  0  0  3  0  0  0  0  0  0
  161.9320  208.9610  150.3610 N   0  0  0  0  0  0  0  0  0  0  0  0
  161.9120  208.8760  149.0580 C   0  0  0  0  0  0  0  0  0  0  0  0
  163.0310  207.1560  147.8720 O   0  0  0  0  0  1  0  0  0  0  0  0
  160.8560  207.6870  147.2440 N   0  0  0  0  0  1  0  0  0  0  0  0
  161.7850  207.5610  148.3510 C   0  0  2  0  0  3  0  0  0  0  0  0
  161.9670  210.0350  148.2670 O   0  0  0  0  0  0  0  0  0  0  0  0
  162.1180  211.3440  148.7420 C   0  0  0  0  0  0  0  0  0  0  0  0
  163.1610  212.1240  148.2600 O   0  0  0  0  0  0  0  0  0  0  0  0
  161.3310  211.8300  149.5990 O   0  0  0  0  0  1  0  0  0  0  0  0
  161.2870  207.4120  154.6130 C   0  0  0  0  0  2  0  0  0  0  0  0
  159.9750  207.3450  155.8760 S   0  0  0  0  0  0  0  0  0  0  0  0
  160.0820  209.0870  156.2850 C   0  0  0  0  0  0  0  0  0  0  0  0
  160.8100  209.4530  157.1930 O   0  0  0  0  0  0  0  0  0  0  0  0
  159.3380  210.0900  155.4550 C   0  0  0  0  0  2  0  0  0  0  0  0
  160.2000  211.2820  155.0530 C   0  0  0  0  0  2  0  0  0  0  0  0
  160.9640  211.0260  153.7610 C   0  0  0  0  0  2  0  0  0  0  0  0
  159.7070  212.5270  152.7370 C   0  0  0  0  0  1  0  0  0  0  0  0
  160.1180  211.1970  152.6640 O   0  0  0  0  0  0  0  0  0  0  0  0
  2  5  2  0  0  0  0
  3 22  1  1  0  0  0
  4  2  1  0  0  0  0
  4  1  1  0  0  0  0
  5  3  1  0  0  0  0
  6  1  1  6  0  0  0
  6  3  1  0  0  0  0
  9 11  1  0  0  0  0
  9  7  1  0  0  0  0
 10  8  2  0  0  0  0
 11 10  1  0  0  0  0
 12  7  1  6  0  0  0
 12  8  1  0  0  0  0
 12  6  1  0  0  0  0
 13  2  1  0  0  0  0
 14 13  2  0  0  0  0
 15 17  1  0  0  0  0
 17 16  1  6  0  0  0
 17 14  1  0  0  0  0
 18 19  1  0  0  0  0
 18 14  1  0  0  0  0
 19 21  1  0  0  0  0
 20 19  2  0  0  0  0
 22 23  1  0  0  0  0
 23 24  1  0  0  0  0
 24 25  2  0  0  0  0
 26 24  1  0  0  0  0
 27 26  1  0  0  0  0
 28 27  1  0  0  0  0
 30 29  1  0  0  0  0
 30 28  1  0  0  0  0
M  END
>  <MODEL>
8

>  <REMARK>
 VINA RESULT:      -5.2      3.136      6.644
  Name = 
  12 active torsions:
  status: ('A' for Active; 'I' for Inactive)
    1  A    between atoms: C_2  and  O_19
    2  A    between atoms: C_3  and  C_11
    3  A    between atoms: C_3  and  S_15
    4  A    between atoms: C_6  and  N_8
    5  A    between atoms: C_10  and  O_19
    6  A    between atoms: C_10  and  C_26
    7  A    between atoms: C_13  and  C_14
    8  A    between atoms: C_13  and  C_22
    9  A    between atoms: C_14  and  S_15
   10  A    between atoms: C_18  and  C_22
   11  A    between atoms: C_18  and  O_28
   12  A    between atoms: C_25  and  C_30
                            x       y       z     vdW  Elec       q    Type
                         _______ _______ _______ _____ _____    ______ ____

>  <TORSDO>
F 12

$$$$
=
 OpenBabel11072411143D

 30 31  0  0  1  0  0  0  0  0999 V2000
  162.9600  206.2230  151.6900 C   0  0  0  0  0  2  0  0  0  0  0  0
  161.7340  208.3700  151.2340 C   0  0  0  0  0  0  0  0  0  0  0  0
  160.7910  206.7390  152.8250 C   0  0  1  0  0  3  0  0  0  0  0  0
  162.7610  207.3940  150.7360 C   0  0  0  0  0  2  0  0  0  0  0  0
  160.8290  208.0170  152.1050 N   0  0  0  0  0  0  0  0  0  0  0  0
  161.6120  205.6430  152.1240 C   0  0  1  0  0  3  0  0  0  0  0  0
  161.5370  205.2720  149.6180 C   0  0  0  0  0  2  0  0  0  0  0  0
  160.6200  203.5280  151.1880 C   0  0  0  0  0  3  0  0  0  0  0  0
  160.8200  204.5030  148.5160 C   0  0  0  0  0  2  0  0  0  0  0  0
  160.6290  202.6310  150.1900 C   0  0  0  0  0  3  0  0  0  0  0  0
  160.9660  203.0040  148.7690 C   0  0  0  0  0  2  0  0  0  0  0  0
  160.8400  205.0080  150.9580 C   0  0  1  0  0  3  0  0  0  0  0  0
  161.6870  209.6580  150.5980 N   0  0  0  0  0  0  0  0  0  0  0  0
  161.2510  210.7890  151.0820 C   0  0  0  0  0  0  0  0  0  0  0  0
  160.1480  212.1550  152.6750 O   0  0  0  0  0  1  0  0  0  0  0  0
  161.8410  210.7460  153.4210 N   0  0  0  0  0  1  0  0  0  0  0  0
  160.7420  210.9070  152.4860 C   0  0  2  0  0  3  0  0  0  0  0  0
  161.2830  211.9580  150.3040 O   0  0  0  0  0  0  0  0  0  0  0  0
  161.6330  212.0290  148.9490 C   0  0  0  0  0  0  0  0  0  0  0  0
  162.9740  211.9830  148.5930 O   0  0  0  0  0  1  0  0  0  0  0  0
  160.7600  212.1370  148.0460 O   0  0  0  0  0  0  0  0  0  0  0  0
  161.2630  206.9530  154.2590 C   0  0  0  0  0  2  0  0  0  0  0  0
  159.8730  207.3260  155.3780 S   0  0  0  0  0  0  0  0  0  0  0  0
  160.7140  208.6770  156.2040 C   0  0  0  0  0  0  0  0  0  0  0  0
  161.9340  208.7080  156.2280 O   0  0  0  0  0  0  0  0  0  0  0  0
  159.9130  209.8010  156.7890 C   0  0  0  0  0  2  0  0  0  0  0  0
  159.0210  210.4900  155.7620 C   0  0  0  0  0  2  0  0  0  0  0  0
  158.8550  211.9750  156.0530 C   0  0  0  0  0  2  0  0  0  0  0  0
  157.1290  211.4450  154.7780 C   0  0  0  0  0  1  0  0  0  0  0  0
  157.9050  212.5270  155.1930 O   0  0  0  0  0  0  0  0  0  0  0  0
  2  5  2  0  0  0  0
  3 22  1  1  0  0  0
  4  2  1  0  0  0  0
  4  1  1  0  0  0  0
  5  3  1  0  0  0  0
  6  1  1  6  0  0  0
  6  3  1  0  0  0  0
  9 11  1  0  0  0  0
  9  7  1  0  0  0  0
 10  8  2  0  0  0  0
 11 10  1  0  0  0  0
 12  7  1  6  0  0  0
 12  8  1  0  0  0  0
 12  6  1  0  0  0  0
 13 14  2  0  0  0  0
 13  2  1  0  0  0  0
 14 17  1  0  0  0  0
 17 15  1  6  0  0  0
 17 16  1  0  0  0  0
 18 14  1  0  0  0  0
 19 18  1  0  0  0  0
 20 19  1  0  0  0  0
 21 19  2  0  0  0  0
 22 23  1  0  0  0  0
 23 24  1  0  0  0  0
 24 25  2  0  0  0  0
 24 26  1  0  0  0  0
 27 28  1  0  0  0  0
 27 26  1  0  0  0  0
 29 30  1  0  0  0  0
 30 28  1  0  0  0  0
M  END
>  <MODEL>
9

>  <REMARK>
 VINA RESULT:      -5.2      4.308      7.789
  Name = 
  12 active torsions:
  status: ('A' for Active; 'I' for Inactive)
    1  A    between atoms: C_2  and  O_19
    2  A    between atoms: C_3  and  C_11
    3  A    between atoms: C_3  and  S_15
    4  A    between atoms: C_6  and  N_8
    5  A    between atoms: C_10  and  O_19
    6  A    between atoms: C_10  and  C_26
    7  A    between atoms: C_13  and  C_14
    8  A    between atoms: C_13  and  C_22
    9  A    between atoms: C_14  and  S_15
   10  A    between atoms: C_18  and  C_22
   11  A    between atoms: C_18  and  O_28
   12  A    between atoms: C_25  and  C_30
                            x       y       z     vdW  Elec       q    Type
                         _______ _______ _______ _____ _____    ______ ____

>  <TORSDO>
F 12

$$$$
