=
 OpenBabel11072414553D

 57 64  0  0  1  0  0  0  0  0999 V2000
  157.4570  213.2420  150.1630 C   0  0  0  0  0  2  0  0  0  0  0  0
  159.3850  214.4530  148.9740 C   0  0  0  0  0  2  0  0  0  0  0  0
  155.4140  214.4530  152.9960 N   0  0  0  0  0  0  0  0  0  0  0  0
  158.1360  211.8280  152.8990 C   0  0  0  0  0  2  0  0  0  0  0  0
  160.2810  211.6100  151.0220 N   0  0  0  0  0  2  0  0  0  0  0  0
  161.1110  209.1660  153.7750 C   0  0  1  0  0  3  0  0  0  0  0  0
  157.4270  213.0770  153.4100 C   0  0  2  0  0  3  0  0  0  0  0  0
  160.5150  211.1290  152.3820 C   0  0  2  0  0  3  0  0  0  0  0  0
  157.9390  213.9400  148.9010 C   0  0  1  0  0  3  0  0  0  0  0  0
  160.9050  213.8040  151.5180 O   0  0  0  0  0  0  0  0  0  0  0  0
  160.4830  213.4020  149.2090 C   0  0  1  0  0  3  0  0  0  0  0  0
  160.4730  209.6140  152.4540 C   0  0  0  0  0  2  0  0  0  0  0  0
  159.4710  211.9300  155.8150 O   0  0  0  0  0  1  0  0  0  0  0  0
  154.8890  214.1730  154.1390 C   0  0  0  0  0  3  0  0  0  0  0  0
  157.0360  214.2680  151.2010 C   0  0  0  0  0  2  0  0  0  0  0  0
  156.8310  212.8170  154.8130 C   0  0  0  0  0  2  0  0  0  0  0  0
  156.3830  213.5660  152.3810 C   0  0  2  0  0  3  0  0  0  0  0  0
  155.3070  212.9310  154.8620 C   0  0  0  0  0  2  0  0  0  0  0  0
  160.5640  212.9620  150.6450 C   0  0  0  0  0  0  0  0  0  0  0  0
  160.7470  210.0420  154.9920 C   0  0  2  0  0  3  0  0  0  0  0  0
  159.5820  211.0240  154.7620 C   0  0  2  0  0  3  0  0  0  0  0  0
  159.5690  211.7640  153.4150 C   0  0  2  0  0  3  0  0  0  0  0  0
  157.0280  212.0580  147.7150 O   0  0  0  0  0  0  0  0  0  0  0  0
  158.0480  213.6890  146.3970 N   0  0  0  0  0  2  0  0  0  0  0  0
  157.6500  213.1570  147.6570 C   0  0  0  0  0  0  0  0  0  0  0  0
  157.7970  212.9830  145.1500 C   0  0  0  0  0  2  0  0  0  0  0  0
  159.0740  212.9030  144.3390 C   0  0  0  0  0  2  0  0  0  0  0  0
  158.8890  213.5170  143.0900 O   0  0  0  0  0  0  0  0  0  0  0  0
  159.2580  212.8640  140.7330 C   0  0  0  0  0  2  0  0  0  0  0  0
  160.4030  213.7760  141.1630 C   0  0  2  0  0  3  0  0  0  0  0  0
  160.7350  211.8260  142.6050 C   0  0  0  0  0  2  0  0  0  0  0  0
  161.6850  213.1620  140.8350 N   0  0  0  0  0  2  0  0  0  0  0  0
  162.0270  212.2730  141.9440 C   0  0  0  0  0  2  0  0  0  0  0  0
  159.7360  212.8690  142.1680 C   0  0  1  0  0  0  0  0  0  0  0  0
  162.2120  210.7830  155.8130 S   0  0  0  0  0  0  0  0  0  0  0  0
  162.7050  209.3030  156.7450 C   0  0  0  0  0  1  0  0  0  0  0  0
  160.3870  212.3330  148.3000 O   0  0  0  0  0  0  0  0  0  0  0  0
  161.7010  212.0330  147.8990 C   0  0  0  0  0  2  0  0  0  0  0  0
  163.0690  212.5990  145.8060 C   0  0  0  0  0  3  0  0  0  0  0  0
  162.1380  212.9140  146.7700 C   0  0  1  0  0  3  0  0  0  0  0  0
  162.0850  214.4510  145.2990 N   0  0  0  0  0  0  0  0  0  0  0  0
  163.0160  213.5960  144.9020 N   0  0  0  0  0  0  0  0  0  0  0  0
  161.5250  214.0610  146.4310 N   0  0  0  0  0  0  0  0  0  0  0  0
  160.8820  207.6860  154.0550 C   0  0  0  0  0  2  0  0  0  0  0  0
  161.8160  206.7950  153.2410 C   0  0  0  0  0  2  0  0  0  0  0  0
  161.2170  206.5790  151.8630 C   0  0  0  0  0  2  0  0  0  0  0  0
  162.0140  205.5180  151.1250 C   0  0  0  0  0  2  0  0  0  0  0  0
  159.8690  205.3700  149.8330 C   0  0  0  0  0  2  0  0  0  0  0  0
  160.8600  204.9040  148.7770 C   0  0  2  0  0  3  0  0  0  0  0  0
  161.1160  204.6230  150.2660 C   0  0  1  0  0  0  0  0  0  0  0  0
  161.6140  207.7030  149.1460 C   0  0  0  0  0  1  0  0  0  0  0  0
  161.6870  206.3190  148.0300 S   0  0  0  0  0  0  0  0  0  0  0  0
  163.1170  206.0410  147.6610 O   0  0  0  0  0  0  0  0  0  0  0  0
  160.9410  206.6880  146.7770 O   0  0  0  0  0  0  0  0  0  0  0  0
  161.8270  202.6650  151.7190 C   0  0  0  0  0  2  0  0  0  0  0  0
  160.5530  203.2450  152.2830 C   0  0  0  0  0  2  0  0  0  0  0  0
  160.7630  203.2200  150.7780 C   0  0  0  0  0  3  0  0  0  0  0  0
  1 15  1  0  0  0  0
  2 11  1  0  0  0  0
  3 14  2  0  0  0  0
  5  8  1  0  0  0  0
  6 44  1  1  0  0  0
  6 20  1  0  0  0  0
  7  4  1  6  0  0  0
  7 16  1  0  0  0  0
  8 12  1  6  0  0  0
  8 22  1  0  0  0  0
  9 25  1  6  0  0  0
  9  2  1  0  0  0  0
  9  1  1  0  0  0  0
 11 37  1  6  0  0  0
 11 19  1  0  0  0  0
 12  6  1  0  0  0  0
 14 18  1  0  0  0  0
 16 18  1  0  0  0  0
 17 15  1  6  0  0  0
 17  3  1  0  0  0  0
 17  7  1  0  0  0  0
 19  5  1  0  0  0  0
 19 10  2  0  0  0  0
 20 35  1  6  0  0  0
 21 20  1  0  0  0  0
 21 13  1  1  0  0  0
 22  4  1  6  0  0  0
 22 21  1  0  0  0  0
 24 25  1  0  0  0  0
 25 23  2  0  0  0  0
 26 24  1  0  0  0  0
 27 26  1  0  0  0  0
 28 27  1  0  0  0  0
 29 34  1  0  0  0  0
 30 29  1  6  0  0  0
 30 34  1  0  0  0  0
 32 30  1  0  0  0  0
 32 33  1  0  0  0  0
 33 31  1  0  0  0  0
 34 31  1  0  0  0  0
 34 28  1  1  0  0  0
 35 36  1  0  0  0  0
 38 37  1  0  0  0  0
 39 40  1  0  0  0  0
 40 38  1  6  0  0  0
 41 43  2  0  0  0  0
 42 41  1  0  0  0  0
 42 39  2  0  0  0  0
 43 40  1  0  0  0  0
 45 44  1  0  0  0  0
 46 45  1  0  0  0  0
 47 46  1  0  0  0  0
 48 50  1  0  0  0  0
 49 52  1  1  0  0  0
 49 48  1  0  0  0  0
 49 50  1  0  0  0  0
 50 57  1  0  0  0  0
 50 47  1  1  0  0  0
 52 51  1  0  0  0  0
 53 52  2  0  0  0  0
 54 52  2  0  0  0  0
 55 56  1  0  0  0  0
 57 55  1  0  0  0  0
 57 56  1  0  0  0  0
M  END
>  <MODEL>
1

>  <REMARK>
 VINA RESULT:      -5.5      0.000      0.000
  Name = 
  16 active torsions:
  status: ('A' for Active; 'I' for Inactive)
    1  A    between atoms: C_4  and  C_7
    2  A    between atoms: C_4  and  C_54
    3  A    between atoms: S_6  and  C_47
    4  A    between atoms: C_7  and  C_18
    5  A    between atoms: S_8  and  C_31
    6  A    between atoms: C_16  and  C_51
    7  A    between atoms: C_17  and  C_52
    8  A    between atoms: C_17  and  C_54
    9  A    between atoms: N_22  and  C_37
   10  A    between atoms: C_23  and  C_32
   11  A    between atoms: O_25  and  C_27
   12  A    between atoms: O_25  and  C_51
   13  A    between atoms: C_37  and  C_49
   14  A    between atoms: O_45  and  C_49
   15  A    between atoms: O_45  and  C_50
   16  A    between atoms: C_52  and  C_55
                            x       y       z     vdW  Elec       q    Type
                         _______ _______ _______ _____ _____    ______ ____

>  <TORSDO>
F 16

$$$$
