=
 OpenBabel11072413393D

 59 65  0  0  1  0  0  0  0  0999 V2000
  161.2130  211.6770  152.6380 O   0  0  0  0  0  0  0  0  0  0  0  0
  160.3310  207.2530  156.4210 C   0  0  2  0  0  3  0  0  0  0  0  0
  158.9130  211.5380  154.5340 C   0  0  0  0  0  0  0  0  0  0  0  0
  163.2310  205.8030  147.6950 C   0  0  0  0  0  1  0  0  0  0  0  0
  159.0960  210.1020  154.1210 C   0  0  2  0  0  3  0  0  0  0  0  0
  157.0820  214.4520  155.9620 C   0  0  0  0  0  1  0  0  0  0  0  0
  161.6350  208.1370  148.7110 C   0  0  0  0  0  3  0  0  0  0  0  0
  162.6670  205.8390  152.2200 O   0  0  0  0  0  0  0  0  0  0  0  0
  160.4420  209.1000  152.1110 C   0  0  0  0  0  2  0  0  0  0  0  0
  161.2160  207.9660  157.2340 O   0  0  0  0  0  1  0  0  0  0  0  0
  162.2550  204.6910  151.5430 C   0  0  0  0  0  0  0  0  0  0  0  0
  160.0810  209.3520  155.0070 C   0  0  0  0  0  2  0  0  0  0  0  0
  159.6400  208.9240  149.8110 O   0  0  0  0  0  0  0  0  0  0  0  0
  159.7370  212.5810  154.3760 C   0  0  0  0  0  0  0  0  0  0  0  0
  162.2280  203.5710  152.1250 O   0  0  0  0  0  0  0  0  0  0  0  0
  160.2740  204.1320  147.8960 C   0  0  0  0  0  2  0  0  0  0  0  0
  159.1170  209.6920  152.6180 C   0  0  2  0  0  3  0  0  0  0  0  0
  160.3490  208.2640  150.8400 C   0  0  1  0  0  3  0  0  0  0  0  0
  161.1010  206.9900  148.2760 C   0  0  0  0  0  3  0  0  0  0  0  0
  159.1510  213.7680  154.8810 N   0  0  0  0  0  0  0  0  0  0  0  0
  161.3470  203.4990  149.2320 P   0  0  2  0  0  0  0  0  0  0  0  0
  161.5320  206.6910  154.1450 C   0  0  1  0  0  3  0  0  0  0  0  0
  161.0050  204.9310  146.8040 C   0  0  1  0  0  3  0  0  0  0  0  0
  161.0610  212.6390  153.6530 C   0  0  0  0  0  2  0  0  0  0  0  0
  160.4380  212.0060  151.4960 C   0  0  1  0  0  3  0  0  0  0  0  0
  161.8090  204.8250  150.2270 O   0  0  0  0  0  0  0  0  0  0  0  0
  157.9920  213.4530  155.3480 C   0  0  0  0  0  0  0  0  0  0  0  0
  158.4540  210.5280  151.6780 O   0  0  0  0  0  0  0  0  0  0  0  0
  161.8420  205.2670  156.1620 F   0  0  0  0  0  0  0  0  0  0  0  0
  161.8170  206.1640  147.2460 C   0  0  2  0  0  3  0  0  0  0  0  0
  158.9220  211.8650  151.6720 C   0  0  0  0  0  2  0  0  0  0  0  0
  161.7540  204.0850  145.9820 O   0  0  0  0  0  1  0  0  0  0  0  0
  162.5660  202.8270  148.6470 O   0  0  0  0  0  0  0  0  0  0  0  0
  160.3460  205.7460  154.3220 C   0  0  0  0  0  2  0  0  0  0  0  0
  157.6760  212.0050  155.2200 C   0  0  0  0  0  2  0  0  0  0  0  0
  161.0970  206.2540  155.5350 C   0  0  1  0  0  0  0  0  0  0  0  0
  160.4670  202.3650  150.1310 O   0  0  0  0  0  1  0  0  0  0  0  0
  159.3640  208.1960  155.6920 C   0  0  0  0  0  2  0  0  0  0  0  0
  161.0410  209.0280  149.7690 C   0  0  1  0  0  3  0  0  0  0  0  0
  162.7310  205.9070  153.6380 C   0  0  0  0  0  2  0  0  0  0  0  0
  160.9440  213.1450  150.5870 C   0  0  1  0  0  3  0  0  0  0  0  0
  160.9430  212.8200  149.0740 C   0  0  1  0  0  3  0  0  0  0  0  0
  158.3720  213.2240  148.4750 C   0  0  1  0  0  3  0  0  0  0  0  0
  159.8600  213.4990  148.2540 C   0  0  2  0  0  3  0  0  0  0  0  0
  160.3050  213.3910  146.8050 C   0  0  2  0  0  0  0  0  0  0  0  0
  161.7930  213.7140  146.9350 C   0  0  1  0  0  3  0  0  0  0  0  0
  158.0220  214.2190  146.1520 C   0  0  0  0  0  2  0  0  0  0  0  0
  162.2320  213.2460  148.3300 C   0  0  1  0  0  3  0  0  0  0  0  0
  159.5370  214.4530  146.0170 C   0  0  0  0  0  2  0  0  0  0  0  0
  157.5730  214.2200  147.6230 C   0  0  0  0  0  2  0  0  0  0  0  0
  162.8670  214.3170  148.9650 O   0  0  0  0  0  1  0  0  0  0  0  0
  158.0270  211.9200  148.1510 F   0  0  0  0  0  0  0  0  0  0  0  0
  162.6730  213.2290  145.8170 C   0  0  0  0  0  0  0  0  0  0  0  0
  162.4300  213.5460  144.6220 O   0  0  0  0  0  0  0  0  0  0  0  0
  163.8120  212.4330  146.1170 N   0  0  0  0  0  1  0  0  0  0  0  0
  159.7740  212.0790  144.8020 O   0  0  0  0  0  1  0  0  0  0  0  0
  160.0410  212.0000  146.1730 C   0  0  0  0  0  2  0  0  0  0  0  0
  160.2310  214.4530  150.9460 C   0  0  0  0  0  2  0  0  0  0  0  0
  158.7740  214.2380  151.3250 C   0  0  0  0  0  1  0  0  0  0  0  0
  1 24  1  0  0  0  0
  2 10  1  6  0  0  0
  3 35  1  0  0  0  0
  5  3  1  0  0  0  0
  5 12  1  6  0  0  0
  8 40  1  0  0  0  0
 11 15  2  0  0  0  0
 11  8  1  0  0  0  0
 12 38  1  0  0  0  0
 13 18  1  0  0  0  0
 14  3  2  0  0  0  0
 14 20  1  0  0  0  0
 16 21  1  0  0  0  0
 17  9  1  6  0  0  0
 17  5  1  0  0  0  0
 18  9  1  1  0  0  0
 19  7  2  0  0  0  0
 20 27  2  0  0  0  0
 21 33  2  6  0  0  0
 21 37  1  0  0  0  0
 21 26  1  0  0  0  0
 22 40  1  6  0  0  0
 22 34  1  0  0  0  0
 22 36  1  0  0  0  0
 23 32  1  1  0  0  0
 23 30  1  0  0  0  0
 23 16  1  0  0  0  0
 24 14  1  0  0  0  0
 25 41  1  1  0  0  0
 25 31  1  0  0  0  0
 25  1  1  0  0  0  0
 26 11  1  0  0  0  0
 27  6  1  0  0  0  0
 28 17  1  0  0  0  0
 30  4  1  1  0  0  0
 30 19  1  0  0  0  0
 31 28  1  0  0  0  0
 34 36  1  0  0  0  0
 35 27  1  0  0  0  0
 36 29  1  1  0  0  0
 36  2  1  0  0  0  0
 38  2  1  0  0  0  0
 39  7  1  6  0  0  0
 39 13  1  0  0  0  0
 39 18  1  0  0  0  0
 41 58  1  6  0  0  0
 42 41  1  1  0  0  0
 43 52  1  6  0  0  0
 44 43  1  0  0  0  0
 44 42  1  0  0  0  0
 45 46  1  0  0  0  0
 45 44  1  0  0  0  0
 46 48  1  0  0  0  0
 47 50  1  0  0  0  0
 48 51  1  0  0  0  0
 48 42  1  0  0  0  0
 49 47  1  0  0  0  0
 49 45  1  0  0  0  0
 50 43  1  0  0  0  0
 53 55  1  0  0  0  0
 53 46  1  0  0  0  0
 54 53  2  0  0  0  0
 56 57  1  0  0  0  0
 57 45  1  0  0  0  0
 58 59  1  0  0  0  0
M  END
>  <MODEL>
1

>  <REMARK>
 VINA RESULT:      18.8      0.000      0.000
  Name = 
  5 active torsions:
  status: ('A' for Active; 'I' for Inactive)
    1  A    between atoms: C_3  and  C_55
    2  A    between atoms: C_9  and  C_47
    3  A    between atoms: C_23  and  C_55
    4  A    between atoms: C_24  and  C_29
    5  A    between atoms: C_38  and  C_55
                            x       y       z     vdW  Elec       q    Type
                         _______ _______ _______ _____ _____    ______ ____

>  <TORSDO>
F 5

$$$$
