=
 OpenBabel11072410223D

 33 36  0  0  1  0  0  0  0  0999 V2000
  160.7160  210.4210  153.0610 C   0  0  1  0  0  3  0  0  0  0  0  0
  159.1210  211.5980  154.6070 C   0  0  1  0  0  3  0  0  0  0  0  0
  158.7520  213.0080  154.5830 C   0  0  0  0  0  0  0  0  0  0  0  0
  157.8240  210.9460  155.0640 C   0  0  0  0  0  2  0  0  0  0  0  0
  159.0080  213.6250  153.4840 N   0  0  0  0  0  0  0  0  0  0  0  0
  157.0770  212.0440  155.8420 C   0  0  1  0  0  3  0  0  0  0  0  0
  159.4880  211.3350  153.1540 C   0  0  1  0  0  3  0  0  0  0  0  0
  157.3560  211.9080  157.2610 N   0  0  0  0  0  1  0  0  0  0  0  0
  159.7280  212.7400  152.5840 C   0  0  1  0  0  3  0  0  0  0  0  0
  157.6160  213.3090  155.3620 N   0  0  0  0  0  2  0  0  0  0  0  0
  159.1520  212.8420  151.1810 C   0  0  0  0  0  2  0  0  0  0  0  0
  160.2060  213.2530  150.2130 C   0  0  0  0  0  0  0  0  0  0  0  0
  160.2890  214.4530  149.8460 O   0  0  0  0  0  1  0  0  0  0  0  0
  161.1170  212.3210  149.7390 O   0  0  0  0  0  0  0  0  0  0  0  0
  160.7290  208.7430  154.9100 C   0  0  0  0  0  3  0  0  0  0  0  0
  161.1930  209.9620  154.4050 C   0  0  0  0  0  0  0  0  0  0  0  0
  162.0970  209.0280  156.8870 C   0  0  0  0  0  3  0  0  0  0  0  0
  162.1210  210.7120  155.1470 C   0  0  0  0  0  3  0  0  0  0  0  0
  161.1780  208.2770  156.1490 C   0  0  0  0  0  3  0  0  0  0  0  0
  162.5690  210.2450  156.3860 C   0  0  0  0  0  3  0  0  0  0  0  0
  160.5540  209.2720  152.0670 C   0  0  0  0  0  2  0  0  0  0  0  0
  162.1570  208.8610  151.3110 S   0  0  0  0  0  0  0  0  0  0  0  0
  160.9940  204.9650  150.6200 C   0  0  0  0  0  0  0  0  0  0  0  0
  161.1130  207.4080  149.2310 C   0  0  0  0  0  3  0  0  0  0  0  0
  161.4570  206.1360  151.2790 C   0  0  0  0  0  0  0  0  0  0  0  0
  161.5280  207.3530  150.5640 C   0  0  0  0  0  0  0  0  0  0  0  0
  160.2450  206.3280  147.2980 F   0  0  0  0  0  0  0  0  0  0  0  0
  160.6420  206.2660  148.5920 C   0  0  0  0  0  0  0  0  0  0  0  0
  161.9300  206.1220  152.9820 Cl  0  0  0  0  0  0  0  0  0  0  0  0
  160.5900  205.0560  149.2800 C   0  0  0  0  0  3  0  0  0  0  0  0
  160.9210  203.6260  151.2550 C   0  0  0  0  0  0  0  0  0  0  0  0
  161.2040  202.4900  150.5050 O   0  0  0  0  0  0  0  0  0  0  0  0
  160.6210  203.4860  152.4690 O   0  0  0  0  0  1  0  0  0  0  0  0
  1 21  1  6  0  0  0
  1 16  1  0  0  0  0
  2  4  1  6  0  0  0
  3  2  1  0  0  0  0
  3 10  1  0  0  0  0
  4  6  1  0  0  0  0
  5  3  2  0  0  0  0
  6  8  1  1  0  0  0
  7  1  1  1  0  0  0
  7  2  1  0  0  0  0
  9 11  1  6  0  0  0
  9  7  1  0  0  0  0
  9  5  1  0  0  0  0
 10  6  1  0  0  0  0
 12 11  1  0  0  0  0
 13 12  1  0  0  0  0
 14 12  2  0  0  0  0
 15 19  1  0  0  0  0
 16 15  2  0  0  0  0
 16 18  1  0  0  0  0
 18 20  2  0  0  0  0
 19 17  2  0  0  0  0
 20 17  1  0  0  0  0
 22 21  1  0  0  0  0
 23 31  1  0  0  0  0
 23 25  1  0  0  0  0
 24 26  1  0  0  0  0
 25 29  1  0  0  0  0
 26 25  2  0  0  0  0
 26 22  1  0  0  0  0
 27 28  1  0  0  0  0
 28 24  2  0  0  0  0
 28 30  1  0  0  0  0
 30 23  2  0  0  0  0
 31 33  1  0  0  0  0
 32 31  2  0  0  0  0
M  END
>  <MODEL>
1

>  <REMARK>
 VINA RESULT:      -7.5      0.000      0.000
  Name = 
  8 active torsions:
  status: ('A' for Active; 'I' for Inactive)
    1  A    between atoms: C_2  and  C_6
    2  A    between atoms: C_2  and  C_13
    3  A    between atoms: C_2  and  C_18
    4  A    between atoms: C_4  and  C_22
    5  A    between atoms: S_5  and  C_13
    6  A    between atoms: S_5  and  C_19
    7  A    between atoms: C_8  and  C_14
    8  A    between atoms: C_22  and  C_25
                            x       y       z     vdW  Elec       q    Type
                         _______ _______ _______ _____ _____    ______ ____

>  <TORSDO>
F 8

$$$$
=
 OpenBabel11072410223D

 33 36  0  0  1  0  0  0  0  0999 V2000
  160.7350  209.9880  153.9270 C   0  0  1  0  0  3  0  0  0  0  0  0
  159.2300  211.6870  152.8480 C   0  0  1  0  0  3  0  0  0  0  0  0
  157.8780  212.0500  153.2570 C   0  0  0  0  0  0  0  0  0  0  0  0
  159.7650  213.0160  152.3330 C   0  0  0  0  0  2  0  0  0  0  0  0
  157.5570  211.7130  154.4550 N   0  0  0  0  0  0  0  0  0  0  0  0
  158.5170  213.8140  151.9150 C   0  0  1  0  0  3  0  0  0  0  0  0
  159.8480  211.2170  154.1560 C   0  0  1  0  0  3  0  0  0  0  0  0
  158.2840  213.6390  150.4930 N   0  0  0  0  0  1  0  0  0  0  0  0
  158.6290  210.9320  155.0470 C   0  0  1  0  0  3  0  0  0  0  0  0
  157.4080  213.2390  152.6620 N   0  0  0  0  0  2  0  0  0  0  0  0
  158.8970  211.4050  156.4670 C   0  0  0  0  0  2  0  0  0  0  0  0
  159.7270  212.6410  156.4580 C   0  0  0  0  0  0  0  0  0  0  0  0
  160.9320  212.5930  156.8150 O   0  0  0  0  0  1  0  0  0  0  0  0
  159.1820  213.8410  156.0240 O   0  0  0  0  0  0  0  0  0  0  0  0
  159.9060  207.9510  155.1100 C   0  0  0  0  0  3  0  0  0  0  0  0
  160.7540  209.0640  155.1060 C   0  0  0  0  0  0  0  0  0  0  0  0
  160.7890  207.2730  157.2610 C   0  0  0  0  0  3  0  0  0  0  0  0
  161.6280  209.2740  156.1850 C   0  0  0  0  0  3  0  0  0  0  0  0
  159.9220  207.0580  156.1860 C   0  0  0  0  0  3  0  0  0  0  0  0
  161.6430  208.3810  157.2600 C   0  0  0  0  0  3  0  0  0  0  0  0
  160.4510  209.2610  152.6120 C   0  0  0  0  0  2  0  0  0  0  0  0
  161.9680  209.1490  151.6140 S   0  0  0  0  0  0  0  0  0  0  0  0
  161.2450  205.7640  149.3700 C   0  0  0  0  0  0  0  0  0  0  0  0
  161.3550  206.5150  152.0780 C   0  0  0  0  0  3  0  0  0  0  0  0
  161.5780  207.0990  149.7240 C   0  0  0  0  0  0  0  0  0  0  0  0
  161.6130  207.4660  151.0890 C   0  0  0  0  0  0  0  0  0  0  0  0
  160.7950  204.2880  152.6960 F   0  0  0  0  0  0  0  0  0  0  0  0
  161.0480  205.2030  151.7300 C   0  0  0  0  0  0  0  0  0  0  0  0
  161.9730  208.3170  148.5060 Cl  0  0  0  0  0  0  0  0  0  0  0  0
  160.9880  204.8360  150.3890 C   0  0  0  0  0  3  0  0  0  0  0  0
  161.1320  205.2780  147.9720 C   0  0  0  0  0  0  0  0  0  0  0  0
  161.7280  204.0750  147.6100 O   0  0  0  0  0  1  0  0  0  0  0  0
  160.4960  205.9210  147.0980 O   0  0  0  0  0  0  0  0  0  0  0  0
  1 21  1  6  0  0  0
  1 16  1  0  0  0  0
  2  4  1  1  0  0  0
  2  3  1  0  0  0  0
  2  7  1  0  0  0  0
  3  5  2  0  0  0  0
  5  9  1  0  0  0  0
  6  8  1  6  0  0  0
  6  4  1  0  0  0  0
  6 10  1  0  0  0  0
  7  1  1  6  0  0  0
  7  9  1  0  0  0  0
  9 11  1  1  0  0  0
 10  3  1  0  0  0  0
 12 11  1  0  0  0  0
 12 13  1  0  0  0  0
 14 12  2  0  0  0  0
 15 19  1  0  0  0  0
 16 15  2  0  0  0  0
 16 18  1  0  0  0  0
 18 20  2  0  0  0  0
 19 17  2  0  0  0  0
 20 17  1  0  0  0  0
 22 21  1  0  0  0  0
 23 25  2  0  0  0  0
 23 30  1  0  0  0  0
 25 26  1  0  0  0  0
 26 22  1  0  0  0  0
 26 24  2  0  0  0  0
 28 24  1  0  0  0  0
 28 27  1  0  0  0  0
 29 25  1  0  0  0  0
 30 28  2  0  0  0  0
 31 23  1  0  0  0  0
 32 31  1  0  0  0  0
 33 31  2  0  0  0  0
M  END
>  <MODEL>
2

>  <REMARK>
 VINA RESULT:      -7.4      2.637      3.701
  Name = 
  8 active torsions:
  status: ('A' for Active; 'I' for Inactive)
    1  A    between atoms: C_2  and  C_6
    2  A    between atoms: C_2  and  C_13
    3  A    between atoms: C_2  and  C_18
    4  A    between atoms: C_4  and  C_22
    5  A    between atoms: S_5  and  C_13
    6  A    between atoms: S_5  and  C_19
    7  A    between atoms: C_8  and  C_14
    8  A    between atoms: C_22  and  C_25
                            x       y       z     vdW  Elec       q    Type
                         _______ _______ _______ _____ _____    ______ ____

>  <TORSDO>
F 8

$$$$
=
 OpenBabel11072410223D

 33 36  0  0  1  0  0  0  0  0999 V2000
  161.6650  206.1670  149.1870 C   0  0  1  0  0  3  0  0  0  0  0  0
  161.4190  203.6760  149.4220 C   0  0  1  0  0  3  0  0  0  0  0  0
  161.6240  202.8820  150.6270 C   0  0  0  0  0  0  0  0  0  0  0  0
  160.2900  202.9170  148.7390 C   0  0  0  0  0  2  0  0  0  0  0  0
  161.6080  203.5420  151.7300 N   0  0  0  0  0  0  0  0  0  0  0  0
  160.4000  201.4760  149.2680 C   0  0  1  0  0  3  0  0  0  0  0  0
  161.0210  205.0300  149.9910 C   0  0  1  0  0  3  0  0  0  0  0  0
  161.1720  200.6750  148.3350 N   0  0  0  0  0  1  0  0  0  0  0  0
  161.5040  204.9630  151.4470 C   0  0  1  0  0  3  0  0  0  0  0  0
  161.1150  201.5700  150.5320 N   0  0  0  0  0  2  0  0  0  0  0  0
  160.4790  205.6050  152.3680 C   0  0  0  0  0  2  0  0  0  0  0  0
  161.1540  206.2720  153.5160 C   0  0  0  0  0  0  0  0  0  0  0  0
  162.4090  206.2880  153.5840 O   0  0  0  0  0  0  0  0  0  0  0  0
  160.4000  206.9060  154.4920 O   0  0  0  0  0  1  0  0  0  0  0  0
  160.4570  206.3360  147.0090 C   0  0  0  0  0  3  0  0  0  0  0  0
  161.5990  205.9340  147.7090 C   0  0  0  0  0  0  0  0  0  0  0  0
  161.4470  205.5750  144.9340 C   0  0  0  0  0  3  0  0  0  0  0  0
  162.6730  205.3560  147.0120 C   0  0  0  0  0  3  0  0  0  0  0  0
  160.3790  206.1550  145.6240 C   0  0  0  0  0  3  0  0  0  0  0  0
  162.5950  205.1760  145.6270 C   0  0  0  0  0  3  0  0  0  0  0  0
  161.1750  207.5580  149.5890 C   0  0  0  0  0  2  0  0  0  0  0  0
  162.4020  208.3740  150.6570 S   0  0  0  0  0  0  0  0  0  0  0  0
  160.6690  212.1130  150.4870 C   0  0  0  0  0  0  0  0  0  0  0  0
  162.3140  210.4770  148.8970 C   0  0  0  0  0  3  0  0  0  0  0  0
  161.0790  210.8390  150.9650 C   0  0  0  0  0  0  0  0  0  0  0  0
  161.8920  210.0200  150.1480 C   0  0  0  0  0  0  0  0  0  0  0  0
  162.3400  212.1660  147.2230 F   0  0  0  0  0  0  0  0  0  0  0  0
  161.9280  211.7330  148.4390 C   0  0  0  0  0  0  0  0  0  0  0  0
  160.6190  210.2510  152.5670 Cl  0  0  0  0  0  0  0  0  0  0  0  0
  161.1090  212.5380  149.2250 C   0  0  0  0  0  3  0  0  0  0  0  0
  159.7800  213.0360  151.2360 C   0  0  0  0  0  0  0  0  0  0  0  0
  158.6660  212.5350  151.8980 O   0  0  0  0  0  1  0  0  0  0  0  0
  160.0140  214.2710  151.3020 O   0  0  0  0  0  0  0  0  0  0  0  0
  1 21  1  6  0  0  0
  2  4  1  6  0  0  0
  2  7  1  0  0  0  0
  2  3  1  0  0  0  0
  3  5  2  0  0  0  0
  4  6  1  0  0  0  0
  6  8  1  6  0  0  0
  6 10  1  0  0  0  0
  7  1  1  6  0  0  0
  7  9  1  0  0  0  0
  9  5  1  0  0  0  0
  9 11  1  1  0  0  0
 10  3  1  0  0  0  0
 11 12  1  0  0  0  0
 12 13  2  0  0  0  0
 12 14  1  0  0  0  0
 15 16  1  0  0  0  0
 16  1  1  0  0  0  0
 17 19  1  0  0  0  0
 17 20  2  0  0  0  0
 18 16  2  0  0  0  0
 19 15  2  0  0  0  0
 20 18  1  0  0  0  0
 21 22  1  0  0  0  0
 23 25  1  0  0  0  0
 23 31  1  0  0  0  0
 24 26  1  0  0  0  0
 25 29  1  0  0  0  0
 26 22  1  0  0  0  0
 26 25  2  0  0  0  0
 27 28  1  0  0  0  0
 28 24  2  0  0  0  0
 28 30  1  0  0  0  0
 30 23  2  0  0  0  0
 31 33  2  0  0  0  0
 31 32  1  0  0  0  0
M  END
>  <MODEL>
3

>  <REMARK>
 VINA RESULT:      -7.3      4.536      8.893
  Name = 
  8 active torsions:
  status: ('A' for Active; 'I' for Inactive)
    1  A    between atoms: C_2  and  C_6
    2  A    between atoms: C_2  and  C_13
    3  A    between atoms: C_2  and  C_18
    4  A    between atoms: C_4  and  C_22
    5  A    between atoms: S_5  and  C_13
    6  A    between atoms: S_5  and  C_19
    7  A    between atoms: C_8  and  C_14
    8  A    between atoms: C_22  and  C_25
                            x       y       z     vdW  Elec       q    Type
                         _______ _______ _______ _____ _____    ______ ____

>  <TORSDO>
F 8

$$$$
=
 OpenBabel11072410223D

 33 36  0  0  1  0  0  0  0  0999 V2000
  161.6370  206.0720  149.2990 C   0  0  1  0  0  3  0  0  0  0  0  0
  161.3800  203.5750  149.4200 C   0  0  1  0  0  3  0  0  0  0  0  0
  161.5800  202.7260  150.5880 C   0  0  0  0  0  0  0  0  0  0  0  0
  160.2490  202.8520  148.7020 C   0  0  0  0  0  2  0  0  0  0  0  0
  161.5660  203.3350  151.7200 N   0  0  0  0  0  0  0  0  0  0  0  0
  160.3520  201.3890  149.1650 C   0  0  1  0  0  3  0  0  0  0  0  0
  160.9870  204.9030  150.0490 C   0  0  1  0  0  3  0  0  0  0  0  0
  161.1220  200.6270  148.1970 N   0  0  0  0  0  1  0  0  0  0  0  0
  161.4680  204.7680  151.5010 C   0  0  1  0  0  3  0  0  0  0  0  0
  161.0660  201.4210  150.4330 N   0  0  0  0  0  2  0  0  0  0  0  0
  160.4450  205.3720  152.4500 C   0  0  0  0  0  2  0  0  0  0  0  0
  161.1230  206.1600  153.5160 C   0  0  0  0  0  0  0  0  0  0  0  0
  162.3700  206.3130  153.4880 O   0  0  0  0  0  0  0  0  0  0  0  0
  160.3750  206.7540  154.5220 O   0  0  0  0  0  1  0  0  0  0  0  0
  162.6080  205.3450  147.1160 C   0  0  0  0  0  3  0  0  0  0  0  0
  161.5410  205.9240  147.8110 C   0  0  0  0  0  0  0  0  0  0  0  0
  161.3910  205.5720  145.0360 C   0  0  0  0  0  3  0  0  0  0  0  0
  160.3920  206.3220  147.1100 C   0  0  0  0  0  3  0  0  0  0  0  0
  162.5350  205.1700  145.7310 C   0  0  0  0  0  3  0  0  0  0  0  0
  160.3190  206.1470  145.7240 C   0  0  0  0  0  3  0  0  0  0  0  0
  161.1790  207.4460  149.7860 C   0  0  0  0  0  2  0  0  0  0  0  0
  162.5640  208.3320  150.5670 S   0  0  0  0  0  0  0  0  0  0  0  0
  160.5290  211.9010  150.9390 C   0  0  0  0  0  0  0  0  0  0  0  0
  160.8600  209.5030  152.3710 C   0  0  0  0  0  3  0  0  0  0  0  0
  161.3390  210.8610  150.4070 C   0  0  0  0  0  0  0  0  0  0  0  0
  161.5090  209.6680  151.1460 C   0  0  0  0  0  0  0  0  0  0  0  0
  159.4290  210.3470  154.0730 F   0  0  0  0  0  0  0  0  0  0  0  0
  160.0520  210.5140  152.8820 C   0  0  0  0  0  0  0  0  0  0  0  0
  162.1250  211.0050  148.8310 Cl  0  0  0  0  0  0  0  0  0  0  0  0
  159.8950  211.7030  152.1740 C   0  0  0  0  0  3  0  0  0  0  0  0
  160.3150  213.2110  150.2750 C   0  0  0  0  0  0  0  0  0  0  0  0
  160.1220  213.2640  148.9000 O   0  0  0  0  0  0  0  0  0  0  0  0
  160.2910  214.2860  150.9280 O   0  0  0  0  0  1  0  0  0  0  0  0
  1 21  1  1  0  0  0
  2  4  1  6  0  0  0
  2  7  1  0  0  0  0
  2  3  1  0  0  0  0
  3  5  2  0  0  0  0
  4  6  1  0  0  0  0
  6  8  1  6  0  0  0
  6 10  1  0  0  0  0
  7  1  1  6  0  0  0
  7  9  1  0  0  0  0
  9  5  1  0  0  0  0
  9 11  1  1  0  0  0
 10  3  1  0  0  0  0
 11 12  1  0  0  0  0
 12 14  1  0  0  0  0
 13 12  2  0  0  0  0
 15 16  1  0  0  0  0
 16  1  1  0  0  0  0
 17 20  2  0  0  0  0
 17 19  1  0  0  0  0
 18 16  2  0  0  0  0
 19 15  2  0  0  0  0
 20 18  1  0  0  0  0
 21 22  1  0  0  0  0
 22 26  1  0  0  0  0
 23 30  1  0  0  0  0
 24 28  1  0  0  0  0
 25 23  2  0  0  0  0
 25 26  1  0  0  0  0
 26 24  2  0  0  0  0
 28 27  1  0  0  0  0
 29 25  1  0  0  0  0
 30 28  2  0  0  0  0
 31 33  1  0  0  0  0
 31 23  1  0  0  0  0
 32 31  2  0  0  0  0
M  END
>  <MODEL>
4

>  <REMARK>
 VINA RESULT:      -7.2      4.618      9.039
  Name = 
  8 active torsions:
  status: ('A' for Active; 'I' for Inactive)
    1  A    between atoms: C_2  and  C_6
    2  A    between atoms: C_2  and  C_13
    3  A    between atoms: C_2  and  C_18
    4  A    between atoms: C_4  and  C_22
    5  A    between atoms: S_5  and  C_13
    6  A    between atoms: S_5  and  C_19
    7  A    between atoms: C_8  and  C_14
    8  A    between atoms: C_22  and  C_25
                            x       y       z     vdW  Elec       q    Type
                         _______ _______ _______ _____ _____    ______ ____

>  <TORSDO>
F 8

$$$$
=
 OpenBabel11072410223D

 33 36  0  0  1  0  0  0  0  0999 V2000
  161.0200  210.0510  153.5440 C   0  0  1  0  0  3  0  0  0  0  0  0
  159.5780  211.6990  152.3090 C   0  0  1  0  0  3  0  0  0  0  0  0
  158.2580  212.1780  152.7000 C   0  0  0  0  0  0  0  0  0  0  0  0
  160.1690  212.9310  151.6370 C   0  0  0  0  0  2  0  0  0  0  0  0
  157.9500  211.9960  153.9350 N   0  0  0  0  0  0  0  0  0  0  0  0
  158.9540  213.7440  151.1560 C   0  0  1  0  0  3  0  0  0  0  0  0
  160.2040  211.3450  153.6500 C   0  0  1  0  0  3  0  0  0  0  0  0
  158.6760  213.4230  149.7670 N   0  0  0  0  0  1  0  0  0  0  0  0
  158.9950  211.2280  154.5900 C   0  0  1  0  0  3  0  0  0  0  0  0
  157.8350  213.3170  151.9840 N   0  0  0  0  0  2  0  0  0  0  0  0
  159.3230  211.8420  155.9420 C   0  0  0  0  0  2  0  0  0  0  0  0
  158.0950  212.3970  156.5750 C   0  0  0  0  0  0  0  0  0  0  0  0
  157.2090  211.6220  157.0160 O   0  0  0  0  0  1  0  0  0  0  0  0
  157.9420  213.7690  156.7090 O   0  0  0  0  0  0  0  0  0  0  0  0
  161.9280  209.5610  155.8180 C   0  0  0  0  0  3  0  0  0  0  0  0
  161.0030  209.2550  154.8130 C   0  0  0  0  0  0  0  0  0  0  0  0
  160.9790  207.8370  157.2290 C   0  0  0  0  0  3  0  0  0  0  0  0
  160.0590  208.2380  155.0260 C   0  0  0  0  0  3  0  0  0  0  0  0
  161.9170  208.8520  157.0230 C   0  0  0  0  0  3  0  0  0  0  0  0
  160.0490  207.5300  156.2310 C   0  0  0  0  0  3  0  0  0  0  0  0
  160.6810  209.2090  152.3150 C   0  0  0  0  0  2  0  0  0  0  0  0
  162.1770  208.9060  151.3250 S   0  0  0  0  0  0  0  0  0  0  0  0
  161.0050  204.9970  150.7290 C   0  0  0  0  0  0  0  0  0  0  0  0
  161.0480  207.4250  149.3100 C   0  0  0  0  0  3  0  0  0  0  0  0
  161.4910  206.1770  151.3540 C   0  0  0  0  0  0  0  0  0  0  0  0
  161.5220  207.3870  150.6230 C   0  0  0  0  0  0  0  0  0  0  0  0
  160.1000  206.3190  147.4300 F   0  0  0  0  0  0  0  0  0  0  0  0
  160.5540  206.2730  148.7050 C   0  0  0  0  0  0  0  0  0  0  0  0
  162.0400  206.1840  153.0340 Cl  0  0  0  0  0  0  0  0  0  0  0  0
  160.5400  205.0720  149.4080 C   0  0  0  0  0  3  0  0  0  0  0  0
  160.9680  203.6650  151.3810 C   0  0  0  0  0  0  0  0  0  0  0  0
  161.3810  202.5400  150.6770 O   0  0  0  0  0  0  0  0  0  0  0  0
  160.5810  203.5220  152.5700 O   0  0  0  0  0  1  0  0  0  0  0  0
  1 21  1  6  0  0  0
  1 16  1  0  0  0  0
  2  4  1  1  0  0  0
  2  3  1  0  0  0  0
  2  7  1  0  0  0  0
  3  5  2  0  0  0  0
  5  9  1  0  0  0  0
  6  8  1  6  0  0  0
  6  4  1  0  0  0  0
  6 10  1  0  0  0  0
  7  1  1  6  0  0  0
  7  9  1  0  0  0  0
  9 11  1  1  0  0  0
 10  3  1  0  0  0  0
 11 12  1  0  0  0  0
 12 14  2  0  0  0  0
 12 13  1  0  0  0  0
 15 19  1  0  0  0  0
 16 18  1  0  0  0  0
 16 15  2  0  0  0  0
 18 20  2  0  0  0  0
 19 17  2  0  0  0  0
 20 17  1  0  0  0  0
 22 21  1  0  0  0  0
 23 25  1  0  0  0  0
 23 31  1  0  0  0  0
 24 26  1  0  0  0  0
 25 29  1  0  0  0  0
 26 22  1  0  0  0  0
 26 25  2  0  0  0  0
 27 28  1  0  0  0  0
 28 24  2  0  0  0  0
 28 30  1  0  0  0  0
 30 23  2  0  0  0  0
 31 33  1  0  0  0  0
 32 31  2  0  0  0  0
M  END
>  <MODEL>
5

>  <REMARK>
 VINA RESULT:      -7.2      2.198      3.370
  Name = 
  8 active torsions:
  status: ('A' for Active; 'I' for Inactive)
    1  A    between atoms: C_2  and  C_6
    2  A    between atoms: C_2  and  C_13
    3  A    between atoms: C_2  and  C_18
    4  A    between atoms: C_4  and  C_22
    5  A    between atoms: S_5  and  C_13
    6  A    between atoms: S_5  and  C_19
    7  A    between atoms: C_8  and  C_14
    8  A    between atoms: C_22  and  C_25
                            x       y       z     vdW  Elec       q    Type
                         _______ _______ _______ _____ _____    ______ ____

>  <TORSDO>
F 8

$$$$
=
 OpenBabel11072410223D

 33 36  0  0  1  0  0  0  0  0999 V2000
  160.5350  210.5030  153.0810 C   0  0  1  0  0  3  0  0  0  0  0  0
  158.8740  211.6200  154.6020 C   0  0  1  0  0  3  0  0  0  0  0  0
  158.4140  213.0020  154.5390 C   0  0  0  0  0  0  0  0  0  0  0  0
  157.6240  210.9000  155.0870 C   0  0  0  0  0  2  0  0  0  0  0  0
  158.6250  213.6010  153.4210 N   0  0  0  0  0  0  0  0  0  0  0  0
  156.8110  211.9700  155.8370 C   0  0  1  0  0  3  0  0  0  0  0  0
  159.2500  211.3370  153.1550 C   0  0  1  0  0  3  0  0  0  0  0  0
  157.1060  211.8950  157.2570 N   0  0  0  0  0  1  0  0  0  0  0  0
  159.3960  212.7380  152.5430 C   0  0  1  0  0  3  0  0  0  0  0  0
  157.2640  213.2510  155.3160 N   0  0  0  0  0  2  0  0  0  0  0  0
  158.8080  212.7600  151.1410 C   0  0  0  0  0  2  0  0  0  0  0  0
  159.5880  213.6750  150.2620 C   0  0  0  0  0  0  0  0  0  0  0  0
  160.5080  214.3800  150.7480 O   0  0  0  0  0  1  0  0  0  0  0  0
  159.3210  213.7260  148.9020 O   0  0  0  0  0  0  0  0  0  0  0  0
  160.4860  208.7250  154.8340 C   0  0  0  0  0  3  0  0  0  0  0  0
  160.9550  209.9760  154.4190 C   0  0  0  0  0  0  0  0  0  0  0  0
  161.7560  208.9170  156.8870 C   0  0  0  0  0  3  0  0  0  0  0  0
  161.8360  210.6950  155.2440 C   0  0  0  0  0  3  0  0  0  0  0  0
  160.8830  208.1970  156.0660 C   0  0  0  0  0  3  0  0  0  0  0  0
  162.2330  210.1660  156.4760 C   0  0  0  0  0  3  0  0  0  0  0  0
  160.5040  209.4210  152.0030 C   0  0  0  0  0  2  0  0  0  0  0  0
  162.1850  209.0930  151.3900 S   0  0  0  0  0  0  0  0  0  0  0  0
  161.4140  205.6230  149.2990 C   0  0  0  0  0  0  0  0  0  0  0  0
  161.4920  206.5020  151.9690 C   0  0  0  0  0  3  0  0  0  0  0  0
  161.7760  206.9640  149.5950 C   0  0  0  0  0  0  0  0  0  0  0  0
  161.7950  207.3970  150.9400 C   0  0  0  0  0  0  0  0  0  0  0  0
  160.8600  204.3230  152.6830 F   0  0  0  0  0  0  0  0  0  0  0  0
  161.1560  205.1830  151.6790 C   0  0  0  0  0  0  0  0  0  0  0  0
  162.2280  208.1100  148.3270 Cl  0  0  0  0  0  0  0  0  0  0  0  0
  161.1120  204.7530  150.3560 C   0  0  0  0  0  3  0  0  0  0  0  0
  161.3150  205.0710  147.9240 C   0  0  0  0  0  0  0  0  0  0  0  0
  160.5590  205.7370  146.9670 O   0  0  0  0  0  0  0  0  0  0  0  0
  161.9130  204.0150  147.5920 O   0  0  0  0  0  1  0  0  0  0  0  0
  1 21  1  6  0  0  0
  1 16  1  0  0  0  0
  2  4  1  6  0  0  0
  3  2  1  0  0  0  0
  3 10  1  0  0  0  0
  4  6  1  0  0  0  0
  5  3  2  0  0  0  0
  6  8  1  1  0  0  0
  7  1  1  1  0  0  0
  7  2  1  0  0  0  0
  9 11  1  6  0  0  0
  9  7  1  0  0  0  0
  9  5  1  0  0  0  0
 10  6  1  0  0  0  0
 12 13  1  0  0  0  0
 12 11  1  0  0  0  0
 14 12  2  0  0  0  0
 15 19  1  0  0  0  0
 16 15  2  0  0  0  0
 16 18  1  0  0  0  0
 18 20  2  0  0  0  0
 19 17  2  0  0  0  0
 20 17  1  0  0  0  0
 22 21  1  0  0  0  0
 23 25  2  0  0  0  0
 23 30  1  0  0  0  0
 25 26  1  0  0  0  0
 26 22  1  0  0  0  0
 26 24  2  0  0  0  0
 28 24  1  0  0  0  0
 28 27  1  0  0  0  0
 29 25  1  0  0  0  0
 30 28  2  0  0  0  0
 31 23  1  0  0  0  0
 32 31  2  0  0  0  0
 33 31  1  0  0  0  0
M  END
>  <MODEL>
6

>  <REMARK>
 VINA RESULT:      -7.2      1.836      2.186
  Name = 
  8 active torsions:
  status: ('A' for Active; 'I' for Inactive)
    1  A    between atoms: C_2  and  C_6
    2  A    between atoms: C_2  and  C_13
    3  A    between atoms: C_2  and  C_18
    4  A    between atoms: C_4  and  C_22
    5  A    between atoms: S_5  and  C_13
    6  A    between atoms: S_5  and  C_19
    7  A    between atoms: C_8  and  C_14
    8  A    between atoms: C_22  and  C_25
                            x       y       z     vdW  Elec       q    Type
                         _______ _______ _______ _____ _____    ______ ____

>  <TORSDO>
F 8

$$$$
=
 OpenBabel11072410223D

 33 36  0  0  1  0  0  0  0  0999 V2000
  161.7680  207.0340  149.5640 C   0  0  1  0  0  3  0  0  0  0  0  0
  161.6640  208.4590  151.6320 C   0  0  1  0  0  3  0  0  0  0  0  0
  162.2380  209.7870  151.8150 C   0  0  0  0  0  0  0  0  0  0  0  0
  160.4020  208.5480  152.4780 C   0  0  0  0  0  2  0  0  0  0  0  0
  162.5350  210.4120  150.7310 N   0  0  0  0  0  0  0  0  0  0  0  0
  160.6990  209.6350  153.5270 C   0  0  1  0  0  3  0  0  0  0  0  0
  161.4200  208.4160  150.1310 C   0  0  1  0  0  3  0  0  0  0  0  0
  161.1780  209.0120  154.7480 N   0  0  0  0  0  1  0  0  0  0  0  0
  162.3170  209.5400  149.5900 C   0  0  1  0  0  3  0  0  0  0  0  0
  161.7560  210.4580  152.9580 N   0  0  0  0  0  2  0  0  0  0  0  0
  161.5970  210.2960  148.4850 C   0  0  0  0  0  2  0  0  0  0  0  0
  162.0200  211.7240  148.4690 C   0  0  0  0  0  0  0  0  0  0  0  0
  163.1220  212.0480  147.9590 O   0  0  0  0  0  0  0  0  0  0  0  0
  161.1840  212.7020  148.9870 O   0  0  0  0  0  1  0  0  0  0  0  0
  160.3230  205.1880  150.4240 C   0  0  0  0  0  3  0  0  0  0  0  0
  161.5030  205.9290  150.5420 C   0  0  0  0  0  0  0  0  0  0  0  0
  160.9850  203.8160  152.3070 C   0  0  0  0  0  3  0  0  0  0  0  0
  162.4300  205.6040  151.5450 C   0  0  0  0  0  3  0  0  0  0  0  0
  160.0630  204.1350  151.3060 C   0  0  0  0  0  3  0  0  0  0  0  0
  162.1690  204.5500  152.4260 C   0  0  0  0  0  3  0  0  0  0  0  0
  161.1610  206.7630  148.1880 C   0  0  0  0  0  2  0  0  0  0  0  0
  162.4410  206.1660  147.0410 S   0  0  0  0  0  0  0  0  0  0  0  0
  160.6140  202.6470  145.9080 C   0  0  0  0  0  0  0  0  0  0  0  0
  161.8580  203.7390  148.1810 C   0  0  0  0  0  3  0  0  0  0  0  0
  161.1660  203.9550  145.8560 C   0  0  0  0  0  0  0  0  0  0  0  0
  161.7730  204.4980  147.0110 C   0  0  0  0  0  0  0  0  0  0  0  0
  161.4180  201.7240  149.3650 F   0  0  0  0  0  0  0  0  0  0  0  0
  161.3340  202.4510  148.2250 C   0  0  0  0  0  0  0  0  0  0  0  0
  161.1360  204.9220  144.3770 Cl  0  0  0  0  0  0  0  0  0  0  0  0
  160.7130  201.9150  147.1000 C   0  0  0  0  0  3  0  0  0  0  0  0
  159.9130  201.9940  144.7740 C   0  0  0  0  0  0  0  0  0  0  0  0
  160.0380  200.6220  144.5840 O   0  0  0  0  0  1  0  0  0  0  0  0
  159.1910  202.6480  143.9780 O   0  0  0  0  0  0  0  0  0  0  0  0
  1 21  1  6  0  0  0
  1 16  1  0  0  0  0
  2  3  1  0  0  0  0
  2  4  1  1  0  0  0
  3 10  1  0  0  0  0
  4  6  1  0  0  0  0
  5  3  2  0  0  0  0
  6  8  1  1  0  0  0
  7  1  1  6  0  0  0
  7  2  1  0  0  0  0
  9 11  1  6  0  0  0
  9  7  1  0  0  0  0
  9  5  1  0  0  0  0
 10  6  1  0  0  0  0
 12 11  1  0  0  0  0
 12 14  1  0  0  0  0
 13 12  2  0  0  0  0
 15 16  2  0  0  0  0
 15 19  1  0  0  0  0
 16 18  1  0  0  0  0
 17 20  1  0  0  0  0
 18 20  2  0  0  0  0
 19 17  2  0  0  0  0
 22 21  1  0  0  0  0
 23 30  1  0  0  0  0
 24 28  1  0  0  0  0
 25 23  2  0  0  0  0
 25 26  1  0  0  0  0
 26 22  1  0  0  0  0
 26 24  2  0  0  0  0
 28 27  1  0  0  0  0
 29 25  1  0  0  0  0
 30 28  2  0  0  0  0
 31 23  1  0  0  0  0
 32 31  1  0  0  0  0
 33 31  2  0  0  0  0
M  END
>  <MODEL>
7

>  <REMARK>
 VINA RESULT:      -7.0      3.800      5.475
  Name = 
  8 active torsions:
  status: ('A' for Active; 'I' for Inactive)
    1  A    between atoms: C_2  and  C_6
    2  A    between atoms: C_2  and  C_13
    3  A    between atoms: C_2  and  C_18
    4  A    between atoms: C_4  and  C_22
    5  A    between atoms: S_5  and  C_13
    6  A    between atoms: S_5  and  C_19
    7  A    between atoms: C_8  and  C_14
    8  A    between atoms: C_22  and  C_25
                            x       y       z     vdW  Elec       q    Type
                         _______ _______ _______ _____ _____    ______ ____

>  <TORSDO>
F 8

$$$$
=
 OpenBabel11072410223D

 33 36  0  0  1  0  0  0  0  0999 V2000
  161.1340  205.6980  150.2480 C   0  0  1  0  0  3  0  0  0  0  0  0
  161.1260  205.1610  147.7920 C   0  0  1  0  0  3  0  0  0  0  0  0
  160.9550  206.0970  146.6880 C   0  0  0  0  0  0  0  0  0  0  0  0
  162.0920  204.1480  147.1930 C   0  0  0  0  0  2  0  0  0  0  0  0
  161.1520  207.3330  146.9790 N   0  0  0  0  0  0  0  0  0  0  0  0
  161.8770  204.2420  145.6720 C   0  0  1  0  0  3  0  0  0  0  0  0
  161.7250  206.0450  148.8760 C   0  0  1  0  0  3  0  0  0  0  0  0
  160.9330  203.2220  145.2520 N   0  0  0  0  0  1  0  0  0  0  0  0
  161.3830  207.4670  148.4070 C   0  0  1  0  0  3  0  0  0  0  0  0
  161.3040  205.5590  145.4320 N   0  0  0  0  0  2  0  0  0  0  0  0
  162.5590  208.3980  148.6600 C   0  0  0  0  0  2  0  0  0  0  0  0
  162.0830  209.7920  148.8810 C   0  0  0  0  0  0  0  0  0  0  0  0
  162.3600  210.3890  149.9520 O   0  0  0  0  0  1  0  0  0  0  0  0
  161.3620  210.4450  147.8920 O   0  0  0  0  0  0  0  0  0  0  0  0
  160.2360  203.4220  149.7470 C   0  0  0  0  0  3  0  0  0  0  0  0
  161.1010  204.2220  150.5020 C   0  0  0  0  0  0  0  0  0  0  0  0
  161.0400  201.4490  150.8970 C   0  0  0  0  0  3  0  0  0  0  0  0
  161.9430  203.6260  151.4540 C   0  0  0  0  0  3  0  0  0  0  0  0
  160.2040  202.0390  149.9450 C   0  0  0  0  0  3  0  0  0  0  0  0
  161.9100  202.2420  151.6520 C   0  0  0  0  0  3  0  0  0  0  0  0
  161.7560  206.4830  151.4020 C   0  0  0  0  0  2  0  0  0  0  0  0
  160.9210  206.0730  152.9660 S   0  0  0  0  0  0  0  0  0  0  0  0
  160.5230  209.5700  155.1160 C   0  0  0  0  0  0  0  0  0  0  0  0
  160.6960  208.7540  152.4300 C   0  0  0  0  0  3  0  0  0  0  0  0
  160.6950  208.1950  154.8000 C   0  0  0  0  0  0  0  0  0  0  0  0
  160.7630  207.7980  153.4450 C   0  0  0  0  0  0  0  0  0  0  0  0
  160.4780  211.0220  151.7480 F   0  0  0  0  0  0  0  0  0  0  0  0
  160.5460  210.1020  152.7400 C   0  0  0  0  0  0  0  0  0  0  0  0
  160.8490  206.9620  156.0570 Cl  0  0  0  0  0  0  0  0  0  0  0  0
  160.4550  210.5030  154.0700 C   0  0  0  0  0  3  0  0  0  0  0  0
  160.3920  210.0970  156.4970 C   0  0  0  0  0  0  0  0  0  0  0  0
  159.1430  210.4730  156.9770 O   0  0  0  0  0  0  0  0  0  0  0  0
  161.3870  210.2030  157.2600 O   0  0  0  0  0  1  0  0  0  0  0  0
  1 16  1  0  0  0  0
  1 21  1  1  0  0  0
  2  4  1  6  0  0  0
  2  7  1  0  0  0  0
  3  5  2  0  0  0  0
  3  2  1  0  0  0  0
  5  9  1  0  0  0  0
  6  8  1  1  0  0  0
  6  4  1  0  0  0  0
  7  1  1  1  0  0  0
  9 11  1  6  0  0  0
  9  7  1  0  0  0  0
 10  6  1  0  0  0  0
 10  3  1  0  0  0  0
 11 12  1  0  0  0  0
 12 13  1  0  0  0  0
 14 12  2  0  0  0  0
 15 19  2  0  0  0  0
 15 16  1  0  0  0  0
 16 18  2  0  0  0  0
 17 20  2  0  0  0  0
 18 20  1  0  0  0  0
 19 17  1  0  0  0  0
 21 22  1  0  0  0  0
 22 26  1  0  0  0  0
 23 31  1  0  0  0  0
 24 28  2  0  0  0  0
 24 26  1  0  0  0  0
 25 23  1  0  0  0  0
 25 29  1  0  0  0  0
 26 25  2  0  0  0  0
 27 28  1  0  0  0  0
 28 30  1  0  0  0  0
 30 23  2  0  0  0  0
 31 32  2  0  0  0  0
 31 33  1  0  0  0  0
M  END
>  <MODEL>
8

>  <REMARK>
 VINA RESULT:      -6.7      4.497      8.051
  Name = 
  8 active torsions:
  status: ('A' for Active; 'I' for Inactive)
    1  A    between atoms: C_2  and  C_6
    2  A    between atoms: C_2  and  C_13
    3  A    between atoms: C_2  and  C_18
    4  A    between atoms: C_4  and  C_22
    5  A    between atoms: S_5  and  C_13
    6  A    between atoms: S_5  and  C_19
    7  A    between atoms: C_8  and  C_14
    8  A    between atoms: C_22  and  C_25
                            x       y       z     vdW  Elec       q    Type
                         _______ _______ _______ _____ _____    ______ ____

>  <TORSDO>
F 8

$$$$
=
 OpenBabel11072410223D

 33 36  0  0  1  0  0  0  0  0999 V2000
  161.8400  205.5160  148.2440 C   0  0  1  0  0  3  0  0  0  0  0  0
  161.0370  203.9990  150.0800 C   0  0  1  0  0  3  0  0  0  0  0  0
  160.1800  202.8280  149.9420 C   0  0  0  0  0  0  0  0  0  0  0  0
  161.9470  203.5830  151.2270 C   0  0  0  0  0  2  0  0  0  0  0  0
  160.0970  202.3440  148.7540 N   0  0  0  0  0  0  0  0  0  0  0  0
  161.1400  202.5390  152.0190 C   0  0  1  0  0  3  0  0  0  0  0  0
  161.7180  204.0640  148.7210 C   0  0  1  0  0  3  0  0  0  0  0  0
  160.4570  203.1900  153.1230 N   0  0  0  0  0  1  0  0  0  0  0  0
  160.8150  203.2020  147.8270 C   0  0  1  0  0  3  0  0  0  0  0  0
  160.1560  202.0070  151.0880 N   0  0  0  0  0  2  0  0  0  0  0  0
  161.6610  202.3600  146.8850 C   0  0  0  0  0  2  0  0  0  0  0  0
  160.8310  201.8350  145.7650 C   0  0  0  0  0  0  0  0  0  0  0  0
  160.3500  202.6270  144.9150 O   0  0  0  0  0  0  0  0  0  0  0  0
  160.6170  200.4710  145.6390 O   0  0  0  0  0  1  0  0  0  0  0  0
  162.6300  205.3010  145.8840 C   0  0  0  0  0  3  0  0  0  0  0  0
  161.6080  205.6580  146.7700 C   0  0  0  0  0  0  0  0  0  0  0  0
  161.2070  205.8500  144.0040 C   0  0  0  0  0  3  0  0  0  0  0  0
  160.3760  206.1060  146.2640 C   0  0  0  0  0  3  0  0  0  0  0  0
  162.4310  205.3990  144.5040 C   0  0  0  0  0  3  0  0  0  0  0  0
  160.1780  206.2030  144.8840 C   0  0  0  0  0  3  0  0  0  0  0  0
  161.0190  206.5060  149.0690 C   0  0  0  0  0  2  0  0  0  0  0  0
  161.9100  208.0830  149.2320 S   0  0  0  0  0  0  0  0  0  0  0  0
  161.2260  209.5200  153.0370 C   0  0  0  0  0  0  0  0  0  0  0  0
  161.3120  207.0470  151.7010 C   0  0  0  0  0  3  0  0  0  0  0  0
  161.4790  209.4760  151.6390 C   0  0  0  0  0  0  0  0  0  0  0  0
  161.5360  208.2250  150.9840 C   0  0  0  0  0  0  0  0  0  0  0  0
  160.8320  205.9450  153.7530 F   0  0  0  0  0  0  0  0  0  0  0  0
  161.0450  207.0930  153.0660 C   0  0  0  0  0  0  0  0  0  0  0  0
  161.7050  210.9460  150.6850 Cl  0  0  0  0  0  0  0  0  0  0  0  0
  161.0090  208.3180  153.7260 C   0  0  0  0  0  3  0  0  0  0  0  0
  161.1890  210.7700  153.8370 C   0  0  0  0  0  0  0  0  0  0  0  0
  161.9910  210.8910  154.9660 O   0  0  0  0  0  1  0  0  0  0  0  0
  160.4550  211.7400  153.5130 O   0  0  0  0  0  0  0  0  0  0  0  0
  1 21  1  1  0  0  0
  2  4  1  1  0  0  0
  3  2  1  0  0  0  0
  3 10  1  0  0  0  0
  4  6  1  0  0  0  0
  5  3  2  0  0  0  0
  6  8  1  1  0  0  0
  7  1  1  6  0  0  0
  7  2  1  0  0  0  0
  9 11  1  6  0  0  0
  9  7  1  0  0  0  0
  9  5  1  0  0  0  0
 10  6  1  0  0  0  0
 12 11  1  0  0  0  0
 13 12  2  0  0  0  0
 14 12  1  0  0  0  0
 15 16  1  0  0  0  0
 16  1  1  0  0  0  0
 17 19  1  0  0  0  0
 17 20  2  0  0  0  0
 18 16  2  0  0  0  0
 19 15  2  0  0  0  0
 20 18  1  0  0  0  0
 21 22  1  0  0  0  0
 22 26  1  0  0  0  0
 23 30  1  0  0  0  0
 23 31  1  0  0  0  0
 24 28  1  0  0  0  0
 25 23  2  0  0  0  0
 26 25  1  0  0  0  0
 26 24  2  0  0  0  0
 28 30  2  0  0  0  0
 28 27  1  0  0  0  0
 29 25  1  0  0  0  0
 31 32  1  0  0  0  0
 33 31  2  0  0  0  0
M  END
>  <MODEL>
9

>  <REMARK>
 VINA RESULT:      -6.7      4.674      9.263
  Name = 
  8 active torsions:
  status: ('A' for Active; 'I' for Inactive)
    1  A    between atoms: C_2  and  C_6
    2  A    between atoms: C_2  and  C_13
    3  A    between atoms: C_2  and  C_18
    4  A    between atoms: C_4  and  C_22
    5  A    between atoms: S_5  and  C_13
    6  A    between atoms: S_5  and  C_19
    7  A    between atoms: C_8  and  C_14
    8  A    between atoms: C_22  and  C_25
                            x       y       z     vdW  Elec       q    Type
                         _______ _______ _______ _____ _____    ______ ____

>  <TORSDO>
F 8

$$$$
