=
 OpenBabel11072411043D

 30 37  0  0  1  0  0  0  0  0999 V2000
  161.1660  208.1790  153.4500 C   0  0  1  0  0  3  0  0  0  0  0  0
  162.4730  208.6040  149.7300 C   0  0  0  0  0  2  0  0  0  0  0  0
  159.6360  211.3370  155.3350 C   0  0  1  0  0  3  0  0  0  0  0  0
  160.8080  206.8580  154.0890 C   0  0  0  0  0  2  0  0  0  0  0  0
  160.3860  210.3890  152.5450 C   0  0  0  0  0  0  0  0  0  0  0  0
  159.9500  211.7330  152.7860 C   0  0  0  0  0  0  0  0  0  0  0  0
  161.5850  208.7570  150.9780 C   0  0  2  0  0  0  0  0  0  0  0  0
  160.1050  212.7170  151.7620 C   0  0  0  0  0  0  0  0  0  0  0  0
  161.6320  207.7650  152.0720 C   0  0  2  0  0  0  0  0  0  0  0  0
  158.3510  214.4120  152.4200 C   0  0  0  0  0  3  0  0  0  0  0  0
  161.2690  211.1070  150.4670 N   0  0  0  0  0  0  0  0  0  0  0  0
  161.0270  213.1030  149.5050 N   0  0  0  0  0  0  0  0  0  0  0  0
  160.8160  212.3500  150.6110 C   0  0  0  0  0  0  0  0  0  0  0  0
  160.0340  209.2180  153.4410 C   0  0  0  0  0  2  0  0  0  0  0  0
  160.5900  207.7760  151.1080 O   0  0  0  0  0  0  0  0  0  0  0  0
  159.3180  212.1780  154.0870 C   0  0  1  0  0  3  0  0  0  0  0  0
  157.8600  212.4800  153.9190 C   0  0  0  0  0  0  0  0  0  0  0  0
  156.8560  211.7380  154.7540 C   0  0  0  0  0  2  0  0  0  0  0  0
  162.1830  209.6760  148.6470 C   0  0  0  0  0  2  0  0  0  0  0  0
  161.0750  210.1140  151.3450 C   0  0  0  0  0  0  0  0  0  0  0  0
  161.8030  211.0040  149.2520 C   0  0  0  0  0  0  0  0  0  0  0  0
  161.7530  205.8290  153.4490 C   0  0  0  0  0  2  0  0  0  0  0  0
  161.6510  212.2430  148.6530 C   0  0  0  0  0  0  0  0  0  0  0  0
  157.4620  213.5380  153.2140 C   0  0  0  0  0  3  0  0  0  0  0  0
  160.7650  211.9800  156.1130 C   0  0  0  0  0  1  0  0  0  0  0  0
  162.0190  212.5870  147.2530 C   0  0  0  0  0  1  0  0  0  0  0  0
  159.4930  214.0650  151.8100 C   0  0  0  0  0  3  0  0  0  0  0  0
  162.2140  206.3810  152.0970 C   0  0  0  0  0  2  0  0  0  0  0  0
  158.4580  211.2060  156.1910 N   0  0  0  0  0  2  0  0  0  0  0  0
  157.4640  210.6640  155.4340 O   0  0  0  0  0  0  0  0  0  0  0  0
  1 14  1  6  0  0  0
  1  4  1  0  0  0  0
  3 25  1  1  0  0  0
  3 29  1  0  0  0  0
  5  6  1  0  0  0  0
  5 14  1  0  0  0  0
  7  2  1  6  0  0  0
  7 15  1  0  0  0  0
  7 20  1  0  0  0  0
  7  9  1  0  0  0  0
  8 27  1  0  0  0  0
  8  6  2  0  0  0  0
  9 28  1  6  0  0  0
  9  1  1  0  0  0  0
 10 24  1  0  0  0  0
 11 13  1  0  0  0  0
 11 20  1  0  0  0  0
 12 13  2  0  0  0  0
 13  8  1  0  0  0  0
 15  9  1  0  0  0  0
 16  6  1  6  0  0  0
 16  3  1  0  0  0  0
 17 16  1  0  0  0  0
 17 18  1  0  0  0  0
 18 30  1  0  0  0  0
 19 21  1  0  0  0  0
 19  2  1  0  0  0  0
 20  5  2  0  0  0  0
 21 11  1  0  0  0  0
 22  4  1  0  0  0  0
 23 21  2  0  0  0  0
 23 12  1  0  0  0  0
 24 17  2  0  0  0  0
 26 23  1  0  0  0  0
 27 10  2  0  0  0  0
 28 22  1  0  0  0  0
 30 29  1  0  0  0  0
M  END
>  <MODEL>
1

>  <REMARK>
 VINA RESULT:      -6.7      0.000      0.000
  Name = 
  0 active torsions:
  status: ('A' for Active; 'I' for Inactive)
                            x       y       z     vdW  Elec       q    Type
                         _______ _______ _______ _____ _____    ______ ____

>  <TORSDO>
F 0

$$$$
=
 OpenBabel11072411043D

 30 37  0  0  1  0  0  0  0  0999 V2000
  160.4880  211.6010  151.2800 C   0  0  1  0  0  3  0  0  0  0  0  0
  161.8550  208.3250  149.5110 C   0  0  0  0  0  2  0  0  0  0  0  0
  158.9730  211.3260  154.9530 C   0  0  1  0  0  3  0  0  0  0  0  0
  160.8520  213.0100  150.8760 C   0  0  0  0  0  2  0  0  0  0  0  0
  160.6680  209.7560  152.9750 C   0  0  0  0  0  0  0  0  0  0  0  0
  160.2440  209.1820  154.2190 C   0  0  0  0  0  0  0  0  0  0  0  0
  161.5660  209.3630  150.6110 C   0  0  2  0  0  0  0  0  0  0  0  0
  160.3980  207.7780  154.4330 C   0  0  0  0  0  0  0  0  0  0  0  0
  161.2410  210.7630  150.2710 C   0  0  2  0  0  0  0  0  0  0  0  0
  160.4150  207.6500  156.9560 C   0  0  0  0  0  3  0  0  0  0  0  0
  161.1350  207.5720  152.1890 N   0  0  0  0  0  0  0  0  0  0  0  0
  161.0910  205.6700  153.3510 N   0  0  0  0  0  0  0  0  0  0  0  0
  160.8260  206.9990  153.3490 C   0  0  0  0  0  0  0  0  0  0  0  0
  160.8010  211.2480  152.7420 C   0  0  0  0  0  2  0  0  0  0  0  0
  162.5300  210.3770  150.7220 O   0  0  0  0  0  0  0  0  0  0  0  0
  159.6360  209.9930  155.3420 C   0  0  1  0  0  3  0  0  0  0  0  0
  160.5650  210.1000  156.5130 C   0  0  0  0  0  0  0  0  0  0  0  0
  160.9830  211.4600  156.9960 C   0  0  0  0  0  2  0  0  0  0  0  0
  162.2990  206.9510  150.0770 C   0  0  0  0  0  2  0  0  0  0  0  0
  161.1040  208.8900  151.9520 C   0  0  0  0  0  0  0  0  0  0  0  0
  161.6110  206.6270  151.3800 C   0  0  0  0  0  0  0  0  0  0  0  0
  161.0720  212.9530  149.3570 C   0  0  0  0  0  2  0  0  0  0  0  0
  161.5860  205.4470  152.1030 C   0  0  0  0  0  0  0  0  0  0  0  0
  160.8400  209.0330  157.2610 C   0  0  0  0  0  3  0  0  0  0  0  0
  157.4790  211.1320  154.8040 C   0  0  0  0  0  1  0  0  0  0  0  0
  162.1060  204.1300  151.6430 C   0  0  0  0  0  1  0  0  0  0  0  0
  160.2100  207.1150  155.7440 C   0  0  0  0  0  3  0  0  0  0  0  0
  161.4150  211.5080  148.9790 C   0  0  0  0  0  2  0  0  0  0  0  0
  159.2410  212.3550  155.9580 N   0  0  0  0  0  2  0  0  0  0  0  0
  160.5930  212.4590  156.0820 O   0  0  0  0  0  0  0  0  0  0  0  0
  1  4  1  1  0  0  0
  1 14  1  0  0  0  0
  2 19  1  0  0  0  0
  3 25  1  1  0  0  0
  3 16  1  0  0  0  0
  3 29  1  0  0  0  0
  5  6  1  0  0  0  0
  6  8  2  0  0  0  0
  7  2  1  6  0  0  0
  7 15  1  0  0  0  0
  7 20  1  0  0  0  0
  8 27  1  0  0  0  0
  9 28  1  6  0  0  0
  9  7  1  0  0  0  0
  9 15  1  0  0  0  0
  9  1  1  0  0  0  0
 10 24  1  0  0  0  0
 11 13  1  0  0  0  0
 13 12  2  0  0  0  0
 13  8  1  0  0  0  0
 14  5  1  0  0  0  0
 16  6  1  6  0  0  0
 16 17  1  0  0  0  0
 17 18  1  0  0  0  0
 17 24  2  0  0  0  0
 19 21  1  0  0  0  0
 20 11  1  0  0  0  0
 20  5  2  0  0  0  0
 21 23  2  0  0  0  0
 21 11  1  0  0  0  0
 22  4  1  0  0  0  0
 23 12  1  0  0  0  0
 26 23  1  0  0  0  0
 27 10  2  0  0  0  0
 28 22  1  0  0  0  0
 29 30  1  0  0  0  0
 30 18  1  0  0  0  0
M  END
>  <MODEL>
2

>  <REMARK>
 VINA RESULT:      -6.5      2.090      5.183
  Name = 
  0 active torsions:
  status: ('A' for Active; 'I' for Inactive)
                            x       y       z     vdW  Elec       q    Type
                         _______ _______ _______ _____ _____    ______ ____

>  <TORSDO>
F 0

$$$$
=
 OpenBabel11072411043D

 30 37  0  0  1  0  0  0  0  0999 V2000
  161.2780  205.1990  152.3450 C   0  0  1  0  0  3  0  0  0  0  0  0
  162.0350  206.8070  148.7990 C   0  0  0  0  0  2  0  0  0  0  0  0
  160.9620  207.5820  155.5200 C   0  0  1  0  0  3  0  0  0  0  0  0
  160.6900  203.8230  152.5560 C   0  0  0  0  0  2  0  0  0  0  0  0
  160.9760  207.6890  152.4810 C   0  0  0  0  0  0  0  0  0  0  0  0
  160.9550  208.8850  153.2720 C   0  0  0  0  0  0  0  0  0  0  0  0
  161.4310  206.6160  150.2020 C   0  0  2  0  0  0  0  0  0  0  0  0
  161.1980  210.1460  152.6460 C   0  0  0  0  0  0  0  0  0  0  0  0
  161.3890  205.2840  150.8390 C   0  0  2  0  0  0  0  0  0  0  0  0
  160.0850  211.7360  154.2630 C   0  0  0  0  0  3  0  0  0  0  0  0
  161.6700  208.9920  150.6290 N   0  0  0  0  0  0  0  0  0  0  0  0
  161.8140  211.2130  150.5070 N   0  0  0  0  0  0  0  0  0  0  0  0
  161.5920  210.1380  151.3010 C   0  0  0  0  0  0  0  0  0  0  0  0
  160.4750  206.3460  152.9760 C   0  0  0  0  0  2  0  0  0  0  0  0
  160.2460  205.8650  150.2290 O   0  0  0  0  0  0  0  0  0  0  0  0
  160.6820  208.8900  154.7600 C   0  0  1  0  0  3  0  0  0  0  0  0
  159.3470  209.4960  155.0750 C   0  0  0  0  0  0  0  0  0  0  0  0
  158.3310  208.6830  155.8260 C   0  0  0  0  0  2  0  0  0  0  0  0
  161.8680  208.2520  148.2610 C   0  0  0  0  0  2  0  0  0  0  0  0
  161.3650  207.7880  151.1300 C   0  0  0  0  0  0  0  0  0  0  0  0
  161.9560  209.2790  149.3610 C   0  0  0  0  0  0  0  0  0  0  0  0
  161.2140  202.9750  151.3870 C   0  0  0  0  0  2  0  0  0  0  0  0
  162.0420  210.6590  149.2840 C   0  0  0  0  0  0  0  0  0  0  0  0
  159.1360  210.7990  154.9020 C   0  0  0  0  0  3  0  0  0  0  0  0
  162.3310  207.6470  156.1650 C   0  0  0  0  0  1  0  0  0  0  0  0
  162.2580  211.4530  148.0440 C   0  0  0  0  0  1  0  0  0  0  0  0
  160.9810  211.4530  153.3070 C   0  0  0  0  0  3  0  0  0  0  0  0
  161.5810  203.9200  150.2380 C   0  0  0  0  0  2  0  0  0  0  0  0
  159.9450  207.3430  156.5440 N   0  0  0  0  0  2  0  0  0  0  0  0
  158.7350  207.3360  155.9190 O   0  0  0  0  0  0  0  0  0  0  0  0
  1  4  1  6  0  0  0
  1 14  1  0  0  0  0
  3 25  1  1  0  0  0
  3 29  1  0  0  0  0
  5 14  1  0  0  0  0
  5  6  1  0  0  0  0
  7  2  1  6  0  0  0
  7 15  1  0  0  0  0
  7  9  1  0  0  0  0
  7 20  1  0  0  0  0
  8  6  2  0  0  0  0
  8 27  1  0  0  0  0
  9 28  1  6  0  0  0
  9  1  1  0  0  0  0
 10 24  1  0  0  0  0
 11 20  1  0  0  0  0
 11 13  1  0  0  0  0
 12 13  2  0  0  0  0
 13  8  1  0  0  0  0
 15  9  1  0  0  0  0
 16  6  1  6  0  0  0
 16 17  1  0  0  0  0
 16  3  1  0  0  0  0
 17 18  1  0  0  0  0
 18 30  1  0  0  0  0
 19  2  1  0  0  0  0
 19 21  1  0  0  0  0
 20  5  2  0  0  0  0
 21 11  1  0  0  0  0
 22  4  1  0  0  0  0
 23 21  2  0  0  0  0
 23 12  1  0  0  0  0
 24 17  2  0  0  0  0
 26 23  1  0  0  0  0
 27 10  2  0  0  0  0
 28 22  1  0  0  0  0
 30 29  1  0  0  0  0
M  END
>  <MODEL>
3

>  <REMARK>
 VINA RESULT:      -5.8      2.004      3.030
  Name = 
  0 active torsions:
  status: ('A' for Active; 'I' for Inactive)
                            x       y       z     vdW  Elec       q    Type
                         _______ _______ _______ _____ _____    ______ ____

>  <TORSDO>
F 0

$$$$
=
 OpenBabel11072411043D

 30 37  0  0  1  0  0  0  0  0999 V2000
  160.3220  209.1160  155.4110 C   0  0  1  0  0  3  0  0  0  0  0  0
  162.2570  208.2270  152.0660 C   0  0  0  0  0  2  0  0  0  0  0  0
  158.5750  212.6800  155.7460 C   0  0  1  0  0  3  0  0  0  0  0  0
  159.8260  208.0990  156.4120 C   0  0  0  0  0  2  0  0  0  0  0  0
  159.7670  210.8220  153.6530 C   0  0  0  0  0  0  0  0  0  0  0  0
  159.3300  212.1460  153.3170 C   0  0  0  0  0  0  0  0  0  0  0  0
  161.1730  208.7840  153.0060 C   0  0  2  0  0  0  0  0  0  0  0  0
  159.6840  212.7020  152.0490 C   0  0  0  0  0  0  0  0  0  0  0  0
  161.0060  208.2530  154.3740 C   0  0  2  0  0  0  0  0  0  0  0  0
  157.8880  214.4530  151.7470 C   0  0  0  0  0  3  0  0  0  0  0  0
  161.0100  210.7800  151.6380 N   0  0  0  0  0  0  0  0  0  0  0  0
  160.9880  212.2870  149.9950 N   0  0  0  0  0  0  0  0  0  0  0  0
  160.5710  211.9740  151.2460 C   0  0  0  0  0  0  0  0  0  0  0  0
  159.2360  210.0390  154.8380 C   0  0  0  0  0  2  0  0  0  0  0  0
  160.1450  207.8780  153.3100 O   0  0  0  0  0  0  0  0  0  0  0  0
  158.4970  213.0050  154.2440 C   0  0  1  0  0  3  0  0  0  0  0  0
  157.0970  213.1700  153.7350 C   0  0  0  0  0  0  0  0  0  0  0  0
  155.9460  212.7400  154.5990 C   0  0  0  0  0  2  0  0  0  0  0  0
  162.1840  208.8270  150.6370 C   0  0  0  0  0  2  0  0  0  0  0  0
  160.6430  210.1620  152.7680 C   0  0  0  0  0  0  0  0  0  0  0  0
  161.7410  210.2680  150.6500 C   0  0  0  0  0  0  0  0  0  0  0  0
  160.8400  206.9460  156.3560 C   0  0  0  0  0  2  0  0  0  0  0  0
  161.7250  211.2030  149.6290 C   0  0  0  0  0  0  0  0  0  0  0  0
  156.8530  213.8890  152.6410 C   0  0  0  0  0  3  0  0  0  0  0  0
  159.5710  213.6010  156.4190 C   0  0  0  0  0  1  0  0  0  0  0  0
  162.3360  211.0360  148.2820 C   0  0  0  0  0  1  0  0  0  0  0  0
  159.1080  213.9530  151.5050 C   0  0  0  0  0  3  0  0  0  0  0  0
  161.5400  206.9940  154.9930 C   0  0  0  0  0  2  0  0  0  0  0  0
  157.2640  212.8200  156.3800 N   0  0  0  0  0  2  0  0  0  0  0  0
  156.4010  212.0050  155.7120 O   0  0  0  0  0  0  0  0  0  0  0  0
  1 14  1  6  0  0  0
  1  4  1  0  0  0  0
  3 29  1  0  0  0  0
  3 25  1  1  0  0  0
  5 14  1  0  0  0  0
  6  5  1  0  0  0  0
  7  2  1  6  0  0  0
  7 15  1  0  0  0  0
  7  9  1  0  0  0  0
  8  6  2  0  0  0  0
  9 28  1  1  0  0  0
  9  1  1  0  0  0  0
 10 24  1  0  0  0  0
 11 20  1  0  0  0  0
 12 13  2  0  0  0  0
 13 11  1  0  0  0  0
 13  8  1  0  0  0  0
 15  9  1  0  0  0  0
 16  6  1  6  0  0  0
 16  3  1  0  0  0  0
 17 16  1  0  0  0  0
 17 18  1  0  0  0  0
 18 30  1  0  0  0  0
 19 21  1  0  0  0  0
 19  2  1  0  0  0  0
 20  7  1  0  0  0  0
 20  5  2  0  0  0  0
 21 11  1  0  0  0  0
 22  4  1  0  0  0  0
 23 12  1  0  0  0  0
 23 21  2  0  0  0  0
 24 17  2  0  0  0  0
 26 23  1  0  0  0  0
 27 10  2  0  0  0  0
 27  8  1  0  0  0  0
 28 22  1  0  0  0  0
 30 29  1  0  0  0  0
M  END
>  <MODEL>
4

>  <REMARK>
 VINA RESULT:      -4.8      1.359      1.813
  Name = 
  0 active torsions:
  status: ('A' for Active; 'I' for Inactive)
                            x       y       z     vdW  Elec       q    Type
                         _______ _______ _______ _____ _____    ______ ____

>  <TORSDO>
F 0

$$$$
=
 OpenBabel11072411043D

 30 37  0  0  1  0  0  0  0  0999 V2000
  161.2790  210.0170  138.4880 C   0  0  1  0  0  3  0  0  0  0  0  0
  157.6440  209.1220  137.1780 C   0  0  0  0  0  2  0  0  0  0  0  0
  161.7730  213.2500  140.7620 C   0  0  1  0  0  3  0  0  0  0  0  0
  162.4300  209.0410  138.5600 C   0  0  0  0  0  2  0  0  0  0  0  0
  159.5880  211.4110  139.7150 C   0  0  0  0  0  0  0  0  0  0  0  0
  159.2760  212.5990  140.4550 C   0  0  0  0  0  0  0  0  0  0  0  0
  158.7690  209.5830  138.1220 C   0  0  2  0  0  0  0  0  0  0  0  0
  157.9280  213.0710  140.4900 C   0  0  0  0  0  0  0  0  0  0  0  0
  160.1710  209.1780  137.8910 C   0  0  2  0  0  0  0  0  0  0  0  0
  157.9310  214.4530  142.6050 C   0  0  0  0  0  3  0  0  0  0  0  0
  157.3490  211.3680  138.9450 N   0  0  0  0  0  0  0  0  0  0  0  0
  155.6610  212.6700  139.5980 N   0  0  0  0  0  0  0  0  0  0  0  0
  156.9910  212.4230  139.6730 C   0  0  0  0  0  0  0  0  0  0  0  0
  160.9100  210.6780  139.8250 C   0  0  0  0  0  2  0  0  0  0  0  0
  159.3580  208.5530  138.8730 O   0  0  0  0  0  0  0  0  0  0  0  0
  160.3110  213.3970  141.2170 C   0  0  1  0  0  3  0  0  0  0  0  0
  160.1250  213.2700  142.6990 C   0  0  0  0  0  0  0  0  0  0  0  0
  161.2560  212.7450  143.5370 C   0  0  0  0  0  2  0  0  0  0  0  0
  156.2340  209.5480  137.6650 C   0  0  0  0  0  2  0  0  0  0  0  0
  158.5700  210.8190  138.9400 C   0  0  0  0  0  0  0  0  0  0  0  0
  156.2560  210.8870  138.3570 C   0  0  0  0  0  0  0  0  0  0  0  0
  162.2180  208.0760  137.3830 C   0  0  0  0  0  2  0  0  0  0  0  0
  155.2070  211.6940  138.7650 C   0  0  0  0  0  0  0  0  0  0  0  0
  159.0720  213.8190  143.3010 C   0  0  0  0  0  3  0  0  0  0  0  0
  162.1400  214.3910  139.8370 C   0  0  0  0  0  1  0  0  0  0  0  0
  153.7700  211.4920  138.4350 C   0  0  0  0  0  1  0  0  0  0  0  0
  157.4500  214.1440  141.3930 C   0  0  0  0  0  3  0  0  0  0  0  0
  160.7320  208.0980  137.0110 C   0  0  0  0  0  2  0  0  0  0  0  0
  162.6790  213.2320  141.9100 N   0  0  0  0  0  2  0  0  0  0  0  0
  162.2800  212.2180  142.7270 O   0  0  0  0  0  0  0  0  0  0  0  0
  1  4  1  1  0  0  0
  1 14  1  0  0  0  0
  2 19  1  0  0  0  0
  3 25  1  6  0  0  0
  3 16  1  0  0  0  0
  3 29  1  0  0  0  0
  5 14  1  0  0  0  0
  5  6  1  0  0  0  0
  6  8  2  0  0  0  0
  7  2  1  6  0  0  0
  7 15  1  0  0  0  0
  7 20  1  0  0  0  0
  8 27  1  0  0  0  0
  9 28  1  6  0  0  0
  9  7  1  0  0  0  0
  9  1  1  0  0  0  0
  9 15  1  0  0  0  0
 10 24  1  0  0  0  0
 11 13  1  0  0  0  0
 12 13  2  0  0  0  0
 13  8  1  0  0  0  0
 16  6  1  6  0  0  0
 16 17  1  0  0  0  0
 17 24  2  0  0  0  0
 17 18  1  0  0  0  0
 19 21  1  0  0  0  0
 20 11  1  0  0  0  0
 20  5  2  0  0  0  0
 21 23  2  0  0  0  0
 21 11  1  0  0  0  0
 22  4  1  0  0  0  0
 23 12  1  0  0  0  0
 26 23  1  0  0  0  0
 27 10  2  0  0  0  0
 28 22  1  0  0  0  0
 29 30  1  0  0  0  0
 30 18  1  0  0  0  0
M  END
>  <MODEL>
5

>  <REMARK>
 VINA RESULT:      -4.6      9.864     13.100
  Name = 
  0 active torsions:
  status: ('A' for Active; 'I' for Inactive)
                            x       y       z     vdW  Elec       q    Type
                         _______ _______ _______ _____ _____    ______ ____

>  <TORSDO>
F 0

$$$$
=
 OpenBabel11072411043D

 30 37  0  0  1  0  0  0  0  0999 V2000
  162.2610  207.5970  148.5440 C   0  0  1  0  0  3  0  0  0  0  0  0
  161.2100  206.1370  152.0780 C   0  0  0  0  0  2  0  0  0  0  0  0
  162.6740  205.1030  145.4670 C   0  0  1  0  0  3  0  0  0  0  0  0
  162.1240  209.0460  148.1390 C   0  0  0  0  0  2  0  0  0  0  0  0
  161.4880  205.2240  148.2650 C   0  0  0  0  0  0  0  0  0  0  0  0
  161.5070  204.0040  147.5120 C   0  0  0  0  0  0  0  0  0  0  0  0
  161.2550  206.3450  150.5540 C   0  0  2  0  0  0  0  0  0  0  0  0
  161.2020  202.7700  148.1660 C   0  0  0  0  0  0  0  0  0  0  0  0
  161.7610  207.6040  149.9720 C   0  0  2  0  0  0  0  0  0  0  0  0
  160.4760  201.3340  146.2180 C   0  0  0  0  0  3  0  0  0  0  0  0
  161.1030  203.9470  150.2220 N   0  0  0  0  0  0  0  0  0  0  0  0
  160.6890  201.7610  150.3590 N   0  0  0  0  0  0  0  0  0  0  0  0
  161.0360  202.7960  149.5570 C   0  0  0  0  0  0  0  0  0  0  0  0
  161.5310  206.6010  147.6320 C   0  0  0  0  0  2  0  0  0  0  0  0
  160.3720  207.3250  150.0740 O   0  0  0  0  0  0  0  0  0  0  0  0
  161.8370  203.9440  146.0370 C   0  0  1  0  0  3  0  0  0  0  0  0
  160.6290  203.6110  145.2140 C   0  0  0  0  0  0  0  0  0  0  0  0
  160.1910  204.5620  144.1360 C   0  0  0  0  0  2  0  0  0  0  0  0
  160.5300  204.8040  152.4870 C   0  0  0  0  0  2  0  0  0  0  0  0
  161.2920  205.1470  149.6590 C   0  0  0  0  0  0  0  0  0  0  0  0
  160.8050  203.7020  151.4960 C   0  0  0  0  0  0  0  0  0  0  0  0
  162.3310  209.8500  149.4320 C   0  0  0  0  0  2  0  0  0  0  0  0
  160.5440  202.3450  151.5810 C   0  0  0  0  0  0  0  0  0  0  0  0
  160.0820  202.3990  145.2710 C   0  0  0  0  0  3  0  0  0  0  0  0
  164.1330  204.7030  145.4120 C   0  0  0  0  0  1  0  0  0  0  0  0
  160.0810  201.6180  152.7940 C   0  0  0  0  0  1  0  0  0  0  0  0
  160.9710  201.4920  147.4540 C   0  0  0  0  0  3  0  0  0  0  0  0
  162.0050  208.9380  150.6180 C   0  0  0  0  0  2  0  0  0  0  0  0
  162.2110  205.4730  144.1290 N   0  0  0  0  0  2  0  0  0  0  0  0
  160.8880  205.7820  144.2280 O   0  0  0  0  0  0  0  0  0  0  0  0
  1 14  1  6  0  0  0
  1  9  1  0  0  0  0
  2 19  1  0  0  0  0
  3 25  1  6  0  0  0
  3 16  1  0  0  0  0
  4  1  1  0  0  0  0
  4 22  1  0  0  0  0
  5 20  2  0  0  0  0
  6  8  2  0  0  0  0
  6  5  1  0  0  0  0
  7  2  1  1  0  0  0
  8 13  1  0  0  0  0
  9 15  1  0  0  0  0
  9  7  1  0  0  0  0
  9 28  1  1  0  0  0
 10 27  2  0  0  0  0
 11 21  1  0  0  0  0
 12 23  1  0  0  0  0
 13 11  1  0  0  0  0
 13 12  2  0  0  0  0
 14  5  1  0  0  0  0
 15  7  1  0  0  0  0
 16 17  1  6  0  0  0
 16  6  1  0  0  0  0
 17 24  2  0  0  0  0
 18 30  1  0  0  0  0
 18 17  1  0  0  0  0
 20 11  1  0  0  0  0
 20  7  1  0  0  0  0
 21 23  2  0  0  0  0
 21 19  1  0  0  0  0
 22 28  1  0  0  0  0
 23 26  1  0  0  0  0
 24 10  1  0  0  0  0
 27  8  1  0  0  0  0
 29 30  1  0  0  0  0
 29  3  1  0  0  0  0
M  END
>  <MODEL>
6

>  <REMARK>
 VINA RESULT:      -4.6      5.199      9.715
  Name = 
  0 active torsions:
  status: ('A' for Active; 'I' for Inactive)
                            x       y       z     vdW  Elec       q    Type
                         _______ _______ _______ _____ _____    ______ ____

>  <TORSDO>
F 0

$$$$
