=
 OpenBabel11072412403D

 31 35  0  0  1  0  0  0  0  0999 V2000
  161.2600  203.7500  150.3690 C   0  0  0  0  0  0  0  0  0  0  0  0
  161.4450  203.6820  147.9050 C   0  0  0  0  0  0  0  0  0  0  0  0
  161.3020  203.0090  149.2360 C   0  0  2  0  0  3  0  0  0  0  0  0
  162.9240  206.0270  146.4560 C   0  0  0  0  0  1  0  0  0  0  0  0
  162.0510  208.3350  151.1740 C   0  0  0  0  0  2  0  0  0  0  0  0
  161.4430  205.6810  146.4390 C   0  0  1  0  0  0  0  0  0  0  0  0
  160.9180  208.8180  153.8250 C   0  0  0  0  0  3  0  0  0  0  0  0
  160.7550  206.2170  153.8990 C   0  0  0  0  0  2  0  0  0  0  0  0
  161.0700  203.1070  151.6960 C   0  0  0  0  0  3  0  0  0  0  0  0
  161.0850  204.9720  147.7300 C   0  0  0  0  0  0  0  0  0  0  0  0
  161.3790  205.2640  150.2780 C   0  0  0  0  0  0  0  0  0  0  0  0
  160.7330  206.8810  146.3280 O   0  0  0  0  0  1  0  0  0  0  0  0
  161.5360  203.2850  145.4360 C   0  0  0  0  0  2  0  0  0  0  0  0
  161.1880  209.9070  153.0780 C   0  0  0  0  0  0  0  0  0  0  0  0
  161.0500  207.4080  151.8340 C   0  0  2  0  0  3  0  0  0  0  0  0
  162.1860  202.9940  146.7920 C   0  0  0  0  0  2  0  0  0  0  0  0
  161.1570  204.7640  145.2180 C   0  0  1  0  0  3  0  0  0  0  0  0
  160.1970  205.8510  149.0320 S   0  0  0  0  0  0  0  0  0  0  0  0
  161.3350  207.4880  153.3080 C   0  0  1  0  0  3  0  0  0  0  0  0
  160.9190  203.8310  152.8080 C   0  0  0  0  0  3  0  0  0  0  0  0
  160.9390  205.2950  152.7370 C   0  0  0  0  0  0  0  0  0  0  0  0
  161.7900  209.7800  151.6720 C   0  0  0  0  0  2  0  0  0  0  0  0
  161.1530  205.9490  151.6000 C   0  0  0  0  0  0  0  0  0  0  0  0
  160.8290  211.2510  153.5760 C   0  0  0  0  0  0  0  0  0  0  0  0
  161.1650  211.5970  154.7400 O   0  0  0  0  0  0  0  0  0  0  0  0
  160.0890  212.2290  152.7210 C   0  0  0  0  0  2  0  0  0  0  0  0
  158.6410  211.8020  152.5790 C   0  0  0  0  0  1  0  0  0  0  0  0
  160.0790  200.9090  149.1250 N   0  0  0  0  0  2  0  0  0  0  0  0
  161.1900  201.5340  149.3290 C   0  0  0  0  0  3  0  0  0  0  0  0
  159.2130  203.8490  144.2240 O   0  0  0  0  0  0  0  0  0  0  0  0
  159.7250  204.8100  144.7740 C   0  0  0  0  0  3  0  0  0  0  0  0
  1  9  1  0  0  0  0
  2  3  1  0  0  0  0
  3 29  1  6  0  0  0
  3  1  1  0  0  0  0
  5 22  1  0  0  0  0
  6  4  1  1  0  0  0
  6 10  1  0  0  0  0
  9 20  2  0  0  0  0
 10  2  2  0  0  0  0
 10 18  1  0  0  0  0
 11  1  2  0  0  0  0
 11 23  1  0  0  0  0
 12  6  1  0  0  0  0
 13 16  1  0  0  0  0
 14 24  1  0  0  0  0
 14  7  2  0  0  0  0
 15  5  1  6  0  0  0
 15 19  1  0  0  0  0
 16  2  1  0  0  0  0
 17 31  1  1  0  0  0
 17 13  1  0  0  0  0
 17  6  1  0  0  0  0
 18 11  1  0  0  0  0
 19  7  1  1  0  0  0
 19  8  1  0  0  0  0
 21 20  1  0  0  0  0
 21  8  1  0  0  0  0
 22 14  1  0  0  0  0
 23 15  1  0  0  0  0
 23 21  2  0  0  0  0
 24 25  2  0  0  0  0
 26 24  1  0  0  0  0
 27 26  1  0  0  0  0
 28 29  2  0  0  0  0
 30 31  2  0  0  0  0
M  END
>  <MODEL>
1

>  <REMARK>
 VINA RESULT:      -8.4      0.000      0.000
  Name = 
  4 active torsions:
  status: ('A' for Active; 'I' for Inactive)
    1  A    between atoms: C_1  and  C_2
    2  A    between atoms: C_1  and  C_20
    3  A    between atoms: C_6  and  C_27
    4  A    between atoms: C_23  and  C_24
                            x       y       z     vdW  Elec       q    Type
                         _______ _______ _______ _____ _____    ______ ____

>  <TORSDO>
F 4

$$$$
=
 OpenBabel11072412403D

 31 35  0  0  1  0  0  0  0  0999 V2000
  161.1950  205.1090  150.4550 C   0  0  0  0  0  0  0  0  0  0  0  0
  161.3540  203.6870  148.4390 C   0  0  0  0  0  0  0  0  0  0  0  0
  161.1440  203.8690  149.9110 C   0  0  2  0  0  3  0  0  0  0  0  0
  163.0810  204.6980  146.0340 C   0  0  0  0  0  1  0  0  0  0  0  0
  162.5110  209.2830  148.6810 C   0  0  0  0  0  2  0  0  0  0  0  0
  161.5700  204.5490  146.1250 C   0  0  1  0  0  0  0  0  0  0  0  0
  161.4590  211.2460  150.5740 C   0  0  0  0  0  3  0  0  0  0  0  0
  161.0000  209.1400  152.0410 C   0  0  0  0  0  2  0  0  0  0  0  0
  160.9420  205.3190  151.9050 C   0  0  0  0  0  3  0  0  0  0  0  0
  161.1420  204.7010  147.5710 C   0  0  0  0  0  0  0  0  0  0  0  0
  161.4860  206.3060  149.5620 C   0  0  0  0  0  0  0  0  0  0  0  0
  161.0010  205.5570  145.3390 O   0  0  0  0  0  1  0  0  0  0  0  0
  161.3810  201.9990  146.5930 C   0  0  0  0  0  2  0  0  0  0  0  0
  161.8460  211.7170  149.3710 C   0  0  0  0  0  0  0  0  0  0  0  0
  161.4140  208.9720  149.6810 C   0  0  2  0  0  3  0  0  0  0  0  0
  162.0030  202.4330  147.9230 C   0  0  0  0  0  2  0  0  0  0  0  0
  161.1720  203.1470  145.5850 C   0  0  1  0  0  3  0  0  0  0  0  0
  160.3690  206.2310  148.1330 S   0  0  0  0  0  0  0  0  0  0  0  0
  161.7180  209.8150  150.8880 C   0  0  1  0  0  3  0  0  0  0  0  0
  160.8830  206.5430  152.4340 C   0  0  0  0  0  3  0  0  0  0  0  0
  161.0690  207.7200  151.5790 C   0  0  0  0  0  0  0  0  0  0  0  0
  162.4200  210.7820  148.2970 C   0  0  0  0  0  2  0  0  0  0  0  0
  161.3490  207.6210  150.2840 C   0  0  0  0  0  0  0  0  0  0  0  0
  161.6460  213.1410  149.0380 C   0  0  0  0  0  0  0  0  0  0  0  0
  162.4820  213.7360  148.3060 O   0  0  0  0  0  0  0  0  0  0  0  0
  160.4560  213.8990  149.5300 C   0  0  0  0  0  2  0  0  0  0  0  0
  159.2660  213.6400  148.6260 C   0  0  0  0  0  1  0  0  0  0  0  0
  161.7720  202.1640  151.5280 N   0  0  0  0  0  2  0  0  0  0  0  0
  160.8650  202.7050  150.7850 C   0  0  0  0  0  3  0  0  0  0  0  0
  159.3480  202.1170  144.4830 O   0  0  0  0  0  0  0  0  0  0  0  0
  159.7520  203.0850  145.1060 C   0  0  0  0  0  3  0  0  0  0  0  0
  1  9  1  0  0  0  0
  2  3  1  0  0  0  0
  3  1  1  0  0  0  0
  3 29  1  6  0  0  0
  6  4  1  6  0  0  0
  6 10  1  0  0  0  0
  9 20  2  0  0  0  0
 10 18  1  0  0  0  0
 10  2  2  0  0  0  0
 11 23  1  0  0  0  0
 11  1  2  0  0  0  0
 12  6  1  0  0  0  0
 13 16  1  0  0  0  0
 14  7  2  0  0  0  0
 15  5  1  6  0  0  0
 15 23  1  0  0  0  0
 15 19  1  0  0  0  0
 16  2  1  0  0  0  0
 17 31  1  1  0  0  0
 17  6  1  0  0  0  0
 17 13  1  0  0  0  0
 18 11  1  0  0  0  0
 19  7  1  6  0  0  0
 19  8  1  0  0  0  0
 21  8  1  0  0  0  0
 21 20  1  0  0  0  0
 22  5  1  0  0  0  0
 22 14  1  0  0  0  0
 23 21  2  0  0  0  0
 24 14  1  0  0  0  0
 24 26  1  0  0  0  0
 25 24  2  0  0  0  0
 27 26  1  0  0  0  0
 29 28  2  0  0  0  0
 30 31  2  0  0  0  0
M  END
>  <MODEL>
2

>  <REMARK>
 VINA RESULT:      -7.2      2.329      2.862
  Name = 
  4 active torsions:
  status: ('A' for Active; 'I' for Inactive)
    1  A    between atoms: C_1  and  C_2
    2  A    between atoms: C_1  and  C_20
    3  A    between atoms: C_6  and  C_27
    4  A    between atoms: C_23  and  C_24
                            x       y       z     vdW  Elec       q    Type
                         _______ _______ _______ _____ _____    ______ ____

>  <TORSDO>
F 4

$$$$
=
 OpenBabel11072412403D

 31 35  0  0  1  0  0  0  0  0999 V2000
  160.6510  205.8510  153.4290 C   0  0  0  0  0  0  0  0  0  0  0  0
  160.7950  208.1530  154.3150 C   0  0  0  0  0  0  0  0  0  0  0  0
  160.6080  206.6780  154.5000 C   0  0  2  0  0  3  0  0  0  0  0  0
  160.0640  210.5300  152.4180 C   0  0  0  0  0  1  0  0  0  0  0  0
  160.7530  206.6990  148.7840 C   0  0  0  0  0  2  0  0  0  0  0  0
  161.4260  210.1400  152.9730 C   0  0  1  0  0  0  0  0  0  0  0  0
  161.5880  204.1630  147.5960 C   0  0  0  0  0  3  0  0  0  0  0  0
  161.1800  203.2460  150.0020 C   0  0  0  0  0  2  0  0  0  0  0  0
  160.5140  204.3790  153.5930 C   0  0  0  0  0  3  0  0  0  0  0  0
  161.4430  208.6470  153.2380 C   0  0  0  0  0  0  0  0  0  0  0  0
  160.8710  206.4340  152.0400 C   0  0  0  0  0  0  0  0  0  0  0  0
  162.3840  210.4760  152.0110 O   0  0  0  0  0  1  0  0  0  0  0  0
  160.9620  210.3380  155.5230 C   0  0  0  0  0  2  0  0  0  0  0  0
  161.6620  205.2520  146.8040 C   0  0  0  0  0  0  0  0  0  0  0  0
  161.4330  205.5950  149.5690 C   0  0  2  0  0  3  0  0  0  0  0  0
  160.0850  209.1190  155.2230 C   0  0  0  0  0  2  0  0  0  0  0  0
  161.6750  210.9280  154.2890 C   0  0  1  0  0  3  0  0  0  0  0  0
  162.3110  207.5360  152.1120 S   0  0  0  0  0  0  0  0  0  0  0  0
  160.9720  204.3100  148.9410 C   0  0  1  0  0  3  0  0  0  0  0  0
  160.6620  203.5440  152.5620 C   0  0  0  0  0  3  0  0  0  0  0  0
  160.9660  204.0730  151.2290 C   0  0  0  0  0  0  0  0  0  0  0  0
  161.2460  206.6380  147.3160 C   0  0  0  0  0  2  0  0  0  0  0  0
  161.0540  205.3750  150.9840 C   0  0  0  0  0  0  0  0  0  0  0  0
  162.2280  205.1380  145.4450 C   0  0  0  0  0  0  0  0  0  0  0  0
  163.4500  204.8690  145.2960 O   0  0  0  0  0  0  0  0  0  0  0  0
  161.3780  205.3130  144.2280 C   0  0  0  0  0  2  0  0  0  0  0  0
  160.1900  204.3710  144.2860 C   0  0  0  0  0  1  0  0  0  0  0  0
  160.4770  206.8170  156.9250 N   0  0  0  0  0  2  0  0  0  0  0  0
  160.3880  206.1070  155.8500 C   0  0  0  0  0  3  0  0  0  0  0  0
  163.5280  210.8870  155.7610 O   0  0  0  0  0  0  0  0  0  0  0  0
  163.1300  211.0670  154.6210 C   0  0  0  0  0  3  0  0  0  0  0  0
  1  9  1  0  0  0  0
  1  3  1  0  0  0  0
  2  3  1  0  0  0  0
  2 16  1  0  0  0  0
  3 29  1  1  0  0  0
  6  4  1  6  0  0  0
  6 10  1  0  0  0  0
  6 17  1  0  0  0  0
  8 21  1  0  0  0  0
 10  2  2  0  0  0  0
 11 18  1  0  0  0  0
 11  1  2  0  0  0  0
 12  6  1  0  0  0  0
 14 22  1  0  0  0  0
 14  7  2  0  0  0  0
 15  5  1  6  0  0  0
 15 23  1  0  0  0  0
 16 13  1  0  0  0  0
 17 31  1  1  0  0  0
 17 13  1  0  0  0  0
 18 10  1  0  0  0  0
 19  7  1  6  0  0  0
 19 15  1  0  0  0  0
 19  8  1  0  0  0  0
 20  9  2  0  0  0  0
 21 20  1  0  0  0  0
 22  5  1  0  0  0  0
 23 21  2  0  0  0  0
 23 11  1  0  0  0  0
 24 14  1  0  0  0  0
 25 24  2  0  0  0  0
 26 27  1  0  0  0  0
 26 24  1  0  0  0  0
 29 28  2  0  0  0  0
 31 30  2  0  0  0  0
M  END
>  <MODEL>
3

>  <REMARK>
 VINA RESULT:      -5.5      2.480      7.989
  Name = 
  4 active torsions:
  status: ('A' for Active; 'I' for Inactive)
    1  A    between atoms: C_1  and  C_2
    2  A    between atoms: C_1  and  C_20
    3  A    between atoms: C_6  and  C_27
    4  A    between atoms: C_23  and  C_24
                            x       y       z     vdW  Elec       q    Type
                         _______ _______ _______ _____ _____    ______ ____

>  <TORSDO>
F 4

$$$$
