=
 OpenBabel11072411223D

 42 44  0  0  1  0  0  0  0  0999 V2000
  162.3330  209.1410  150.0970 C   0  0  0  0  0  2  0  0  0  0  0  0
  161.8580  210.4390  150.5850 N   0  0  0  0  0  0  0  0  0  0  0  0
  161.2750  210.5760  151.7410 C   0  0  0  0  0  3  0  0  0  0  0  0
  161.0720  208.1770  152.0550 C   0  0  0  0  0  3  0  0  0  0  0  0
  160.9740  209.4010  152.5860 C   0  0  0  0  0  0  0  0  0  0  0  0
  161.4250  208.0060  150.6000 C   0  0  2  0  0  3  0  0  0  0  0  0
  160.5880  209.5760  153.9960 C   0  0  0  0  0  0  0  0  0  0  0  0
  159.4600  210.3910  154.3320 N   0  0  0  0  0  2  0  0  0  0  0  0
  161.2500  209.0150  154.9120 O   0  0  0  0  0  0  0  0  0  0  0  0
  159.1050  210.6360  155.6660 N   0  0  0  0  0  2  0  0  0  0  0  0
  158.5900  211.9970  155.7320 C   0  0  0  0  0  2  0  0  0  0  0  0
  157.7810  212.3480  154.4880 C   0  0  1  0  0  3  0  0  0  0  0  0
  156.3070  212.2110  154.7290 C   0  0  0  0  0  0  0  0  0  0  0  0
  155.6280  213.2090  154.9020 O   0  0  0  0  0  0  0  0  0  0  0  0
  155.7180  210.9860  154.7350 F   0  0  0  0  0  0  0  0  0  0  0  0
  158.1430  213.7350  153.9710 C   0  0  0  0  0  2  0  0  0  0  0  0
  157.8960  213.7990  148.7240 S   0  0  0  0  0  0  0  0  0  0  0  0
  159.4300  213.6240  150.6800 C   0  0  0  0  0  0  0  0  0  0  0  0
  160.3140  213.5520  149.6110 C   0  0  0  0  0  3  0  0  0  0  0  0
  159.6020  213.5950  151.9710 O   0  0  0  0  0  0  0  0  0  0  0  0
  158.3920  213.7050  152.5010 C   0  0  0  0  0  0  0  0  0  0  0  0
  159.5740  213.6310  148.4210 C   0  0  0  0  0  0  0  0  0  0  0  0
  157.3820  213.8130  151.5270 C   0  0  0  0  0  3  0  0  0  0  0  0
  158.1330  213.7550  150.3790 C   0  0  0  0  0  0  0  0  0  0  0  0
  160.1790  213.6320  147.0610 C   0  0  0  0  0  2  0  0  0  0  0  0
  161.6440  213.2510  147.1460 C   0  0  0  0  0  1  0  0  0  0  0  0
  161.9020  206.7090  150.2930 O   0  0  0  0  0  0  0  0  0  0  0  0
  160.9170  206.0060  149.5650 C   0  0  1  0  0  3  0  0  0  0  0  0
  162.4160  206.4430  147.6170 O   0  0  0  0  0  1  0  0  0  0  0  0
  160.1600  206.1910  147.2980 O   0  0  0  0  0  0  0  0  0  0  0  0
  161.1330  206.2200  148.0980 C   0  0  0  0  0  0  0  0  0  0  0  0
  160.9380  204.5060  149.9030 C   0  0  1  0  0  3  0  0  0  0  0  0
  161.4430  203.6630  148.7370 C   0  0  0  0  0  2  0  0  0  0  0  0
  160.4420  201.7700  149.7850 O   0  0  0  0  0  0  0  0  0  0  0  0
  160.4690  201.6770  147.4660 N   0  0  0  0  0  2  0  0  0  0  0  0
  160.7540  202.3350  148.7040 C   0  0  0  0  0  0  0  0  0  0  0  0
  160.8590  202.2060  146.1670 C   0  0  0  0  0  2  0  0  0  0  0  0
  160.1040  201.4890  145.0650 C   0  0  0  0  0  1  0  0  0  0  0  0
  161.8400  204.2410  151.1020 C   0  0  0  0  0  2  0  0  0  0  0  0
  160.3020  203.1460  152.5590 O   0  0  0  0  0  0  0  0  0  0  0  0
  161.0420  204.1440  152.3570 C   0  0  0  0  0  0  0  0  0  0  0  0
  161.1140  205.1550  153.3040 O   0  0  0  0  0  1  0  0  0  0  0  0
  1  2  1  0  0  0  0
  1  6  1  0  0  0  0
  2  3  2  0  0  0  0
  3  5  1  0  0  0  0
  4  5  2  0  0  0  0
  5  7  1  0  0  0  0
  6 27  1  1  0  0  0
  6  4  1  0  0  0  0
  7  8  1  0  0  0  0
  7  9  2  0  0  0  0
  8 10  1  0  0  0  0
 10 11  1  0  0  0  0
 12 16  1  1  0  0  0
 12 13  1  0  0  0  0
 12 11  1  0  0  0  0
 13 15  1  0  0  0  0
 13 14  2  0  0  0  0
 17 24  1  0  0  0  0
 18 20  1  0  0  0  0
 19 18  1  0  0  0  0
 20 21  1  0  0  0  0
 21 16  1  0  0  0  0
 22 17  1  0  0  0  0
 22 19  2  0  0  0  0
 23 21  2  0  0  0  0
 24 18  2  0  0  0  0
 24 23  1  0  0  0  0
 25 26  1  0  0  0  0
 25 22  1  0  0  0  0
 28 31  1  6  0  0  0
 28 32  1  0  0  0  0
 28 27  1  0  0  0  0
 29 31  1  0  0  0  0
 30 31  2  0  0  0  0
 32 33  1  6  0  0  0
 32 39  1  0  0  0  0
 35 36  1  0  0  0  0
 36 33  1  0  0  0  0
 36 34  2  0  0  0  0
 37 35  1  0  0  0  0
 38 37  1  0  0  0  0
 39 41  1  0  0  0  0
 41 40  2  0  0  0  0
 41 42  1  0  0  0  0
M  END
>  <MODEL>
1

>  <REMARK>
 VINA RESULT:      -6.9      0.000      0.000
  Name = 
  17 active torsions:
  status: ('A' for Active; 'I' for Inactive)
    1  A    between atoms: C_4  and  C_26
    2  A    between atoms: C_6  and  C_15
    3  A    between atoms: C_6  and  C_21
    4  A    between atoms: C_7  and  C_15
    5  A    between atoms: C_7  and  O_38
    6  A    between atoms: C_7  and  C_41
    7  A    between atoms: C_13  and  C_37
    8  A    between atoms: C_14  and  N_28
    9  A    between atoms: C_15  and  C_39
   10  A    between atoms: C_16  and  C_29
   11  A    between atoms: C_22  and  C_36
   12  A    between atoms: N_24  and  N_25
   13  A    between atoms: N_25  and  C_27
   14  A    between atoms: C_27  and  C_37
   15  A    between atoms: C_33  and  O_38
   16  A    between atoms: C_36  and  C_37
   17  A    between atoms: C_39  and  C_42
                            x       y       z     vdW  Elec       q    Type
                         _______ _______ _______ _____ _____    ______ ____

>  <TORSDO>
F 17

$$$$
=
 OpenBabel11072411223D

 42 44  0  0  1  0  0  0  0  0999 V2000
  160.6010  204.0960  152.1060 C   0  0  0  0  0  2  0  0  0  0  0  0
  161.2380  204.6600  153.3000 N   0  0  0  0  0  0  0  0  0  0  0  0
  161.5450  205.9210  153.3950 C   0  0  0  0  0  3  0  0  0  0  0  0
  161.0970  206.3280  151.0430 C   0  0  0  0  0  3  0  0  0  0  0  0
  161.3520  206.8400  152.2530 C   0  0  0  0  0  0  0  0  0  0  0  0
  161.0700  204.8350  150.8400 C   0  0  2  0  0  3  0  0  0  0  0  0
  161.4220  208.2970  152.4490 C   0  0  0  0  0  0  0  0  0  0  0  0
  160.5580  208.9340  153.3950 N   0  0  0  0  0  2  0  0  0  0  0  0
  162.2390  208.9900  151.7820 O   0  0  0  0  0  0  0  0  0  0  0  0
  160.5500  210.3260  153.5580 N   0  0  0  0  0  2  0  0  0  0  0  0
  159.3710  210.8340  152.8690 C   0  0  0  0  0  2  0  0  0  0  0  0
  158.5670  211.7760  153.7590 C   0  0  1  0  0  3  0  0  0  0  0  0
  158.8000  211.4970  155.2140 C   0  0  0  0  0  0  0  0  0  0  0  0
  159.3690  212.3260  155.9040 O   0  0  0  0  0  0  0  0  0  0  0  0
  158.3640  210.3380  155.7750 F   0  0  0  0  0  0  0  0  0  0  0  0
  158.8480  213.2330  153.4100 C   0  0  0  0  0  2  0  0  0  0  0  0
  159.6850  214.3710  148.3500 S   0  0  0  0  0  0  0  0  0  0  0  0
  158.0550  213.4060  149.9690 C   0  0  0  0  0  0  0  0  0  0  0  0
  157.3770  213.2760  148.7630 C   0  0  0  0  0  3  0  0  0  0  0  0
  157.7460  213.0850  151.1930 O   0  0  0  0  0  0  0  0  0  0  0  0
  158.7840  213.4460  151.9350 C   0  0  0  0  0  0  0  0  0  0  0  0
  158.1890  213.7970  147.7420 C   0  0  0  0  0  0  0  0  0  0  0  0
  159.8180  214.0220  151.1750 C   0  0  0  0  0  3  0  0  0  0  0  0
  159.2710  213.9590  149.9170 C   0  0  0  0  0  0  0  0  0  0  0  0
  157.8200  213.7940  146.3000 C   0  0  0  0  0  2  0  0  0  0  0  0
  157.1500  212.4830  145.9400 C   0  0  0  0  0  1  0  0  0  0  0  0
  160.3890  204.4470  149.6620 O   0  0  0  0  0  0  0  0  0  0  0  0
  161.1750  203.5170  148.9480 C   0  0  1  0  0  3  0  0  0  0  0  0
  159.3680  201.7940  148.9610 O   0  0  0  0  0  0  0  0  0  0  0  0
  161.4680  201.2620  149.7080 O   0  0  0  0  0  1  0  0  0  0  0  0
  160.6870  202.1290  149.2320 C   0  0  0  0  0  0  0  0  0  0  0  0
  161.1460  203.8030  147.4380 C   0  0  1  0  0  3  0  0  0  0  0  0
  162.0030  205.0090  147.0680 C   0  0  0  0  0  2  0  0  0  0  0  0
  160.3010  206.0180  145.7390 O   0  0  0  0  0  0  0  0  0  0  0  0
  161.2850  207.4480  147.2800 N   0  0  0  0  0  2  0  0  0  0  0  0
  161.1450  206.1650  146.6610 C   0  0  0  0  0  0  0  0  0  0  0  0
  162.2840  207.7440  148.2970 C   0  0  0  0  0  2  0  0  0  0  0  0
  162.1690  209.1910  148.7330 C   0  0  0  0  0  1  0  0  0  0  0  0
  161.6600  202.6010  146.6560 C   0  0  0  0  0  2  0  0  0  0  0  0
  160.3320  203.1570  144.7540 O   0  0  0  0  0  0  0  0  0  0  0  0
  160.7350  202.2580  145.5390 C   0  0  0  0  0  0  0  0  0  0  0  0
  160.3150  200.9470  145.3630 O   0  0  0  0  0  1  0  0  0  0  0  0
  1  2  1  0  0  0  0
  2  3  2  0  0  0  0
  4  5  2  0  0  0  0
  5  7  1  0  0  0  0
  5  3  1  0  0  0  0
  6 27  1  6  0  0  0
  6  4  1  0  0  0  0
  6  1  1  0  0  0  0
  7  8  1  0  0  0  0
  8 10  1  0  0  0  0
  9  7  2  0  0  0  0
 11 10  1  0  0  0  0
 12 11  1  6  0  0  0
 12 13  1  0  0  0  0
 13 15  1  0  0  0  0
 13 14  2  0  0  0  0
 16 12  1  0  0  0  0
 17 24  1  0  0  0  0
 18 20  1  0  0  0  0
 19 18  1  0  0  0  0
 20 21  1  0  0  0  0
 21 16  1  0  0  0  0
 22 17  1  0  0  0  0
 22 19  2  0  0  0  0
 23 21  2  0  0  0  0
 24 18  2  0  0  0  0
 24 23  1  0  0  0  0
 25 22  1  0  0  0  0
 26 25  1  0  0  0  0
 28 31  1  6  0  0  0
 28 27  1  0  0  0  0
 29 31  2  0  0  0  0
 31 30  1  0  0  0  0
 32 39  1  6  0  0  0
 32 28  1  0  0  0  0
 33 32  1  0  0  0  0
 34 36  2  0  0  0  0
 35 37  1  0  0  0  0
 36 33  1  0  0  0  0
 36 35  1  0  0  0  0
 37 38  1  0  0  0  0
 40 41  2  0  0  0  0
 41 39  1  0  0  0  0
 42 41  1  0  0  0  0
M  END
>  <MODEL>
2

>  <REMARK>
 VINA RESULT:      -6.8      2.235      4.293
  Name = 
  17 active torsions:
  status: ('A' for Active; 'I' for Inactive)
    1  A    between atoms: C_4  and  C_26
    2  A    between atoms: C_6  and  C_15
    3  A    between atoms: C_6  and  C_21
    4  A    between atoms: C_7  and  C_15
    5  A    between atoms: C_7  and  O_38
    6  A    between atoms: C_7  and  C_41
    7  A    between atoms: C_13  and  C_37
    8  A    between atoms: C_14  and  N_28
    9  A    between atoms: C_15  and  C_39
   10  A    between atoms: C_16  and  C_29
   11  A    between atoms: C_22  and  C_36
   12  A    between atoms: N_24  and  N_25
   13  A    between atoms: N_25  and  C_27
   14  A    between atoms: C_27  and  C_37
   15  A    between atoms: C_33  and  O_38
   16  A    between atoms: C_36  and  C_37
   17  A    between atoms: C_39  and  C_42
                            x       y       z     vdW  Elec       q    Type
                         _______ _______ _______ _____ _____    ______ ____

>  <TORSDO>
F 17

$$$$
=
 OpenBabel11072411223D

 42 44  0  0  1  0  0  0  0  0999 V2000
  160.7430  206.2600  153.2650 C   0  0  0  0  0  2  0  0  0  0  0  0
  161.3040  207.3820  154.0230 N   0  0  0  0  0  0  0  0  0  0  0  0
  161.5280  208.5440  153.4830 C   0  0  0  0  0  3  0  0  0  0  0  0
  161.1330  207.7070  151.2380 C   0  0  0  0  0  3  0  0  0  0  0  0
  161.3150  208.7650  152.0370 C   0  0  0  0  0  0  0  0  0  0  0  0
  161.2070  206.3110  151.7980 C   0  0  2  0  0  3  0  0  0  0  0  0
  161.2870  210.1310  151.4870 C   0  0  0  0  0  0  0  0  0  0  0  0
  161.8720  210.3990  150.2090 N   0  0  0  0  0  2  0  0  0  0  0  0
  160.7540  211.0700  152.1410 O   0  0  0  0  0  0  0  0  0  0  0  0
  161.9250  211.6980  149.6860 N   0  0  0  0  0  2  0  0  0  0  0  0
  162.3260  211.5850  148.2900 C   0  0  0  0  0  2  0  0  0  0  0  0
  161.5440  212.5510  147.4060 C   0  0  1  0  0  3  0  0  0  0  0  0
  160.6970  213.4840  148.2180 C   0  0  0  0  0  0  0  0  0  0  0  0
  161.2090  214.4500  148.7580 O   0  0  0  0  0  0  0  0  0  0  0  0
  159.3590  213.2750  148.3410 F   0  0  0  0  0  0  0  0  0  0  0  0
  162.4740  213.3060  146.4630 C   0  0  0  0  0  2  0  0  0  0  0  0
  162.3330  212.6170  141.2570 S   0  0  0  0  0  0  0  0  0  0  0  0
  161.0220  212.4130  143.3660 C   0  0  0  0  0  0  0  0  0  0  0  0
  160.1140  211.9620  142.4160 C   0  0  0  0  0  3  0  0  0  0  0  0
  160.9500  212.5480  144.6600 O   0  0  0  0  0  0  0  0  0  0  0  0
  162.1270  213.0260  145.0400 C   0  0  0  0  0  0  0  0  0  0  0  0
  160.7260  212.0310  141.1540 C   0  0  0  0  0  0  0  0  0  0  0  0
  163.0110  213.2100  143.9610 C   0  0  0  0  0  3  0  0  0  0  0  0
  162.2230  212.7910  142.9170 C   0  0  0  0  0  0  0  0  0  0  0  0
  160.0800  211.5900  139.8880 C   0  0  0  0  0  2  0  0  0  0  0  0
  160.6670  212.3510  138.7150 C   0  0  0  0  0  1  0  0  0  0  0  0
  160.5900  205.3450  150.9670 O   0  0  0  0  0  0  0  0  0  0  0  0
  161.5270  204.3430  150.6350 C   0  0  1  0  0  3  0  0  0  0  0  0
  160.1860  203.0290  152.2810 O   0  0  0  0  0  1  0  0  0  0  0  0
  162.2930  202.3380  151.7030 O   0  0  0  0  0  0  0  0  0  0  0  0
  161.3670  203.1810  151.5670 C   0  0  0  0  0  0  0  0  0  0  0  0
  161.3680  203.8910  149.1740 C   0  0  1  0  0  3  0  0  0  0  0  0
  160.3590  202.7560  149.0330 C   0  0  0  0  0  2  0  0  0  0  0  0
  161.4790  200.6680  149.2940 O   0  0  0  0  0  0  0  0  0  0  0  0
  161.1610  201.3140  147.0870 N   0  0  0  0  0  2  0  0  0  0  0  0
  161.0180  201.5240  148.4950 C   0  0  0  0  0  0  0  0  0  0  0  0
  160.7350  202.2790  146.0830 C   0  0  0  0  0  2  0  0  0  0  0  0
  159.9230  201.5860  145.0080 C   0  0  0  0  0  1  0  0  0  0  0  0
  160.8990  205.0500  148.3040 C   0  0  0  0  0  2  0  0  0  0  0  0
  162.3370  206.9160  147.9280 O   0  0  0  0  0  1  0  0  0  0  0  0
  162.0540  205.7220  147.6440 C   0  0  0  0  0  0  0  0  0  0  0  0
  162.8190  205.0310  146.7150 O   0  0  0  0  0  0  0  0  0  0  0  0
  1  2  1  0  0  0  0
  3  2  2  0  0  0  0
  4  6  1  0  0  0  0
  4  5  2  0  0  0  0
  5  3  1  0  0  0  0
  6 27  1  6  0  0  0
  6  1  1  0  0  0  0
  7  5  1  0  0  0  0
  7  9  2  0  0  0  0
  8  7  1  0  0  0  0
 10  8  1  0  0  0  0
 11 10  1  0  0  0  0
 12 16  1  1  0  0  0
 12 13  1  0  0  0  0
 12 11  1  0  0  0  0
 13 15  1  0  0  0  0
 13 14  2  0  0  0  0
 17 24  1  0  0  0  0
 18 20  1  0  0  0  0
 19 18  1  0  0  0  0
 20 21  1  0  0  0  0
 21 16  1  0  0  0  0
 22 17  1  0  0  0  0
 22 19  2  0  0  0  0
 23 21  2  0  0  0  0
 24 18  2  0  0  0  0
 24 23  1  0  0  0  0
 25 22  1  0  0  0  0
 26 25  1  0  0  0  0
 28 27  1  1  0  0  0
 28 31  1  0  0  0  0
 31 30  2  0  0  0  0
 31 29  1  0  0  0  0
 32 39  1  6  0  0  0
 32 28  1  0  0  0  0
 33 32  1  0  0  0  0
 35 36  1  0  0  0  0
 36 33  1  0  0  0  0
 36 34  2  0  0  0  0
 37 35  1  0  0  0  0
 38 37  1  0  0  0  0
 41 40  1  0  0  0  0
 41 39  1  0  0  0  0
 42 41  2  0  0  0  0
M  END
>  <MODEL>
3

>  <REMARK>
 VINA RESULT:      -6.7      3.458      5.862
  Name = 
  17 active torsions:
  status: ('A' for Active; 'I' for Inactive)
    1  A    between atoms: C_4  and  C_26
    2  A    between atoms: C_6  and  C_15
    3  A    between atoms: C_6  and  C_21
    4  A    between atoms: C_7  and  C_15
    5  A    between atoms: C_7  and  O_38
    6  A    between atoms: C_7  and  C_41
    7  A    between atoms: C_13  and  C_37
    8  A    between atoms: C_14  and  N_28
    9  A    between atoms: C_15  and  C_39
   10  A    between atoms: C_16  and  C_29
   11  A    between atoms: C_22  and  C_36
   12  A    between atoms: N_24  and  N_25
   13  A    between atoms: N_25  and  C_27
   14  A    between atoms: C_27  and  C_37
   15  A    between atoms: C_33  and  O_38
   16  A    between atoms: C_36  and  C_37
   17  A    between atoms: C_39  and  C_42
                            x       y       z     vdW  Elec       q    Type
                         _______ _______ _______ _____ _____    ______ ____

>  <TORSDO>
F 17

$$$$
=
 OpenBabel11072411223D

 42 44  0  0  1  0  0  0  0  0999 V2000
  162.5320  207.6770  148.3340 C   0  0  0  0  0  2  0  0  0  0  0  0
  162.0920  208.8860  149.0370 N   0  0  0  0  0  0  0  0  0  0  0  0
  161.5890  208.8490  150.2370 C   0  0  0  0  0  3  0  0  0  0  0  0
  161.4070  206.4280  150.2130 C   0  0  0  0  0  3  0  0  0  0  0  0
  161.3460  207.5610  150.9210 C   0  0  0  0  0  0  0  0  0  0  0  0
  161.6600  206.4720  148.7280 C   0  0  2  0  0  3  0  0  0  0  0  0
  161.0570  207.5260  152.3640 C   0  0  0  0  0  0  0  0  0  0  0  0
  160.8190  208.7450  153.0750 N   0  0  0  0  0  2  0  0  0  0  0  0
  161.0220  206.4250  152.9800 O   0  0  0  0  0  0  0  0  0  0  0  0
  160.6090  208.7550  154.4610 N   0  0  0  0  0  2  0  0  0  0  0  0
  160.7540  210.1340  154.9090 C   0  0  0  0  0  2  0  0  0  0  0  0
  159.4810  210.9370  154.6640 C   0  0  1  0  0  3  0  0  0  0  0  0
  158.5150  210.8060  155.8030 C   0  0  0  0  0  0  0  0  0  0  0  0
  158.9190  210.8870  156.9510 O   0  0  0  0  0  0  0  0  0  0  0  0
  157.1890  210.6170  155.5670 F   0  0  0  0  0  0  0  0  0  0  0  0
  159.8020  212.3960  154.3600 C   0  0  0  0  0  2  0  0  0  0  0  0
  157.0820  213.8030  150.0920 S   0  0  0  0  0  0  0  0  0  0  0  0
  159.3540  213.2700  150.9640 C   0  0  0  0  0  0  0  0  0  0  0  0
  159.6170  213.5640  149.6320 C   0  0  0  0  0  3  0  0  0  0  0  0
  160.1210  212.9220  151.9580 O   0  0  0  0  0  0  0  0  0  0  0  0
  159.3170  212.7740  153.0010 C   0  0  0  0  0  0  0  0  0  0  0  0
  158.4020  213.8800  149.0020 C   0  0  0  0  0  0  0  0  0  0  0  0
  157.9700  213.0360  152.6890 C   0  0  0  0  0  3  0  0  0  0  0  0
  158.0780  213.3510  151.3570 C   0  0  0  0  0  0  0  0  0  0  0  0
  158.2830  214.2930  147.5770 C   0  0  0  0  0  2  0  0  0  0  0  0
  157.1050  213.5910  146.9320 C   0  0  0  0  0  1  0  0  0  0  0  0
  162.1140  205.2390  148.2040 O   0  0  0  0  0  0  0  0  0  0  0  0
  161.1930  204.7670  147.2430 C   0  0  1  0  0  3  0  0  0  0  0  0
  162.5120  205.8510  145.4210 O   0  0  0  0  0  0  0  0  0  0  0  0
  160.2370  206.1130  145.5050 O   0  0  0  0  0  1  0  0  0  0  0  0
  161.2780  205.6170  146.0120 C   0  0  0  0  0  0  0  0  0  0  0  0
  161.4490  203.2900  146.9010 C   0  0  1  0  0  3  0  0  0  0  0  0
  160.3960  202.3710  147.5110 C   0  0  0  0  0  2  0  0  0  0  0  0
  161.4800  200.3020  147.9870 O   0  0  0  0  0  0  0  0  0  0  0  0
  161.1020  201.6360  149.8490 N   0  0  0  0  0  2  0  0  0  0  0  0
  161.0280  201.3850  148.4420 C   0  0  0  0  0  0  0  0  0  0  0  0
  160.5390  202.8170  150.4850 C   0  0  0  0  0  2  0  0  0  0  0  0
  161.2420  203.0850  151.8020 C   0  0  0  0  0  1  0  0  0  0  0  0
  161.4410  203.0820  145.3920 C   0  0  0  0  0  2  0  0  0  0  0  0
  159.2180  202.9880  144.5300 O   0  0  0  0  0  0  0  0  0  0  0  0
  160.2150  202.3510  144.9630 C   0  0  0  0  0  0  0  0  0  0  0  0
  160.1700  200.9660  145.0410 O   0  0  0  0  0  1  0  0  0  0  0  0
  1  6  1  0  0  0  0
  1  2  1  0  0  0  0
  2  3  2  0  0  0  0
  3  5  1  0  0  0  0
  4  5  2  0  0  0  0
  5  7  1  0  0  0  0
  6 27  1  1  0  0  0
  6  4  1  0  0  0  0
  7  9  2  0  0  0  0
  7  8  1  0  0  0  0
  8 10  1  0  0  0  0
 10 11  1  0  0  0  0
 12 16  1  1  0  0  0
 12 11  1  0  0  0  0
 12 13  1  0  0  0  0
 13 14  2  0  0  0  0
 15 13  1  0  0  0  0
 17 24  1  0  0  0  0
 18 24  2  0  0  0  0
 18 20  1  0  0  0  0
 19 18  1  0  0  0  0
 20 21  1  0  0  0  0
 21 16  1  0  0  0  0
 22 19  2  0  0  0  0
 22 17  1  0  0  0  0
 23 21  2  0  0  0  0
 24 23  1  0  0  0  0
 25 22  1  0  0  0  0
 26 25  1  0  0  0  0
 28 31  1  6  0  0  0
 28 27  1  0  0  0  0
 29 31  2  0  0  0  0
 30 31  1  0  0  0  0
 32 39  1  6  0  0  0
 32 28  1  0  0  0  0
 32 33  1  0  0  0  0
 33 36  1  0  0  0  0
 34 36  2  0  0  0  0
 35 37  1  0  0  0  0
 36 35  1  0  0  0  0
 37 38  1  0  0  0  0
 40 41  2  0  0  0  0
 41 42  1  0  0  0  0
 41 39  1  0  0  0  0
M  END
>  <MODEL>
4

>  <REMARK>
 VINA RESULT:      -6.7      1.914      3.519
  Name = 
  17 active torsions:
  status: ('A' for Active; 'I' for Inactive)
    1  A    between atoms: C_4  and  C_26
    2  A    between atoms: C_6  and  C_15
    3  A    between atoms: C_6  and  C_21
    4  A    between atoms: C_7  and  C_15
    5  A    between atoms: C_7  and  O_38
    6  A    between atoms: C_7  and  C_41
    7  A    between atoms: C_13  and  C_37
    8  A    between atoms: C_14  and  N_28
    9  A    between atoms: C_15  and  C_39
   10  A    between atoms: C_16  and  C_29
   11  A    between atoms: C_22  and  C_36
   12  A    between atoms: N_24  and  N_25
   13  A    between atoms: N_25  and  C_27
   14  A    between atoms: C_27  and  C_37
   15  A    between atoms: C_33  and  O_38
   16  A    between atoms: C_36  and  C_37
   17  A    between atoms: C_39  and  C_42
                            x       y       z     vdW  Elec       q    Type
                         _______ _______ _______ _____ _____    ______ ____

>  <TORSDO>
F 17

$$$$
=
 OpenBabel11072411223D

 42 44  0  0  1  0  0  0  0  0999 V2000
  160.9390  205.8980  153.1160 C   0  0  0  0  0  2  0  0  0  0  0  0
  161.7130  206.9110  153.8410 N   0  0  0  0  0  0  0  0  0  0  0  0
  161.9260  208.1010  153.3590 C   0  0  0  0  0  3  0  0  0  0  0  0
  161.0690  207.4950  151.1690 C   0  0  0  0  0  3  0  0  0  0  0  0
  161.4740  208.4630  151.9990 C   0  0  0  0  0  0  0  0  0  0  0  0
  161.1340  206.0520  151.5970 C   0  0  2  0  0  3  0  0  0  0  0  0
  161.4540  209.8720  151.5710 C   0  0  0  0  0  0  0  0  0  0  0  0
  161.9370  210.2310  150.2720 N   0  0  0  0  0  2  0  0  0  0  0  0
  161.0170  210.7670  152.3460 O   0  0  0  0  0  0  0  0  0  0  0  0
  161.9970  211.5690  149.8580 N   0  0  0  0  0  2  0  0  0  0  0  0
  162.3170  211.5650  148.4360 C   0  0  0  0  0  2  0  0  0  0  0  0
  161.5110  212.6170  147.6810 C   0  0  1  0  0  3  0  0  0  0  0  0
  160.7510  213.5090  148.6160 C   0  0  0  0  0  0  0  0  0  0  0  0
  159.5400  213.3980  148.7060 O   0  0  0  0  0  0  0  0  0  0  0  0
  161.4010  214.4270  149.3790 F   0  0  0  0  0  0  0  0  0  0  0  0
  162.4010  213.4160  146.7360 C   0  0  0  0  0  2  0  0  0  0  0  0
  162.3970  212.4570  141.5710 S   0  0  0  0  0  0  0  0  0  0  0  0
  160.9840  212.5240  143.6220 C   0  0  0  0  0  0  0  0  0  0  0  0
  160.0700  212.1280  142.6540 C   0  0  0  0  0  3  0  0  0  0  0  0
  160.8750  212.7390  144.9020 O   0  0  0  0  0  0  0  0  0  0  0  0
  162.0830  213.0980  145.3140 C   0  0  0  0  0  0  0  0  0  0  0  0
  160.7380  212.0550  141.4210 C   0  0  0  0  0  0  0  0  0  0  0  0
  163.0270  213.1180  144.2710 C   0  0  0  0  0  3  0  0  0  0  0  0
  162.2400  212.7350  143.2120 C   0  0  0  0  0  0  0  0  0  0  0  0
  160.0980  211.6220  140.1490 C   0  0  0  0  0  2  0  0  0  0  0  0
  158.6570  212.0920  140.1090 C   0  0  0  0  0  1  0  0  0  0  0  0
  160.3040  205.2050  150.8230 O   0  0  0  0  0  0  0  0  0  0  0  0
  161.1040  204.2920  150.1030 C   0  0  1  0  0  3  0  0  0  0  0  0
  161.8630  202.5890  151.7640 O   0  0  0  0  0  1  0  0  0  0  0  0
  160.1380  202.1110  150.3340 O   0  0  0  0  0  0  0  0  0  0  0  0
  161.0030  202.9360  150.7310 C   0  0  0  0  0  0  0  0  0  0  0  0
  160.6940  204.2360  148.6220 C   0  0  1  0  0  3  0  0  0  0  0  0
  160.4160  205.6240  148.0530 C   0  0  0  0  0  2  0  0  0  0  0  0
  162.6240  206.5190  148.0980 O   0  0  0  0  0  0  0  0  0  0  0  0
  161.6970  206.3660  145.9760 N   0  0  0  0  0  2  0  0  0  0  0  0
  161.6380  206.1810  147.3930 C   0  0  0  0  0  0  0  0  0  0  0  0
  160.5840  206.0830  145.0820 C   0  0  0  0  0  2  0  0  0  0  0  0
  161.0080  205.0850  144.0220 C   0  0  0  0  0  1  0  0  0  0  0  0
  161.7940  203.5950  147.7860 C   0  0  0  0  0  2  0  0  0  0  0  0
  160.9260  202.5290  145.8370 O   0  0  0  0  0  0  0  0  0  0  0  0
  161.2760  202.4130  147.0410 C   0  0  0  0  0  0  0  0  0  0  0  0
  161.1780  201.1820  147.6750 O   0  0  0  0  0  1  0  0  0  0  0  0
  1  2  1  0  0  0  0
  3  2  2  0  0  0  0
  4  6  1  0  0  0  0
  4  5  2  0  0  0  0
  5  3  1  0  0  0  0
  6 27  1  6  0  0  0
  6  1  1  0  0  0  0
  7  5  1  0  0  0  0
  7  9  2  0  0  0  0
  8  7  1  0  0  0  0
 10  8  1  0  0  0  0
 11 10  1  0  0  0  0
 12 16  1  1  0  0  0
 12 11  1  0  0  0  0
 12 13  1  0  0  0  0
 13 14  2  0  0  0  0
 13 15  1  0  0  0  0
 17 24  1  0  0  0  0
 18 20  1  0  0  0  0
 19 18  1  0  0  0  0
 20 21  1  0  0  0  0
 21 16  1  0  0  0  0
 22 17  1  0  0  0  0
 22 19  2  0  0  0  0
 23 21  2  0  0  0  0
 24 18  2  0  0  0  0
 24 23  1  0  0  0  0
 25 22  1  0  0  0  0
 26 25  1  0  0  0  0
 28 31  1  1  0  0  0
 28 27  1  0  0  0  0
 30 31  2  0  0  0  0
 31 29  1  0  0  0  0
 32 39  1  6  0  0  0
 32 28  1  0  0  0  0
 33 32  1  0  0  0  0
 35 36  1  0  0  0  0
 36 33  1  0  0  0  0
 36 34  2  0  0  0  0
 37 35  1  0  0  0  0
 38 37  1  0  0  0  0
 40 41  2  0  0  0  0
 41 42  1  0  0  0  0
 41 39  1  0  0  0  0
M  END
>  <MODEL>
5

>  <REMARK>
 VINA RESULT:      -6.6      3.601      5.922
  Name = 
  17 active torsions:
  status: ('A' for Active; 'I' for Inactive)
    1  A    between atoms: C_4  and  C_26
    2  A    between atoms: C_6  and  C_15
    3  A    between atoms: C_6  and  C_21
    4  A    between atoms: C_7  and  C_15
    5  A    between atoms: C_7  and  O_38
    6  A    between atoms: C_7  and  C_41
    7  A    between atoms: C_13  and  C_37
    8  A    between atoms: C_14  and  N_28
    9  A    between atoms: C_15  and  C_39
   10  A    between atoms: C_16  and  C_29
   11  A    between atoms: C_22  and  C_36
   12  A    between atoms: N_24  and  N_25
   13  A    between atoms: N_25  and  C_27
   14  A    between atoms: C_27  and  C_37
   15  A    between atoms: C_33  and  O_38
   16  A    between atoms: C_36  and  C_37
   17  A    between atoms: C_39  and  C_42
                            x       y       z     vdW  Elec       q    Type
                         _______ _______ _______ _____ _____    ______ ____

>  <TORSDO>
F 17

$$$$
=
 OpenBabel11072411223D

 42 44  0  0  1  0  0  0  0  0999 V2000
  160.5270  203.5880  151.7130 C   0  0  0  0  0  2  0  0  0  0  0  0
  161.0990  204.0200  152.9910 N   0  0  0  0  0  0  0  0  0  0  0  0
  161.4090  205.2620  153.2310 C   0  0  0  0  0  3  0  0  0  0  0  0
  161.0980  205.9090  150.9110 C   0  0  0  0  0  3  0  0  0  0  0  0
  161.2870  206.2930  152.1790 C   0  0  0  0  0  0  0  0  0  0  0  0
  161.0730  204.4440  150.5570 C   0  0  2  0  0  3  0  0  0  0  0  0
  161.3560  207.7230  152.5250 C   0  0  0  0  0  0  0  0  0  0  0  0
  162.0130  208.6400  151.6440 N   0  0  0  0  0  2  0  0  0  0  0  0
  160.8420  208.1430  153.5980 O   0  0  0  0  0  0  0  0  0  0  0  0
  162.1570  209.9940  151.9740 N   0  0  0  0  0  2  0  0  0  0  0  0
  161.7150  210.7680  150.8200 C   0  0  0  0  0  2  0  0  0  0  0  0
  160.4080  211.4990  151.1070 C   0  0  1  0  0  3  0  0  0  0  0  0
  160.0190  211.3940  152.5520 C   0  0  0  0  0  0  0  0  0  0  0  0
  158.9820  210.8310  152.8590 O   0  0  0  0  0  0  0  0  0  0  0  0
  160.8230  211.9020  153.5230 F   0  0  0  0  0  0  0  0  0  0  0  0
  160.4780  212.9500  150.6450 C   0  0  0  0  0  2  0  0  0  0  0  0
  160.6040  213.4490  145.4170 S   0  0  0  0  0  0  0  0  0  0  0  0
  161.9880  213.0510  147.4500 C   0  0  0  0  0  0  0  0  0  0  0  0
  162.9430  213.0280  146.4410 C   0  0  0  0  0  3  0  0  0  0  0  0
  162.0680  212.9100  148.7420 O   0  0  0  0  0  0  0  0  0  0  0  0
  160.8280  213.0270  149.1970 C   0  0  0  0  0  0  0  0  0  0  0  0
  162.2920  213.2340  145.2140 C   0  0  0  0  0  0  0  0  0  0  0  0
  159.8950  213.2570  148.1700 C   0  0  0  0  0  3  0  0  0  0  0  0
  160.7220  213.2600  147.0740 C   0  0  0  0  0  0  0  0  0  0  0  0
  162.9910  213.3190  143.9020 C   0  0  0  0  0  2  0  0  0  0  0  0
  162.0010  213.6700  142.8100 C   0  0  0  0  0  1  0  0  0  0  0  0
  160.4560  204.1840  149.3090 O   0  0  0  0  0  0  0  0  0  0  0  0
  161.2000  203.2090  148.6110 C   0  0  1  0  0  3  0  0  0  0  0  0
  161.4370  200.7850  149.1610 O   0  0  0  0  0  1  0  0  0  0  0  0
  159.3590  201.6850  148.8070 O   0  0  0  0  0  0  0  0  0  0  0  0
  160.6060  201.8560  148.8600 C   0  0  0  0  0  0  0  0  0  0  0  0
  161.2440  203.5120  147.1040 C   0  0  1  0  0  3  0  0  0  0  0  0
  162.3400  204.5130  146.7540 C   0  0  0  0  0  2  0  0  0  0  0  0
  161.8580  205.4870  144.6320 O   0  0  0  0  0  0  0  0  0  0  0  0
  161.2510  206.8000  146.4480 N   0  0  0  0  0  2  0  0  0  0  0  0
  161.8020  205.6060  145.8840 C   0  0  0  0  0  0  0  0  0  0  0  0
  161.2130  207.0700  147.8780 C   0  0  0  0  0  2  0  0  0  0  0  0
  162.3520  207.9930  148.2640 C   0  0  0  0  0  1  0  0  0  0  0  0
  161.4980  202.2370  146.3100 C   0  0  0  0  0  2  0  0  0  0  0  0
  159.9380  203.0510  144.7000 O   0  0  0  0  0  0  0  0  0  0  0  0
  160.4590  202.0500  145.2580 C   0  0  0  0  0  0  0  0  0  0  0  0
  160.0650  200.7710  144.8930 O   0  0  0  0  0  1  0  0  0  0  0  0
  1  2  1  0  0  0  0
  2  3  2  0  0  0  0
  4  5  2  0  0  0  0
  5  7  1  0  0  0  0
  5  3  1  0  0  0  0
  6 27  1  6  0  0  0
  6  4  1  0  0  0  0
  6  1  1  0  0  0  0
  7  9  2  0  0  0  0
  8 10  1  0  0  0  0
  8  7  1  0  0  0  0
 11 12  1  0  0  0  0
 11 10  1  0  0  0  0
 12 16  1  1  0  0  0
 12 13  1  0  0  0  0
 13 14  2  0  0  0  0
 13 15  1  0  0  0  0
 17 24  1  0  0  0  0
 18 20  1  0  0  0  0
 19 18  1  0  0  0  0
 20 21  1  0  0  0  0
 21 16  1  0  0  0  0
 22 17  1  0  0  0  0
 22 19  2  0  0  0  0
 23 21  2  0  0  0  0
 24 18  2  0  0  0  0
 24 23  1  0  0  0  0
 25 22  1  0  0  0  0
 26 25  1  0  0  0  0
 28 31  1  6  0  0  0
 28 27  1  0  0  0  0
 30 31  2  0  0  0  0
 31 29  1  0  0  0  0
 32 39  1  6  0  0  0
 32 28  1  0  0  0  0
 33 32  1  0  0  0  0
 34 36  2  0  0  0  0
 35 37  1  0  0  0  0
 36 35  1  0  0  0  0
 36 33  1  0  0  0  0
 37 38  1  0  0  0  0
 40 41  2  0  0  0  0
 41 39  1  0  0  0  0
 42 41  1  0  0  0  0
M  END
>  <MODEL>
6

>  <REMARK>
 VINA RESULT:      -6.5      2.679      4.956
  Name = 
  17 active torsions:
  status: ('A' for Active; 'I' for Inactive)
    1  A    between atoms: C_4  and  C_26
    2  A    between atoms: C_6  and  C_15
    3  A    between atoms: C_6  and  C_21
    4  A    between atoms: C_7  and  C_15
    5  A    between atoms: C_7  and  O_38
    6  A    between atoms: C_7  and  C_41
    7  A    between atoms: C_13  and  C_37
    8  A    between atoms: C_14  and  N_28
    9  A    between atoms: C_15  and  C_39
   10  A    between atoms: C_16  and  C_29
   11  A    between atoms: C_22  and  C_36
   12  A    between atoms: N_24  and  N_25
   13  A    between atoms: N_25  and  C_27
   14  A    between atoms: C_27  and  C_37
   15  A    between atoms: C_33  and  O_38
   16  A    between atoms: C_36  and  C_37
   17  A    between atoms: C_39  and  C_42
                            x       y       z     vdW  Elec       q    Type
                         _______ _______ _______ _____ _____    ______ ____

>  <TORSDO>
F 17

$$$$
=
 OpenBabel11072411223D

 42 44  0  0  1  0  0  0  0  0999 V2000
  161.4260  205.3310  152.2350 C   0  0  0  0  0  2  0  0  0  0  0  0
  160.9380  205.5680  153.5970 N   0  0  0  0  0  0  0  0  0  0  0  0
  160.7780  206.7670  154.0800 C   0  0  0  0  0  3  0  0  0  0  0  0
  161.9300  207.8010  152.2100 C   0  0  0  0  0  3  0  0  0  0  0  0
  161.1750  207.9600  153.3030 C   0  0  0  0  0  0  0  0  0  0  0  0
  162.4170  206.4310  151.8150 C   0  0  2  0  0  3  0  0  0  0  0  0
  160.7330  209.3010  153.7190 C   0  0  0  0  0  0  0  0  0  0  0  0
  160.8370  210.4020  152.8100 N   0  0  0  0  0  2  0  0  0  0  0  0
  160.2670  209.4870  154.8770 O   0  0  0  0  0  0  0  0  0  0  0  0
  160.4900  211.7040  153.1950 N   0  0  0  0  0  2  0  0  0  0  0  0
  159.8430  212.3330  152.0510 C   0  0  0  0  0  2  0  0  0  0  0  0
  158.3780  212.6420  152.3400 C   0  0  1  0  0  3  0  0  0  0  0  0
  158.1230  212.7970  153.8090 C   0  0  0  0  0  0  0  0  0  0  0  0
  158.5850  213.7560  154.4050 O   0  0  0  0  0  0  0  0  0  0  0  0
  157.3650  211.8890  154.4800 F   0  0  0  0  0  0  0  0  0  0  0  0
  157.9090  213.8600  151.5530 C   0  0  0  0  0  2  0  0  0  0  0  0
  158.6430  213.3550  146.3760 S   0  0  0  0  0  0  0  0  0  0  0  0
  159.7150  214.0370  148.5190 C   0  0  0  0  0  0  0  0  0  0  0  0
  160.7320  214.2650  147.6010 C   0  0  0  0  0  3  0  0  0  0  0  0
  159.6400  214.1980  149.8090 O   0  0  0  0  0  0  0  0  0  0  0  0
  158.4170  213.8140  150.1520 C   0  0  0  0  0  0  0  0  0  0  0  0
  160.2630  213.9100  146.3260 C   0  0  0  0  0  0  0  0  0  0  0  0
  157.6560  213.3860  149.0490 C   0  0  0  0  0  3  0  0  0  0  0  0
  158.5630  213.5620  148.0330 C   0  0  0  0  0  0  0  0  0  0  0  0
  161.0560  214.0560  145.0740 C   0  0  0  0  0  2  0  0  0  0  0  0
  162.3370  213.2530  145.1770 C   0  0  0  0  0  1  0  0  0  0  0  0
  162.8200  206.3540  150.4600 O   0  0  0  0  0  0  0  0  0  0  0  0
  161.7820  206.8340  149.6320 C   0  0  1  0  0  3  0  0  0  0  0  0
  163.1170  208.3120  148.1270 O   0  0  0  0  0  0  0  0  0  0  0  0
  161.5730  209.2210  149.5560 O   0  0  0  0  0  1  0  0  0  0  0  0
  162.1460  208.1910  149.1120 C   0  0  0  0  0  0  0  0  0  0  0  0
  161.4990  205.8660  148.4720 C   0  0  1  0  0  3  0  0  0  0  0  0
  160.9900  204.5150  148.9640 C   0  0  0  0  0  2  0  0  0  0  0  0
  162.3910  203.6590  147.2360 O   0  0  0  0  0  0  0  0  0  0  0  0
  161.0780  202.0580  148.2850 N   0  0  0  0  0  2  0  0  0  0  0  0
  161.5350  203.4040  148.1220 C   0  0  0  0  0  0  0  0  0  0  0  0
  160.0350  201.6710  149.2240 C   0  0  0  0  0  2  0  0  0  0  0  0
  160.6550  201.1760  150.5160 C   0  0  0  0  0  1  0  0  0  0  0  0
  160.4530  206.4500  147.5310 C   0  0  0  0  0  2  0  0  0  0  0  0
  162.0260  206.2160  145.7540 O   0  0  0  0  0  1  0  0  0  0  0  0
  160.8180  206.2000  146.1080 C   0  0  0  0  0  0  0  0  0  0  0  0
  159.8250  205.9510  145.1710 O   0  0  0  0  0  0  0  0  0  0  0  0
  1  2  1  0  0  0  0
  2  3  2  0  0  0  0
  4  5  2  0  0  0  0
  5  7  1  0  0  0  0
  5  3  1  0  0  0  0
  6 27  1  6  0  0  0
  6  4  1  0  0  0  0
  6  1  1  0  0  0  0
  7  9  2  0  0  0  0
  8 10  1  0  0  0  0
  8  7  1  0  0  0  0
 11 12  1  0  0  0  0
 11 10  1  0  0  0  0
 12 16  1  6  0  0  0
 12 13  1  0  0  0  0
 13 14  2  0  0  0  0
 13 15  1  0  0  0  0
 17 24  1  0  0  0  0
 18 20  1  0  0  0  0
 19 18  1  0  0  0  0
 20 21  1  0  0  0  0
 21 16  1  0  0  0  0
 22 17  1  0  0  0  0
 22 19  2  0  0  0  0
 23 21  2  0  0  0  0
 24 18  2  0  0  0  0
 24 23  1  0  0  0  0
 25 26  1  0  0  0  0
 25 22  1  0  0  0  0
 28 31  1  6  0  0  0
 28 27  1  0  0  0  0
 29 31  2  0  0  0  0
 31 30  1  0  0  0  0
 32 39  1  6  0  0  0
 32 33  1  0  0  0  0
 32 28  1  0  0  0  0
 34 36  2  0  0  0  0
 35 37  1  0  0  0  0
 36 35  1  0  0  0  0
 36 33  1  0  0  0  0
 37 38  1  0  0  0  0
 40 41  1  0  0  0  0
 41 39  1  0  0  0  0
 42 41  2  0  0  0  0
M  END
>  <MODEL>
7

>  <REMARK>
 VINA RESULT:      -5.8      1.965      3.363
  Name = 
  17 active torsions:
  status: ('A' for Active; 'I' for Inactive)
    1  A    between atoms: C_4  and  C_26
    2  A    between atoms: C_6  and  C_15
    3  A    between atoms: C_6  and  C_21
    4  A    between atoms: C_7  and  C_15
    5  A    between atoms: C_7  and  O_38
    6  A    between atoms: C_7  and  C_41
    7  A    between atoms: C_13  and  C_37
    8  A    between atoms: C_14  and  N_28
    9  A    between atoms: C_15  and  C_39
   10  A    between atoms: C_16  and  C_29
   11  A    between atoms: C_22  and  C_36
   12  A    between atoms: N_24  and  N_25
   13  A    between atoms: N_25  and  C_27
   14  A    between atoms: C_27  and  C_37
   15  A    between atoms: C_33  and  O_38
   16  A    between atoms: C_36  and  C_37
   17  A    between atoms: C_39  and  C_42
                            x       y       z     vdW  Elec       q    Type
                         _______ _______ _______ _____ _____    ______ ____

>  <TORSDO>
F 17

$$$$
=
 OpenBabel11072411223D

 42 44  0  0  1  0  0  0  0  0999 V2000
  162.0020  207.5270  148.6680 C   0  0  0  0  0  2  0  0  0  0  0  0
  162.2740  208.8780  149.1660 N   0  0  0  0  0  0  0  0  0  0  0  0
  161.9520  209.2540  150.3700 C   0  0  0  0  0  3  0  0  0  0  0  0
  160.6350  207.2540  150.7690 C   0  0  0  0  0  3  0  0  0  0  0  0
  161.2020  208.3560  151.2730 C   0  0  0  0  0  0  0  0  0  0  0  0
  160.7100  206.9690  149.2910 C   0  0  2  0  0  3  0  0  0  0  0  0
  161.0940  208.6620  152.7090 C   0  0  0  0  0  0  0  0  0  0  0  0
  160.5710  209.9250  153.1330 N   0  0  0  0  0  2  0  0  0  0  0  0
  161.4670  207.8170  153.5700 O   0  0  0  0  0  0  0  0  0  0  0  0
  160.5180  210.2770  154.4890 N   0  0  0  0  0  2  0  0  0  0  0  0
  160.1620  211.6880  154.5540 C   0  0  0  0  0  2  0  0  0  0  0  0
  158.7000  211.9120  154.1830 C   0  0  1  0  0  3  0  0  0  0  0  0
  157.7780  211.5150  155.2970 C   0  0  0  0  0  0  0  0  0  0  0  0
  157.9790  211.9320  156.4250 O   0  0  0  0  0  0  0  0  0  0  0  0
  156.7080  210.7110  155.0560 F   0  0  0  0  0  0  0  0  0  0  0  0
  158.4620  213.3500  153.7360 C   0  0  0  0  0  2  0  0  0  0  0  0
  159.8350  213.8570  148.6910 S   0  0  0  0  0  0  0  0  0  0  0  0
  157.9260  213.4660  150.2440 C   0  0  0  0  0  0  0  0  0  0  0  0
  157.3030  213.4260  149.0030 C   0  0  0  0  0  3  0  0  0  0  0  0
  157.4790  213.3270  151.4600 O   0  0  0  0  0  0  0  0  0  0  0  0
  158.5340  213.4630  152.2510 C   0  0  0  0  0  0  0  0  0  0  0  0
  158.2750  213.6440  148.0140 C   0  0  0  0  0  0  0  0  0  0  0  0
  159.7220  213.6960  151.5340 C   0  0  0  0  0  3  0  0  0  0  0  0
  159.2450  213.6830  150.2460 C   0  0  0  0  0  0  0  0  0  0  0  0
  157.9970  213.6300  146.5520 C   0  0  0  0  0  2  0  0  0  0  0  0
  157.0920  212.4630  146.2090 C   0  0  0  0  0  1  0  0  0  0  0  0
  160.4590  205.6120  148.9730 O   0  0  0  0  0  0  0  0  0  0  0  0
  161.5780  204.8300  149.3300 C   0  0  1  0  0  3  0  0  0  0  0  0
  160.0090  203.6140  150.8440 O   0  0  0  0  0  0  0  0  0  0  0  0
  162.1990  203.9070  151.4540 O   0  0  0  0  0  1  0  0  0  0  0  0
  161.2880  204.0960  150.6030 C   0  0  0  0  0  0  0  0  0  0  0  0
  161.9510  203.8450  148.2100 C   0  0  1  0  0  3  0  0  0  0  0  0
  160.7260  203.1430  147.6330 C   0  0  0  0  0  2  0  0  0  0  0  0
  160.9520  201.1830  148.9700 O   0  0  0  0  0  0  0  0  0  0  0  0
  160.8240  200.7760  146.6890 N   0  0  0  0  0  2  0  0  0  0  0  0
  160.8300  201.6610  147.8130 C   0  0  0  0  0  0  0  0  0  0  0  0
  160.7690  201.2310  145.3070 C   0  0  0  0  0  2  0  0  0  0  0  0
  159.3280  201.4390  144.8850 C   0  0  0  0  0  1  0  0  0  0  0  0
  162.6580  204.5720  147.0730 C   0  0  0  0  0  2  0  0  0  0  0  0
  161.8120  204.0720  144.8990 O   0  0  0  0  0  0  0  0  0  0  0  0
  161.7310  204.7950  145.9270 C   0  0  0  0  0  0  0  0  0  0  0  0
  160.7760  205.8000  145.9920 O   0  0  0  0  0  1  0  0  0  0  0  0
  1  2  1  0  0  0  0
  1  6  1  0  0  0  0
  2  3  2  0  0  0  0
  3  5  1  0  0  0  0
  4  5  2  0  0  0  0
  5  7  1  0  0  0  0
  6 27  1  1  0  0  0
  6  4  1  0  0  0  0
  7  8  1  0  0  0  0
  7  9  2  0  0  0  0
  8 10  1  0  0  0  0
 10 11  1  0  0  0  0
 12 16  1  1  0  0  0
 12 11  1  0  0  0  0
 12 13  1  0  0  0  0
 13 14  2  0  0  0  0
 15 13  1  0  0  0  0
 17 24  1  0  0  0  0
 18 24  2  0  0  0  0
 18 20  1  0  0  0  0
 19 18  1  0  0  0  0
 20 21  1  0  0  0  0
 21 16  1  0  0  0  0
 22 17  1  0  0  0  0
 22 19  2  0  0  0  0
 23 21  2  0  0  0  0
 24 23  1  0  0  0  0
 25 22  1  0  0  0  0
 26 25  1  0  0  0  0
 28 27  1  6  0  0  0
 28 31  1  0  0  0  0
 31 29  2  0  0  0  0
 31 30  1  0  0  0  0
 32 39  1  6  0  0  0
 32 28  1  0  0  0  0
 33 36  1  0  0  0  0
 33 32  1  0  0  0  0
 35 36  1  0  0  0  0
 36 34  2  0  0  0  0
 37 35  1  0  0  0  0
 38 37  1  0  0  0  0
 40 41  2  0  0  0  0
 41 42  1  0  0  0  0
 41 39  1  0  0  0  0
M  END
>  <MODEL>
8

>  <REMARK>
 VINA RESULT:      -5.7      1.655      2.955
  Name = 
  17 active torsions:
  status: ('A' for Active; 'I' for Inactive)
    1  A    between atoms: C_4  and  C_26
    2  A    between atoms: C_6  and  C_15
    3  A    between atoms: C_6  and  C_21
    4  A    between atoms: C_7  and  C_15
    5  A    between atoms: C_7  and  O_38
    6  A    between atoms: C_7  and  C_41
    7  A    between atoms: C_13  and  C_37
    8  A    between atoms: C_14  and  N_28
    9  A    between atoms: C_15  and  C_39
   10  A    between atoms: C_16  and  C_29
   11  A    between atoms: C_22  and  C_36
   12  A    between atoms: N_24  and  N_25
   13  A    between atoms: N_25  and  C_27
   14  A    between atoms: C_27  and  C_37
   15  A    between atoms: C_33  and  O_38
   16  A    between atoms: C_36  and  C_37
   17  A    between atoms: C_39  and  C_42
                            x       y       z     vdW  Elec       q    Type
                         _______ _______ _______ _____ _____    ______ ____

>  <TORSDO>
F 17

$$$$
=
 OpenBabel11072411223D

 42 44  0  0  1  0  0  0  0  0999 V2000
  160.4630  208.5950  155.9960 C   0  0  0  0  0  2  0  0  0  0  0  0
  160.3410  207.1420  156.1510 N   0  0  0  0  0  0  0  0  0  0  0  0
  160.6260  206.3130  155.1890 C   0  0  0  0  0  3  0  0  0  0  0  0
  160.8010  208.0940  153.5480 C   0  0  0  0  0  3  0  0  0  0  0  0
  160.9990  206.8050  153.8460 C   0  0  0  0  0  0  0  0  0  0  0  0
  160.1490  209.0130  154.5480 C   0  0  2  0  0  3  0  0  0  0  0  0
  161.5950  205.8910  152.8570 C   0  0  0  0  0  0  0  0  0  0  0  0
  160.9380  204.6620  152.5330 N   0  0  0  0  0  2  0  0  0  0  0  0
  162.6870  206.1850  152.2970 O   0  0  0  0  0  0  0  0  0  0  0  0
  161.5100  203.7380  151.6480 N   0  0  0  0  0  2  0  0  0  0  0  0
  160.5030  203.4220  150.6440 C   0  0  0  0  0  2  0  0  0  0  0  0
  161.1340  202.8250  149.3900 C   0  0  1  0  0  3  0  0  0  0  0  0
  160.7500  201.3870  149.2070 C   0  0  0  0  0  0  0  0  0  0  0  0
  161.6030  200.5660  148.9150 O   0  0  0  0  0  0  0  0  0  0  0  0
  159.4630  200.9860  149.3840 F   0  0  0  0  0  0  0  0  0  0  0  0
  160.8020  203.6600  148.1580 C   0  0  0  0  0  2  0  0  0  0  0  0
  162.6970  208.5520  147.9000 S   0  0  0  0  0  0  0  0  0  0  0  0
  161.2710  206.9980  149.2250 C   0  0  0  0  0  0  0  0  0  0  0  0
  161.1800  208.1720  149.9620 C   0  0  0  0  0  3  0  0  0  0  0  0
  160.7490  205.8140  149.3850 O   0  0  0  0  0  0  0  0  0  0  0  0
  161.1860  205.0860  148.3660 C   0  0  0  0  0  0  0  0  0  0  0  0
  161.9570  209.1530  149.3240 C   0  0  0  0  0  0  0  0  0  0  0  0
  162.0220  205.8130  147.5000 C   0  0  0  0  0  3  0  0  0  0  0  0
  162.0260  207.0370  148.1220 C   0  0  0  0  0  0  0  0  0  0  0  0
  162.0740  210.5600  149.7940 C   0  0  0  0  0  2  0  0  0  0  0  0
  162.2940  211.4840  148.6130 C   0  0  0  0  0  1  0  0  0  0  0  0
  160.3880  210.3830  154.2820 O   0  0  0  0  0  0  0  0  0  0  0  0
  159.5870  211.1740  155.1330 C   0  0  1  0  0  3  0  0  0  0  0  0
  161.7060  211.6230  156.3730 O   0  0  0  0  0  1  0  0  0  0  0  0
  160.0830  213.2360  156.2510 O   0  0  0  0  0  0  0  0  0  0  0  0
  160.4630  212.0730  155.9510 C   0  0  0  0  0  0  0  0  0  0  0  0
  158.5640  211.9970  154.3310 C   0  0  1  0  0  3  0  0  0  0  0  0
  158.5870  211.6480  152.8470 C   0  0  0  0  0  2  0  0  0  0  0  0
  160.4690  212.6970  151.8270 O   0  0  0  0  0  0  0  0  0  0  0  0
  158.4740  213.8570  151.5760 N   0  0  0  0  0  2  0  0  0  0  0  0
  159.2320  212.7420  152.0550 C   0  0  0  0  0  0  0  0  0  0  0  0
  157.0580  214.0440  151.8540 C   0  0  0  0  0  2  0  0  0  0  0  0
  156.2730  214.0790  150.5570 C   0  0  0  0  0  1  0  0  0  0  0  0
  157.1540  211.7500  154.8520 C   0  0  0  0  0  2  0  0  0  0  0  0
  157.2270  213.8370  156.0050 O   0  0  0  0  0  1  0  0  0  0  0  0
  156.5390  213.0150  155.3440 C   0  0  0  0  0  0  0  0  0  0  0  0
  155.2060  213.2900  155.0730 O   0  0  0  0  0  0  0  0  0  0  0  0
  1  2  1  0  0  0  0
  3  2  2  0  0  0  0
  4  5  2  0  0  0  0
  4  6  1  0  0  0  0
  5  3  1  0  0  0  0
  6 27  1  6  0  0  0
  6  1  1  0  0  0  0
  7  5  1  0  0  0  0
  8  7  1  0  0  0  0
  9  7  2  0  0  0  0
 10  8  1  0  0  0  0
 11 10  1  0  0  0  0
 12 16  1  6  0  0  0
 12 11  1  0  0  0  0
 13 15  1  0  0  0  0
 13 12  1  0  0  0  0
 14 13  2  0  0  0  0
 16 21  1  0  0  0  0
 17 24  1  0  0  0  0
 17 22  1  0  0  0  0
 18 20  1  0  0  0  0
 18 19  1  0  0  0  0
 21 20  1  0  0  0  0
 22 25  1  0  0  0  0
 22 19  2  0  0  0  0
 23 24  1  0  0  0  0
 23 21  2  0  0  0  0
 24 18  2  0  0  0  0
 26 25  1  0  0  0  0
 28 27  1  6  0  0  0
 28 31  1  0  0  0  0
 31 30  2  0  0  0  0
 31 29  1  0  0  0  0
 32 33  1  6  0  0  0
 32 39  1  0  0  0  0
 32 28  1  0  0  0  0
 34 36  2  0  0  0  0
 35 37  1  0  0  0  0
 35 36  1  0  0  0  0
 36 33  1  0  0  0  0
 38 37  1  0  0  0  0
 39 41  1  0  0  0  0
 41 40  1  0  0  0  0
 42 41  2  0  0  0  0
M  END
>  <MODEL>
9

>  <REMARK>
 VINA RESULT:      -5.6      3.118      9.197
  Name = 
  17 active torsions:
  status: ('A' for Active; 'I' for Inactive)
    1  A    between atoms: C_4  and  C_26
    2  A    between atoms: C_6  and  C_15
    3  A    between atoms: C_6  and  C_21
    4  A    between atoms: C_7  and  C_15
    5  A    between atoms: C_7  and  O_38
    6  A    between atoms: C_7  and  C_41
    7  A    between atoms: C_13  and  C_37
    8  A    between atoms: C_14  and  N_28
    9  A    between atoms: C_15  and  C_39
   10  A    between atoms: C_16  and  C_29
   11  A    between atoms: C_22  and  C_36
   12  A    between atoms: N_24  and  N_25
   13  A    between atoms: N_25  and  C_27
   14  A    between atoms: C_27  and  C_37
   15  A    between atoms: C_33  and  O_38
   16  A    between atoms: C_36  and  C_37
   17  A    between atoms: C_39  and  C_42
                            x       y       z     vdW  Elec       q    Type
                         _______ _______ _______ _____ _____    ______ ____

>  <TORSDO>
F 17

$$$$
