=
 OpenBabel11072414273D

 47 52  0  0  1  0  0  0  0  0999 V2000
  162.0850  209.2430  152.5850 C   0  0  1  0  0  3  0  0  0  0  0  0
  161.7820  209.0140  150.1080 C   0  0  0  0  0  0  0  0  0  0  0  0
  160.9360  207.1100  151.5230 C   0  0  1  0  0  3  0  0  0  0  0  0
  161.1800  208.0030  152.7660 C   0  0  1  0  0  3  0  0  0  0  0  0
  162.3460  211.0340  150.7060 C   0  0  0  0  0  3  0  0  0  0  0  0
  161.6210  207.5320  150.2080 C   0  0  1  0  0  3  0  0  0  0  0  0
  162.2960  210.9370  149.3910 O   0  0  0  0  0  0  0  0  0  0  0  0
  161.9980  209.7920  151.1990 C   0  0  0  0  0  0  0  0  0  0  0  0
  161.9940  206.7430  152.5450 C   0  0  0  0  0  2  0  0  0  0  0  0
  161.9840  209.7320  148.9950 N   0  0  0  0  0  0  0  0  0  0  0  0
  160.4210  210.7100  153.7850 N   0  0  0  0  0  2  0  0  0  0  0  0
  162.6790  210.7290  154.3680 O   0  0  0  0  0  0  0  0  0  0  0  0
  161.7740  210.2880  153.6110 C   0  0  0  0  0  0  0  0  0  0  0  0
  157.9260  212.2190  153.5180 C   0  0  0  0  0  3  0  0  0  0  0  0
  160.0440  211.7320  154.7490 C   0  0  2  0  0  3  0  0  0  0  0  0
  158.2070  211.1360  156.4050 C   0  0  0  0  0  3  0  0  0  0  0  0
  159.4910  211.0810  155.9990 C   0  0  0  0  0  0  0  0  0  0  0  0
  159.1870  212.8080  154.0760 C   0  0  0  0  0  2  0  0  0  0  0  0
  157.0820  211.9360  155.8160 C   0  0  1  0  0  3  0  0  0  0  0  0
  156.9600  211.7910  154.3310 C   0  0  0  0  0  3  0  0  0  0  0  0
  155.5560  211.4550  156.5880 Cl  0  0  0  0  0  0  0  0  0  0  0  0
  160.4210  210.3540  156.7580 O   0  0  0  0  0  0  0  0  0  0  0  0
  161.2790  208.1170  156.6710 C   0  0  0  0  0  2  0  0  0  0  0  0
  160.2000  209.0270  157.2250 C   0  0  0  0  0  3  0  0  0  0  0  0
  159.9000  208.1290  156.0420 C   0  0  0  0  0  2  0  0  0  0  0  0
  160.2350  205.6780  149.0680 N   0  0  0  0  0  2  0  0  0  0  0  0
  161.0000  207.5380  147.9190 O   0  0  0  0  0  0  0  0  0  0  0  0
  160.9430  206.9220  149.0160 C   0  0  0  0  0  0  0  0  0  0  0  0
  160.1180  204.8140  150.2320 C   0  0  0  0  0  2  0  0  0  0  0  0
  161.2850  203.8410  150.2800 C   0  0  0  0  0  2  0  0  0  0  0  0
  161.0340  202.5270  149.5040 C   0  0  1  0  0  0  0  0  0  0  0  0
  161.3750  201.3830  150.3590 N   0  0  0  0  0  2  0  0  0  0  0  0
  161.8080  201.8180  151.5680 O   0  0  0  0  0  1  0  0  0  0  0  0
  159.5310  202.3880  149.2120 C   0  0  0  0  0  2  0  0  0  0  0  0
  159.0020  200.9570  149.2310 C   0  0  0  0  0  1  0  0  0  0  0  0
  161.8390  202.4300  148.1830 C   0  0  0  0  0  2  0  0  0  0  0  0
  161.7020  203.6380  147.2430 C   0  0  2  0  0  3  0  0  0  0  0  0
  159.6700  201.7680  144.8290 C   0  0  0  0  0  2  0  0  0  0  0  0
  161.3440  203.2580  145.8000 C   0  0  1  0  0  3  0  0  0  0  0  0
  160.9550  201.7940  145.6360 C   0  0  0  0  0  2  0  0  0  0  0  0
  159.4580  203.1700  144.3010 C   0  0  0  0  0  2  0  0  0  0  0  0
  160.1720  204.0730  145.2800 C   0  0  2  0  0  3  0  0  0  0  0  0
  161.4410  205.2650  143.4980 O   0  0  0  0  0  0  0  0  0  0  0  0
  160.2840  206.4610  145.0710 O   0  0  0  0  0  1  0  0  0  0  0  0
  160.6170  205.3360  144.6140 C   0  0  0  0  0  0  0  0  0  0  0  0
  163.4850  204.5220  146.0850 O   0  0  0  0  0  1  0  0  0  0  0  0
  162.8670  204.5200  147.2920 N   0  0  0  0  0  2  0  0  0  0  0  0
  1  4  1  0  0  0  0
  1 13  1  1  0  0  0
  2  6  1  0  0  0  0
  2  8  1  0  0  0  0
  3  9  1  1  0  0  0
  3  4  1  0  0  0  0
  4  9  1  1  0  0  0
  5  8  2  0  0  0  0
  6 28  1  6  0  0  0
  6  3  1  0  0  0  0
  7  5  1  0  0  0  0
  8  1  1  0  0  0  0
 10  7  1  0  0  0  0
 10  2  2  0  0  0  0
 13 11  1  0  0  0  0
 13 12  2  0  0  0  0
 14 18  1  0  0  0  0
 14 20  2  0  0  0  0
 15 11  1  6  0  0  0
 15 17  1  0  0  0  0
 17 16  2  0  0  0  0
 17 22  1  0  0  0  0
 18 15  1  0  0  0  0
 19 16  1  0  0  0  0
 19 21  1  1  0  0  0
 20 19  1  0  0  0  0
 22 24  1  0  0  0  0
 23 24  1  0  0  0  0
 25 23  1  0  0  0  0
 25 24  1  0  0  0  0
 26 29  1  0  0  0  0
 27 28  2  0  0  0  0
 28 26  1  0  0  0  0
 29 30  1  0  0  0  0
 31 36  1  6  0  0  0
 31 30  1  0  0  0  0
 31 32  1  0  0  0  0
 32 33  1  0  0  0  0
 34 35  1  0  0  0  0
 34 31  1  0  0  0  0
 37 47  1  0  0  0  0
 37 36  1  1  0  0  0
 38 40  1  0  0  0  0
 39 37  1  1  0  0  0
 40 39  1  0  0  0  0
 41 38  1  0  0  0  0
 41 42  1  0  0  0  0
 42 45  1  6  0  0  0
 42 39  1  0  0  0  0
 43 45  2  0  0  0  0
 45 44  1  0  0  0  0
 46 47  1  0  0  0  0
M  END
>  <MODEL>
1

>  <REMARK>
 VINA RESULT:      -6.0      0.000      0.000
  Name = 
  15 active torsions:
  status: ('A' for Active; 'I' for Inactive)
    1  A    between atoms: C_2  and  C_38
    2  A    between atoms: N_3  and  C_18
    3  A    between atoms: C_5  and  N_16
    4  A    between atoms: C_7  and  C_41
    5  A    between atoms: O_9  and  C_23
    6  A    between atoms: O_9  and  C_33
    7  A    between atoms: C_18  and  C_25
    8  A    between atoms: C_18  and  C_37
    9  A    between atoms: C_18  and  C_46
   10  A    between atoms: C_21  and  C_35
   11  A    between atoms: C_27  and  C_39
   12  A    between atoms: N_29  and  C_43
   13  A    between atoms: C_37  and  C_43
   14  A    between atoms: N_40  and  C_41
   15  A    between atoms: C_41  and  C_46
                            x       y       z     vdW  Elec       q    Type
                         _______ _______ _______ _____ _____    ______ ____

>  <TORSDO>
F 15

$$$$
=
 OpenBabel11072414273D

 47 52  0  0  1  0  0  0  0  0999 V2000
  162.0360  208.7510  152.4520 C   0  0  1  0  0  3  0  0  0  0  0  0
  161.5400  208.2240  150.0520 C   0  0  0  0  0  0  0  0  0  0  0  0
  160.7240  206.5600  151.7590 C   0  0  1  0  0  3  0  0  0  0  0  0
  161.0970  207.5910  152.8550 C   0  0  1  0  0  3  0  0  0  0  0  0
  162.2300  210.2730  150.3410 C   0  0  0  0  0  3  0  0  0  0  0  0
  161.3260  206.7770  150.3570 C   0  0  1  0  0  3  0  0  0  0  0  0
  162.0780  210.0120  149.0570 O   0  0  0  0  0  0  0  0  0  0  0  0
  161.8690  209.1230  151.0150 C   0  0  0  0  0  0  0  0  0  0  0  0
  161.8390  206.2740  152.7450 C   0  0  0  0  0  2  0  0  0  0  0  0
  161.6880  208.7830  148.8440 N   0  0  0  0  0  0  0  0  0  0  0  0
  160.5200  210.3790  153.6410 N   0  0  0  0  0  2  0  0  0  0  0  0
  162.8350  210.4740  153.9120 O   0  0  0  0  0  0  0  0  0  0  0  0
  161.8460  209.9320  153.3510 C   0  0  0  0  0  0  0  0  0  0  0  0
  158.0470  211.9270  153.3970 C   0  0  0  0  0  3  0  0  0  0  0  0
  160.2570  211.5300  154.4910 C   0  0  2  0  0  3  0  0  0  0  0  0
  158.5670  211.2160  156.3670 C   0  0  0  0  0  3  0  0  0  0  0  0
  159.8070  211.0640  155.8590 C   0  0  0  0  0  0  0  0  0  0  0  0
  159.3670  212.5390  153.7610 C   0  0  0  0  0  2  0  0  0  0  0  0
  157.4120  211.9720  155.7780 C   0  0  1  0  0  3  0  0  0  0  0  0
  157.1500  211.6410  154.3420 C   0  0  0  0  0  3  0  0  0  0  0  0
  155.9520  211.6470  156.7380 Cl  0  0  0  0  0  0  0  0  0  0  0  0
  160.7850  210.4100  156.6220 O   0  0  0  0  0  0  0  0  0  0  0  0
  161.5580  208.1410  156.6880 C   0  0  0  0  0  2  0  0  0  0  0  0
  160.5840  209.1520  157.2610 C   0  0  0  0  0  3  0  0  0  0  0  0
  160.1120  208.1450  156.2330 C   0  0  0  0  0  2  0  0  0  0  0  0
  160.4800  204.6270  149.2080 N   0  0  0  0  0  2  0  0  0  0  0  0
  159.8920  206.7410  148.4670 O   0  0  0  0  0  0  0  0  0  0  0  0
  160.5370  206.0550  149.3030 C   0  0  0  0  0  0  0  0  0  0  0  0
  161.2030  203.6880  150.0520 C   0  0  0  0  0  2  0  0  0  0  0  0
  162.0160  202.7330  149.1930 C   0  0  0  0  0  2  0  0  0  0  0  0
  161.1560  201.7610  148.3530 C   0  0  1  0  0  0  0  0  0  0  0  0
  162.0200  200.7380  147.7520 N   0  0  0  0  0  2  0  0  0  0  0  0
  161.4530  199.5130  147.8860 O   0  0  0  0  0  1  0  0  0  0  0  0
  160.1980  200.9970  149.2810 C   0  0  0  0  0  2  0  0  0  0  0  0
  158.7160  201.2500  149.0250 C   0  0  0  0  0  1  0  0  0  0  0  0
  160.3510  202.4670  147.2320 C   0  0  0  0  0  2  0  0  0  0  0  0
  160.9470  202.3470  145.8210 C   0  0  2  0  0  3  0  0  0  0  0  0
  160.0050  205.7970  145.0050 C   0  0  0  0  0  2  0  0  0  0  0  0
  161.2470  203.6990  145.1620 C   0  0  1  0  0  3  0  0  0  0  0  0
  160.0240  204.3540  144.5330 C   0  0  0  0  0  2  0  0  0  0  0  0
  161.3380  206.0530  145.6750 C   0  0  0  0  0  2  0  0  0  0  0  0
  161.8020  204.7000  146.1620 C   0  0  2  0  0  3  0  0  0  0  0  0
  164.0100  204.0110  145.2350 O   0  0  0  0  0  0  0  0  0  0  0  0
  163.9080  205.1360  147.2280 O   0  0  0  0  0  1  0  0  0  0  0  0
  163.2950  204.6460  146.2430 C   0  0  0  0  0  0  0  0  0  0  0  0
  158.9820  201.1750  145.5630 O   0  0  0  0  0  1  0  0  0  0  0  0
  160.1480  201.4890  144.9470 N   0  0  0  0  0  2  0  0  0  0  0  0
  1  4  1  0  0  0  0
  1 13  1  1  0  0  0
  2  6  1  0  0  0  0
  2  8  1  0  0  0  0
  3  9  1  1  0  0  0
  3  4  1  0  0  0  0
  4  9  1  1  0  0  0
  5  8  2  0  0  0  0
  6 28  1  6  0  0  0
  6  3  1  0  0  0  0
  7  5  1  0  0  0  0
  8  1  1  0  0  0  0
 10  7  1  0  0  0  0
 10  2  2  0  0  0  0
 13 11  1  0  0  0  0
 13 12  2  0  0  0  0
 14 18  1  0  0  0  0
 14 20  2  0  0  0  0
 15 11  1  6  0  0  0
 15 17  1  0  0  0  0
 17 16  2  0  0  0  0
 17 22  1  0  0  0  0
 18 15  1  0  0  0  0
 19 16  1  0  0  0  0
 19 21  1  1  0  0  0
 20 19  1  0  0  0  0
 22 24  1  0  0  0  0
 23 24  1  0  0  0  0
 25 23  1  0  0  0  0
 25 24  1  0  0  0  0
 26 28  1  0  0  0  0
 26 29  1  0  0  0  0
 27 28  2  0  0  0  0
 30 29  1  0  0  0  0
 31 36  1  6  0  0  0
 31 30  1  0  0  0  0
 31 34  1  0  0  0  0
 32 33  1  0  0  0  0
 32 31  1  0  0  0  0
 35 34  1  0  0  0  0
 37 36  1  1  0  0  0
 38 41  1  0  0  0  0
 39 37  1  1  0  0  0
 39 42  1  0  0  0  0
 40 38  1  0  0  0  0
 40 39  1  0  0  0  0
 41 42  1  0  0  0  0
 42 45  1  6  0  0  0
 43 45  2  0  0  0  0
 45 44  1  0  0  0  0
 47 46  1  0  0  0  0
 47 37  1  0  0  0  0
M  END
>  <MODEL>
2

>  <REMARK>
 VINA RESULT:      -5.5      1.525      2.033
  Name = 
  15 active torsions:
  status: ('A' for Active; 'I' for Inactive)
    1  A    between atoms: C_2  and  C_38
    2  A    between atoms: N_3  and  C_18
    3  A    between atoms: C_5  and  N_16
    4  A    between atoms: C_7  and  C_41
    5  A    between atoms: O_9  and  C_23
    6  A    between atoms: O_9  and  C_33
    7  A    between atoms: C_18  and  C_25
    8  A    between atoms: C_18  and  C_37
    9  A    between atoms: C_18  and  C_46
   10  A    between atoms: C_21  and  C_35
   11  A    between atoms: C_27  and  C_39
   12  A    between atoms: N_29  and  C_43
   13  A    between atoms: C_37  and  C_43
   14  A    between atoms: N_40  and  C_41
   15  A    between atoms: C_41  and  C_46
                            x       y       z     vdW  Elec       q    Type
                         _______ _______ _______ _____ _____    ______ ____

>  <TORSDO>
F 15

$$$$
=
 OpenBabel11072414273D

 47 52  0  0  1  0  0  0  0  0999 V2000
  160.9750  209.8530  154.5650 C   0  0  1  0  0  3  0  0  0  0  0  0
  161.6940  208.2830  152.7480 C   0  0  0  0  0  0  0  0  0  0  0  0
  160.1270  207.3480  154.4840 C   0  0  1  0  0  3  0  0  0  0  0  0
  159.9400  208.7950  155.0090 C   0  0  1  0  0  3  0  0  0  0  0  0
  162.1900  210.3630  152.3130 C   0  0  0  0  0  3  0  0  0  0  0  0
  161.3360  207.0850  153.5650 C   0  0  1  0  0  3  0  0  0  0  0  0
  162.6750  209.5650  151.3800 O   0  0  0  0  0  0  0  0  0  0  0  0
  161.5300  209.5490  153.2120 C   0  0  0  0  0  0  0  0  0  0  0  0
  160.6210  207.7440  155.8620 C   0  0  0  0  0  2  0  0  0  0  0  0
  162.4170  208.3070  151.6200 N   0  0  0  0  0  0  0  0  0  0  0  0
  159.6050  211.6990  153.5260 N   0  0  0  0  0  2  0  0  0  0  0  0
  160.5220  211.9370  155.6570 O   0  0  0  0  0  0  0  0  0  0  0  0
  160.3920  211.2310  154.6220 C   0  0  0  0  0  0  0  0  0  0  0  0
  159.4730  213.2670  151.0570 C   0  0  0  0  0  3  0  0  0  0  0  0
  159.0210  213.0310  153.5020 C   0  0  2  0  0  3  0  0  0  0  0  0
  156.7120  213.2600  152.4590 C   0  0  0  0  0  3  0  0  0  0  0  0
  157.5100  212.9290  153.4930 C   0  0  0  0  0  0  0  0  0  0  0  0
  159.6770  213.8800  152.4100 C   0  0  0  0  0  2  0  0  0  0  0  0
  157.0970  213.9120  151.1630 C   0  0  1  0  0  3  0  0  0  0  0  0
  158.2660  213.2610  150.4910 C   0  0  0  0  0  3  0  0  0  0  0  0
  155.6990  213.9000  150.0660 Cl  0  0  0  0  0  0  0  0  0  0  0  0
  156.9360  212.4270  154.6710 O   0  0  0  0  0  0  0  0  0  0  0  0
  157.1220  211.9950  157.0220 C   0  0  0  0  0  2  0  0  0  0  0  0
  157.0550  213.0580  155.9430 C   0  0  0  0  0  3  0  0  0  0  0  0
  155.8260  212.7410  156.7690 C   0  0  0  0  0  2  0  0  0  0  0  0
  160.9100  205.8580  151.3360 N   0  0  0  0  0  2  0  0  0  0  0  0
  161.1960  204.7280  153.3380 O   0  0  0  0  0  0  0  0  0  0  0  0
  161.1440  205.8400  152.7490 C   0  0  0  0  0  0  0  0  0  0  0  0
  160.7670  207.0470  150.5120 C   0  0  0  0  0  2  0  0  0  0  0  0
  160.3750  206.6580  149.0950 C   0  0  0  0  0  2  0  0  0  0  0  0
  161.5530  206.6770  148.0940 C   0  0  1  0  0  0  0  0  0  0  0  0
  161.0450  206.9700  146.7480 N   0  0  0  0  0  2  0  0  0  0  0  0
  159.7850  206.4880  146.6110 O   0  0  0  0  0  1  0  0  0  0  0  0
  162.4950  207.8420  148.4400 C   0  0  0  0  0  2  0  0  0  0  0  0
  161.8890  209.2320  148.2690 C   0  0  0  0  0  1  0  0  0  0  0  0
  162.3490  205.3490  148.0570 C   0  0  0  0  0  2  0  0  0  0  0  0
  161.6580  204.1900  147.3230 C   0  0  2  0  0  3  0  0  0  0  0  0
  160.3130  202.2160  150.1060 C   0  0  0  0  0  2  0  0  0  0  0  0
  161.5940  202.8920  148.1400 C   0  0  1  0  0  3  0  0  0  0  0  0
  161.4350  203.1240  149.6370 C   0  0  0  0  0  2  0  0  0  0  0  0
  160.0070  201.2740  148.9620 C   0  0  0  0  0  2  0  0  0  0  0  0
  160.4250  202.0190  147.7150 C   0  0  2  0  0  3  0  0  0  0  0  0
  160.3300  201.2820  145.3370 O   0  0  0  0  0  0  0  0  0  0  0  0
  161.5090  200.0530  146.8680 O   0  0  0  0  0  1  0  0  0  0  0  0
  160.8010  201.0660  146.6250 C   0  0  0  0  0  0  0  0  0  0  0  0
  163.4090  204.5940  145.8840 O   0  0  0  0  0  1  0  0  0  0  0  0
  162.2160  203.9580  145.9910 N   0  0  0  0  0  2  0  0  0  0  0  0
  1 13  1  6  0  0  0
  1  4  1  0  0  0  0
  2  8  1  0  0  0  0
  2  6  1  0  0  0  0
  3  4  1  0  0  0  0
  3  9  1  1  0  0  0
  4  9  1  1  0  0  0
  5  8  2  0  0  0  0
  6 28  1  6  0  0  0
  6  3  1  0  0  0  0
  7 10  1  0  0  0  0
  7  5  1  0  0  0  0
  8  1  1  0  0  0  0
 10  2  2  0  0  0  0
 11 13  1  0  0  0  0
 13 12  2  0  0  0  0
 14 18  1  0  0  0  0
 15 11  1  6  0  0  0
 16 17  2  0  0  0  0
 17 15  1  0  0  0  0
 17 22  1  0  0  0  0
 18 15  1  0  0  0  0
 19 21  1  6  0  0  0
 19 16  1  0  0  0  0
 20 14  2  0  0  0  0
 20 19  1  0  0  0  0
 22 24  1  0  0  0  0
 24 25  1  0  0  0  0
 24 23  1  0  0  0  0
 25 23  1  0  0  0  0
 26 28  1  0  0  0  0
 28 27  2  0  0  0  0
 29 26  1  0  0  0  0
 30 29  1  0  0  0  0
 31 36  1  1  0  0  0
 31 34  1  0  0  0  0
 31 30  1  0  0  0  0
 32 31  1  0  0  0  0
 33 32  1  0  0  0  0
 35 34  1  0  0  0  0
 37 36  1  1  0  0  0
 39 37  1  6  0  0  0
 39 40  1  0  0  0  0
 40 38  1  0  0  0  0
 41 38  1  0  0  0  0
 42 45  1  6  0  0  0
 42 39  1  0  0  0  0
 42 41  1  0  0  0  0
 43 45  2  0  0  0  0
 45 44  1  0  0  0  0
 46 47  1  0  0  0  0
 47 37  1  0  0  0  0
M  END
>  <MODEL>
3

>  <REMARK>
 VINA RESULT:      -5.2      2.273      4.253
  Name = 
  15 active torsions:
  status: ('A' for Active; 'I' for Inactive)
    1  A    between atoms: C_2  and  C_38
    2  A    between atoms: N_3  and  C_18
    3  A    between atoms: C_5  and  N_16
    4  A    between atoms: C_7  and  C_41
    5  A    between atoms: O_9  and  C_23
    6  A    between atoms: O_9  and  C_33
    7  A    between atoms: C_18  and  C_25
    8  A    between atoms: C_18  and  C_37
    9  A    between atoms: C_18  and  C_46
   10  A    between atoms: C_21  and  C_35
   11  A    between atoms: C_27  and  C_39
   12  A    between atoms: N_29  and  C_43
   13  A    between atoms: C_37  and  C_43
   14  A    between atoms: N_40  and  C_41
   15  A    between atoms: C_41  and  C_46
                            x       y       z     vdW  Elec       q    Type
                         _______ _______ _______ _____ _____    ______ ____

>  <TORSDO>
F 15

$$$$
=
 OpenBabel11072414273D

 47 52  0  0  1  0  0  0  0  0999 V2000
  160.9160  207.2000  153.0570 C   0  0  1  0  0  3  0  0  0  0  0  0
  161.0400  209.6500  153.5710 C   0  0  0  0  0  0  0  0  0  0  0  0
  160.8960  208.0950  155.5470 C   0  0  1  0  0  3  0  0  0  0  0  0
  161.1230  206.9190  154.5630 C   0  0  1  0  0  3  0  0  0  0  0  0
  161.5150  209.1980  151.4900 C   0  0  0  0  0  3  0  0  0  0  0  0
  160.4770  209.4480  154.9390 C   0  0  1  0  0  3  0  0  0  0  0  0
  161.4950  210.5030  151.6880 O   0  0  0  0  0  0  0  0  0  0  0  0
  161.2360  208.6170  152.7110 C   0  0  0  0  0  0  0  0  0  0  0  0
  159.8050  207.0730  155.2940 C   0  0  0  0  0  2  0  0  0  0  0  0
  161.1900  210.8120  152.9200 N   0  0  0  0  0  0  0  0  0  0  0  0
  161.0260  205.4770  151.2170 N   0  0  0  0  0  2  0  0  0  0  0  0
  162.9530  206.1640  152.3370 O   0  0  0  0  0  0  0  0  0  0  0  0
  161.7010  206.2390  152.2190 C   0  0  0  0  0  0  0  0  0  0  0  0
  161.0940  202.6300  151.8940 C   0  0  0  0  0  3  0  0  0  0  0  0
  161.7180  204.5120  150.3770 C   0  0  2  0  0  3  0  0  0  0  0  0
  160.2740  202.9970  148.9310 C   0  0  0  0  0  3  0  0  0  0  0  0
  160.8690  204.1830  149.1670 C   0  0  0  0  0  0  0  0  0  0  0  0
  162.2280  203.3410  151.2200 C   0  0  0  0  0  2  0  0  0  0  0  0
  160.4120  201.7200  149.7080 C   0  0  1  0  0  3  0  0  0  0  0  0
  160.2360  201.8970  151.1840 C   0  0  0  0  0  3  0  0  0  0  0  0
  159.2290  200.5400  149.1050 Cl  0  0  0  0  0  0  0  0  0  0  0  0
  160.6970  205.2320  148.2520 O   0  0  0  0  0  0  0  0  0  0  0  0
  161.8210  207.0320  147.1350 C   0  0  0  0  0  2  0  0  0  0  0  0
  161.6160  205.5310  147.2050 C   0  0  0  0  0  3  0  0  0  0  0  0
  160.9080  206.3420  146.1400 C   0  0  0  0  0  2  0  0  0  0  0  0
  159.7470  211.4310  156.4200 N   0  0  0  0  0  2  0  0  0  0  0  0
  161.9640  210.7950  156.2060 O   0  0  0  0  0  0  0  0  0  0  0  0
  160.7660  210.5840  155.8780 C   0  0  0  0  0  0  0  0  0  0  0  0
  158.3290  211.3630  156.1070 C   0  0  0  0  0  2  0  0  0  0  0  0
  157.9730  212.4100  155.0630 C   0  0  0  0  0  2  0  0  0  0  0  0
  157.1190  213.5760  155.6140 C   0  0  1  0  0  0  0  0  0  0  0  0
  156.0580  213.0410  156.4740 N   0  0  0  0  0  2  0  0  0  0  0  0
  155.4020  212.0400  155.8360 O   0  0  0  0  0  1  0  0  0  0  0  0
  157.9880  214.4530  156.5290 C   0  0  0  0  0  2  0  0  0  0  0  0
  159.4900  214.3570  156.2760 C   0  0  0  0  0  1  0  0  0  0  0  0
  156.4800  214.4470  154.5030 C   0  0  0  0  0  2  0  0  0  0  0  0
  156.3660  213.7740  153.1260 C   0  0  2  0  0  3  0  0  0  0  0  0
  159.7170  213.8070  151.6350 C   0  0  0  0  0  2  0  0  0  0  0  0
  157.3700  214.3050  152.0950 C   0  0  1  0  0  3  0  0  0  0  0  0
  158.7830  214.4530  152.6430 C   0  0  0  0  0  2  0  0  0  0  0  0
  158.8940  213.5300  150.3950 C   0  0  0  0  0  2  0  0  0  0  0  0
  157.4730  213.3870  150.8880 C   0  0  2  0  0  3  0  0  0  0  0  0
  156.8080  213.4850  148.4890 O   0  0  0  0  0  0  0  0  0  0  0  0
  155.4170  214.3380  150.0960 O   0  0  0  0  0  1  0  0  0  0  0  0
  156.4970  213.7560  149.8160 C   0  0  0  0  0  0  0  0  0  0  0  0
  154.1410  214.1330  153.5980 O   0  0  0  0  0  1  0  0  0  0  0  0
  154.9990  213.7940  152.6050 N   0  0  0  0  0  2  0  0  0  0  0  0
  1 13  1  6  0  0  0
  1  4  1  0  0  0  0
  2  6  1  0  0  0  0
  3  9  1  1  0  0  0
  4  9  1  1  0  0  0
  4  3  1  0  0  0  0
  5  7  1  0  0  0  0
  5  8  2  0  0  0  0
  6  3  1  0  0  0  0
  6 28  1  1  0  0  0
  7 10  1  0  0  0  0
  8  1  1  0  0  0  0
  8  2  1  0  0  0  0
 10  2  2  0  0  0  0
 11 13  1  0  0  0  0
 13 12  2  0  0  0  0
 15 11  1  1  0  0  0
 15 18  1  0  0  0  0
 16 17  2  0  0  0  0
 16 19  1  0  0  0  0
 17 15  1  0  0  0  0
 18 14  1  0  0  0  0
 19 21  1  6  0  0  0
 19 20  1  0  0  0  0
 20 14  2  0  0  0  0
 22 17  1  0  0  0  0
 23 24  1  0  0  0  0
 24 22  1  0  0  0  0
 25 23  1  0  0  0  0
 25 24  1  0  0  0  0
 28 27  2  0  0  0  0
 28 26  1  0  0  0  0
 29 26  1  0  0  0  0
 30 31  1  0  0  0  0
 30 29  1  0  0  0  0
 31 36  1  6  0  0  0
 31 32  1  0  0  0  0
 31 34  1  0  0  0  0
 33 32  1  0  0  0  0
 35 34  1  0  0  0  0
 37 36  1  1  0  0  0
 38 40  1  0  0  0  0
 39 40  1  0  0  0  0
 39 37  1  1  0  0  0
 41 42  1  0  0  0  0
 41 38  1  0  0  0  0
 42 45  1  6  0  0  0
 42 39  1  0  0  0  0
 43 45  2  0  0  0  0
 45 44  1  0  0  0  0
 47 37  1  0  0  0  0
 47 46  1  0  0  0  0
M  END
>  <MODEL>
4

>  <REMARK>
 VINA RESULT:      -4.6      3.664     10.249
  Name = 
  15 active torsions:
  status: ('A' for Active; 'I' for Inactive)
    1  A    between atoms: C_2  and  C_38
    2  A    between atoms: N_3  and  C_18
    3  A    between atoms: C_5  and  N_16
    4  A    between atoms: C_7  and  C_41
    5  A    between atoms: O_9  and  C_23
    6  A    between atoms: O_9  and  C_33
    7  A    between atoms: C_18  and  C_25
    8  A    between atoms: C_18  and  C_37
    9  A    between atoms: C_18  and  C_46
   10  A    between atoms: C_21  and  C_35
   11  A    between atoms: C_27  and  C_39
   12  A    between atoms: N_29  and  C_43
   13  A    between atoms: C_37  and  C_43
   14  A    between atoms: N_40  and  C_41
   15  A    between atoms: C_41  and  C_46
                            x       y       z     vdW  Elec       q    Type
                         _______ _______ _______ _____ _____    ______ ____

>  <TORSDO>
F 15

$$$$
=
 OpenBabel11072414273D

 47 52  0  0  1  0  0  0  0  0999 V2000
  161.5900  207.3900  153.7070 C   0  0  1  0  0  3  0  0  0  0  0  0
  161.6340  208.0810  151.2980 C   0  0  0  0  0  0  0  0  0  0  0  0
  161.0020  205.6880  151.7680 C   0  0  1  0  0  3  0  0  0  0  0  0
  160.9220  206.0660  153.2680 C   0  0  1  0  0  3  0  0  0  0  0  0
  161.7280  209.7780  152.6660 C   0  0  0  0  0  3  0  0  0  0  0  0
  161.7470  206.6650  150.8360 C   0  0  1  0  0  3  0  0  0  0  0  0
  161.8550  210.1820  151.4160 O   0  0  0  0  0  0  0  0  0  0  0  0
  161.5660  208.4070  152.6140 C   0  0  0  0  0  0  0  0  0  0  0  0
  161.9810  205.1050  152.7670 C   0  0  0  0  0  2  0  0  0  0  0  0
  161.8270  209.1880  150.5680 N   0  0  0  0  0  0  0  0  0  0  0  0
  160.2720  209.1640  154.9220 N   0  0  0  0  0  2  0  0  0  0  0  0
  160.9770  207.2290  156.0180 O   0  0  0  0  0  0  0  0  0  0  0  0
  160.9650  207.9160  154.9620 C   0  0  0  0  0  0  0  0  0  0  0  0
  161.8470  210.6400  156.9000 C   0  0  0  0  0  3  0  0  0  0  0  0
  159.6550  209.7470  156.1040 C   0  0  2  0  0  3  0  0  0  0  0  0
  159.3350  212.2710  156.1120 C   0  0  0  0  0  3  0  0  0  0  0  0
  158.9520  211.0360  155.7320 C   0  0  0  0  0  0  0  0  0  0  0  0
  160.6590  209.7990  157.2580 C   0  0  0  0  0  2  0  0  0  0  0  0
  160.4290  212.6490  157.0670 C   0  0  1  0  0  3  0  0  0  0  0  0
  161.7300  211.9640  156.7870 C   0  0  0  0  0  3  0  0  0  0  0  0
  160.6630  214.4100  157.0190 Cl  0  0  0  0  0  0  0  0  0  0  0  0
  157.8250  210.8880  154.9100 O   0  0  0  0  0  0  0  0  0  0  0  0
  155.4510  211.1550  154.6980 C   0  0  0  0  0  2  0  0  0  0  0  0
  156.5730  210.3810  155.3630 C   0  0  0  0  0  3  0  0  0  0  0  0
  155.8460  211.4670  156.1280 C   0  0  0  0  0  2  0  0  0  0  0  0
  160.9640  205.2000  148.8620 N   0  0  0  0  0  2  0  0  0  0  0  0
  161.3410  207.4750  148.6440 O   0  0  0  0  0  0  0  0  0  0  0  0
  161.3450  206.4700  149.4030 C   0  0  0  0  0  0  0  0  0  0  0  0
  160.9650  203.9350  149.5790 C   0  0  0  0  0  2  0  0  0  0  0  0
  161.5790  202.8450  148.7140 C   0  0  0  0  0  2  0  0  0  0  0  0
  160.5770  201.7470  148.2880 C   0  0  1  0  0  0  0  0  0  0  0  0
  161.2920  200.4790  148.1010 N   0  0  0  0  0  2  0  0  0  0  0  0
  162.3480  200.4100  148.9500 O   0  0  0  0  0  1  0  0  0  0  0  0
  159.5840  201.4930  149.4340 C   0  0  0  0  0  2  0  0  0  0  0  0
  158.1500  201.2150  148.9910 C   0  0  0  0  0  1  0  0  0  0  0  0
  159.8060  202.0910  146.9890 C   0  0  0  0  0  2  0  0  0  0  0  0
  160.6020  201.9120  145.6870 C   0  0  2  0  0  3  0  0  0  0  0  0
  159.3570  205.1670  144.5430 C   0  0  0  0  0  2  0  0  0  0  0  0
  160.7770  203.2100  144.8880 C   0  0  1  0  0  3  0  0  0  0  0  0
  159.4950  203.6900  144.2200 C   0  0  0  0  0  2  0  0  0  0  0  0
  160.6690  205.6030  145.1580 C   0  0  0  0  0  2  0  0  0  0  0  0
  161.2540  204.3510  145.7710 C   0  0  2  0  0  3  0  0  0  0  0  0
  163.3520  205.1160  146.8750 O   0  0  0  0  0  1  0  0  0  0  0  0
  163.4570  203.9230  144.9230 O   0  0  0  0  0  0  0  0  0  0  0  0
  162.7460  204.4330  145.8280 C   0  0  0  0  0  0  0  0  0  0  0  0
  160.7640  199.6930  145.0940 O   0  0  0  0  0  1  0  0  0  0  0  0
  160.0730  200.8340  144.8510 N   0  0  0  0  0  2  0  0  0  0  0  0
  1 13  1  1  0  0  0
  2  8  1  0  0  0  0
  3  9  1  1  0  0  0
  3  4  1  0  0  0  0
  4  9  1  1  0  0  0
  4  1  1  0  0  0  0
  6 28  1  6  0  0  0
  6  2  1  0  0  0  0
  6  3  1  0  0  0  0
  7  5  1  0  0  0  0
  8  5  2  0  0  0  0
  8  1  1  0  0  0  0
 10  2  2  0  0  0  0
 10  7  1  0  0  0  0
 11 13  1  0  0  0  0
 13 12  2  0  0  0  0
 14 18  1  0  0  0  0
 15 11  1  6  0  0  0
 15 18  1  0  0  0  0
 16 19  1  0  0  0  0
 17 15  1  0  0  0  0
 17 16  2  0  0  0  0
 19 21  1  6  0  0  0
 20 14  2  0  0  0  0
 20 19  1  0  0  0  0
 22 24  1  0  0  0  0
 22 17  1  0  0  0  0
 23 24  1  0  0  0  0
 23 25  1  0  0  0  0
 24 25  1  0  0  0  0
 26 28  1  0  0  0  0
 26 29  1  0  0  0  0
 27 28  2  0  0  0  0
 30 29  1  0  0  0  0
 31 36  1  6  0  0  0
 31 30  1  0  0  0  0
 31 34  1  0  0  0  0
 32 31  1  0  0  0  0
 32 33  1  0  0  0  0
 35 34  1  0  0  0  0
 37 36  1  1  0  0  0
 38 41  1  0  0  0  0
 39 37  1  1  0  0  0
 39 42  1  0  0  0  0
 40 38  1  0  0  0  0
 40 39  1  0  0  0  0
 41 42  1  0  0  0  0
 42 45  1  6  0  0  0
 44 45  2  0  0  0  0
 45 43  1  0  0  0  0
 47 46  1  0  0  0  0
 47 37  1  0  0  0  0
M  END
>  <MODEL>
5

>  <REMARK>
 VINA RESULT:      -3.5      2.087      3.166
  Name = 
  15 active torsions:
  status: ('A' for Active; 'I' for Inactive)
    1  A    between atoms: C_2  and  C_38
    2  A    between atoms: N_3  and  C_18
    3  A    between atoms: C_5  and  N_16
    4  A    between atoms: C_7  and  C_41
    5  A    between atoms: O_9  and  C_23
    6  A    between atoms: O_9  and  C_33
    7  A    between atoms: C_18  and  C_25
    8  A    between atoms: C_18  and  C_37
    9  A    between atoms: C_18  and  C_46
   10  A    between atoms: C_21  and  C_35
   11  A    between atoms: C_27  and  C_39
   12  A    between atoms: N_29  and  C_43
   13  A    between atoms: C_37  and  C_43
   14  A    between atoms: N_40  and  C_41
   15  A    between atoms: C_41  and  C_46
                            x       y       z     vdW  Elec       q    Type
                         _______ _______ _______ _____ _____    ______ ____

>  <TORSDO>
F 15

$$$$
=
 OpenBabel11072414273D

 47 52  0  0  1  0  0  0  0  0999 V2000
  161.1340  206.2090  152.3210 C   0  0  1  0  0  3  0  0  0  0  0  0
  161.5860  208.6110  152.8780 C   0  0  0  0  0  0  0  0  0  0  0  0
  160.9770  207.1070  154.8050 C   0  0  1  0  0  3  0  0  0  0  0  0
  161.1240  205.9060  153.8370 C   0  0  1  0  0  3  0  0  0  0  0  0
  162.2140  208.0800  150.8570 C   0  0  0  0  0  3  0  0  0  0  0  0
  160.8480  208.5070  154.1720 C   0  0  1  0  0  3  0  0  0  0  0  0
  162.3780  209.3720  151.0690 O   0  0  0  0  0  0  0  0  0  0  0  0
  161.7110  207.5560  152.0320 C   0  0  0  0  0  0  0  0  0  0  0  0
  159.7730  206.2700  154.4190 C   0  0  0  0  0  2  0  0  0  0  0  0
  161.9900  209.7310  152.2630 N   0  0  0  0  0  0  0  0  0  0  0  0
  161.1730  204.4760  150.4890 N   0  0  0  0  0  2  0  0  0  0  0  0
  163.0520  204.8660  151.8140 O   0  0  0  0  0  0  0  0  0  0  0  0
  161.8470  205.1320  151.5630 C   0  0  0  0  0  0  0  0  0  0  0  0
  160.0790  201.7600  150.4790 C   0  0  0  0  0  3  0  0  0  0  0  0
  161.7930  203.4090  149.7180 C   0  0  2  0  0  3  0  0  0  0  0  0
  160.6190  202.6980  147.5770 C   0  0  0  0  0  3  0  0  0  0  0  0
  161.4170  203.5440  148.2580 C   0  0  0  0  0  0  0  0  0  0  0  0
  161.5460  202.0550  150.3890 C   0  0  0  0  0  2  0  0  0  0  0  0
  160.0400  201.3940  148.0420 C   0  0  1  0  0  3  0  0  0  0  0  0
  159.3760  201.4780  149.3810 C   0  0  0  0  0  3  0  0  0  0  0  0
  158.8730  200.8100  146.8360 Cl  0  0  0  0  0  0  0  0  0  0  0  0
  161.9470  204.6650  147.6030 O   0  0  0  0  0  0  0  0  0  0  0  0
  162.3870  206.1920  145.8070 C   0  0  0  0  0  2  0  0  0  0  0  0
  162.1260  204.7490  146.1920 C   0  0  0  0  0  3  0  0  0  0  0  0
  161.0130  205.5870  145.6000 C   0  0  0  0  0  2  0  0  0  0  0  0
  161.0090  210.9810  154.8890 N   0  0  0  0  0  2  0  0  0  0  0  0
  161.6990  209.2460  156.2600 O   0  0  0  0  0  0  0  0  0  0  0  0
  161.2060  209.5870  155.1520 C   0  0  0  0  0  0  0  0  0  0  0  0
  160.5060  211.5500  153.6490 C   0  0  0  0  0  2  0  0  0  0  0  0
  159.6750  212.7890  153.9410 C   0  0  0  0  0  2  0  0  0  0  0  0
  158.3010  212.8010  153.2330 C   0  0  1  0  0  0  0  0  0  0  0  0
  157.3640  211.9450  153.9700 N   0  0  0  0  0  2  0  0  0  0  0  0
  156.9610  212.5660  155.1060 O   0  0  0  0  0  1  0  0  0  0  0  0
  157.7060  214.2160  153.3020 C   0  0  0  0  0  2  0  0  0  0  0  0
  156.2590  214.3290  152.8310 C   0  0  0  0  0  1  0  0  0  0  0  0
  158.3660  212.3290  151.7580 C   0  0  0  0  0  2  0  0  0  0  0  0
  158.6600  213.4310  150.7290 C   0  0  2  0  0  3  0  0  0  0  0  0
  156.0520  214.3500  148.3190 C   0  0  0  0  0  2  0  0  0  0  0  0
  157.9400  213.2290  149.3890 C   0  0  1  0  0  3  0  0  0  0  0  0
  156.4340  213.4370  149.4700 C   0  0  0  0  0  2  0  0  0  0  0  0
  157.2670  214.4530  147.4230 C   0  0  0  0  0  2  0  0  0  0  0  0
  158.4490  214.1930  148.3290 C   0  0  2  0  0  3  0  0  0  0  0  0
  160.8100  214.3050  147.5410 O   0  0  0  0  0  1  0  0  0  0  0  0
  159.4710  212.5630  146.8950 O   0  0  0  0  0  0  0  0  0  0  0  0
  159.5980  213.6260  147.5570 C   0  0  0  0  0  0  0  0  0  0  0  0
  160.7240  212.4620  150.4150 O   0  0  0  0  0  1  0  0  0  0  0  0
  160.0920  213.6550  150.5410 N   0  0  0  0  0  2  0  0  0  0  0  0
  1 13  1  6  0  0  0
  1  4  1  0  0  0  0
  2  6  1  0  0  0  0
  3  9  1  6  0  0  0
  4  9  1  6  0  0  0
  4  3  1  0  0  0  0
  5  7  1  0  0  0  0
  5  8  2  0  0  0  0
  6  3  1  0  0  0  0
  6 28  1  1  0  0  0
  7 10  1  0  0  0  0
  8  1  1  0  0  0  0
  8  2  1  0  0  0  0
 10  2  2  0  0  0  0
 11 13  1  0  0  0  0
 13 12  2  0  0  0  0
 15 18  1  0  0  0  0
 15 11  1  1  0  0  0
 16 19  1  0  0  0  0
 16 17  2  0  0  0  0
 17 15  1  0  0  0  0
 18 14  1  0  0  0  0
 19 21  1  6  0  0  0
 19 20  1  0  0  0  0
 20 14  2  0  0  0  0
 22 17  1  0  0  0  0
 23 24  1  0  0  0  0
 24 22  1  0  0  0  0
 25 23  1  0  0  0  0
 25 24  1  0  0  0  0
 26 28  1  0  0  0  0
 28 27  2  0  0  0  0
 29 30  1  0  0  0  0
 29 26  1  0  0  0  0
 31 36  1  6  0  0  0
 31 34  1  0  0  0  0
 31 30  1  0  0  0  0
 31 32  1  0  0  0  0
 32 33  1  0  0  0  0
 35 34  1  0  0  0  0
 37 36  1  1  0  0  0
 38 40  1  0  0  0  0
 39 40  1  0  0  0  0
 39 37  1  1  0  0  0
 41 38  1  0  0  0  0
 41 42  1  0  0  0  0
 42 45  1  6  0  0  0
 42 39  1  0  0  0  0
 43 45  1  0  0  0  0
 44 45  2  0  0  0  0
 46 47  1  0  0  0  0
 47 37  1  0  0  0  0
M  END
>  <MODEL>
6

>  <REMARK>
 VINA RESULT:      -3.3      3.536      9.652
  Name = 
  15 active torsions:
  status: ('A' for Active; 'I' for Inactive)
    1  A    between atoms: C_2  and  C_38
    2  A    between atoms: N_3  and  C_18
    3  A    between atoms: C_5  and  N_16
    4  A    between atoms: C_7  and  C_41
    5  A    between atoms: O_9  and  C_23
    6  A    between atoms: O_9  and  C_33
    7  A    between atoms: C_18  and  C_25
    8  A    between atoms: C_18  and  C_37
    9  A    between atoms: C_18  and  C_46
   10  A    between atoms: C_21  and  C_35
   11  A    between atoms: C_27  and  C_39
   12  A    between atoms: N_29  and  C_43
   13  A    between atoms: C_37  and  C_43
   14  A    between atoms: N_40  and  C_41
   15  A    between atoms: C_41  and  C_46
                            x       y       z     vdW  Elec       q    Type
                         _______ _______ _______ _____ _____    ______ ____

>  <TORSDO>
F 15

$$$$
=
 OpenBabel11072414273D

 47 52  0  0  1  0  0  0  0  0999 V2000
  161.0400  205.5530  151.1500 C   0  0  1  0  0  3  0  0  0  0  0  0
  161.3850  207.9250  150.4170 C   0  0  0  0  0  0  0  0  0  0  0  0
  161.8420  207.4220  152.8420 C   0  0  1  0  0  3  0  0  0  0  0  0
  161.7110  205.9180  152.4930 C   0  0  1  0  0  3  0  0  0  0  0  0
  161.1560  206.5470  148.7400 C   0  0  0  0  0  3  0  0  0  0  0  0
  161.2860  208.4310  151.8180 C   0  0  1  0  0  3  0  0  0  0  0  0
  161.2340  207.7930  148.3100 O   0  0  0  0  0  0  0  0  0  0  0  0
  161.2680  206.6060  150.1160 C   0  0  0  0  0  0  0  0  0  0  0  0
  160.7020  206.5930  153.4000 C   0  0  0  0  0  2  0  0  0  0  0  0
  161.3480  208.6490  149.2900 N   0  0  0  0  0  0  0  0  0  0  0  0
  161.3370  203.8720  149.2930 N   0  0  0  0  0  2  0  0  0  0  0  0
  162.0720  203.4130  151.4580 O   0  0  0  0  0  0  0  0  0  0  0  0
  161.4900  204.2070  150.6730 C   0  0  0  0  0  0  0  0  0  0  0  0
  159.4910  201.6000  149.2560 C   0  0  0  0  0  3  0  0  0  0  0  0
  161.7340  202.5780  148.7590 C   0  0  2  0  0  3  0  0  0  0  0  0
  160.8120  201.9390  146.4750 C   0  0  0  0  0  3  0  0  0  0  0  0
  161.6900  202.6120  147.2460 C   0  0  0  0  0  0  0  0  0  0  0  0
  160.9690  201.4540  149.4620 C   0  0  0  0  0  2  0  0  0  0  0  0
  159.7890  200.9280  146.9040 C   0  0  1  0  0  3  0  0  0  0  0  0
  158.9490  201.3790  148.0580 C   0  0  0  0  0  3  0  0  0  0  0  0
  158.7420  200.5370  145.5230 Cl  0  0  0  0  0  0  0  0  0  0  0  0
  162.6470  203.4380  146.6360 O   0  0  0  0  0  0  0  0  0  0  0  0
  162.7880  205.6040  145.6170 C   0  0  0  0  0  2  0  0  0  0  0  0
  162.4250  204.1450  145.4190 C   0  0  0  0  0  3  0  0  0  0  0  0
  161.3340  205.1730  145.6360 C   0  0  0  0  0  2  0  0  0  0  0  0
  161.2320  210.8510  152.7130 N   0  0  0  0  0  2  0  0  0  0  0  0
  163.0310  210.0100  151.5210 O   0  0  0  0  0  0  0  0  0  0  0  0
  161.8900  209.7930  152.0060 C   0  0  0  0  0  0  0  0  0  0  0  0
  159.8970  210.7900  153.2860 C   0  0  0  0  0  2  0  0  0  0  0  0
  159.8830  209.8460  154.4780 C   0  0  0  0  0  2  0  0  0  0  0  0
  159.6440  210.5530  155.8320 C   0  0  1  0  0  0  0  0  0  0  0  0
  160.5450  209.9870  156.8440 N   0  0  0  0  0  2  0  0  0  0  0  0
  161.8310  210.0710  156.4220 O   0  0  0  0  0  1  0  0  0  0  0  0
  160.0420  212.0330  155.7100 C   0  0  0  0  0  2  0  0  0  0  0  0
  160.6550  212.6400  156.9680 C   0  0  0  0  0  1  0  0  0  0  0  0
  158.1830  210.4410  156.3340 C   0  0  0  0  0  2  0  0  0  0  0  0
  157.1060  210.8470  155.3160 C   0  0  2  0  0  3  0  0  0  0  0  0
  156.6800  213.9290  157.2600 C   0  0  0  0  0  2  0  0  0  0  0  0
  156.2580  212.0460  155.7620 C   0  0  1  0  0  3  0  0  0  0  0  0
  156.4630  212.4270  157.2220 C   0  0  0  0  0  2  0  0  0  0  0  0
  156.3380  214.4530  155.8820 C   0  0  0  0  0  2  0  0  0  0  0  0
  156.5750  213.2900  154.9470 C   0  0  2  0  0  3  0  0  0  0  0  0
  156.2960  213.6910  152.5040 O   0  0  0  0  0  0  0  0  0  0  0  0
  154.4620  213.2680  153.8090 O   0  0  0  0  0  1  0  0  0  0  0  0
  155.7120  213.4000  153.7300 C   0  0  0  0  0  0  0  0  0  0  0  0
  154.9630  210.0380  155.0860 O   0  0  0  0  0  1  0  0  0  0  0  0
  156.2690  209.7210  154.9060 N   0  0  0  0  0  2  0  0  0  0  0  0
  1 13  1  6  0  0  0
  1  4  1  0  0  0  0
  2  6  1  0  0  0  0
  3  9  1  1  0  0  0
  4  3  1  0  0  0  0
  4  9  1  1  0  0  0
  5  8  2  0  0  0  0
  6 28  1  6  0  0  0
  6  3  1  0  0  0  0
  7  5  1  0  0  0  0
  7 10  1  0  0  0  0
  8  2  1  0  0  0  0
  8  1  1  0  0  0  0
 10  2  2  0  0  0  0
 11 13  1  0  0  0  0
 13 12  2  0  0  0  0
 14 18  1  0  0  0  0
 15 11  1  1  0  0  0
 15 18  1  0  0  0  0
 16 19  1  0  0  0  0
 16 17  2  0  0  0  0
 17 15  1  0  0  0  0
 19 21  1  6  0  0  0
 19 20  1  0  0  0  0
 20 14  2  0  0  0  0
 22 17  1  0  0  0  0
 23 25  1  0  0  0  0
 24 23  1  0  0  0  0
 24 25  1  0  0  0  0
 24 22  1  0  0  0  0
 26 29  1  0  0  0  0
 27 28  2  0  0  0  0
 28 26  1  0  0  0  0
 29 30  1  0  0  0  0
 31 30  1  6  0  0  0
 31 36  1  0  0  0  0
 31 32  1  0  0  0  0
 33 32  1  0  0  0  0
 34 31  1  0  0  0  0
 34 35  1  0  0  0  0
 37 36  1  1  0  0  0
 39 37  1  6  0  0  0
 39 40  1  0  0  0  0
 40 38  1  0  0  0  0
 41 38  1  0  0  0  0
 42 45  1  6  0  0  0
 42 39  1  0  0  0  0
 42 41  1  0  0  0  0
 43 45  2  0  0  0  0
 45 44  1  0  0  0  0
 47 46  1  0  0  0  0
 47 37  1  0  0  0  0
M  END
>  <MODEL>
7

>  <REMARK>
 VINA RESULT:      -3.1      3.263     10.693
  Name = 
  15 active torsions:
  status: ('A' for Active; 'I' for Inactive)
    1  A    between atoms: C_2  and  C_38
    2  A    between atoms: N_3  and  C_18
    3  A    between atoms: C_5  and  N_16
    4  A    between atoms: C_7  and  C_41
    5  A    between atoms: O_9  and  C_23
    6  A    between atoms: O_9  and  C_33
    7  A    between atoms: C_18  and  C_25
    8  A    between atoms: C_18  and  C_37
    9  A    between atoms: C_18  and  C_46
   10  A    between atoms: C_21  and  C_35
   11  A    between atoms: C_27  and  C_39
   12  A    between atoms: N_29  and  C_43
   13  A    between atoms: C_37  and  C_43
   14  A    between atoms: N_40  and  C_41
   15  A    between atoms: C_41  and  C_46
                            x       y       z     vdW  Elec       q    Type
                         _______ _______ _______ _____ _____    ______ ____

>  <TORSDO>
F 15

$$$$
