=
 OpenBabel11072411463D

 53 58  0  0  1  0  0  0  0  0999 V2000
  159.0730  212.3170  151.0500 C   0  0  0  0  0  3  0  0  0  0  0  0
  157.1200  213.5860  153.1830 N   0  0  0  0  0  2  0  0  0  0  0  0
  160.2640  207.9180  152.2200 C   0  0  0  0  0  1  0  0  0  0  0  0
  156.9420  210.9980  154.4350 C   0  0  2  0  0  3  0  0  0  0  0  0
  159.9320  212.5350  149.8740 C   0  0  0  0  0  0  0  0  0  0  0  0
  154.6680  213.1740  156.6430 C   0  0  0  0  0  3  0  0  0  0  0  0
  157.7750  212.6480  151.0480 C   0  0  0  0  0  0  0  0  0  0  0  0
  161.9750  209.3780  149.9620 O   0  0  0  0  0  0  0  0  0  0  0  0
  159.0240  209.8460  155.5850 C   0  0  2  0  0  3  0  0  0  0  0  0
  159.3470  213.2030  148.6880 C   0  0  0  0  0  3  0  0  0  0  0  0
  158.3060  208.5430  155.2690 C   0  0  0  0  0  1  0  0  0  0  0  0
  158.1840  211.0700  155.3040 C   0  0  0  0  0  0  0  0  0  0  0  0
  161.6530  211.4080  151.0320 O   0  0  0  0  0  0  0  0  0  0  0  0
  156.9520  212.4360  152.2840 C   0  0  1  0  0  3  0  0  0  0  0  0
  156.4010  213.4580  154.4590 C   0  0  1  0  0  3  0  0  0  0  0  0
  161.0950  208.8700  153.0620 C   0  0  1  0  0  3  0  0  0  0  0  0
  157.1990  213.3020  149.8520 C   0  0  0  0  0  0  0  0  0  0  0  0
  162.0000  210.0530  151.0260 C   0  0  0  0  0  0  0  0  0  0  0  0
  160.4090  209.8800  154.9160 C   0  0  1  0  0  3  0  0  0  0  0  0
  155.2590  214.4530  154.5940 C   0  0  0  0  0  2  0  0  0  0  0  0
  155.2800  211.9810  156.1020 N   0  0  0  0  0  0  0  0  0  0  0  0
  157.3260  211.0920  152.9570 C   0  0  0  0  0  2  0  0  0  0  0  0
  162.3350  209.3720  152.3130 C   0  0  0  0  0  2  0  0  0  0  0  0
  158.5330  212.1350  155.7900 O   0  0  0  0  0  0  0  0  0  0  0  0
  160.3090  209.9360  153.5200 O   0  0  0  0  0  0  0  0  0  0  0  0
  155.9870  213.6410  149.8260 O   0  0  0  0  0  0  0  0  0  0  0  0
  161.1950  212.0840  149.8920 C   0  0  0  0  0  0  0  0  0  0  0  0
  154.6600  214.3340  155.9690 C   0  0  0  0  0  3  0  0  0  0  0  0
  155.8700  212.0510  154.7520 C   0  0  2  0  0  3  0  0  0  0  0  0
  158.0590  213.5640  148.6800 C   0  0  0  0  0  3  0  0  0  0  0  0
  162.1080  212.2940  148.7130 C   0  0  2  0  0  3  0  0  0  0  0  0
  162.3620  213.2260  146.4550 N   0  0  0  0  0  2  0  0  0  0  0  0
  163.2560  213.0480  149.0980 O   0  0  0  0  0  0  0  0  0  0  0  0
  163.2490  214.2900  146.9190 C   0  0  0  0  0  2  0  0  0  0  0  0
  161.3900  212.9310  147.5070 C   0  0  1  0  0  3  0  0  0  0  0  0
  165.0250  214.4000  148.5180 O   0  0  0  0  0  0  0  0  0  0  0  0
  163.9130  213.9000  148.2060 C   0  0  0  0  0  0  0  0  0  0  0  0
  160.2550  212.0650  146.9570 C   0  0  0  0  0  2  0  0  0  0  0  0
  159.5480  212.6880  145.7560 C   0  0  0  0  0  2  0  0  0  0  0  0
  159.5830  211.8110  144.6700 O   0  0  0  0  0  0  0  0  0  0  0  0
  160.2500  212.5160  143.6610 C   0  0  0  0  0  2  0  0  0  0  0  0
  160.6850  211.5600  142.5560 C   0  0  0  0  0  2  0  0  0  0  0  0
  161.8940  212.0740  141.8410 C   0  0  0  0  0  3  0  0  0  0  0  0
  161.8840  213.2660  141.2520 C   0  0  0  0  0  2  0  0  0  0  0  0
  155.5580  209.5370  155.9890 C   0  0  0  0  0  2  0  0  0  0  0  0
  153.9500  210.2010  157.2440 C   0  0  0  0  0  2  0  0  0  0  0  0
  155.3360  210.7410  156.8970 C   0  0  0  0  0  3  0  0  0  0  0  0
  154.1780  209.0080  156.3370 C   0  0  0  0  0  2  0  0  0  0  0  0
  161.2730  211.0380  155.4230 C   0  0  0  0  0  2  0  0  0  0  0  0
  162.3570  209.3630  156.9380 C   0  0  0  0  0  1  0  0  0  0  0  0
  163.1770  211.7040  156.9300 C   0  0  0  0  0  1  0  0  0  0  0  0
  163.4790  210.2750  155.0840 F   0  0  0  0  0  0  0  0  0  0  0  0
  162.5810  210.5940  156.0810 C   0  0  0  0  0  0  0  0  0  0  0  0
  2 15  1  0  0  0  0
  4 22  1  6  0  0  0
  4 29  1  0  0  0  0
  4 12  1  0  0  0  0
  5 27  2  0  0  0  0
  5  1  1  0  0  0  0
  7  1  2  0  0  0  0
  7 14  1  0  0  0  0
  8 18  2  0  0  0  0
  9 11  1  6  0  0  0
 10  5  1  0  0  0  0
 12  9  1  0  0  0  0
 12 24  2  0  0  0  0
 14 22  1  1  0  0  0
 14  2  1  0  0  0  0
 15 20  1  6  0  0  0
 15 29  1  0  0  0  0
 16  3  1  6  0  0  0
 16 25  1  0  0  0  0
 17  7  1  0  0  0  0
 18 13  1  0  0  0  0
 18 23  1  0  0  0  0
 19 49  1  1  0  0  0
 19  9  1  0  0  0  0
 20 28  1  0  0  0  0
 21  6  1  0  0  0  0
 21 47  1  0  0  0  0
 23 16  1  0  0  0  0
 25 19  1  0  0  0  0
 26 17  2  0  0  0  0
 27 13  1  0  0  0  0
 28  6  2  0  0  0  0
 29 21  1  1  0  0  0
 30 10  2  0  0  0  0
 30 17  1  0  0  0  0
 31 33  1  0  0  0  0
 31 27  1  1  0  0  0
 32 34  1  0  0  0  0
 32 35  1  0  0  0  0
 34 37  1  0  0  0  0
 35 38  1  6  0  0  0
 35 31  1  0  0  0  0
 37 36  2  0  0  0  0
 37 33  1  0  0  0  0
 39 38  1  0  0  0  0
 40 39  1  0  0  0  0
 41 40  1  0  0  0  0
 42 41  1  0  0  0  0
 43 42  1  0  0  0  0
 44 43  2  0  0  0  0
 45 48  1  0  0  0  0
 45 47  1  0  0  0  0
 47 46  1  0  0  0  0
 48 46  1  0  0  0  0
 49 53  1  0  0  0  0
 52 53  1  0  0  0  0
 53 51  1  0  0  0  0
 53 50  1  0  0  0  0
M  END
>  <MODEL>
1

>  <REMARK>
 VINA RESULT:       6.3      0.000      0.000
  Name = 
  10 active torsions:
  status: ('A' for Active; 'I' for Inactive)
    1  A    between atoms: C_3  and  C_44
    2  A    between atoms: O_14  and  C_30
    3  A    between atoms: O_14  and  C_34
    4  A    between atoms: C_17  and  C_49
    5  A    between atoms: C_28  and  C_29
    6  A    between atoms: C_28  and  C_47
    7  A    between atoms: C_30  and  C_50
    8  A    between atoms: N_32  and  C_37
    9  A    between atoms: C_34  and  C_49
   10  A    between atoms: C_39  and  C_50
                            x       y       z     vdW  Elec       q    Type
                         _______ _______ _______ _____ _____    ______ ____

>  <TORSDO>
F 10

$$$$
=
 OpenBabel11072411463D

 53 58  0  0  1  0  0  0  0  0999 V2000
  159.5770  211.9200  151.5440 C   0  0  0  0  0  3  0  0  0  0  0  0
  157.4540  213.4120  153.3420 N   0  0  0  0  0  2  0  0  0  0  0  0
  160.3840  207.5560  153.1060 C   0  0  0  0  0  1  0  0  0  0  0  0
  156.9900  210.9210  154.7120 C   0  0  2  0  0  3  0  0  0  0  0  0
  160.5820  212.0220  150.4710 C   0  0  0  0  0  0  0  0  0  0  0  0
  154.5860  213.3370  156.4930 C   0  0  0  0  0  3  0  0  0  0  0  0
  158.3090  212.3090  151.3630 C   0  0  0  0  0  0  0  0  0  0  0  0
  162.4280  208.7870  150.9940 O   0  0  0  0  0  0  0  0  0  0  0  0
  158.8540  209.7510  156.1740 C   0  0  2  0  0  3  0  0  0  0  0  0
  160.1790  212.6380  149.1850 C   0  0  0  0  0  3  0  0  0  0  0  0
  158.1110  208.4640  155.8490 C   0  0  0  0  0  1  0  0  0  0  0  0
  158.1210  210.9910  155.7220 C   0  0  0  0  0  0  0  0  0  0  0  0
  162.0890  210.8950  151.8960 O   0  0  0  0  0  0  0  0  0  0  0  0
  157.3330  212.2150  152.4990 C   0  0  1  0  0  3  0  0  0  0  0  0
  156.5810  213.3990  154.5260 C   0  0  1  0  0  3  0  0  0  0  0  0
  161.1580  208.5210  153.9860 C   0  0  1  0  0  3  0  0  0  0  0  0
  157.9150  212.9100  150.0690 C   0  0  0  0  0  0  0  0  0  0  0  0
  162.3620  209.5270  152.0120 C   0  0  0  0  0  0  0  0  0  0  0  0
  160.3090  209.6780  155.6800 C   0  0  1  0  0  3  0  0  0  0  0  0
  155.4860  214.4520  154.4610 C   0  0  0  0  0  2  0  0  0  0  0  0
  155.1940  212.0840  156.1030 N   0  0  0  0  0  0  0  0  0  0  0  0
  157.5520  210.9010  153.2900 C   0  0  0  0  0  2  0  0  0  0  0  0
  162.5030  208.9160  153.3670 C   0  0  0  0  0  2  0  0  0  0  0  0
  158.4650  212.0690  156.1840 O   0  0  0  0  0  0  0  0  0  0  0  0
  160.3800  209.6490  154.2810 O   0  0  0  0  0  0  0  0  0  0  0  0
  156.7350  213.3020  149.8740 O   0  0  0  0  0  0  0  0  0  0  0  0
  161.8070  211.5160  150.6710 C   0  0  0  0  0  0  0  0  0  0  0  0
  154.7210  214.4490  155.7570 C   0  0  0  0  0  3  0  0  0  0  0  0
  155.9440  212.0400  154.8330 C   0  0  2  0  0  3  0  0  0  0  0  0
  158.9220  213.0570  148.9980 C   0  0  0  0  0  3  0  0  0  0  0  0
  162.8650  211.6070  149.6020 C   0  0  2  0  0  3  0  0  0  0  0  0
  163.5900  210.8920  147.3680 N   0  0  0  0  0  2  0  0  0  0  0  0
  163.0160  212.9570  149.1630 O   0  0  0  0  0  0  0  0  0  0  0  0
  163.3530  212.2130  146.7910 C   0  0  0  0  0  2  0  0  0  0  0  0
  162.6030  210.6530  148.4200 C   0  0  1  0  0  3  0  0  0  0  0  0
  163.7070  214.4530  147.5560 O   0  0  0  0  0  0  0  0  0  0  0  0
  163.3990  213.2690  147.8560 C   0  0  0  0  0  0  0  0  0  0  0  0
  162.6030  209.1780  148.8270 C   0  0  0  0  0  2  0  0  0  0  0  0
  162.2270  208.2370  147.6850 C   0  0  0  0  0  2  0  0  0  0  0  0
  162.4750  206.9140  148.0520 O   0  0  0  0  0  0  0  0  0  0  0  0
  161.5770  206.1560  147.2910 C   0  0  0  0  0  2  0  0  0  0  0  0
  162.2320  205.7250  145.9840 C   0  0  0  0  0  2  0  0  0  0  0  0
  161.2220  205.1860  145.0240 C   0  0  0  0  0  3  0  0  0  0  0  0
  160.9310  203.8890  144.9950 C   0  0  0  0  0  2  0  0  0  0  0  0
  155.2520  209.6230  156.1480 C   0  0  0  0  0  2  0  0  0  0  0  0
  153.6400  210.5040  157.2570 C   0  0  0  0  0  2  0  0  0  0  0  0
  155.0880  210.8960  156.9700 C   0  0  0  0  0  3  0  0  0  0  0  0
  153.8110  209.2410  156.4370 C   0  0  0  0  0  2  0  0  0  0  0  0
  161.1670  210.8260  156.2210 C   0  0  0  0  0  2  0  0  0  0  0  0
  162.8160  209.1300  157.0450 C   0  0  0  0  0  1  0  0  0  0  0  0
  163.3920  211.5400  157.1580 C   0  0  0  0  0  1  0  0  0  0  0  0
  163.2020  210.4030  155.1060 F   0  0  0  0  0  0  0  0  0  0  0  0
  162.6490  210.4760  156.3670 C   0  0  0  0  0  0  0  0  0  0  0  0
  2 15  1  0  0  0  0
  4 22  1  6  0  0  0
  4 29  1  0  0  0  0
  4 12  1  0  0  0  0
  5 27  2  0  0  0  0
  5  1  1  0  0  0  0
  7  1  2  0  0  0  0
  7 14  1  0  0  0  0
  8 18  2  0  0  0  0
  9 11  1  6  0  0  0
 10  5  1  0  0  0  0
 12  9  1  0  0  0  0
 12 24  2  0  0  0  0
 13 18  1  0  0  0  0
 14 22  1  1  0  0  0
 14  2  1  0  0  0  0
 15 20  1  6  0  0  0
 15 29  1  0  0  0  0
 16  3  1  6  0  0  0
 16 25  1  0  0  0  0
 17  7  1  0  0  0  0
 18 23  1  0  0  0  0
 19  9  1  0  0  0  0
 19 49  1  6  0  0  0
 20 28  1  0  0  0  0
 21  6  1  0  0  0  0
 21 47  1  0  0  0  0
 23 16  1  0  0  0  0
 25 19  1  0  0  0  0
 26 17  2  0  0  0  0
 27 13  1  0  0  0  0
 28  6  2  0  0  0  0
 29 21  1  1  0  0  0
 30 10  2  0  0  0  0
 30 17  1  0  0  0  0
 31 27  1  1  0  0  0
 32 35  1  0  0  0  0
 33 31  1  0  0  0  0
 34 32  1  0  0  0  0
 34 37  1  0  0  0  0
 35 38  1  1  0  0  0
 35 31  1  0  0  0  0
 36 37  2  0  0  0  0
 37 33  1  0  0  0  0
 39 40  1  0  0  0  0
 39 38  1  0  0  0  0
 41 40  1  0  0  0  0
 42 41  1  0  0  0  0
 43 42  1  0  0  0  0
 44 43  2  0  0  0  0
 45 48  1  0  0  0  0
 45 47  1  0  0  0  0
 47 46  1  0  0  0  0
 48 46  1  0  0  0  0
 49 53  1  0  0  0  0
 52 53  1  0  0  0  0
 53 50  1  0  0  0  0
 53 51  1  0  0  0  0
M  END
>  <MODEL>
2

>  <REMARK>
 VINA RESULT:       6.6      2.185      2.751
  Name = 
  10 active torsions:
  status: ('A' for Active; 'I' for Inactive)
    1  A    between atoms: C_3  and  C_44
    2  A    between atoms: O_14  and  C_30
    3  A    between atoms: O_14  and  C_34
    4  A    between atoms: C_17  and  C_49
    5  A    between atoms: C_28  and  C_29
    6  A    between atoms: C_28  and  C_47
    7  A    between atoms: C_30  and  C_50
    8  A    between atoms: N_32  and  C_37
    9  A    between atoms: C_34  and  C_49
   10  A    between atoms: C_39  and  C_50
                            x       y       z     vdW  Elec       q    Type
                         _______ _______ _______ _____ _____    ______ ____

>  <TORSDO>
F 10

$$$$
=
 OpenBabel11072411463D

 53 58  0  0  1  0  0  0  0  0999 V2000
  158.9220  211.7570  151.1950 C   0  0  0  0  0  3  0  0  0  0  0  0
  157.5160  212.6690  148.5200 N   0  0  0  0  0  2  0  0  0  0  0  0
  163.6080  211.7970  150.7690 C   0  0  0  0  0  1  0  0  0  0  0  0
  160.1130  213.3740  147.4940 C   0  0  2  0  0  3  0  0  0  0  0  0
  158.7700  211.1620  152.5350 C   0  0  0  0  0  0  0  0  0  0  0  0
  157.7710  214.2760  144.5810 C   0  0  0  0  0  3  0  0  0  0  0  0
  158.2380  212.8460  150.8250 C   0  0  0  0  0  0  0  0  0  0  0  0
  162.3490  210.2660  153.2660 O   0  0  0  0  0  0  0  0  0  0  0  0
  161.9860  211.5650  147.0430 C   0  0  2  0  0  3  0  0  0  0  0  0
  157.7760  211.7560  153.4600 C   0  0  0  0  0  3  0  0  0  0  0  0
  162.9580  212.7120  147.2680 C   0  0  0  0  0  1  0  0  0  0  0  0
  160.5440  212.0110  146.9830 C   0  0  0  0  0  0  0  0  0  0  0  0
  160.5160  209.6740  151.9770 O   0  0  0  0  0  0  0  0  0  0  0  0
  158.4060  213.3930  149.4370 C   0  0  1  0  0  3  0  0  0  0  0  0
  157.6400  213.0840  147.1140 C   0  0  1  0  0  3  0  0  0  0  0  0
  163.0850  210.5380  150.0990 C   0  0  1  0  0  3  0  0  0  0  0  0
  157.2600  213.4390  151.7640 C   0  0  0  0  0  0  0  0  0  0  0  0
  161.8930  209.7880  152.1920 C   0  0  0  0  0  0  0  0  0  0  0  0
  162.2400  210.4300  148.0500 C   0  0  1  0  0  3  0  0  0  0  0  0
  156.3960  213.7870  146.5950 C   0  0  0  0  0  2  0  0  0  0  0  0
  158.9830  214.2150  145.3660 N   0  0  0  0  0  0  0  0  0  0  0  0
  159.8920  213.3250  149.0070 C   0  0  0  0  0  2  0  0  0  0  0  0
  162.8430  209.4060  151.1040 C   0  0  0  0  0  2  0  0  0  0  0  0
  159.7180  211.2410  146.5170 O   0  0  0  0  0  0  0  0  0  0  0  0
  161.9290  210.8190  149.3590 O   0  0  0  0  0  0  0  0  0  0  0  0
  156.5880  214.4520  151.4370 O   0  0  0  0  0  0  0  0  0  0  0  0
  159.5590  210.1390  152.8910 C   0  0  0  0  0  0  0  0  0  0  0  0
  156.5630  214.0660  145.1270 C   0  0  0  0  0  3  0  0  0  0  0  0
  158.8650  213.9540  146.8140 C   0  0  2  0  0  3  0  0  0  0  0  0
  157.0650  212.8280  153.0940 C   0  0  0  0  0  3  0  0  0  0  0  0
  159.4290  209.4980  154.2480 C   0  0  2  0  0  3  0  0  0  0  0  0
  160.5940  208.6380  156.2310 N   0  0  0  0  0  2  0  0  0  0  0  0
  158.6640  210.3290  155.1210 O   0  0  0  0  0  0  0  0  0  0  0  0
  160.1360  209.7440  157.0670 C   0  0  0  0  0  2  0  0  0  0  0  0
  160.7910  209.1280  154.8670 C   0  0  1  0  0  3  0  0  0  0  0  0
  158.0750  210.9440  157.2580 O   0  0  0  0  0  0  0  0  0  0  0  0
  158.8850  210.3500  156.5010 C   0  0  0  0  0  0  0  0  0  0  0  0
  161.5680  208.1030  154.0380 C   0  0  0  0  0  2  0  0  0  0  0  0
  160.9230  206.7190  154.0310 C   0  0  0  0  0  2  0  0  0  0  0  0
  160.3140  206.4800  152.7980 O   0  0  0  0  0  0  0  0  0  0  0  0
  161.3690  206.1810  151.9280 C   0  0  0  0  0  2  0  0  0  0  0  0
  161.8400  204.7480  152.1510 C   0  0  0  0  0  2  0  0  0  0  0  0
  161.6400  203.9150  150.9260 C   0  0  0  0  0  3  0  0  0  0  0  0
  160.4650  203.8900  150.3030 C   0  0  0  0  0  2  0  0  0  0  0  0
  160.1490  214.4510  143.2110 C   0  0  0  0  0  2  0  0  0  0  0  0
  161.0480  213.0560  144.5700 C   0  0  0  0  0  2  0  0  0  0  0  0
  160.3010  214.3790  144.7250 C   0  0  0  0  0  3  0  0  0  0  0  0
  160.8920  213.1350  143.0650 C   0  0  0  0  0  2  0  0  0  0  0  0
  161.4770  209.1510  147.6910 C   0  0  0  0  0  2  0  0  0  0  0  0
  163.4450  207.7090  148.2630 C   0  0  0  0  0  1  0  0  0  0  0  0
  161.2090  206.6660  148.0010 C   0  0  0  0  0  1  0  0  0  0  0  0
  161.7060  208.1070  149.7950 F   0  0  0  0  0  0  0  0  0  0  0  0
  161.9540  207.9120  148.4520 C   0  0  0  0  0  0  0  0  0  0  0  0
  1  5  1  0  0  0  0
  2 14  1  0  0  0  0
  4 22  1  1  0  0  0
  5 27  2  0  0  0  0
  5 10  1  0  0  0  0
  6 28  2  0  0  0  0
  6 21  1  0  0  0  0
  7  1  2  0  0  0  0
  7 17  1  0  0  0  0
  9 11  1  1  0  0  0
  9 19  1  0  0  0  0
 12  9  1  0  0  0  0
 12  4  1  0  0  0  0
 13 18  1  0  0  0  0
 13 27  1  0  0  0  0
 14 22  1  6  0  0  0
 14  7  1  0  0  0  0
 15 20  1  1  0  0  0
 15  2  1  0  0  0  0
 16  3  1  1  0  0  0
 16 23  1  0  0  0  0
 17 30  1  0  0  0  0
 18  8  2  0  0  0  0
 19 49  1  6  0  0  0
 19 25  1  0  0  0  0
 23 18  1  0  0  0  0
 24 12  2  0  0  0  0
 25 16  1  0  0  0  0
 26 17  2  0  0  0  0
 28 20  1  0  0  0  0
 29 21  1  6  0  0  0
 29 15  1  0  0  0  0
 29  4  1  0  0  0  0
 30 10  2  0  0  0  0
 31 27  1  6  0  0  0
 31 35  1  0  0  0  0
 31 33  1  0  0  0  0
 32 34  1  0  0  0  0
 33 37  1  0  0  0  0
 35 38  1  6  0  0  0
 35 32  1  0  0  0  0
 37 34  1  0  0  0  0
 37 36  2  0  0  0  0
 39 38  1  0  0  0  0
 40 39  1  0  0  0  0
 41 42  1  0  0  0  0
 41 40  1  0  0  0  0
 43 42  1  0  0  0  0
 44 43  2  0  0  0  0
 45 47  1  0  0  0  0
 46 47  1  0  0  0  0
 47 21  1  0  0  0  0
 48 45  1  0  0  0  0
 48 46  1  0  0  0  0
 49 53  1  0  0  0  0
 50 53  1  0  0  0  0
 51 53  1  0  0  0  0
 53 52  1  0  0  0  0
M  END
>  <MODEL>
3

>  <REMARK>
 VINA RESULT:       7.5      2.634      8.712
  Name = 
  10 active torsions:
  status: ('A' for Active; 'I' for Inactive)
    1  A    between atoms: C_3  and  C_44
    2  A    between atoms: O_14  and  C_30
    3  A    between atoms: O_14  and  C_34
    4  A    between atoms: C_17  and  C_49
    5  A    between atoms: C_28  and  C_29
    6  A    between atoms: C_28  and  C_47
    7  A    between atoms: C_30  and  C_50
    8  A    between atoms: N_32  and  C_37
    9  A    between atoms: C_34  and  C_49
   10  A    between atoms: C_39  and  C_50
                            x       y       z     vdW  Elec       q    Type
                         _______ _______ _______ _____ _____    ______ ____

>  <TORSDO>
F 10

$$$$
=
 OpenBabel11072411463D

 53 58  0  0  1  0  0  0  0  0999 V2000
  159.4420  211.6640  151.9350 C   0  0  0  0  0  3  0  0  0  0  0  0
  157.4360  212.6920  149.7230 N   0  0  0  0  0  2  0  0  0  0  0  0
  163.8580  211.5310  150.3170 C   0  0  0  0  0  1  0  0  0  0  0  0
  159.7120  213.3190  148.0720 C   0  0  2  0  0  3  0  0  0  0  0  0
  159.6120  211.0440  153.2610 C   0  0  0  0  0  0  0  0  0  0  0  0
  156.7410  214.3800  145.8730 C   0  0  0  0  0  3  0  0  0  0  0  0
  158.7330  212.7870  151.7660 C   0  0  0  0  0  0  0  0  0  0  0  0
  163.2160  209.9930  153.0340 O   0  0  0  0  0  0  0  0  0  0  0  0
  161.3240  211.4500  147.1310 C   0  0  2  0  0  3  0  0  0  0  0  0
  158.9170  211.6550  154.4180 C   0  0  0  0  0  3  0  0  0  0  0  0
  162.3710  212.5520  147.1120 C   0  0  0  0  0  1  0  0  0  0  0  0
  159.9370  211.9530  147.4500 C   0  0  0  0  0  0  0  0  0  0  0  0
  161.0900  209.5030  152.2530 O   0  0  0  0  0  0  0  0  0  0  0  0
  158.5630  213.3600  150.3900 C   0  0  1  0  0  3  0  0  0  0  0  0
  157.2130  213.1340  148.3380 C   0  0  1  0  0  3  0  0  0  0  0  0
  163.1260  210.3100  149.7880 C   0  0  1  0  0  3  0  0  0  0  0  0
  158.0560  213.3960  152.9330 C   0  0  0  0  0  0  0  0  0  0  0  0
  162.4800  209.5580  152.1080 C   0  0  0  0  0  0  0  0  0  0  0  0
  161.7790  210.2820  148.0240 C   0  0  1  0  0  3  0  0  0  0  0  0
  155.9100  213.8970  148.1660 C   0  0  0  0  0  2  0  0  0  0  0  0
  158.1110  214.2530  146.3180 N   0  0  0  0  0  0  0  0  0  0  0  0
  159.8840  213.2430  149.5900 C   0  0  0  0  0  2  0  0  0  0  0  0
  163.1020  209.1650  150.8070 C   0  0  0  0  0  2  0  0  0  0  0  0
  158.9860  211.2260  147.2030 O   0  0  0  0  0  0  0  0  0  0  0  0
  161.8320  210.6530  149.3740 O   0  0  0  0  0  0  0  0  0  0  0  0
  157.3680  214.4420  152.8030 O   0  0  0  0  0  0  0  0  0  0  0  0
  160.4210  209.9830  153.3890 C   0  0  0  0  0  0  0  0  0  0  0  0
  155.7060  214.2040  146.7080 C   0  0  0  0  0  3  0  0  0  0  0  0
  158.3570  213.9630  147.7430 C   0  0  2  0  0  3  0  0  0  0  0  0
  158.1830  212.7620  154.2610 C   0  0  0  0  0  3  0  0  0  0  0  0
  160.6160  209.3170  154.7250 C   0  0  2  0  0  3  0  0  0  0  0  0
  160.4900  209.5400  157.1670 N   0  0  0  0  0  2  0  0  0  0  0  0
  159.7750  208.1690  154.8380 O   0  0  0  0  0  0  0  0  0  0  0  0
  159.3310  208.6550  157.2580 C   0  0  0  0  0  2  0  0  0  0  0  0
  160.4180  210.2830  155.9100 C   0  0  1  0  0  3  0  0  0  0  0  0
  158.6920  206.6280  156.1600 O   0  0  0  0  0  0  0  0  0  0  0  0
  159.2690  207.7430  156.0690 C   0  0  0  0  0  0  0  0  0  0  0  0
  161.4190  211.4400  155.9150 C   0  0  0  0  0  2  0  0  0  0  0  0
  162.5890  211.2200  156.8700 C   0  0  0  0  0  2  0  0  0  0  0  0
  163.7990  211.4080  156.1990 O   0  0  0  0  0  0  0  0  0  0  0  0
  164.5630  212.2110  157.0550 C   0  0  0  0  0  2  0  0  0  0  0  0
  166.0460  211.9150  156.8630 C   0  0  0  0  0  2  0  0  0  0  0  0
  166.7850  213.1300  156.4010 C   0  0  0  0  0  3  0  0  0  0  0  0
  167.4710  213.8790  157.2590 C   0  0  0  0  0  2  0  0  0  0  0  0
  158.6960  214.4370  143.9330 C   0  0  0  0  0  2  0  0  0  0  0  0
  159.8850  213.0390  145.0450 C   0  0  0  0  0  2  0  0  0  0  0  0
  159.2260  214.3800  145.3610 C   0  0  0  0  0  3  0  0  0  0  0  0
  159.3540  213.1030  143.6270 C   0  0  0  0  0  2  0  0  0  0  0  0
  160.8950  209.0420  147.8590 C   0  0  0  0  0  2  0  0  0  0  0  0
  163.0430  207.7530  147.8400 C   0  0  0  0  0  1  0  0  0  0  0  0
  160.8930  206.5360  147.6200 C   0  0  0  0  0  1  0  0  0  0  0  0
  161.5170  207.6050  149.6220 F   0  0  0  0  0  0  0  0  0  0  0  0
  161.5840  207.7340  148.2510 C   0  0  0  0  0  0  0  0  0  0  0  0
  1  5  1  0  0  0  0
  2 14  1  0  0  0  0
  4 22  1  1  0  0  0
  5 27  2  0  0  0  0
  5 10  1  0  0  0  0
  6 21  1  0  0  0  0
  6 28  2  0  0  0  0
  7  1  2  0  0  0  0
  7 17  1  0  0  0  0
  9 11  1  1  0  0  0
  9 12  1  0  0  0  0
  9 19  1  0  0  0  0
 12  4  1  0  0  0  0
 13 27  1  0  0  0  0
 14 22  1  6  0  0  0
 14  7  1  0  0  0  0
 15 20  1  1  0  0  0
 15  2  1  0  0  0  0
 16  3  1  1  0  0  0
 16 23  1  0  0  0  0
 17 30  1  0  0  0  0
 18 13  1  0  0  0  0
 18  8  2  0  0  0  0
 19 49  1  1  0  0  0
 19 25  1  0  0  0  0
 23 18  1  0  0  0  0
 24 12  2  0  0  0  0
 25 16  1  0  0  0  0
 26 17  2  0  0  0  0
 28 20  1  0  0  0  0
 29 21  1  6  0  0  0
 29  4  1  0  0  0  0
 29 15  1  0  0  0  0
 30 10  2  0  0  0  0
 31 27  1  6  0  0  0
 31 33  1  0  0  0  0
 31 35  1  0  0  0  0
 32 34  1  0  0  0  0
 33 37  1  0  0  0  0
 35 38  1  1  0  0  0
 35 32  1  0  0  0  0
 37 36  2  0  0  0  0
 37 34  1  0  0  0  0
 38 39  1  0  0  0  0
 40 39  1  0  0  0  0
 40 41  1  0  0  0  0
 42 41  1  0  0  0  0
 43 42  1  0  0  0  0
 43 44  2  0  0  0  0
 45 47  1  0  0  0  0
 46 47  1  0  0  0  0
 47 21  1  0  0  0  0
 48 45  1  0  0  0  0
 48 46  1  0  0  0  0
 49 53  1  0  0  0  0
 50 53  1  0  0  0  0
 51 53  1  0  0  0  0
 53 52  1  0  0  0  0
M  END
>  <MODEL>
4

>  <REMARK>
 VINA RESULT:       8.0      2.815      9.040
  Name = 
  10 active torsions:
  status: ('A' for Active; 'I' for Inactive)
    1  A    between atoms: C_3  and  C_44
    2  A    between atoms: O_14  and  C_30
    3  A    between atoms: O_14  and  C_34
    4  A    between atoms: C_17  and  C_49
    5  A    between atoms: C_28  and  C_29
    6  A    between atoms: C_28  and  C_47
    7  A    between atoms: C_30  and  C_50
    8  A    between atoms: N_32  and  C_37
    9  A    between atoms: C_34  and  C_49
   10  A    between atoms: C_39  and  C_50
                            x       y       z     vdW  Elec       q    Type
                         _______ _______ _______ _____ _____    ______ ____

>  <TORSDO>
F 10

$$$$
=
 OpenBabel11072411463D

 53 58  0  0  1  0  0  0  0  0999 V2000
  160.9100  207.8820  151.7500 C   0  0  0  0  0  3  0  0  0  0  0  0
  158.9590  208.6870  154.0980 N   0  0  0  0  0  2  0  0  0  0  0  0
  163.0920  211.6480  149.9650 C   0  0  0  0  0  1  0  0  0  0  0  0
  160.0410  211.3540  153.9690 C   0  0  2  0  0  3  0  0  0  0  0  0
  161.3630  206.8310  150.8210 C   0  0  0  0  0  0  0  0  0  0  0  0
  157.4460  211.6210  156.7940 C   0  0  0  0  0  3  0  0  0  0  0  0
  160.9230  207.7050  153.0770 C   0  0  0  0  0  0  0  0  0  0  0  0
  163.1950  208.9340  148.2980 O   0  0  0  0  0  0  0  0  0  0  0  0
  159.7120  212.9040  151.8540 C   0  0  2  0  0  3  0  0  0  0  0  0
  161.7760  205.5240  151.3840 C   0  0  0  0  0  3  0  0  0  0  0  0
  161.0040  213.5660  152.3060 C   0  0  0  0  0  1  0  0  0  0  0  0
  159.1730  211.9080  152.8540 C   0  0  0  0  0  0  0  0  0  0  0  0
  161.0790  208.3840  149.0650 O   0  0  0  0  0  0  0  0  0  0  0  0
  160.4200  208.7950  153.9770 C   0  0  1  0  0  3  0  0  0  0  0  0
  158.3480  209.7470  154.9150 C   0  0  1  0  0  3  0  0  0  0  0  0
  161.6840  211.6080  149.3980 C   0  0  1  0  0  3  0  0  0  0  0  0
  161.3530  206.4000  153.6270 C   0  0  0  0  0  0  0  0  0  0  0  0
  161.9970  209.2730  148.4970 C   0  0  0  0  0  0  0  0  0  0  0  0
  159.8600  212.3350  150.4330 C   0  0  1  0  0  3  0  0  0  0  0  0
  157.7590  209.2230  156.2150 C   0  0  0  0  0  2  0  0  0  0  0  0
  158.5490  211.9950  155.9370 N   0  0  0  0  0  0  0  0  0  0  0  0
  160.8760  210.1800  153.4550 C   0  0  0  0  0  2  0  0  0  0  0  0
  161.5750  210.6720  148.1880 C   0  0  0  0  0  2  0  0  0  0  0  0
  158.0120  211.5440  152.7410 O   0  0  0  0  0  0  0  0  0  0  0  0
  160.7620  211.2640  150.3950 O   0  0  0  0  0  0  0  0  0  0  0  0
  161.3590  206.1970  154.8690 O   0  0  0  0  0  0  0  0  0  0  0  0
  161.4310  207.1010  149.5100 C   0  0  0  0  0  0  0  0  0  0  0  0
  157.0530  210.3450  156.9260 C   0  0  0  0  0  3  0  0  0  0  0  0
  159.2770  210.9240  155.2300 C   0  0  2  0  0  3  0  0  0  0  0  0
  161.7700  205.3230  152.7070 C   0  0  0  0  0  3  0  0  0  0  0  0
  161.8820  206.0520  148.5270 C   0  0  2  0  0  3  0  0  0  0  0  0
  161.3620  203.9290  147.4100 N   0  0  0  0  0  2  0  0  0  0  0  0
  162.0690  206.6280  147.2340 O   0  0  0  0  0  0  0  0  0  0  0  0
  161.1430  204.5790  146.1210 C   0  0  0  0  0  2  0  0  0  0  0  0
  160.9370  204.8360  148.4750 C   0  0  1  0  0  3  0  0  0  0  0  0
  162.2210  206.3670  144.9530 O   0  0  0  0  0  0  0  0  0  0  0  0
  161.8670  205.8920  146.0630 C   0  0  0  0  0  0  0  0  0  0  0  0
  160.8440  204.0900  149.8070 C   0  0  0  0  0  2  0  0  0  0  0  0
  159.9200  202.8760  149.7560 C   0  0  0  0  0  2  0  0  0  0  0  0
  160.4160  201.8600  150.5740 O   0  0  0  0  0  0  0  0  0  0  0  0
  161.3220  201.1600  149.7690 C   0  0  0  0  0  2  0  0  0  0  0  0
  160.7070  200.8940  148.3990 C   0  0  0  0  0  2  0  0  0  0  0  0
  161.6820  200.2180  147.4910 C   0  0  0  0  0  3  0  0  0  0  0  0
  161.2760  199.6300  146.3690 C   0  0  0  0  0  2  0  0  0  0  0  0
  160.4030  213.6150  156.0000 C   0  0  0  0  0  2  0  0  0  0  0  0
  158.6130  214.2580  156.9930 C   0  0  0  0  0  2  0  0  0  0  0  0
  158.9120  213.4130  155.7560 C   0  0  0  0  0  3  0  0  0  0  0  0
  160.0980  214.4530  157.2280 C   0  0  0  0  0  2  0  0  0  0  0  0
  158.5170  211.9070  149.8330 C   0  0  0  0  0  2  0  0  0  0  0  0
  158.7970  214.0550  148.5740 C   0  0  0  0  0  1  0  0  0  0  0  0
  156.7380  213.6870  149.9070 C   0  0  0  0  0  1  0  0  0  0  0  0
  157.1940  212.4490  147.9570 F   0  0  0  0  0  0  0  0  0  0  0  0
  157.8040  213.0150  149.0570 C   0  0  0  0  0  0  0  0  0  0  0  0
  1  7  2  0  0  0  0
  2 15  1  0  0  0  0
  4 22  1  6  0  0  0
  4 29  1  0  0  0  0
  5 10  1  0  0  0  0
  5  1  1  0  0  0  0
  6 28  2  0  0  0  0
  7 17  1  0  0  0  0
  7 14  1  0  0  0  0
  8 18  2  0  0  0  0
  9 11  1  1  0  0  0
  9 12  1  0  0  0  0
 10 30  2  0  0  0  0
 12  4  1  0  0  0  0
 13 27  1  0  0  0  0
 14 22  1  6  0  0  0
 14  2  1  0  0  0  0
 15 29  1  0  0  0  0
 15 20  1  1  0  0  0
 16  3  1  1  0  0  0
 16 25  1  0  0  0  0
 17 26  2  0  0  0  0
 18 13  1  0  0  0  0
 19 49  1  1  0  0  0
 19  9  1  0  0  0  0
 20 28  1  0  0  0  0
 21  6  1  0  0  0  0
 23 18  1  0  0  0  0
 23 16  1  0  0  0  0
 24 12  2  0  0  0  0
 25 19  1  0  0  0  0
 27  5  2  0  0  0  0
 29 21  1  6  0  0  0
 30 17  1  0  0  0  0
 31 27  1  1  0  0  0
 32 35  1  0  0  0  0
 33 31  1  0  0  0  0
 34 32  1  0  0  0  0
 35 31  1  0  0  0  0
 35 38  1  1  0  0  0
 36 37  2  0  0  0  0
 37 34  1  0  0  0  0
 37 33  1  0  0  0  0
 39 38  1  0  0  0  0
 39 40  1  0  0  0  0
 41 40  1  0  0  0  0
 42 41  1  0  0  0  0
 43 42  1  0  0  0  0
 44 43  2  0  0  0  0
 45 48  1  0  0  0  0
 46 48  1  0  0  0  0
 47 21  1  0  0  0  0
 47 45  1  0  0  0  0
 47 46  1  0  0  0  0
 50 53  1  0  0  0  0
 52 53  1  0  0  0  0
 53 49  1  0  0  0  0
 53 51  1  0  0  0  0
M  END
>  <MODEL>
5

>  <REMARK>
 VINA RESULT:       8.9      4.307      7.497
  Name = 
  10 active torsions:
  status: ('A' for Active; 'I' for Inactive)
    1  A    between atoms: C_3  and  C_44
    2  A    between atoms: O_14  and  C_30
    3  A    between atoms: O_14  and  C_34
    4  A    between atoms: C_17  and  C_49
    5  A    between atoms: C_28  and  C_29
    6  A    between atoms: C_28  and  C_47
    7  A    between atoms: C_30  and  C_50
    8  A    between atoms: N_32  and  C_37
    9  A    between atoms: C_34  and  C_49
   10  A    between atoms: C_39  and  C_50
                            x       y       z     vdW  Elec       q    Type
                         _______ _______ _______ _____ _____    ______ ____

>  <TORSDO>
F 10

$$$$
