=
 OpenBabel11072411453D

 49 54  0  0  1  0  0  0  0  0999 V2000
  159.2230  211.0030  152.7450 C   0  0  0  0  0  2  0  0  0  0  0  0
  157.5810  212.7330  152.9250 F   0  0  0  0  0  0  0  0  0  0  0  0
  159.5040  213.1290  151.5940 C   0  0  0  0  0  2  0  0  0  0  0  0
  158.9440  212.5010  152.8590 C   0  0  2  0  0  0  0  0  0  0  0  0
  160.2910  210.8380  151.6770 C   0  0  1  0  0  3  0  0  0  0  0  0
  161.0430  212.3170  149.7500 C   0  0  0  0  0  0  0  0  0  0  0  0
  161.6300  211.3490  149.1920 O   0  0  0  0  0  0  0  0  0  0  0  0
  160.3200  212.1060  150.9700 N   0  0  0  0  0  0  0  0  0  0  0  0
  159.6230  212.8480  146.5810 C   0  0  0  0  0  2  0  0  0  0  0  0
  160.5860  213.7710  146.1570 O   0  0  0  0  0  0  0  0  0  0  0  0
  158.8660  213.3570  147.8110 C   0  0  0  0  0  2  0  0  0  0  0  0
  162.0860  213.8040  148.0060 C   0  0  0  0  0  0  0  0  0  0  0  0
  163.1760  214.3040  148.2350 O   0  0  0  0  0  0  0  0  0  0  0  0
  161.7980  213.2640  146.6360 C   0  0  0  0  0  2  0  0  0  0  0  0
  161.0830  213.6820  149.1220 C   0  0  1  0  0  3  0  0  0  0  0  0
  159.7000  214.2360  148.7550 C   0  0  0  0  0  2  0  0  0  0  0  0
  161.6130  210.5790  152.3260 C   0  0  0  0  0  0  0  0  0  0  0  0
  162.6680  210.6600  151.6420 O   0  0  0  0  0  0  0  0  0  0  0  0
  161.6640  210.2280  153.6740 O   0  0  0  0  0  0  0  0  0  0  0  0
  160.8550  209.1990  154.2260 C   0  0  0  0  0  2  0  0  0  0  0  0
  162.5030  206.4050  152.2020 C   0  0  1  0  0  3  0  0  0  0  0  0
  161.0200  205.3180  154.0530 C   0  0  2  0  0  3  0  0  0  0  0  0
  161.4600  207.8320  153.9380 C   0  0  2  0  0  3  0  0  0  0  0  0
  160.5860  204.9950  152.7480 O   0  0  0  0  0  0  0  0  0  0  0  0
  161.7110  207.6760  152.4550 C   0  0  0  0  0  2  0  0  0  0  0  0
  160.5180  206.7280  154.3860 C   0  0  0  0  0  2  0  0  0  0  0  0
  161.9750  205.1380  152.9090 C   0  0  1  0  0  3  0  0  0  0  0  0
  162.6000  206.1730  150.7050 C   0  0  0  0  0  2  0  0  0  0  0  0
  161.2320  206.2630  150.0490 C   0  0  2  0  0  3  0  0  0  0  0  0
  161.1100  206.1240  145.7180 N   0  0  0  0  0  2  0  0  0  0  0  0
  160.9820  205.0060  149.2610 C   0  0  0  0  0  0  0  0  0  0  0  0
  161.1190  207.4300  147.8490 C   0  0  0  0  0  3  0  0  0  0  0  0
  161.1020  205.1360  143.6160 O   0  0  0  0  0  0  0  0  0  0  0  0
  160.7790  203.9190  149.8640 O   0  0  0  0  0  0  0  0  0  0  0  0
  161.1950  204.9780  144.8600 C   0  0  0  0  0  0  0  0  0  0  0  0
  161.4160  203.6030  145.3920 C   0  0  0  0  0  1  0  0  0  0  0  0
  161.0080  205.0250  147.8280 N   0  0  0  0  0  0  0  0  0  0  0  0
  161.1590  207.4930  149.1820 C   0  0  0  0  0  3  0  0  0  0  0  0
  161.0970  206.1330  147.1510 C   0  0  0  0  0  0  0  0  0  0  0  0
  159.6620  213.1030  154.0670 C   0  0  0  0  0  2  0  0  0  0  0  0
  159.2260  212.4990  155.4030 C   0  0  1  0  0  3  0  0  0  0  0  0
  161.1000  211.6710  156.6220 O   0  0  0  0  0  0  0  0  0  0  0  0
  160.4180  213.8100  157.2190 N   0  0  0  0  0  1  0  0  0  0  0  0
  160.2980  212.6230  156.4390 C   0  0  0  0  0  0  0  0  0  0  0  0
  158.0720  213.1470  155.8530 O   0  0  0  0  0  0  0  0  0  0  0  0
  157.3380  210.9430  155.6910 N   0  0  0  0  0  2  0  0  0  0  0  0
  157.3170  212.1580  156.4870 C   0  0  2  0  0  3  0  0  0  0  0  0
  155.5520  212.5360  156.3150 S   0  0  0  0  0  0  0  0  0  0  0  0
  155.9180  211.0170  155.3960 C   0  0  0  0  0  2  0  0  0  0  0  0
  1  4  1  0  0  0  0
  3  4  1  0  0  0  0
  4  2  1  1  0  0  0
  4 40  1  0  0  0  0
  5 17  1  1  0  0  0
  5  1  1  0  0  0  0
  6  8  1  0  0  0  0
  7  6  2  0  0  0  0
  8  3  1  0  0  0  0
  8  5  1  0  0  0  0
  9 11  1  0  0  0  0
 10  9  1  0  0  0  0
 10 14  1  0  0  0  0
 11 16  1  0  0  0  0
 12 13  2  0  0  0  0
 12 15  1  0  0  0  0
 14 12  1  0  0  0  0
 15  6  1  6  0  0  0
 16 15  1  0  0  0  0
 17 19  1  0  0  0  0
 18 17  2  0  0  0  0
 19 20  1  0  0  0  0
 21 28  1  6  0  0  0
 21 25  1  0  0  0  0
 21 27  1  0  0  0  0
 22 26  1  6  0  0  0
 23 20  1  6  0  0  0
 23 26  1  0  0  0  0
 24 22  1  0  0  0  0
 25 23  1  0  0  0  0
 27 24  1  6  0  0  0
 27 22  1  0  0  0  0
 29 28  1  6  0  0  0
 30 39  1  0  0  0  0
 31 34  2  0  0  0  0
 31 29  1  0  0  0  0
 32 38  2  0  0  0  0
 33 35  2  0  0  0  0
 35 36  1  0  0  0  0
 35 30  1  0  0  0  0
 37 31  1  0  0  0  0
 38 29  1  0  0  0  0
 39 37  2  0  0  0  0
 39 32  1  0  0  0  0
 41 40  1  6  0  0  0
 41 45  1  0  0  0  0
 41 44  1  0  0  0  0
 44 42  2  0  0  0  0
 44 43  1  0  0  0  0
 46 47  1  0  0  0  0
 47 45  1  6  0  0  0
 48 47  1  0  0  0  0
 49 46  1  0  0  0  0
 49 48  1  0  0  0  0
M  END
>  <MODEL>
1

>  <REMARK>
 VINA RESULT:      -6.2      0.000      0.000
  Name = 
  12 active torsions:
  status: ('A' for Active; 'I' for Inactive)
    1  A    between atoms: C_2  and  C_49
    2  A    between atoms: C_3  and  C_49
    3  A    between atoms: O_5  and  C_34
    4  A    between atoms: O_5  and  C_39
    5  A    between atoms: C_14  and  O_20
    6  A    between atoms: C_16  and  C_32
    7  A    between atoms: C_17  and  C_39
    8  A    between atoms: C_19  and  C_34
    9  A    between atoms: O_20  and  C_31
   10  A    between atoms: C_31  and  C_32
   11  A    between atoms: C_31  and  C_46
   12  A    between atoms: C_35  and  C_44
                            x       y       z     vdW  Elec       q    Type
                         _______ _______ _______ _____ _____    ______ ____

>  <TORSDO>
F 12

$$$$
=
 OpenBabel11072411453D

 49 54  0  0  1  0  0  0  0  0999 V2000
  160.4260  207.3410  150.8830 C   0  0  0  0  0  2  0  0  0  0  0  0
  159.8570  205.4220  152.1930 F   0  0  0  0  0  0  0  0  0  0  0  0
  161.2410  207.0860  153.1620 C   0  0  0  0  0  2  0  0  0  0  0  0
  160.8840  206.3060  151.9100 C   0  0  2  0  0  0  0  0  0  0  0  0
  160.9240  208.6910  151.3740 C   0  0  1  0  0  3  0  0  0  0  0  0
  161.6130  209.5430  153.6670 C   0  0  0  0  0  0  0  0  0  0  0  0
  161.5100  210.7420  153.2900 O   0  0  0  0  0  0  0  0  0  0  0  0
  161.2870  208.4790  152.7630 N   0  0  0  0  0  0  0  0  0  0  0  0
  159.4470  210.1300  156.3710 C   0  0  0  0  0  2  0  0  0  0  0  0
  160.4490  210.5320  157.2600 O   0  0  0  0  0  0  0  0  0  0  0  0
  159.6570  208.6860  155.9090 C   0  0  0  0  0  2  0  0  0  0  0  0
  162.3900  210.4560  155.8820 C   0  0  0  0  0  0  0  0  0  0  0  0
  163.5590  210.7870  156.0040 O   0  0  0  0  0  0  0  0  0  0  0  0
  161.3170  211.3120  156.4870 C   0  0  0  0  0  2  0  0  0  0  0  0
  162.0520  209.2330  155.0720 C   0  0  1  0  0  3  0  0  0  0  0  0
  161.1280  208.2550  155.8090 C   0  0  0  0  0  2  0  0  0  0  0  0
  162.1260  209.0980  150.5830 C   0  0  0  0  0  0  0  0  0  0  0  0
  162.9610  208.2260  150.2270 O   0  0  0  0  0  0  0  0  0  0  0  0
  162.3220  210.4420  150.2670 O   0  0  0  0  0  0  0  0  0  0  0  0
  162.1830  210.9440  148.9450 C   0  0  0  0  0  2  0  0  0  0  0  0
  159.7420  213.5990  150.2170 C   0  0  1  0  0  3  0  0  0  0  0  0
  159.6910  213.6130  147.6090 C   0  0  2  0  0  3  0  0  0  0  0  0
  161.3740  212.2340  148.9470 C   0  0  2  0  0  3  0  0  0  0  0  0
  158.4460  213.2620  148.1760 O   0  0  0  0  0  0  0  0  0  0  0  0
  160.3920  212.2310  150.0960 C   0  0  0  0  0  2  0  0  0  0  0  0
  160.5990  212.3780  147.6490 C   0  0  0  0  0  2  0  0  0  0  0  0
  159.2020  214.1990  148.9010 C   0  0  1  0  0  3  0  0  0  0  0  0
  158.6410  213.5320  151.2590 C   0  0  0  0  0  2  0  0  0  0  0  0
  159.1920  213.0990  152.6080 C   0  0  2  0  0  3  0  0  0  0  0  0
  156.3930  212.9240  155.9150 N   0  0  0  0  0  2  0  0  0  0  0  0
  158.4920  211.8410  153.0430 C   0  0  0  0  0  0  0  0  0  0  0  0
  158.1570  214.1380  154.6250 C   0  0  0  0  0  3  0  0  0  0  0  0
  154.7380  212.0060  157.2600 O   0  0  0  0  0  0  0  0  0  0  0  0
  158.7210  210.7570  152.4430 O   0  0  0  0  0  0  0  0  0  0  0  0
  155.4450  211.8950  156.2260 C   0  0  0  0  0  0  0  0  0  0  0  0
  155.2490  210.7040  155.3500 C   0  0  0  0  0  1  0  0  0  0  0  0
  157.5380  211.8680  154.1130 N   0  0  0  0  0  0  0  0  0  0  0  0
  159.0230  214.2120  153.6110 C   0  0  0  0  0  3  0  0  0  0  0  0
  157.3460  212.9280  154.8440 C   0  0  0  0  0  0  0  0  0  0  0  0
  162.1270  205.5620  151.4210 C   0  0  0  0  0  2  0  0  0  0  0  0
  161.8480  204.5840  150.2780 C   0  0  1  0  0  3  0  0  0  0  0  0
  161.6620  202.8640  151.9170 O   0  0  0  0  0  0  0  0  0  0  0  0
  160.4080  202.5150  149.9930 N   0  0  0  0  0  1  0  0  0  0  0  0
  161.3120  203.2830  150.7840 C   0  0  0  0  0  0  0  0  0  0  0  0
  160.9260  205.1520  149.3950 O   0  0  0  0  0  0  0  0  0  0  0  0
  160.8660  206.5330  147.5210 N   0  0  0  0  0  2  0  0  0  0  0  0
  161.6890  205.6620  148.3420 C   0  0  2  0  0  3  0  0  0  0  0  0
  161.9740  204.3600  147.1110 S   0  0  0  0  0  0  0  0  0  0  0  0
  160.9350  205.6480  146.3720 C   0  0  0  0  0  2  0  0  0  0  0  0
  1  5  1  0  0  0  0
  1  4  1  0  0  0  0
  4  2  1  1  0  0  0
  4  3  1  0  0  0  0
  5 17  1  6  0  0  0
  5  8  1  0  0  0  0
  7  6  2  0  0  0  0
  8  3  1  0  0  0  0
  8  6  1  0  0  0  0
  9 10  1  0  0  0  0
 11  9  1  0  0  0  0
 12 13  2  0  0  0  0
 12 14  1  0  0  0  0
 14 10  1  0  0  0  0
 15  6  1  6  0  0  0
 15 16  1  0  0  0  0
 15 12  1  0  0  0  0
 16 11  1  0  0  0  0
 18 17  2  0  0  0  0
 19 17  1  0  0  0  0
 20 19  1  0  0  0  0
 21 28  1  1  0  0  0
 22 26  1  1  0  0  0
 22 24  1  0  0  0  0
 22 27  1  0  0  0  0
 23 20  1  6  0  0  0
 23 25  1  0  0  0  0
 25 21  1  0  0  0  0
 26 23  1  0  0  0  0
 27 24  1  1  0  0  0
 27 21  1  0  0  0  0
 29 28  1  6  0  0  0
 29 31  1  0  0  0  0
 29 38  1  0  0  0  0
 30 35  1  0  0  0  0
 31 37  1  0  0  0  0
 32 39  1  0  0  0  0
 34 31  2  0  0  0  0
 35 33  2  0  0  0  0
 36 35  1  0  0  0  0
 37 39  2  0  0  0  0
 38 32  2  0  0  0  0
 39 30  1  0  0  0  0
 40  4  1  0  0  0  0
 41 44  1  0  0  0  0
 41 40  1  1  0  0  0
 43 44  1  0  0  0  0
 44 42  2  0  0  0  0
 45 41  1  0  0  0  0
 46 47  1  0  0  0  0
 47 45  1  1  0  0  0
 48 47  1  0  0  0  0
 49 48  1  0  0  0  0
 49 46  1  0  0  0  0
M  END
>  <MODEL>
2

>  <REMARK>
 VINA RESULT:      -6.0      3.061      9.304
  Name = 
  12 active torsions:
  status: ('A' for Active; 'I' for Inactive)
    1  A    between atoms: C_2  and  C_49
    2  A    between atoms: C_3  and  C_49
    3  A    between atoms: O_5  and  C_34
    4  A    between atoms: O_5  and  C_39
    5  A    between atoms: C_14  and  O_20
    6  A    between atoms: C_16  and  C_32
    7  A    between atoms: C_17  and  C_39
    8  A    between atoms: C_19  and  C_34
    9  A    between atoms: O_20  and  C_31
   10  A    between atoms: C_31  and  C_32
   11  A    between atoms: C_31  and  C_46
   12  A    between atoms: C_35  and  C_44
                            x       y       z     vdW  Elec       q    Type
                         _______ _______ _______ _____ _____    ______ ____

>  <TORSDO>
F 12

$$$$
=
 OpenBabel11072411453D

 49 54  0  0  1  0  0  0  0  0999 V2000
  160.3270  206.9250  150.5250 C   0  0  0  0  0  2  0  0  0  0  0  0
  159.8400  205.0790  151.9670 F   0  0  0  0  0  0  0  0  0  0  0  0
  161.1440  206.8680  152.8160 C   0  0  0  0  0  2  0  0  0  0  0  0
  160.8270  205.9860  151.6220 C   0  0  2  0  0  0  0  0  0  0  0  0
  160.7620  208.3270  150.9190 C   0  0  1  0  0  3  0  0  0  0  0  0
  161.4030  209.3680  153.1470 C   0  0  0  0  0  0  0  0  0  0  0  0
  161.2480  210.5330  152.6860 O   0  0  0  0  0  0  0  0  0  0  0  0
  161.1290  208.2300  152.3200 N   0  0  0  0  0  0  0  0  0  0  0  0
  159.2690  210.2260  155.8040 C   0  0  0  0  0  2  0  0  0  0  0  0
  160.2850  210.6910  156.6460 O   0  0  0  0  0  0  0  0  0  0  0  0
  159.4560  208.7430  155.4710 C   0  0  0  0  0  2  0  0  0  0  0  0
  162.2130  210.4640  155.2650 C   0  0  0  0  0  0  0  0  0  0  0  0
  163.3870  210.7880  155.3490 O   0  0  0  0  0  0  0  0  0  0  0  0
  161.1570  211.3860  155.8000 C   0  0  0  0  0  2  0  0  0  0  0  0
  161.8500  209.1790  154.5700 C   0  0  1  0  0  3  0  0  0  0  0  0
  160.9200  208.2840  155.3990 C   0  0  0  0  0  2  0  0  0  0  0  0
  161.9470  208.7310  150.1020 C   0  0  0  0  0  0  0  0  0  0  0  0
  163.0340  208.1080  150.2320 O   0  0  0  0  0  0  0  0  0  0  0  0
  161.8450  209.8080  149.2230 O   0  0  0  0  0  0  0  0  0  0  0  0
  162.2880  211.1160  149.5620 C   0  0  0  0  0  2  0  0  0  0  0  0
  160.1620  212.5650  146.7330 C   0  0  1  0  0  3  0  0  0  0  0  0
  161.7110  214.4530  147.6520 C   0  0  2  0  0  3  0  0  0  0  0  0
  161.5200  212.1620  148.7660 C   0  0  2  0  0  3  0  0  0  0  0  0
  161.9720  214.1450  146.2980 O   0  0  0  0  0  0  0  0  0  0  0  0
  161.1020  211.5940  147.4290 C   0  0  0  0  0  2  0  0  0  0  0  0
  162.3860  213.3860  148.5220 C   0  0  0  0  0  2  0  0  0  0  0  0
  160.6290  214.0360  146.6980 C   0  0  1  0  0  3  0  0  0  0  0  0
  159.8870  212.0640  145.3270 C   0  0  0  0  0  2  0  0  0  0  0  0
  160.3460  213.0750  144.2890 C   0  0  2  0  0  3  0  0  0  0  0  0
  159.9720  211.9310  140.1240 N   0  0  0  0  0  2  0  0  0  0  0  0
  159.1770  213.4540  143.4210 C   0  0  0  0  0  0  0  0  0  0  0  0
  161.3480  212.1560  142.1990 C   0  0  0  0  0  3  0  0  0  0  0  0
  158.9000  211.6140  138.0890 O   0  0  0  0  0  0  0  0  0  0  0  0
  158.2450  214.1540  143.8980 O   0  0  0  0  0  0  0  0  0  0  0  0
  158.8010  211.9520  139.2960 C   0  0  0  0  0  0  0  0  0  0  0  0
  157.4620  212.3380  139.8240 C   0  0  0  0  0  1  0  0  0  0  0  0
  159.0950  212.9950  142.0660 N   0  0  0  0  0  0  0  0  0  0  0  0
  161.4820  212.5000  143.4820 C   0  0  0  0  0  3  0  0  0  0  0  0
  160.0770  212.3690  141.4850 C   0  0  0  0  0  0  0  0  0  0  0  0
  162.1040  205.2660  151.1880 C   0  0  0  0  0  2  0  0  0  0  0  0
  161.8860  204.2520  150.0640 C   0  0  1  0  0  3  0  0  0  0  0  0
  161.4790  202.5610  151.6940 O   0  0  0  0  0  0  0  0  0  0  0  0
  160.2160  202.3680  149.7540 N   0  0  0  0  0  1  0  0  0  0  0  0
  161.1940  203.0210  150.5580 C   0  0  0  0  0  0  0  0  0  0  0  0
  161.1210  204.8370  149.0510 O   0  0  0  0  0  0  0  0  0  0  0  0
  161.7120  206.3070  147.3440 N   0  0  0  0  0  2  0  0  0  0  0  0
  162.0060  205.0390  147.9890 C   0  0  2  0  0  3  0  0  0  0  0  0
  161.5570  203.9500  146.6100 S   0  0  0  0  0  0  0  0  0  0  0  0
  161.2910  205.6710  146.1090 C   0  0  0  0  0  2  0  0  0  0  0  0
  1  5  1  0  0  0  0
  1  4  1  0  0  0  0
  4  2  1  1  0  0  0
  4  3  1  0  0  0  0
  5 17  1  6  0  0  0
  5  8  1  0  0  0  0
  7  6  2  0  0  0  0
  8  3  1  0  0  0  0
  8  6  1  0  0  0  0
  9 10  1  0  0  0  0
 11  9  1  0  0  0  0
 12 13  2  0  0  0  0
 12 14  1  0  0  0  0
 14 10  1  0  0  0  0
 15  6  1  6  0  0  0
 15 12  1  0  0  0  0
 15 16  1  0  0  0  0
 16 11  1  0  0  0  0
 17 18  2  0  0  0  0
 19 20  1  0  0  0  0
 19 17  1  0  0  0  0
 21 28  1  6  0  0  0
 21 25  1  0  0  0  0
 22 26  1  1  0  0  0
 23 20  1  6  0  0  0
 24 22  1  0  0  0  0
 25 23  1  0  0  0  0
 26 23  1  0  0  0  0
 27 24  1  6  0  0  0
 27 21  1  0  0  0  0
 27 22  1  0  0  0  0
 29 28  1  1  0  0  0
 30 39  1  0  0  0  0
 31 34  2  0  0  0  0
 31 29  1  0  0  0  0
 32 38  2  0  0  0  0
 33 35  2  0  0  0  0
 35 36  1  0  0  0  0
 35 30  1  0  0  0  0
 37 31  1  0  0  0  0
 38 29  1  0  0  0  0
 39 37  2  0  0  0  0
 39 32  1  0  0  0  0
 40  4  1  0  0  0  0
 41 44  1  0  0  0  0
 41 40  1  1  0  0  0
 43 44  1  0  0  0  0
 44 42  2  0  0  0  0
 45 41  1  0  0  0  0
 46 47  1  0  0  0  0
 47 45  1  1  0  0  0
 48 47  1  0  0  0  0
 49 48  1  0  0  0  0
 49 46  1  0  0  0  0
M  END
>  <MODEL>
3

>  <REMARK>
 VINA RESULT:      -5.9      3.998      8.949
  Name = 
  12 active torsions:
  status: ('A' for Active; 'I' for Inactive)
    1  A    between atoms: C_2  and  C_49
    2  A    between atoms: C_3  and  C_49
    3  A    between atoms: O_5  and  C_34
    4  A    between atoms: O_5  and  C_39
    5  A    between atoms: C_14  and  O_20
    6  A    between atoms: C_16  and  C_32
    7  A    between atoms: C_17  and  C_39
    8  A    between atoms: C_19  and  C_34
    9  A    between atoms: O_20  and  C_31
   10  A    between atoms: C_31  and  C_32
   11  A    between atoms: C_31  and  C_46
   12  A    between atoms: C_35  and  C_44
                            x       y       z     vdW  Elec       q    Type
                         _______ _______ _______ _____ _____    ______ ____

>  <TORSDO>
F 12

$$$$
=
 OpenBabel11072411453D

 49 54  0  0  1  0  0  0  0  0999 V2000
  158.7090  210.8470  153.1720 C   0  0  0  0  0  2  0  0  0  0  0  0
  157.0500  212.5430  153.4760 F   0  0  0  0  0  0  0  0  0  0  0  0
  158.9740  213.0570  152.1890 C   0  0  0  0  0  2  0  0  0  0  0  0
  158.4160  212.3290  153.3990 C   0  0  2  0  0  0  0  0  0  0  0  0
  159.7830  210.7750  152.0990 C   0  0  1  0  0  3  0  0  0  0  0  0
  160.5290  212.4040  150.2960 C   0  0  0  0  0  0  0  0  0  0  0  0
  161.1280  211.4880  149.6680 O   0  0  0  0  0  0  0  0  0  0  0  0
  159.8030  212.0930  151.4920 N   0  0  0  0  0  0  0  0  0  0  0  0
  158.7470  213.2550  147.3900 C   0  0  0  0  0  2  0  0  0  0  0  0
  159.6930  214.1690  146.9160 O   0  0  0  0  0  0  0  0  0  0  0  0
  158.1800  213.6910  148.7440 C   0  0  0  0  0  2  0  0  0  0  0  0
  161.4170  213.9870  148.5500 C   0  0  0  0  0  0  0  0  0  0  0  0
  162.5510  214.4220  148.6720 O   0  0  0  0  0  0  0  0  0  0  0  0
  160.9300  213.5750  147.1920 C   0  0  0  0  0  2  0  0  0  0  0  0
  160.5580  213.8140  149.7750 C   0  0  1  0  0  3  0  0  0  0  0  0
  159.1700  214.4530  149.6360 C   0  0  0  0  0  2  0  0  0  0  0  0
  161.1050  210.4790  152.7320 C   0  0  0  0  0  0  0  0  0  0  0  0
  161.7030  211.3820  153.3740 O   0  0  0  0  0  0  0  0  0  0  0  0
  161.6730  209.2140  152.5870 O   0  0  0  0  0  0  0  0  0  0  0  0
  162.6960  208.9410  151.6390 C   0  0  0  0  0  2  0  0  0  0  0  0
  161.9050  206.6400  148.6890 C   0  0  1  0  0  3  0  0  0  0  0  0
  160.8670  205.6030  150.8450 C   0  0  2  0  0  3  0  0  0  0  0  0
  162.4030  207.6430  150.8980 C   0  0  2  0  0  3  0  0  0  0  0  0
  159.8920  205.9450  149.8820 O   0  0  0  0  0  0  0  0  0  0  0  0
  161.9900  207.9370  149.4750 C   0  0  0  0  0  2  0  0  0  0  0  0
  161.2790  206.8840  151.5810 C   0  0  0  0  0  2  0  0  0  0  0  0
  161.1220  205.4970  149.3700 C   0  0  1  0  0  3  0  0  0  0  0  0
  161.3270  206.9310  147.3160 C   0  0  0  0  0  2  0  0  0  0  0  0
  162.0850  206.1790  146.2350 C   0  0  2  0  0  3  0  0  0  0  0  0
  161.2810  201.9360  145.8520 N   0  0  0  0  0  2  0  0  0  0  0  0
  161.1000  205.6010  145.2550 C   0  0  0  0  0  0  0  0  0  0  0  0
  162.6840  203.8090  146.7290 C   0  0  0  0  0  3  0  0  0  0  0  0
  160.1340  200.0370  145.1660 O   0  0  0  0  0  0  0  0  0  0  0  0
  160.4680  206.3640  144.4790 O   0  0  0  0  0  0  0  0  0  0  0  0
  160.1750  201.2930  145.2060 C   0  0  0  0  0  0  0  0  0  0  0  0
  159.0530  202.0640  144.5980 C   0  0  0  0  0  1  0  0  0  0  0  0
  160.8470  204.1900  145.2210 N   0  0  0  0  0  0  0  0  0  0  0  0
  162.9470  205.1110  146.8610 C   0  0  0  0  0  3  0  0  0  0  0  0
  161.5500  203.3430  145.9140 C   0  0  0  0  0  0  0  0  0  0  0  0
  159.1220  212.8430  154.6540 C   0  0  0  0  0  2  0  0  0  0  0  0
  158.8460  212.0020  155.9010 C   0  0  1  0  0  3  0  0  0  0  0  0
  156.5640  211.3990  156.2370 O   0  0  0  0  0  0  0  0  0  0  0  0
  157.1840  213.4320  157.1750 N   0  0  0  0  0  1  0  0  0  0  0  0
  157.4720  212.2470  156.4380 C   0  0  0  0  0  0  0  0  0  0  0  0
  158.9860  210.6470  155.5890 O   0  0  0  0  0  0  0  0  0  0  0  0
  161.0870  210.6750  156.5940 N   0  0  0  0  0  2  0  0  0  0  0  0
  159.7500  210.1060  156.6260 C   0  0  2  0  0  3  0  0  0  0  0  0
  160.2010  208.3960  156.2210 S   0  0  0  0  0  0  0  0  0  0  0  0
  161.7060  209.4060  156.2580 C   0  0  0  0  0  2  0  0  0  0  0  0
  1  4  1  0  0  0  0
  3  4  1  0  0  0  0
  4  2  1  1  0  0  0
  4 40  1  0  0  0  0
  5 17  1  1  0  0  0
  5  1  1  0  0  0  0
  6  8  1  0  0  0  0
  7  6  2  0  0  0  0
  8  5  1  0  0  0  0
  8  3  1  0  0  0  0
  9 11  1  0  0  0  0
 10 14  1  0  0  0  0
 10  9  1  0  0  0  0
 11 16  1  0  0  0  0
 12 13  2  0  0  0  0
 12 15  1  0  0  0  0
 14 12  1  0  0  0  0
 15  6  1  6  0  0  0
 16 15  1  0  0  0  0
 17 18  2  0  0  0  0
 19 17  1  0  0  0  0
 20 19  1  0  0  0  0
 21 28  1  6  0  0  0
 21 27  1  0  0  0  0
 21 25  1  0  0  0  0
 22 26  1  6  0  0  0
 23 26  1  0  0  0  0
 23 20  1  1  0  0  0
 24 22  1  0  0  0  0
 25 23  1  0  0  0  0
 27 24  1  6  0  0  0
 27 22  1  0  0  0  0
 29 38  1  0  0  0  0
 29 28  1  1  0  0  0
 30 39  1  0  0  0  0
 31 29  1  0  0  0  0
 32 38  2  0  0  0  0
 33 35  2  0  0  0  0
 34 31  2  0  0  0  0
 35 30  1  0  0  0  0
 36 35  1  0  0  0  0
 37 31  1  0  0  0  0
 37 39  2  0  0  0  0
 39 32  1  0  0  0  0
 41 40  1  6  0  0  0
 41 44  1  0  0  0  0
 42 44  2  0  0  0  0
 44 43  1  0  0  0  0
 45 41  1  0  0  0  0
 46 47  1  0  0  0  0
 47 45  1  6  0  0  0
 48 49  1  0  0  0  0
 48 47  1  0  0  0  0
 49 46  1  0  0  0  0
M  END
>  <MODEL>
4

>  <REMARK>
 VINA RESULT:      -5.8      1.974      3.037
  Name = 
  12 active torsions:
  status: ('A' for Active; 'I' for Inactive)
    1  A    between atoms: C_2  and  C_49
    2  A    between atoms: C_3  and  C_49
    3  A    between atoms: O_5  and  C_34
    4  A    between atoms: O_5  and  C_39
    5  A    between atoms: C_14  and  O_20
    6  A    between atoms: C_16  and  C_32
    7  A    between atoms: C_17  and  C_39
    8  A    between atoms: C_19  and  C_34
    9  A    between atoms: O_20  and  C_31
   10  A    between atoms: C_31  and  C_32
   11  A    between atoms: C_31  and  C_46
   12  A    between atoms: C_35  and  C_44
                            x       y       z     vdW  Elec       q    Type
                         _______ _______ _______ _____ _____    ______ ____

>  <TORSDO>
F 12

$$$$
=
 OpenBabel11072411453D

 49 54  0  0  1  0  0  0  0  0999 V2000
  158.9460  210.8990  153.1240 C   0  0  0  0  0  2  0  0  0  0  0  0
  157.9160  213.0420  153.3890 F   0  0  0  0  0  0  0  0  0  0  0  0
  159.8630  212.8790  152.0460 C   0  0  0  0  0  2  0  0  0  0  0  0
  159.1420  212.4050  153.2950 C   0  0  2  0  0  0  0  0  0  0  0  0
  159.9090  210.4560  152.0350 C   0  0  1  0  0  3  0  0  0  0  0  0
  161.0730  211.7050  150.1530 C   0  0  0  0  0  0  0  0  0  0  0  0
  161.3330  210.6260  149.5510 O   0  0  0  0  0  0  0  0  0  0  0  0
  160.3240  211.6790  151.3740 N   0  0  0  0  0  0  0  0  0  0  0  0
  159.4540  213.0570  147.3430 C   0  0  0  0  0  2  0  0  0  0  0  0
  160.6100  213.5930  146.7680 O   0  0  0  0  0  0  0  0  0  0  0  0
  159.1720  213.6780  148.7140 C   0  0  0  0  0  2  0  0  0  0  0  0
  162.2970  212.8700  148.2860 C   0  0  0  0  0  0  0  0  0  0  0  0
  163.5170  212.9020  148.3110 O   0  0  0  0  0  0  0  0  0  0  0  0
  161.5960  212.6230  146.9820 C   0  0  0  0  0  2  0  0  0  0  0  0
  161.5290  213.0140  149.5720 C   0  0  1  0  0  3  0  0  0  0  0  0
  160.4270  214.0790  149.5030 C   0  0  0  0  0  2  0  0  0  0  0  0
  161.0880  209.7780  152.6550 C   0  0  0  0  0  0  0  0  0  0  0  0
  162.0970  210.4600  152.9800 O   0  0  0  0  0  0  0  0  0  0  0  0
  161.0710  208.3970  152.8470 O   0  0  0  0  0  0  0  0  0  0  0  0
  162.2530  207.6090  152.8280 C   0  0  0  0  0  2  0  0  0  0  0  0
  161.8200  206.2170  149.2930 C   0  0  1  0  0  3  0  0  0  0  0  0
  161.0390  204.4020  150.9960 C   0  0  2  0  0  3  0  0  0  0  0  0
  162.1830  206.5690  151.7180 C   0  0  2  0  0  3  0  0  0  0  0  0
  159.9960  204.8410  150.1510 O   0  0  0  0  0  0  0  0  0  0  0  0
  161.6880  207.2050  150.4390 C   0  0  0  0  0  2  0  0  0  0  0  0
  161.2300  205.4490  152.0990 C   0  0  0  0  0  2  0  0  0  0  0  0
  161.2740  204.7990  149.5670 C   0  0  1  0  0  3  0  0  0  0  0  0
  161.1670  206.8050  148.0560 C   0  0  0  0  0  2  0  0  0  0  0  0
  161.8580  206.3220  146.7920 C   0  0  2  0  0  3  0  0  0  0  0  0
  161.2630  202.1730  145.6820 N   0  0  0  0  0  2  0  0  0  0  0  0
  160.8170  205.8620  145.8070 C   0  0  0  0  0  0  0  0  0  0  0  0
  162.6350  203.9530  146.7760 C   0  0  0  0  0  3  0  0  0  0  0  0
  160.1640  200.3530  144.7480 O   0  0  0  0  0  0  0  0  0  0  0  0
  160.0710  206.7060  145.2450 O   0  0  0  0  0  0  0  0  0  0  0  0
  160.1370  201.5800  145.0210 C   0  0  0  0  0  0  0  0  0  0  0  0
  158.9200  202.3650  144.6670 C   0  0  0  0  0  1  0  0  0  0  0  0
  160.6420  204.4670  145.5280 N   0  0  0  0  0  0  0  0  0  0  0  0
  162.8350  205.2240  147.1300 C   0  0  0  0  0  3  0  0  0  0  0  0
  161.4560  203.5610  145.9860 C   0  0  0  0  0  0  0  0  0  0  0  0
  160.0130  212.7110  154.5140 C   0  0  0  0  0  2  0  0  0  0  0  0
  159.5320  212.0330  155.7980 C   0  0  1  0  0  3  0  0  0  0  0  0
  161.4260  211.8510  157.2340 O   0  0  0  0  0  0  0  0  0  0  0  0
  160.7820  209.8650  156.2150 N   0  0  0  0  0  1  0  0  0  0  0  0
  160.6310  211.2610  156.4580 C   0  0  0  0  0  0  0  0  0  0  0  0
  159.0500  213.0000  156.6830 O   0  0  0  0  0  0  0  0  0  0  0  0
  157.3340  211.4720  156.3010 N   0  0  0  0  0  2  0  0  0  0  0  0
  157.8780  212.4600  157.2180 C   0  0  2  0  0  3  0  0  0  0  0  0
  156.5370  213.6750  157.0940 S   0  0  0  0  0  0  0  0  0  0  0  0
  156.1500  212.2650  156.0240 C   0  0  0  0  0  2  0  0  0  0  0  0
  1  4  1  0  0  0  0
  3  4  1  0  0  0  0
  4  2  1  1  0  0  0
  4 40  1  0  0  0  0
  5 17  1  1  0  0  0
  5  1  1  0  0  0  0
  6  8  1  0  0  0  0
  7  6  2  0  0  0  0
  8  5  1  0  0  0  0
  8  3  1  0  0  0  0
  9 11  1  0  0  0  0
 10 14  1  0  0  0  0
 10  9  1  0  0  0  0
 11 16  1  0  0  0  0
 12 13  2  0  0  0  0
 12 15  1  0  0  0  0
 14 12  1  0  0  0  0
 15  6  1  6  0  0  0
 16 15  1  0  0  0  0
 17 19  1  0  0  0  0
 17 18  2  0  0  0  0
 20 19  1  0  0  0  0
 21 28  1  6  0  0  0
 21 27  1  0  0  0  0
 21 25  1  0  0  0  0
 22 26  1  1  0  0  0
 23 26  1  0  0  0  0
 23 20  1  1  0  0  0
 24 22  1  0  0  0  0
 25 23  1  0  0  0  0
 27 24  1  6  0  0  0
 27 22  1  0  0  0  0
 29 38  1  0  0  0  0
 29 28  1  1  0  0  0
 30 39  1  0  0  0  0
 31 29  1  0  0  0  0
 32 38  2  0  0  0  0
 33 35  2  0  0  0  0
 34 31  2  0  0  0  0
 35 30  1  0  0  0  0
 36 35  1  0  0  0  0
 37 31  1  0  0  0  0
 37 39  2  0  0  0  0
 39 32  1  0  0  0  0
 41 40  1  6  0  0  0
 41 44  1  0  0  0  0
 41 45  1  0  0  0  0
 43 44  1  0  0  0  0
 44 42  2  0  0  0  0
 46 47  1  0  0  0  0
 47 45  1  6  0  0  0
 48 47  1  0  0  0  0
 49 46  1  0  0  0  0
 49 48  1  0  0  0  0
M  END
>  <MODEL>
5

>  <REMARK>
 VINA RESULT:      -5.7      1.578      2.373
  Name = 
  12 active torsions:
  status: ('A' for Active; 'I' for Inactive)
    1  A    between atoms: C_2  and  C_49
    2  A    between atoms: C_3  and  C_49
    3  A    between atoms: O_5  and  C_34
    4  A    between atoms: O_5  and  C_39
    5  A    between atoms: C_14  and  O_20
    6  A    between atoms: C_16  and  C_32
    7  A    between atoms: C_17  and  C_39
    8  A    between atoms: C_19  and  C_34
    9  A    between atoms: O_20  and  C_31
   10  A    between atoms: C_31  and  C_32
   11  A    between atoms: C_31  and  C_46
   12  A    between atoms: C_35  and  C_44
                            x       y       z     vdW  Elec       q    Type
                         _______ _______ _______ _____ _____    ______ ____

>  <TORSDO>
F 12

$$$$
=
 OpenBabel11072411453D

 49 54  0  0  1  0  0  0  0  0999 V2000
  162.8420  207.6010  150.3050 C   0  0  0  0  0  2  0  0  0  0  0  0
  163.3310  206.8670  148.0820 F   0  0  0  0  0  0  0  0  0  0  0  0
  161.9600  208.7800  148.3670 C   0  0  0  0  0  2  0  0  0  0  0  0
  162.3320  207.4000  148.8790 C   0  0  2  0  0  0  0  0  0  0  0  0
  162.3610  208.9730  150.7490 C   0  0  1  0  0  3  0  0  0  0  0  0
  161.6310  211.0420  149.4650 C   0  0  0  0  0  0  0  0  0  0  0  0
  161.7710  211.7680  150.4880 O   0  0  0  0  0  0  0  0  0  0  0  0
  161.9560  209.6470  149.5290 N   0  0  0  0  0  0  0  0  0  0  0  0
  163.2520  213.8470  148.1070 C   0  0  0  0  0  2  0  0  0  0  0  0
  162.0900  214.4460  147.6110 O   0  0  0  0  0  0  0  0  0  0  0  0
  163.4970  212.4810  147.4590 C   0  0  0  0  0  2  0  0  0  0  0  0
  160.4020  212.9420  148.3600 C   0  0  0  0  0  0  0  0  0  0  0  0
  159.1810  212.9330  148.3630 O   0  0  0  0  0  0  0  0  0  0  0  0
  161.1280  214.2320  148.6050 C   0  0  0  0  0  2  0  0  0  0  0  0
  161.1470  211.6470  148.1770 C   0  0  1  0  0  3  0  0  0  0  0  0
  162.2200  211.7150  147.0820 C   0  0  0  0  0  2  0  0  0  0  0  0
  161.1910  208.8210  151.6680 C   0  0  0  0  0  0  0  0  0  0  0  0
  160.4670  207.7940  151.5870 O   0  0  0  0  0  0  0  0  0  0  0  0
  160.8990  209.8270  152.5880 O   0  0  0  0  0  0  0  0  0  0  0  0
  159.5670  210.1950  152.9200 C   0  0  0  0  0  2  0  0  0  0  0  0
  158.5720  213.5590  154.4410 C   0  0  1  0  0  3  0  0  0  0  0  0
  158.6640  213.8210  151.8470 C   0  0  2  0  0  3  0  0  0  0  0  0
  159.4490  211.7070  153.0480 C   0  0  2  0  0  3  0  0  0  0  0  0
  157.3710  214.0420  152.3710 O   0  0  0  0  0  0  0  0  0  0  0  0
  158.5200  212.0620  154.1870 C   0  0  0  0  0  2  0  0  0  0  0  0
  158.8930  212.3070  151.7680 C   0  0  0  0  0  2  0  0  0  0  0  0
  158.4380  214.4530  153.1900 C   0  0  1  0  0  3  0  0  0  0  0  0
  157.5150  213.9240  155.4670 C   0  0  0  0  0  2  0  0  0  0  0  0
  157.9200  213.4600  156.8560 C   0  0  2  0  0  3  0  0  0  0  0  0
  160.1420  209.7470  157.1250 N   0  0  0  0  0  2  0  0  0  0  0  0
  159.4210  213.3890  156.9320 C   0  0  0  0  0  0  0  0  0  0  0  0
  157.9810  210.9970  157.2420 C   0  0  0  0  0  3  0  0  0  0  0  0
  162.0130  208.3720  157.0570 O   0  0  0  0  0  0  0  0  0  0  0  0
  160.0990  214.4500  156.9340 O   0  0  0  0  0  0  0  0  0  0  0  0
  161.5390  209.5260  156.8900 C   0  0  0  0  0  0  0  0  0  0  0  0
  162.4490  210.6130  156.4310 C   0  0  0  0  0  1  0  0  0  0  0  0
  160.0920  212.1220  156.9660 N   0  0  0  0  0  0  0  0  0  0  0  0
  157.2790  212.1300  157.1600 C   0  0  0  0  0  3  0  0  0  0  0  0
  159.4450  210.9990  157.0830 C   0  0  0  0  0  0  0  0  0  0  0  0
  161.0860  206.5140  148.8610 C   0  0  0  0  0  2  0  0  0  0  0  0
  161.3740  205.0550  148.5030 C   0  0  1  0  0  3  0  0  0  0  0  0
  160.7760  202.9490  149.4460 O   0  0  0  0  0  0  0  0  0  0  0  0
  161.2390  204.6150  150.9980 N   0  0  0  0  0  1  0  0  0  0  0  0
  161.1120  204.1430  149.6590 C   0  0  0  0  0  0  0  0  0  0  0  0
  160.5750  204.6740  147.4220 O   0  0  0  0  0  0  0  0  0  0  0  0
  161.1140  206.1160  145.6750 N   0  0  0  0  0  2  0  0  0  0  0  0
  161.3830  204.8290  146.2930 C   0  0  2  0  0  3  0  0  0  0  0  0
  160.7620  203.7760  144.9530 S   0  0  0  0  0  0  0  0  0  0  0  0
  160.5590  205.5130  144.4760 C   0  0  0  0  0  2  0  0  0  0  0  0
  1  5  1  0  0  0  0
  3  4  1  0  0  0  0
  3  8  1  0  0  0  0
  4  2  1  6  0  0  0
  4  1  1  0  0  0  0
  5 17  1  1  0  0  0
  6  8  1  0  0  0  0
  6  7  2  0  0  0  0
  8  5  1  0  0  0  0
 10  9  1  0  0  0  0
 10 14  1  0  0  0  0
 11  9  1  0  0  0  0
 12 13  2  0  0  0  0
 12 14  1  0  0  0  0
 15 12  1  0  0  0  0
 15  6  1  1  0  0  0
 16 11  1  0  0  0  0
 16 15  1  0  0  0  0
 17 19  1  0  0  0  0
 18 17  2  0  0  0  0
 19 20  1  0  0  0  0
 21 28  1  1  0  0  0
 22 26  1  1  0  0  0
 22 24  1  0  0  0  0
 22 27  1  0  0  0  0
 23 20  1  6  0  0  0
 23 25  1  0  0  0  0
 25 21  1  0  0  0  0
 26 23  1  0  0  0  0
 27 24  1  6  0  0  0
 27 21  1  0  0  0  0
 29 28  1  6  0  0  0
 29 31  1  0  0  0  0
 29 38  1  0  0  0  0
 31 34  2  0  0  0  0
 31 37  1  0  0  0  0
 35 33  2  0  0  0  0
 35 30  1  0  0  0  0
 36 35  1  0  0  0  0
 37 39  2  0  0  0  0
 38 32  2  0  0  0  0
 39 30  1  0  0  0  0
 39 32  1  0  0  0  0
 40  4  1  0  0  0  0
 41 40  1  1  0  0  0
 41 44  1  0  0  0  0
 42 44  2  0  0  0  0
 44 43  1  0  0  0  0
 45 41  1  0  0  0  0
 46 47  1  0  0  0  0
 47 45  1  1  0  0  0
 48 47  1  0  0  0  0
 49 48  1  0  0  0  0
 49 46  1  0  0  0  0
M  END
>  <MODEL>
6

>  <REMARK>
 VINA RESULT:      -5.4      3.253      8.872
  Name = 
  12 active torsions:
  status: ('A' for Active; 'I' for Inactive)
    1  A    between atoms: C_2  and  C_49
    2  A    between atoms: C_3  and  C_49
    3  A    between atoms: O_5  and  C_34
    4  A    between atoms: O_5  and  C_39
    5  A    between atoms: C_14  and  O_20
    6  A    between atoms: C_16  and  C_32
    7  A    between atoms: C_17  and  C_39
    8  A    between atoms: C_19  and  C_34
    9  A    between atoms: O_20  and  C_31
   10  A    between atoms: C_31  and  C_32
   11  A    between atoms: C_31  and  C_46
   12  A    between atoms: C_35  and  C_44
                            x       y       z     vdW  Elec       q    Type
                         _______ _______ _______ _____ _____    ______ ____

>  <TORSDO>
F 12

$$$$
=
 OpenBabel11072411453D

 49 54  0  0  1  0  0  0  0  0999 V2000
  160.3940  213.4690  152.3410 C   0  0  0  0  0  2  0  0  0  0  0  0
  158.9480  214.4510  150.7080 F   0  0  0  0  0  0  0  0  0  0  0  0
  158.0420  212.8580  152.2130 C   0  0  0  0  0  2  0  0  0  0  0  0
  159.2340  213.2680  151.3670 C   0  0  2  0  0  0  0  0  0  0  0  0
  160.0030  212.7720  153.6330 C   0  0  1  0  0  3  0  0  0  0  0  0
  157.7580  212.0890  154.6120 C   0  0  0  0  0  0  0  0  0  0  0  0
  158.2620  211.9540  155.7610 O   0  0  0  0  0  0  0  0  0  0  0  0
  158.5740  212.5410  153.5230 N   0  0  0  0  0  0  0  0  0  0  0  0
  155.3240  213.7010  156.5670 C   0  0  0  0  0  2  0  0  0  0  0  0
  154.4590  212.6040  156.6340 O   0  0  0  0  0  0  0  0  0  0  0  0
  155.5230  214.1690  155.1230 C   0  0  0  0  0  2  0  0  0  0  0  0
  155.6880  210.9340  155.4620 C   0  0  0  0  0  0  0  0  0  0  0  0
  155.5550  209.7380  155.2570 O   0  0  0  0  0  0  0  0  0  0  0  0
  155.3000  211.4980  156.7970 C   0  0  0  0  0  2  0  0  0  0  0  0
  156.2990  211.8020  154.3940 C   0  0  1  0  0  3  0  0  0  0  0  0
  155.4620  213.0480  154.0740 C   0  0  0  0  0  2  0  0  0  0  0  0
  160.7290  211.4690  153.7390 C   0  0  0  0  0  0  0  0  0  0  0  0
  161.5790  211.3040  154.6540 O   0  0  0  0  0  0  0  0  0  0  0  0
  160.4780  210.4600  152.8110 O   0  0  0  0  0  0  0  0  0  0  0  0
  161.5090  209.8510  152.0460 C   0  0  0  0  0  2  0  0  0  0  0  0
  162.4080  206.1340  152.0900 C   0  0  1  0  0  3  0  0  0  0  0  0
  161.1390  206.7020  154.2980 C   0  0  2  0  0  3  0  0  0  0  0  0
  161.8740  208.4920  152.6300 C   0  0  2  0  0  3  0  0  0  0  0  0
  160.4480  205.7650  153.4980 O   0  0  0  0  0  0  0  0  0  0  0  0
  161.8420  207.4360  151.5490 C   0  0  0  0  0  2  0  0  0  0  0  0
  160.8890  208.0990  153.7170 C   0  0  0  0  0  2  0  0  0  0  0  0
  161.8500  205.6820  153.4570 C   0  0  1  0  0  3  0  0  0  0  0  0
  162.2140  205.0420  151.0540 C   0  0  0  0  0  2  0  0  0  0  0  0
  160.9020  205.2240  150.3090 C   0  0  2  0  0  3  0  0  0  0  0  0
  161.1400  205.9230  146.0370 N   0  0  0  0  0  2  0  0  0  0  0  0
  160.7680  204.1380  149.2770 C   0  0  0  0  0  0  0  0  0  0  0  0
  160.9220  206.7920  148.3710 C   0  0  0  0  0  3  0  0  0  0  0  0
  161.3450  205.3610  143.7930 O   0  0  0  0  0  0  0  0  0  0  0  0
  160.5610  202.9500  149.6410 O   0  0  0  0  0  0  0  0  0  0  0  0
  161.3420  204.9670  144.9880 C   0  0  0  0  0  0  0  0  0  0  0  0
  161.5740  203.5210  145.2650 C   0  0  0  0  0  1  0  0  0  0  0  0
  160.9110  204.4350  147.8820 N   0  0  0  0  0  0  0  0  0  0  0  0
  160.8500  206.5970  149.6890 C   0  0  0  0  0  3  0  0  0  0  0  0
  161.0100  205.6540  147.4390 C   0  0  0  0  0  0  0  0  0  0  0  0
  159.5410  212.1480  150.3720 C   0  0  0  0  0  2  0  0  0  0  0  0
  160.1630  212.6410  149.0640 C   0  0  1  0  0  3  0  0  0  0  0  0
  161.7780  210.9130  149.3600 O   0  0  0  0  0  0  0  0  0  0  0  0
  162.4530  212.6510  147.9730 N   0  0  0  0  0  1  0  0  0  0  0  0
  161.4980  212.0130  148.8170 C   0  0  0  0  0  0  0  0  0  0  0  0
  159.3070  212.3430  148.0000 O   0  0  0  0  0  0  0  0  0  0  0  0
  158.0210  214.2040  147.4480 N   0  0  0  0  0  2  0  0  0  0  0  0
  159.2720  213.5000  147.2190 C   0  0  2  0  0  3  0  0  0  0  0  0
  158.9900  213.0540  145.4840 S   0  0  0  0  0  0  0  0  0  0  0  0
  157.5530  213.9750  146.0920 C   0  0  0  0  0  2  0  0  0  0  0  0
  1  5  1  0  0  0  0
  3  8  1  0  0  0  0
  4  2  1  6  0  0  0
  4  3  1  0  0  0  0
  4  1  1  0  0  0  0
  5 17  1  6  0  0  0
  6  7  2  0  0  0  0
  8  5  1  0  0  0  0
  8  6  1  0  0  0  0
  9 10  1  0  0  0  0
 10 14  1  0  0  0  0
 11  9  1  0  0  0  0
 12 14  1  0  0  0  0
 13 12  2  0  0  0  0
 15  6  1  1  0  0  0
 15 12  1  0  0  0  0
 16 15  1  0  0  0  0
 16 11  1  0  0  0  0
 17 18  2  0  0  0  0
 19 17  1  0  0  0  0
 20 19  1  0  0  0  0
 21 28  1  6  0  0  0
 21 27  1  0  0  0  0
 22 26  1  6  0  0  0
 23 20  1  6  0  0  0
 23 26  1  0  0  0  0
 24 22  1  0  0  0  0
 25 21  1  0  0  0  0
 25 23  1  0  0  0  0
 27 24  1  6  0  0  0
 27 22  1  0  0  0  0
 29 28  1  6  0  0  0
 30 39  1  0  0  0  0
 31 34  2  0  0  0  0
 31 29  1  0  0  0  0
 32 38  2  0  0  0  0
 33 35  2  0  0  0  0
 35 36  1  0  0  0  0
 35 30  1  0  0  0  0
 37 31  1  0  0  0  0
 38 29  1  0  0  0  0
 39 37  2  0  0  0  0
 39 32  1  0  0  0  0
 40  4  1  0  0  0  0
 41 40  1  1  0  0  0
 43 44  1  0  0  0  0
 44 41  1  0  0  0  0
 44 42  2  0  0  0  0
 45 41  1  0  0  0  0
 47 46  1  0  0  0  0
 47 45  1  1  0  0  0
 48 49  1  0  0  0  0
 48 47  1  0  0  0  0
 49 46  1  0  0  0  0
M  END
>  <MODEL>
7

>  <REMARK>
 VINA RESULT:      -4.8      2.421      5.903
  Name = 
  12 active torsions:
  status: ('A' for Active; 'I' for Inactive)
    1  A    between atoms: C_2  and  C_49
    2  A    between atoms: C_3  and  C_49
    3  A    between atoms: O_5  and  C_34
    4  A    between atoms: O_5  and  C_39
    5  A    between atoms: C_14  and  O_20
    6  A    between atoms: C_16  and  C_32
    7  A    between atoms: C_17  and  C_39
    8  A    between atoms: C_19  and  C_34
    9  A    between atoms: O_20  and  C_31
   10  A    between atoms: C_31  and  C_32
   11  A    between atoms: C_31  and  C_46
   12  A    between atoms: C_35  and  C_44
                            x       y       z     vdW  Elec       q    Type
                         _______ _______ _______ _____ _____    ______ ____

>  <TORSDO>
F 12

$$$$
=
 OpenBabel11072411453D

 49 54  0  0  1  0  0  0  0  0999 V2000
  162.9640  212.1950  148.1990 C   0  0  0  0  0  2  0  0  0  0  0  0
  162.7020  214.3370  147.1690 F   0  0  0  0  0  0  0  0  0  0  0  0
  161.0620  213.6190  148.7240 C   0  0  0  0  0  2  0  0  0  0  0  0
  162.0050  213.2230  147.6020 C   0  0  2  0  0  0  0  0  0  0  0  0
  162.3200  211.6900  149.4800 C   0  0  1  0  0  3  0  0  0  0  0  0
  160.5490  212.6690  151.0180 C   0  0  0  0  0  0  0  0  0  0  0  0
  160.8690  211.8770  151.9470 O   0  0  0  0  0  0  0  0  0  0  0  0
  161.2730  212.6490  149.7810 N   0  0  0  0  0  0  0  0  0  0  0  0
  158.5550  212.5030  153.9070 C   0  0  0  0  0  2  0  0  0  0  0  0
  157.3650  212.8680  153.2680 O   0  0  0  0  0  0  0  0  0  0  0  0
  159.6040  213.6150  153.8100 C   0  0  0  0  0  2  0  0  0  0  0  0
  158.0600  213.0550  150.9980 C   0  0  0  0  0  0  0  0  0  0  0  0
  157.5010  213.2310  149.9270 O   0  0  0  0  0  0  0  0  0  0  0  0
  157.4020  212.2000  152.0400 C   0  0  0  0  0  2  0  0  0  0  0  0
  159.4260  213.6480  151.2210 C   0  0  1  0  0  3  0  0  0  0  0  0
  159.5320  214.4510  152.5240 C   0  0  0  0  0  2  0  0  0  0  0  0
  161.7300  210.3370  149.2450 C   0  0  0  0  0  0  0  0  0  0  0  0
  161.2120  210.0710  148.1280 O   0  0  0  0  0  0  0  0  0  0  0  0
  161.7360  209.3920  150.2700 O   0  0  0  0  0  0  0  0  0  0  0  0
  162.3920  209.6160  151.5110 C   0  0  0  0  0  2  0  0  0  0  0  0
  162.3500  205.8980  152.4030 C   0  0  1  0  0  3  0  0  0  0  0  0
  160.8750  207.1780  154.1330 C   0  0  2  0  0  3  0  0  0  0  0  0
  162.3080  208.3750  152.3890 C   0  0  2  0  0  3  0  0  0  0  0  0
  160.1360  206.2440  153.3730 O   0  0  0  0  0  0  0  0  0  0  0  0
  162.2210  207.1340  151.5300 C   0  0  0  0  0  2  0  0  0  0  0  0
  161.0770  208.4340  153.2760 C   0  0  0  0  0  2  0  0  0  0  0  0
  161.4620  205.8780  153.6660 C   0  0  1  0  0  3  0  0  0  0  0  0
  162.0920  204.6650  151.5560 C   0  0  0  0  0  2  0  0  0  0  0  0
  160.8020  204.8060  150.7670 C   0  0  2  0  0  3  0  0  0  0  0  0
  161.1620  205.8040  146.5630 N   0  0  0  0  0  2  0  0  0  0  0  0
  160.7870  203.7850  149.6620 C   0  0  0  0  0  0  0  0  0  0  0  0
  160.7890  206.4980  148.9350 C   0  0  0  0  0  3  0  0  0  0  0  0
  161.4960  205.4090  144.2990 O   0  0  0  0  0  0  0  0  0  0  0  0
  160.6500  202.5640  149.9400 O   0  0  0  0  0  0  0  0  0  0  0  0
  161.4730  204.9370  145.4650 C   0  0  0  0  0  0  0  0  0  0  0  0
  161.7960  203.4940  145.6590 C   0  0  0  0  0  1  0  0  0  0  0  0
  160.9650  204.1840  148.2970 N   0  0  0  0  0  0  0  0  0  0  0  0
  160.6780  206.2110  150.2340 C   0  0  0  0  0  3  0  0  0  0  0  0
  160.9940  205.4340  147.9380 C   0  0  0  0  0  0  0  0  0  0  0  0
  161.1870  212.6130  146.4630 C   0  0  0  0  0  2  0  0  0  0  0  0
  161.0820  213.5140  145.2310 C   0  0  1  0  0  3  0  0  0  0  0  0
  162.9820  212.8260  143.9660 O   0  0  0  0  0  0  0  0  0  0  0  0
  160.9330  212.3640  142.9750 N   0  0  0  0  0  1  0  0  0  0  0  0
  161.7280  212.8880  144.0350 C   0  0  0  0  0  0  0  0  0  0  0  0
  159.7370  213.7660  144.9510 O   0  0  0  0  0  0  0  0  0  0  0  0
  157.9100  212.4150  145.4620 N   0  0  0  0  0  2  0  0  0  0  0  0
  159.0250  213.1760  145.9990 C   0  0  2  0  0  3  0  0  0  0  0  0
  158.0620  214.4440  146.8680 S   0  0  0  0  0  0  0  0  0  0  0  0
  156.9200  213.2940  146.0580 C   0  0  0  0  0  2  0  0  0  0  0  0
  1  5  1  0  0  0  0
  3  8  1  0  0  0  0
  4  2  1  6  0  0  0
  4  1  1  0  0  0  0
  4  3  1  0  0  0  0
  5 17  1  6  0  0  0
  5  8  1  0  0  0  0
  6  7  2  0  0  0  0
  8  6  1  0  0  0  0
 10  9  1  0  0  0  0
 11  9  1  0  0  0  0
 12 15  1  0  0  0  0
 12 14  1  0  0  0  0
 13 12  2  0  0  0  0
 14 10  1  0  0  0  0
 15  6  1  1  0  0  0
 15 16  1  0  0  0  0
 16 11  1  0  0  0  0
 17 19  1  0  0  0  0
 18 17  2  0  0  0  0
 19 20  1  0  0  0  0
 21 28  1  6  0  0  0
 21 27  1  0  0  0  0
 22 26  1  6  0  0  0
 23 20  1  6  0  0  0
 23 26  1  0  0  0  0
 24 22  1  0  0  0  0
 25 23  1  0  0  0  0
 25 21  1  0  0  0  0
 27 24  1  6  0  0  0
 27 22  1  0  0  0  0
 29 28  1  6  0  0  0
 30 39  1  0  0  0  0
 31 34  2  0  0  0  0
 31 29  1  0  0  0  0
 32 38  2  0  0  0  0
 33 35  2  0  0  0  0
 35 36  1  0  0  0  0
 35 30  1  0  0  0  0
 37 31  1  0  0  0  0
 38 29  1  0  0  0  0
 39 37  2  0  0  0  0
 39 32  1  0  0  0  0
 40  4  1  0  0  0  0
 41 40  1  1  0  0  0
 42 44  2  0  0  0  0
 43 44  1  0  0  0  0
 44 41  1  0  0  0  0
 45 41  1  0  0  0  0
 46 47  1  0  0  0  0
 46 49  1  0  0  0  0
 47 45  1  6  0  0  0
 47 48  1  0  0  0  0
 49 48  1  0  0  0  0
M  END
>  <MODEL>
8

>  <REMARK>
 VINA RESULT:      -4.8      2.905      6.007
  Name = 
  12 active torsions:
  status: ('A' for Active; 'I' for Inactive)
    1  A    between atoms: C_2  and  C_49
    2  A    between atoms: C_3  and  C_49
    3  A    between atoms: O_5  and  C_34
    4  A    between atoms: O_5  and  C_39
    5  A    between atoms: C_14  and  O_20
    6  A    between atoms: C_16  and  C_32
    7  A    between atoms: C_17  and  C_39
    8  A    between atoms: C_19  and  C_34
    9  A    between atoms: O_20  and  C_31
   10  A    between atoms: C_31  and  C_32
   11  A    between atoms: C_31  and  C_46
   12  A    between atoms: C_35  and  C_44
                            x       y       z     vdW  Elec       q    Type
                         _______ _______ _______ _____ _____    ______ ____

>  <TORSDO>
F 12

$$$$
=
 OpenBabel11072411453D

 49 54  0  0  1  0  0  0  0  0999 V2000
  162.5110  210.2190  151.4970 C   0  0  0  0  0  2  0  0  0  0  0  0
  161.9820  208.8540  153.3880 F   0  0  0  0  0  0  0  0  0  0  0  0
  161.5090  208.0190  151.2190 C   0  0  0  0  0  2  0  0  0  0  0  0
  161.5350  209.2310  152.1330 C   0  0  2  0  0  0  0  0  0  0  0  0
  162.6930  209.7820  150.0520 C   0  0  1  0  0  3  0  0  0  0  0  0
  162.3360  207.5630  148.8670 C   0  0  0  0  0  0  0  0  0  0  0  0
  163.0340  207.9360  147.8840 O   0  0  0  0  0  0  0  0  0  0  0  0
  162.1720  208.4290  149.9970 N   0  0  0  0  0  0  0  0  0  0  0  0
  162.0370  205.7630  145.8640 C   0  0  0  0  0  2  0  0  0  0  0  0
  160.7980  205.1910  146.1730 O   0  0  0  0  0  0  0  0  0  0  0  0
  163.1150  205.3340  146.8640 C   0  0  0  0  0  2  0  0  0  0  0  0
  160.3100  206.1860  148.2820 C   0  0  0  0  0  0  0  0  0  0  0  0
  159.3490  206.2030  149.0360 O   0  0  0  0  0  0  0  0  0  0  0  0
  160.0810  206.2170  146.7990 C   0  0  0  0  0  2  0  0  0  0  0  0
  161.7000  206.2010  148.8600 C   0  0  1  0  0  3  0  0  0  0  0  0
  162.6030  205.0970  148.2920 C   0  0  0  0  0  2  0  0  0  0  0  0
  161.9010  210.6780  149.1540 C   0  0  0  0  0  0  0  0  0  0  0  0
  161.2110  210.1760  148.2280 O   0  0  0  0  0  0  0  0  0  0  0  0
  161.9520  212.0590  149.3350 O   0  0  0  0  0  0  0  0  0  0  0  0
  160.8470  212.9070  149.0570 C   0  0  0  0  0  2  0  0  0  0  0  0
  160.4690  213.3710  145.2800 C   0  0  1  0  0  3  0  0  0  0  0  0
  162.7240  214.4530  146.0230 C   0  0  2  0  0  3  0  0  0  0  0  0
  161.0070  213.5610  147.6910 C   0  0  2  0  0  3  0  0  0  0  0  0
  162.9060  213.3790  145.1240 O   0  0  0  0  0  0  0  0  0  0  0  0
  160.5010  212.6340  146.6090 C   0  0  0  0  0  2  0  0  0  0  0  0
  162.4690  213.8690  147.4180 C   0  0  0  0  0  2  0  0  0  0  0  0
  161.7510  214.1530  144.9200 C   0  0  1  0  0  3  0  0  0  0  0  0
  160.1240  212.3860  144.1780 C   0  0  0  0  0  2  0  0  0  0  0  0
  160.5580  212.9140  142.8200 C   0  0  2  0  0  3  0  0  0  0  0  0
  159.2820  210.6730  139.3350 N   0  0  0  0  0  2  0  0  0  0  0  0
  159.3350  213.2530  142.0110 C   0  0  0  0  0  0  0  0  0  0  0  0
  161.0150  211.2160  141.0520 C   0  0  0  0  0  3  0  0  0  0  0  0
  157.8350  209.9930  137.6500 O   0  0  0  0  0  0  0  0  0  0  0  0
  158.6290  214.2460  142.3300 O   0  0  0  0  0  0  0  0  0  0  0  0
  158.0050  210.6920  138.6820 C   0  0  0  0  0  0  0  0  0  0  0  0
  156.8600  211.4950  139.1980 C   0  0  0  0  0  1  0  0  0  0  0  0
  158.9440  212.4350  140.9010 N   0  0  0  0  0  0  0  0  0  0  0  0
  161.4250  211.8940  142.1260 C   0  0  0  0  0  3  0  0  0  0  0  0
  159.6930  211.4690  140.4540 C   0  0  0  0  0  0  0  0  0  0  0  0
  160.1270  209.8220  152.2090 C   0  0  0  0  0  2  0  0  0  0  0  0
  160.0290  211.0650  153.0950 C   0  0  1  0  0  3  0  0  0  0  0  0
  158.4840  211.9360  151.5030 O   0  0  0  0  0  0  0  0  0  0  0  0
  159.6330  213.5430  152.7250 N   0  0  0  0  0  1  0  0  0  0  0  0
  159.3360  212.1900  152.3930 C   0  0  0  0  0  0  0  0  0  0  0  0
  159.3320  210.7500  154.2640 O   0  0  0  0  0  0  0  0  0  0  0  0
  160.5370  209.5750  155.8740 N   0  0  0  0  0  2  0  0  0  0  0  0
  160.2640  210.8800  155.2970 C   0  0  2  0  0  3  0  0  0  0  0  0
  159.4670  211.6290  156.7440 S   0  0  0  0  0  0  0  0  0  0  0  0
  159.9430  209.9290  157.1520 C   0  0  0  0  0  2  0  0  0  0  0  0
  1  4  1  0  0  0  0
  3  4  1  0  0  0  0
  4 40  1  0  0  0  0
  4  2  1  1  0  0  0
  5 17  1  6  0  0  0
  5  1  1  0  0  0  0
  6  8  1  0  0  0  0
  7  6  2  0  0  0  0
  8  5  1  0  0  0  0
  8  3  1  0  0  0  0
  9 10  1  0  0  0  0
  9 11  1  0  0  0  0
 10 14  1  0  0  0  0
 11 16  1  0  0  0  0
 12 15  1  0  0  0  0
 12 13  2  0  0  0  0
 14 12  1  0  0  0  0
 15  6  1  6  0  0  0
 16 15  1  0  0  0  0
 17 19  1  0  0  0  0
 18 17  2  0  0  0  0
 20 19  1  0  0  0  0
 21 28  1  6  0  0  0
 21 25  1  0  0  0  0
 22 26  1  1  0  0  0
 23 20  1  1  0  0  0
 24 22  1  0  0  0  0
 25 23  1  0  0  0  0
 26 23  1  0  0  0  0
 27 24  1  6  0  0  0
 27 21  1  0  0  0  0
 27 22  1  0  0  0  0
 29 28  1  1  0  0  0
 30 39  1  0  0  0  0
 31 34  2  0  0  0  0
 31 29  1  0  0  0  0
 32 38  2  0  0  0  0
 33 35  2  0  0  0  0
 35 36  1  0  0  0  0
 35 30  1  0  0  0  0
 37 31  1  0  0  0  0
 38 29  1  0  0  0  0
 39 37  2  0  0  0  0
 39 32  1  0  0  0  0
 41 40  1  6  0  0  0
 41 45  1  0  0  0  0
 42 44  2  0  0  0  0
 44 43  1  0  0  0  0
 44 41  1  0  0  0  0
 46 49  1  0  0  0  0
 47 45  1  6  0  0  0
 47 46  1  0  0  0  0
 47 48  1  0  0  0  0
 48 49  1  0  0  0  0
M  END
>  <MODEL>
9

>  <REMARK>
 VINA RESULT:      -4.7      3.782      7.643
  Name = 
  12 active torsions:
  status: ('A' for Active; 'I' for Inactive)
    1  A    between atoms: C_2  and  C_49
    2  A    between atoms: C_3  and  C_49
    3  A    between atoms: O_5  and  C_34
    4  A    between atoms: O_5  and  C_39
    5  A    between atoms: C_14  and  O_20
    6  A    between atoms: C_16  and  C_32
    7  A    between atoms: C_17  and  C_39
    8  A    between atoms: C_19  and  C_34
    9  A    between atoms: O_20  and  C_31
   10  A    between atoms: C_31  and  C_32
   11  A    between atoms: C_31  and  C_46
   12  A    between atoms: C_35  and  C_44
                            x       y       z     vdW  Elec       q    Type
                         _______ _______ _______ _____ _____    ______ ____

>  <TORSDO>
F 12

$$$$
