=
 OpenBabel11072411223D

 42 48  0  0  1  0  0  0  0  0999 V2000
  161.2020  207.3880  152.6270 C   0  0  0  0  0  0  0  0  0  0  0  0
  161.5420  206.5200  151.6100 C   0  0  0  0  0  0  0  0  0  0  0  0
  160.3990  209.4290  153.8840 C   0  0  0  0  0  2  0  0  0  0  0  0
  159.5840  210.6550  153.5990 C   0  0  0  0  0  0  0  0  0  0  0  0
  161.5830  205.2800  152.1400 N   0  0  0  0  0  0  0  0  0  0  0  0
  162.4500  207.0490  147.4660 C   0  0  0  0  0  3  0  0  0  0  0  0
  161.2890  209.6760  151.5980 C   0  0  0  0  0  0  0  0  0  0  0  0
  162.3200  208.1760  148.2750 C   0  0  0  0  0  3  0  0  0  0  0  0
  161.9860  208.0640  149.6310 C   0  0  0  0  0  0  0  0  0  0  0  0
  161.1000  211.1590  151.8010 C   0  0  0  0  0  2  0  0  0  0  0  0
  161.8030  206.7810  150.1890 C   0  0  0  0  0  0  0  0  0  0  0  0
  158.4460  210.9510  154.4100 N   0  0  0  0  0  2  0  0  0  0  0  0
  162.2440  205.7750  147.9980 C   0  0  0  0  0  0  0  0  0  0  0  0
  161.2830  205.3890  153.4210 N   0  0  0  0  0  0  0  0  0  0  0  0
  161.8730  209.2950  150.3480 N   0  0  0  0  0  0  0  0  0  0  0  0
  161.0440  206.6490  153.7450 N   0  0  0  0  0  0  0  0  0  0  0  0
  161.9410  205.6570  149.3580 C   0  0  0  0  0  3  0  0  0  0  0  0
  160.9660  208.8410  152.6090 C   0  0  0  0  0  0  0  0  0  0  0  0
  159.9130  211.4310  152.6110 N   0  0  0  0  0  0  0  0  0  0  0  0
  160.0790  205.0390  144.1430 C   0  0  0  0  0  2  0  0  0  0  0  0
  161.2990  202.9300  145.6330 C   0  0  1  0  0  3  0  0  0  0  0  0
  161.0960  205.4590  145.1960 C   0  0  0  0  0  2  0  0  0  0  0  0
  160.0090  202.6980  144.9440 C   0  0  2  0  0  3  0  0  0  0  0  0
  163.3090  203.7410  147.4310 O   0  0  0  0  0  0  0  0  0  0  0  0
  161.5510  204.3280  146.0160 N   0  0  0  0  0  0  0  0  0  0  0  0
  159.1830  203.9610  144.7220 C   0  0  0  0  0  2  0  0  0  0  0  0
  162.4070  204.5760  147.1450 C   0  0  0  0  0  0  0  0  0  0  0  0
  160.1370  202.4260  146.3860 N   0  0  0  0  0  0  0  0  0  0  0  0
  160.8660  200.4470  145.3720 O   0  0  0  0  0  1  0  0  0  0  0  0
  160.3140  200.9880  146.5360 C   0  0  1  0  0  3  0  0  0  0  0  0
  161.1810  200.6600  147.7570 C   0  0  0  0  0  2  0  0  0  0  0  0
  161.2200  200.5760  150.1480 F   0  0  0  0  0  0  0  0  0  0  0  0
  159.3180  201.1850  149.1200 F   0  0  0  0  0  0  0  0  0  0  0  0
  160.6960  201.2710  149.0740 C   0  0  0  0  0  0  0  0  0  0  0  0
  161.0630  202.6010  149.1610 F   0  0  0  0  0  0  0  0  0  0  0  0
  155.9210  214.4530  155.3470 O   0  0  0  0  0  1  0  0  0  0  0  0
  157.7620  212.9400  155.3660 C   0  0  0  0  0  2  0  0  0  0  0  0
  156.2640  211.6200  154.1210 C   0  0  0  0  0  2  0  0  0  0  0  0
  156.3710  213.2390  155.8670 C   0  0  0  0  0  0  0  0  0  0  0  0
  155.5280  212.1100  155.3490 C   0  0  0  0  0  2  0  0  0  0  0  0
  157.6480  212.0850  154.1850 N   0  0  0  0  0  0  0  0  0  0  0  0
  156.3460  213.2740  157.2590 O   0  0  0  0  0  1  0  0  0  0  0  0
  1 16  1  0  0  0  0
  2  5  2  0  0  0  0
  2  1  1  0  0  0  0
  4  3  1  0  0  0  0
  4 12  1  0  0  0  0
  5 14  1  0  0  0  0
  6 13  2  0  0  0  0
  6  8  1  0  0  0  0
  7 10  1  0  0  0  0
  7 18  1  0  0  0  0
  8  9  2  0  0  0  0
  9 11  1  0  0  0  0
  9 15  1  0  0  0  0
 10 19  1  0  0  0  0
 11  2  1  0  0  0  0
 13 17  1  0  0  0  0
 14 16  2  0  0  0  0
 15  7  2  0  0  0  0
 17 11  2  0  0  0  0
 18  1  2  0  0  0  0
 18  3  1  0  0  0  0
 19  4  2  0  0  0  0
 20 26  1  0  0  0  0
 20 22  1  0  0  0  0
 21 25  1  1  0  0  0
 21 28  1  0  0  0  0
 22 25  1  0  0  0  0
 23 26  1  1  0  0  0
 23 21  1  0  0  0  0
 23 28  1  0  0  0  0
 25 27  1  0  0  0  0
 27 24  2  0  0  0  0
 27 13  1  0  0  0  0
 28 30  1  0  0  0  0
 30 29  1  6  0  0  0
 30 31  1  0  0  0  0
 31 34  1  0  0  0  0
 34 33  1  0  0  0  0
 34 35  1  0  0  0  0
 34 32  1  0  0  0  0
 36 39  1  0  0  0  0
 37 39  1  0  0  0  0
 38 41  1  0  0  0  0
 38 40  1  0  0  0  0
 39 42  1  0  0  0  0
 40 39  1  0  0  0  0
 41 12  1  0  0  0  0
 41 37  1  0  0  0  0
M  END
>  <MODEL>
1

>  <REMARK>
 VINA RESULT:      -6.2      0.000      0.000
  Name = 
  5 active torsions:
  status: ('A' for Active; 'I' for Inactive)
    1  A    between atoms: C_21  and  C_30
    2  A    between atoms: N_27  and  N_28
    3  A    between atoms: C_29  and  C_36
    4  A    between atoms: C_30  and  C_31
    5  A    between atoms: C_31  and  N_38
                            x       y       z     vdW  Elec       q    Type
                         _______ _______ _______ _____ _____    ______ ____

>  <TORSDO>
F 5

$$$$
=
 OpenBabel11072411223D

 42 48  0  0  1  0  0  0  0  0999 V2000
  162.1440  206.5700  148.7340 C   0  0  0  0  0  0  0  0  0  0  0  0
  161.8540  207.6040  149.6000 C   0  0  0  0  0  0  0  0  0  0  0  0
  162.2070  204.2940  147.6350 C   0  0  0  0  0  2  0  0  0  0  0  0
  161.3990  203.0310  147.6580 C   0  0  0  0  0  0  0  0  0  0  0  0
  162.1450  208.7550  148.9610 N   0  0  0  0  0  0  0  0  0  0  0  0
  160.3710  207.7620  153.6070 C   0  0  0  0  0  3  0  0  0  0  0  0
  161.7140  204.4720  150.0450 C   0  0  0  0  0  0  0  0  0  0  0  0
  160.7310  206.5280  153.0720 C   0  0  0  0  0  3  0  0  0  0  0  0
  161.1860  206.4110  151.7520 C   0  0  0  0  0  0  0  0  0  0  0  0
  161.7040  202.9640  150.0430 C   0  0  0  0  0  2  0  0  0  0  0  0
  161.3050  207.5740  150.9620 C   0  0  0  0  0  0  0  0  0  0  0  0
  160.8950  202.4920  146.4350 N   0  0  0  0  0  2  0  0  0  0  0  0
  160.4560  208.9170  152.8280 C   0  0  0  0  0  0  0  0  0  0  0  0
  162.5940  208.4350  147.7600 N   0  0  0  0  0  0  0  0  0  0  0  0
  161.5140  205.0880  151.3200 N   0  0  0  0  0  0  0  0  0  0  0  0
  162.6020  207.1240  147.5930 N   0  0  0  0  0  0  0  0  0  0  0  0
  160.9390  208.8090  151.5200 C   0  0  0  0  0  3  0  0  0  0  0  0
  161.9730  205.1150  148.8850 C   0  0  0  0  0  0  0  0  0  0  0  0
  161.1570  202.4440  148.7910 N   0  0  0  0  0  0  0  0  0  0  0  0
  162.5190  210.8620  156.3000 C   0  0  0  0  0  2  0  0  0  0  0  0
  159.8930  211.6180  155.4690 C   0  0  1  0  0  3  0  0  0  0  0  0
  162.1000  210.4200  154.9040 C   0  0  0  0  0  2  0  0  0  0  0  0
  160.2300  211.5780  156.9100 C   0  0  2  0  0  3  0  0  0  0  0  0
  159.2360  210.9430  152.8150 O   0  0  0  0  0  0  0  0  0  0  0  0
  160.6880  210.7120  154.6240 N   0  0  0  0  0  0  0  0  0  0  0  0
  161.3690  210.6260  157.2600 C   0  0  0  0  0  2  0  0  0  0  0  0
  160.0970  210.2330  153.4030 C   0  0  0  0  0  0  0  0  0  0  0  0
  159.0770  210.8170  156.3980 N   0  0  0  0  0  0  0  0  0  0  0  0
  158.2380  212.8240  157.2600 O   0  0  0  0  0  1  0  0  0  0  0  0
  157.8830  211.5950  156.7000 C   0  0  1  0  0  3  0  0  0  0  0  0
  157.0190  211.7940  155.4490 C   0  0  0  0  0  2  0  0  0  0  0  0
  154.9710  211.2890  156.5800 F   0  0  0  0  0  0  0  0  0  0  0  0
  155.9970  209.6580  155.4260 F   0  0  0  0  0  0  0  0  0  0  0  0
  155.7050  211.0080  155.4430 C   0  0  0  0  0  0  0  0  0  0  0  0
  154.9560  211.3150  154.3220 F   0  0  0  0  0  0  0  0  0  0  0  0
  159.9460  198.2270  145.7880 O   0  0  0  0  0  1  0  0  0  0  0  0
  161.0570  200.1920  146.5550 C   0  0  0  0  0  2  0  0  0  0  0  0
  159.5600  201.2210  145.0590 C   0  0  0  0  0  2  0  0  0  0  0  0
  160.8320  199.2370  145.4090 C   0  0  0  0  0  0  0  0  0  0  0  0
  160.2250  200.0770  144.3240 C   0  0  0  0  0  2  0  0  0  0  0  0
  160.1320  201.3140  146.4000 N   0  0  0  0  0  0  0  0  0  0  0  0
  162.0390  198.6820  144.9860 O   0  0  0  0  0  1  0  0  0  0  0  0
  1 18  1  0  0  0  0
  1  2  1  0  0  0  0
  2 11  2  0  0  0  0
  3  4  1  0  0  0  0
  3 18  1  0  0  0  0
  4 19  2  0  0  0  0
  5  2  1  0  0  0  0
  7 15  1  0  0  0  0
  8  6  2  0  0  0  0
  9  8  1  0  0  0  0
 10  7  1  0  0  0  0
 11 17  1  0  0  0  0
 11  9  1  0  0  0  0
 12  4  1  0  0  0  0
 13 27  1  0  0  0  0
 13  6  1  0  0  0  0
 14  5  2  0  0  0  0
 15  9  2  0  0  0  0
 16 14  1  0  0  0  0
 16  1  2  0  0  0  0
 17 13  2  0  0  0  0
 18  7  2  0  0  0  0
 19 10  1  0  0  0  0
 20 26  1  0  0  0  0
 21 25  1  6  0  0  0
 21 28  1  0  0  0  0
 21 23  1  0  0  0  0
 22 20  1  0  0  0  0
 23 26  1  6  0  0  0
 24 27  2  0  0  0  0
 25 22  1  0  0  0  0
 27 25  1  0  0  0  0
 28 30  1  0  0  0  0
 28 23  1  0  0  0  0
 30 29  1  6  0  0  0
 31 30  1  0  0  0  0
 33 34  1  0  0  0  0
 34 31  1  0  0  0  0
 34 32  1  0  0  0  0
 35 34  1  0  0  0  0
 38 41  1  0  0  0  0
 39 36  1  0  0  0  0
 39 37  1  0  0  0  0
 40 38  1  0  0  0  0
 40 39  1  0  0  0  0
 41 12  1  0  0  0  0
 41 37  1  0  0  0  0
 42 39  1  0  0  0  0
M  END
>  <MODEL>
2

>  <REMARK>
 VINA RESULT:      -3.7      3.755     11.485
  Name = 
  5 active torsions:
  status: ('A' for Active; 'I' for Inactive)
    1  A    between atoms: C_21  and  C_30
    2  A    between atoms: N_27  and  N_28
    3  A    between atoms: C_29  and  C_36
    4  A    between atoms: C_30  and  C_31
    5  A    between atoms: C_31  and  N_38
                            x       y       z     vdW  Elec       q    Type
                         _______ _______ _______ _____ _____    ______ ____

>  <TORSDO>
F 5

$$$$
