=
 OpenBabel11072412263D

 33 34  0  0  1  0  0  0  0  0999 V2000
  162.3510  209.2340  154.5400 O   0  0  0  0  0  0  0  0  0  0  0  0
  160.6710  207.7880  153.7990 N   0  0  0  0  0  2  0  0  0  0  0  0
  162.3630  208.9640  148.9830 O   0  0  0  0  0  0  0  0  0  0  0  0
  160.2420  209.4480  155.6510 C   0  0  2  0  0  3  0  0  0  0  0  0
  160.4520  211.4120  150.8950 C   0  0  0  0  0  2  0  0  0  0  0  0
  161.5030  210.8740  150.0330 N   0  0  0  0  0  0  0  0  0  0  0  0
  160.9580  209.9930  156.7210 O   0  0  0  0  0  1  0  0  0  0  0  0
  158.4640  212.2600  156.1520 C   0  0  0  0  0  0  0  0  0  0  0  0
  161.1620  208.8290  154.6480 C   0  0  0  0  0  0  0  0  0  0  0  0
  159.3210  210.4870  155.0080 C   0  0  1  0  0  3  0  0  0  0  0  0
  160.9050  211.4230  152.3420 C   0  0  0  0  0  2  0  0  0  0  0  0
  159.4010  212.8100  155.4640 N   0  0  0  0  0  0  0  0  0  0  0  0
  158.3420  210.9020  155.9440 O   0  0  0  0  0  0  0  0  0  0  0  0
  161.5290  207.0270  152.8950 C   0  0  2  0  0  3  0  0  0  0  0  0
  161.6610  209.4480  149.9120 C   0  0  0  0  0  0  0  0  0  0  0  0
  162.1000  207.8980  151.7740 C   0  0  0  0  0  2  0  0  0  0  0  0
  157.4400  213.1600  157.2480 Cl  0  0  0  0  0  0  0  0  0  0  0  0
  160.0580  211.7930  154.6540 C   0  0  2  0  0  3  0  0  0  0  0  0
  161.0240  208.5170  150.8920 C   0  0  0  0  0  2  0  0  0  0  0  0
  159.8490  212.1110  153.1840 C   0  0  0  0  0  2  0  0  0  0  0  0
  162.1730  212.3050  148.1190 C   0  0  0  0  0  0  0  0  0  0  0  0
  162.4090  211.7220  149.3000 C   0  0  0  0  0  3  0  0  0  0  0  0
  160.9500  212.1370  147.4070 N   0  0  0  0  0  1  0  0  0  0  0  0
  163.2350  213.1570  147.5240 C   0  0  0  0  0  1  0  0  0  0  0  0
  160.8210  205.7750  152.3660 C   0  0  2  0  0  3  0  0  0  0  0  0
  161.1290  204.6660  153.1620 O   0  0  0  0  0  1  0  0  0  0  0  0
  161.2110  205.5020  150.9150 C   0  0  2  0  0  3  0  0  0  0  0  0
  160.1440  205.8150  150.0690 O   0  0  0  0  0  1  0  0  0  0  0  0
  161.5810  204.0300  150.7350 C   0  0  0  0  0  2  0  0  0  0  0  0
  160.7840  203.3450  149.6240 C   0  0  2  0  0  3  0  0  0  0  0  0
  160.2920  202.0510  150.0720 N   0  0  0  0  0  1  0  0  0  0  0  0
  161.5910  203.1980  148.3730 C   0  0  0  0  0  3  0  0  0  0  0  0
  161.6660  204.1910  147.4910 C   0  0  0  0  0  2  0  0  0  0  0  0
  1  9  2  0  0  0  0
  2  9  1  0  0  0  0
  3 15  2  0  0  0  0
  4  7  1  1  0  0  0
  5 11  1  0  0  0  0
  6  5  1  0  0  0  0
  8 17  1  0  0  0  0
  9  4  1  0  0  0  0
 10  4  1  0  0  0  0
 10 13  1  1  0  0  0
 11 20  1  0  0  0  0
 12  8  2  0  0  0  0
 13  8  1  0  0  0  0
 14 25  1  6  0  0  0
 14  2  1  0  0  0  0
 15  6  1  0  0  0  0
 15 19  1  0  0  0  0
 16 14  1  0  0  0  0
 18 20  1  6  0  0  0
 18 10  1  0  0  0  0
 18 12  1  0  0  0  0
 19 16  1  0  0  0  0
 21 22  2  0  0  0  0
 22  6  1  0  0  0  0
 23 21  1  0  0  0  0
 24 21  1  0  0  0  0
 25 26  1  1  0  0  0
 27 28  1  6  0  0  0
 27 25  1  0  0  0  0
 29 27  1  0  0  0  0
 30 31  1  1  0  0  0
 30 29  1  0  0  0  0
 32 30  1  0  0  0  0
 33 32  2  0  0  0  0
M  END
>  <MODEL>
1

>  <REMARK>
 VINA RESULT:      -5.3      0.000      0.000
  Name = 
  6 active torsions:
  status: ('A' for Active; 'I' for Inactive)
    1  A    between atoms: C_1  and  C_12
    2  A    between atoms: C_5  and  C_8
    3  A    between atoms: C_5  and  C_18
    4  A    between atoms: C_8  and  C_12
    5  A    between atoms: N_11  and  C_13
    6  A    between atoms: C_18  and  C_24
                            x       y       z     vdW  Elec       q    Type
                         _______ _______ _______ _____ _____    ______ ____

>  <TORSDO>
F 6

$$$$
=
 OpenBabel11072412263D

 33 34  0  0  1  0  0  0  0  0999 V2000
  163.5160  207.9580  149.1610 O   0  0  0  0  0  0  0  0  0  0  0  0
  161.5870  209.0470  148.4150 N   0  0  0  0  0  2  0  0  0  0  0  0
  161.4440  211.1730  153.2010 O   0  0  0  0  0  0  0  0  0  0  0  0
  161.9890  206.6100  147.9020 C   0  0  2  0  0  3  0  0  0  0  0  0
  160.5500  207.6690  152.7320 C   0  0  0  0  0  2  0  0  0  0  0  0
  161.1670  208.8500  153.3320 N   0  0  0  0  0  0  0  0  0  0  0  0
  163.0870  205.7940  147.6070 O   0  0  0  0  0  1  0  0  0  0  0  0
  160.7180  203.6130  148.7540 C   0  0  0  0  0  0  0  0  0  0  0  0
  162.4270  207.8960  148.5270 C   0  0  0  0  0  0  0  0  0  0  0  0
  160.9690  205.8760  148.7740 C   0  0  1  0  0  3  0  0  0  0  0  0
  161.5070  207.0030  151.7630 C   0  0  0  0  0  2  0  0  0  0  0  0
  161.3680  203.8030  149.8470 N   0  0  0  0  0  0  0  0  0  0  0  0
  160.4370  204.7720  148.0620 O   0  0  0  0  0  0  0  0  0  0  0  0
  161.9950  210.3760  148.8630 C   0  0  2  0  0  3  0  0  0  0  0  0
  161.1710  210.0940  152.6070 C   0  0  0  0  0  0  0  0  0  0  0  0
  162.1650  210.4440  150.3820 C   0  0  0  0  0  2  0  0  0  0  0  0
  160.2380  202.0240  148.2010 Cl  0  0  0  0  0  0  0  0  0  0  0  0
  161.6070  205.2300  150.0180 C   0  0  2  0  0  3  0  0  0  0  0  0
  160.8840  210.1320  151.1420 C   0  0  0  0  0  2  0  0  0  0  0  0
  160.8890  205.7120  151.2660 C   0  0  0  0  0  2  0  0  0  0  0  0
  161.1770  208.9640  155.8120 C   0  0  0  0  0  0  0  0  0  0  0  0
  161.7900  208.8190  154.6320 C   0  0  0  0  0  3  0  0  0  0  0  0
  159.7760  209.1930  155.9290 N   0  0  0  0  0  1  0  0  0  0  0  0
  161.9950  208.8910  157.0500 C   0  0  0  0  0  1  0  0  0  0  0  0
  161.0590  211.4640  148.3260 C   0  0  2  0  0  3  0  0  0  0  0  0
  160.4550  211.0460  147.1350 O   0  0  0  0  0  1  0  0  0  0  0  0
  161.8160  212.7700  148.0970 C   0  0  2  0  0  3  0  0  0  0  0  0
  163.1880  212.5590  148.2590 O   0  0  0  0  0  1  0  0  0  0  0  0
  161.3500  213.8340  149.0910 C   0  0  0  0  0  2  0  0  0  0  0  0
  159.9490  213.5640  149.6420 C   0  0  2  0  0  3  0  0  0  0  0  0
  158.9780  214.4530  149.0220 N   0  0  0  0  0  1  0  0  0  0  0  0
  159.9060  213.6920  151.1320 C   0  0  0  0  0  3  0  0  0  0  0  0
  158.7980  213.3980  151.8070 C   0  0  0  0  0  2  0  0  0  0  0  0
  2  9  1  0  0  0  0
  2 14  1  0  0  0  0
  4  7  1  1  0  0  0
  4  9  1  0  0  0  0
  4 10  1  0  0  0  0
  5  6  1  0  0  0  0
  6 22  1  0  0  0  0
  8 12  2  0  0  0  0
  9  1  2  0  0  0  0
 10 13  1  6  0  0  0
 10 18  1  0  0  0  0
 11  5  1  0  0  0  0
 12 18  1  0  0  0  0
 13  8  1  0  0  0  0
 14 25  1  1  0  0  0
 14 16  1  0  0  0  0
 15  3  2  0  0  0  0
 15  6  1  0  0  0  0
 16 19  1  0  0  0  0
 17  8  1  0  0  0  0
 18 20  1  1  0  0  0
 19 15  1  0  0  0  0
 20 11  1  0  0  0  0
 21 23  1  0  0  0  0
 21 24  1  0  0  0  0
 22 21  2  0  0  0  0
 25 26  1  6  0  0  0
 27 28  1  1  0  0  0
 27 25  1  0  0  0  0
 27 29  1  0  0  0  0
 29 30  1  0  0  0  0
 30 31  1  6  0  0  0
 30 32  1  0  0  0  0
 32 33  2  0  0  0  0
M  END
>  <MODEL>
2

>  <REMARK>
 VINA RESULT:      -4.9      3.413      8.325
  Name = 
  6 active torsions:
  status: ('A' for Active; 'I' for Inactive)
    1  A    between atoms: C_1  and  C_12
    2  A    between atoms: C_5  and  C_8
    3  A    between atoms: C_5  and  C_18
    4  A    between atoms: C_8  and  C_12
    5  A    between atoms: N_11  and  C_13
    6  A    between atoms: C_18  and  C_24
                            x       y       z     vdW  Elec       q    Type
                         _______ _______ _______ _____ _____    ______ ____

>  <TORSDO>
F 6

$$$$
=
 OpenBabel11072412263D

 33 34  0  0  1  0  0  0  0  0999 V2000
  163.5610  207.8150  149.3980 O   0  0  0  0  0  0  0  0  0  0  0  0
  161.6780  208.9530  148.6070 N   0  0  0  0  0  2  0  0  0  0  0  0
  161.4360  211.0310  153.4100 O   0  0  0  0  0  0  0  0  0  0  0  0
  162.0450  206.5130  148.0800 C   0  0  2  0  0  3  0  0  0  0  0  0
  160.4830  207.5520  152.8760 C   0  0  0  0  0  2  0  0  0  0  0  0
  161.1060  208.7130  153.5070 N   0  0  0  0  0  0  0  0  0  0  0  0
  163.1340  205.6780  147.8090 O   0  0  0  0  0  1  0  0  0  0  0  0
  160.6880  203.5350  148.8600 C   0  0  0  0  0  0  0  0  0  0  0  0
  162.4910  207.7830  148.7310 C   0  0  0  0  0  0  0  0  0  0  0  0
  160.9840  205.7920  148.9130 C   0  0  1  0  0  3  0  0  0  0  0  0
  161.4550  206.8760  151.9280 C   0  0  0  0  0  2  0  0  0  0  0  0
  161.3080  203.7000  149.9740 N   0  0  0  0  0  0  0  0  0  0  0  0
  160.4510  204.7070  148.1730 O   0  0  0  0  0  0  0  0  0  0  0  0
  162.1000  210.2680  149.0820 C   0  0  2  0  0  3  0  0  0  0  0  0
  161.1590  209.9640  152.7970 C   0  0  0  0  0  0  0  0  0  0  0  0
  162.2260  210.3170  150.6060 C   0  0  0  0  0  2  0  0  0  0  0  0
  160.1920  201.9630  148.2750 Cl  0  0  0  0  0  0  0  0  0  0  0  0
  161.5710  205.1190  150.1680 C   0  0  2  0  0  3  0  0  0  0  0  0
  160.9160  210.0240  151.3240 C   0  0  0  0  0  2  0  0  0  0  0  0
  160.8260  205.6030  151.3990 C   0  0  0  0  0  2  0  0  0  0  0  0
  161.0590  208.8760  155.9840 C   0  0  0  0  0  0  0  0  0  0  0  0
  161.6900  208.6550  154.8240 C   0  0  0  0  0  3  0  0  0  0  0  0
  159.6800  209.2240  156.0570 N   0  0  0  0  0  1  0  0  0  0  0  0
  161.8350  208.7580  157.2460 C   0  0  0  0  0  1  0  0  0  0  0  0
  161.2030  211.3810  148.5300 C   0  0  2  0  0  3  0  0  0  0  0  0
  160.6660  211.0070  147.2930 O   0  0  0  0  0  1  0  0  0  0  0  0
  161.9800  212.6880  148.3880 C   0  0  2  0  0  3  0  0  0  0  0  0
  161.1540  213.7700  148.7020 O   0  0  0  0  0  1  0  0  0  0  0  0
  162.4950  212.8460  146.9580 C   0  0  0  0  0  2  0  0  0  0  0  0
  161.9120  214.0650  146.2440 C   0  0  2  0  0  3  0  0  0  0  0  0
  160.5300  213.8200  145.8620 N   0  0  0  0  0  1  0  0  0  0  0  0
  162.7280  214.4530  145.0510 C   0  0  0  0  0  3  0  0  0  0  0  0
  163.1620  213.5310  144.1960 C   0  0  0  0  0  2  0  0  0  0  0  0
  2  9  1  0  0  0  0
  2 14  1  0  0  0  0
  4  7  1  1  0  0  0
  4  9  1  0  0  0  0
  4 10  1  0  0  0  0
  5  6  1  0  0  0  0
  6 22  1  0  0  0  0
  8 12  2  0  0  0  0
  9  1  2  0  0  0  0
 10 13  1  6  0  0  0
 10 18  1  0  0  0  0
 11  5  1  0  0  0  0
 12 18  1  0  0  0  0
 13  8  1  0  0  0  0
 14 25  1  1  0  0  0
 14 16  1  0  0  0  0
 15  3  2  0  0  0  0
 15  6  1  0  0  0  0
 16 19  1  0  0  0  0
 17  8  1  0  0  0  0
 18 20  1  1  0  0  0
 19 15  1  0  0  0  0
 20 11  1  0  0  0  0
 21 23  1  0  0  0  0
 21 24  1  0  0  0  0
 22 21  2  0  0  0  0
 25 26  1  6  0  0  0
 27 25  1  0  0  0  0
 27 28  1  6  0  0  0
 29 27  1  0  0  0  0
 30 31  1  6  0  0  0
 30 29  1  0  0  0  0
 32 30  1  0  0  0  0
 33 32  2  0  0  0  0
M  END
>  <MODEL>
3

>  <REMARK>
 VINA RESULT:      -4.7      3.360      8.377
  Name = 
  6 active torsions:
  status: ('A' for Active; 'I' for Inactive)
    1  A    between atoms: C_1  and  C_12
    2  A    between atoms: C_5  and  C_8
    3  A    between atoms: C_5  and  C_18
    4  A    between atoms: C_8  and  C_12
    5  A    between atoms: N_11  and  C_13
    6  A    between atoms: C_18  and  C_24
                            x       y       z     vdW  Elec       q    Type
                         _______ _______ _______ _____ _____    ______ ____

>  <TORSDO>
F 6

$$$$
=
 OpenBabel11072412263D

 33 34  0  0  1  0  0  0  0  0999 V2000
  158.4940  212.5540  149.5600 O   0  0  0  0  0  0  0  0  0  0  0  0
  160.6190  213.5260  149.5200 N   0  0  0  0  0  2  0  0  0  0  0  0
  162.3530  208.6910  148.4950 O   0  0  0  0  0  0  0  0  0  0  0  0
  158.9380  214.1370  151.3000 C   0  0  2  0  0  3  0  0  0  0  0  0
  161.2050  209.5450  151.8490 C   0  0  0  0  0  2  0  0  0  0  0  0
  161.3710  208.7700  150.6200 N   0  0  0  0  0  0  0  0  0  0  0  0
  157.5520  214.3050  151.3840 O   0  0  0  0  0  1  0  0  0  0  0  0
  158.5100  213.7180  154.6110 C   0  0  0  0  0  0  0  0  0  0  0  0
  159.3130  213.3600  150.0790 C   0  0  0  0  0  0  0  0  0  0  0  0
  159.4990  213.4980  152.5720 C   0  0  1  0  0  3  0  0  0  0  0  0
  159.9470  210.3890  151.7780 C   0  0  0  0  0  2  0  0  0  0  0  0
  158.1760  212.5230  154.2770 N   0  0  0  0  0  0  0  0  0  0  0  0
  159.2900  214.3630  153.6750 O   0  0  0  0  0  0  0  0  0  0  0  0
  161.0240  212.9250  148.2520 C   0  0  2  0  0  3  0  0  0  0  0  0
  161.9510  209.3950  149.4610 C   0  0  0  0  0  0  0  0  0  0  0  0
  161.0720  211.3980  148.3290 C   0  0  0  0  0  2  0  0  0  0  0  0
  158.0180  214.4530  156.1200 Cl  0  0  0  0  0  0  0  0  0  0  0  0
  158.7460  212.2150  152.9730 C   0  0  2  0  0  3  0  0  0  0  0  0
  162.0640  210.8820  149.3620 C   0  0  0  0  0  2  0  0  0  0  0  0
  159.7340  211.0700  153.1150 C   0  0  0  0  0  2  0  0  0  0  0  0
  161.5490  206.3420  151.1030 C   0  0  0  0  0  0  0  0  0  0  0  0
  160.9620  207.3920  150.5170 C   0  0  0  0  0  3  0  0  0  0  0  0
  162.7070  206.4650  151.9230 N   0  0  0  0  0  1  0  0  0  0  0  0
  160.9690  204.9910  150.8820 C   0  0  0  0  0  1  0  0  0  0  0  0
  162.3330  213.5300  147.7350 C   0  0  2  0  0  3  0  0  0  0  0  0
  162.8430  214.4530  148.6540 O   0  0  0  0  0  1  0  0  0  0  0  0
  162.1240  214.2030  146.3800 C   0  0  2  0  0  3  0  0  0  0  0  0
  160.7640  214.4520  146.1770 O   0  0  0  0  0  1  0  0  0  0  0  0
  162.6450  213.3060  145.2570 C   0  0  0  0  0  2  0  0  0  0  0  0
  161.6290  213.1060  144.1320 C   0  0  2  0  0  3  0  0  0  0  0  0
  160.5720  212.2000  144.5540 N   0  0  0  0  0  1  0  0  0  0  0  0
  162.2800  212.6110  142.8790 C   0  0  0  0  0  3  0  0  0  0  0  0
  161.9680  213.1350  141.6970 C   0  0  0  0  0  2  0  0  0  0  0  0
  1  9  2  0  0  0  0
  2  9  1  0  0  0  0
  3 15  2  0  0  0  0
  4  7  1  1  0  0  0
  4 10  1  0  0  0  0
  6  5  1  0  0  0  0
  8 17  1  0  0  0  0
  9  4  1  0  0  0  0
 10 18  1  0  0  0  0
 10 13  1  1  0  0  0
 11  5  1  0  0  0  0
 11 20  1  0  0  0  0
 12  8  2  0  0  0  0
 13  8  1  0  0  0  0
 14 25  1  1  0  0  0
 14 16  1  0  0  0  0
 14  2  1  0  0  0  0
 15  6  1  0  0  0  0
 16 19  1  0  0  0  0
 18 20  1  1  0  0  0
 18 12  1  0  0  0  0
 19 15  1  0  0  0  0
 21 23  1  0  0  0  0
 22  6  1  0  0  0  0
 22 21  2  0  0  0  0
 24 21  1  0  0  0  0
 25 26  1  1  0  0  0
 27 28  1  6  0  0  0
 27 25  1  0  0  0  0
 29 27  1  0  0  0  0
 30 31  1  1  0  0  0
 30 29  1  0  0  0  0
 32 30  1  0  0  0  0
 33 32  2  0  0  0  0
M  END
>  <MODEL>
4

>  <REMARK>
 VINA RESULT:      -4.4      3.033      6.978
  Name = 
  6 active torsions:
  status: ('A' for Active; 'I' for Inactive)
    1  A    between atoms: C_1  and  C_12
    2  A    between atoms: C_5  and  C_8
    3  A    between atoms: C_5  and  C_18
    4  A    between atoms: C_8  and  C_12
    5  A    between atoms: N_11  and  C_13
    6  A    between atoms: C_18  and  C_24
                            x       y       z     vdW  Elec       q    Type
                         _______ _______ _______ _____ _____    ______ ____

>  <TORSDO>
F 6

$$$$
=
 OpenBabel11072412263D

 33 34  0  0  1  0  0  0  0  0999 V2000
  162.8230  207.2440  152.8490 O   0  0  0  0  0  0  0  0  0  0  0  0
  160.8550  206.4100  151.9020 N   0  0  0  0  0  2  0  0  0  0  0  0
  162.4140  208.8570  147.5410 O   0  0  0  0  0  0  0  0  0  0  0  0
  160.8700  207.3970  154.2250 C   0  0  2  0  0  3  0  0  0  0  0  0
  161.1280  210.7860  150.3550 C   0  0  0  0  0  2  0  0  0  0  0  0
  162.0000  210.4120  149.2430 N   0  0  0  0  0  0  0  0  0  0  0  0
  161.7450  207.4340  155.3150 O   0  0  0  0  0  1  0  0  0  0  0  0
  159.6890  210.1180  155.8130 C   0  0  0  0  0  0  0  0  0  0  0  0
  161.5890  207.0160  152.9700 C   0  0  0  0  0  0  0  0  0  0  0  0
  160.1200  208.7210  154.0670 C   0  0  1  0  0  3  0  0  0  0  0  0
  161.6700  210.2400  151.6620 C   0  0  0  0  0  2  0  0  0  0  0  0
  160.6650  210.7140  155.2250 N   0  0  0  0  0  0  0  0  0  0  0  0
  159.3010  208.9450  155.2010 O   0  0  0  0  0  0  0  0  0  0  0  0
  161.4930  205.8730  150.7040 C   0  0  2  0  0  3  0  0  0  0  0  0
  161.8780  209.1030  148.6550 C   0  0  0  0  0  0  0  0  0  0  0  0
  162.1410  206.9700  149.8560 C   0  0  0  0  0  2  0  0  0  0  0  0
  158.9280  210.7450  157.2580 Cl  0  0  0  0  0  0  0  0  0  0  0  0
  161.0640  209.9390  154.0580 C   0  0  2  0  0  3  0  0  0  0  0  0
  161.1450  208.0080  149.3590 C   0  0  0  0  0  2  0  0  0  0  0  0
  160.8210  210.7600  152.8050 C   0  0  0  0  0  2  0  0  0  0  0  0
  162.7880  212.3140  147.8570 C   0  0  0  0  0  0  0  0  0  0  0  0
  162.9980  211.3060  148.7110 C   0  0  0  0  0  3  0  0  0  0  0  0
  161.4990  212.6280  147.3370 N   0  0  0  0  0  1  0  0  0  0  0  0
  163.9510  213.1340  147.4290 C   0  0  0  0  0  1  0  0  0  0  0  0
  160.5300  204.9970  149.8960 C   0  0  2  0  0  3  0  0  0  0  0  0
  159.8950  204.0700  150.7310 O   0  0  0  0  0  1  0  0  0  0  0  0
  161.2650  204.2710  148.7720 C   0  0  2  0  0  3  0  0  0  0  0  0
  161.4740  205.1410  147.6990 O   0  0  0  0  0  1  0  0  0  0  0  0
  160.4500  203.0700  148.2950 C   0  0  0  0  0  2  0  0  0  0  0  0
  161.2230  201.7530  148.3730 C   0  0  2  0  0  3  0  0  0  0  0  0
  161.0440  200.9830  147.1510 N   0  0  0  0  0  1  0  0  0  0  0  0
  160.8250  200.9460  149.5680 C   0  0  0  0  0  3  0  0  0  0  0  0
  161.2450  201.2810  150.7850 C   0  0  0  0  0  2  0  0  0  0  0  0
  1  9  2  0  0  0  0
  2  9  1  0  0  0  0
  3 15  2  0  0  0  0
  4  7  1  1  0  0  0
  5 11  1  0  0  0  0
  6  5  1  0  0  0  0
  8 17  1  0  0  0  0
  9  4  1  0  0  0  0
 10  4  1  0  0  0  0
 10 13  1  1  0  0  0
 11 20  1  0  0  0  0
 12  8  2  0  0  0  0
 13  8  1  0  0  0  0
 14 25  1  6  0  0  0
 14  2  1  0  0  0  0
 15  6  1  0  0  0  0
 15 19  1  0  0  0  0
 16 14  1  0  0  0  0
 18 20  1  6  0  0  0
 18 10  1  0  0  0  0
 18 12  1  0  0  0  0
 19 16  1  0  0  0  0
 21 22  2  0  0  0  0
 22  6  1  0  0  0  0
 23 21  1  0  0  0  0
 24 21  1  0  0  0  0
 25 26  1  1  0  0  0
 27 28  1  6  0  0  0
 27 25  1  0  0  0  0
 29 30  1  0  0  0  0
 29 27  1  0  0  0  0
 30 31  1  6  0  0  0
 30 32  1  0  0  0  0
 32 33  2  0  0  0  0
M  END
>  <MODEL>
5

>  <REMARK>
 VINA RESULT:      -3.0      1.748      2.300
  Name = 
  6 active torsions:
  status: ('A' for Active; 'I' for Inactive)
    1  A    between atoms: C_1  and  C_12
    2  A    between atoms: C_5  and  C_8
    3  A    between atoms: C_5  and  C_18
    4  A    between atoms: C_8  and  C_12
    5  A    between atoms: N_11  and  C_13
    6  A    between atoms: C_18  and  C_24
                            x       y       z     vdW  Elec       q    Type
                         _______ _______ _______ _____ _____    ______ ____

>  <TORSDO>
F 6

$$$$
=
 OpenBabel11072412263D

 33 34  0  0  1  0  0  0  0  0999 V2000
  159.6030  206.5490  150.1210 O   0  0  0  0  0  0  0  0  0  0  0  0
  161.4510  206.3330  151.5350 N   0  0  0  0  0  2  0  0  0  0  0  0
  161.1950  211.5470  151.9750 O   0  0  0  0  0  0  0  0  0  0  0  0
  161.3000  205.0330  149.3780 C   0  0  2  0  0  3  0  0  0  0  0  0
  162.4310  210.0340  148.8960 C   0  0  0  0  0  2  0  0  0  0  0  0
  161.6820  210.9390  149.7660 N   0  0  0  0  0  0  0  0  0  0  0  0
  160.2960  204.4130  148.6250 O   0  0  0  0  0  1  0  0  0  0  0  0
  162.8070  204.9550  146.3710 C   0  0  0  0  0  0  0  0  0  0  0  0
  160.7180  206.0080  150.3510 C   0  0  0  0  0  0  0  0  0  0  0  0
  162.3470  205.6890  148.4770 C   0  0  1  0  0  3  0  0  0  0  0  0
  161.5810  208.8370  148.5170 C   0  0  0  0  0  2  0  0  0  0  0  0
  162.0980  206.0030  146.1430 N   0  0  0  0  0  0  0  0  0  0  0  0
  163.0080  204.6980  147.7100 O   0  0  0  0  0  0  0  0  0  0  0  0
  160.9030  207.1570  152.6090 C   0  0  2  0  0  3  0  0  0  0  0  0
  161.5920  210.6570  151.1740 C   0  0  0  0  0  0  0  0  0  0  0  0
  160.6640  208.6010  152.1610 C   0  0  0  0  0  2  0  0  0  0  0  0
  163.4560  203.9530  145.0920 Cl  0  0  0  0  0  0  0  0  0  0  0  0
  161.7200  206.6100  147.4120 C   0  0  2  0  0  3  0  0  0  0  0  0
  161.9360  209.3060  151.7130 C   0  0  0  0  0  2  0  0  0  0  0  0
  162.3370  207.9930  147.5100 C   0  0  0  0  0  2  0  0  0  0  0  0
  161.5360  213.0490  148.4660 C   0  0  0  0  0  0  0  0  0  0  0  0
  161.0100  212.1110  149.2630 C   0  0  0  0  0  3  0  0  0  0  0  0
  162.8850  213.0060  148.0130 N   0  0  0  0  0  1  0  0  0  0  0  0
  160.6750  214.1850  148.0440 C   0  0  0  0  0  1  0  0  0  0  0  0
  161.7560  207.0680  153.8790 C   0  0  2  0  0  3  0  0  0  0  0  0
  162.4000  205.8280  153.9500 O   0  0  0  0  0  1  0  0  0  0  0  0
  160.9000  207.2850  155.1250 C   0  0  2  0  0  3  0  0  0  0  0  0
  159.7000  206.5800  155.0070 O   0  0  0  0  0  1  0  0  0  0  0  0
  160.5950  208.7720  155.3070 C   0  0  0  0  0  2  0  0  0  0  0  0
  161.8400  209.6040  155.6150 C   0  0  2  0  0  3  0  0  0  0  0  0
  162.3310  209.3120  156.9530 N   0  0  0  0  0  1  0  0  0  0  0  0
  161.5810  211.0690  155.4570 C   0  0  0  0  0  3  0  0  0  0  0  0
  160.3370  211.5360  155.3890 C   0  0  0  0  0  2  0  0  0  0  0  0
  1  9  2  0  0  0  0
  2 14  1  0  0  0  0
  4  7  1  6  0  0  0
  4  9  1  0  0  0  0
  5  6  1  0  0  0  0
  6 15  1  0  0  0  0
  8 13  1  0  0  0  0
  9  2  1  0  0  0  0
 10 13  1  6  0  0  0
 10  4  1  0  0  0  0
 11  5  1  0  0  0  0
 12  8  2  0  0  0  0
 12 18  1  0  0  0  0
 14 25  1  1  0  0  0
 15 19  1  0  0  0  0
 15  3  2  0  0  0  0
 16 14  1  0  0  0  0
 17  8  1  0  0  0  0
 18 20  1  6  0  0  0
 18 10  1  0  0  0  0
 19 16  1  0  0  0  0
 20 11  1  0  0  0  0
 21 22  2  0  0  0  0
 22  6  1  0  0  0  0
 23 21  1  0  0  0  0
 24 21  1  0  0  0  0
 25 26  1  1  0  0  0
 25 27  1  0  0  0  0
 27 28  1  6  0  0  0
 27 29  1  0  0  0  0
 29 30  1  0  0  0  0
 30 31  1  1  0  0  0
 32 30  1  0  0  0  0
 33 32  2  0  0  0  0
M  END
>  <MODEL>
6

>  <REMARK>
 VINA RESULT:      -2.8      3.666      7.232
  Name = 
  6 active torsions:
  status: ('A' for Active; 'I' for Inactive)
    1  A    between atoms: C_1  and  C_12
    2  A    between atoms: C_5  and  C_8
    3  A    between atoms: C_5  and  C_18
    4  A    between atoms: C_8  and  C_12
    5  A    between atoms: N_11  and  C_13
    6  A    between atoms: C_18  and  C_24
                            x       y       z     vdW  Elec       q    Type
                         _______ _______ _______ _____ _____    ______ ____

>  <TORSDO>
F 6

$$$$
=
 OpenBabel11072412263D

 33 34  0  0  1  0  0  0  0  0999 V2000
  159.5940  206.6690  148.7260 O   0  0  0  0  0  0  0  0  0  0  0  0
  161.4810  205.3470  148.3330 N   0  0  0  0  0  2  0  0  0  0  0  0
  160.7450  203.5830  153.2090 O   0  0  0  0  0  0  0  0  0  0  0  0
  161.4110  207.7670  147.6200 C   0  0  2  0  0  3  0  0  0  0  0  0
  162.0580  206.9400  152.6620 C   0  0  0  0  0  2  0  0  0  0  0  0
  161.2440  205.8710  153.2380 N   0  0  0  0  0  0  0  0  0  0  0  0
  160.4560  208.6590  147.1220 O   0  0  0  0  0  1  0  0  0  0  0  0
  162.8610  210.6840  148.4620 C   0  0  0  0  0  0  0  0  0  0  0  0
  160.7590  206.5790  148.2530 C   0  0  0  0  0  0  0  0  0  0  0  0
  162.3740  208.4630  148.5830 C   0  0  1  0  0  3  0  0  0  0  0  0
  161.3170  207.6190  151.5270 C   0  0  0  0  0  2  0  0  0  0  0  0
  162.0520  210.6390  149.4600 N   0  0  0  0  0  0  0  0  0  0  0  0
  163.1110  209.4550  147.8890 O   0  0  0  0  0  0  0  0  0  0  0  0
  160.8790  204.1010  148.7970 C   0  0  2  0  0  3  0  0  0  0  0  0
  161.2080  204.5830  152.5970 C   0  0  0  0  0  0  0  0  0  0  0  0
  160.4960  204.1630  150.2770 C   0  0  0  0  0  2  0  0  0  0  0  0
  163.5770  212.1740  147.8880 Cl  0  0  0  0  0  0  0  0  0  0  0  0
  161.6430  209.2590  149.6820 C   0  0  2  0  0  3  0  0  0  0  0  0
  161.6880  204.4080  151.1930 C   0  0  0  0  0  2  0  0  0  0  0  0
  162.1290  208.8050  151.0460 C   0  0  0  0  0  2  0  0  0  0  0  0
  160.5750  207.0580  155.3140 C   0  0  0  0  0  0  0  0  0  0  0  0
  160.4550  206.0590  154.4300 C   0  0  0  0  0  3  0  0  0  0  0  0
  161.5490  208.0890  155.1830 N   0  0  0  0  0  1  0  0  0  0  0  0
  159.6570  207.0840  156.4820 C   0  0  0  0  0  1  0  0  0  0  0  0
  161.7600  202.8920  148.4680 C   0  0  2  0  0  3  0  0  0  0  0  0
  162.7180  203.2320  147.5060 O   0  0  0  0  0  1  0  0  0  0  0  0
  160.9150  201.7210  147.9710 C   0  0  2  0  0  3  0  0  0  0  0  0
  161.2040  200.5750  148.7160 O   0  0  0  0  0  1  0  0  0  0  0  0
  161.2040  201.4480  146.4950 C   0  0  0  0  0  2  0  0  0  0  0  0
  160.2800  202.2200  145.5520 C   0  0  2  0  0  3  0  0  0  0  0  0
  159.7060  201.3280  144.5560 N   0  0  0  0  0  1  0  0  0  0  0  0
  160.9900  203.3600  144.8920 C   0  0  0  0  0  3  0  0  0  0  0  0
  160.4590  204.5800  144.8860 C   0  0  0  0  0  2  0  0  0  0  0  0
  2 14  1  0  0  0  0
  4  7  1  1  0  0  0
  4  9  1  0  0  0  0
  4 10  1  0  0  0  0
  5  6  1  0  0  0  0
  6 22  1  0  0  0  0
  8 12  2  0  0  0  0
  9  2  1  0  0  0  0
  9  1  2  0  0  0  0
 10 13  1  6  0  0  0
 10 18  1  0  0  0  0
 11  5  1  0  0  0  0
 12 18  1  0  0  0  0
 13  8  1  0  0  0  0
 14 25  1  1  0  0  0
 14 16  1  0  0  0  0
 15  3  2  0  0  0  0
 15  6  1  0  0  0  0
 16 19  1  0  0  0  0
 17  8  1  0  0  0  0
 18 20  1  1  0  0  0
 19 15  1  0  0  0  0
 20 11  1  0  0  0  0
 21 24  1  0  0  0  0
 22 21  2  0  0  0  0
 23 21  1  0  0  0  0
 25 26  1  6  0  0  0
 27 25  1  0  0  0  0
 27 28  1  1  0  0  0
 29 27  1  0  0  0  0
 30 31  1  6  0  0  0
 30 29  1  0  0  0  0
 32 30  1  0  0  0  0
 33 32  2  0  0  0  0
M  END
>  <MODEL>
7

>  <REMARK>
 VINA RESULT:      -2.7      3.803      6.802
  Name = 
  6 active torsions:
  status: ('A' for Active; 'I' for Inactive)
    1  A    between atoms: C_1  and  C_12
    2  A    between atoms: C_5  and  C_8
    3  A    between atoms: C_5  and  C_18
    4  A    between atoms: C_8  and  C_12
    5  A    between atoms: N_11  and  C_13
    6  A    between atoms: C_18  and  C_24
                            x       y       z     vdW  Elec       q    Type
                         _______ _______ _______ _____ _____    ______ ____

>  <TORSDO>
F 6

$$$$
=
 OpenBabel11072412263D

 33 34  0  0  1  0  0  0  0  0999 V2000
  159.7000  210.6400  150.8510 O   0  0  0  0  0  0  0  0  0  0  0  0
  161.8460  211.2940  150.1950 N   0  0  0  0  0  2  0  0  0  0  0  0
  161.8050  206.9720  147.2360 O   0  0  0  0  0  0  0  0  0  0  0  0
  161.1220  211.4290  152.6080 C   0  0  2  0  0  3  0  0  0  0  0  0
  162.1800  206.7040  150.8530 C   0  0  0  0  0  2  0  0  0  0  0  0
  161.6960  206.4060  149.5070 N   0  0  0  0  0  0  0  0  0  0  0  0
  159.9480  211.7250  153.3090 O   0  0  0  0  0  1  0  0  0  0  0  0
  161.8040  209.9100  155.5320 C   0  0  0  0  0  0  0  0  0  0  0  0
  160.8270  211.1000  151.1790 C   0  0  0  0  0  0  0  0  0  0  0  0
  161.9140  210.3140  153.2940 C   0  0  1  0  0  3  0  0  0  0  0  0
  161.2400  207.6650  151.5550 C   0  0  0  0  0  2  0  0  0  0  0  0
  161.0780  208.9630  155.0510 N   0  0  0  0  0  0  0  0  0  0  0  0
  162.3380  210.7460  154.5750 O   0  0  0  0  0  0  0  0  0  0  0  0
  161.6080  211.1420  148.7620 C   0  0  2  0  0  3  0  0  0  0  0  0
  161.9660  207.3280  148.4350 C   0  0  0  0  0  0  0  0  0  0  0  0
  161.2870  209.6940  148.3840 C   0  0  0  0  0  2  0  0  0  0  0  0
  162.0840  210.1100  157.2470 Cl  0  0  0  0  0  0  0  0  0  0  0  0
  161.0500  209.0750  153.5990 C   0  0  2  0  0  3  0  0  0  0  0  0
  162.4130  208.7260  148.7160 C   0  0  0  0  0  2  0  0  0  0  0  0
  161.6960  207.8430  152.9890 C   0  0  0  0  0  2  0  0  0  0  0  0
  160.9480  204.0710  149.8970 C   0  0  0  0  0  0  0  0  0  0  0  0
  160.9380  205.2170  149.2050 C   0  0  0  0  0  3  0  0  0  0  0  0
  161.7550  203.8770  151.0540 N   0  0  0  0  0  1  0  0  0  0  0  0
  160.0850  202.9550  149.4310 C   0  0  0  0  0  1  0  0  0  0  0  0
  162.7560  211.7260  147.9340 C   0  0  2  0  0  3  0  0  0  0  0  0
  163.8620  211.9900  148.7490 O   0  0  0  0  0  1  0  0  0  0  0  0
  162.3180  213.0030  147.2190 C   0  0  2  0  0  3  0  0  0  0  0  0
  162.0630  214.0090  148.1560 O   0  0  0  0  0  1  0  0  0  0  0  0
  161.0540  212.7440  146.4010 C   0  0  0  0  0  2  0  0  0  0  0  0
  161.0260  213.5200  145.0830 C   0  0  2  0  0  3  0  0  0  0  0  0
  160.3820  212.7330  144.0420 N   0  0  0  0  0  1  0  0  0  0  0  0
  162.3980  213.9370  144.6570 C   0  0  0  0  0  3  0  0  0  0  0  0
  163.0320  213.2930  143.6810 C   0  0  0  0  0  2  0  0  0  0  0  0
  1  9  2  0  0  0  0
  2  9  1  0  0  0  0
  3 15  2  0  0  0  0
  4 10  1  0  0  0  0
  4  7  1  1  0  0  0
  5 11  1  0  0  0  0
  6  5  1  0  0  0  0
  8 17  1  0  0  0  0
  9  4  1  0  0  0  0
 10 18  1  0  0  0  0
 10 13  1  1  0  0  0
 11 20  1  0  0  0  0
 12  8  2  0  0  0  0
 13  8  1  0  0  0  0
 14 25  1  6  0  0  0
 14  2  1  0  0  0  0
 15 19  1  0  0  0  0
 15  6  1  0  0  0  0
 16 19  1  0  0  0  0
 16 14  1  0  0  0  0
 18 20  1  6  0  0  0
 18 12  1  0  0  0  0
 21 23  1  0  0  0  0
 22  6  1  0  0  0  0
 22 21  2  0  0  0  0
 24 21  1  0  0  0  0
 25 26  1  1  0  0  0
 27 25  1  0  0  0  0
 27 28  1  1  0  0  0
 29 27  1  0  0  0  0
 30 31  1  6  0  0  0
 30 29  1  0  0  0  0
 32 30  1  0  0  0  0
 33 32  2  0  0  0  0
M  END
>  <MODEL>
8

>  <REMARK>
 VINA RESULT:      -2.5      2.545      6.857
  Name = 
  6 active torsions:
  status: ('A' for Active; 'I' for Inactive)
    1  A    between atoms: C_1  and  C_12
    2  A    between atoms: C_5  and  C_8
    3  A    between atoms: C_5  and  C_18
    4  A    between atoms: C_8  and  C_12
    5  A    between atoms: N_11  and  C_13
    6  A    between atoms: C_18  and  C_24
                            x       y       z     vdW  Elec       q    Type
                         _______ _______ _______ _____ _____    ______ ____

>  <TORSDO>
F 6

$$$$
