=
 OpenBabel11072413533D

 46 50  0  0  1  0  0  0  0  0999 V2000
  160.3740  209.7840  155.3260 O   0  0  0  0  0  0  0  0  0  0  0  0
  161.7230  208.3380  154.2140 F   0  0  0  0  0  0  0  0  0  0  0  0
  161.4540  209.6800  154.4110 C   0  0  0  0  0  0  0  0  0  0  0  0
  159.9200  211.2590  153.1830 C   0  0  0  0  0  0  0  0  0  0  0  0
  162.6010  210.2660  154.9310 F   0  0  0  0  0  0  0  0  0  0  0  0
  160.1930  211.1370  155.6720 C   0  0  0  0  0  2  0  0  0  0  0  0
  161.1160  210.3500  153.0530 C   0  0  2  0  0  3  0  0  0  0  0  0
  159.1170  211.3570  152.2640 O   0  0  0  0  0  0  0  0  0  0  0  0
  159.7030  211.9910  154.4890 C   0  0  2  0  0  3  0  0  0  0  0  0
  160.9330  209.3940  152.0430 O   0  0  0  0  0  0  0  0  0  0  0  0
  161.9930  209.5960  151.1550 C   0  0  0  0  0  2  0  0  0  0  0  0
  162.0370  207.4060  148.0170 C   0  0  0  0  0  2  0  0  0  0  0  0
  161.3100  207.2280  150.7820 C   0  0  0  0  0  2  0  0  0  0  0  0
  161.1510  206.3200  148.6040 C   0  0  0  0  0  2  0  0  0  0  0  0
  162.2170  208.3580  150.3130 C   0  0  1  0  0  3  0  0  0  0  0  0
  161.9130  208.6750  148.8560 C   0  0  0  0  0  2  0  0  0  0  0  0
  161.5460  206.0200  149.9810 N   0  0  2  0  0  0  0  0  0  0  0  0
  160.5370  204.9890  151.8550 O   0  0  0  0  0  0  0  0  0  0  0  0
  161.3070  203.6320  150.4320 C   0  0  1  0  0  3  0  0  0  0  0  0
  160.6310  204.9900  150.4510 C   0  0  2  0  0  3  0  0  0  0  0  0
  161.1240  203.7080  151.9210 C   0  0  0  0  0  2  0  0  0  0  0  0
  160.7870  201.5910  147.8080 C   0  0  0  0  0  0  0  0  0  0  0  0
  160.2770  202.6330  148.3810 N   0  0  0  0  0  0  0  0  0  0  0  0
  161.3290  200.6330  148.6980 N   0  0  0  0  0  0  0  0  0  0  0  0
  160.4470  202.5050  149.8320 C   0  0  1  0  0  3  0  0  0  0  0  0
  161.1810  201.1700  150.0380 C   0  0  0  0  0  3  0  0  0  0  0  0
  161.1080  202.6260  145.7040 O   0  0  0  0  0  1  0  0  0  0  0  0
  160.8220  201.4110  146.3290 C   0  0  0  0  0  2  0  0  0  0  0  0
  158.2780  212.5680  154.6590 C   0  0  2  0  0  3  0  0  0  0  0  0
  158.1320  213.8890  153.8810 C   0  0  0  0  0  2  0  0  0  0  0  0
  156.9120  213.9020  153.0120 C   0  0  0  0  0  0  0  0  0  0  0  0
  155.8530  213.4820  153.4420 O   0  0  0  0  0  0  0  0  0  0  0  0
  155.7730  214.0190  150.8360 C   0  0  0  0  0  2  0  0  0  0  0  0
  157.7620  213.4700  149.7510 C   0  0  2  0  0  3  0  0  0  0  0  0
  156.3210  213.8520  149.4780 C   0  0  0  0  0  2  0  0  0  0  0  0
  158.1580  214.0040  150.9850 O   0  0  0  0  0  0  0  0  0  0  0  0
  156.9860  214.4530  151.6290 C   0  0  2  0  0  3  0  0  0  0  0  0
  158.7030  213.9040  148.6610 C   0  0  0  0  0  0  0  0  0  0  0  0
  159.8090  214.3490  148.9200 O   0  0  0  0  0  0  0  0  0  0  0  0
  159.9040  213.2320  146.4280 C   0  0  0  0  0  1  0  0  0  0  0  0
  158.2150  213.6780  146.9580 S   0  0  0  0  0  0  0  0  0  0  0  0
  157.8570  212.7580  156.1190 C   0  0  0  0  0  2  0  0  0  0  0  0
  157.0430  210.2690  154.9720 O   0  0  0  0  0  0  0  0  0  0  0  0
  156.5760  212.1000  156.3530 N   0  0  0  0  0  2  0  0  0  0  0  0
  156.1990  210.9050  155.6690 C   0  0  0  0  0  0  0  0  0  0  0  0
  154.8080  210.3750  155.8060 C   0  0  0  0  0  1  0  0  0  0  0  0
  1  6  1  0  0  0  0
  2  3  1  0  0  0  0
  3  5  1  0  0  0  0
  3  1  1  0  0  0  0
  4  9  1  0  0  0  0
  7 10  1  6  0  0  0
  7  4  1  0  0  0  0
  7  3  1  0  0  0  0
  8  4  2  0  0  0  0
  9 29  1  1  0  0  0
  9  6  1  0  0  0  0
 11 10  1  0  0  0  0
 12 14  1  0  0  0  0
 12 16  1  0  0  0  0
 15 13  1  0  0  0  0
 15 11  1  1  0  0  0
 16 15  1  0  0  0  0
 17 14  1  6  0  0  0
 17 20  1  0  0  0  0
 17 13  1  0  0  0  0
 18 21  1  0  0  0  0
 19 20  1  0  0  0  0
 19 21  1  1  0  0  0
 20 18  1  1  0  0  0
 22 23  2  0  0  0  0
 22 24  1  0  0  0  0
 23 25  1  0  0  0  0
 24 26  2  0  0  0  0
 25 26  1  6  0  0  0
 25 19  1  0  0  0  0
 27 28  1  0  0  0  0
 28 22  1  0  0  0  0
 29 30  1  6  0  0  0
 29 42  1  0  0  0  0
 31 32  2  0  0  0  0
 31 30  1  0  0  0  0
 33 37  1  0  0  0  0
 34 38  1  6  0  0  0
 34 36  1  0  0  0  0
 35 34  1  0  0  0  0
 35 33  1  0  0  0  0
 36 37  1  0  0  0  0
 37 31  1  1  0  0  0
 38 39  2  0  0  0  0
 40 41  1  0  0  0  0
 41 38  1  0  0  0  0
 42 44  1  0  0  0  0
 43 45  2  0  0  0  0
 45 46  1  0  0  0  0
 45 44  1  0  0  0  0
M  END
>  <MODEL>
1

>  <REMARK>
 VINA RESULT:      -7.2      0.000      0.000
  Name = 
  14 active torsions:
  status: ('A' for Active; 'I' for Inactive)
    1  A    between atoms: C_2  and  C_7
    2  A    between atoms: C_2  and  C_31
    3  A    between atoms: C_7  and  C_42
    4  A    between atoms: C_8  and  C_9
    5  A    between atoms: C_9  and  S_16
    6  A    between atoms: C_12  and  C_28
    7  A    between atoms: N_24  and  C_39
    8  A    between atoms: C_27  and  C_33
    9  A    between atoms: O_29  and  C_30
   10  A    between atoms: O_29  and  C_35
   11  A    between atoms: C_30  and  C_36
   12  A    between atoms: C_34  and  N_44
   13  A    between atoms: C_39  and  C_42
   14  A    between atoms: C_42  and  C_43
                            x       y       z     vdW  Elec       q    Type
                         _______ _______ _______ _____ _____    ______ ____

>  <TORSDO>
F 14

$$$$
=
 OpenBabel11072413533D

 46 50  0  0  1  0  0  0  0  0999 V2000
  161.7770  204.4850  150.3070 O   0  0  0  0  0  0  0  0  0  0  0  0
  161.4900  203.5620  152.3600 F   0  0  0  0  0  0  0  0  0  0  0  0
  161.0110  204.5350  151.5010 C   0  0  0  0  0  0  0  0  0  0  0  0
  161.6470  206.9570  151.2250 C   0  0  0  0  0  0  0  0  0  0  0  0
  159.6760  204.2480  151.2440 F   0  0  0  0  0  0  0  0  0  0  0  0
  161.2020  205.3480  149.3560 C   0  0  0  0  0  2  0  0  0  0  0  0
  161.1070  205.9260  152.1820 C   0  0  2  0  0  3  0  0  0  0  0  0
  162.3840  207.8490  151.6300 O   0  0  0  0  0  0  0  0  0  0  0  0
  161.3140  206.8300  149.7550 C   0  0  2  0  0  3  0  0  0  0  0  0
  161.8630  205.8660  153.3620 O   0  0  0  0  0  0  0  0  0  0  0  0
  160.9690  206.1960  154.3840 C   0  0  0  0  0  2  0  0  0  0  0  0
  161.0130  209.2100  156.7400 C   0  0  0  0  0  2  0  0  0  0  0  0
  160.2240  208.5530  154.0660 C   0  0  0  0  0  2  0  0  0  0  0  0
  160.0830  210.0560  155.8870 C   0  0  0  0  0  2  0  0  0  0  0  0
  161.1730  207.6300  154.8200 C   0  0  1  0  0  3  0  0  0  0  0  0
  160.9090  207.7480  156.3140 C   0  0  0  0  0  2  0  0  0  0  0  0
  160.4410  209.9480  154.4710 N   0  0  2  0  0  0  0  0  0  0  0  0
  159.9230  211.0300  152.4330 O   0  0  0  0  0  0  0  0  0  0  0  0
  159.6350  212.2290  154.1470 C   0  0  1  0  0  3  0  0  0  0  0  0
  159.4860  210.7740  153.7470 C   0  0  2  0  0  3  0  0  0  0  0  0
  160.0500  212.4060  152.7140 C   0  0  0  0  0  2  0  0  0  0  0  0
  156.7220  212.1950  155.8310 C   0  0  0  0  0  0  0  0  0  0  0  0
  157.1900  212.0190  154.6370 N   0  0  0  0  0  0  0  0  0  0  0  0
  157.3660  213.2120  156.5740 N   0  0  0  0  0  0  0  0  0  0  0  0
  158.3030  212.9490  154.4240 C   0  0  1  0  0  3  0  0  0  0  0  0
  158.4350  213.7310  155.7400 C   0  0  0  0  0  3  0  0  0  0  0  0
  155.2600  210.3620  155.5100 O   0  0  0  0  0  1  0  0  0  0  0  0
  155.6060  211.3840  156.3950 C   0  0  0  0  0  2  0  0  0  0  0  0
  162.2150  207.6800  148.8280 C   0  0  2  0  0  3  0  0  0  0  0  0
  161.4420  208.8990  148.2890 C   0  0  0  0  0  2  0  0  0  0  0  0
  161.9000  210.1810  148.9150 C   0  0  0  0  0  0  0  0  0  0  0  0
  162.2920  210.1900  150.0670 O   0  0  0  0  0  0  0  0  0  0  0  0
  161.6400  212.6230  149.0270 C   0  0  0  0  0  2  0  0  0  0  0  0
  160.1510  212.5600  147.2360 C   0  0  2  0  0  3  0  0  0  0  0  0
  160.8610  213.5260  148.1620 C   0  0  0  0  0  2  0  0  0  0  0  0
  160.9090  211.3870  147.1170 O   0  0  0  0  0  0  0  0  0  0  0  0
  161.9000  211.4420  148.1190 C   0  0  2  0  0  3  0  0  0  0  0  0
  159.8660  213.1460  145.8800 C   0  0  0  0  0  0  0  0  0  0  0  0
  160.7150  213.1550  145.0050 O   0  0  0  0  0  0  0  0  0  0  0  0
  157.4260  212.5290  146.6200 C   0  0  0  0  0  1  0  0  0  0  0  0
  158.2250  213.7580  145.5310 S   0  0  0  0  0  0  0  0  0  0  0  0
  162.8370  206.8890  147.6740 C   0  0  0  0  0  2  0  0  0  0  0  0
  163.0260  204.8300  145.7000 O   0  0  0  0  0  0  0  0  0  0  0  0
  161.8120  206.5710  146.6860 N   0  0  0  0  0  2  0  0  0  0  0  0
  162.0160  205.5920  145.6670 C   0  0  0  0  0  0  0  0  0  0  0  0
  161.0110  205.4360  144.5710 C   0  0  0  0  0  1  0  0  0  0  0  0
  1  3  1  0  0  0  0
  3  7  1  0  0  0  0
  3  2  1  0  0  0  0
  4  8  2  0  0  0  0
  4  7  1  0  0  0  0
  5  3  1  0  0  0  0
  6  9  1  0  0  0  0
  6  1  1  0  0  0  0
  7 10  1  1  0  0  0
  9 29  1  6  0  0  0
  9  4  1  0  0  0  0
 10 11  1  0  0  0  0
 13 15  1  0  0  0  0
 14 12  1  0  0  0  0
 15 11  1  6  0  0  0
 15 16  1  0  0  0  0
 16 12  1  0  0  0  0
 17 13  1  6  0  0  0
 17 14  1  0  0  0  0
 18 21  1  0  0  0  0
 19 21  1  6  0  0  0
 19 25  1  0  0  0  0
 20 18  1  6  0  0  0
 20 19  1  0  0  0  0
 20 17  1  0  0  0  0
 22 28  1  0  0  0  0
 22 24  1  0  0  0  0
 23 22  2  0  0  0  0
 25 23  1  0  0  0  0
 25 26  1  1  0  0  0
 26 24  2  0  0  0  0
 27 28  1  0  0  0  0
 29 42  1  6  0  0  0
 30 29  1  0  0  0  0
 30 31  1  0  0  0  0
 31 32  2  0  0  0  0
 34 38  1  6  0  0  0
 34 35  1  0  0  0  0
 35 33  1  0  0  0  0
 36 34  1  0  0  0  0
 36 37  1  0  0  0  0
 37 31  1  1  0  0  0
 37 33  1  0  0  0  0
 39 38  2  0  0  0  0
 41 38  1  0  0  0  0
 41 40  1  0  0  0  0
 44 42  1  0  0  0  0
 45 43  2  0  0  0  0
 45 44  1  0  0  0  0
 46 45  1  0  0  0  0
M  END
>  <MODEL>
2

>  <REMARK>
 VINA RESULT:      -6.9      2.868      8.703
  Name = 
  14 active torsions:
  status: ('A' for Active; 'I' for Inactive)
    1  A    between atoms: C_2  and  C_7
    2  A    between atoms: C_2  and  C_31
    3  A    between atoms: C_7  and  C_42
    4  A    between atoms: C_8  and  C_9
    5  A    between atoms: C_9  and  S_16
    6  A    between atoms: C_12  and  C_28
    7  A    between atoms: N_24  and  C_39
    8  A    between atoms: C_27  and  C_33
    9  A    between atoms: O_29  and  C_30
   10  A    between atoms: O_29  and  C_35
   11  A    between atoms: C_30  and  C_36
   12  A    between atoms: C_34  and  N_44
   13  A    between atoms: C_39  and  C_42
   14  A    between atoms: C_42  and  C_43
                            x       y       z     vdW  Elec       q    Type
                         _______ _______ _______ _____ _____    ______ ____

>  <TORSDO>
F 14

$$$$
=
 OpenBabel11072413533D

 46 50  0  0  1  0  0  0  0  0999 V2000
  161.8760  209.2790  149.9420 O   0  0  0  0  0  0  0  0  0  0  0  0
  161.3850  211.2440  150.9660 F   0  0  0  0  0  0  0  0  0  0  0  0
  162.0830  210.0580  151.1100 C   0  0  0  0  0  0  0  0  0  0  0  0
  161.4020  207.8480  152.1090 C   0  0  0  0  0  0  0  0  0  0  0  0
  163.4270  210.3780  151.2590 F   0  0  0  0  0  0  0  0  0  0  0  0
  162.7080  208.1460  149.9920 C   0  0  0  0  0  2  0  0  0  0  0  0
  161.5960  209.3170  152.3830 C   0  0  2  0  0  3  0  0  0  0  0  0
  160.4890  207.2350  152.6500 O   0  0  0  0  0  0  0  0  0  0  0  0
  162.3130  207.1680  151.1120 C   0  0  2  0  0  3  0  0  0  0  0  0
  160.4340  209.9060  152.9040 O   0  0  0  0  0  0  0  0  0  0  0  0
  160.8840  210.7870  153.8910 C   0  0  0  0  0  2  0  0  0  0  0  0
  157.4500  212.1540  154.8790 C   0  0  0  0  0  2  0  0  0  0  0  0
  159.5130  212.6440  152.9530 C   0  0  0  0  0  2  0  0  0  0  0  0
  157.2630  212.9670  153.6080 C   0  0  0  0  0  2  0  0  0  0  0  0
  159.8240  211.8220  154.1960 C   0  0  1  0  0  3  0  0  0  0  0  0
  158.5560  211.1240  154.6680 C   0  0  0  0  0  2  0  0  0  0  0  0
  158.5010  213.6650  153.2560 N   0  0  2  0  0  0  0  0  0  0  0  0
  156.8460  214.3830  151.7270 O   0  0  0  0  0  0  0  0  0  0  0  0
  158.5550  213.5380  150.8190 C   0  0  1  0  0  3  0  0  0  0  0  0
  158.2220  214.3920  152.0260 C   0  0  2  0  0  3  0  0  0  0  0  0
  157.0770  213.6210  150.5620 C   0  0  0  0  0  2  0  0  0  0  0  0
  161.0620  213.3860  148.5790 C   0  0  0  0  0  0  0  0  0  0  0  0
  160.7670  213.9300  149.7160 N   0  0  0  0  0  0  0  0  0  0  0  0
  159.9800  213.2950  147.6700 N   0  0  0  0  0  0  0  0  0  0  0  0
  159.3430  214.2750  149.7200 C   0  0  1  0  0  3  0  0  0  0  0  0
  158.8110  213.8200  148.3510 C   0  0  0  0  0  3  0  0  0  0  0  0
  162.5660  212.7540  146.8650 O   0  0  0  0  0  1  0  0  0  0  0  0
  162.4220  212.8770  148.2480 C   0  0  0  0  0  2  0  0  0  0  0  0
  161.7950  205.7960  150.6160 C   0  0  2  0  0  3  0  0  0  0  0  0
  160.6470  205.9840  149.6070 C   0  0  0  0  0  2  0  0  0  0  0  0
  161.1220  205.9130  148.1890 C   0  0  0  0  0  0  0  0  0  0  0  0
  161.0470  206.8930  147.4710 O   0  0  0  0  0  0  0  0  0  0  0  0
  162.5370  204.9410  146.4290 C   0  0  0  0  0  2  0  0  0  0  0  0
  160.9370  203.2940  146.0330 C   0  0  2  0  0  3  0  0  0  0  0  0
  162.3220  203.7370  145.6070 C   0  0  0  0  0  2  0  0  0  0  0  0
  160.6920  203.7290  147.3420 O   0  0  0  0  0  0  0  0  0  0  0  0
  161.7120  204.6490  147.6620 C   0  0  2  0  0  3  0  0  0  0  0  0
  160.7340  201.8080  145.9210 C   0  0  0  0  0  0  0  0  0  0  0  0
  160.1640  201.3180  144.9600 O   0  0  0  0  0  0  0  0  0  0  0  0
  161.4100  199.2800  146.0930 C   0  0  0  0  0  1  0  0  0  0  0  0
  161.4190  200.7450  147.1820 S   0  0  0  0  0  0  0  0  0  0  0  0
  161.3680  204.8520  151.7430 C   0  0  0  0  0  2  0  0  0  0  0  0
  162.1380  202.0990  151.7190 O   0  0  0  0  0  0  0  0  0  0  0  0
  160.5730  203.7580  151.1940 N   0  0  0  0  0  2  0  0  0  0  0  0
  161.0640  202.4190  151.1300 C   0  0  0  0  0  0  0  0  0  0  0  0
  160.2880  201.3750  150.3940 C   0  0  0  0  0  1  0  0  0  0  0  0
  1  6  1  0  0  0  0
  1  3  1  0  0  0  0
  2  3  1  0  0  0  0
  3  5  1  0  0  0  0
  3  7  1  0  0  0  0
  4  7  1  0  0  0  0
  4  8  2  0  0  0  0
  6  9  1  0  0  0  0
  7 10  1  6  0  0  0
  9 29  1  6  0  0  0
  9  4  1  0  0  0  0
 10 11  1  0  0  0  0
 13 15  1  0  0  0  0
 14 12  1  0  0  0  0
 15 11  1  6  0  0  0
 15 16  1  0  0  0  0
 16 12  1  0  0  0  0
 17 13  1  6  0  0  0
 17 14  1  0  0  0  0
 19 21  1  6  0  0  0
 19 20  1  0  0  0  0
 20 18  1  6  0  0  0
 20 17  1  0  0  0  0
 21 18  1  0  0  0  0
 22 23  2  0  0  0  0
 23 25  1  0  0  0  0
 24 26  2  0  0  0  0
 24 22  1  0  0  0  0
 25 26  1  6  0  0  0
 25 19  1  0  0  0  0
 27 28  1  0  0  0  0
 28 22  1  0  0  0  0
 29 30  1  6  0  0  0
 29 42  1  0  0  0  0
 31 30  1  0  0  0  0
 32 31  2  0  0  0  0
 33 37  1  0  0  0  0
 34 38  1  1  0  0  0
 34 36  1  0  0  0  0
 35 34  1  0  0  0  0
 35 33  1  0  0  0  0
 36 37  1  0  0  0  0
 37 31  1  6  0  0  0
 38 41  1  0  0  0  0
 39 38  2  0  0  0  0
 40 41  1  0  0  0  0
 44 42  1  0  0  0  0
 45 44  1  0  0  0  0
 45 43  2  0  0  0  0
 46 45  1  0  0  0  0
M  END
>  <MODEL>
3

>  <REMARK>
 VINA RESULT:      -6.8      3.291      9.710
  Name = 
  14 active torsions:
  status: ('A' for Active; 'I' for Inactive)
    1  A    between atoms: C_2  and  C_7
    2  A    between atoms: C_2  and  C_31
    3  A    between atoms: C_7  and  C_42
    4  A    between atoms: C_8  and  C_9
    5  A    between atoms: C_9  and  S_16
    6  A    between atoms: C_12  and  C_28
    7  A    between atoms: N_24  and  C_39
    8  A    between atoms: C_27  and  C_33
    9  A    between atoms: O_29  and  C_30
   10  A    between atoms: O_29  and  C_35
   11  A    between atoms: C_30  and  C_36
   12  A    between atoms: C_34  and  N_44
   13  A    between atoms: C_39  and  C_42
   14  A    between atoms: C_42  and  C_43
                            x       y       z     vdW  Elec       q    Type
                         _______ _______ _______ _____ _____    ______ ____

>  <TORSDO>
F 14

$$$$
=
 OpenBabel11072413533D

 46 50  0  0  1  0  0  0  0  0999 V2000
  161.3910  207.9530  148.7800 O   0  0  0  0  0  0  0  0  0  0  0  0
  161.1100  210.0480  147.9550 F   0  0  0  0  0  0  0  0  0  0  0  0
  161.9790  209.2400  148.6660 C   0  0  0  0  0  0  0  0  0  0  0  0
  162.1970  208.8190  151.1400 C   0  0  0  0  0  0  0  0  0  0  0  0
  163.1710  209.1770  147.9540 F   0  0  0  0  0  0  0  0  0  0  0  0
  162.3260  207.0700  149.3510 C   0  0  0  0  0  2  0  0  0  0  0  0
  162.2540  209.8670  150.0580 C   0  0  2  0  0  3  0  0  0  0  0  0
  161.7440  209.0970  152.2450 O   0  0  0  0  0  0  0  0  0  0  0  0
  162.6500  207.4140  150.8150 C   0  0  2  0  0  3  0  0  0  0  0  0
  161.3800  210.9320  150.3210 O   0  0  0  0  0  0  0  0  0  0  0  0
  161.8900  212.0100  149.5920 C   0  0  0  0  0  2  0  0  0  0  0  0
  158.6910  213.9440  150.4060 C   0  0  0  0  0  2  0  0  0  0  0  0
  160.2490  213.1810  148.1270 C   0  0  0  0  0  2  0  0  0  0  0  0
  158.1860  213.9700  148.9730 C   0  0  0  0  0  2  0  0  0  0  0  0
  160.8700  213.1240  149.5160 C   0  0  1  0  0  3  0  0  0  0  0  0
  159.7760  212.8800  150.5460 C   0  0  0  0  0  2  0  0  0  0  0  0
  159.2770  214.2790  148.0470 N   0  0  2  0  0  0  0  0  0  0  0  0
  157.3940  213.7250  146.7290 O   0  0  0  0  0  0  0  0  0  0  0  0
  159.2360  213.0900  145.9150 C   0  0  1  0  0  3  0  0  0  0  0  0
  158.6950  214.2610  146.7130 C   0  0  2  0  0  3  0  0  0  0  0  0
  157.8080  212.6220  145.9530 C   0  0  0  0  0  2  0  0  0  0  0  0
  161.7840  213.4940  143.7550 C   0  0  0  0  0  0  0  0  0  0  0  0
  160.9200  214.1870  144.4230 N   0  0  0  0  0  0  0  0  0  0  0  0
  161.2940  212.2650  143.2530 N   0  0  0  0  0  0  0  0  0  0  0  0
  159.6570  213.4440  144.4770 C   0  0  1  0  0  3  0  0  0  0  0  0
  159.9230  212.1380  143.7120 C   0  0  0  0  0  3  0  0  0  0  0  0
  163.4060  214.2070  142.1860 O   0  0  0  0  0  1  0  0  0  0  0  0
  163.1900  213.9370  143.5390 C   0  0  0  0  0  2  0  0  0  0  0  0
  162.1930  206.3500  151.8420 C   0  0  2  0  0  3  0  0  0  0  0  0
  160.7910  205.8200  151.4850 C   0  0  0  0  0  2  0  0  0  0  0  0
  160.7990  204.3510  151.1940 C   0  0  0  0  0  0  0  0  0  0  0  0
  161.1370  203.5610  152.0570 O   0  0  0  0  0  0  0  0  0  0  0  0
  160.5100  202.3480  149.7980 C   0  0  0  0  0  2  0  0  0  0  0  0
  161.6280  203.3950  148.0420 C   0  0  2  0  0  3  0  0  0  0  0  0
  160.8940  202.1170  148.3950 C   0  0  0  0  0  2  0  0  0  0  0  0
  161.1480  204.4420  148.8400 O   0  0  0  0  0  0  0  0  0  0  0  0
  160.3680  203.8520  149.8570 C   0  0  2  0  0  3  0  0  0  0  0  0
  161.5230  203.7500  146.5840 C   0  0  0  0  0  0  0  0  0  0  0  0
  161.1840  202.9220  145.7540 O   0  0  0  0  0  0  0  0  0  0  0  0
  161.2660  205.1320  144.3700 C   0  0  0  0  0  1  0  0  0  0  0  0
  161.8210  205.4380  146.0820 S   0  0  0  0  0  0  0  0  0  0  0  0
  162.2280  206.8350  153.2940 C   0  0  0  0  0  2  0  0  0  0  0  0
  161.1990  208.2660  155.5450 O   0  0  0  0  0  0  0  0  0  0  0  0
  160.9330  206.5990  153.9240 N   0  0  0  0  0  2  0  0  0  0  0  0
  160.5260  207.2880  155.1060 C   0  0  0  0  0  0  0  0  0  0  0  0
  159.2750  206.8790  155.8140 C   0  0  0  0  0  1  0  0  0  0  0  0
  1  6  1  0  0  0  0
  2  3  1  0  0  0  0
  3  1  1  0  0  0  0
  3  7  1  0  0  0  0
  4  8  2  0  0  0  0
  5  3  1  0  0  0  0
  6  9  1  0  0  0  0
  7 10  1  1  0  0  0
  7  4  1  0  0  0  0
  9  4  1  0  0  0  0
  9 29  1  1  0  0  0
 11 10  1  0  0  0  0
 12 16  1  0  0  0  0
 13 15  1  0  0  0  0
 14 12  1  0  0  0  0
 15 11  1  6  0  0  0
 15 16  1  0  0  0  0
 17 13  1  6  0  0  0
 17 14  1  0  0  0  0
 19 21  1  6  0  0  0
 19 20  1  0  0  0  0
 20 18  1  1  0  0  0
 20 17  1  0  0  0  0
 21 18  1  0  0  0  0
 22 23  2  0  0  0  0
 23 25  1  0  0  0  0
 24 26  2  0  0  0  0
 24 22  1  0  0  0  0
 25 26  1  6  0  0  0
 25 19  1  0  0  0  0
 27 28  1  0  0  0  0
 28 22  1  0  0  0  0
 29 30  1  6  0  0  0
 29 42  1  0  0  0  0
 31 30  1  0  0  0  0
 31 32  2  0  0  0  0
 33 37  1  0  0  0  0
 34 38  1  6  0  0  0
 34 35  1  0  0  0  0
 34 36  1  0  0  0  0
 35 33  1  0  0  0  0
 36 37  1  0  0  0  0
 37 31  1  1  0  0  0
 39 38  2  0  0  0  0
 40 41  1  0  0  0  0
 41 38  1  0  0  0  0
 42 44  1  0  0  0  0
 44 45  1  0  0  0  0
 45 43  2  0  0  0  0
 45 46  1  0  0  0  0
M  END
>  <MODEL>
4

>  <REMARK>
 VINA RESULT:      -6.8      3.891      9.152
  Name = 
  14 active torsions:
  status: ('A' for Active; 'I' for Inactive)
    1  A    between atoms: C_2  and  C_7
    2  A    between atoms: C_2  and  C_31
    3  A    between atoms: C_7  and  C_42
    4  A    between atoms: C_8  and  C_9
    5  A    between atoms: C_9  and  S_16
    6  A    between atoms: C_12  and  C_28
    7  A    between atoms: N_24  and  C_39
    8  A    between atoms: C_27  and  C_33
    9  A    between atoms: O_29  and  C_30
   10  A    between atoms: O_29  and  C_35
   11  A    between atoms: C_30  and  C_36
   12  A    between atoms: C_34  and  N_44
   13  A    between atoms: C_39  and  C_42
   14  A    between atoms: C_42  and  C_43
                            x       y       z     vdW  Elec       q    Type
                         _______ _______ _______ _____ _____    ______ ____

>  <TORSDO>
F 14

$$$$
=
 OpenBabel11072413533D

 46 50  0  0  1  0  0  0  0  0999 V2000
  161.7800  206.6050  154.4530 O   0  0  0  0  0  0  0  0  0  0  0  0
  161.4060  208.1210  156.1000 F   0  0  0  0  0  0  0  0  0  0  0  0
  160.8440  207.5330  154.9800 C   0  0  0  0  0  0  0  0  0  0  0  0
  160.8930  208.2110  152.5540 C   0  0  0  0  0  0  0  0  0  0  0  0
  159.6820  206.8870  155.3840 F   0  0  0  0  0  0  0  0  0  0  0  0
  161.1690  205.8740  153.4180 C   0  0  0  0  0  2  0  0  0  0  0  0
  160.4800  208.6270  153.9430 C   0  0  2  0  0  3  0  0  0  0  0  0
  161.3090  209.0440  151.7580 O   0  0  0  0  0  0  0  0  0  0  0  0
  160.8420  206.7440  152.1900 C   0  0  2  0  0  3  0  0  0  0  0  0
  161.0280  209.8690  154.2960 O   0  0  0  0  0  0  0  0  0  0  0  0
  160.1660  210.3820  155.2700 C   0  0  0  0  0  2  0  0  0  0  0  0
  159.1580  213.9520  156.2070 C   0  0  0  0  0  2  0  0  0  0  0  0
  159.4180  212.3080  153.8760 C   0  0  0  0  0  2  0  0  0  0  0  0
  158.5330  214.2690  154.8580 C   0  0  0  0  0  2  0  0  0  0  0  0
  160.1010  211.8910  155.1720 C   0  0  1  0  0  3  0  0  0  0  0  0
  159.3160  212.4420  156.3540 C   0  0  0  0  0  2  0  0  0  0  0  0
  159.3760  213.7720  153.7700 N   0  0  2  0  0  0  0  0  0  0  0  0
  157.4530  213.4350  152.4370 O   0  0  0  0  0  0  0  0  0  0  0  0
  159.2730  213.3340  151.3710 C   0  0  1  0  0  3  0  0  0  0  0  0
  158.6850  214.1090  152.5340 C   0  0  2  0  0  3  0  0  0  0  0  0
  157.9110  212.7010  151.3220 C   0  0  0  0  0  2  0  0  0  0  0  0
  161.1210  213.7430  148.5890 C   0  0  0  0  0  0  0  0  0  0  0  0
  160.9490  214.2640  149.7610 N   0  0  0  0  0  0  0  0  0  0  0  0
  159.9380  213.2730  147.9710 N   0  0  0  0  0  0  0  0  0  0  0  0
  159.5270  214.1800  150.1100 C   0  0  1  0  0  3  0  0  0  0  0  0
  158.8560  213.4880  148.9140 C   0  0  0  0  0  3  0  0  0  0  0  0
  162.6880  212.3050  147.5510 O   0  0  0  0  0  1  0  0  0  0  0  0
  162.4570  213.6270  147.9390 C   0  0  0  0  0  2  0  0  0  0  0  0
  161.6400  206.3820  150.9150 C   0  0  2  0  0  3  0  0  0  0  0  0
  160.7950  206.6450  149.6540 C   0  0  0  0  0  2  0  0  0  0  0  0
  161.5890  207.3050  148.5690 C   0  0  0  0  0  0  0  0  0  0  0  0
  162.1190  208.3830  148.7710 O   0  0  0  0  0  0  0  0  0  0  0  0
  160.5620  206.9340  146.3660 C   0  0  0  0  0  2  0  0  0  0  0  0
  160.9400  204.6420  146.5620 C   0  0  2  0  0  3  0  0  0  0  0  0
  160.4070  205.6850  145.6000 C   0  0  0  0  0  2  0  0  0  0  0  0
  161.8720  205.2370  147.4230 O   0  0  0  0  0  0  0  0  0  0  0  0
  161.7530  206.6320  147.2490 C   0  0  2  0  0  3  0  0  0  0  0  0
  161.5440  203.4530  145.8670 C   0  0  0  0  0  0  0  0  0  0  0  0
  162.4820  203.5820  145.0960 O   0  0  0  0  0  0  0  0  0  0  0  0
  159.7110  201.8540  144.8880 C   0  0  0  0  0  1  0  0  0  0  0  0
  160.9270  201.8220  146.2490 S   0  0  0  0  0  0  0  0  0  0  0  0
  162.1780  204.9490  150.9070 C   0  0  0  0  0  2  0  0  0  0  0  0
  161.7200  202.2250  151.6450 O   0  0  0  0  0  0  0  0  0  0  0  0
  161.2040  204.0590  150.2860 N   0  0  0  0  0  2  0  0  0  0  0  0
  161.0970  202.6800  150.6420 C   0  0  0  0  0  0  0  0  0  0  0  0
  160.2130  201.7720  149.8490 C   0  0  0  0  0  1  0  0  0  0  0  0
  1  3  1  0  0  0  0
  3  5  1  0  0  0  0
  3  2  1  0  0  0  0
  4  7  1  0  0  0  0
  6  1  1  0  0  0  0
  7 10  1  1  0  0  0
  7  3  1  0  0  0  0
  8  4  2  0  0  0  0
  9 29  1  6  0  0  0
  9  4  1  0  0  0  0
  9  6  1  0  0  0  0
 10 11  1  0  0  0  0
 12 16  1  0  0  0  0
 13 15  1  0  0  0  0
 14 12  1  0  0  0  0
 15 11  1  1  0  0  0
 15 16  1  0  0  0  0
 17 13  1  1  0  0  0
 17 14  1  0  0  0  0
 19 21  1  6  0  0  0
 19 20  1  0  0  0  0
 20 18  1  1  0  0  0
 20 17  1  0  0  0  0
 21 18  1  0  0  0  0
 22 23  2  0  0  0  0
 23 25  1  0  0  0  0
 24 22  1  0  0  0  0
 24 26  2  0  0  0  0
 25 26  1  6  0  0  0
 25 19  1  0  0  0  0
 27 28  1  0  0  0  0
 28 22  1  0  0  0  0
 29 30  1  6  0  0  0
 31 32  2  0  0  0  0
 31 30  1  0  0  0  0
 33 37  1  0  0  0  0
 34 38  1  6  0  0  0
 34 36  1  0  0  0  0
 35 33  1  0  0  0  0
 35 34  1  0  0  0  0
 37 36  1  0  0  0  0
 37 31  1  1  0  0  0
 38 41  1  0  0  0  0
 39 38  2  0  0  0  0
 40 41  1  0  0  0  0
 42 29  1  0  0  0  0
 44 45  1  0  0  0  0
 44 42  1  0  0  0  0
 45 43  2  0  0  0  0
 46 45  1  0  0  0  0
M  END
>  <MODEL>
5

>  <REMARK>
 VINA RESULT:      -6.5      3.197      9.233
  Name = 
  14 active torsions:
  status: ('A' for Active; 'I' for Inactive)
    1  A    between atoms: C_2  and  C_7
    2  A    between atoms: C_2  and  C_31
    3  A    between atoms: C_7  and  C_42
    4  A    between atoms: C_8  and  C_9
    5  A    between atoms: C_9  and  S_16
    6  A    between atoms: C_12  and  C_28
    7  A    between atoms: N_24  and  C_39
    8  A    between atoms: C_27  and  C_33
    9  A    between atoms: O_29  and  C_30
   10  A    between atoms: O_29  and  C_35
   11  A    between atoms: C_30  and  C_36
   12  A    between atoms: C_34  and  N_44
   13  A    between atoms: C_39  and  C_42
   14  A    between atoms: C_42  and  C_43
                            x       y       z     vdW  Elec       q    Type
                         _______ _______ _______ _____ _____    ______ ____

>  <TORSDO>
F 14

$$$$
=
 OpenBabel11072413533D

 46 50  0  0  1  0  0  0  0  0999 V2000
  161.4900  206.7510  154.6940 O   0  0  0  0  0  0  0  0  0  0  0  0
  161.2430  208.3190  156.3160 F   0  0  0  0  0  0  0  0  0  0  0  0
  160.7020  207.8470  155.1340 C   0  0  0  0  0  0  0  0  0  0  0  0
  161.1430  208.4900  152.7380 C   0  0  0  0  0  0  0  0  0  0  0  0
  159.3990  207.4430  155.4010 F   0  0  0  0  0  0  0  0  0  0  0  0
  160.8630  206.1490  153.5880 C   0  0  0  0  0  2  0  0  0  0  0  0
  160.6710  208.9860  154.0810 C   0  0  2  0  0  3  0  0  0  0  0  0
  161.7960  209.2220  152.0040 O   0  0  0  0  0  0  0  0  0  0  0  0
  160.8460  207.0590  152.3470 C   0  0  2  0  0  3  0  0  0  0  0  0
  161.4090  210.0990  154.5110 O   0  0  0  0  0  0  0  0  0  0  0  0
  160.7920  211.1990  153.9090 C   0  0  0  0  0  2  0  0  0  0  0  0
  158.4280  211.7700  156.8630 C   0  0  0  0  0  2  0  0  0  0  0  0
  158.9150  212.8050  154.2370 C   0  0  0  0  0  2  0  0  0  0  0  0
  157.4420  212.6200  156.0790 C   0  0  0  0  0  2  0  0  0  0  0  0
  159.9870  211.9730  154.9290 C   0  0  1  0  0  3  0  0  0  0  0  0
  159.3230  211.0020  155.8950 C   0  0  0  0  0  2  0  0  0  0  0  0
  158.1500  213.5760  155.2260 N   0  0  2  0  0  0  0  0  0  0  0  0
  155.8600  214.1560  155.1100 O   0  0  0  0  0  0  0  0  0  0  0  0
  156.7000  213.5720  153.2630 C   0  0  1  0  0  3  0  0  0  0  0  0
  157.1240  214.3210  154.5110 C   0  0  2  0  0  3  0  0  0  0  0  0
  155.3760  213.4840  153.9680 C   0  0  0  0  0  2  0  0  0  0  0  0
  156.6140  213.6640  149.9000 C   0  0  0  0  0  0  0  0  0  0  0  0
  157.3980  213.9490  150.8890 N   0  0  0  0  0  0  0  0  0  0  0  0
  155.2430  213.9260  150.1390 N   0  0  0  0  0  0  0  0  0  0  0  0
  156.5910  214.4520  152.0040 C   0  0  1  0  0  3  0  0  0  0  0  0
  155.1380  214.4090  151.5040 C   0  0  0  0  0  3  0  0  0  0  0  0
  156.9000  214.0000  147.5750 O   0  0  0  0  0  1  0  0  0  0  0  0
  157.1000  213.0890  148.6140 C   0  0  0  0  0  2  0  0  0  0  0  0
  161.6920  206.5420  151.1580 C   0  0  2  0  0  3  0  0  0  0  0  0
  160.8690  206.5690  149.8560 C   0  0  0  0  0  2  0  0  0  0  0  0
  161.5630  207.3220  148.7640 C   0  0  0  0  0  0  0  0  0  0  0  0
  161.9180  208.4720  148.9470 O   0  0  0  0  0  0  0  0  0  0  0  0
  160.8240  207.0890  146.4310 C   0  0  0  0  0  2  0  0  0  0  0  0
  160.9460  204.7690  146.6100 C   0  0  2  0  0  3  0  0  0  0  0  0
  160.6570  205.8740  145.6140 C   0  0  0  0  0  2  0  0  0  0  0  0
  161.8020  205.2540  147.6070 O   0  0  0  0  0  0  0  0  0  0  0  0
  161.8440  206.6560  147.4600 C   0  0  2  0  0  3  0  0  0  0  0  0
  161.5230  203.5360  145.9700 C   0  0  0  0  0  0  0  0  0  0  0  0
  162.7280  203.3440  145.9430 O   0  0  0  0  0  0  0  0  0  0  0  0
  161.0170  201.0100  146.4620 C   0  0  0  0  0  1  0  0  0  0  0  0
  160.4120  202.2990  145.3180 S   0  0  0  0  0  0  0  0  0  0  0  0
  162.2900  205.1510  151.3830 C   0  0  0  0  0  2  0  0  0  0  0  0
  160.8080  202.8920  152.3170 O   0  0  0  0  0  0  0  0  0  0  0  0
  161.6110  204.1780  150.5340 N   0  0  0  0  0  2  0  0  0  0  0  0
  160.9700  203.0190  151.0680 C   0  0  0  0  0  0  0  0  0  0  0  0
  160.4510  201.9630  150.1460 C   0  0  0  0  0  1  0  0  0  0  0  0
  1  3  1  0  0  0  0
  3  5  1  0  0  0  0
  3  2  1  0  0  0  0
  4  7  1  0  0  0  0
  6  1  1  0  0  0  0
  7 10  1  1  0  0  0
  7  3  1  0  0  0  0
  8  4  2  0  0  0  0
  9 29  1  6  0  0  0
  9  4  1  0  0  0  0
  9  6  1  0  0  0  0
 11 10  1  0  0  0  0
 13 15  1  0  0  0  0
 14 12  1  0  0  0  0
 15 11  1  6  0  0  0
 15 16  1  0  0  0  0
 16 12  1  0  0  0  0
 17 13  1  6  0  0  0
 17 14  1  0  0  0  0
 19 21  1  1  0  0  0
 19 20  1  0  0  0  0
 20 18  1  1  0  0  0
 20 17  1  0  0  0  0
 21 18  1  0  0  0  0
 22 24  1  0  0  0  0
 22 23  2  0  0  0  0
 23 25  1  0  0  0  0
 24 26  2  0  0  0  0
 25 26  1  6  0  0  0
 25 19  1  0  0  0  0
 27 28  1  0  0  0  0
 28 22  1  0  0  0  0
 29 30  1  6  0  0  0
 29 42  1  0  0  0  0
 31 32  2  0  0  0  0
 31 30  1  0  0  0  0
 33 37  1  0  0  0  0
 34 38  1  6  0  0  0
 34 36  1  0  0  0  0
 35 33  1  0  0  0  0
 35 34  1  0  0  0  0
 37 36  1  0  0  0  0
 37 31  1  1  0  0  0
 39 38  2  0  0  0  0
 41 38  1  0  0  0  0
 41 40  1  0  0  0  0
 44 45  1  0  0  0  0
 44 42  1  0  0  0  0
 45 43  2  0  0  0  0
 46 45  1  0  0  0  0
M  END
>  <MODEL>
6

>  <REMARK>
 VINA RESULT:      -6.4      2.808      9.540
  Name = 
  14 active torsions:
  status: ('A' for Active; 'I' for Inactive)
    1  A    between atoms: C_2  and  C_7
    2  A    between atoms: C_2  and  C_31
    3  A    between atoms: C_7  and  C_42
    4  A    between atoms: C_8  and  C_9
    5  A    between atoms: C_9  and  S_16
    6  A    between atoms: C_12  and  C_28
    7  A    between atoms: N_24  and  C_39
    8  A    between atoms: C_27  and  C_33
    9  A    between atoms: O_29  and  C_30
   10  A    between atoms: O_29  and  C_35
   11  A    between atoms: C_30  and  C_36
   12  A    between atoms: C_34  and  N_44
   13  A    between atoms: C_39  and  C_42
   14  A    between atoms: C_42  and  C_43
                            x       y       z     vdW  Elec       q    Type
                         _______ _______ _______ _____ _____    ______ ____

>  <TORSDO>
F 14

$$$$
=
 OpenBabel11072413533D

 46 50  0  0  1  0  0  0  0  0999 V2000
  160.7320  206.3080  148.6250 O   0  0  0  0  0  0  0  0  0  0  0  0
  160.8470  207.8650  146.9790 F   0  0  0  0  0  0  0  0  0  0  0  0
  161.5550  207.2940  148.0210 C   0  0  0  0  0  0  0  0  0  0  0  0
  161.7270  207.9340  150.4520 C   0  0  0  0  0  0  0  0  0  0  0  0
  162.7000  206.7190  147.4840 F   0  0  0  0  0  0  0  0  0  0  0  0
  161.4880  205.5980  149.5760 C   0  0  0  0  0  2  0  0  0  0  0  0
  161.9680  208.3920  149.0350 C   0  0  2  0  0  3  0  0  0  0  0  0
  161.3540  208.7320  151.3030 O   0  0  0  0  0  0  0  0  0  0  0  0
  161.8950  206.4670  150.7790 C   0  0  2  0  0  3  0  0  0  0  0  0
  161.3190  209.6060  148.7660 O   0  0  0  0  0  0  0  0  0  0  0  0
  162.3470  210.5160  148.5020 C   0  0  0  0  0  2  0  0  0  0  0  0
  160.4550  213.4600  150.0490 C   0  0  0  0  0  2  0  0  0  0  0  0
  160.9500  212.3060  147.4740 C   0  0  0  0  0  2  0  0  0  0  0  0
  159.6400  213.7610  148.8020 C   0  0  0  0  0  2  0  0  0  0  0  0
  161.8440  211.9350  148.6500 C   0  0  1  0  0  3  0  0  0  0  0  0
  161.0520  212.0600  149.9440 C   0  0  0  0  0  2  0  0  0  0  0  0
  160.4820  213.6920  147.6060 N   0  0  2  0  0  0  0  0  0  0  0  0
  158.2520  213.8720  146.8400 O   0  0  0  0  0  0  0  0  0  0  0  0
  159.5200  212.7710  145.5610 C   0  0  1  0  0  3  0  0  0  0  0  0
  159.6080  213.9750  146.4770 C   0  0  2  0  0  3  0  0  0  0  0  0
  158.0770  212.7690  145.9790 C   0  0  0  0  0  2  0  0  0  0  0  0
  161.6030  213.5320  143.0300 C   0  0  0  0  0  0  0  0  0  0  0  0
  160.7140  214.0800  143.7930 N   0  0  0  0  0  0  0  0  0  0  0  0
  161.3170  212.1970  142.6550 N   0  0  0  0  0  0  0  0  0  0  0  0
  159.6550  213.1030  144.0640 C   0  0  1  0  0  3  0  0  0  0  0  0
  160.0800  211.8280  143.3180 C   0  0  0  0  0  3  0  0  0  0  0  0
  163.8310  214.1210  143.5700 O   0  0  0  0  0  1  0  0  0  0  0  0
  162.8420  214.2320  142.5900 C   0  0  0  0  0  2  0  0  0  0  0  0
  161.2580  206.0440  152.1240 C   0  0  2  0  0  3  0  0  0  0  0  0
  161.9760  206.7270  153.3030 C   0  0  0  0  0  2  0  0  0  0  0  0
  161.0140  207.3160  154.2880 C   0  0  0  0  0  0  0  0  0  0  0  0
  160.0830  206.6490  154.7030 O   0  0  0  0  0  0  0  0  0  0  0  0
  161.5610  208.6910  156.2510 C   0  0  0  0  0  2  0  0  0  0  0  0
  159.7310  210.0660  155.8150 C   0  0  2  0  0  3  0  0  0  0  0  0
  160.9120  209.9150  156.7520 C   0  0  0  0  0  2  0  0  0  0  0  0
  160.0330  209.4660  154.5850 O   0  0  0  0  0  0  0  0  0  0  0  0
  161.2080  208.7100  154.7810 C   0  0  2  0  0  3  0  0  0  0  0  0
  159.3150  211.4980  155.6170 C   0  0  0  0  0  0  0  0  0  0  0  0
  160.0240  212.2840  155.0100 O   0  0  0  0  0  0  0  0  0  0  0  0
  157.0560  212.2600  154.5240 C   0  0  0  0  0  1  0  0  0  0  0  0
  157.7150  212.0230  156.2110 S   0  0  0  0  0  0  0  0  0  0  0  0
  161.2070  204.5290  152.3350 C   0  0  0  0  0  2  0  0  0  0  0  0
  161.6250  201.8550  151.4120 O   0  0  0  0  0  0  0  0  0  0  0  0
  160.5020  203.9000  151.2240 N   0  0  0  0  0  2  0  0  0  0  0  0
  160.8310  202.5920  150.7560 C   0  0  0  0  0  0  0  0  0  0  0  0
  160.2080  202.0690  149.5020 C   0  0  0  0  0  1  0  0  0  0  0  0
  1  6  1  0  0  0  0
  2  3  1  0  0  0  0
  3  1  1  0  0  0  0
  3  7  1  0  0  0  0
  4  9  1  0  0  0  0
  4  8  2  0  0  0  0
  5  3  1  0  0  0  0
  6  9  1  0  0  0  0
  7 10  1  6  0  0  0
  7  4  1  0  0  0  0
  9 29  1  1  0  0  0
 11 10  1  0  0  0  0
 13 15  1  0  0  0  0
 14 12  1  0  0  0  0
 15 11  1  6  0  0  0
 15 16  1  0  0  0  0
 16 12  1  0  0  0  0
 17 13  1  6  0  0  0
 17 14  1  0  0  0  0
 19 21  1  6  0  0  0
 19 20  1  0  0  0  0
 20 18  1  1  0  0  0
 20 17  1  0  0  0  0
 21 18  1  0  0  0  0
 22 23  2  0  0  0  0
 23 25  1  0  0  0  0
 24 22  1  0  0  0  0
 24 26  2  0  0  0  0
 25 26  1  6  0  0  0
 25 19  1  0  0  0  0
 28 22  1  0  0  0  0
 28 27  1  0  0  0  0
 29 42  1  1  0  0  0
 29 30  1  0  0  0  0
 30 31  1  0  0  0  0
 31 32  2  0  0  0  0
 33 35  1  0  0  0  0
 34 38  1  6  0  0  0
 34 35  1  0  0  0  0
 36 37  1  0  0  0  0
 36 34  1  0  0  0  0
 37 31  1  1  0  0  0
 37 33  1  0  0  0  0
 38 41  1  0  0  0  0
 39 38  2  0  0  0  0
 40 41  1  0  0  0  0
 44 42  1  0  0  0  0
 45 44  1  0  0  0  0
 45 43  2  0  0  0  0
 46 45  1  0  0  0  0
M  END
>  <MODEL>
7

>  <REMARK>
 VINA RESULT:      -6.2      3.878      8.868
  Name = 
  14 active torsions:
  status: ('A' for Active; 'I' for Inactive)
    1  A    between atoms: C_2  and  C_7
    2  A    between atoms: C_2  and  C_31
    3  A    between atoms: C_7  and  C_42
    4  A    between atoms: C_8  and  C_9
    5  A    between atoms: C_9  and  S_16
    6  A    between atoms: C_12  and  C_28
    7  A    between atoms: N_24  and  C_39
    8  A    between atoms: C_27  and  C_33
    9  A    between atoms: O_29  and  C_30
   10  A    between atoms: O_29  and  C_35
   11  A    between atoms: C_30  and  C_36
   12  A    between atoms: C_34  and  N_44
   13  A    between atoms: C_39  and  C_42
   14  A    between atoms: C_42  and  C_43
                            x       y       z     vdW  Elec       q    Type
                         _______ _______ _______ _____ _____    ______ ____

>  <TORSDO>
F 14

$$$$
=
 OpenBabel11072413533D

 46 50  0  0  1  0  0  0  0  0999 V2000
  161.5870  209.3770  149.9580 O   0  0  0  0  0  0  0  0  0  0  0  0
  161.2030  211.0800  151.4080 F   0  0  0  0  0  0  0  0  0  0  0  0
  161.9090  209.9030  151.2370 C   0  0  0  0  0  0  0  0  0  0  0  0
  161.3250  207.5230  151.8190 C   0  0  0  0  0  0  0  0  0  0  0  0
  163.2620  210.2100  151.3180 F   0  0  0  0  0  0  0  0  0  0  0  0
  162.4190  208.2730  149.6930 C   0  0  0  0  0  2  0  0  0  0  0  0
  161.5480  208.9080  152.3700 C   0  0  2  0  0  3  0  0  0  0  0  0
  160.4680  206.7950  152.3060 O   0  0  0  0  0  0  0  0  0  0  0  0
  162.1330  207.0790  150.6200 C   0  0  2  0  0  3  0  0  0  0  0  0
  160.4440  209.3550  153.1110 O   0  0  0  0  0  0  0  0  0  0  0  0
  160.8170  209.2010  154.4490 C   0  0  0  0  0  2  0  0  0  0  0  0
  159.3170  211.3820  157.2120 C   0  0  0  0  0  2  0  0  0  0  0  0
  159.7060  211.4310  154.3740 C   0  0  0  0  0  2  0  0  0  0  0  0
  158.5810  212.3100  156.2600 C   0  0  0  0  0  2  0  0  0  0  0  0
  160.5130  210.4610  155.2280 C   0  0  1  0  0  3  0  0  0  0  0  0
  159.7150  210.1060  156.4750 C   0  0  0  0  0  2  0  0  0  0  0  0
  159.4330  212.6640  155.1230 N   0  0  2  0  0  0  0  0  0  0  0  0
  157.2560  213.3410  154.4930 O   0  0  0  0  0  0  0  0  0  0  0  0
  158.5520  212.9680  152.8670 C   0  0  1  0  0  3  0  0  0  0  0  0
  158.6330  213.5330  154.2720 C   0  0  2  0  0  3  0  0  0  0  0  0
  157.0890  212.8410  153.1840 C   0  0  0  0  0  2  0  0  0  0  0  0
  159.8090  213.5680  149.8040 C   0  0  0  0  0  0  0  0  0  0  0  0
  160.0540  213.8120  151.0510 N   0  0  0  0  0  0  0  0  0  0  0  0
  158.4360  213.5770  149.4590 N   0  0  0  0  0  0  0  0  0  0  0  0
  158.7810  214.0060  151.7530 C   0  0  1  0  0  3  0  0  0  0  0  0
  157.6950  213.8200  150.6820 C   0  0  0  0  0  3  0  0  0  0  0  0
  160.3090  212.9890  147.5650 O   0  0  0  0  0  1  0  0  0  0  0  0
  160.8770  213.2820  148.8060 C   0  0  0  0  0  2  0  0  0  0  0  0
  161.5660  205.8300  149.9040 C   0  0  2  0  0  3  0  0  0  0  0  0
  161.8140  204.5640  150.7460 C   0  0  0  0  0  2  0  0  0  0  0  0
  160.5690  203.7500  150.9230 C   0  0  0  0  0  0  0  0  0  0  0  0
  159.7240  204.0960  151.7290 O   0  0  0  0  0  0  0  0  0  0  0  0
  161.1850  201.3880  150.6330 C   0  0  0  0  0  2  0  0  0  0  0  0
  161.5710  201.7540  148.3640 C   0  0  2  0  0  3  0  0  0  0  0  0
  161.5530  200.6560  149.4080 C   0  0  0  0  0  2  0  0  0  0  0  0
  160.6990  202.7800  148.7520 O   0  0  0  0  0  0  0  0  0  0  0  0
  160.3510  202.5290  150.0960 C   0  0  2  0  0  3  0  0  0  0  0  0
  161.2280  201.2610  146.9840 C   0  0  0  0  0  0  0  0  0  0  0  0
  161.1620  200.0680  146.7380 O   0  0  0  0  0  0  0  0  0  0  0  0
  159.6910  201.3080  144.8600 C   0  0  0  0  0  1  0  0  0  0  0  0
  160.8280  202.4520  145.7160 S   0  0  0  0  0  0  0  0  0  0  0  0
  162.0970  205.6380  148.4810 C   0  0  0  0  0  2  0  0  0  0  0  0
  162.3830  205.7470  145.6380 O   0  0  0  0  0  0  0  0  0  0  0  0
  161.0000  205.7510  147.5260 N   0  0  0  0  0  2  0  0  0  0  0  0
  161.2240  205.8980  146.1240 C   0  0  0  0  0  0  0  0  0  0  0  0
  160.0770  206.1950  145.2120 C   0  0  0  0  0  1  0  0  0  0  0  0
  1  3  1  0  0  0  0
  3  5  1  0  0  0  0
  3  2  1  0  0  0  0
  3  7  1  0  0  0  0
  4  8  2  0  0  0  0
  4  7  1  0  0  0  0
  6  1  1  0  0  0  0
  6  9  1  0  0  0  0
  7 10  1  6  0  0  0
  9 29  1  6  0  0  0
  9  4  1  0  0  0  0
 10 11  1  0  0  0  0
 13 15  1  0  0  0  0
 14 12  1  0  0  0  0
 15 11  1  6  0  0  0
 15 16  1  0  0  0  0
 16 12  1  0  0  0  0
 17 13  1  6  0  0  0
 17 14  1  0  0  0  0
 19 21  1  6  0  0  0
 19 20  1  0  0  0  0
 20 18  1  1  0  0  0
 20 17  1  0  0  0  0
 21 18  1  0  0  0  0
 22 23  2  0  0  0  0
 23 25  1  0  0  0  0
 24 22  1  0  0  0  0
 24 26  2  0  0  0  0
 25 26  1  6  0  0  0
 25 19  1  0  0  0  0
 27 28  1  0  0  0  0
 28 22  1  0  0  0  0
 29 42  1  6  0  0  0
 29 30  1  0  0  0  0
 30 31  1  0  0  0  0
 31 32  2  0  0  0  0
 34 38  1  6  0  0  0
 34 36  1  0  0  0  0
 34 35  1  0  0  0  0
 35 33  1  0  0  0  0
 36 37  1  0  0  0  0
 37 33  1  0  0  0  0
 37 31  1  1  0  0  0
 39 38  2  0  0  0  0
 40 41  1  0  0  0  0
 41 38  1  0  0  0  0
 43 45  2  0  0  0  0
 44 42  1  0  0  0  0
 45 44  1  0  0  0  0
 46 45  1  0  0  0  0
M  END
>  <MODEL>
8

>  <REMARK>
 VINA RESULT:      -6.2      2.878     10.058
  Name = 
  14 active torsions:
  status: ('A' for Active; 'I' for Inactive)
    1  A    between atoms: C_2  and  C_7
    2  A    between atoms: C_2  and  C_31
    3  A    between atoms: C_7  and  C_42
    4  A    between atoms: C_8  and  C_9
    5  A    between atoms: C_9  and  S_16
    6  A    between atoms: C_12  and  C_28
    7  A    between atoms: N_24  and  C_39
    8  A    between atoms: C_27  and  C_33
    9  A    between atoms: O_29  and  C_30
   10  A    between atoms: O_29  and  C_35
   11  A    between atoms: C_30  and  C_36
   12  A    between atoms: C_34  and  N_44
   13  A    between atoms: C_39  and  C_42
   14  A    between atoms: C_42  and  C_43
                            x       y       z     vdW  Elec       q    Type
                         _______ _______ _______ _____ _____    ______ ____

>  <TORSDO>
F 14

$$$$
=
 OpenBabel11072413533D

 46 50  0  0  1  0  0  0  0  0999 V2000
  161.9980  207.1880  155.0500 O   0  0  0  0  0  0  0  0  0  0  0  0
  161.5620  208.8360  156.5470 F   0  0  0  0  0  0  0  0  0  0  0  0
  160.9770  207.9910  155.6210 C   0  0  0  0  0  0  0  0  0  0  0  0
  160.5190  208.2940  153.1620 C   0  0  0  0  0  0  0  0  0  0  0  0
  160.0500  207.2060  156.2960 F   0  0  0  0  0  0  0  0  0  0  0  0
  161.4080  206.2080  154.2300 C   0  0  0  0  0  2  0  0  0  0  0  0
  160.2390  208.8290  154.5440 C   0  0  2  0  0  3  0  0  0  0  0  0
  160.6260  209.0620  152.2130 O   0  0  0  0  0  0  0  0  0  0  0  0
  160.7250  206.8060  152.9870 C   0  0  2  0  0  3  0  0  0  0  0  0
  160.5580  210.1900  154.6480 O   0  0  0  0  0  0  0  0  0  0  0  0
  160.1880  210.7450  153.4200 C   0  0  0  0  0  2  0  0  0  0  0  0
  157.4000  213.0890  154.5930 C   0  0  0  0  0  2  0  0  0  0  0  0
  159.0540  212.6590  152.2940 C   0  0  0  0  0  2  0  0  0  0  0  0
  157.1140  213.6530  153.2110 C   0  0  0  0  0  2  0  0  0  0  0  0
  159.4520  212.0500  153.6330 C   0  0  1  0  0  3  0  0  0  0  0  0
  158.2000  211.7970  154.4620 C   0  0  0  0  0  2  0  0  0  0  0  0
  158.3620  213.9380  152.5010 N   0  0  2  0  0  0  0  0  0  0  0  0
  156.5970  214.2970  150.9690 O   0  0  0  0  0  0  0  0  0  0  0  0
  158.3320  213.4540  150.1090 C   0  0  1  0  0  3  0  0  0  0  0  0
  157.9780  214.4510  151.1950 C   0  0  2  0  0  3  0  0  0  0  0  0
  156.8430  213.3900  149.9170 C   0  0  0  0  0  2  0  0  0  0  0  0
  160.9300  213.3220  147.9750 C   0  0  0  0  0  0  0  0  0  0  0  0
  160.4780  214.0310  148.9580 N   0  0  0  0  0  0  0  0  0  0  0  0
  159.9350  212.8180  147.1040 N   0  0  0  0  0  0  0  0  0  0  0  0
  159.0150  214.0750  148.8770 C   0  0  1  0  0  3  0  0  0  0  0  0
  158.6530  213.2330  147.6430 C   0  0  0  0  0  3  0  0  0  0  0  0
  162.6780  213.0030  146.4110 O   0  0  0  0  0  1  0  0  0  0  0  0
  162.3790  213.0380  147.7750 C   0  0  0  0  0  2  0  0  0  0  0  0
  161.3830  206.4140  151.6420 C   0  0  2  0  0  3  0  0  0  0  0  0
  161.9760  204.9950  151.7220 C   0  0  0  0  0  2  0  0  0  0  0  0
  160.9430  203.9360  151.4840 C   0  0  0  0  0  0  0  0  0  0  0  0
  160.4700  203.3250  152.4240 O   0  0  0  0  0  0  0  0  0  0  0  0
  160.3560  202.1540  149.8970 C   0  0  0  0  0  2  0  0  0  0  0  0
  161.6940  203.1460  148.2670 C   0  0  2  0  0  3  0  0  0  0  0  0
  160.7390  201.9900  148.4830 C   0  0  0  0  0  2  0  0  0  0  0  0
  161.3780  204.1820  149.1560 O   0  0  0  0  0  0  0  0  0  0  0  0
  160.4750  203.6470  150.0980 C   0  0  2  0  0  3  0  0  0  0  0  0
  161.6990  203.6480  146.8490 C   0  0  0  0  0  0  0  0  0  0  0  0
  161.0950  203.0580  145.9680 O   0  0  0  0  0  0  0  0  0  0  0  0
  160.9750  206.0720  146.1560 C   0  0  0  0  0  1  0  0  0  0  0  0
  162.5360  205.1810  146.4780 S   0  0  0  0  0  0  0  0  0  0  0  0
  162.4410  207.4090  151.1570 C   0  0  0  0  0  2  0  0  0  0  0  0
  162.3280  210.0890  150.1680 O   0  0  0  0  0  0  0  0  0  0  0  0
  162.1640  207.7880  149.7750 N   0  0  0  0  0  2  0  0  0  0  0  0
  162.0280  209.1510  149.3730 C   0  0  0  0  0  0  0  0  0  0  0  0
  161.5640  209.4780  147.9900 C   0  0  0  0  0  1  0  0  0  0  0  0
  1  3  1  0  0  0  0
  3  5  1  0  0  0  0
  3  2  1  0  0  0  0
  4  7  1  0  0  0  0
  6  1  1  0  0  0  0
  7 10  1  6  0  0  0
  7  3  1  0  0  0  0
  8  4  2  0  0  0  0
  9 29  1  6  0  0  0
  9  4  1  0  0  0  0
  9  6  1  0  0  0  0
 11 10  1  0  0  0  0
 13 15  1  0  0  0  0
 14 12  1  0  0  0  0
 15 11  1  6  0  0  0
 15 16  1  0  0  0  0
 16 12  1  0  0  0  0
 17 13  1  6  0  0  0
 17 14  1  0  0  0  0
 19 21  1  6  0  0  0
 19 20  1  0  0  0  0
 20 18  1  1  0  0  0
 20 17  1  0  0  0  0
 21 18  1  0  0  0  0
 22 23  2  0  0  0  0
 24 26  2  0  0  0  0
 24 22  1  0  0  0  0
 25 26  1  6  0  0  0
 25 23  1  0  0  0  0
 25 19  1  0  0  0  0
 27 28  1  0  0  0  0
 28 22  1  0  0  0  0
 29 42  1  1  0  0  0
 29 30  1  0  0  0  0
 31 30  1  0  0  0  0
 31 32  2  0  0  0  0
 33 37  1  0  0  0  0
 34 38  1  6  0  0  0
 34 35  1  0  0  0  0
 34 36  1  0  0  0  0
 35 33  1  0  0  0  0
 36 37  1  0  0  0  0
 37 31  1  1  0  0  0
 39 38  2  0  0  0  0
 40 41  1  0  0  0  0
 41 38  1  0  0  0  0
 44 42  1  0  0  0  0
 45 44  1  0  0  0  0
 45 43  2  0  0  0  0
 46 45  1  0  0  0  0
M  END
>  <MODEL>
9

>  <REMARK>
 VINA RESULT:      -6.0      2.857      9.093
  Name = 
  14 active torsions:
  status: ('A' for Active; 'I' for Inactive)
    1  A    between atoms: C_2  and  C_7
    2  A    between atoms: C_2  and  C_31
    3  A    between atoms: C_7  and  C_42
    4  A    between atoms: C_8  and  C_9
    5  A    between atoms: C_9  and  S_16
    6  A    between atoms: C_12  and  C_28
    7  A    between atoms: N_24  and  C_39
    8  A    between atoms: C_27  and  C_33
    9  A    between atoms: O_29  and  C_30
   10  A    between atoms: O_29  and  C_35
   11  A    between atoms: C_30  and  C_36
   12  A    between atoms: C_34  and  N_44
   13  A    between atoms: C_39  and  C_42
   14  A    between atoms: C_42  and  C_43
                            x       y       z     vdW  Elec       q    Type
                         _______ _______ _______ _____ _____    ______ ____

>  <TORSDO>
F 14

$$$$
