=
 OpenBabel11072414393D

 26 31  0  0  1  0  0  0  0  0999 V2000
  161.3090  202.8350  146.3490 C   0  0  2  0  0  3  0  0  0  0  0  0
  161.2010  206.2120  145.7320 C   0  0  0  0  0  3  0  0  0  0  0  0
  161.2990  200.7720  150.2060 C   0  0  0  0  0  2  0  0  0  0  0  0
  161.7510  205.0670  148.8460 C   0  0  0  0  0  0  0  0  0  0  0  0
  160.3770  201.9740  146.0460 N   0  0  0  0  0  2  0  0  0  0  0  0
  160.5630  204.2840  144.5780 C   0  0  0  0  0  0  0  0  0  0  0  0
  161.1740  202.8850  148.8290 C   0  0  0  0  0  0  0  0  0  0  0  0
  160.5050  201.5970  149.1910 C   0  0  0  0  0  2  0  0  0  0  0  0
  160.6620  202.4520  152.0130 C   0  0  0  0  0  2  0  0  0  0  0  0
  159.6330  203.4290  144.2560 N   0  0  0  0  0  0  0  0  0  0  0  0
  159.7830  202.0210  144.6900 C   0  0  0  0  0  2  0  0  0  0  0  0
  161.6080  203.2140  147.6020 N   0  0  0  0  0  0  0  0  0  0  0  0
  161.2980  204.0090  149.6430 C   0  0  0  0  0  0  0  0  0  0  0  0
  160.8880  204.0940  151.3540 S   0  0  0  0  0  0  0  0  0  0  0  0
  162.0110  204.7640  152.0990 O   0  0  0  0  0  0  0  0  0  0  0  0
  161.5640  203.9100  145.5250 C   0  0  1  0  0  3  0  0  0  0  0  0
  160.3350  205.6850  144.6620 N   0  0  0  0  0  0  0  0  0  0  0  0
  161.9230  205.0020  146.2760 C   0  0  2  0  0  3  0  0  0  0  0  0
  161.7460  201.5350  151.4590 C   0  0  0  0  0  2  0  0  0  0  0  0
  159.6210  204.8860  151.5290 O   0  0  0  0  0  0  0  0  0  0  0  0
  161.9380  204.5040  147.5850 C   0  0  0  0  0  0  0  0  0  0  0  0
  163.1290  207.0990  148.4920 C   0  0  0  0  0  2  0  0  0  0  0  0
  162.0490  206.4560  149.3380 C   0  0  1  0  0  3  0  0  0  0  0  0
  162.7230  208.3960  148.1460 O   0  0  0  0  0  0  0  0  0  0  0  0
  161.3200  208.3720  148.1700 C   0  0  0  0  0  2  0  0  0  0  0  0
  160.8810  207.3910  149.2350 C   0  0  0  0  0  2  0  0  0  0  0  0
  1  5  1  1  0  0  0
  1 12  1  0  0  0  0
  3 19  1  0  0  0  0
  4 13  1  0  0  0  0
  6 17  1  0  0  0  0
  7  8  1  0  0  0  0
  7 13  2  0  0  0  0
  8  3  1  0  0  0  0
 10  6  2  0  0  0  0
 10 11  1  0  0  0  0
 11  5  1  0  0  0  0
 12  7  1  0  0  0  0
 13 14  1  0  0  0  0
 14 20  2  0  0  0  0
 14  9  1  0  0  0  0
 14 15  2  0  0  0  0
 16  6  1  1  0  0  0
 16 18  1  0  0  0  0
 16  1  1  0  0  0  0
 17  2  2  0  0  0  0
 18  2  1  1  0  0  0
 18 21  1  0  0  0  0
 19  9  1  0  0  0  0
 21 12  1  0  0  0  0
 21  4  2  0  0  0  0
 22 23  1  0  0  0  0
 23  4  1  6  0  0  0
 24 25  1  0  0  0  0
 24 22  1  0  0  0  0
 25 26  1  0  0  0  0
 26 23  1  0  0  0  0
M  END
>  <MODEL>
1

>  <REMARK>
 VINA RESULT:      -5.6      0.000      0.000
  Name = 
  1 active torsions:
  status: ('A' for Active; 'I' for Inactive)
    1  A    between atoms: C_4  and  C_14
                            x       y       z     vdW  Elec       q    Type
                         _______ _______ _______ _____ _____    ______ ____

>  <TORSDO>
F 1

$$$$
=
 OpenBabel11072414393D

 26 31  0  0  1  0  0  0  0  0999 V2000
  161.6990  208.6840  151.7810 C   0  0  2  0  0  3  0  0  0  0  0  0
  161.9420  209.2580  148.4040 C   0  0  0  0  0  3  0  0  0  0  0  0
  159.8800  211.2170  154.8480 C   0  0  0  0  0  2  0  0  0  0  0  0
  160.9770  211.7180  150.4840 C   0  0  0  0  0  0  0  0  0  0  0  0
  160.9980  207.7390  152.3460 N   0  0  0  0  0  2  0  0  0  0  0  0
  161.8770  207.3680  149.7740 C   0  0  0  0  0  0  0  0  0  0  0  0
  160.4370  210.7210  152.4360 C   0  0  0  0  0  0  0  0  0  0  0  0
  159.6560  210.3030  153.6410 C   0  0  0  0  0  2  0  0  0  0  0  0
  158.5090  213.0240  153.6870 C   0  0  0  0  0  2  0  0  0  0  0  0
  161.1870  206.4110  150.3290 N   0  0  0  0  0  0  0  0  0  0  0  0
  161.0970  206.3640  151.8060 C   0  0  0  0  0  2  0  0  0  0  0  0
  161.3940  209.9890  151.8410 N   0  0  0  0  0  0  0  0  0  0  0  0
  160.1910  211.8350  151.6360 C   0  0  0  0  0  0  0  0  0  0  0  0
  159.0400  213.1210  151.9870 S   0  0  0  0  0  0  0  0  0  0  0  0
  159.7040  214.4530  151.7630 O   0  0  0  0  0  0  0  0  0  0  0  0
  162.3230  208.4650  150.5720 C   0  0  1  0  0  3  0  0  0  0  0  0
  161.6590  207.8130  148.4410 N   0  0  0  0  0  0  0  0  0  0  0  0
  162.3130  209.6160  149.8240 C   0  0  2  0  0  3  0  0  0  0  0  0
  159.7120  212.7160  154.5710 C   0  0  0  0  0  2  0  0  0  0  0  0
  157.8480  212.9920  151.0780 O   0  0  0  0  0  0  0  0  0  0  0  0
  161.7160  210.5520  150.6770 C   0  0  0  0  0  0  0  0  0  0  0  0
  162.3270  212.5770  148.5890 C   0  0  0  0  0  2  0  0  0  0  0  0
  161.0380  212.7260  149.3710 C   0  0  1  0  0  3  0  0  0  0  0  0
  162.0290  212.5790  147.2180 O   0  0  0  0  0  0  0  0  0  0  0  0
  160.7100  212.1110  147.1170 C   0  0  0  0  0  2  0  0  0  0  0  0
  159.9530  212.5550  148.3490 C   0  0  0  0  0  2  0  0  0  0  0  0
  1 12  1  0  0  0  0
  1  5  1  6  0  0  0
  2 17  2  0  0  0  0
  4 21  2  0  0  0  0
  4 13  1  0  0  0  0
  6 10  2  0  0  0  0
  7  8  1  0  0  0  0
  8  3  1  0  0  0  0
  9 19  1  0  0  0  0
 10 11  1  0  0  0  0
 11  5  1  0  0  0  0
 12  7  1  0  0  0  0
 13 14  1  0  0  0  0
 13  7  2  0  0  0  0
 14  9  1  0  0  0  0
 15 14  2  0  0  0  0
 16  6  1  6  0  0  0
 16  1  1  0  0  0  0
 17  6  1  0  0  0  0
 18  2  1  6  0  0  0
 18 16  1  0  0  0  0
 18 21  1  0  0  0  0
 19  3  1  0  0  0  0
 20 14  2  0  0  0  0
 21 12  1  0  0  0  0
 22 23  1  0  0  0  0
 23  4  1  1  0  0  0
 24 22  1  0  0  0  0
 25 24  1  0  0  0  0
 25 26  1  0  0  0  0
 26 23  1  0  0  0  0
M  END
>  <MODEL>
2

>  <REMARK>
 VINA RESULT:      -5.1      5.304      7.811
  Name = 
  1 active torsions:
  status: ('A' for Active; 'I' for Inactive)
    1  A    between atoms: C_4  and  C_14
                            x       y       z     vdW  Elec       q    Type
                         _______ _______ _______ _____ _____    ______ ____

>  <TORSDO>
F 1

$$$$
=
 OpenBabel11072414393D

 26 31  0  0  1  0  0  0  0  0999 V2000
  160.6480  205.6540  151.2350 C   0  0  2  0  0  3  0  0  0  0  0  0
  161.9160  208.4070  149.6200 C   0  0  0  0  0  3  0  0  0  0  0  0
  160.0430  201.6160  149.6640 C   0  0  0  0  0  2  0  0  0  0  0  0
  161.0880  205.6470  147.8860 C   0  0  0  0  0  0  0  0  0  0  0  0
  161.2100  205.0290  152.2330 N   0  0  0  0  0  2  0  0  0  0  0  0
  161.8040  207.6770  151.8360 C   0  0  0  0  0  0  0  0  0  0  0  0
  160.8630  203.9910  149.4020 C   0  0  0  0  0  0  0  0  0  0  0  0
  161.0470  202.6840  150.1060 C   0  0  0  0  0  2  0  0  0  0  0  0
  161.2810  201.4250  147.4440 C   0  0  0  0  0  2  0  0  0  0  0  0
  162.3650  207.0690  152.8440 N   0  0  0  0  0  0  0  0  0  0  0  0
  161.7430  205.8280  153.3590 C   0  0  0  0  0  2  0  0  0  0  0  0
  160.5360  205.1500  149.9960 N   0  0  0  0  0  0  0  0  0  0  0  0
  161.1630  204.2620  148.0690 C   0  0  0  0  0  0  0  0  0  0  0  0
  161.6260  203.0730  146.8540 S   0  0  0  0  0  0  0  0  0  0  0  0
  160.8310  203.3140  145.6000 O   0  0  0  0  0  0  0  0  0  0  0  0
  160.7630  207.0220  151.1120 C   0  0  1  0  0  3  0  0  0  0  0  0
  162.5110  208.5470  150.9610 N   0  0  0  0  0  0  0  0  0  0  0  0
  160.8310  207.3690  149.7860 C   0  0  2  0  0  3  0  0  0  0  0  0
  159.9280  201.4180  148.1470 C   0  0  0  0  0  2  0  0  0  0  0  0
  163.0950  203.2030  146.5550 O   0  0  0  0  0  0  0  0  0  0  0  0
  160.6790  206.1450  149.1220 C   0  0  0  0  0  0  0  0  0  0  0  0
  162.5150  205.7920  145.8620 C   0  0  0  0  0  2  0  0  0  0  0  0
  161.3100  206.3620  146.5820 C   0  0  1  0  0  3  0  0  0  0  0  0
  162.1750  205.5640  144.5200 O   0  0  0  0  0  0  0  0  0  0  0  0
  160.7870  205.3640  144.5100 C   0  0  0  0  0  2  0  0  0  0  0  0
  160.1790  206.2030  145.6120 C   0  0  0  0  0  2  0  0  0  0  0  0
  1  5  1  6  0  0  0
  2 17  2  0  0  0  0
  3  8  1  0  0  0  0
  4 13  1  0  0  0  0
  4 21  2  0  0  0  0
  5 11  1  0  0  0  0
  6 10  2  0  0  0  0
  7 12  1  0  0  0  0
  7  8  1  0  0  0  0
  9 19  1  0  0  0  0
 10 11  1  0  0  0  0
 12  1  1  0  0  0  0
 13  7  2  0  0  0  0
 14  9  1  0  0  0  0
 14 13  1  0  0  0  0
 15 14  2  0  0  0  0
 16  1  1  0  0  0  0
 16  6  1  1  0  0  0
 17  6  1  0  0  0  0
 18  2  1  1  0  0  0
 18 16  1  0  0  0  0
 19  3  1  0  0  0  0
 20 14  2  0  0  0  0
 21 18  1  0  0  0  0
 21 12  1  0  0  0  0
 22 23  1  0  0  0  0
 23  4  1  1  0  0  0
 24 22  1  0  0  0  0
 25 24  1  0  0  0  0
 25 26  1  0  0  0  0
 26 23  1  0  0  0  0
M  END
>  <MODEL>
3

>  <REMARK>
 VINA RESULT:      -4.7      3.265      5.248
  Name = 
  1 active torsions:
  status: ('A' for Active; 'I' for Inactive)
    1  A    between atoms: C_4  and  C_14
                            x       y       z     vdW  Elec       q    Type
                         _______ _______ _______ _____ _____    ______ ____

>  <TORSDO>
F 1

$$$$
=
 OpenBabel11072414393D

 26 31  0  0  1  0  0  0  0  0999 V2000
  161.5950  205.6550  152.8600 C   0  0  2  0  0  3  0  0  0  0  0  0
  161.7300  207.5020  149.9680 C   0  0  0  0  0  3  0  0  0  0  0  0
  160.6590  207.0090  156.9130 C   0  0  0  0  0  2  0  0  0  0  0  0
  161.5340  209.0310  152.9570 C   0  0  0  0  0  0  0  0  0  0  0  0
  160.7300  204.7160  153.1260 N   0  0  0  0  0  2  0  0  0  0  0  0
  161.3090  205.2680  150.5020 C   0  0  0  0  0  0  0  0  0  0  0  0
  160.9100  207.4470  154.4380 C   0  0  0  0  0  0  0  0  0  0  0  0
  160.1380  206.7310  155.5010 C   0  0  0  0  0  2  0  0  0  0  0  0
  159.6840  209.3590  156.7680 C   0  0  0  0  0  2  0  0  0  0  0  0
  160.4500  204.3190  150.7520 N   0  0  0  0  0  0  0  0  0  0  0  0
  160.4560  203.6910  152.0920 C   0  0  0  0  0  2  0  0  0  0  0  0
  161.6180  206.8540  153.4630 N   0  0  0  0  0  0  0  0  0  0  0  0
  160.8830  208.8150  154.1760 C   0  0  0  0  0  0  0  0  0  0  0  0
  160.1020  210.0400  155.1730 S   0  0  0  0  0  0  0  0  0  0  0  0
  161.0490  211.1920  155.3720 O   0  0  0  0  0  0  0  0  0  0  0  0
  162.0610  205.8350  151.5750 C   0  0  1  0  0  3  0  0  0  0  0  0
  161.1110  206.2510  149.4950 N   0  0  0  0  0  0  0  0  0  0  0  0
  162.2750  207.1690  151.3360 C   0  0  2  0  0  3  0  0  0  0  0  0
  160.8370  208.4930  157.2610 C   0  0  0  0  0  2  0  0  0  0  0  0
  158.8530  210.5240  154.4890 O   0  0  0  0  0  0  0  0  0  0  0  0
  161.9820  207.7700  152.5670 C   0  0  0  0  0  0  0  0  0  0  0  0
  162.9490  210.3290  151.3860 C   0  0  0  0  0  2  0  0  0  0  0  0
  161.7560  210.3740  152.3190 C   0  0  1  0  0  3  0  0  0  0  0  0
  162.5980  210.9340  150.1700 O   0  0  0  0  0  0  0  0  0  0  0  0
  161.2070  210.7860  150.0620 C   0  0  0  0  0  2  0  0  0  0  0  0
  160.6160  210.8220  151.4540 C   0  0  0  0  0  2  0  0  0  0  0  0
  1  5  1  6  0  0  0
  1 12  1  0  0  0  0
  3 19  1  0  0  0  0
  4 13  1  0  0  0  0
  6 10  2  0  0  0  0
  7  8  1  0  0  0  0
  8  3  1  0  0  0  0
  9 19  1  0  0  0  0
 10 11  1  0  0  0  0
 11  5  1  0  0  0  0
 12  7  1  0  0  0  0
 13  7  2  0  0  0  0
 13 14  1  0  0  0  0
 14 15  2  0  0  0  0
 14  9  1  0  0  0  0
 16  6  1  6  0  0  0
 16  1  1  0  0  0  0
 17  2  2  0  0  0  0
 17  6  1  0  0  0  0
 18  2  1  6  0  0  0
 18 16  1  0  0  0  0
 18 21  1  0  0  0  0
 20 14  2  0  0  0  0
 21  4  2  0  0  0  0
 21 12  1  0  0  0  0
 22 23  1  0  0  0  0
 23  4  1  6  0  0  0
 24 22  1  0  0  0  0
 25 24  1  0  0  0  0
 25 26  1  0  0  0  0
 26 23  1  0  0  0  0
M  END
>  <MODEL>
4

>  <REMARK>
 VINA RESULT:      -4.7      4.943      6.513
  Name = 
  1 active torsions:
  status: ('A' for Active; 'I' for Inactive)
    1  A    between atoms: C_4  and  C_14
                            x       y       z     vdW  Elec       q    Type
                         _______ _______ _______ _____ _____    ______ ____

>  <TORSDO>
F 1

$$$$
=
 OpenBabel11072414393D

 26 31  0  0  1  0  0  0  0  0999 V2000
  159.7490  209.1800  138.7900 C   0  0  2  0  0  3  0  0  0  0  0  0
  161.7990  211.8680  139.3950 C   0  0  0  0  0  3  0  0  0  0  0  0
  155.3820  209.0850  138.5620 C   0  0  0  0  0  2  0  0  0  0  0  0
  158.4790  212.1180  139.8700 C   0  0  0  0  0  0  0  0  0  0  0  0
  159.6810  208.5090  137.6730 N   0  0  0  0  0  2  0  0  0  0  0  0
  162.0090  209.8300  138.2750 C   0  0  0  0  0  0  0  0  0  0  0  0
  157.5550  210.3450  138.8230 C   0  0  0  0  0  0  0  0  0  0  0  0
  156.6910  209.5350  137.9090 C   0  0  0  0  0  2  0  0  0  0  0  0
  154.5330  211.4830  138.4260 C   0  0  0  0  0  2  0  0  0  0  0  0
  161.9590  209.1540  137.1610 N   0  0  0  0  0  0  0  0  0  0  0  0
  160.9420  208.0880  137.0220 C   0  0  0  0  0  2  0  0  0  0  0  0
  158.7810  209.9920  139.2430 N   0  0  0  0  0  0  0  0  0  0  0  0
  157.3170  211.6510  139.2440 C   0  0  0  0  0  0  0  0  0  0  0  0
  155.8400  212.5700  138.9690 S   0  0  0  0  0  0  0  0  0  0  0  0
  155.4190  213.2260  140.2570 O   0  0  0  0  0  0  0  0  0  0  0  0
  160.9510  209.6950  139.2250 C   0  0  1  0  0  3  0  0  0  0  0  0
  162.5620  211.1360  138.3700 N   0  0  0  0  0  0  0  0  0  0  0  0
  160.7460  210.8920  139.8630 C   0  0  2  0  0  3  0  0  0  0  0  0
  154.5770  210.1980  139.2440 C   0  0  0  0  0  2  0  0  0  0  0  0
  156.0880  213.6220  137.9230 O   0  0  0  0  0  0  0  0  0  0  0  0
  159.3520  211.0320  139.8490 C   0  0  0  0  0  0  0  0  0  0  0  0
  159.1580  213.3450  141.9160 C   0  0  0  0  0  2  0  0  0  0  0  0
  158.6390  213.4740  140.4980 C   0  0  1  0  0  3  0  0  0  0  0  0
  160.2140  214.2500  142.0970 O   0  0  0  0  0  0  0  0  0  0  0  0
  160.7610  214.4530  140.8210 C   0  0  0  0  0  2  0  0  0  0  0  0
  159.6470  214.3400  139.8040 C   0  0  0  0  0  2  0  0  0  0  0  0
  1  5  1  6  0  0  0
  1 16  1  0  0  0  0
  1 12  1  0  0  0  0
  3 19  1  0  0  0  0
  6 17  1  0  0  0  0
  7 12  1  0  0  0  0
  7 13  2  0  0  0  0
  8  3  1  0  0  0  0
  8  7  1  0  0  0  0
  9 14  1  0  0  0  0
  9 19  1  0  0  0  0
 10  6  2  0  0  0  0
 11 10  1  0  0  0  0
 11  5  1  0  0  0  0
 12 21  1  0  0  0  0
 13  4  1  0  0  0  0
 14 13  1  0  0  0  0
 14 15  2  0  0  0  0
 16  6  1  6  0  0  0
 16 18  1  0  0  0  0
 17  2  2  0  0  0  0
 18  2  1  6  0  0  0
 20 14  2  0  0  0  0
 21 18  1  0  0  0  0
 21  4  2  0  0  0  0
 22 24  1  0  0  0  0
 23  4  1  6  0  0  0
 23 22  1  0  0  0  0
 25 24  1  0  0  0  0
 26 23  1  0  0  0  0
 26 25  1  0  0  0  0
M  END
>  <MODEL>
5

>  <REMARK>
 VINA RESULT:      -4.5     11.013     12.156
  Name = 
  1 active torsions:
  status: ('A' for Active; 'I' for Inactive)
    1  A    between atoms: C_4  and  C_14
                            x       y       z     vdW  Elec       q    Type
                         _______ _______ _______ _____ _____    ______ ____

>  <TORSDO>
F 1

$$$$
=
 OpenBabel11072414393D

 26 31  0  0  1  0  0  0  0  0999 V2000
  161.8450  206.2730  151.1940 C   0  0  2  0  0  3  0  0  0  0  0  0
  161.7990  208.4490  148.5380 C   0  0  0  0  0  3  0  0  0  0  0  0
  161.0240  207.1070  155.4090 C   0  0  0  0  0  2  0  0  0  0  0  0
  161.6690  209.6100  151.6910 C   0  0  0  0  0  0  0  0  0  0  0  0
  161.0230  205.2760  151.3770 N   0  0  0  0  0  2  0  0  0  0  0  0
  161.4780  206.1530  148.8190 C   0  0  0  0  0  0  0  0  0  0  0  0
  161.1600  207.8400  152.9960 C   0  0  0  0  0  0  0  0  0  0  0  0
  160.4570  206.9750  153.9940 C   0  0  0  0  0  2  0  0  0  0  0  0
  159.9620  209.4170  155.5780 C   0  0  0  0  0  2  0  0  0  0  0  0
  160.6630  205.1490  148.9850 N   0  0  0  0  0  0  0  0  0  0  0  0
  160.7450  204.3690  150.2410 C   0  0  0  0  0  2  0  0  0  0  0  0
  161.8490  207.3930  151.9340 N   0  0  0  0  0  0  0  0  0  0  0  0
  161.0750  209.2270  152.8990 C   0  0  0  0  0  0  0  0  0  0  0  0
  160.2920  210.2960  154.0610 S   0  0  0  0  0  0  0  0  0  0  0  0
  161.2050  211.4530  154.3610 O   0  0  0  0  0  0  0  0  0  0  0  0
  162.2520  206.6200  149.9240 C   0  0  1  0  0  3  0  0  0  0  0  0
  161.2050  207.2390  147.9420 N   0  0  0  0  0  0  0  0  0  0  0  0
  162.4100  207.9810  149.8370 C   0  0  2  0  0  3  0  0  0  0  0  0
  161.1640  208.5450  155.9240 C   0  0  0  0  0  2  0  0  0  0  0  0
  159.0000  210.8070  153.4840 O   0  0  0  0  0  0  0  0  0  0  0  0
  162.1450  208.4220  151.1400 C   0  0  0  0  0  0  0  0  0  0  0  0
  162.7070  211.0790  149.9840 C   0  0  0  0  0  2  0  0  0  0  0  0
  161.8180  211.0260  151.2090 C   0  0  1  0  0  3  0  0  0  0  0  0
  162.0910  211.8800  149.0110 O   0  0  0  0  0  0  0  0  0  0  0  0
  160.7150  211.8050  149.2750 C   0  0  0  0  0  2  0  0  0  0  0  0
  160.5270  211.6470  150.7670 C   0  0  0  0  0  2  0  0  0  0  0  0
  1  5  1  6  0  0  0
  1 12  1  0  0  0  0
  3 19  1  0  0  0  0
  4 13  1  0  0  0  0
  6 10  2  0  0  0  0
  7  8  1  0  0  0  0
  8  3  1  0  0  0  0
  9 19  1  0  0  0  0
 10 11  1  0  0  0  0
 11  5  1  0  0  0  0
 12  7  1  0  0  0  0
 13  7  2  0  0  0  0
 13 14  1  0  0  0  0
 14 15  2  0  0  0  0
 14  9  1  0  0  0  0
 16  6  1  6  0  0  0
 16  1  1  0  0  0  0
 17  2  2  0  0  0  0
 17  6  1  0  0  0  0
 18  2  1  6  0  0  0
 18 16  1  0  0  0  0
 18 21  1  0  0  0  0
 20 14  2  0  0  0  0
 21  4  2  0  0  0  0
 21 12  1  0  0  0  0
 22 23  1  0  0  0  0
 23  4  1  6  0  0  0
 24 25  1  0  0  0  0
 24 22  1  0  0  0  0
 25 26  1  0  0  0  0
 26 23  1  0  0  0  0
M  END
>  <MODEL>
6

>  <REMARK>
 VINA RESULT:      -4.4      4.343      5.839
  Name = 
  1 active torsions:
  status: ('A' for Active; 'I' for Inactive)
    1  A    between atoms: C_4  and  C_14
                            x       y       z     vdW  Elec       q    Type
                         _______ _______ _______ _____ _____    ______ ____

>  <TORSDO>
F 1

$$$$
=
 OpenBabel11072414393D

 26 31  0  0  1  0  0  0  0  0999 V2000
  161.2610  205.8100  146.8970 C   0  0  2  0  0  3  0  0  0  0  0  0
  161.1550  202.4630  147.6580 C   0  0  0  0  0  3  0  0  0  0  0  0
  161.6450  209.2100  149.6220 C   0  0  0  0  0  2  0  0  0  0  0  0
  160.8830  204.7720  150.0880 C   0  0  0  0  0  0  0  0  0  0  0  0
  162.2120  206.4130  146.2370 N   0  0  0  0  0  2  0  0  0  0  0  0
  161.8070  203.7340  145.8100 C   0  0  0  0  0  0  0  0  0  0  0  0
  161.5670  206.7240  149.1870 C   0  0  0  0  0  0  0  0  0  0  0  0
  162.3240  207.9980  148.9810 C   0  0  0  0  0  2  0  0  0  0  0  0
  162.3220  208.3280  151.9150 C   0  0  0  0  0  2  0  0  0  0  0  0
  162.7540  204.3240  145.1350 N   0  0  0  0  0  0  0  0  0  0  0  0
  162.7060  205.7960  144.9850 C   0  0  0  0  0  2  0  0  0  0  0  0
  161.0320  205.9750  148.2090 N   0  0  0  0  0  0  0  0  0  0  0  0
  161.4430  206.0200  150.3820 C   0  0  0  0  0  0  0  0  0  0  0  0
  161.9680  206.5800  151.9680 S   0  0  0  0  0  0  0  0  0  0  0  0
  160.8670  206.3400  152.9660 O   0  0  0  0  0  0  0  0  0  0  0  0
  160.8950  204.5210  146.5760 C   0  0  1  0  0  3  0  0  0  0  0  0
  161.9690  202.4640  146.4300 N   0  0  0  0  0  0  0  0  0  0  0  0
  160.5350  203.8390  147.7110 C   0  0  2  0  0  3  0  0  0  0  0  0
  161.2490  209.0320  151.0930 C   0  0  0  0  0  2  0  0  0  0  0  0
  163.2020  205.8280  152.3850 O   0  0  0  0  0  0  0  0  0  0  0  0
  160.6360  204.8080  148.7170 C   0  0  0  0  0  0  0  0  0  0  0  0
  159.7060  202.6220  150.4720 C   0  0  0  0  0  2  0  0  0  0  0  0
  160.5500  203.7110  151.1010 C   0  0  1  0  0  3  0  0  0  0  0  0
  160.2360  201.3730  150.8300 O   0  0  0  0  0  0  0  0  0  0  0  0
  161.5980  201.5970  151.0790 C   0  0  0  0  0  2  0  0  0  0  0  0
  161.7540  202.9960  151.6360 C   0  0  0  0  0  2  0  0  0  0  0  0
  1  5  1  1  0  0  0
  1 12  1  0  0  0  0
  3 19  1  0  0  0  0
  4 13  1  0  0  0  0
  6 17  1  0  0  0  0
  7 13  2  0  0  0  0
  8  7  1  0  0  0  0
  8  3  1  0  0  0  0
  9 14  1  0  0  0  0
 10  6  2  0  0  0  0
 11 10  1  0  0  0  0
 11  5  1  0  0  0  0
 12 21  1  0  0  0  0
 12  7  1  0  0  0  0
 13 14  1  0  0  0  0
 14 20  2  0  0  0  0
 14 15  2  0  0  0  0
 16  6  1  1  0  0  0
 16  1  1  0  0  0  0
 16 18  1  0  0  0  0
 17  2  2  0  0  0  0
 18  2  1  1  0  0  0
 18 21  1  0  0  0  0
 19  9  1  0  0  0  0
 21  4  2  0  0  0  0
 22 24  1  0  0  0  0
 22 23  1  0  0  0  0
 23  4  1  6  0  0  0
 23 26  1  0  0  0  0
 24 25  1  0  0  0  0
 25 26  1  0  0  0  0
M  END
>  <MODEL>
7

>  <REMARK>
 VINA RESULT:      -4.2      1.931      4.693
  Name = 
  1 active torsions:
  status: ('A' for Active; 'I' for Inactive)
    1  A    between atoms: C_4  and  C_14
                            x       y       z     vdW  Elec       q    Type
                         _______ _______ _______ _____ _____    ______ ____

>  <TORSDO>
F 1

$$$$
=
 OpenBabel11072414393D

 26 31  0  0  1  0  0  0  0  0999 V2000
  160.4570  211.4370  152.6090 C   0  0  2  0  0  3  0  0  0  0  0  0
  159.3890  210.4190  155.7100 C   0  0  0  0  0  3  0  0  0  0  0  0
  162.2730  209.0380  149.4330 C   0  0  0  0  0  2  0  0  0  0  0  0
  161.2460  208.3740  153.7930 C   0  0  0  0  0  0  0  0  0  0  0  0
  159.6940  211.8770  151.6460 N   0  0  0  0  0  2  0  0  0  0  0  0
  158.8300  212.1420  154.2350 C   0  0  0  0  0  0  0  0  0  0  0  0
  161.2020  209.2430  151.7110 C   0  0  0  0  0  0  0  0  0  0  0  0
  161.0080  209.3620  150.2320 C   0  0  0  0  0  2  0  0  0  0  0  0
  161.9610  206.5750  150.0090 C   0  0  0  0  0  2  0  0  0  0  0  0
  158.0620  212.5960  153.2850 N   0  0  0  0  0  0  0  0  0  0  0  0
  158.6640  212.8920  151.9650 C   0  0  0  0  0  2  0  0  0  0  0  0
  161.0880  210.2530  152.5900 N   0  0  0  0  0  0  0  0  0  0  0  0
  161.3530  208.0620  152.4330 C   0  0  0  0  0  0  0  0  0  0  0  0
  161.5670  206.4540  151.7450 S   0  0  0  0  0  0  0  0  0  0  0  0
  162.7020  205.7620  152.4510 O   0  0  0  0  0  0  0  0  0  0  0  0
  160.1580  211.7200  153.9240 C   0  0  1  0  0  3  0  0  0  0  0  0
  158.3410  211.3850  155.3350 N   0  0  0  0  0  0  0  0  0  0  0  0
  160.5060  210.6600  154.7230 C   0  0  2  0  0  3  0  0  0  0  0  0
  162.9530  207.7130  149.7990 C   0  0  0  0  0  2  0  0  0  0  0  0
  160.3020  205.6580  151.9210 O   0  0  0  0  0  0  0  0  0  0  0  0
  161.0950  209.7580  153.8270 C   0  0  0  0  0  0  0  0  0  0  0  0
  161.8960  208.0780  156.1680 C   0  0  0  0  0  2  0  0  0  0  0  0
  161.3820  207.3890  154.9210 C   0  0  1  0  0  3  0  0  0  0  0  0
  161.1080  207.6860  157.2610 O   0  0  0  0  0  0  0  0  0  0  0  0
  159.8590  207.3420  156.7220 C   0  0  0  0  0  2  0  0  0  0  0  0
  160.0800  206.7730  155.3380 C   0  0  0  0  0  2  0  0  0  0  0  0
  1  5  1  6  0  0  0
  1 16  1  0  0  0  0
  3 19  1  0  0  0  0
  3  8  1  0  0  0  0
  4 21  2  0  0  0  0
  5 11  1  0  0  0  0
  6 17  1  0  0  0  0
  7 13  2  0  0  0  0
  7 12  1  0  0  0  0
  8  7  1  0  0  0  0
  9 14  1  0  0  0  0
 10  6  2  0  0  0  0
 11 10  1  0  0  0  0
 12  1  1  0  0  0  0
 12 21  1  0  0  0  0
 13  4  1  0  0  0  0
 14 20  2  0  0  0  0
 14 13  1  0  0  0  0
 14 15  2  0  0  0  0
 16  6  1  6  0  0  0
 16 18  1  0  0  0  0
 17  2  2  0  0  0  0
 18  2  1  6  0  0  0
 19  9  1  0  0  0  0
 21 18  1  0  0  0  0
 22 24  1  0  0  0  0
 23  4  1  6  0  0  0
 23 26  1  0  0  0  0
 23 22  1  0  0  0  0
 25 24  1  0  0  0  0
 26 25  1  0  0  0  0
M  END
>  <MODEL>
8

>  <REMARK>
 VINA RESULT:      -4.1      6.099      8.777
  Name = 
  1 active torsions:
  status: ('A' for Active; 'I' for Inactive)
    1  A    between atoms: C_4  and  C_14
                            x       y       z     vdW  Elec       q    Type
                         _______ _______ _______ _____ _____    ______ ____

>  <TORSDO>
F 1

$$$$
=
 OpenBabel11072414393D

 26 31  0  0  1  0  0  0  0  0999 V2000
  161.7380  205.5910  152.2690 C   0  0  2  0  0  3  0  0  0  0  0  0
  161.1220  206.6400  149.0570 C   0  0  0  0  0  3  0  0  0  0  0  0
  161.3640  207.8590  155.9910 C   0  0  0  0  0  2  0  0  0  0  0  0
  161.2610  208.8630  151.5770 C   0  0  0  0  0  0  0  0  0  0  0  0
  161.0600  204.6850  152.9180 N   0  0  0  0  0  2  0  0  0  0  0  0
  161.0930  204.5910  150.1770 C   0  0  0  0  0  0  0  0  0  0  0  0
  161.1160  207.6660  153.4850 C   0  0  0  0  0  0  0  0  0  0  0  0
  160.6430  207.1870  154.8200 C   0  0  0  0  0  2  0  0  0  0  0  0
  160.0850  210.0070  155.4970 C   0  0  0  0  0  2  0  0  0  0  0  0
  160.4200  203.6720  150.8130 N   0  0  0  0  0  0  0  0  0  0  0  0
  160.7430  203.4110  152.2330 C   0  0  0  0  0  2  0  0  0  0  0  0
  161.7120  206.9020  152.5550 N   0  0  0  0  0  0  0  0  0  0  0  0
  160.8680  208.9150  152.9190 C   0  0  0  0  0  0  0  0  0  0  0  0
  160.1240  210.2870  153.7350 S   0  0  0  0  0  0  0  0  0  0  0  0
  160.9350  211.5240  153.4610 O   0  0  0  0  0  0  0  0  0  0  0  0
  161.9430  205.4730  150.9110 C   0  0  1  0  0  3  0  0  0  0  0  0
  160.5950  205.2640  149.0280 N   0  0  0  0  0  0  0  0  0  0  0  0
  161.9380  206.7140  150.3260 C   0  0  2  0  0  3  0  0  0  0  0  0
  161.4090  209.3910  155.9360 C   0  0  0  0  0  2  0  0  0  0  0  0
  158.7220  210.4780  153.2250 O   0  0  0  0  0  0  0  0  0  0  0  0
  161.7920  207.5850  151.4130 C   0  0  0  0  0  0  0  0  0  0  0  0
  162.4070  210.9040  150.7580 C   0  0  0  0  0  2  0  0  0  0  0  0
  161.1920  210.0110  150.6090 C   0  0  1  0  0  3  0  0  0  0  0  0
  162.9280  211.1770  149.4840 O   0  0  0  0  0  0  0  0  0  0  0  0
  162.5460  210.0940  148.6790 C   0  0  0  0  0  2  0  0  0  0  0  0
  161.2100  209.5840  149.1720 C   0  0  0  0  0  2  0  0  0  0  0  0
  1 12  1  0  0  0  0
  1  5  1  6  0  0  0
  4 13  1  0  0  0  0
  6 10  2  0  0  0  0
  7  8  1  0  0  0  0
  8  3  1  0  0  0  0
  9 19  1  0  0  0  0
 10 11  1  0  0  0  0
 11  5  1  0  0  0  0
 12  7  1  0  0  0  0
 13  7  2  0  0  0  0
 13 14  1  0  0  0  0
 14  9  1  0  0  0  0
 15 14  2  0  0  0  0
 16  6  1  6  0  0  0
 16  1  1  0  0  0  0
 17  2  2  0  0  0  0
 17  6  1  0  0  0  0
 18  2  1  6  0  0  0
 18 16  1  0  0  0  0
 18 21  1  0  0  0  0
 19  3  1  0  0  0  0
 20 14  2  0  0  0  0
 21  4  2  0  0  0  0
 21 12  1  0  0  0  0
 23 22  1  0  0  0  0
 23  4  1  1  0  0  0
 24 22  1  0  0  0  0
 25 26  1  0  0  0  0
 25 24  1  0  0  0  0
 26 23  1  0  0  0  0
M  END
>  <MODEL>
9

>  <REMARK>
 VINA RESULT:      -4.1      4.315      6.074
  Name = 
  1 active torsions:
  status: ('A' for Active; 'I' for Inactive)
    1  A    between atoms: C_4  and  C_14
                            x       y       z     vdW  Elec       q    Type
                         _______ _______ _______ _____ _____    ______ ____

>  <TORSDO>
F 1

$$$$
