=
 OpenBabel11072413293D

 41 45  0  0  1  0  0  0  0  0999 V2000
  160.4420  209.5530  155.4120 C   0  0  0  0  0  2  0  0  0  0  0  0
  161.1840  208.5530  153.2980 C   0  0  0  0  0  3  0  0  0  0  0  0
  161.6880  210.9370  150.4650 O   0  0  0  0  0  0  0  0  0  0  0  0
  161.0600  209.7930  152.4730 C   0  0  0  0  0  0  0  0  0  0  0  0
  159.2390  210.0710  154.8930 O   0  0  0  0  0  0  0  0  0  0  0  0
  161.7780  209.8300  151.3370 C   0  0  1  0  0  3  0  0  0  0  0  0
  160.0960  210.9060  152.7580 C   0  0  0  0  0  0  0  0  0  0  0  0
  158.1780  211.9250  153.8000 N   0  0  0  0  0  1  0  0  0  0  0  0
  159.2020  210.9310  153.7900 C   0  0  2  0  0  3  0  0  0  0  0  0
  160.0670  212.0090  151.8010 C   0  0  0  0  0  3  0  0  0  0  0  0
  160.8350  212.0070  150.7050 C   0  0  0  0  0  0  0  0  0  0  0  0
  160.9000  208.4230  154.5930 C   0  0  0  0  0  3  0  0  0  0  0  0
  160.7900  213.1680  149.7590 C   0  0  0  0  0  2  0  0  0  0  0  0
  159.5930  213.1490  148.7960 C   0  0  2  0  0  3  0  0  0  0  0  0
  160.7070  212.8590  144.6030 C   0  0  0  0  0  0  0  0  0  0  0  0
  159.0370  212.6340  146.3540 C   0  0  0  0  0  0  0  0  0  0  0  0
  157.6560  212.2400  146.7120 C   0  0  0  0  0  1  0  0  0  0  0  0
  159.4120  212.5170  145.0140 C   0  0  0  0  0  3  0  0  0  0  0  0
  161.6190  213.3380  145.5420 C   0  0  0  0  0  3  0  0  0  0  0  0
  161.2430  213.4680  146.8820 C   0  0  0  0  0  3  0  0  0  0  0  0
  159.9620  213.1000  147.3160 C   0  0  0  0  0  0  0  0  0  0  0  0
  160.2410  213.1470  142.2730 O   0  0  0  0  0  0  0  0  0  0  0  0
  162.2940  212.2630  142.7740 O   0  0  0  0  0  1  0  0  0  0  0  0
  161.0700  212.8050  143.1720 C   0  0  0  0  0  0  0  0  0  0  0  0
  158.7170  214.2090  149.0550 O   0  0  0  0  0  0  0  0  0  0  0  0
  157.6510  214.4530  151.1730 C   0  0  0  0  0  1  0  0  0  0  0  0
  157.6720  213.7080  149.8670 C   0  0  0  0  0  3  0  0  0  0  0  0
  156.3510  213.9350  149.1670 C   0  0  0  0  0  1  0  0  0  0  0  0
  162.5970  208.7390  150.9930 O   0  0  0  0  0  0  0  0  0  0  0  0
  162.1150  207.6500  150.2280 C   0  0  0  0  0  2  0  0  0  0  0  0
  161.6410  208.1510  148.8670 C   0  0  0  0  0  2  0  0  0  0  0  0
  161.6660  205.7110  148.1190 C   0  0  1  0  0  0  0  0  0  0  0  0
  161.2190  204.9840  146.8640 C   0  0  1  0  0  3  0  0  0  0  0  0
  160.5040  205.9950  149.1260 C   0  0  0  0  0  2  0  0  0  0  0  0
  162.4360  205.9060  146.8920 C   0  0  0  0  0  2  0  0  0  0  0  0
  160.8880  207.0370  148.1660 C   0  0  1  0  0  3  0  0  0  0  0  0
  161.6290  203.5040  146.8900 C   0  0  0  0  0  2  0  0  0  0  0  0
  161.4390  202.8760  148.2830 C   0  0  0  0  0  2  0  0  0  0  0  0
  160.3970  201.7520  148.2520 C   0  0  0  0  0  2  0  0  0  0  0  0
  160.8070  202.1960  150.3830 C   0  0  0  0  0  1  0  0  0  0  0  0
  159.9340  201.4850  149.5540 O   0  0  0  0  0  0  0  0  0  0  0  0
  2 12  2  0  0  0  0
  3 11  1  0  0  0  0
  3  6  1  0  0  0  0
  4  7  2  0  0  0  0
  4  2  1  0  0  0  0
  5  1  1  0  0  0  0
  6 29  1  6  0  0  0
  6  4  1  0  0  0  0
  7  9  1  0  0  0  0
  9  8  1  1  0  0  0
  9  5  1  0  0  0  0
 10  7  1  0  0  0  0
 11 10  2  0  0  0  0
 12  1  1  0  0  0  0
 13 11  1  0  0  0  0
 14 25  1  0  0  0  0
 14 13  1  1  0  0  0
 15 18  2  0  0  0  0
 15 19  1  0  0  0  0
 16 17  1  0  0  0  0
 16 21  2  0  0  0  0
 18 16  1  0  0  0  0
 19 20  2  0  0  0  0
 20 21  1  0  0  0  0
 21 14  1  0  0  0  0
 22 24  2  0  0  0  0
 23 24  1  0  0  0  0
 24 15  1  0  0  0  0
 25 27  1  0  0  0  0
 27 26  1  0  0  0  0
 28 27  1  0  0  0  0
 30 29  1  0  0  0  0
 31 30  1  0  0  0  0
 32 35  1  1  0  0  0
 32 36  1  0  0  0  0
 32 34  1  0  0  0  0
 33 37  1  1  0  0  0
 33 35  1  0  0  0  0
 33 32  1  0  0  0  0
 36 31  1  1  0  0  0
 36 34  1  0  0  0  0
 37 38  1  0  0  0  0
 39 38  1  0  0  0  0
 39 41  1  0  0  0  0
 41 40  1  0  0  0  0
M  END
>  <MODEL>
1

>  <REMARK>
 VINA RESULT:      -7.1      0.000      0.000
  Name = 
  14 active torsions:
  status: ('A' for Active; 'I' for Inactive)
    1  A    between atoms: C_4  and  C_6
    2  A    between atoms: C_4  and  C_30
    3  A    between atoms: C_10  and  C_23
    4  A    between atoms: C_13  and  O_27
    5  A    between atoms: C_15  and  O_27
    6  A    between atoms: C_15  and  C_31
    7  A    between atoms: C_15  and  C_40
    8  A    between atoms: C_19  and  O_41
    9  A    between atoms: C_24  and  C_25
   10  A    between atoms: C_24  and  C_37
   11  A    between atoms: C_25  and  O_41
   12  A    between atoms: O_29  and  C_34
   13  A    between atoms: C_30  and  C_34
   14  A    between atoms: C_31  and  C_36
                            x       y       z     vdW  Elec       q    Type
                         _______ _______ _______ _____ _____    ______ ____

>  <TORSDO>
F 14

$$$$
=
 OpenBabel11072413293D

 41 45  0  0  1  0  0  0  0  0999 V2000
  161.4770  203.8170  152.0110 C   0  0  0  0  0  2  0  0  0  0  0  0
  160.4600  205.0330  150.1390 C   0  0  0  0  0  3  0  0  0  0  0  0
  161.5940  208.5650  149.6920 O   0  0  0  0  0  0  0  0  0  0  0  0
  161.0410  206.3690  150.4700 C   0  0  0  0  0  0  0  0  0  0  0  0
  160.9980  204.6900  153.0060 O   0  0  0  0  0  0  0  0  0  0  0  0
  161.1070  207.2590  149.4650 C   0  0  1  0  0  3  0  0  0  0  0  0
  161.4100  206.8110  151.8550 C   0  0  0  0  0  0  0  0  0  0  0  0
  161.4090  206.6950  154.2610 N   0  0  0  0  0  1  0  0  0  0  0  0
  161.2540  206.0660  152.9890 C   0  0  2  0  0  3  0  0  0  0  0  0
  161.9000  208.1790  151.9980 C   0  0  0  0  0  3  0  0  0  0  0  0
  161.9800  209.0090  150.9500 C   0  0  0  0  0  0  0  0  0  0  0  0
  160.6270  203.8980  150.8160 C   0  0  0  0  0  3  0  0  0  0  0  0
  162.5080  210.3980  151.1360 C   0  0  0  0  0  2  0  0  0  0  0  0
  161.5630  211.5030  150.6370 C   0  0  2  0  0  3  0  0  0  0  0  0
  158.2770  212.3600  153.3510 C   0  0  0  0  0  0  0  0  0  0  0  0
  159.7450  213.0550  151.5430 C   0  0  0  0  0  0  0  0  0  0  0  0
  160.1540  214.1360  150.6190 C   0  0  0  0  0  1  0  0  0  0  0  0
  158.7090  213.3310  152.4370 C   0  0  0  0  0  3  0  0  0  0  0  0
  158.8770  211.1020  153.3490 C   0  0  0  0  0  3  0  0  0  0  0  0
  159.9070  210.8180  152.4460 C   0  0  0  0  0  3  0  0  0  0  0  0
  160.3730  211.7870  151.5480 C   0  0  0  0  0  0  0  0  0  0  0  0
  156.6250  213.7990  154.3160 O   0  0  0  0  0  0  0  0  0  0  0  0
  156.6530  211.6500  155.1060 O   0  0  0  0  0  1  0  0  0  0  0  0
  157.1300  212.6360  154.2400 C   0  0  0  0  0  0  0  0  0  0  0  0
  161.1380  211.2520  149.3280 O   0  0  0  0  0  0  0  0  0  0  0  0
  163.0280  212.0650  148.1240 C   0  0  0  0  0  1  0  0  0  0  0  0
  161.6000  212.3190  148.5190 C   0  0  0  0  0  3  0  0  0  0  0  0
  160.7610  212.3840  147.2630 C   0  0  0  0  0  1  0  0  0  0  0  0
  160.6520  206.8990  148.1830 O   0  0  0  0  0  0  0  0  0  0  0  0
  161.4990  206.9270  147.0500 C   0  0  0  0  0  2  0  0  0  0  0  0
  162.7250  206.0550  147.3060 C   0  0  0  0  0  2  0  0  0  0  0  0
  161.3270  204.2770  146.1240 C   0  0  1  0  0  0  0  0  0  0  0  0
  161.5430  202.8140  145.7860 C   0  0  1  0  0  3  0  0  0  0  0  0
  161.9930  205.2600  145.1060 C   0  0  0  0  0  2  0  0  0  0  0  0
  161.3140  203.3030  147.2140 C   0  0  0  0  0  2  0  0  0  0  0  0
  162.7200  204.8960  146.3280 C   0  0  1  0  0  3  0  0  0  0  0  0
  160.2750  202.1760  145.1970 C   0  0  0  0  0  2  0  0  0  0  0  0
  160.2810  200.6420  145.3390 C   0  0  0  0  0  2  0  0  0  0  0  0
  161.0420  200.1990  146.5940 C   0  0  0  0  0  2  0  0  0  0  0  0
  161.1370  198.4470  145.2430 C   0  0  0  0  0  1  0  0  0  0  0  0
  161.7990  199.0450  146.3190 O   0  0  0  0  0  0  0  0  0  0  0  0
  1  5  1  0  0  0  0
  2  4  1  0  0  0  0
  2 12  2  0  0  0  0
  3 11  1  0  0  0  0
  4  7  2  0  0  0  0
  6 29  1  1  0  0  0
  6  3  1  0  0  0  0
  6  4  1  0  0  0  0
  7 10  1  0  0  0  0
  7  9  1  0  0  0  0
  9  5  1  0  0  0  0
  9  8  1  1  0  0  0
 11 13  1  0  0  0  0
 11 10  2  0  0  0  0
 12  1  1  0  0  0  0
 14 13  1  1  0  0  0
 14 21  1  0  0  0  0
 15 24  1  0  0  0  0
 16 21  2  0  0  0  0
 16 18  1  0  0  0  0
 17 16  1  0  0  0  0
 18 15  2  0  0  0  0
 19 15  1  0  0  0  0
 20 19  2  0  0  0  0
 21 20  1  0  0  0  0
 24 22  2  0  0  0  0
 24 23  1  0  0  0  0
 25 14  1  0  0  0  0
 26 27  1  0  0  0  0
 27 25  1  0  0  0  0
 28 27  1  0  0  0  0
 30 31  1  0  0  0  0
 30 29  1  0  0  0  0
 32 34  1  6  0  0  0
 32 36  1  0  0  0  0
 32 35  1  0  0  0  0
 33 37  1  6  0  0  0
 33 32  1  0  0  0  0
 33 35  1  0  0  0  0
 34 36  1  0  0  0  0
 36 31  1  1  0  0  0
 37 38  1  0  0  0  0
 38 39  1  0  0  0  0
 40 41  1  0  0  0  0
 41 39  1  0  0  0  0
M  END
>  <MODEL>
2

>  <REMARK>
 VINA RESULT:      -6.9      2.771      5.820
  Name = 
  14 active torsions:
  status: ('A' for Active; 'I' for Inactive)
    1  A    between atoms: C_4  and  C_6
    2  A    between atoms: C_4  and  C_30
    3  A    between atoms: C_10  and  C_23
    4  A    between atoms: C_13  and  O_27
    5  A    between atoms: C_15  and  O_27
    6  A    between atoms: C_15  and  C_31
    7  A    between atoms: C_15  and  C_40
    8  A    between atoms: C_19  and  O_41
    9  A    between atoms: C_24  and  C_25
   10  A    between atoms: C_24  and  C_37
   11  A    between atoms: C_25  and  O_41
   12  A    between atoms: O_29  and  C_34
   13  A    between atoms: C_30  and  C_34
   14  A    between atoms: C_31  and  C_36
                            x       y       z     vdW  Elec       q    Type
                         _______ _______ _______ _____ _____    ______ ____

>  <TORSDO>
F 14

$$$$
=
 OpenBabel11072413293D

 41 45  0  0  1  0  0  0  0  0999 V2000
  161.4680  208.3100  148.0980 C   0  0  0  0  0  2  0  0  0  0  0  0
  162.3010  207.1010  150.0620 C   0  0  0  0  0  3  0  0  0  0  0  0
  161.5860  208.6890  153.3680 O   0  0  0  0  0  0  0  0  0  0  0  0
  161.9690  208.1580  151.0650 C   0  0  0  0  0  0  0  0  0  0  0  0
  162.2220  209.4760  148.3350 O   0  0  0  0  0  0  0  0  0  0  0  0
  161.8490  207.7560  152.3420 C   0  0  1  0  0  3  0  0  0  0  0  0
  161.9040  209.6240  150.7570 C   0  0  0  0  0  0  0  0  0  0  0  0
  162.3030  211.6040  149.4430 N   0  0  0  0  0  1  0  0  0  0  0  0
  162.1520  210.1870  149.5380 C   0  0  2  0  0  3  0  0  0  0  0  0
  161.6320  210.5190  151.8800 C   0  0  0  0  0  3  0  0  0  0  0  0
  161.4850  210.0540  153.1270 C   0  0  0  0  0  0  0  0  0  0  0  0
  162.1040  207.1560  148.7470 C   0  0  0  0  0  3  0  0  0  0  0  0
  161.1860  211.0020  154.2470 C   0  0  0  0  0  2  0  0  0  0  0  0
  160.0860  210.5180  155.2060 C   0  0  2  0  0  3  0  0  0  0  0  0
  156.5170  212.9810  155.5180 C   0  0  0  0  0  0  0  0  0  0  0  0
  158.8270  212.5410  156.1320 C   0  0  0  0  0  0  0  0  0  0  0  0
  159.9960  212.9430  156.9470 C   0  0  0  0  0  1  0  0  0  0  0  0
  157.6670  213.3090  156.2480 C   0  0  0  0  0  3  0  0  0  0  0  0
  156.5430  211.8860  154.6550 C   0  0  0  0  0  3  0  0  0  0  0  0
  157.7070  211.1210  154.5280 C   0  0  0  0  0  3  0  0  0  0  0  0
  158.8560  211.4160  155.2740 C   0  0  0  0  0  0  0  0  0  0  0  0
  154.7900  214.1360  156.7060 O   0  0  0  0  0  1  0  0  0  0  0  0
  154.6780  214.2590  154.4210 O   0  0  0  0  0  0  0  0  0  0  0  0
  155.3200  213.8440  155.5890 C   0  0  0  0  0  0  0  0  0  0  0  0
  160.6000  210.2800  156.4850 O   0  0  0  0  0  0  0  0  0  0  0  0
  159.5530  208.2850  155.7060 C   0  0  0  0  0  1  0  0  0  0  0  0
  160.4210  208.9040  156.7660 C   0  0  0  0  0  3  0  0  0  0  0  0
  161.7670  208.2160  156.7430 C   0  0  0  0  0  1  0  0  0  0  0  0
  162.0270  206.3980  152.6660 O   0  0  0  0  0  0  0  0  0  0  0  0
  160.9660  205.5980  153.1520 C   0  0  0  0  0  2  0  0  0  0  0  0
  161.1800  204.1490  152.7270 C   0  0  0  0  0  2  0  0  0  0  0  0
  160.5580  203.0350  150.5170 C   0  0  1  0  0  0  0  0  0  0  0  0
  161.3440  202.5900  149.2980 C   0  0  1  0  0  3  0  0  0  0  0  0
  160.2070  204.5580  150.5150 C   0  0  0  0  0  2  0  0  0  0  0  0
  161.4410  201.8760  150.6440 C   0  0  0  0  0  2  0  0  0  0  0  0
  161.4060  204.1020  151.2280 C   0  0  1  0  0  3  0  0  0  0  0  0
  160.4630  201.8130  148.3080 C   0  0  0  0  0  2  0  0  0  0  0  0
  160.8030  202.1510  146.8440 C   0  0  0  0  0  2  0  0  0  0  0  0
  161.6010  203.4560  146.7410 C   0  0  0  0  0  2  0  0  0  0  0  0
  162.1060  205.2440  145.5360 C   0  0  0  0  0  1  0  0  0  0  0  0
  161.2010  204.1810  145.6030 O   0  0  0  0  0  0  0  0  0  0  0  0
  1  5  1  0  0  0  0
  1 12  1  0  0  0  0
  2  4  1  0  0  0  0
  4  6  1  0  0  0  0
  5  9  1  0  0  0  0
  6 29  1  1  0  0  0
  6  3  1  0  0  0  0
  7  4  2  0  0  0  0
  7 10  1  0  0  0  0
  9  8  1  6  0  0  0
  9  7  1  0  0  0  0
 10 11  2  0  0  0  0
 11  3  1  0  0  0  0
 11 13  1  0  0  0  0
 12  2  2  0  0  0  0
 14 13  1  6  0  0  0
 14 21  1  0  0  0  0
 14 25  1  0  0  0  0
 15 24  1  0  0  0  0
 15 18  1  0  0  0  0
 16 18  2  0  0  0  0
 16 17  1  0  0  0  0
 19 15  2  0  0  0  0
 20 19  1  0  0  0  0
 20 21  2  0  0  0  0
 21 16  1  0  0  0  0
 23 24  2  0  0  0  0
 24 22  1  0  0  0  0
 25 27  1  0  0  0  0
 26 27  1  0  0  0  0
 28 27  1  0  0  0  0
 29 30  1  0  0  0  0
 31 30  1  0  0  0  0
 32 34  1  1  0  0  0
 32 35  1  0  0  0  0
 32 36  1  0  0  0  0
 33 37  1  6  0  0  0
 33 32  1  0  0  0  0
 33 35  1  0  0  0  0
 34 36  1  0  0  0  0
 36 31  1  1  0  0  0
 38 37  1  0  0  0  0
 39 38  1  0  0  0  0
 40 41  1  0  0  0  0
 41 39  1  0  0  0  0
M  END
>  <MODEL>
3

>  <REMARK>
 VINA RESULT:      -6.8      3.771      7.390
  Name = 
  14 active torsions:
  status: ('A' for Active; 'I' for Inactive)
    1  A    between atoms: C_4  and  C_6
    2  A    between atoms: C_4  and  C_30
    3  A    between atoms: C_10  and  C_23
    4  A    between atoms: C_13  and  O_27
    5  A    between atoms: C_15  and  O_27
    6  A    between atoms: C_15  and  C_31
    7  A    between atoms: C_15  and  C_40
    8  A    between atoms: C_19  and  O_41
    9  A    between atoms: C_24  and  C_25
   10  A    between atoms: C_24  and  C_37
   11  A    between atoms: C_25  and  O_41
   12  A    between atoms: O_29  and  C_34
   13  A    between atoms: C_30  and  C_34
   14  A    between atoms: C_31  and  C_36
                            x       y       z     vdW  Elec       q    Type
                         _______ _______ _______ _____ _____    ______ ____

>  <TORSDO>
F 14

$$$$
=
 OpenBabel11072413293D

 41 45  0  0  1  0  0  0  0  0999 V2000
  160.1820  210.0750  154.5090 C   0  0  0  0  0  2  0  0  0  0  0  0
  161.6450  210.7700  152.6660 C   0  0  0  0  0  3  0  0  0  0  0  0
  161.4810  208.6650  149.5830 O   0  0  0  0  0  0  0  0  0  0  0  0
  161.3890  209.5850  151.7920 C   0  0  0  0  0  0  0  0  0  0  0  0
  160.7670  208.8040  154.6650 O   0  0  0  0  0  0  0  0  0  0  0  0
  161.6440  209.7420  150.4810 C   0  0  1  0  0  3  0  0  0  0  0  0
  161.0120  208.2250  152.2990 C   0  0  0  0  0  0  0  0  0  0  0  0
  160.7550  206.5070  153.9680 N   0  0  0  0  0  1  0  0  0  0  0  0
  160.8680  207.8850  153.6140 C   0  0  2  0  0  3  0  0  0  0  0  0
  160.8690  207.1690  151.3000 C   0  0  0  0  0  3  0  0  0  0  0  0
  161.1010  207.3970  150.0010 C   0  0  0  0  0  0  0  0  0  0  0  0
  161.1350  210.9960  153.8750 C   0  0  0  0  0  3  0  0  0  0  0  0
  160.9230  206.2910  149.0070 C   0  0  0  0  0  2  0  0  0  0  0  0
  161.3330  204.9040  149.5270 C   0  0  2  0  0  3  0  0  0  0  0  0
  160.8130  201.7350  146.5970 C   0  0  0  0  0  0  0  0  0  0  0  0
  161.5820  203.9700  147.1600 C   0  0  0  0  0  0  0  0  0  0  0  0
  162.1780  205.2380  146.6820 C   0  0  0  0  0  1  0  0  0  0  0  0
  161.3850  202.9570  146.2200 C   0  0  0  0  0  3  0  0  0  0  0  0
  160.4570  201.5270  147.9280 C   0  0  0  0  0  3  0  0  0  0  0  0
  160.6640  202.5350  148.8750 C   0  0  0  0  0  3  0  0  0  0  0  0
  161.2050  203.7750  148.5090 C   0  0  0  0  0  0  0  0  0  0  0  0
  160.0130  200.8030  144.5420 O   0  0  0  0  0  0  0  0  0  0  0  0
  161.1830  199.3710  145.8920 O   0  0  0  0  0  1  0  0  0  0  0  0
  160.6790  200.6420  145.6110 C   0  0  0  0  0  0  0  0  0  0  0  0
  160.6570  204.5870  150.7100 O   0  0  0  0  0  0  0  0  0  0  0  0
  162.6260  204.5860  152.0540 C   0  0  0  0  0  1  0  0  0  0  0  0
  161.5110  203.7590  151.4790 C   0  0  0  0  0  3  0  0  0  0  0  0
  160.7200  203.1610  152.6210 C   0  0  0  0  0  1  0  0  0  0  0  0
  162.1140  210.9800  150.0050 O   0  0  0  0  0  0  0  0  0  0  0  0
  162.2340  211.2560  148.6230 C   0  0  0  0  0  2  0  0  0  0  0  0
  162.5680  212.7300  148.4210 C   0  0  0  0  0  2  0  0  0  0  0  0
  161.4480  212.7100  146.1280 C   0  0  1  0  0  0  0  0  0  0  0  0
  160.9850  213.7890  145.1670 C   0  0  1  0  0  3  0  0  0  0  0  0
  160.4270  212.4100  147.2730 C   0  0  0  0  0  2  0  0  0  0  0  0
  162.4610  213.4960  145.4250 C   0  0  0  0  0  2  0  0  0  0  0  0
  161.5200  213.3560  147.5210 C   0  0  1  0  0  3  0  0  0  0  0  0
  160.5150  213.1940  143.8310 C   0  0  0  0  0  2  0  0  0  0  0  0
  158.9890  213.3000  143.6550 C   0  0  0  0  0  2  0  0  0  0  0  0
  158.6240  214.1610  142.4400 C   0  0  0  0  0  2  0  0  0  0  0  0
  158.7360  214.0500  140.2310 C   0  0  0  0  0  1  0  0  0  0  0  0
  158.2860  213.3390  141.3480 O   0  0  0  0  0  0  0  0  0  0  0  0
  1  5  1  0  0  0  0
  2 12  2  0  0  0  0
  3 11  1  0  0  0  0
  3  6  1  0  0  0  0
  4  7  2  0  0  0  0
  4  2  1  0  0  0  0
  6 29  1  1  0  0  0
  6  4  1  0  0  0  0
  7  9  1  0  0  0  0
  9  8  1  6  0  0  0
  9  5  1  0  0  0  0
 10  7  1  0  0  0  0
 11 10  2  0  0  0  0
 12  1  1  0  0  0  0
 13 11  1  0  0  0  0
 14 13  1  6  0  0  0
 14 25  1  0  0  0  0
 15 19  1  0  0  0  0
 16 21  2  0  0  0  0
 17 16  1  0  0  0  0
 18 15  2  0  0  0  0
 18 16  1  0  0  0  0
 19 20  2  0  0  0  0
 21 20  1  0  0  0  0
 21 14  1  0  0  0  0
 22 24  2  0  0  0  0
 24 23  1  0  0  0  0
 24 15  1  0  0  0  0
 25 27  1  0  0  0  0
 27 26  1  0  0  0  0
 27 28  1  0  0  0  0
 30 29  1  0  0  0  0
 31 30  1  0  0  0  0
 32 35  1  6  0  0  0
 32 34  1  0  0  0  0
 32 36  1  0  0  0  0
 33 37  1  6  0  0  0
 33 35  1  0  0  0  0
 33 32  1  0  0  0  0
 34 36  1  0  0  0  0
 36 31  1  1  0  0  0
 38 37  1  0  0  0  0
 39 38  1  0  0  0  0
 40 41  1  0  0  0  0
 41 39  1  0  0  0  0
M  END
>  <MODEL>
4

>  <REMARK>
 VINA RESULT:      -6.7      2.340      8.793
  Name = 
  14 active torsions:
  status: ('A' for Active; 'I' for Inactive)
    1  A    between atoms: C_4  and  C_6
    2  A    between atoms: C_4  and  C_30
    3  A    between atoms: C_10  and  C_23
    4  A    between atoms: C_13  and  O_27
    5  A    between atoms: C_15  and  O_27
    6  A    between atoms: C_15  and  C_31
    7  A    between atoms: C_15  and  C_40
    8  A    between atoms: C_19  and  O_41
    9  A    between atoms: C_24  and  C_25
   10  A    between atoms: C_24  and  C_37
   11  A    between atoms: C_25  and  O_41
   12  A    between atoms: O_29  and  C_34
   13  A    between atoms: C_30  and  C_34
   14  A    between atoms: C_31  and  C_36
                            x       y       z     vdW  Elec       q    Type
                         _______ _______ _______ _____ _____    ______ ____

>  <TORSDO>
F 14

$$$$
=
 OpenBabel11072413293D

 41 45  0  0  1  0  0  0  0  0999 V2000
  161.7100  204.6340  152.9950 C   0  0  0  0  0  2  0  0  0  0  0  0
  160.8480  205.9580  151.1190 C   0  0  0  0  0  3  0  0  0  0  0  0
  161.1390  209.6650  151.4810 O   0  0  0  0  0  0  0  0  0  0  0  0
  160.9940  207.2930  151.7740 C   0  0  0  0  0  0  0  0  0  0  0  0
  160.8280  205.1750  153.9500 O   0  0  0  0  0  0  0  0  0  0  0  0
  161.0520  208.3580  150.9550 C   0  0  1  0  0  3  0  0  0  0  0  0
  160.9380  207.5190  153.2550 C   0  0  0  0  0  0  0  0  0  0  0  0
  160.4510  206.9340  155.5400 N   0  0  0  0  0  1  0  0  0  0  0  0
  160.7330  206.5500  154.1950 C   0  0  2  0  0  3  0  0  0  0  0  0
  161.0310  208.9040  153.7110 C   0  0  0  0  0  3  0  0  0  0  0  0
  161.1250  209.9220  152.8460 C   0  0  0  0  0  0  0  0  0  0  0  0
  161.1420  204.7720  151.6480 C   0  0  0  0  0  3  0  0  0  0  0  0
  161.2390  211.3260  153.3550 C   0  0  0  0  0  2  0  0  0  0  0  0
  160.0460  212.2250  152.9980 C   0  0  2  0  0  3  0  0  0  0  0  0
  156.7080  211.8520  155.7580 C   0  0  0  0  0  0  0  0  0  0  0  0
  159.0960  212.0670  155.3660 C   0  0  0  0  0  0  0  0  0  0  0  0
  160.4540  212.1140  155.9540 C   0  0  0  0  0  1  0  0  0  0  0  0
  158.0200  211.9180  156.2430 C   0  0  0  0  0  3  0  0  0  0  0  0
  156.4790  211.9550  154.3870 C   0  0  0  0  0  3  0  0  0  0  0  0
  157.5520  212.1160  153.5070 C   0  0  0  0  0  3  0  0  0  0  0  0
  158.8740  212.1520  153.9720 C   0  0  0  0  0  0  0  0  0  0  0  0
  154.9910  210.6660  156.9320 O   0  0  0  0  0  0  0  0  0  0  0  0
  155.0350  212.9320  157.2610 O   0  0  0  0  0  1  0  0  0  0  0  0
  155.5710  211.7720  156.6990 C   0  0  0  0  0  0  0  0  0  0  0  0
  159.6160  211.9980  151.6860 O   0  0  0  0  0  0  0  0  0  0  0  0
  160.7400  212.9690  149.8210 C   0  0  0  0  0  1  0  0  0  0  0  0
  159.7940  213.2040  150.9650 C   0  0  0  0  0  3  0  0  0  0  0  0
  158.4620  213.6430  150.4010 C   0  0  0  0  0  1  0  0  0  0  0  0
  160.9840  208.1720  149.5620 O   0  0  0  0  0  0  0  0  0  0  0  0
  162.0600  208.5090  148.7070 C   0  0  0  0  0  2  0  0  0  0  0  0
  162.6880  207.2360  148.1470 C   0  0  0  0  0  2  0  0  0  0  0  0
  162.1260  205.0780  146.9060 C   0  0  1  0  0  0  0  0  0  0  0  0
  161.1370  204.7110  145.8150 C   0  0  1  0  0  3  0  0  0  0  0  0
  161.4990  205.1010  148.3390 C   0  0  0  0  0  2  0  0  0  0  0  0
  162.3660  205.5790  145.5540 C   0  0  0  0  0  2  0  0  0  0  0  0
  161.5930  206.3540  147.5790 C   0  0  1  0  0  3  0  0  0  0  0  0
  161.3470  203.2710  145.3220 C   0  0  0  0  0  2  0  0  0  0  0  0
  160.4140  202.2740  146.0350 C   0  0  0  0  0  2  0  0  0  0  0  0
  161.2110  201.1970  146.7790 C   0  0  0  0  0  2  0  0  0  0  0  0
  160.0840  201.7430  148.6050 C   0  0  0  0  0  1  0  0  0  0  0  0
  161.3850  201.5660  148.1250 O   0  0  0  0  0  0  0  0  0  0  0  0
  1  5  1  0  0  0  0
  2 12  2  0  0  0  0
  2  4  1  0  0  0  0
  3 11  1  0  0  0  0
  4  7  2  0  0  0  0
  5  9  1  0  0  0  0
  6 29  1  1  0  0  0
  6  3  1  0  0  0  0
  6  4  1  0  0  0  0
  7 10  1  0  0  0  0
  7  9  1  0  0  0  0
  9  8  1  1  0  0  0
 11 13  1  0  0  0  0
 11 10  2  0  0  0  0
 12  1  1  0  0  0  0
 14 13  1  1  0  0  0
 14 21  1  0  0  0  0
 15 18  1  0  0  0  0
 15 24  1  0  0  0  0
 16 17  1  0  0  0  0
 16 18  2  0  0  0  0
 19 15  2  0  0  0  0
 20 21  2  0  0  0  0
 20 19  1  0  0  0  0
 21 16  1  0  0  0  0
 24 22  2  0  0  0  0
 24 23  1  0  0  0  0
 25 14  1  0  0  0  0
 26 27  1  0  0  0  0
 27 25  1  0  0  0  0
 28 27  1  0  0  0  0
 30 29  1  0  0  0  0
 31 30  1  0  0  0  0
 32 35  1  6  0  0  0
 32 36  1  0  0  0  0
 32 34  1  0  0  0  0
 33 37  1  6  0  0  0
 33 32  1  0  0  0  0
 35 33  1  0  0  0  0
 36 31  1  1  0  0  0
 36 34  1  0  0  0  0
 37 38  1  0  0  0  0
 38 39  1  0  0  0  0
 39 41  1  0  0  0  0
 41 40  1  0  0  0  0
M  END
>  <MODEL>
5

>  <REMARK>
 VINA RESULT:      -6.4      3.202      6.423
  Name = 
  14 active torsions:
  status: ('A' for Active; 'I' for Inactive)
    1  A    between atoms: C_4  and  C_6
    2  A    between atoms: C_4  and  C_30
    3  A    between atoms: C_10  and  C_23
    4  A    between atoms: C_13  and  O_27
    5  A    between atoms: C_15  and  O_27
    6  A    between atoms: C_15  and  C_31
    7  A    between atoms: C_15  and  C_40
    8  A    between atoms: C_19  and  O_41
    9  A    between atoms: C_24  and  C_25
   10  A    between atoms: C_24  and  C_37
   11  A    between atoms: C_25  and  O_41
   12  A    between atoms: O_29  and  C_34
   13  A    between atoms: C_30  and  C_34
   14  A    between atoms: C_31  and  C_36
                            x       y       z     vdW  Elec       q    Type
                         _______ _______ _______ _____ _____    ______ ____

>  <TORSDO>
F 14

$$$$
=
 OpenBabel11072413293D

 41 45  0  0  1  0  0  0  0  0999 V2000
  160.2180  210.8740  157.2340 C   0  0  0  0  0  2  0  0  0  0  0  0
  160.8160  211.9550  155.1150 C   0  0  0  0  0  3  0  0  0  0  0  0
  160.4160  209.8530  152.0520 O   0  0  0  0  0  0  0  0  0  0  0  0
  160.6880  210.7350  154.2620 C   0  0  0  0  0  0  0  0  0  0  0  0
  161.1750  209.8470  157.1300 O   0  0  0  0  0  0  0  0  0  0  0  0
  160.4990  210.9420  152.9470 C   0  0  1  0  0  3  0  0  0  0  0  0
  160.8960  209.3340  154.7530 C   0  0  0  0  0  0  0  0  0  0  0  0
  161.6510  207.6460  156.2970 N   0  0  0  0  0  1  0  0  0  0  0  0
  161.2410  208.9860  156.0270 C   0  0  2  0  0  3  0  0  0  0  0  0
  160.7960  208.2690  153.7580 C   0  0  0  0  0  3  0  0  0  0  0  0
  160.5680  208.5360  152.4650 C   0  0  0  0  0  0  0  0  0  0  0  0
  160.6300  212.0330  156.4320 C   0  0  0  0  0  3  0  0  0  0  0  0
  160.4530  207.4130  151.4810 C   0  0  0  0  0  2  0  0  0  0  0  0
  161.8020  206.8810  150.9710 C   0  0  2  0  0  3  0  0  0  0  0  0
  161.6390  205.6030  146.8190 C   0  0  0  0  0  0  0  0  0  0  0  0
  161.9480  207.3640  148.4650 C   0  0  0  0  0  0  0  0  0  0  0  0
  162.1750  208.8040  148.7170 C   0  0  0  0  0  1  0  0  0  0  0  0
  161.8660  206.9490  147.1340 C   0  0  0  0  0  3  0  0  0  0  0  0
  161.5140  204.6700  147.8480 C   0  0  0  0  0  3  0  0  0  0  0  0
  161.6070  205.0800  149.1810 C   0  0  0  0  0  3  0  0  0  0  0  0
  161.8020  206.4270  149.5150 C   0  0  0  0  0  0  0  0  0  0  0  0
  162.5230  205.5530  144.5950 O   0  0  0  0  0  0  0  0  0  0  0  0
  160.5700  204.4000  144.9130 O   0  0  0  0  0  1  0  0  0  0  0  0
  161.6300  205.1610  145.4090 C   0  0  0  0  0  0  0  0  0  0  0  0
  162.2960  205.8740  151.8060 O   0  0  0  0  0  0  0  0  0  0  0  0
  161.2840  203.7150  151.7860 C   0  0  0  0  0  1  0  0  0  0  0  0
  161.1870  205.1320  152.2800 C   0  0  0  0  0  3  0  0  0  0  0  0
  161.2150  205.1140  153.7920 C   0  0  0  0  0  1  0  0  0  0  0  0
  160.4220  212.2570  152.4510 O   0  0  0  0  0  0  0  0  0  0  0  0
  159.5530  212.6100  151.3910 C   0  0  0  0  0  2  0  0  0  0  0  0
  159.6650  214.1050  151.1130 C   0  0  0  0  0  2  0  0  0  0  0  0
  160.4820  213.3190  148.8270 C   0  0  1  0  0  0  0  0  0  0  0  0
  160.9600  214.0280  147.5730 C   0  0  1  0  0  3  0  0  0  0  0  0
  158.9250  213.2370  148.9440 C   0  0  0  0  0  2  0  0  0  0  0  0
  161.7810  213.9880  148.8600 C   0  0  0  0  0  2  0  0  0  0  0  0
  159.6350  214.3330  149.6140 C   0  0  1  0  0  3  0  0  0  0  0  0
  161.4940  213.0350  146.5300 C   0  0  0  0  0  2  0  0  0  0  0  0
  160.6210  213.0030  145.2620 C   0  0  0  0  0  2  0  0  0  0  0  0
  161.4300  213.3770  144.0150 C   0  0  0  0  0  2  0  0  0  0  0  0
  163.4590  214.0000  143.3830 C   0  0  0  0  0  1  0  0  0  0  0  0
  162.7940  213.1000  144.2220 O   0  0  0  0  0  0  0  0  0  0  0  0
  2 12  2  0  0  0  0
  3 11  1  0  0  0  0
  3  6  1  0  0  0  0
  4  7  2  0  0  0  0
  4  2  1  0  0  0  0
  5  1  1  0  0  0  0
  6 29  1  6  0  0  0
  6  4  1  0  0  0  0
  7  9  1  0  0  0  0
  9  8  1  1  0  0  0
  9  5  1  0  0  0  0
 10  7  1  0  0  0  0
 11 10  2  0  0  0  0
 12  1  1  0  0  0  0
 13 11  1  0  0  0  0
 14 13  1  1  0  0  0
 14 25  1  0  0  0  0
 15 18  2  0  0  0  0
 15 19  1  0  0  0  0
 16 17  1  0  0  0  0
 16 21  2  0  0  0  0
 18 16  1  0  0  0  0
 19 20  2  0  0  0  0
 20 21  1  0  0  0  0
 21 14  1  0  0  0  0
 22 24  2  0  0  0  0
 23 24  1  0  0  0  0
 24 15  1  0  0  0  0
 25 27  1  0  0  0  0
 26 27  1  0  0  0  0
 27 28  1  0  0  0  0
 30 29  1  0  0  0  0
 31 30  1  0  0  0  0
 32 35  1  1  0  0  0
 32 34  1  0  0  0  0
 32 36  1  0  0  0  0
 33 37  1  6  0  0  0
 33 32  1  0  0  0  0
 33 35  1  0  0  0  0
 34 36  1  0  0  0  0
 36 31  1  1  0  0  0
 38 37  1  0  0  0  0
 39 41  1  0  0  0  0
 39 38  1  0  0  0  0
 40 41  1  0  0  0  0
M  END
>  <MODEL>
6

>  <REMARK>
 VINA RESULT:      -5.9      2.402      7.652
  Name = 
  14 active torsions:
  status: ('A' for Active; 'I' for Inactive)
    1  A    between atoms: C_4  and  C_6
    2  A    between atoms: C_4  and  C_30
    3  A    between atoms: C_10  and  C_23
    4  A    between atoms: C_13  and  O_27
    5  A    between atoms: C_15  and  O_27
    6  A    between atoms: C_15  and  C_31
    7  A    between atoms: C_15  and  C_40
    8  A    between atoms: C_19  and  O_41
    9  A    between atoms: C_24  and  C_25
   10  A    between atoms: C_24  and  C_37
   11  A    between atoms: C_25  and  O_41
   12  A    between atoms: O_29  and  C_34
   13  A    between atoms: C_30  and  C_34
   14  A    between atoms: C_31  and  C_36
                            x       y       z     vdW  Elec       q    Type
                         _______ _______ _______ _____ _____    ______ ____

>  <TORSDO>
F 14

$$$$
=
 OpenBabel11072413293D

 41 45  0  0  1  0  0  0  0  0999 V2000
  160.4760  210.0000  156.5800 C   0  0  0  0  0  2  0  0  0  0  0  0
  160.1630  207.8420  155.4560 C   0  0  0  0  0  3  0  0  0  0  0  0
  161.7870  207.5070  152.1070 O   0  0  0  0  0  0  0  0  0  0  0  0
  160.7850  208.2370  154.1560 C   0  0  0  0  0  0  0  0  0  0  0  0
  159.8490  210.7610  155.5740 O   0  0  0  0  0  0  0  0  0  0  0  0
  161.2300  207.2370  153.3760 C   0  0  1  0  0  3  0  0  0  0  0  0
  160.8100  209.6380  153.6220 C   0  0  0  0  0  0  0  0  0  0  0  0
  160.1350  211.9480  153.5070 N   0  0  0  0  0  1  0  0  0  0  0  0
  160.2620  210.7280  154.2370 C   0  0  2  0  0  3  0  0  0  0  0  0
  161.4010  209.8260  152.2990 C   0  0  0  0  0  3  0  0  0  0  0  0
  161.8620  208.7910  151.5850 C   0  0  0  0  0  0  0  0  0  0  0  0
  160.0020  208.6100  156.5320 C   0  0  0  0  0  3  0  0  0  0  0  0
  162.4800  209.0290  150.2410 C   0  0  0  0  0  2  0  0  0  0  0  0
  161.4880  208.9530  149.0690 C   0  0  2  0  0  3  0  0  0  0  0  0
  161.8640  205.2710  146.7900 C   0  0  0  0  0  0  0  0  0  0  0  0
  160.9260  206.4920  148.6700 C   0  0  0  0  0  0  0  0  0  0  0  0
  160.0900  206.4460  149.8900 C   0  0  0  0  0  1  0  0  0  0  0  0
  161.0760  205.3060  147.9480 C   0  0  0  0  0  3  0  0  0  0  0  0
  162.4870  206.4370  146.3500 C   0  0  0  0  0  3  0  0  0  0  0  0
  162.3300  207.6290  147.0640 C   0  0  0  0  0  3  0  0  0  0  0  0
  161.5710  207.6750  148.2420 C   0  0  0  0  0  0  0  0  0  0  0  0
  163.0800  203.5370  145.6740 O   0  0  0  0  0  1  0  0  0  0  0  0
  160.8020  203.4440  145.4650 O   0  0  0  0  0  0  0  0  0  0  0  0
  161.9540  204.0310  145.9900 C   0  0  0  0  0  0  0  0  0  0  0  0
  161.5850  210.0830  148.2510 O   0  0  0  0  0  0  0  0  0  0  0  0
  163.2480  211.7890  148.1770 C   0  0  0  0  0  1  0  0  0  0  0  0
  162.1990  211.1080  149.0110 C   0  0  0  0  0  3  0  0  0  0  0  0
  161.1540  212.1320  149.3930 C   0  0  0  0  0  1  0  0  0  0  0  0
  161.1040  205.9040  153.8110 O   0  0  0  0  0  0  0  0  0  0  0  0
  161.5590  204.8140  153.0320 C   0  0  0  0  0  2  0  0  0  0  0  0
  160.4000  203.8610  152.7580 C   0  0  0  0  0  2  0  0  0  0  0  0
  160.8560  202.8900  150.4420 C   0  0  1  0  0  0  0  0  0  0  0  0
  160.6690  201.5220  149.8130 C   0  0  1  0  0  3  0  0  0  0  0  0
  162.1680  203.0180  151.2840 C   0  0  0  0  0  2  0  0  0  0  0  0
  159.4950  202.4320  150.1670 C   0  0  0  0  0  2  0  0  0  0  0  0
  160.9130  202.6750  151.9640 C   0  0  1  0  0  3  0  0  0  0  0  0
  160.9680  201.5460  148.3060 C   0  0  0  0  0  2  0  0  0  0  0  0
  161.5810  200.2200  147.8180 C   0  0  0  0  0  2  0  0  0  0  0  0
  161.2500  199.9600  146.3430 C   0  0  0  0  0  2  0  0  0  0  0  0
  160.8320  198.3250  144.9100 C   0  0  0  0  0  1  0  0  0  0  0  0
  161.6730  198.6700  145.9720 O   0  0  0  0  0  0  0  0  0  0  0  0
  2 12  2  0  0  0  0
  3  6  1  0  0  0  0
  4  2  1  0  0  0  0
  5  1  1  0  0  0  0
  6 29  1  6  0  0  0
  6  4  1  0  0  0  0
  7  4  2  0  0  0  0
  7  9  1  0  0  0  0
  9  8  1  1  0  0  0
  9  5  1  0  0  0  0
 10  7  1  0  0  0  0
 11  3  1  0  0  0  0
 11 10  2  0  0  0  0
 12  1  1  0  0  0  0
 13 11  1  0  0  0  0
 14 13  1  1  0  0  0
 15 18  1  0  0  0  0
 16 17  1  0  0  0  0
 18 16  2  0  0  0  0
 19 15  2  0  0  0  0
 19 20  1  0  0  0  0
 20 21  2  0  0  0  0
 21 16  1  0  0  0  0
 21 14  1  0  0  0  0
 22 24  1  0  0  0  0
 23 24  2  0  0  0  0
 24 15  1  0  0  0  0
 25 27  1  0  0  0  0
 25 14  1  0  0  0  0
 26 27  1  0  0  0  0
 27 28  1  0  0  0  0
 30 29  1  0  0  0  0
 31 30  1  0  0  0  0
 32 35  1  6  0  0  0
 32 34  1  0  0  0  0
 32 36  1  0  0  0  0
 33 37  1  6  0  0  0
 33 35  1  0  0  0  0
 33 32  1  0  0  0  0
 34 36  1  0  0  0  0
 36 31  1  1  0  0  0
 38 37  1  0  0  0  0
 39 38  1  0  0  0  0
 40 41  1  0  0  0  0
 41 39  1  0  0  0  0
M  END
>  <MODEL>
7

>  <REMARK>
 VINA RESULT:      -5.7      3.006      5.278
  Name = 
  14 active torsions:
  status: ('A' for Active; 'I' for Inactive)
    1  A    between atoms: C_4  and  C_6
    2  A    between atoms: C_4  and  C_30
    3  A    between atoms: C_10  and  C_23
    4  A    between atoms: C_13  and  O_27
    5  A    between atoms: C_15  and  O_27
    6  A    between atoms: C_15  and  C_31
    7  A    between atoms: C_15  and  C_40
    8  A    between atoms: C_19  and  O_41
    9  A    between atoms: C_24  and  C_25
   10  A    between atoms: C_24  and  C_37
   11  A    between atoms: C_25  and  O_41
   12  A    between atoms: O_29  and  C_34
   13  A    between atoms: C_30  and  C_34
   14  A    between atoms: C_31  and  C_36
                            x       y       z     vdW  Elec       q    Type
                         _______ _______ _______ _____ _____    ______ ____

>  <TORSDO>
F 14

$$$$
=
 OpenBabel11072413293D

 41 45  0  0  1  0  0  0  0  0999 V2000
  158.1760  212.6010  155.5730 C   0  0  0  0  0  2  0  0  0  0  0  0
  159.0510  210.3240  155.8340 C   0  0  0  0  0  3  0  0  0  0  0  0
  161.8260  209.3780  153.5170 O   0  0  0  0  0  0  0  0  0  0  0  0
  159.9450  210.3490  154.6360 C   0  0  0  0  0  0  0  0  0  0  0  0
  157.7590  212.4260  154.2400 O   0  0  0  0  0  0  0  0  0  0  0  0
  160.9570  209.4650  154.6270 C   0  0  1  0  0  3  0  0  0  0  0  0
  159.6980  211.1820  153.4140 C   0  0  0  0  0  0  0  0  0  0  0  0
  158.3850  212.5470  151.9250 N   0  0  0  0  0  1  0  0  0  0  0  0
  158.6290  212.0100  153.2250 C   0  0  2  0  0  3  0  0  0  0  0  0
  160.6440  211.0250  152.3120 C   0  0  0  0  0  3  0  0  0  0  0  0
  161.6580  210.1530  152.3770 C   0  0  0  0  0  0  0  0  0  0  0  0
  158.2500  211.3010  156.2540 C   0  0  0  0  0  3  0  0  0  0  0  0
  162.6170  210.0370  151.2320 C   0  0  0  0  0  2  0  0  0  0  0  0
  161.9540  210.0890  149.8470 C   0  0  2  0  0  3  0  0  0  0  0  0
  162.1010  206.2790  147.7590 C   0  0  0  0  0  0  0  0  0  0  0  0
  161.2520  207.6450  149.5800 C   0  0  0  0  0  0  0  0  0  0  0  0
  160.4260  207.7090  150.8070 C   0  0  0  0  0  1  0  0  0  0  0  0
  161.3280  206.4180  148.9190 C   0  0  0  0  0  3  0  0  0  0  0  0
  162.7830  207.3840  147.2540 C   0  0  0  0  0  3  0  0  0  0  0  0
  162.7000  208.6170  147.9060 C   0  0  0  0  0  3  0  0  0  0  0  0
  161.9570  208.7670  149.0860 C   0  0  0  0  0  0  0  0  0  0  0  0
  161.2590  204.0910  147.2750 O   0  0  0  0  0  1  0  0  0  0  0  0
  163.1390  204.7080  146.1230 O   0  0  0  0  0  0  0  0  0  0  0  0
  162.1130  204.9960  147.0240 C   0  0  0  0  0  0  0  0  0  0  0  0
  162.4950  211.1150  149.0640 O   0  0  0  0  0  0  0  0  0  0  0  0
  160.9900  212.9350  149.3840 C   0  0  0  0  0  1  0  0  0  0  0  0
  161.4150  211.8160  148.4750 C   0  0  0  0  0  3  0  0  0  0  0  0
  161.8720  212.4120  147.1630 C   0  0  0  0  0  1  0  0  0  0  0  0
  161.1310  208.5910  155.7160 O   0  0  0  0  0  0  0  0  0  0  0  0
  161.4450  207.2230  155.5370 C   0  0  0  0  0  2  0  0  0  0  0  0
  160.7250  206.6890  154.3030 C   0  0  0  0  0  2  0  0  0  0  0  0
  161.0890  205.1830  152.2750 C   0  0  1  0  0  0  0  0  0  0  0  0
  161.4450  203.7190  152.0940 C   0  0  1  0  0  3  0  0  0  0  0  0
  162.3270  206.1000  152.5440 C   0  0  0  0  0  2  0  0  0  0  0  0
  160.0840  204.1770  152.6140 C   0  0  0  0  0  2  0  0  0  0  0  0
  161.5580  205.5840  153.6840 C   0  0  1  0  0  3  0  0  0  0  0  0
  161.3740  203.2970  150.6190 C   0  0  0  0  0  2  0  0  0  0  0  0
  160.9150  201.8350  150.4570 C   0  0  0  0  0  2  0  0  0  0  0  0
  159.8260  201.7060  149.3860 C   0  0  0  0  0  2  0  0  0  0  0  0
  161.5800  200.5800  148.6370 C   0  0  0  0  0  1  0  0  0  0  0  0
  160.3580  201.1180  148.2230 O   0  0  0  0  0  0  0  0  0  0  0  0
  1 12  1  0  0  0  0
  2 12  2  0  0  0  0
  3  6  1  0  0  0  0
  4  2  1  0  0  0  0
  5  1  1  0  0  0  0
  6  4  1  0  0  0  0
  6 29  1  6  0  0  0
  7  4  2  0  0  0  0
  9  8  1  1  0  0  0
  9  7  1  0  0  0  0
  9  5  1  0  0  0  0
 10 11  2  0  0  0  0
 10  7  1  0  0  0  0
 11  3  1  0  0  0  0
 13 11  1  0  0  0  0
 14 13  1  1  0  0  0
 15 18  1  0  0  0  0
 16 17  1  0  0  0  0
 18 16  2  0  0  0  0
 19 15  2  0  0  0  0
 19 20  1  0  0  0  0
 20 21  2  0  0  0  0
 21 16  1  0  0  0  0
 21 14  1  0  0  0  0
 23 24  2  0  0  0  0
 24 22  1  0  0  0  0
 24 15  1  0  0  0  0
 25 14  1  0  0  0  0
 27 25  1  0  0  0  0
 27 26  1  0  0  0  0
 28 27  1  0  0  0  0
 30 29  1  0  0  0  0
 31 30  1  0  0  0  0
 32 34  1  6  0  0  0
 32 35  1  0  0  0  0
 32 36  1  0  0  0  0
 33 37  1  6  0  0  0
 33 32  1  0  0  0  0
 33 35  1  0  0  0  0
 34 36  1  0  0  0  0
 36 31  1  6  0  0  0
 38 37  1  0  0  0  0
 39 38  1  0  0  0  0
 41 40  1  0  0  0  0
 41 39  1  0  0  0  0
M  END
>  <MODEL>
8

>  <REMARK>
 VINA RESULT:      -5.4      2.652      4.994
  Name = 
  14 active torsions:
  status: ('A' for Active; 'I' for Inactive)
    1  A    between atoms: C_4  and  C_6
    2  A    between atoms: C_4  and  C_30
    3  A    between atoms: C_10  and  C_23
    4  A    between atoms: C_13  and  O_27
    5  A    between atoms: C_15  and  O_27
    6  A    between atoms: C_15  and  C_31
    7  A    between atoms: C_15  and  C_40
    8  A    between atoms: C_19  and  O_41
    9  A    between atoms: C_24  and  C_25
   10  A    between atoms: C_24  and  C_37
   11  A    between atoms: C_25  and  O_41
   12  A    between atoms: O_29  and  C_34
   13  A    between atoms: C_30  and  C_34
   14  A    between atoms: C_31  and  C_36
                            x       y       z     vdW  Elec       q    Type
                         _______ _______ _______ _____ _____    ______ ____

>  <TORSDO>
F 14

$$$$
=
 OpenBabel11072413293D

 41 45  0  0  1  0  0  0  0  0999 V2000
  162.4920  205.8140  148.3250 C   0  0  0  0  0  2  0  0  0  0  0  0
  162.1420  208.2230  148.6300 C   0  0  0  0  0  3  0  0  0  0  0  0
  161.6760  209.3600  152.1590 O   0  0  0  0  0  0  0  0  0  0  0  0
  161.8280  208.1640  150.0900 C   0  0  0  0  0  0  0  0  0  0  0  0
  161.2540  205.4330  148.8790 O   0  0  0  0  0  0  0  0  0  0  0  0
  161.9950  209.3020  150.7850 C   0  0  1  0  0  3  0  0  0  0  0  0
  161.2170  206.9790  150.7760 C   0  0  0  0  0  0  0  0  0  0  0  0
  160.0580  204.8690  150.8830 N   0  0  0  0  0  1  0  0  0  0  0  0
  160.8550  205.8120  150.1660 C   0  0  2  0  0  3  0  0  0  0  0  0
  160.9160  207.1280  152.1980 C   0  0  0  0  0  3  0  0  0  0  0  0
  161.1400  208.2780  152.8460 C   0  0  0  0  0  0  0  0  0  0  0  0
  162.4210  207.1950  147.8300 C   0  0  0  0  0  3  0  0  0  0  0  0
  160.8360  208.3830  154.3090 C   0  0  0  0  0  2  0  0  0  0  0  0
  160.9350  209.8090  154.8720 C   0  0  2  0  0  3  0  0  0  0  0  0
  158.2920  212.5990  152.8380 C   0  0  0  0  0  0  0  0  0  0  0  0
  158.7050  211.0410  154.6570 C   0  0  0  0  0  0  0  0  0  0  0  0
  158.1640  210.3470  155.8480 C   0  0  0  0  0  1  0  0  0  0  0  0
  157.8530  211.9170  153.9810 C   0  0  0  0  0  3  0  0  0  0  0  0
  159.5980  212.4110  152.3880 C   0  0  0  0  0  3  0  0  0  0  0  0
  160.4570  211.5440  153.0690 C   0  0  0  0  0  3  0  0  0  0  0  0
  160.0250  210.8290  154.1950 C   0  0  0  0  0  0  0  0  0  0  0  0
  156.3460  213.9890  152.7370 O   0  0  0  0  0  1  0  0  0  0  0  0
  157.6660  213.9900  150.8650 O   0  0  0  0  0  0  0  0  0  0  0  0
  157.4090  213.5810  152.1750 C   0  0  0  0  0  0  0  0  0  0  0  0
  162.2600  210.2570  154.8860 O   0  0  0  0  0  0  0  0  0  0  0  0
  161.8810  210.1350  157.2360 C   0  0  0  0  0  1  0  0  0  0  0  0
  162.4660  210.9400  156.1090 C   0  0  0  0  0  3  0  0  0  0  0  0
  163.9510  211.0880  156.3480 C   0  0  0  0  0  1  0  0  0  0  0  0
  162.4540  210.4600  150.1280 O   0  0  0  0  0  0  0  0  0  0  0  0
  161.5660  211.3960  149.5490 C   0  0  0  0  0  2  0  0  0  0  0  0
  162.2550  212.1050  148.3880 C   0  0  0  0  0  2  0  0  0  0  0  0
  161.3140  212.9330  146.1640 C   0  0  1  0  0  0  0  0  0  0  0  0
  160.8820  214.2880  145.6370 C   0  0  1  0  0  3  0  0  0  0  0  0
  160.2220  212.2160  147.0230 C   0  0  0  0  0  2  0  0  0  0  0  0
  162.3450  213.9340  145.8940 C   0  0  0  0  0  2  0  0  0  0  0  0
  161.2540  213.0130  147.6980 C   0  0  1  0  0  3  0  0  0  0  0  0
  160.5400  214.2320  144.1400 C   0  0  0  0  0  2  0  0  0  0  0  0
  159.9200  212.8800  143.7400 C   0  0  0  0  0  2  0  0  0  0  0  0
  160.3680  212.4520  142.3370 C   0  0  0  0  0  2  0  0  0  0  0  0
  161.9100  211.4570  141.0980 C   0  0  0  0  0  1  0  0  0  0  0  0
  161.6970  211.9900  142.3730 O   0  0  0  0  0  0  0  0  0  0  0  0
  1  5  1  0  0  0  0
  2  4  1  0  0  0  0
  3 11  1  0  0  0  0
  4  7  2  0  0  0  0
  4  6  1  0  0  0  0
  5  9  1  0  0  0  0
  6 29  1  6  0  0  0
  6  3  1  0  0  0  0
  7 10  1  0  0  0  0
  9  7  1  0  0  0  0
  9  8  1  1  0  0  0
 10 11  2  0  0  0  0
 11 13  1  0  0  0  0
 12  1  1  0  0  0  0
 12  2  2  0  0  0  0
 14 13  1  6  0  0  0
 14 25  1  0  0  0  0
 15 18  1  0  0  0  0
 16 17  1  0  0  0  0
 18 16  2  0  0  0  0
 19 15  2  0  0  0  0
 19 20  1  0  0  0  0
 20 21  2  0  0  0  0
 21 16  1  0  0  0  0
 21 14  1  0  0  0  0
 23 24  2  0  0  0  0
 24 22  1  0  0  0  0
 24 15  1  0  0  0  0
 25 27  1  0  0  0  0
 27 28  1  0  0  0  0
 27 26  1  0  0  0  0
 30 29  1  0  0  0  0
 31 30  1  0  0  0  0
 32 35  1  6  0  0  0
 32 34  1  0  0  0  0
 32 36  1  0  0  0  0
 33 37  1  6  0  0  0
 33 35  1  0  0  0  0
 33 32  1  0  0  0  0
 34 36  1  0  0  0  0
 36 31  1  1  0  0  0
 38 37  1  0  0  0  0
 39 41  1  0  0  0  0
 39 38  1  0  0  0  0
 40 41  1  0  0  0  0
M  END
>  <MODEL>
9

>  <REMARK>
 VINA RESULT:      -5.4      2.281      8.013
  Name = 
  14 active torsions:
  status: ('A' for Active; 'I' for Inactive)
    1  A    between atoms: C_4  and  C_6
    2  A    between atoms: C_4  and  C_30
    3  A    between atoms: C_10  and  C_23
    4  A    between atoms: C_13  and  O_27
    5  A    between atoms: C_15  and  O_27
    6  A    between atoms: C_15  and  C_31
    7  A    between atoms: C_15  and  C_40
    8  A    between atoms: C_19  and  O_41
    9  A    between atoms: C_24  and  C_25
   10  A    between atoms: C_24  and  C_37
   11  A    between atoms: C_25  and  O_41
   12  A    between atoms: O_29  and  C_34
   13  A    between atoms: C_30  and  C_34
   14  A    between atoms: C_31  and  C_36
                            x       y       z     vdW  Elec       q    Type
                         _______ _______ _______ _____ _____    ______ ____

>  <TORSDO>
F 14

$$$$
