=
 OpenBabel11072411153D

 28 31  0  0  1  0  0  0  0  0999 V2000
  161.1990  207.6870  148.5800 C   0  0  0  0  0  0  0  0  0  0  0  0
  160.7540  207.1490  149.9060 C   0  0  2  0  0  3  0  0  0  0  0  0
  162.7000  210.1010  150.4310 N   0  0  0  0  0  2  0  0  0  0  0  0
  161.2210  203.5510  148.8770 N   0  0  0  0  0  0  0  0  0  0  0  0
  160.7960  203.5890  151.2290 C   0  0  0  0  0  0  0  0  0  0  0  0
  160.7300  204.9800  151.1880 C   0  0  0  0  0  3  0  0  0  0  0  0
  161.5920  207.9650  150.8880 C   0  0  1  0  0  3  0  0  0  0  0  0
  161.2660  205.5730  147.4990 C   0  0  0  0  0  3  0  0  0  0  0  0
  161.0730  202.8800  150.0530 C   0  0  0  0  0  0  0  0  0  0  0  0
  161.8060  208.8240  148.6490 N   0  0  0  0  0  0  0  0  0  0  0  0
  161.1480  204.9040  148.8080 C   0  0  0  0  0  0  0  0  0  0  0  0
  160.5510  202.9450  152.4000 F   0  0  0  0  0  0  0  0  0  0  0  0
  161.9560  209.1250  150.0280 C   0  0  0  0  0  0  0  0  0  0  0  0
  160.9430  205.6610  149.9820 C   0  0  0  0  0  0  0  0  0  0  0  0
  161.2860  206.8690  147.4100 N   0  0  0  0  0  0  0  0  0  0  0  0
  159.8640  200.9350  150.5250 F   0  0  0  0  0  0  0  0  0  0  0  0
  161.0820  201.3880  150.0520 C   0  0  1  0  0  3  0  0  0  0  0  0
  161.3280  200.8660  148.6480 C   0  0  0  0  0  1  0  0  0  0  0  0
  160.7900  208.4120  152.0160 N   0  0  0  0  0  2  0  0  0  0  0  0
  160.9090  210.4880  154.2320 N   0  0  0  0  0  0  0  0  0  0  0  0
  160.1790  209.6270  154.8510 C   0  0  0  0  0  0  0  0  0  0  0  0
  159.0140  212.2970  155.1440 O   0  0  0  0  0  0  0  0  0  0  0  0
  156.9670  211.4590  156.0100 C   0  0  0  0  0  1  0  0  0  0  0  0
  158.3500  211.2860  155.4910 C   0  0  0  0  0  0  0  0  0  0  0  0
  158.8950  209.9650  155.3920 N   0  0  0  0  0  2  0  0  0  0  0  0
  162.0310  209.9110  153.5230 C   0  0  0  0  0  2  0  0  0  0  0  0
  160.6730  207.9210  154.6490 S   0  0  0  0  0  0  0  0  0  0  0  0
  161.6390  208.4690  153.2080 C   0  0  1  0  0  3  0  0  0  0  0  0
  1 10  2  0  0  0  0
  2  1  1  6  0  0  0
  2 14  1  0  0  0  0
  2  7  1  0  0  0  0
  4  9  1  0  0  0  0
  5 12  1  0  0  0  0
  6  5  1  0  0  0  0
  7 19  1  1  0  0  0
  8 11  1  0  0  0  0
  9  5  2  0  0  0  0
 10 13  1  0  0  0  0
 11  4  2  0  0  0  0
 11 14  1  0  0  0  0
 13  3  2  0  0  0  0
 13  7  1  0  0  0  0
 14  6  2  0  0  0  0
 15  8  2  0  0  0  0
 15  1  1  0  0  0  0
 17 18  1  6  0  0  0
 17  9  1  0  0  0  0
 17 16  1  0  0  0  0
 20 21  2  0  0  0  0
 21 25  1  0  0  0  0
 22 24  2  0  0  0  0
 24 23  1  0  0  0  0
 25 24  1  0  0  0  0
 26 20  1  0  0  0  0
 27 21  1  0  0  0  0
 28 19  1  6  0  0  0
 28 26  1  0  0  0  0
 28 27  1  0  0  0  0
M  END
>  <MODEL>
1

>  <REMARK>
 VINA RESULT:      -8.7      0.000      0.000
  Name = 
  3 active torsions:
  status: ('A' for Active; 'I' for Inactive)
    1  A    between atoms: C_14  and  N_28
    2  A    between atoms: C_17  and  C_24
    3  A    between atoms: C_22  and  N_28
                            x       y       z     vdW  Elec       q    Type
                         _______ _______ _______ _____ _____    ______ ____

>  <TORSDO>
F 3

$$$$
=
 OpenBabel11072411153D

 28 31  0  0  1  0  0  0  0  0999 V2000
  162.1910  208.3090  150.2410 C   0  0  0  0  0  0  0  0  0  0  0  0
  162.1370  207.2830  151.3320 C   0  0  2  0  0  3  0  0  0  0  0  0
  161.2240  205.7520  148.2330 N   0  0  0  0  0  2  0  0  0  0  0  0
  160.7260  209.6940  153.8640 N   0  0  0  0  0  0  0  0  0  0  0  0
  160.6270  207.5010  154.8090 C   0  0  0  0  0  0  0  0  0  0  0  0
  161.1610  206.9780  153.6340 C   0  0  0  0  0  3  0  0  0  0  0  0
  161.4300  206.1150  150.6460 C   0  0  1  0  0  3  0  0  0  0  0  0
  161.6540  210.1480  151.6450 C   0  0  0  0  0  3  0  0  0  0  0  0
  160.3870  208.8790  154.9000 C   0  0  0  0  0  0  0  0  0  0  0  0
  161.9990  207.8320  149.0570 N   0  0  0  0  0  0  0  0  0  0  0  0
  161.2590  209.2120  152.7140 C   0  0  0  0  0  0  0  0  0  0  0  0
  160.3870  206.6730  155.8590 F   0  0  0  0  0  0  0  0  0  0  0  0
  161.6670  206.4610  149.2170 C   0  0  0  0  0  0  0  0  0  0  0  0
  161.4500  207.8220  152.5540 C   0  0  0  0  0  0  0  0  0  0  0  0
  162.0880  209.7120  150.5010 N   0  0  0  0  0  0  0  0  0  0  0  0
  160.9580  209.7650  156.9870 F   0  0  0  0  0  0  0  0  0  0  0  0
  159.8800  209.4780  156.1700 C   0  0  1  0  0  3  0  0  0  0  0  0
  159.0920  210.7410  155.8760 C   0  0  0  0  0  1  0  0  0  0  0  0
  162.0740  204.8520  150.9680 N   0  0  0  0  0  2  0  0  0  0  0  0
  160.0180  202.8980  149.8770 N   0  0  0  0  0  0  0  0  0  0  0  0
  160.9290  202.0350  150.1660 C   0  0  0  0  0  0  0  0  0  0  0  0
  159.9040  201.5190  147.4730 O   0  0  0  0  0  0  0  0  0  0  0  0
  161.6540  200.0020  146.9480 C   0  0  0  0  0  1  0  0  0  0  0  0
  160.9410  200.9280  147.8680 C   0  0  0  0  0  0  0  0  0  0  0  0
  161.4580  201.1290  149.1880 N   0  0  0  0  0  2  0  0  0  0  0  0
  159.8060  203.8980  150.9010 C   0  0  0  0  0  2  0  0  0  0  0  0
  161.7650  202.2980  151.7250 S   0  0  0  0  0  0  0  0  0  0  0  0
  161.1180  203.9980  151.6770 C   0  0  1  0  0  3  0  0  0  0  0  0
  1 15  1  0  0  0  0
  2  1  1  6  0  0  0
  2 14  1  0  0  0  0
  3 13  2  0  0  0  0
  4  9  1  0  0  0  0
  5  9  2  0  0  0  0
  5 12  1  0  0  0  0
  6  5  1  0  0  0  0
  7 19  1  1  0  0  0
  7  2  1  0  0  0  0
  8 11  1  0  0  0  0
  9 17  1  0  0  0  0
 10 13  1  0  0  0  0
 10  1  2  0  0  0  0
 11  4  2  0  0  0  0
 13  7  1  0  0  0  0
 14 11  1  0  0  0  0
 14  6  2  0  0  0  0
 15  8  2  0  0  0  0
 17 18  1  6  0  0  0
 17 16  1  0  0  0  0
 20 21  2  0  0  0  0
 20 26  1  0  0  0  0
 21 27  1  0  0  0  0
 22 24  2  0  0  0  0
 23 24  1  0  0  0  0
 24 25  1  0  0  0  0
 25 21  1  0  0  0  0
 26 28  1  0  0  0  0
 28 19  1  6  0  0  0
 28 27  1  0  0  0  0
M  END
>  <MODEL>
2

>  <REMARK>
 VINA RESULT:      -7.3      3.576      7.807
  Name = 
  3 active torsions:
  status: ('A' for Active; 'I' for Inactive)
    1  A    between atoms: C_14  and  N_28
    2  A    between atoms: C_17  and  C_24
    3  A    between atoms: C_22  and  N_28
                            x       y       z     vdW  Elec       q    Type
                         _______ _______ _______ _____ _____    ______ ____

>  <TORSDO>
F 3

$$$$
=
 OpenBabel11072411153D

 28 31  0  0  1  0  0  0  0  0999 V2000
  161.4340  204.1020  151.9800 C   0  0  0  0  0  0  0  0  0  0  0  0
  161.9650  205.2490  151.1750 C   0  0  2  0  0  3  0  0  0  0  0  0
  160.4200  206.5130  154.1400 N   0  0  0  0  0  2  0  0  0  0  0  0
  160.9990  203.6970  147.8770 N   0  0  0  0  0  0  0  0  0  0  0  0
  161.6880  205.9460  147.4520 C   0  0  0  0  0  0  0  0  0  0  0  0
  161.8990  206.1320  148.8160 C   0  0  0  0  0  3  0  0  0  0  0  0
  161.3350  206.4560  151.8690 C   0  0  1  0  0  3  0  0  0  0  0  0
  161.0180  202.6980  150.1110 C   0  0  0  0  0  3  0  0  0  0  0  0
  161.2060  204.7130  146.9940 C   0  0  0  0  0  0  0  0  0  0  0  0
  160.9650  204.4410  153.1340 N   0  0  0  0  0  0  0  0  0  0  0  0
  161.2090  203.8480  149.2080 C   0  0  0  0  0  0  0  0  0  0  0  0
  161.9920  206.9490  146.5880 F   0  0  0  0  0  0  0  0  0  0  0  0
  161.0040  205.8580  153.1930 C   0  0  0  0  0  0  0  0  0  0  0  0
  161.6260  205.0970  149.7190 C   0  0  0  0  0  0  0  0  0  0  0  0
  161.1280  202.8320  151.3980 N   0  0  0  0  0  0  0  0  0  0  0  0
  162.1610  204.9130  144.8690 F   0  0  0  0  0  0  0  0  0  0  0  0
  161.0350  204.4610  145.5330 C   0  0  1  0  0  3  0  0  0  0  0  0
  160.8340  202.9790  145.2760 C   0  0  0  0  0  1  0  0  0  0  0  0
  162.3030  207.5290  152.0330 N   0  0  0  0  0  2  0  0  0  0  0  0
  160.5670  209.6630  153.3240 N   0  0  0  0  0  0  0  0  0  0  0  0
  161.6930  210.2790  153.4310 C   0  0  0  0  0  0  0  0  0  0  0  0
  160.2550  210.4060  155.9780 O   0  0  0  0  0  0  0  0  0  0  0  0
  162.1520  211.2000  157.1670 C   0  0  0  0  0  1  0  0  0  0  0  0
  161.4620  210.7580  155.9260 C   0  0  0  0  0  0  0  0  0  0  0  0
  162.1920  210.7400  154.6940 N   0  0  0  0  0  2  0  0  0  0  0  0
  160.3570  209.0360  152.0360 C   0  0  0  0  0  2  0  0  0  0  0  0
  162.7630  210.1700  152.0030 S   0  0  0  0  0  0  0  0  0  0  0  0
  161.7460  208.7590  151.4660 C   0  0  1  0  0  3  0  0  0  0  0  0
  1 10  2  0  0  0  0
  2 14  1  6  0  0  0
  2  7  1  0  0  0  0
  2  1  1  0  0  0  0
  4 11  1  0  0  0  0
  5  6  2  0  0  0  0
  6 14  1  0  0  0  0
  7 19  1  1  0  0  0
  7 13  1  0  0  0  0
  8 15  2  0  0  0  0
  9  5  1  0  0  0  0
  9  4  2  0  0  0  0
 10 13  1  0  0  0  0
 11 14  2  0  0  0  0
 11  8  1  0  0  0  0
 12  5  1  0  0  0  0
 13  3  2  0  0  0  0
 15  1  1  0  0  0  0
 16 17  1  0  0  0  0
 17 18  1  1  0  0  0
 17  9  1  0  0  0  0
 20 21  2  0  0  0  0
 21 25  1  0  0  0  0
 24 22  2  0  0  0  0
 24 23  1  0  0  0  0
 25 24  1  0  0  0  0
 26 20  1  0  0  0  0
 27 21  1  0  0  0  0
 28 27  1  0  0  0  0
 28 19  1  1  0  0  0
 28 26  1  0  0  0  0
M  END
>  <MODEL>
3

>  <REMARK>
 VINA RESULT:      -7.2      2.889      4.062
  Name = 
  3 active torsions:
  status: ('A' for Active; 'I' for Inactive)
    1  A    between atoms: C_14  and  N_28
    2  A    between atoms: C_17  and  C_24
    3  A    between atoms: C_22  and  N_28
                            x       y       z     vdW  Elec       q    Type
                         _______ _______ _______ _____ _____    ______ ____

>  <TORSDO>
F 3

$$$$
=
 OpenBabel11072411153D

 28 31  0  0  1  0  0  0  0  0999 V2000
  161.9800  209.2690  151.5970 C   0  0  0  0  0  0  0  0  0  0  0  0
  162.2220  209.2470  150.1180 C   0  0  2  0  0  3  0  0  0  0  0  0
  160.6140  212.3160  150.9990 N   0  0  0  0  0  2  0  0  0  0  0  0
  161.4170  205.5770  149.7940 N   0  0  0  0  0  0  0  0  0  0  0  0
  161.6090  206.4800  147.5890 C   0  0  0  0  0  0  0  0  0  0  0  0
  161.8500  207.7400  148.1340 C   0  0  0  0  0  3  0  0  0  0  0  0
  161.3980  210.4400  149.6340 C   0  0  1  0  0  3  0  0  0  0  0  0
  161.7590  206.9140  151.8150 C   0  0  0  0  0  3  0  0  0  0  0  0
  161.3640  205.3990  148.4450 C   0  0  0  0  0  0  0  0  0  0  0  0
  161.5150  210.3890  152.0380 N   0  0  0  0  0  0  0  0  0  0  0  0
  161.6630  206.7900  150.3490 C   0  0  0  0  0  0  0  0  0  0  0  0
  161.6550  206.3170  146.2420 F   0  0  0  0  0  0  0  0  0  0  0  0
  161.2670  211.2050  150.9050 C   0  0  0  0  0  0  0  0  0  0  0  0
  161.8440  207.9210  149.5220 C   0  0  0  0  0  0  0  0  0  0  0  0
  161.9090  208.0740  152.3800 N   0  0  0  0  0  0  0  0  0  0  0  0
  162.3270  203.6410  147.2410 F   0  0  0  0  0  0  0  0  0  0  0  0
  161.1700  204.0250  147.8950 C   0  0  1  0  0  3  0  0  0  0  0  0
  160.8510  203.0510  149.0140 C   0  0  0  0  0  1  0  0  0  0  0  0
  162.1340  211.2200  148.6530 N   0  0  0  0  0  2  0  0  0  0  0  0
  162.7060  213.5170  146.7460 N   0  0  0  0  0  0  0  0  0  0  0  0
  161.6040  213.1240  146.2070 C   0  0  0  0  0  0  0  0  0  0  0  0
  163.6270  213.5330  144.1300 O   0  0  0  0  0  0  0  0  0  0  0  0
  162.3340  212.4430  142.4620 C   0  0  0  0  0  1  0  0  0  0  0  0
  162.5500  212.9500  143.8440 C   0  0  0  0  0  0  0  0  0  0  0  0
  161.5230  212.7570  144.8230 N   0  0  0  0  0  2  0  0  0  0  0  0
  162.6660  213.5790  148.1920 C   0  0  0  0  0  2  0  0  0  0  0  0
  160.3040  212.6880  147.3530 S   0  0  0  0  0  0  0  0  0  0  0  0
  161.5960  212.5830  148.6310 C   0  0  1  0  0  3  0  0  0  0  0  0
  1 10  2  0  0  0  0
  1 15  1  0  0  0  0
  2 14  1  6  0  0  0
  2  1  1  0  0  0  0
  4 11  1  0  0  0  0
  5  6  2  0  0  0  0
  5  9  1  0  0  0  0
  6 14  1  0  0  0  0
  7 19  1  6  0  0  0
  7  2  1  0  0  0  0
  7 13  1  0  0  0  0
  8 15  2  0  0  0  0
  9  4  2  0  0  0  0
 11  8  1  0  0  0  0
 12  5  1  0  0  0  0
 13  3  2  0  0  0  0
 13 10  1  0  0  0  0
 14 11  2  0  0  0  0
 16 17  1  0  0  0  0
 17  9  1  0  0  0  0
 17 18  1  1  0  0  0
 20 26  1  0  0  0  0
 21 20  2  0  0  0  0
 21 27  1  0  0  0  0
 23 24  1  0  0  0  0
 24 22  2  0  0  0  0
 24 25  1  0  0  0  0
 25 21  1  0  0  0  0
 26 28  1  0  0  0  0
 27 28  1  0  0  0  0
 28 19  1  6  0  0  0
M  END
>  <MODEL>
4

>  <REMARK>
 VINA RESULT:      -6.8      4.537      6.643
  Name = 
  3 active torsions:
  status: ('A' for Active; 'I' for Inactive)
    1  A    between atoms: C_14  and  N_28
    2  A    between atoms: C_17  and  C_24
    3  A    between atoms: C_22  and  N_28
                            x       y       z     vdW  Elec       q    Type
                         _______ _______ _______ _____ _____    ______ ____

>  <TORSDO>
F 3

$$$$
=
 OpenBabel11072411153D

 28 31  0  0  1  0  0  0  0  0999 V2000
  161.0140  207.3590  154.6540 C   0  0  0  0  0  0  0  0  0  0  0  0
  161.3420  208.5270  153.7740 C   0  0  2  0  0  3  0  0  0  0  0  0
  158.9690  209.5480  156.2460 N   0  0  0  0  0  2  0  0  0  0  0  0
  161.4990  206.4350  150.6410 N   0  0  0  0  0  0  0  0  0  0  0  0
  161.5900  208.7330  149.9900 C   0  0  0  0  0  0  0  0  0  0  0  0
  161.4770  209.1090  151.3270 C   0  0  0  0  0  3  0  0  0  0  0  0
  160.2760  209.5470  154.1750 C   0  0  1  0  0  3  0  0  0  0  0  0
  161.3760  205.7160  152.9770 C   0  0  0  0  0  3  0  0  0  0  0  0
  161.5730  207.3730  149.6560 C   0  0  0  0  0  0  0  0  0  0  0  0
  160.2590  207.6510  155.6590 N   0  0  0  0  0  0  0  0  0  0  0  0
  161.4010  206.7750  151.9510 C   0  0  0  0  0  0  0  0  0  0  0  0
  161.7560  209.6910  149.0410 F   0  0  0  0  0  0  0  0  0  0  0  0
  159.8830  209.0110  155.5080 C   0  0  0  0  0  0  0  0  0  0  0  0
  161.3430  208.1350  152.3240 C   0  0  0  0  0  0  0  0  0  0  0  0
  161.1980  206.0050  154.2310 N   0  0  0  0  0  0  0  0  0  0  0  0
  163.0730  207.1750  147.8740 F   0  0  0  0  0  0  0  0  0  0  0  0
  161.7610  206.9370  148.2410 C   0  0  1  0  0  3  0  0  0  0  0  0
  161.4340  205.4620  148.0990 C   0  0  0  0  0  1  0  0  0  0  0  0
  160.8510  210.8750  154.3190 N   0  0  0  0  0  2  0  0  0  0  0  0
  157.9170  211.3630  153.6970 N   0  0  0  0  0  0  0  0  0  0  0  0
  158.1010  212.3940  154.4470 C   0  0  0  0  0  0  0  0  0  0  0  0
  155.6400  211.0220  155.2440 O   0  0  0  0  0  0  0  0  0  0  0  0
  155.4400  212.2600  157.2610 C   0  0  0  0  0  1  0  0  0  0  0  0
  156.1150  211.9250  155.9780 C   0  0  0  0  0  0  0  0  0  0  0  0
  157.2990  212.6410  155.6100 N   0  0  0  0  0  2  0  0  0  0  0  0
  158.9790  211.1310  152.7410 C   0  0  0  0  0  2  0  0  0  0  0  0
  159.6400  213.2640  154.1870 S   0  0  0  0  0  0  0  0  0  0  0  0
  160.2330  211.7680  153.3360 C   0  0  1  0  0  3  0  0  0  0  0  0
  1 10  2  0  0  0  0
  2 14  1  6  0  0  0
  2  7  1  0  0  0  0
  2  1  1  0  0  0  0
  4 11  1  0  0  0  0
  5  6  2  0  0  0  0
  6 14  1  0  0  0  0
  7 19  1  1  0  0  0
  7 13  1  0  0  0  0
  8 15  2  0  0  0  0
  9  5  1  0  0  0  0
  9  4  2  0  0  0  0
 11 14  2  0  0  0  0
 11  8  1  0  0  0  0
 12  5  1  0  0  0  0
 13 10  1  0  0  0  0
 13  3  2  0  0  0  0
 15  1  1  0  0  0  0
 16 17  1  0  0  0  0
 17 18  1  1  0  0  0
 17  9  1  0  0  0  0
 20 21  2  0  0  0  0
 21 25  1  0  0  0  0
 22 24  2  0  0  0  0
 24 23  1  0  0  0  0
 25 24  1  0  0  0  0
 26 28  1  0  0  0  0
 26 20  1  0  0  0  0
 27 21  1  0  0  0  0
 28 27  1  0  0  0  0
 28 19  1  1  0  0  0
M  END
>  <MODEL>
5

>  <REMARK>
 VINA RESULT:      -6.7      3.149      4.915
  Name = 
  3 active torsions:
  status: ('A' for Active; 'I' for Inactive)
    1  A    between atoms: C_14  and  N_28
    2  A    between atoms: C_17  and  C_24
    3  A    between atoms: C_22  and  N_28
                            x       y       z     vdW  Elec       q    Type
                         _______ _______ _______ _____ _____    ______ ____

>  <TORSDO>
F 3

$$$$
=
 OpenBabel11072411153D

 28 31  0  0  1  0  0  0  0  0999 V2000
  160.8040  206.2410  146.8480 C   0  0  0  0  0  0  0  0  0  0  0  0
  160.6420  205.2890  147.9940 C   0  0  2  0  0  3  0  0  0  0  0  0
  162.3900  208.1970  149.1210 N   0  0  0  0  0  2  0  0  0  0  0  0
  161.2310  202.2370  145.8600 N   0  0  0  0  0  0  0  0  0  0  0  0
  161.2180  201.5380  148.1450 C   0  0  0  0  0  0  0  0  0  0  0  0
  161.0260  202.8610  148.5410 C   0  0  0  0  0  3  0  0  0  0  0  0
  161.5650  205.8930  149.0530 C   0  0  1  0  0  3  0  0  0  0  0  0
  160.8640  204.5580  145.1740 C   0  0  0  0  0  3  0  0  0  0  0  0
  161.3470  201.2430  146.7820 C   0  0  0  0  0  0  0  0  0  0  0  0
  161.3130  207.3810  147.1770 N   0  0  0  0  0  0  0  0  0  0  0  0
  161.0320  203.5300  146.2180 C   0  0  0  0  0  0  0  0  0  0  0  0
  161.2350  200.5580  149.0850 F   0  0  0  0  0  0  0  0  0  0  0  0
  161.6740  207.2890  148.5460 C   0  0  0  0  0  0  0  0  0  0  0  0
  160.9680  203.8820  147.5850 C   0  0  0  0  0  0  0  0  0  0  0  0
  160.7560  205.8150  145.4830 N   0  0  0  0  0  0  0  0  0  0  0  0
  161.3270  198.9910  147.4120 F   0  0  0  0  0  0  0  0  0  0  0  0
  161.4840  199.8290  146.3230 C   0  0  1  0  0  3  0  0  0  0  0  0
  160.4410  199.5170  145.2650 C   0  0  0  0  0  1  0  0  0  0  0  0
  160.9350  205.8830  150.3630 N   0  0  0  0  0  2  0  0  0  0  0  0
  162.3270  206.8020  152.9040 N   0  0  0  0  0  0  0  0  0  0  0  0
  161.3090  206.2460  153.4640 C   0  0  0  0  0  0  0  0  0  0  0  0
  161.7630  208.8870  154.6430 O   0  0  0  0  0  0  0  0  0  0  0  0
  159.6670  208.9000  155.7620 C   0  0  0  0  0  1  0  0  0  0  0  0
  160.6980  208.2670  154.8960 C   0  0  0  0  0  0  0  0  0  0  0  0
  160.4510  206.9610  154.3640 N   0  0  0  0  0  2  0  0  0  0  0  0
  162.9070  206.0240  151.8300 C   0  0  0  0  0  2  0  0  0  0  0  0
  160.8050  204.6840  152.7570 S   0  0  0  0  0  0  0  0  0  0  0  0
  161.7860  205.1370  151.2930 C   0  0  1  0  0  3  0  0  0  0  0  0
  1 10  2  0  0  0  0
  2  1  1  6  0  0  0
  2  7  1  0  0  0  0
  4 11  2  0  0  0  0
  4  9  1  0  0  0  0
  5  6  1  0  0  0  0
  5 12  1  0  0  0  0
  7 19  1  1  0  0  0
  8 15  2  0  0  0  0
  8 11  1  0  0  0  0
  9  5  2  0  0  0  0
 10 13  1  0  0  0  0
 11 14  1  0  0  0  0
 13  7  1  0  0  0  0
 13  3  2  0  0  0  0
 14  2  1  0  0  0  0
 14  6  2  0  0  0  0
 15  1  1  0  0  0  0
 17 18  1  6  0  0  0
 17  9  1  0  0  0  0
 17 16  1  0  0  0  0
 20 21  2  0  0  0  0
 21 25  1  0  0  0  0
 22 24  2  0  0  0  0
 24 23  1  0  0  0  0
 25 24  1  0  0  0  0
 26 20  1  0  0  0  0
 27 21  1  0  0  0  0
 28 19  1  6  0  0  0
 28 26  1  0  0  0  0
 28 27  1  0  0  0  0
M  END
>  <MODEL>
6

>  <REMARK>
 VINA RESULT:      -6.5      2.407      3.420
  Name = 
  3 active torsions:
  status: ('A' for Active; 'I' for Inactive)
    1  A    between atoms: C_14  and  N_28
    2  A    between atoms: C_17  and  C_24
    3  A    between atoms: C_22  and  N_28
                            x       y       z     vdW  Elec       q    Type
                         _______ _______ _______ _____ _____    ______ ____

>  <TORSDO>
F 3

$$$$
=
 OpenBabel11072411153D

 28 31  0  0  1  0  0  0  0  0999 V2000
  161.2530  207.3440  147.7690 C   0  0  0  0  0  0  0  0  0  0  0  0
  160.7620  206.9530  149.1300 C   0  0  2  0  0  3  0  0  0  0  0  0
  162.6240  209.9950  149.3830 N   0  0  0  0  0  2  0  0  0  0  0  0
  161.3460  203.2730  148.5500 N   0  0  0  0  0  0  0  0  0  0  0  0
  160.8200  203.5740  150.8620 C   0  0  0  0  0  0  0  0  0  0  0  0
  160.7270  204.9490  150.6550 C   0  0  0  0  0  3  0  0  0  0  0  0
  161.5410  207.8990  150.0430 C   0  0  1  0  0  3  0  0  0  0  0  0
  161.4090  205.1220  146.9470 C   0  0  0  0  0  3  0  0  0  0  0  0
  161.1610  202.7400  149.7890 C   0  0  0  0  0  0  0  0  0  0  0  0
  161.8330  208.4970  147.7290 N   0  0  0  0  0  0  0  0  0  0  0  0
  161.2490  204.6070  148.3190 C   0  0  0  0  0  0  0  0  0  0  0  0
  160.5380  203.0650  152.0890 F   0  0  0  0  0  0  0  0  0  0  0  0
  161.9180  208.9600  149.0670 C   0  0  0  0  0  0  0  0  0  0  0  0
  160.9780  205.4890  149.3880 C   0  0  0  0  0  0  0  0  0  0  0  0
  161.4060  206.3980  146.7070 N   0  0  0  0  0  0  0  0  0  0  0  0
  160.0010  200.8430  150.5130 F   0  0  0  0  0  0  0  0  0  0  0  0
  161.2010  201.2590  149.9630 C   0  0  1  0  0  3  0  0  0  0  0  0
  161.4290  200.5790  148.6260 C   0  0  0  0  0  1  0  0  0  0  0  0
  160.6830  208.4530  151.0770 N   0  0  0  0  0  2  0  0  0  0  0  0
  160.1690  209.9070  153.6960 N   0  0  0  0  0  0  0  0  0  0  0  0
  161.2030  209.2400  154.0770 C   0  0  0  0  0  0  0  0  0  0  0  0
  159.0930  209.0240  156.0950 O   0  0  0  0  0  0  0  0  0  0  0  0
  160.1960  207.2720  157.2600 C   0  0  0  0  0  1  0  0  0  0  0  0
  160.1030  208.2790  156.1690 C   0  0  0  0  0  0  0  0  0  0  0  0
  161.1710  208.3740  155.2200 N   0  0  0  0  0  2  0  0  0  0  0  0
  160.3020  210.5040  152.3850 C   0  0  0  0  0  2  0  0  0  0  0  0
  162.5340  209.1480  152.8880 S   0  0  0  0  0  0  0  0  0  0  0  0
  161.3190  209.6510  151.6300 C   0  0  1  0  0  3  0  0  0  0  0  0
  2  1  1  6  0  0  0
  2 14  1  0  0  0  0
  2  7  1  0  0  0  0
  4  9  1  0  0  0  0
  5 12  1  0  0  0  0
  6  5  1  0  0  0  0
  7 19  1  1  0  0  0
  8 11  1  0  0  0  0
  9 17  1  0  0  0  0
  9  5  2  0  0  0  0
 10  1  2  0  0  0  0
 10 13  1  0  0  0  0
 11  4  2  0  0  0  0
 11 14  1  0  0  0  0
 13  3  2  0  0  0  0
 13  7  1  0  0  0  0
 14  6  2  0  0  0  0
 15  8  2  0  0  0  0
 15  1  1  0  0  0  0
 17 18  1  6  0  0  0
 17 16  1  0  0  0  0
 20 21  2  0  0  0  0
 21 25  1  0  0  0  0
 22 24  2  0  0  0  0
 24 23  1  0  0  0  0
 25 24  1  0  0  0  0
 26 20  1  0  0  0  0
 27 21  1  0  0  0  0
 28 19  1  1  0  0  0
 28 26  1  0  0  0  0
 28 27  1  0  0  0  0
M  END
>  <MODEL>
7

>  <REMARK>
 VINA RESULT:      -6.4      1.600      1.794
  Name = 
  3 active torsions:
  status: ('A' for Active; 'I' for Inactive)
    1  A    between atoms: C_14  and  N_28
    2  A    between atoms: C_17  and  C_24
    3  A    between atoms: C_22  and  N_28
                            x       y       z     vdW  Elec       q    Type
                         _______ _______ _______ _____ _____    ______ ____

>  <TORSDO>
F 3

$$$$
=
 OpenBabel11072411153D

 28 31  0  0  1  0  0  0  0  0999 V2000
  161.2990  206.7560  150.9550 C   0  0  0  0  0  0  0  0  0  0  0  0
  161.0030  208.2190  151.0910 C   0  0  2  0  0  3  0  0  0  0  0  0
  163.0820  207.7030  148.2290 N   0  0  0  0  0  2  0  0  0  0  0  0
  161.2380  208.1650  154.8540 N   0  0  0  0  0  0  0  0  0  0  0  0
  161.1050  210.4490  154.1630 C   0  0  0  0  0  0  0  0  0  0  0  0
  161.0740  210.0370  152.8330 C   0  0  0  0  0  3  0  0  0  0  0  0
  161.9780  208.8430  150.0940 C   0  0  1  0  0  3  0  0  0  0  0  0
  161.1730  206.2910  153.2810 C   0  0  0  0  0  3  0  0  0  0  0  0
  161.2160  209.4880  155.1760 C   0  0  0  0  0  0  0  0  0  0  0  0
  161.9410  206.4460  149.8800 N   0  0  0  0  0  0  0  0  0  0  0  0
  161.1970  207.7370  153.5670 C   0  0  0  0  0  0  0  0  0  0  0  0
  160.9860  211.7700  154.4550 F   0  0  0  0  0  0  0  0  0  0  0  0
  162.2670  207.6650  149.2310 C   0  0  0  0  0  0  0  0  0  0  0  0
  161.1570  208.6770  152.5130 C   0  0  0  0  0  0  0  0  0  0  0  0
  161.2180  205.8500  152.0600 N   0  0  0  0  0  0  0  0  0  0  0  0
  160.2120  209.1490  157.2610 F   0  0  0  0  0  0  0  0  0  0  0  0
  161.1830  209.8920  156.6120 C   0  0  1  0  0  3  0  0  0  0  0  0
  162.5380  209.6610  157.2550 C   0  0  0  0  0  1  0  0  0  0  0  0
  161.3320  209.8880  149.3150 N   0  0  0  0  0  2  0  0  0  0  0  0
  161.8490  212.1940  147.4040 N   0  0  0  0  0  0  0  0  0  0  0  0
  160.8420  212.7100  148.0190 C   0  0  0  0  0  0  0  0  0  0  0  0
  160.4960  213.0180  145.1280 O   0  0  0  0  0  0  0  0  0  0  0  0
  158.2200  213.6690  145.3310 C   0  0  0  0  0  1  0  0  0  0  0  0
  159.5330  213.2620  145.8990 C   0  0  0  0  0  0  0  0  0  0  0  0
  159.6700  213.1530  147.3210 N   0  0  0  0  0  2  0  0  0  0  0  0
  162.8120  211.5590  148.2790 C   0  0  0  0  0  2  0  0  0  0  0  0
  160.8260  212.4770  149.7910 S   0  0  0  0  0  0  0  0  0  0  0  0
  162.0430  211.1490  149.5330 C   0  0  1  0  0  3  0  0  0  0  0  0
  1 15  1  0  0  0  0
  2  1  1  1  0  0  0
  2 14  1  0  0  0  0
  3 13  2  0  0  0  0
  4  9  1  0  0  0  0
  5 12  1  0  0  0  0
  5  9  2  0  0  0  0
  6  5  1  0  0  0  0
  7 19  1  6  0  0  0
  7  2  1  0  0  0  0
  8 11  1  0  0  0  0
  9 17  1  0  0  0  0
 10  1  2  0  0  0  0
 11  4  2  0  0  0  0
 13 10  1  0  0  0  0
 13  7  1  0  0  0  0
 14  6  2  0  0  0  0
 14 11  1  0  0  0  0
 15  8  2  0  0  0  0
 17 18  1  1  0  0  0
 17 16  1  0  0  0  0
 20 21  2  0  0  0  0
 20 26  1  0  0  0  0
 21 27  1  0  0  0  0
 22 24  2  0  0  0  0
 23 24  1  0  0  0  0
 24 25  1  0  0  0  0
 25 21  1  0  0  0  0
 26 28  1  0  0  0  0
 28 19  1  6  0  0  0
 28 27  1  0  0  0  0
M  END
>  <MODEL>
8

>  <REMARK>
 VINA RESULT:      -6.0      4.308      7.118
  Name = 
  3 active torsions:
  status: ('A' for Active; 'I' for Inactive)
    1  A    between atoms: C_14  and  N_28
    2  A    between atoms: C_17  and  C_24
    3  A    between atoms: C_22  and  N_28
                            x       y       z     vdW  Elec       q    Type
                         _______ _______ _______ _____ _____    ______ ____

>  <TORSDO>
F 3

$$$$
=
 OpenBabel11072411153D

 28 31  0  0  1  0  0  0  0  0999 V2000
  161.0290  206.6140  146.9690 C   0  0  0  0  0  0  0  0  0  0  0  0
  160.7470  206.0150  148.3130 C   0  0  2  0  0  3  0  0  0  0  0  0
  162.4060  209.1510  148.7510 N   0  0  0  0  0  2  0  0  0  0  0  0
  161.5090  202.5010  147.1770 N   0  0  0  0  0  0  0  0  0  0  0  0
  161.2650  202.4630  149.5550 C   0  0  0  0  0  0  0  0  0  0  0  0
  161.0500  203.8400  149.5470 C   0  0  0  0  0  3  0  0  0  0  0  0
  161.5680  206.9030  149.2460 C   0  0  1  0  0  3  0  0  0  0  0  0
  161.2340  204.5340  145.8420 C   0  0  0  0  0  3  0  0  0  0  0  0
  161.5230  201.8030  148.3460 C   0  0  0  0  0  0  0  0  0  0  0  0
  161.5160  207.8080  147.0160 N   0  0  0  0  0  0  0  0  0  0  0  0
  161.2890  203.8390  147.1420 C   0  0  0  0  0  0  0  0  0  0  0  0
  161.1800  201.7820  150.7270 F   0  0  0  0  0  0  0  0  0  0  0  0
  161.7400  208.1060  148.3850 C   0  0  0  0  0  0  0  0  0  0  0  0
  161.0960  204.5540  148.3440 C   0  0  0  0  0  0  0  0  0  0  0  0
  161.1100  205.8250  145.7780 N   0  0  0  0  0  0  0  0  0  0  0  0
  160.7180  199.7460  149.1130 F   0  0  0  0  0  0  0  0  0  0  0  0
  161.6900  200.3200  148.3130 C   0  0  1  0  0  3  0  0  0  0  0  0
  161.5680  199.8100  146.8890 C   0  0  0  0  0  1  0  0  0  0  0  0
  160.8130  207.2470  150.4400 N   0  0  0  0  0  2  0  0  0  0  0  0
  161.7030  209.4680  152.3150 N   0  0  0  0  0  0  0  0  0  0  0  0
  160.7820  208.9750  153.0670 C   0  0  0  0  0  0  0  0  0  0  0  0
  160.5190  211.8890  152.9700 O   0  0  0  0  0  0  0  0  0  0  0  0
  158.3700  211.8670  153.9830 C   0  0  0  0  0  1  0  0  0  0  0  0
  159.5970  211.1970  153.4750 C   0  0  0  0  0  0  0  0  0  0  0  0
  159.7010  209.7720  153.5690 N   0  0  0  0  0  2  0  0  0  0  0  0
  162.5460  208.4740  151.6860 C   0  0  0  0  0  2  0  0  0  0  0  0
  160.7100  207.1890  153.1190 S   0  0  0  0  0  0  0  0  0  0  0  0
  161.7090  207.2000  151.5980 C   0  0  1  0  0  3  0  0  0  0  0  0
  1 10  2  0  0  0  0
  2  1  1  6  0  0  0
  2 14  1  0  0  0  0
  2  7  1  0  0  0  0
  4  9  1  0  0  0  0
  5 12  1  0  0  0  0
  6  5  1  0  0  0  0
  7 19  1  1  0  0  0
  8 11  1  0  0  0  0
  9  5  2  0  0  0  0
 10 13  1  0  0  0  0
 11  4  2  0  0  0  0
 11 14  1  0  0  0  0
 13  3  2  0  0  0  0
 13  7  1  0  0  0  0
 14  6  2  0  0  0  0
 15  8  2  0  0  0  0
 15  1  1  0  0  0  0
 17 18  1  6  0  0  0
 17  9  1  0  0  0  0
 17 16  1  0  0  0  0
 20 21  2  0  0  0  0
 21 27  1  0  0  0  0
 21 25  1  0  0  0  0
 22 24  2  0  0  0  0
 24 25  1  0  0  0  0
 24 23  1  0  0  0  0
 26 20  1  0  0  0  0
 28 19  1  6  0  0  0
 28 26  1  0  0  0  0
 28 27  1  0  0  0  0
M  END
>  <MODEL>
9

>  <REMARK>
 VINA RESULT:      -5.7      1.595      2.083
  Name = 
  3 active torsions:
  status: ('A' for Active; 'I' for Inactive)
    1  A    between atoms: C_14  and  N_28
    2  A    between atoms: C_17  and  C_24
    3  A    between atoms: C_22  and  N_28
                            x       y       z     vdW  Elec       q    Type
                         _______ _______ _______ _____ _____    ______ ____

>  <TORSDO>
F 3

$$$$
