=
 OpenBabel11072414523D

 47 51  0  0  1  0  0  0  0  0999 V2000
  160.2750  209.3360  153.5530 C   0  0  0  0  0  2  0  0  0  0  0  0
  161.0420  208.0380  153.3220 C   0  0  0  0  0  0  0  0  0  0  0  0
  160.3720  206.7760  153.8400 C   0  0  0  0  0  2  0  0  0  0  0  0
  161.5450  207.3750  154.5950 C   0  0  0  0  0  2  0  0  0  0  0  0
  160.9320  206.5750  149.0400 C   0  0  0  0  0  0  0  0  0  0  0  0
  161.8830  207.8920  152.0370 C   0  0  1  0  0  3  0  0  0  0  0  0
  161.6400  205.5180  149.8440 C   0  0  1  0  0  3  0  0  0  0  0  0
  161.3460  205.6610  151.2080 O   0  0  0  0  0  0  0  0  0  0  0  0
  162.9490  205.8540  152.8420 O   0  0  0  0  0  1  0  0  0  0  0  0
  162.3760  206.4590  151.7200 C   0  0  2  0  0  3  0  0  0  0  0  0
  162.2070  208.7780  149.9960 C   0  0  0  0  0  2  0  0  0  0  0  0
  159.7180  206.5360  148.8870 O   0  0  0  0  0  0  0  0  0  0  0  0
  161.8640  207.9670  148.3860 S   0  0  0  0  0  0  0  0  0  0  0  0
  161.2200  208.4770  150.9440 O   0  0  0  0  0  0  0  0  0  0  0  0
  161.3100  204.1310  149.3630 C   0  0  0  0  0  0  0  0  0  0  0  0
  160.3220  200.2990  148.0760 F   0  0  0  0  0  0  0  0  0  0  0  0
  160.7160  203.2100  150.2420 C   0  0  0  0  0  3  0  0  0  0  0  0
  161.2310  202.4560  147.5990 C   0  0  0  0  0  0  0  0  0  0  0  0
  161.4900  202.0700  146.3250 F   0  0  0  0  0  0  0  0  0  0  0  0
  160.3880  201.9250  149.8080 C   0  0  0  0  0  3  0  0  0  0  0  0
  160.6470  201.5470  148.4890 C   0  0  0  0  0  0  0  0  0  0  0  0
  161.5700  203.7500  148.0300 C   0  0  0  0  0  0  0  0  0  0  0  0
  161.2190  205.0210  146.0660 O   0  0  0  0  0  1  0  0  0  0  0  0
  162.1620  204.7170  147.0530 C   0  0  0  0  0  2  0  0  0  0  0  0
  159.0130  211.2270  152.3440 C   0  0  2  0  0  3  0  0  0  0  0  0
  160.0600  210.1090  152.2510 C   0  0  1  0  0  3  0  0  0  0  0  0
  160.4910  211.5570  152.3910 C   0  0  1  0  0  3  0  0  0  0  0  0
  160.9040  212.1130  151.0410 C   0  0  0  0  0  2  0  0  0  0  0  0
  158.8330  214.3180  148.7150 N   0  0  0  0  0  1  0  0  0  0  0  0
  159.8580  213.4350  149.1550 C   0  0  0  0  0  0  0  0  0  0  0  0
  160.7390  213.0480  148.3450 O   0  0  0  0  0  0  0  0  0  0  0  0
  159.8710  212.9940  150.5150 N   0  0  0  0  0  2  0  0  0  0  0  0
  158.4110  211.4570  153.7230 C   0  0  0  0  0  2  0  0  0  0  0  0
  157.5360  212.6930  153.6890 C   0  0  0  0  0  2  0  0  0  0  0  0
  157.9070  213.6070  154.8480 C   0  0  0  0  0  2  0  0  0  0  0  0
  158.3210  212.8160  156.0880 C   0  0  2  0  0  3  0  0  0  0  0  0
  157.5750  213.2360  157.2080 O   0  0  0  0  0  0  0  0  0  0  0  0
  156.4000  211.3780  156.4250 O   0  0  0  0  0  1  0  0  0  0  0  0
  155.1470  213.3690  156.9510 C   0  0  0  0  0  1  0  0  0  0  0  0
  156.3650  212.5030  157.2570 C   0  0  2  0  0  3  0  0  0  0  0  0
  159.8160  212.9570  156.3760 C   0  0  0  0  0  2  0  0  0  0  0  0
  160.4600  211.6370  156.6700 C   0  0  0  0  0  0  0  0  0  0  0  0
  162.4600  210.2570  156.7270 C   0  0  0  0  0  3  0  0  0  0  0  0
  161.6860  209.1530  157.1010 C   0  0  0  0  0  3  0  0  0  0  0  0
  159.6870  210.5260  157.0350 C   0  0  0  0  0  3  0  0  0  0  0  0
  160.3020  209.2870  157.2570 C   0  0  0  0  0  3  0  0  0  0  0  0
  161.8470  211.4970  156.5120 C   0  0  0  0  0  3  0  0  0  0  0  0
  2  1  1  0  0  0  0
  2  3  1  0  0  0  0
  2  4  1  0  0  0  0
  3  4  1  0  0  0  0
  5  7  1  0  0  0  0
  6  2  1  1  0  0  0
  7 15  1  6  0  0  0
  7  8  1  0  0  0  0
  8 10  1  0  0  0  0
 10  6  1  0  0  0  0
 10  9  1  1  0  0  0
 11 14  1  0  0  0  0
 12  5  2  0  0  0  0
 13  5  1  0  0  0  0
 13 11  1  0  0  0  0
 14  6  1  0  0  0  0
 15 17  1  0  0  0  0
 16 21  1  0  0  0  0
 18 22  1  0  0  0  0
 18 21  2  0  0  0  0
 19 18  1  0  0  0  0
 20 17  2  0  0  0  0
 21 20  1  0  0  0  0
 22 15  2  0  0  0  0
 23 24  1  0  0  0  0
 24 22  1  0  0  0  0
 25 27  1  0  0  0  0
 25 33  1  1  0  0  0
 26 25  1  0  0  0  0
 26 27  1  0  0  0  0
 26  1  1  1  0  0  0
 27 28  1  6  0  0  0
 29 30  1  0  0  0  0
 30 32  1  0  0  0  0
 31 30  2  0  0  0  0
 32 28  1  0  0  0  0
 34 33  1  0  0  0  0
 34 35  1  0  0  0  0
 36 35  1  6  0  0  0
 36 41  1  0  0  0  0
 36 37  1  0  0  0  0
 37 40  1  0  0  0  0
 38 40  1  0  0  0  0
 40 39  1  6  0  0  0
 41 42  1  0  0  0  0
 42 45  1  0  0  0  0
 43 44  2  0  0  0  0
 44 46  1  0  0  0  0
 45 46  2  0  0  0  0
 47 42  2  0  0  0  0
 47 43  1  0  0  0  0
M  END
>  <MODEL>
1

>  <REMARK>
 VINA RESULT:      -6.6      0.000      0.000
  Name = 
  15 active torsions:
  status: ('A' for Active; 'I' for Inactive)
    1  A    between atoms: C_2  and  C_22
    2  A    between atoms: C_3  and  N_20
    3  A    between atoms: C_3  and  C_45
    4  A    between atoms: C_4  and  C_9
    5  A    between atoms: C_6  and  C_19
    6  A    between atoms: C_6  and  C_25
    7  A    between atoms: C_9  and  C_12
    8  A    between atoms: C_10  and  C_44
    9  A    between atoms: C_12  and  C_38
   10  A    between atoms: C_19  and  C_32
   11  A    between atoms: C_21  and  O_36
   12  A    between atoms: C_25  and  O_36
   13  A    between atoms: C_25  and  C_44
   14  A    between atoms: C_32  and  C_35
   15  A    between atoms: C_46  and  C_47
                            x       y       z     vdW  Elec       q    Type
                         _______ _______ _______ _____ _____    ______ ____

>  <TORSDO>
F 15

$$$$
=
 OpenBabel11072414523D

 47 51  0  0  1  0  0  0  0  0999 V2000
  161.2500  209.0450  152.3830 C   0  0  0  0  0  2  0  0  0  0  0  0
  160.9280  209.5500  153.7850 C   0  0  0  0  0  0  0  0  0  0  0  0
  161.5470  208.7630  154.9270 C   0  0  0  0  0  2  0  0  0  0  0  0
  160.0720  208.6010  154.6080 C   0  0  0  0  0  2  0  0  0  0  0  0
  157.8680  212.8540  154.2510 C   0  0  0  0  0  0  0  0  0  0  0  0
  160.7620  211.0680  154.0060 C   0  0  1  0  0  3  0  0  0  0  0  0
  158.3800  212.9290  152.8380 C   0  0  1  0  0  3  0  0  0  0  0  0
  158.9820  211.7180  152.4690 O   0  0  0  0  0  0  0  0  0  0  0  0
  161.1210  211.5590  151.6470 O   0  0  0  0  0  1  0  0  0  0  0  0
  160.3420  211.8850  152.7600 C   0  0  2  0  0  3  0  0  0  0  0  0
  160.2380  212.6060  155.5610 C   0  0  0  0  0  2  0  0  0  0  0  0
  156.8930  212.1680  154.5270 O   0  0  0  0  0  0  0  0  0  0  0  0
  158.7610  213.6950  155.5660 S   0  0  0  0  0  0  0  0  0  0  0  0
  159.9250  211.3170  155.1080 O   0  0  0  0  0  0  0  0  0  0  0  0
  157.2960  213.3120  151.8670 C   0  0  0  0  0  0  0  0  0  0  0  0
  154.2570  214.4160  149.2470 F   0  0  0  0  0  0  0  0  0  0  0  0
  155.9550  213.3150  152.2850 C   0  0  0  0  0  3  0  0  0  0  0  0
  156.5830  214.0670  149.6660 C   0  0  0  0  0  0  0  0  0  0  0  0
  156.8700  214.4170  148.3880 F   0  0  0  0  0  0  0  0  0  0  0  0
  154.9370  213.6830  151.4030 C   0  0  0  0  0  3  0  0  0  0  0  0
  155.2510  214.0570  150.0950 C   0  0  0  0  0  0  0  0  0  0  0  0
  157.6120  213.6910  150.5460 C   0  0  0  0  0  0  0  0  0  0  0  0
  159.1400  213.0990  148.8400 O   0  0  0  0  0  1  0  0  0  0  0  0
  159.0330  213.7420  150.0770 C   0  0  0  0  0  2  0  0  0  0  0  0
  161.3460  206.9540  150.8810 C   0  0  2  0  0  3  0  0  0  0  0  0
  161.1850  207.5180  152.2990 C   0  0  1  0  0  3  0  0  0  0  0  0
  162.5100  206.9320  151.8500 C   0  0  1  0  0  3  0  0  0  0  0  0
  162.6670  205.5210  152.3860 C   0  0  0  0  0  2  0  0  0  0  0  0
  159.7860  203.0220  152.5270 N   0  0  0  0  0  1  0  0  0  0  0  0
  161.0910  203.5420  152.3100 C   0  0  0  0  0  0  0  0  0  0  0  0
  161.9960  202.7930  151.8590 O   0  0  0  0  0  0  0  0  0  0  0  0
  161.3610  204.9150  152.6100 N   0  0  0  0  0  2  0  0  0  0  0  0
  161.6290  207.9760  149.7900 C   0  0  0  0  0  2  0  0  0  0  0  0
  162.2500  207.2790  148.5990 C   0  0  0  0  0  2  0  0  0  0  0  0
  161.2600  207.2750  147.4420 C   0  0  0  0  0  2  0  0  0  0  0  0
  161.5190  206.1200  146.4750 C   0  0  2  0  0  3  0  0  0  0  0  0
  160.3050  205.4920  146.1260 O   0  0  0  0  0  0  0  0  0  0  0  0
  159.6640  204.2050  144.2880 O   0  0  0  0  0  1  0  0  0  0  0  0
  161.5480  205.6880  144.0290 C   0  0  0  0  0  1  0  0  0  0  0  0
  160.2130  205.4210  144.7160 C   0  0  2  0  0  3  0  0  0  0  0  0
  162.4850  205.0930  147.0670 C   0  0  0  0  0  2  0  0  0  0  0  0
  161.7880  203.8300  147.4700 C   0  0  0  0  0  0  0  0  0  0  0  0
  161.0000  201.6050  146.8920 C   0  0  0  0  0  3  0  0  0  0  0  0
  160.3930  201.4950  148.1470 C   0  0  0  0  0  3  0  0  0  0  0  0
  161.1690  203.7200  148.7230 C   0  0  0  0  0  3  0  0  0  0  0  0
  160.4780  202.5490  149.0630 C   0  0  0  0  0  3  0  0  0  0  0  0
  161.6960  202.7720  146.5550 C   0  0  0  0  0  3  0  0  0  0  0  0
  1  2  1  0  0  0  0
  2  4  1  0  0  0  0
  2  3  1  0  0  0  0
  4  3  1  0  0  0  0
  5 12  2  0  0  0  0
  5 13  1  0  0  0  0
  6  2  1  6  0  0  0
  6 14  1  0  0  0  0
  7 15  1  6  0  0  0
  7  5  1  0  0  0  0
  8 10  1  0  0  0  0
  8  7  1  0  0  0  0
 10  9  1  6  0  0  0
 10  6  1  0  0  0  0
 11 13  1  0  0  0  0
 14 11  1  0  0  0  0
 15 17  1  0  0  0  0
 16 21  1  0  0  0  0
 18 21  2  0  0  0  0
 18 22  1  0  0  0  0
 19 18  1  0  0  0  0
 20 17  2  0  0  0  0
 21 20  1  0  0  0  0
 22 15  2  0  0  0  0
 23 24  1  0  0  0  0
 24 22  1  0  0  0  0
 25 33  1  6  0  0  0
 25 27  1  0  0  0  0
 25 26  1  0  0  0  0
 26  1  1  6  0  0  0
 27 26  1  0  0  0  0
 27 28  1  1  0  0  0
 28 32  1  0  0  0  0
 30 29  1  0  0  0  0
 30 32  1  0  0  0  0
 31 30  2  0  0  0  0
 34 33  1  0  0  0  0
 35 34  1  0  0  0  0
 36 41  1  1  0  0  0
 36 35  1  0  0  0  0
 37 36  1  0  0  0  0
 38 40  1  0  0  0  0
 40 39  1  6  0  0  0
 40 37  1  0  0  0  0
 41 42  1  0  0  0  0
 42 45  1  0  0  0  0
 43 44  2  0  0  0  0
 44 46  1  0  0  0  0
 45 46  2  0  0  0  0
 47 43  1  0  0  0  0
 47 42  2  0  0  0  0
M  END
>  <MODEL>
2

>  <REMARK>
 VINA RESULT:      -5.5      4.236     10.147
  Name = 
  15 active torsions:
  status: ('A' for Active; 'I' for Inactive)
    1  A    between atoms: C_2  and  C_22
    2  A    between atoms: C_3  and  N_20
    3  A    between atoms: C_3  and  C_45
    4  A    between atoms: C_4  and  C_9
    5  A    between atoms: C_6  and  C_19
    6  A    between atoms: C_6  and  C_25
    7  A    between atoms: C_9  and  C_12
    8  A    between atoms: C_10  and  C_44
    9  A    between atoms: C_12  and  C_38
   10  A    between atoms: C_19  and  C_32
   11  A    between atoms: C_21  and  O_36
   12  A    between atoms: C_25  and  O_36
   13  A    between atoms: C_25  and  C_44
   14  A    between atoms: C_32  and  C_35
   15  A    between atoms: C_46  and  C_47
                            x       y       z     vdW  Elec       q    Type
                         _______ _______ _______ _____ _____    ______ ____

>  <TORSDO>
F 15

$$$$
=
 OpenBabel11072414523D

 47 51  0  0  1  0  0  0  0  0999 V2000
  160.7400  208.6510  151.8850 C   0  0  0  0  0  2  0  0  0  0  0  0
  161.7770  209.2760  150.9580 C   0  0  0  0  0  0  0  0  0  0  0  0
  162.6940  210.3070  151.5950 C   0  0  0  0  0  2  0  0  0  0  0  0
  161.5620  210.7580  150.6900 C   0  0  0  0  0  2  0  0  0  0  0  0
  160.8790  205.9680  148.0020 C   0  0  0  0  0  0  0  0  0  0  0  0
  162.3910  208.4100  149.8390 C   0  0  1  0  0  3  0  0  0  0  0  0
  161.6210  205.3380  149.1500 C   0  0  1  0  0  3  0  0  0  0  0  0
  161.5580  206.1600  150.2850 O   0  0  0  0  0  0  0  0  0  0  0  0
  163.4090  206.8800  151.4380 O   0  0  0  0  0  1  0  0  0  0  0  0
  162.7150  206.9460  150.2280 C   0  0  2  0  0  3  0  0  0  0  0  0
  162.4560  208.1470  147.6070 C   0  0  0  0  0  2  0  0  0  0  0  0
  159.6570  206.0370  148.0100 O   0  0  0  0  0  0  0  0  0  0  0  0
  161.8010  206.7210  146.6550 S   0  0  0  0  0  0  0  0  0  0  0  0
  161.6110  208.4860  148.6720 O   0  0  0  0  0  0  0  0  0  0  0  0
  161.1130  203.9550  149.4560 C   0  0  0  0  0  0  0  0  0  0  0  0
  159.6350  200.1660  150.3380 F   0  0  0  0  0  0  0  0  0  0  0  0
  160.4780  203.7010  150.6830 C   0  0  0  0  0  3  0  0  0  0  0  0
  160.7420  201.6370  148.8150 C   0  0  0  0  0  0  0  0  0  0  0  0
  160.8770  200.6210  147.9270 F   0  0  0  0  0  0  0  0  0  0  0  0
  159.9860  202.4280  150.9780 C   0  0  0  0  0  3  0  0  0  0  0  0
  160.1190  201.3970  150.0460 C   0  0  0  0  0  0  0  0  0  0  0  0
  161.2460  202.9130  148.5150 C   0  0  0  0  0  0  0  0  0  0  0  0
  161.0430  202.6650  146.1710 O   0  0  0  0  0  1  0  0  0  0  0  0
  161.8770  203.1570  147.1800 C   0  0  0  0  0  2  0  0  0  0  0  0
  160.7910  209.7060  154.2350 C   0  0  2  0  0  3  0  0  0  0  0  0
  161.2490  208.5570  153.3260 C   0  0  1  0  0  3  0  0  0  0  0  0
  160.1050  208.3570  154.3020 C   0  0  1  0  0  3  0  0  0  0  0  0
  160.5950  207.6270  155.5400 C   0  0  0  0  0  2  0  0  0  0  0  0
  163.1430  209.8890  157.2590 N   0  0  0  0  0  1  0  0  0  0  0  0
  161.8850  209.3570  156.8600 C   0  0  0  0  0  0  0  0  0  0  0  0
  160.8220  209.8990  157.2590 O   0  0  0  0  0  0  0  0  0  0  0  0
  161.8450  208.2070  156.0100 N   0  0  0  0  0  2  0  0  0  0  0  0
  159.8420  210.7130  153.6020 C   0  0  0  0  0  2  0  0  0  0  0  0
  158.9270  211.2780  154.6690 C   0  0  0  0  0  2  0  0  0  0  0  0
  158.7110  212.7630  154.4140 C   0  0  0  0  0  2  0  0  0  0  0  0
  157.6820  213.0080  153.3110 C   0  0  2  0  0  3  0  0  0  0  0  0
  158.1800  213.9390  152.3760 O   0  0  0  0  0  0  0  0  0  0  0  0
  159.5230  213.7390  150.4780 O   0  0  0  0  0  1  0  0  0  0  0  0
  157.1510  213.3910  150.2260 C   0  0  0  0  0  1  0  0  0  0  0  0
  158.3710  213.2870  151.1340 C   0  0  2  0  0  3  0  0  0  0  0  0
  156.3510  213.5020  153.8790 C   0  0  0  0  0  2  0  0  0  0  0  0
  155.8180  212.5890  154.9400 C   0  0  0  0  0  0  0  0  0  0  0  0
  155.1700  212.2350  157.2550 C   0  0  0  0  0  3  0  0  0  0  0  0
  154.9290  210.8840  156.9800 C   0  0  0  0  0  3  0  0  0  0  0  0
  155.5840  211.2330  154.6690 C   0  0  0  0  0  3  0  0  0  0  0  0
  155.1330  210.3840  155.6890 C   0  0  0  0  0  3  0  0  0  0  0  0
  155.6140  213.0850  156.2360 C   0  0  0  0  0  3  0  0  0  0  0  0
  2  3  1  0  0  0  0
  2  1  1  0  0  0  0
  4  2  1  0  0  0  0
  4  3  1  0  0  0  0
  5 12  2  0  0  0  0
  5  7  1  0  0  0  0
  6 10  1  0  0  0  0
  6  2  1  1  0  0  0
  7 15  1  1  0  0  0
  7  8  1  0  0  0  0
 10  8  1  0  0  0  0
 10  9  1  1  0  0  0
 11 14  1  0  0  0  0
 13 11  1  0  0  0  0
 13  5  1  0  0  0  0
 14  6  1  0  0  0  0
 15 17  1  0  0  0  0
 17 20  2  0  0  0  0
 18 21  2  0  0  0  0
 19 18  1  0  0  0  0
 21 16  1  0  0  0  0
 21 20  1  0  0  0  0
 22 18  1  0  0  0  0
 22 15  2  0  0  0  0
 23 24  1  0  0  0  0
 24 22  1  0  0  0  0
 25 33  1  6  0  0  0
 25 27  1  0  0  0  0
 26  1  1  6  0  0  0
 26 25  1  0  0  0  0
 26 27  1  0  0  0  0
 27 28  1  1  0  0  0
 28 32  1  0  0  0  0
 30 31  2  0  0  0  0
 30 29  1  0  0  0  0
 32 30  1  0  0  0  0
 33 34  1  0  0  0  0
 35 34  1  0  0  0  0
 36 41  1  1  0  0  0
 36 35  1  0  0  0  0
 37 36  1  0  0  0  0
 38 40  1  0  0  0  0
 40 39  1  6  0  0  0
 40 37  1  0  0  0  0
 41 42  1  0  0  0  0
 42 47  1  0  0  0  0
 44 43  1  0  0  0  0
 45 42  2  0  0  0  0
 45 46  1  0  0  0  0
 46 44  2  0  0  0  0
 47 43  2  0  0  0  0
M  END
>  <MODEL>
3

>  <REMARK>
 VINA RESULT:      -5.2      2.537      4.505
  Name = 
  15 active torsions:
  status: ('A' for Active; 'I' for Inactive)
    1  A    between atoms: C_2  and  C_22
    2  A    between atoms: C_3  and  N_20
    3  A    between atoms: C_3  and  C_45
    4  A    between atoms: C_4  and  C_9
    5  A    between atoms: C_6  and  C_19
    6  A    between atoms: C_6  and  C_25
    7  A    between atoms: C_9  and  C_12
    8  A    between atoms: C_10  and  C_44
    9  A    between atoms: C_12  and  C_38
   10  A    between atoms: C_19  and  C_32
   11  A    between atoms: C_21  and  O_36
   12  A    between atoms: C_25  and  O_36
   13  A    between atoms: C_25  and  C_44
   14  A    between atoms: C_32  and  C_35
   15  A    between atoms: C_46  and  C_47
                            x       y       z     vdW  Elec       q    Type
                         _______ _______ _______ _____ _____    ______ ____

>  <TORSDO>
F 15

$$$$
=
 OpenBabel11072414523D

 47 51  0  0  1  0  0  0  0  0999 V2000
  162.3510  206.9110  152.0270 C   0  0  0  0  0  2  0  0  0  0  0  0
  161.7610  208.2720  152.3760 C   0  0  0  0  0  0  0  0  0  0  0  0
  160.5120  208.6660  151.6040 C   0  0  0  0  0  2  0  0  0  0  0  0
  161.8480  209.2960  151.2550 C   0  0  0  0  0  2  0  0  0  0  0  0
  159.3460  209.0210  156.1310 C   0  0  0  0  0  0  0  0  0  0  0  0
  161.8520  208.7710  153.8330 C   0  0  1  0  0  3  0  0  0  0  0  0
  159.5460  210.3560  155.4670 C   0  0  1  0  0  3  0  0  0  0  0  0
  159.8860  210.1870  154.1170 O   0  0  0  0  0  0  0  0  0  0  0  0
  161.7550  211.1070  153.1510 O   0  0  0  0  0  1  0  0  0  0  0  0
  161.2860  210.1880  154.0920 C   0  0  2  0  0  3  0  0  0  0  0  0
  161.8880  208.0680  155.9690 C   0  0  0  0  0  2  0  0  0  0  0  0
  158.3710  208.3310  155.8660 O   0  0  0  0  0  0  0  0  0  0  0  0
  160.6070  208.3840  157.2440 S   0  0  0  0  0  0  0  0  0  0  0  0
  161.3140  207.8170  154.7150 O   0  0  0  0  0  0  0  0  0  0  0  0
  158.3390  211.2430  155.6140 C   0  0  0  0  0  0  0  0  0  0  0  0
  155.0380  213.7310  156.0920 F   0  0  0  0  0  0  0  0  0  0  0  0
  157.7980  211.4800  156.8880 C   0  0  0  0  0  3  0  0  0  0  0  0
  156.6450  212.7020  154.6540 C   0  0  0  0  0  0  0  0  0  0  0  0
  156.0630  213.2890  153.5780 F   0  0  0  0  0  0  0  0  0  0  0  0
  156.6890  212.3120  157.0460 C   0  0  0  0  0  3  0  0  0  0  0  0
  156.1120  212.9220  155.9300 C   0  0  0  0  0  0  0  0  0  0  0  0
  157.7560  211.8600  154.4870 C   0  0  0  0  0  0  0  0  0  0  0  0
  158.9650  212.8430  152.7070 O   0  0  0  0  0  1  0  0  0  0  0  0
  158.3310  211.6660  153.1190 C   0  0  0  0  0  2  0  0  0  0  0  0
  160.8350  205.4400  150.5540 C   0  0  2  0  0  3  0  0  0  0  0  0
  161.2780  205.8220  151.9730 C   0  0  1  0  0  3  0  0  0  0  0  0
  161.8050  204.5590  151.3160 C   0  0  1  0  0  3  0  0  0  0  0  0
  161.0520  203.3470  151.8340 C   0  0  0  0  0  2  0  0  0  0  0  0
  159.2650  201.3330  149.1300 N   0  0  0  0  0  1  0  0  0  0  0  0
  160.2460  201.6980  150.0930 C   0  0  0  0  0  0  0  0  0  0  0  0
  161.2510  200.9620  150.2710 O   0  0  0  0  0  0  0  0  0  0  0  0
  160.0750  202.8980  150.8520 N   0  0  0  0  0  2  0  0  0  0  0  0
  161.5790  206.1290  149.4200 C   0  0  0  0  0  2  0  0  0  0  0  0
  162.2260  205.0840  148.5360 C   0  0  0  0  0  2  0  0  0  0  0  0
  161.1430  204.2820  147.8260 C   0  0  0  0  0  2  0  0  0  0  0  0
  161.6140  203.7720  146.4640 C   0  0  2  0  0  3  0  0  0  0  0  0
  162.1020  204.8390  145.6830 O   0  0  0  0  0  0  0  0  0  0  0  0
  161.6980  205.5620  143.5010 O   0  0  0  0  0  1  0  0  0  0  0  0
  160.1770  206.2770  145.2290 C   0  0  0  0  0  1  0  0  0  0  0  0
  161.1230  205.1940  144.7240 C   0  0  2  0  0  3  0  0  0  0  0  0
  160.4950  203.0480  145.7150 C   0  0  0  0  0  2  0  0  0  0  0  0
  160.6640  201.5600  145.7500 C   0  0  0  0  0  0  0  0  0  0  0  0
  161.6880  199.5990  146.7560 C   0  0  0  0  0  3  0  0  0  0  0  0
  161.0960  198.7900  145.7800 C   0  0  0  0  0  3  0  0  0  0  0  0
  160.0800  200.7480  144.7670 C   0  0  0  0  0  3  0  0  0  0  0  0
  160.2920  199.3620  144.7880 C   0  0  0  0  0  3  0  0  0  0  0  0
  161.4710  200.9820  146.7400 C   0  0  0  0  0  3  0  0  0  0  0  0
  1  2  1  0  0  0  0
  3  2  1  0  0  0  0
  4  3  1  0  0  0  0
  4  2  1  0  0  0  0
  5 13  1  0  0  0  0
  6  2  1  6  0  0  0
  6 10  1  0  0  0  0
  6 14  1  0  0  0  0
  7 15  1  6  0  0  0
  7  5  1  0  0  0  0
  8  7  1  0  0  0  0
 10  9  1  6  0  0  0
 10  8  1  0  0  0  0
 11 13  1  0  0  0  0
 12  5  2  0  0  0  0
 14 11  1  0  0  0  0
 15 17  1  0  0  0  0
 17 20  2  0  0  0  0
 18 21  2  0  0  0  0
 19 18  1  0  0  0  0
 21 16  1  0  0  0  0
 21 20  1  0  0  0  0
 22 18  1  0  0  0  0
 22 15  2  0  0  0  0
 23 24  1  0  0  0  0
 24 22  1  0  0  0  0
 25 33  1  6  0  0  0
 25 27  1  0  0  0  0
 25 26  1  0  0  0  0
 26  1  1  6  0  0  0
 27 28  1  1  0  0  0
 27 26  1  0  0  0  0
 29 30  1  0  0  0  0
 30 31  2  0  0  0  0
 30 32  1  0  0  0  0
 32 28  1  0  0  0  0
 34 33  1  0  0  0  0
 35 34  1  0  0  0  0
 36 41  1  6  0  0  0
 36 35  1  0  0  0  0
 37 36  1  0  0  0  0
 38 40  1  0  0  0  0
 40 39  1  1  0  0  0
 40 37  1  0  0  0  0
 41 42  1  0  0  0  0
 42 47  1  0  0  0  0
 44 43  1  0  0  0  0
 45 46  1  0  0  0  0
 45 42  2  0  0  0  0
 46 44  2  0  0  0  0
 47 43  2  0  0  0  0
M  END
>  <MODEL>
4

>  <REMARK>
 VINA RESULT:      -5.1      4.675     11.056
  Name = 
  15 active torsions:
  status: ('A' for Active; 'I' for Inactive)
    1  A    between atoms: C_2  and  C_22
    2  A    between atoms: C_3  and  N_20
    3  A    between atoms: C_3  and  C_45
    4  A    between atoms: C_4  and  C_9
    5  A    between atoms: C_6  and  C_19
    6  A    between atoms: C_6  and  C_25
    7  A    between atoms: C_9  and  C_12
    8  A    between atoms: C_10  and  C_44
    9  A    between atoms: C_12  and  C_38
   10  A    between atoms: C_19  and  C_32
   11  A    between atoms: C_21  and  O_36
   12  A    between atoms: C_25  and  O_36
   13  A    between atoms: C_25  and  C_44
   14  A    between atoms: C_32  and  C_35
   15  A    between atoms: C_46  and  C_47
                            x       y       z     vdW  Elec       q    Type
                         _______ _______ _______ _____ _____    ______ ____

>  <TORSDO>
F 15

$$$$
=
 OpenBabel11072414523D

 47 51  0  0  1  0  0  0  0  0999 V2000
  162.0740  210.1600  149.8150 C   0  0  0  0  0  2  0  0  0  0  0  0
  162.0310  208.6630  149.5250 C   0  0  0  0  0  0  0  0  0  0  0  0
  163.3390  208.0460  149.0580 C   0  0  0  0  0  2  0  0  0  0  0  0
  162.2250  208.3060  148.0590 C   0  0  0  0  0  2  0  0  0  0  0  0
  161.7320  204.6140  151.5250 C   0  0  0  0  0  0  0  0  0  0  0  0
  161.1160  207.7670  150.3840 C   0  0  1  0  0  3  0  0  0  0  0  0
  160.9280  204.5340  150.2550 C   0  0  1  0  0  3  0  0  0  0  0  0
  161.3050  205.5550  149.3710 O   0  0  0  0  0  0  0  0  0  0  0  0
  159.8250  207.0480  148.4470 O   0  0  0  0  0  1  0  0  0  0  0  0
  160.4180  206.6070  149.6310 C   0  0  2  0  0  3  0  0  0  0  0  0
  160.8150  206.9920  152.4730 C   0  0  0  0  0  2  0  0  0  0  0  0
  162.9200  204.3210  151.5320 O   0  0  0  0  0  0  0  0  0  0  0  0
  160.9660  205.2480  153.0230 S   0  0  0  0  0  0  0  0  0  0  0  0
  161.7970  207.3200  151.5300 O   0  0  0  0  0  0  0  0  0  0  0  0
  161.0420  203.1840  149.6020 C   0  0  0  0  0  0  0  0  0  0  0  0
  161.2930  199.4180  147.8470 F   0  0  0  0  0  0  0  0  0  0  0  0
  160.9570  202.0200  150.3840 C   0  0  0  0  0  3  0  0  0  0  0  0
  161.2920  201.7970  147.6170 C   0  0  0  0  0  0  0  0  0  0  0  0
  161.4720  201.6710  146.2790 F   0  0  0  0  0  0  0  0  0  0  0  0
  161.0440  200.7590  149.7940 C   0  0  0  0  0  3  0  0  0  0  0  0
  161.2130  200.6470  148.4130 C   0  0  0  0  0  0  0  0  0  0  0  0
  161.2120  203.0700  148.2060 C   0  0  0  0  0  0  0  0  0  0  0  0
  162.5570  204.4390  146.8240 O   0  0  0  0  0  1  0  0  0  0  0  0
  161.2640  204.2850  147.3340 C   0  0  0  0  0  2  0  0  0  0  0  0
  161.0100  212.3270  148.9180 C   0  0  2  0  0  3  0  0  0  0  0  0
  161.6850  210.9880  148.5880 C   0  0  1  0  0  3  0  0  0  0  0  0
  162.4720  212.2840  148.5240 C   0  0  1  0  0  3  0  0  0  0  0  0
  162.5990  212.7480  147.0850 C   0  0  0  0  0  2  0  0  0  0  0  0
  159.7160  214.4470  145.2520 N   0  0  0  0  0  1  0  0  0  0  0  0
  160.7510  213.5140  145.5360 C   0  0  0  0  0  0  0  0  0  0  0  0
  160.9910  212.5800  144.7290 O   0  0  0  0  0  0  0  0  0  0  0  0
  161.5070  213.6490  146.7430 N   0  0  0  0  0  2  0  0  0  0  0  0
  160.9050  212.6700  150.3970 C   0  0  0  0  0  2  0  0  0  0  0  0
  159.4820  213.0760  150.7170 C   0  0  0  0  0  2  0  0  0  0  0  0
  159.3760  213.4220  152.1960 C   0  0  0  0  0  2  0  0  0  0  0  0
  158.0090  213.0540  152.7710 C   0  0  2  0  0  3  0  0  0  0  0  0
  157.6150  213.9990  153.7410 O   0  0  0  0  0  0  0  0  0  0  0  0
  155.3300  213.7360  154.1400 O   0  0  0  0  0  1  0  0  0  0  0  0
  156.0200  214.4440  151.9410 C   0  0  0  0  0  1  0  0  0  0  0  0
  156.3080  214.4520  153.4380 C   0  0  2  0  0  3  0  0  0  0  0  0
  158.0110  211.6520  153.3810 C   0  0  0  0  0  2  0  0  0  0  0  0
  159.3430  211.2930  153.9630 C   0  0  0  0  0  0  0  0  0  0  0  0
  160.9420  211.4720  155.7830 C   0  0  0  0  0  3  0  0  0  0  0  0
  161.8710  210.7360  155.0400 C   0  0  0  0  0  3  0  0  0  0  0  0
  160.2790  210.5630  153.2160 C   0  0  0  0  0  3  0  0  0  0  0  0
  161.5400  210.2790  153.7590 C   0  0  0  0  0  3  0  0  0  0  0  0
  159.6810  211.7500  155.2450 C   0  0  0  0  0  3  0  0  0  0  0  0
  2  1  1  0  0  0  0
  3  2  1  0  0  0  0
  4  3  1  0  0  0  0
  4  2  1  0  0  0  0
  5 12  2  0  0  0  0
  5 13  1  0  0  0  0
  6  2  1  6  0  0  0
  6 14  1  0  0  0  0
  7 15  1  6  0  0  0
  7  5  1  0  0  0  0
  8 10  1  0  0  0  0
  8  7  1  0  0  0  0
 10  9  1  6  0  0  0
 10  6  1  0  0  0  0
 11 13  1  0  0  0  0
 14 11  1  0  0  0  0
 15 17  1  0  0  0  0
 16 21  1  0  0  0  0
 18 22  1  0  0  0  0
 18 21  2  0  0  0  0
 19 18  1  0  0  0  0
 20 17  2  0  0  0  0
 21 20  1  0  0  0  0
 22 15  2  0  0  0  0
 23 24  1  0  0  0  0
 24 22  1  0  0  0  0
 25 33  1  1  0  0  0
 26 25  1  0  0  0  0
 26  1  1  1  0  0  0
 27 28  1  6  0  0  0
 27 26  1  0  0  0  0
 27 25  1  0  0  0  0
 29 30  1  0  0  0  0
 30 32  1  0  0  0  0
 31 30  2  0  0  0  0
 32 28  1  0  0  0  0
 33 34  1  0  0  0  0
 34 35  1  0  0  0  0
 36 35  1  1  0  0  0
 36 41  1  0  0  0  0
 36 37  1  0  0  0  0
 40 39  1  6  0  0  0
 40 37  1  0  0  0  0
 40 38  1  0  0  0  0
 41 42  1  0  0  0  0
 42 47  1  0  0  0  0
 44 43  1  0  0  0  0
 45 46  1  0  0  0  0
 45 42  2  0  0  0  0
 46 44  2  0  0  0  0
 47 43  2  0  0  0  0
M  END
>  <MODEL>
5

>  <REMARK>
 VINA RESULT:      -5.0      2.116      3.475
  Name = 
  15 active torsions:
  status: ('A' for Active; 'I' for Inactive)
    1  A    between atoms: C_2  and  C_22
    2  A    between atoms: C_3  and  N_20
    3  A    between atoms: C_3  and  C_45
    4  A    between atoms: C_4  and  C_9
    5  A    between atoms: C_6  and  C_19
    6  A    between atoms: C_6  and  C_25
    7  A    between atoms: C_9  and  C_12
    8  A    between atoms: C_10  and  C_44
    9  A    between atoms: C_12  and  C_38
   10  A    between atoms: C_19  and  C_32
   11  A    between atoms: C_21  and  O_36
   12  A    between atoms: C_25  and  O_36
   13  A    between atoms: C_25  and  C_44
   14  A    between atoms: C_32  and  C_35
   15  A    between atoms: C_46  and  C_47
                            x       y       z     vdW  Elec       q    Type
                         _______ _______ _______ _____ _____    ______ ____

>  <TORSDO>
F 15

$$$$
=
 OpenBabel11072414523D

 47 51  0  0  1  0  0  0  0  0999 V2000
  160.7890  207.9400  152.0830 C   0  0  0  0  0  2  0  0  0  0  0  0
  160.8690  208.5090  153.4950 C   0  0  0  0  0  0  0  0  0  0  0  0
  161.5440  207.6200  154.5260 C   0  0  0  0  0  2  0  0  0  0  0  0
  160.0320  207.7580  154.5190 C   0  0  0  0  0  2  0  0  0  0  0  0
  159.1580  212.5460  152.3720 C   0  0  0  0  0  0  0  0  0  0  0  0
  161.0550  210.0300  153.6730 C   0  0  1  0  0  3  0  0  0  0  0  0
  160.3530  212.3170  151.4870 C   0  0  1  0  0  3  0  0  0  0  0  0
  160.6790  210.9540  151.4460 O   0  0  0  0  0  0  0  0  0  0  0  0
  162.7650  210.1300  151.9410 O   0  0  0  0  0  1  0  0  0  0  0  0
  161.6390  210.7800  152.4500 C   0  0  2  0  0  3  0  0  0  0  0  0
  160.2380  211.8210  154.7590 C   0  0  0  0  0  2  0  0  0  0  0  0
  158.0420  212.1850  152.0210 O   0  0  0  0  0  0  0  0  0  0  0  0
  159.3860  213.2620  154.0050 S   0  0  0  0  0  0  0  0  0  0  0  0
  159.8670  210.6220  154.1370 O   0  0  0  0  0  0  0  0  0  0  0  0
  160.1390  212.8630  150.1010 C   0  0  0  0  0  0  0  0  0  0  0  0
  159.5270  214.4530  146.3040 F   0  0  0  0  0  0  0  0  0  0  0  0
  159.0620  213.7300  149.8510 C   0  0  0  0  0  3  0  0  0  0  0  0
  160.8140  213.0760  147.7720 C   0  0  0  0  0  0  0  0  0  0  0  0
  161.6450  212.7550  146.7490 F   0  0  0  0  0  0  0  0  0  0  0  0
  158.8580  214.2590  148.5760 C   0  0  0  0  0  3  0  0  0  0  0  0
  159.7310  213.9320  147.5370 C   0  0  0  0  0  0  0  0  0  0  0  0
  161.0230  212.5340  149.0510 C   0  0  0  0  0  0  0  0  0  0  0  0
  162.0080  210.4220  148.6480 O   0  0  0  0  0  1  0  0  0  0  0  0
  162.2060  211.6490  149.2890 C   0  0  0  0  0  2  0  0  0  0  0  0
  160.9360  205.7850  150.6800 C   0  0  2  0  0  3  0  0  0  0  0  0
  160.8820  206.4120  152.0800 C   0  0  1  0  0  3  0  0  0  0  0  0
  162.2020  205.9410  151.4990 C   0  0  1  0  0  3  0  0  0  0  0  0
  162.5730  204.5870  152.0760 C   0  0  0  0  0  2  0  0  0  0  0  0
  160.3600  201.6900  150.9500 N   0  0  0  0  0  1  0  0  0  0  0  0
  160.8750  202.7390  151.7600 C   0  0  0  0  0  0  0  0  0  0  0  0
  160.3560  202.9740  152.8820 O   0  0  0  0  0  0  0  0  0  0  0  0
  161.9780  203.5170  151.2870 N   0  0  0  0  0  2  0  0  0  0  0  0
  160.9760  206.7640  149.5160 C   0  0  0  0  0  2  0  0  0  0  0  0
  162.2890  206.6130  148.7780 C   0  0  0  0  0  2  0  0  0  0  0  0
  162.0260  206.5830  147.2780 C   0  0  0  0  0  2  0  0  0  0  0  0
  162.0870  205.1630  146.7170 C   0  0  2  0  0  3  0  0  0  0  0  0
  162.4660  205.1900  145.3590 O   0  0  0  0  0  0  0  0  0  0  0  0
  161.6200  205.5490  143.2140 O   0  0  0  0  0  1  0  0  0  0  0  0
  160.3550  206.3930  145.0850 C   0  0  0  0  0  1  0  0  0  0  0  0
  161.3050  205.3220  144.5600 C   0  0  2  0  0  3  0  0  0  0  0  0
  160.7510  204.4360  146.8710 C   0  0  0  0  0  2  0  0  0  0  0  0
  160.9200  202.9480  146.9030 C   0  0  0  0  0  0  0  0  0  0  0  0
  161.6120  200.9520  148.1030 C   0  0  0  0  0  3  0  0  0  0  0  0
  161.3560  200.1800  146.9650 C   0  0  0  0  0  3  0  0  0  0  0  0
  160.6730  202.1730  145.7610 C   0  0  0  0  0  3  0  0  0  0  0  0
  160.8850  200.7880  145.7960 C   0  0  0  0  0  3  0  0  0  0  0  0
  161.3940  202.3340  148.0710 C   0  0  0  0  0  3  0  0  0  0  0  0
  1  2  1  0  0  0  0
  2  4  1  0  0  0  0
  2  3  1  0  0  0  0
  4  3  1  0  0  0  0
  5 13  1  0  0  0  0
  6  2  1  6  0  0  0
  6 14  1  0  0  0  0
  7 15  1  6  0  0  0
  7  5  1  0  0  0  0
  8  7  1  0  0  0  0
  8 10  1  0  0  0  0
 10  9  1  6  0  0  0
 10  6  1  0  0  0  0
 12  5  2  0  0  0  0
 13 11  1  0  0  0  0
 14 11  1  0  0  0  0
 16 21  1  0  0  0  0
 17 15  1  0  0  0  0
 18 22  1  0  0  0  0
 19 18  1  0  0  0  0
 20 17  2  0  0  0  0
 21 18  2  0  0  0  0
 21 20  1  0  0  0  0
 22 24  1  0  0  0  0
 22 15  2  0  0  0  0
 23 24  1  0  0  0  0
 25 33  1  6  0  0  0
 25 27  1  0  0  0  0
 25 26  1  0  0  0  0
 26  1  1  6  0  0  0
 27 28  1  1  0  0  0
 27 26  1  0  0  0  0
 29 30  1  0  0  0  0
 30 31  2  0  0  0  0
 32 30  1  0  0  0  0
 32 28  1  0  0  0  0
 34 33  1  0  0  0  0
 35 34  1  0  0  0  0
 36 41  1  6  0  0  0
 36 35  1  0  0  0  0
 37 36  1  0  0  0  0
 38 40  1  0  0  0  0
 40 39  1  1  0  0  0
 40 37  1  0  0  0  0
 41 42  1  0  0  0  0
 42 47  1  0  0  0  0
 44 43  1  0  0  0  0
 45 46  1  0  0  0  0
 45 42  2  0  0  0  0
 46 44  2  0  0  0  0
 47 43  2  0  0  0  0
M  END
>  <MODEL>
6

>  <REMARK>
 VINA RESULT:      -4.9      4.210      9.971
  Name = 
  15 active torsions:
  status: ('A' for Active; 'I' for Inactive)
    1  A    between atoms: C_2  and  C_22
    2  A    between atoms: C_3  and  N_20
    3  A    between atoms: C_3  and  C_45
    4  A    between atoms: C_4  and  C_9
    5  A    between atoms: C_6  and  C_19
    6  A    between atoms: C_6  and  C_25
    7  A    between atoms: C_9  and  C_12
    8  A    between atoms: C_10  and  C_44
    9  A    between atoms: C_12  and  C_38
   10  A    between atoms: C_19  and  C_32
   11  A    between atoms: C_21  and  O_36
   12  A    between atoms: C_25  and  O_36
   13  A    between atoms: C_25  and  C_44
   14  A    between atoms: C_32  and  C_35
   15  A    between atoms: C_46  and  C_47
                            x       y       z     vdW  Elec       q    Type
                         _______ _______ _______ _____ _____    ______ ____

>  <TORSDO>
F 15

$$$$
=
 OpenBabel11072414523D

 47 51  0  0  1  0  0  0  0  0999 V2000
  161.8780  210.2160  153.1250 C   0  0  0  0  0  2  0  0  0  0  0  0
  161.5090  208.8580  152.5380 C   0  0  0  0  0  0  0  0  0  0  0  0
  160.0810  208.4010  152.7840 C   0  0  0  0  0  2  0  0  0  0  0  0
  161.2200  207.7870  153.5770 C   0  0  0  0  0  2  0  0  0  0  0  0
  160.7650  206.5390  148.7220 C   0  0  0  0  0  0  0  0  0  0  0  0
  162.1470  208.4300  151.2000 C   0  0  1  0  0  3  0  0  0  0  0  0
  161.5980  205.6580  149.6130 C   0  0  1  0  0  3  0  0  0  0  0  0
  161.5120  206.0880  150.9460 O   0  0  0  0  0  0  0  0  0  0  0  0
  163.3430  206.5810  152.2420 O   0  0  0  0  0  1  0  0  0  0  0  0
  162.6010  206.9520  151.1180 C   0  0  2  0  0  3  0  0  0  0  0  0
  162.1480  208.8650  148.9940 C   0  0  0  0  0  2  0  0  0  0  0  0
  159.5430  206.4960  148.7650 O   0  0  0  0  0  0  0  0  0  0  0  0
  161.5720  207.7440  147.6590 S   0  0  0  0  0  0  0  0  0  0  0  0
  161.3190  208.7890  150.1210 O   0  0  0  0  0  0  0  0  0  0  0  0
  161.2140  204.2080  149.4870 C   0  0  0  0  0  0  0  0  0  0  0  0
  160.0840  200.2140  149.1960 F   0  0  0  0  0  0  0  0  0  0  0  0
  160.8220  203.4890  150.6280 C   0  0  0  0  0  3  0  0  0  0  0  0
  160.8330  202.2200  148.1370 C   0  0  0  0  0  0  0  0  0  0  0  0
  160.8490  201.5850  146.9380 F   0  0  0  0  0  0  0  0  0  0  0  0
  160.4470  202.1480  150.5280 C   0  0  0  0  0  3  0  0  0  0  0  0
  160.4530  201.5140  149.2850 C   0  0  0  0  0  0  0  0  0  0  0  0
  161.2180  203.5670  148.2310 C   0  0  0  0  0  0  0  0  0  0  0  0
  162.9790  204.3440  146.8550 O   0  0  0  0  0  1  0  0  0  0  0  0
  161.5870  204.3130  146.9870 C   0  0  0  0  0  2  0  0  0  0  0  0
  160.2920  212.1510  152.5120 C   0  0  2  0  0  3  0  0  0  0  0  0
  160.6370  211.0290  153.5010 C   0  0  1  0  0  3  0  0  0  0  0  0
  159.5270  210.8440  152.4840 C   0  0  1  0  0  3  0  0  0  0  0  0
  158.1750  211.0620  153.1400 C   0  0  0  0  0  2  0  0  0  0  0  0
  157.5140  213.0240  156.3460 N   0  0  0  0  0  1  0  0  0  0  0  0
  157.3600  212.0480  155.3220 C   0  0  0  0  0  0  0  0  0  0  0  0
  156.4110  211.2240  155.3830 O   0  0  0  0  0  0  0  0  0  0  0  0
  158.2890  212.0140  154.2360 N   0  0  0  0  0  2  0  0  0  0  0  0
  161.1720  212.2360  151.2740 C   0  0  0  0  0  2  0  0  0  0  0  0
  160.3000  212.4270  150.0510 C   0  0  0  0  0  2  0  0  0  0  0  0
  160.8120  213.6110  149.2430 C   0  0  0  0  0  2  0  0  0  0  0  0
  160.4560  213.4880  147.7620 C   0  0  2  0  0  3  0  0  0  0  0  0
  159.1400  213.0030  147.6150 O   0  0  0  0  0  0  0  0  0  0  0  0
  157.1860  213.9260  148.4970 O   0  0  0  0  0  1  0  0  0  0  0  0
  157.7240  214.4030  146.1960 C   0  0  0  0  0  1  0  0  0  0  0  0
  158.2440  214.1000  147.5960 C   0  0  2  0  0  3  0  0  0  0  0  0
  161.4320  212.5760  147.0200 C   0  0  0  0  0  2  0  0  0  0  0  0
  161.5580  212.9430  145.5730 C   0  0  0  0  0  0  0  0  0  0  0  0
  160.6540  212.8830  143.3190 C   0  0  0  0  0  3  0  0  0  0  0  0
  161.8070  213.5130  142.8400 C   0  0  0  0  0  3  0  0  0  0  0  0
  162.7170  213.5670  145.0890 C   0  0  0  0  0  3  0  0  0  0  0  0
  162.8360  213.8570  143.7230 C   0  0  0  0  0  3  0  0  0  0  0  0
  160.5300  212.5980  144.6830 C   0  0  0  0  0  3  0  0  0  0  0  0
  2  3  1  0  0  0  0
  2  1  1  0  0  0  0
  2  4  1  0  0  0  0
  3  4  1  0  0  0  0
  5 12  2  0  0  0  0
  5  7  1  0  0  0  0
  6  2  1  1  0  0  0
  7 15  1  1  0  0  0
  7  8  1  0  0  0  0
  8 10  1  0  0  0  0
 10  6  1  0  0  0  0
 10  9  1  1  0  0  0
 11 14  1  0  0  0  0
 13  5  1  0  0  0  0
 13 11  1  0  0  0  0
 14  6  1  0  0  0  0
 15 17  1  0  0  0  0
 16 21  1  0  0  0  0
 18 22  1  0  0  0  0
 18 21  2  0  0  0  0
 19 18  1  0  0  0  0
 20 17  2  0  0  0  0
 21 20  1  0  0  0  0
 22 15  2  0  0  0  0
 23 24  1  0  0  0  0
 24 22  1  0  0  0  0
 25 33  1  6  0  0  0
 25 26  1  0  0  0  0
 26  1  1  6  0  0  0
 27 25  1  0  0  0  0
 27 28  1  1  0  0  0
 27 26  1  0  0  0  0
 28 32  1  0  0  0  0
 30 31  2  0  0  0  0
 30 29  1  0  0  0  0
 32 30  1  0  0  0  0
 34 33  1  0  0  0  0
 35 34  1  0  0  0  0
 36 41  1  6  0  0  0
 36 35  1  0  0  0  0
 37 36  1  0  0  0  0
 40 39  1  6  0  0  0
 40 37  1  0  0  0  0
 40 38  1  0  0  0  0
 42 41  1  0  0  0  0
 43 47  1  0  0  0  0
 44 43  2  0  0  0  0
 44 46  1  0  0  0  0
 45 42  1  0  0  0  0
 46 45  2  0  0  0  0
 47 42  2  0  0  0  0
M  END
>  <MODEL>
7

>  <REMARK>
 VINA RESULT:      -4.7      2.576      6.394
  Name = 
  15 active torsions:
  status: ('A' for Active; 'I' for Inactive)
    1  A    between atoms: C_2  and  C_22
    2  A    between atoms: C_3  and  N_20
    3  A    between atoms: C_3  and  C_45
    4  A    between atoms: C_4  and  C_9
    5  A    between atoms: C_6  and  C_19
    6  A    between atoms: C_6  and  C_25
    7  A    between atoms: C_9  and  C_12
    8  A    between atoms: C_10  and  C_44
    9  A    between atoms: C_12  and  C_38
   10  A    between atoms: C_19  and  C_32
   11  A    between atoms: C_21  and  O_36
   12  A    between atoms: C_25  and  O_36
   13  A    between atoms: C_25  and  C_44
   14  A    between atoms: C_32  and  C_35
   15  A    between atoms: C_46  and  C_47
                            x       y       z     vdW  Elec       q    Type
                         _______ _______ _______ _____ _____    ______ ____

>  <TORSDO>
F 15

$$$$
=
 OpenBabel11072414523D

 47 51  0  0  1  0  0  0  0  0999 V2000
  162.0940  207.0980  151.2180 C   0  0  0  0  0  2  0  0  0  0  0  0
  161.7130  205.7800  151.8820 C   0  0  0  0  0  0  0  0  0  0  0  0
  161.5790  205.8190  153.3950 C   0  0  0  0  0  2  0  0  0  0  0  0
  162.8030  205.1860  152.7600 C   0  0  0  0  0  2  0  0  0  0  0  0
  161.4320  202.9520  148.3590 C   0  0  0  0  0  0  0  0  0  0  0  0
  160.7680  204.8170  151.1340 C   0  0  1  0  0  3  0  0  0  0  0  0
  160.7550  204.2310  147.9470 C   0  0  1  0  0  3  0  0  0  0  0  0
  161.1620  205.2890  148.7730 O   0  0  0  0  0  0  0  0  0  0  0  0
  159.7010  206.6400  149.9200 O   0  0  0  0  0  1  0  0  0  0  0  0
  160.2020  205.3430  149.7920 C   0  0  2  0  0  3  0  0  0  0  0  0
  160.3120  202.6380  150.8170 C   0  0  0  0  0  2  0  0  0  0  0  0
  162.6270  202.7840  148.1580 O   0  0  0  0  0  0  0  0  0  0  0  0
  160.4980  201.7000  149.2500 S   0  0  0  0  0  0  0  0  0  0  0  0
  161.3610  203.5500  150.9980 O   0  0  0  0  0  0  0  0  0  0  0  0
  160.9980  204.5540  146.4970 C   0  0  0  0  0  0  0  0  0  0  0  0
  161.5810  205.4520  142.4760 F   0  0  0  0  0  0  0  0  0  0  0  0
  160.1730  203.9910  145.5100 C   0  0  0  0  0  3  0  0  0  0  0  0
  162.2220  205.7390  144.7590 C   0  0  0  0  0  0  0  0  0  0  0  0
  163.2220  206.5710  144.3780 F   0  0  0  0  0  0  0  0  0  0  0  0
  160.3720  204.2910  144.1610 C   0  0  0  0  0  3  0  0  0  0  0  0
  161.3960  205.1630  143.7860 C   0  0  0  0  0  0  0  0  0  0  0  0
  162.0310  205.4360  146.1180 C   0  0  0  0  0  0  0  0  0  0  0  0
  162.3800  207.3440  147.4700 O   0  0  0  0  0  1  0  0  0  0  0  0
  162.9030  206.0890  147.1440 C   0  0  0  0  0  2  0  0  0  0  0  0
  162.0200  209.6550  151.5220 C   0  0  2  0  0  3  0  0  0  0  0  0
  162.0000  208.2740  152.1930 C   0  0  1  0  0  3  0  0  0  0  0  0
  160.7130  209.0530  151.9970 C   0  0  1  0  0  3  0  0  0  0  0  0
  160.3100  209.7330  153.2920 C   0  0  0  0  0  2  0  0  0  0  0  0
  162.7090  210.6040  156.1290 N   0  0  0  0  0  1  0  0  0  0  0  0
  161.6040  210.7000  155.2390 C   0  0  0  0  0  0  0  0  0  0  0  0
  160.8130  211.6750  155.3280 O   0  0  0  0  0  0  0  0  0  0  0  0
  161.4030  209.6830  154.2540 N   0  0  0  0  0  2  0  0  0  0  0  0
  162.0430  209.6520  150.0010 C   0  0  0  0  0  2  0  0  0  0  0  0
  162.0460  211.0800  149.4970 C   0  0  0  0  0  2  0  0  0  0  0  0
  161.6550  211.0980  148.0250 C   0  0  0  0  0  2  0  0  0  0  0  0
  161.3570  212.5130  147.5320 C   0  0  2  0  0  3  0  0  0  0  0  0
  162.4670  213.0330  146.8360 O   0  0  0  0  0  0  0  0  0  0  0  0
  160.8160  212.9480  145.1890 O   0  0  0  0  0  1  0  0  0  0  0  0
  163.0920  213.3320  144.4910 C   0  0  0  0  0  1  0  0  0  0  0  0
  162.0370  213.5150  145.5770 C   0  0  2  0  0  3  0  0  0  0  0  0
  160.9820  213.4460  148.6850 C   0  0  0  0  0  2  0  0  0  0  0  0
  159.5030  213.4940  148.9120 C   0  0  0  0  0  0  0  0  0  0  0  0
  157.6320  213.6290  150.4570 C   0  0  0  0  0  3  0  0  0  0  0  0
  156.7410  213.4740  149.3900 C   0  0  0  0  0  3  0  0  0  0  0  0
  158.6070  213.3300  147.8460 C   0  0  0  0  0  3  0  0  0  0  0  0
  157.2260  213.3270  148.0860 C   0  0  0  0  0  3  0  0  0  0  0  0
  159.0110  213.6380  150.2170 C   0  0  0  0  0  3  0  0  0  0  0  0
  1  2  1  0  0  0  0
  2  4  1  0  0  0  0
  2  3  1  0  0  0  0
  4  3  1  0  0  0  0
  5 13  1  0  0  0  0
  6  2  1  6  0  0  0
  7 15  1  6  0  0  0
  7  5  1  0  0  0  0
  7  8  1  0  0  0  0
  8 10  1  0  0  0  0
 10  9  1  1  0  0  0
 10  6  1  0  0  0  0
 11 14  1  0  0  0  0
 12  5  2  0  0  0  0
 13 11  1  0  0  0  0
 14  6  1  0  0  0  0
 16 21  1  0  0  0  0
 17 15  2  0  0  0  0
 18 22  2  0  0  0  0
 19 18  1  0  0  0  0
 20 17  1  0  0  0  0
 21 20  2  0  0  0  0
 21 18  1  0  0  0  0
 22 15  1  0  0  0  0
 22 24  1  0  0  0  0
 24 23  1  0  0  0  0
 25 33  1  6  0  0  0
 25 27  1  0  0  0  0
 25 26  1  0  0  0  0
 26  1  1  6  0  0  0
 27 26  1  0  0  0  0
 27 28  1  1  0  0  0
 28 32  1  0  0  0  0
 30 31  2  0  0  0  0
 30 29  1  0  0  0  0
 32 30  1  0  0  0  0
 34 33  1  0  0  0  0
 35 34  1  0  0  0  0
 36 35  1  1  0  0  0
 36 41  1  0  0  0  0
 37 36  1  0  0  0  0
 38 40  1  0  0  0  0
 40 39  1  6  0  0  0
 40 37  1  0  0  0  0
 41 42  1  0  0  0  0
 42 47  1  0  0  0  0
 44 43  1  0  0  0  0
 45 46  1  0  0  0  0
 45 42  2  0  0  0  0
 46 44  2  0  0  0  0
 47 43  2  0  0  0  0
M  END
>  <MODEL>
8

>  <REMARK>
 VINA RESULT:      -4.4      3.276      6.768
  Name = 
  15 active torsions:
  status: ('A' for Active; 'I' for Inactive)
    1  A    between atoms: C_2  and  C_22
    2  A    between atoms: C_3  and  N_20
    3  A    between atoms: C_3  and  C_45
    4  A    between atoms: C_4  and  C_9
    5  A    between atoms: C_6  and  C_19
    6  A    between atoms: C_6  and  C_25
    7  A    between atoms: C_9  and  C_12
    8  A    between atoms: C_10  and  C_44
    9  A    between atoms: C_12  and  C_38
   10  A    between atoms: C_19  and  C_32
   11  A    between atoms: C_21  and  O_36
   12  A    between atoms: C_25  and  O_36
   13  A    between atoms: C_25  and  C_44
   14  A    between atoms: C_32  and  C_35
   15  A    between atoms: C_46  and  C_47
                            x       y       z     vdW  Elec       q    Type
                         _______ _______ _______ _____ _____    ______ ____

>  <TORSDO>
F 15

$$$$
=
 OpenBabel11072414523D

 47 51  0  0  1  0  0  0  0  0999 V2000
  161.9100  209.2800  154.3360 C   0  0  0  0  0  2  0  0  0  0  0  0
  161.5270  208.1080  153.4390 C   0  0  0  0  0  0  0  0  0  0  0  0
  160.0940  207.6220  153.5670 C   0  0  0  0  0  2  0  0  0  0  0  0
  161.2230  206.8210  154.1900 C   0  0  0  0  0  2  0  0  0  0  0  0
  160.8200  206.6600  149.2090 C   0  0  0  0  0  0  0  0  0  0  0  0
  162.1650  208.0060  152.0380 C   0  0  1  0  0  3  0  0  0  0  0  0
  161.6910  205.6340  149.8820 C   0  0  1  0  0  3  0  0  0  0  0  0
  161.6060  205.7570  151.2760 O   0  0  0  0  0  0  0  0  0  0  0  0
  163.4330  206.0160  152.6430 O   0  0  0  0  0  1  0  0  0  0  0  0
  162.6670  206.5990  151.6310 C   0  0  2  0  0  3  0  0  0  0  0  0
  162.1280  208.9150  149.9810 C   0  0  0  0  0  2  0  0  0  0  0  0
  159.6000  206.5660  149.2450 O   0  0  0  0  0  0  0  0  0  0  0  0
  161.5760  208.0960  148.4340 S   0  0  0  0  0  0  0  0  0  0  0  0
  161.3140  208.5650  151.0670 O   0  0  0  0  0  0  0  0  0  0  0  0
  161.3530  204.2350  149.4410 C   0  0  0  0  0  0  0  0  0  0  0  0
  160.3460  200.3700  148.2710 F   0  0  0  0  0  0  0  0  0  0  0  0
  160.8160  203.3230  150.3640 C   0  0  0  0  0  3  0  0  0  0  0  0
  161.2030  202.5290  147.7120 C   0  0  0  0  0  0  0  0  0  0  0  0
  161.4020  202.1230  146.4330 F   0  0  0  0  0  0  0  0  0  0  0  0
  160.4810  202.0270  149.9700 C   0  0  0  0  0  3  0  0  0  0  0  0
  160.6760  201.6290  148.6460 C   0  0  0  0  0  0  0  0  0  0  0  0
  161.5490  203.8330  148.1030 C   0  0  0  0  0  0  0  0  0  0  0  0
  161.0530  205.1490  146.2010 O   0  0  0  0  0  1  0  0  0  0  0  0
  162.0790  204.7890  147.0810 C   0  0  0  0  0  2  0  0  0  0  0  0
  160.2590  211.2550  154.4370 C   0  0  2  0  0  3  0  0  0  0  0  0
  160.6870  209.8990  155.0160 C   0  0  1  0  0  3  0  0  0  0  0  0
  159.5120  209.9910  154.0600 C   0  0  1  0  0  3  0  0  0  0  0  0
  158.2060  209.9550  154.8320 C   0  0  0  0  0  2  0  0  0  0  0  0
  155.7540  212.8760  154.9570 N   0  0  0  0  0  1  0  0  0  0  0  0
  156.2350  211.5410  154.8710 C   0  0  0  0  0  0  0  0  0  0  0  0
  155.4210  210.5910  154.7370 O   0  0  0  0  0  0  0  0  0  0  0  0
  157.6420  211.2930  154.9410 N   0  0  0  0  0  2  0  0  0  0  0  0
  161.0510  211.7390  153.2310 C   0  0  0  0  0  2  0  0  0  0  0  0
  160.0940  212.1000  152.1150 C   0  0  0  0  0  2  0  0  0  0  0  0
  159.3750  213.3960  152.4620 C   0  0  0  0  0  2  0  0  0  0  0  0
  159.1470  214.2690  151.2290 C   0  0  2  0  0  3  0  0  0  0  0  0
  158.0990  213.7450  150.4460 O   0  0  0  0  0  0  0  0  0  0  0  0
  156.5060  213.9410  152.1400 O   0  0  0  0  0  1  0  0  0  0  0  0
  155.7510  214.0910  149.8550 C   0  0  0  0  0  1  0  0  0  0  0  0
  156.8790  214.3390  150.8510 C   0  0  2  0  0  3  0  0  0  0  0  0
  160.4150  214.3970  150.3840 C   0  0  0  0  0  2  0  0  0  0  0  0
  160.2470  213.7960  149.0230 C   0  0  0  0  0  0  0  0  0  0  0  0
  158.9760  213.6250  146.9590 C   0  0  0  0  0  3  0  0  0  0  0  0
  159.8340  212.6140  146.5140 C   0  0  0  0  0  3  0  0  0  0  0  0
  161.1000  212.7750  148.5780 C   0  0  0  0  0  3  0  0  0  0  0  0
  160.8960  212.1900  147.3210 C   0  0  0  0  0  3  0  0  0  0  0  0
  159.1830  214.2150  148.2110 C   0  0  0  0  0  3  0  0  0  0  0  0
  2  3  1  0  0  0  0
  2  4  1  0  0  0  0
  2  1  1  0  0  0  0
  3  4  1  0  0  0  0
  5 12  2  0  0  0  0
  5  7  1  0  0  0  0
  6  2  1  1  0  0  0
  7 15  1  1  0  0  0
  7  8  1  0  0  0  0
  8 10  1  0  0  0  0
 10  6  1  0  0  0  0
 10  9  1  1  0  0  0
 11 14  1  0  0  0  0
 13  5  1  0  0  0  0
 13 11  1  0  0  0  0
 14  6  1  0  0  0  0
 15 17  1  0  0  0  0
 16 21  1  0  0  0  0
 18 22  1  0  0  0  0
 18 21  2  0  0  0  0
 19 18  1  0  0  0  0
 20 17  2  0  0  0  0
 21 20  1  0  0  0  0
 22 15  2  0  0  0  0
 23 24  1  0  0  0  0
 24 22  1  0  0  0  0
 25 33  1  6  0  0  0
 25 26  1  0  0  0  0
 26  1  1  6  0  0  0
 27 25  1  0  0  0  0
 27 28  1  1  0  0  0
 27 26  1  0  0  0  0
 28 32  1  0  0  0  0
 30 32  1  0  0  0  0
 30 29  1  0  0  0  0
 31 30  2  0  0  0  0
 34 35  1  0  0  0  0
 34 33  1  0  0  0  0
 36 41  1  6  0  0  0
 36 35  1  0  0  0  0
 37 40  1  0  0  0  0
 37 36  1  0  0  0  0
 40 39  1  6  0  0  0
 40 38  1  0  0  0  0
 42 41  1  0  0  0  0
 43 47  1  0  0  0  0
 44 43  2  0  0  0  0
 44 46  1  0  0  0  0
 45 42  1  0  0  0  0
 46 45  2  0  0  0  0
 47 42  2  0  0  0  0
M  END
>  <MODEL>
9

>  <REMARK>
 VINA RESULT:      -4.4      2.075      4.817
  Name = 
  15 active torsions:
  status: ('A' for Active; 'I' for Inactive)
    1  A    between atoms: C_2  and  C_22
    2  A    between atoms: C_3  and  N_20
    3  A    between atoms: C_3  and  C_45
    4  A    between atoms: C_4  and  C_9
    5  A    between atoms: C_6  and  C_19
    6  A    between atoms: C_6  and  C_25
    7  A    between atoms: C_9  and  C_12
    8  A    between atoms: C_10  and  C_44
    9  A    between atoms: C_12  and  C_38
   10  A    between atoms: C_19  and  C_32
   11  A    between atoms: C_21  and  O_36
   12  A    between atoms: C_25  and  O_36
   13  A    between atoms: C_25  and  C_44
   14  A    between atoms: C_32  and  C_35
   15  A    between atoms: C_46  and  C_47
                            x       y       z     vdW  Elec       q    Type
                         _______ _______ _______ _____ _____    ______ ____

>  <TORSDO>
F 15

$$$$
