=
 OpenBabel11072413183D

 27 31  0  0  1  0  0  0  0  0999 V2000
  160.8420  202.4950  152.0250 C   0  0  0  0  0  2  0  0  0  0  0  0
  161.3790  203.8480  148.0990 C   0  0  2  0  0  3  0  0  0  0  0  0
  160.8660  204.2940  150.5080 C   0  0  1  0  0  3  0  0  0  0  0  0
  160.1900  202.8520  148.4050 N   0  0  0  0  0  2  0  0  0  0  0  0
  161.1280  204.8380  149.1550 C   0  0  1  0  0  3  0  0  0  0  0  0
  161.5260  206.2310  149.1350 N   0  0  0  0  0  0  0  0  0  0  0  0
  161.0770  202.8410  150.5470 C   0  0  2  0  0  3  0  0  0  0  0  0
  162.1890  208.4270  148.3240 C   0  0  0  0  0  1  0  0  0  0  0  0
  160.3750  202.1070  149.5790 O   0  0  0  0  0  0  0  0  0  0  0  0
  161.9190  206.9660  148.1320 C   0  0  0  0  0  0  0  0  0  0  0  0
  161.4580  204.0100  146.5410 C   0  0  1  0  0  0  0  0  0  0  0  0
  161.5730  204.8390  151.6970 C   0  0  2  0  0  3  0  0  0  0  0  0
  161.3480  205.4460  146.1010 C   0  0  1  0  0  3  0  0  0  0  0  0
  161.0580  203.8540  152.7750 C   0  0  0  0  0  2  0  0  0  0  0  0
  161.9450  206.5480  146.8180 N   0  0  0  0  0  2  0  0  0  0  0  0
  162.5130  204.6110  145.8480 N   0  0  0  0  0  2  0  0  0  0  0  0
  160.6340  201.7540  145.3230 C   0  0  0  0  0  3  0  0  0  0  0  0
  159.5030  202.0450  144.8320 O   0  0  0  0  0  0  0  0  0  0  0  0
  161.4690  202.6830  146.0720 N   0  0  0  0  0  2  0  0  0  0  0  0
  161.1230  206.3470  151.7780 C   0  0  0  0  0  2  0  0  0  0  0  0
  161.0980  206.9720  153.1330 C   0  0  0  0  0  2  0  0  0  0  0  0
  160.7200  209.0870  154.2360 N   0  0  0  0  0  0  0  0  0  0  0  0
  160.5460  210.3810  154.2850 C   0  0  0  0  0  3  0  0  0  0  0  0
  161.0580  210.4900  151.9880 N   0  0  0  0  0  0  0  0  0  0  0  0
  160.6800  211.1490  153.1330 C   0  0  0  0  0  3  0  0  0  0  0  0
  161.1240  209.1590  151.9490 C   0  0  0  0  0  3  0  0  0  0  0  0
  160.8320  208.3940  153.0850 C   0  0  0  0  0  0  0  0  0  0  0  0
  1 14  1  0  0  0  0
  2  4  1  6  0  0  0
  2  5  1  0  0  0  0
  3  7  1  0  0  0  0
  3 12  1  0  0  0  0
  4  9  1  0  0  0  0
  5  3  1  0  0  0  0
  6  5  1  0  0  0  0
  7  1  1  0  0  0  0
  9  7  1  0  0  0  0
 10  8  1  0  0  0  0
 10  6  2  0  0  0  0
 11  2  1  0  0  0  0
 12 20  1  0  0  0  0
 12 14  1  0  0  0  0
 13 11  1  0  0  0  0
 13 15  1  0  0  0  0
 15 10  1  0  0  0  0
 16 13  1  0  0  0  0
 16 11  1  0  0  0  0
 17 19  1  0  0  0  0
 18 17  2  0  0  0  0
 19 11  1  0  0  0  0
 20 21  1  0  0  0  0
 22 23  1  0  0  0  0
 24 25  1  0  0  0  0
 25 23  2  0  0  0  0
 26 24  2  0  0  0  0
 26 27  1  0  0  0  0
 27 21  1  0  0  0  0
 27 22  2  0  0  0  0
M  END
>  <MODEL>
1

>  <REMARK>
 VINA RESULT:      -8.7      0.000      0.000
  Name = 
  4 active torsions:
  status: ('A' for Active; 'I' for Inactive)
    1  A    between atoms: C_7  and  C_18
    2  A    between atoms: C_7  and  C_23
    3  A    between atoms: C_17  and  N_20
    4  A    between atoms: C_23  and  C_27
                            x       y       z     vdW  Elec       q    Type
                         _______ _______ _______ _____ _____    ______ ____

>  <TORSDO>
F 4

$$$$
=
 OpenBabel11072413183D

 27 31  0  0  1  0  0  0  0  0999 V2000
  160.8910  203.8020  151.3600 C   0  0  0  0  0  2  0  0  0  0  0  0
  160.9980  207.5710  153.1820 C   0  0  2  0  0  3  0  0  0  0  0  0
  161.5920  206.0470  151.2880 C   0  0  1  0  0  3  0  0  0  0  0  0
  161.7050  206.3560  153.9040 N   0  0  0  0  0  2  0  0  0  0  0  0
  161.5880  207.4190  151.8450 C   0  0  1  0  0  3  0  0  0  0  0  0
  161.7570  208.4680  150.8610 N   0  0  0  0  0  0  0  0  0  0  0  0
  160.8380  205.1220  152.1430 C   0  0  2  0  0  3  0  0  0  0  0  0
  162.0070  210.6730  149.8610 C   0  0  0  0  0  1  0  0  0  0  0  0
  161.2240  205.1050  153.4920 O   0  0  0  0  0  0  0  0  0  0  0  0
  161.6980  209.7620  151.0100 C   0  0  0  0  0  0  0  0  0  0  0  0
  161.0190  208.7800  154.1810 C   0  0  1  0  0  0  0  0  0  0  0  0
  161.1260  205.7890  149.9000 C   0  0  2  0  0  3  0  0  0  0  0  0
  161.6820  210.0000  153.5990 C   0  0  1  0  0  3  0  0  0  0  0  0
  161.1990  204.2420  149.8890 C   0  0  0  0  0  2  0  0  0  0  0  0
  161.5410  210.4040  152.2200 N   0  0  0  0  0  2  0  0  0  0  0  0
  160.2920  209.9630  154.0260 N   0  0  0  0  0  2  0  0  0  0  0  0
  160.8940  208.0160  156.7600 C   0  0  0  0  0  3  0  0  0  0  0  0
  161.9980  208.3820  157.2610 O   0  0  0  0  0  0  0  0  0  0  0  0
  160.5080  208.2320  155.3720 N   0  0  0  0  0  2  0  0  0  0  0  0
  162.1190  206.5970  148.9820 C   0  0  0  0  0  2  0  0  0  0  0  0
  161.5470  207.2230  147.7540 C   0  0  0  0  0  2  0  0  0  0  0  0
  162.4050  205.2790  146.6050 N   0  0  0  0  0  0  0  0  0  0  0  0
  162.4360  204.3870  145.6510 C   0  0  0  0  0  3  0  0  0  0  0  0
  160.4070  205.2620  144.8320 N   0  0  0  0  0  0  0  0  0  0  0  0
  161.4340  204.3590  144.6870 C   0  0  0  0  0  3  0  0  0  0  0  0
  160.4600  206.2240  145.7520 C   0  0  0  0  0  3  0  0  0  0  0  0
  161.5580  206.3290  146.6170 C   0  0  0  0  0  0  0  0  0  0  0  0
  1  7  1  0  0  0  0
  2  4  1  1  0  0  0
  2 11  1  0  0  0  0
  3  5  1  0  0  0  0
  3  7  1  0  0  0  0
  5  2  1  0  0  0  0
  6 10  2  0  0  0  0
  6  5  1  0  0  0  0
  7  9  1  0  0  0  0
  8 10  1  0  0  0  0
  9  4  1  0  0  0  0
 10 15  1  0  0  0  0
 11 19  1  0  0  0  0
 12  3  1  0  0  0  0
 13 16  1  0  0  0  0
 13 11  1  0  0  0  0
 14 12  1  0  0  0  0
 14  1  1  0  0  0  0
 15 13  1  0  0  0  0
 16 11  1  0  0  0  0
 17 18  2  0  0  0  0
 19 17  1  0  0  0  0
 20 12  1  0  0  0  0
 21 20  1  0  0  0  0
 22 27  1  0  0  0  0
 23 22  2  0  0  0  0
 24 26  1  0  0  0  0
 25 24  2  0  0  0  0
 25 23  1  0  0  0  0
 26 27  2  0  0  0  0
 27 21  1  0  0  0  0
M  END
>  <MODEL>
2

>  <REMARK>
 VINA RESULT:      -8.6      2.651      7.437
  Name = 
  4 active torsions:
  status: ('A' for Active; 'I' for Inactive)
    1  A    between atoms: C_7  and  C_18
    2  A    between atoms: C_7  and  C_23
    3  A    between atoms: C_17  and  N_20
    4  A    between atoms: C_23  and  C_27
                            x       y       z     vdW  Elec       q    Type
                         _______ _______ _______ _____ _____    ______ ____

>  <TORSDO>
F 4

$$$$
=
 OpenBabel11072413183D

 27 31  0  0  1  0  0  0  0  0999 V2000
  160.6640  202.9690  152.3580 C   0  0  0  0  0  2  0  0  0  0  0  0
  161.1910  207.1230  152.3900 C   0  0  2  0  0  3  0  0  0  0  0  0
  161.4620  204.9000  151.2740 C   0  0  1  0  0  3  0  0  0  0  0  0
  161.9220  206.2540  153.4890 N   0  0  0  0  0  2  0  0  0  0  0  0
  161.5970  206.3720  151.1950 C   0  0  1  0  0  3  0  0  0  0  0  0
  161.6920  206.8950  149.8470 N   0  0  0  0  0  0  0  0  0  0  0  0
  160.7770  204.4930  152.5080 C   0  0  2  0  0  3  0  0  0  0  0  0
  161.9230  208.4480  147.9880 C   0  0  0  0  0  1  0  0  0  0  0  0
  161.3300  205.0000  153.6940 O   0  0  0  0  0  0  0  0  0  0  0  0
  161.7170  208.1330  149.4390 C   0  0  0  0  0  0  0  0  0  0  0  0
  161.3990  208.6300  152.7750 C   0  0  1  0  0  0  0  0  0  0  0  0
  160.8100  204.1360  150.1780 C   0  0  2  0  0  3  0  0  0  0  0  0
  162.0430  209.4250  151.6710 C   0  0  1  0  0  3  0  0  0  0  0  0
  160.8030  202.7250  150.8170 C   0  0  0  0  0  2  0  0  0  0  0  0
  161.7470  209.2320  150.2710 N   0  0  0  0  0  2  0  0  0  0  0  0
  160.7180  209.7070  152.2020 N   0  0  0  0  0  2  0  0  0  0  0  0
  161.2260  209.4890  155.3210 C   0  0  0  0  0  3  0  0  0  0  0  0
  161.9330  210.5400  155.3570 O   0  0  0  0  0  0  0  0  0  0  0  0
  161.0170  208.6790  154.1290 N   0  0  0  0  0  2  0  0  0  0  0  0
  161.7170  204.3860  148.9150 C   0  0  0  0  0  2  0  0  0  0  0  0
  161.5760  203.4270  147.7800 C   0  0  0  0  0  2  0  0  0  0  0  0
  160.7380  203.8520  145.5550 N   0  0  0  0  0  0  0  0  0  0  0  0
  160.7230  204.4410  144.3900 C   0  0  0  0  0  3  0  0  0  0  0  0
  162.3800  205.9220  145.1700 N   0  0  0  0  0  0  0  0  0  0  0  0
  161.5820  205.5040  144.1330 C   0  0  0  0  0  3  0  0  0  0  0  0
  162.4470  205.2340  146.3090 C   0  0  0  0  0  3  0  0  0  0  0  0
  161.6850  204.0720  146.4900 C   0  0  0  0  0  0  0  0  0  0  0  0
  1  7  1  0  0  0  0
  2 11  1  0  0  0  0
  2  4  1  1  0  0  0
  3  7  1  0  0  0  0
  4  9  1  0  0  0  0
  5  3  1  0  0  0  0
  5  2  1  0  0  0  0
  6  5  1  0  0  0  0
  7  9  1  0  0  0  0
  8 10  1  0  0  0  0
 10  6  2  0  0  0  0
 10 15  1  0  0  0  0
 11 19  1  0  0  0  0
 12 14  1  0  0  0  0
 12  3  1  0  0  0  0
 13 16  1  0  0  0  0
 13 11  1  0  0  0  0
 14  1  1  0  0  0  0
 15 13  1  0  0  0  0
 16 11  1  0  0  0  0
 17 18  2  0  0  0  0
 19 17  1  0  0  0  0
 20 12  1  0  0  0  0
 21 20  1  0  0  0  0
 22 27  1  0  0  0  0
 23 22  2  0  0  0  0
 24 26  1  0  0  0  0
 25 23  1  0  0  0  0
 25 24  2  0  0  0  0
 26 27  2  0  0  0  0
 27 21  1  0  0  0  0
M  END
>  <MODEL>
3

>  <REMARK>
 VINA RESULT:      -8.6      2.533      7.083
  Name = 
  4 active torsions:
  status: ('A' for Active; 'I' for Inactive)
    1  A    between atoms: C_7  and  C_18
    2  A    between atoms: C_7  and  C_23
    3  A    between atoms: C_17  and  N_20
    4  A    between atoms: C_23  and  C_27
                            x       y       z     vdW  Elec       q    Type
                         _______ _______ _______ _____ _____    ______ ____

>  <TORSDO>
F 4

$$$$
=
 OpenBabel11072413183D

 27 31  0  0  1  0  0  0  0  0999 V2000
  161.1010  203.5820  152.7610 C   0  0  0  0  0  2  0  0  0  0  0  0
  161.5310  204.7370  148.7580 C   0  0  2  0  0  3  0  0  0  0  0  0
  160.9820  205.2820  151.1380 C   0  0  1  0  0  3  0  0  0  0  0  0
  160.4270  203.6680  149.1280 N   0  0  0  0  0  2  0  0  0  0  0  0
  161.2000  205.7640  149.7550 C   0  0  1  0  0  3  0  0  0  0  0  0
  161.4840  207.1810  149.6490 N   0  0  0  0  0  0  0  0  0  0  0  0
  161.3090  203.8570  151.2640 C   0  0  2  0  0  3  0  0  0  0  0  0
  161.9680  209.3710  148.7060 C   0  0  0  0  0  1  0  0  0  0  0  0
  160.6700  203.0120  150.3430 O   0  0  0  0  0  0  0  0  0  0  0  0
  161.8170  207.8830  148.6020 C   0  0  0  0  0  0  0  0  0  0  0  0
  161.6000  204.8100  147.1930 C   0  0  1  0  0  0  0  0  0  0  0  0
  161.6400  205.9540  152.2900 C   0  0  2  0  0  3  0  0  0  0  0  0
  161.3740  206.2030  146.6680 C   0  0  1  0  0  3  0  0  0  0  0  0
  161.2060  204.9960  153.4270 C   0  0  0  0  0  2  0  0  0  0  0  0
  161.8790  207.3910  147.3160 N   0  0  0  0  0  2  0  0  0  0  0  0
  162.6030  205.4520  146.4620 N   0  0  0  0  0  2  0  0  0  0  0  0
  161.2060  202.5370  145.8040 C   0  0  0  0  0  3  0  0  0  0  0  0
  160.3920  202.8550  144.8860 O   0  0  0  0  0  0  0  0  0  0  0  0
  161.7190  203.4630  146.8050 N   0  0  0  0  0  2  0  0  0  0  0  0
  161.0700  207.4220  152.2820 C   0  0  0  0  0  2  0  0  0  0  0  0
  160.8300  208.0610  153.6100 C   0  0  0  0  0  2  0  0  0  0  0  0
  160.3720  210.0640  152.3410 N   0  0  0  0  0  0  0  0  0  0  0  0
  160.1710  211.3460  152.1860 C   0  0  0  0  0  3  0  0  0  0  0  0
  160.1500  211.5780  154.5300 N   0  0  0  0  0  0  0  0  0  0  0  0
  160.0800  212.1790  153.2960 C   0  0  0  0  0  3  0  0  0  0  0  0
  160.4600  210.2880  154.6530 C   0  0  0  0  0  3  0  0  0  0  0  0
  160.7020  209.4990  153.5200 C   0  0  0  0  0  0  0  0  0  0  0  0
  1 14  1  0  0  0  0
  2  4  1  6  0  0  0
  2  5  1  0  0  0  0
  3  7  1  0  0  0  0
  3 12  1  0  0  0  0
  4  9  1  0  0  0  0
  5  3  1  0  0  0  0
  6  5  1  0  0  0  0
  7  1  1  0  0  0  0
  9  7  1  0  0  0  0
 10  8  1  0  0  0  0
 10  6  2  0  0  0  0
 11  2  1  0  0  0  0
 12 14  1  0  0  0  0
 13 11  1  0  0  0  0
 13 15  1  0  0  0  0
 15 10  1  0  0  0  0
 16 13  1  0  0  0  0
 16 11  1  0  0  0  0
 17 19  1  0  0  0  0
 18 17  2  0  0  0  0
 19 11  1  0  0  0  0
 20 12  1  0  0  0  0
 20 21  1  0  0  0  0
 22 27  1  0  0  0  0
 23 22  2  0  0  0  0
 23 25  1  0  0  0  0
 24 26  1  0  0  0  0
 25 24  2  0  0  0  0
 27 21  1  0  0  0  0
 27 26  2  0  0  0  0
M  END
>  <MODEL>
4

>  <REMARK>
 VINA RESULT:      -8.4      1.091      1.465
  Name = 
  4 active torsions:
  status: ('A' for Active; 'I' for Inactive)
    1  A    between atoms: C_7  and  C_18
    2  A    between atoms: C_7  and  C_23
    3  A    between atoms: C_17  and  N_20
    4  A    between atoms: C_23  and  C_27
                            x       y       z     vdW  Elec       q    Type
                         _______ _______ _______ _____ _____    ______ ____

>  <TORSDO>
F 4

$$$$
=
 OpenBabel11072413183D

 27 31  0  0  1  0  0  0  0  0999 V2000
  161.9580  210.6200  149.4460 C   0  0  0  0  0  2  0  0  0  0  0  0
  161.2170  208.9850  153.2300 C   0  0  2  0  0  3  0  0  0  0  0  0
  161.2640  208.7780  150.7360 C   0  0  1  0  0  3  0  0  0  0  0  0
  160.3500  210.2160  152.7490 N   0  0  0  0  0  2  0  0  0  0  0  0
  161.0680  208.1220  152.0500 C   0  0  1  0  0  3  0  0  0  0  0  0
  161.1860  206.6790  152.0250 N   0  0  0  0  0  0  0  0  0  0  0  0
  161.7410  210.1580  150.8950 C   0  0  2  0  0  3  0  0  0  0  0  0
  161.2060  204.3550  152.7470 C   0  0  0  0  0  1  0  0  0  0  0  0
  160.9610  210.9670  151.7350 O   0  0  0  0  0  0  0  0  0  0  0  0
  161.1680  205.8290  153.0140 C   0  0  0  0  0  0  0  0  0  0  0  0
  160.8650  208.7300  154.7370 C   0  0  1  0  0  0  0  0  0  0  0  0
  162.1390  208.1630  149.7030 C   0  0  2  0  0  3  0  0  0  0  0  0
  160.3860  207.3260  154.9910 C   0  0  1  0  0  3  0  0  0  0  0  0
  162.1060  209.2860  148.6380 C   0  0  0  0  0  2  0  0  0  0  0  0
  160.9340  206.1650  154.3310 N   0  0  0  0  0  2  0  0  0  0  0  0
  161.5800  207.8930  155.5990 N   0  0  0  0  0  2  0  0  0  0  0  0
  162.0340  210.9240  155.7760 C   0  0  0  0  0  3  0  0  0  0  0  0
  163.2780  210.7030  155.6810 O   0  0  0  0  0  0  0  0  0  0  0  0
  160.9990  210.0020  155.3250 N   0  0  0  0  0  2  0  0  0  0  0  0
  161.4570  206.7840  149.3650 C   0  0  0  0  0  2  0  0  0  0  0  0
  161.7550  206.1920  148.0280 C   0  0  0  0  0  2  0  0  0  0  0  0
  161.0670  204.1290  149.0780 N   0  0  0  0  0  0  0  0  0  0  0  0
  160.8300  202.8450  149.1200 C   0  0  0  0  0  3  0  0  0  0  0  0
  161.2060  202.7470  146.7960 N   0  0  0  0  0  0  0  0  0  0  0  0
  160.9210  202.0780  147.9620 C   0  0  0  0  0  3  0  0  0  0  0  0
  161.5460  204.0360  146.8060 C   0  0  0  0  0  3  0  0  0  0  0  0
  161.5990  204.7540  148.0080 C   0  0  0  0  0  0  0  0  0  0  0  0
  1  7  1  0  0  0  0
  2  4  1  6  0  0  0
  2 11  1  0  0  0  0
  3  7  1  0  0  0  0
  3  5  1  0  0  0  0
  5  2  1  0  0  0  0
  6  5  1  0  0  0  0
  6 10  2  0  0  0  0
  7  9  1  0  0  0  0
  8 10  1  0  0  0  0
  9  4  1  0  0  0  0
 10 15  1  0  0  0  0
 11 13  1  0  0  0  0
 11 19  1  0  0  0  0
 11 16  1  0  0  0  0
 12  3  1  0  0  0  0
 13 16  1  0  0  0  0
 14  1  1  0  0  0  0
 14 12  1  0  0  0  0
 15 13  1  0  0  0  0
 18 17  2  0  0  0  0
 19 17  1  0  0  0  0
 20 12  1  0  0  0  0
 21 20  1  0  0  0  0
 22 23  1  0  0  0  0
 24 26  2  0  0  0  0
 24 25  1  0  0  0  0
 25 23  2  0  0  0  0
 26 27  1  0  0  0  0
 27 21  1  0  0  0  0
 27 22  2  0  0  0  0
M  END
>  <MODEL>
5

>  <REMARK>
 VINA RESULT:      -8.2      3.223      8.271
  Name = 
  4 active torsions:
  status: ('A' for Active; 'I' for Inactive)
    1  A    between atoms: C_7  and  C_18
    2  A    between atoms: C_7  and  C_23
    3  A    between atoms: C_17  and  N_20
    4  A    between atoms: C_23  and  C_27
                            x       y       z     vdW  Elec       q    Type
                         _______ _______ _______ _____ _____    ______ ____

>  <TORSDO>
F 4

$$$$
=
 OpenBabel11072413183D

 27 31  0  0  1  0  0  0  0  0999 V2000
  161.8090  210.1720  150.7100 C   0  0  0  0  0  2  0  0  0  0  0  0
  161.4740  206.5140  148.6990 C   0  0  2  0  0  3  0  0  0  0  0  0
  161.9090  207.8210  150.7880 C   0  0  1  0  0  3  0  0  0  0  0  0
  162.6120  207.5210  148.2640 N   0  0  0  0  0  2  0  0  0  0  0  0
  161.7200  206.5000  150.1470 C   0  0  1  0  0  3  0  0  0  0  0  0
  161.3740  205.4320  151.0630 N   0  0  0  0  0  0  0  0  0  0  0  0
  161.6440  208.9140  149.8440 C   0  0  2  0  0  3  0  0  0  0  0  0
  160.8240  203.2250  151.9290 C   0  0  0  0  0  1  0  0  0  0  0  0
  162.3560  208.8480  148.6360 O   0  0  0  0  0  0  0  0  0  0  0  0
  161.0480  204.1950  150.8090 C   0  0  0  0  0  0  0  0  0  0  0  0
  161.4600  205.3480  147.6500 C   0  0  1  0  0  0  0  0  0  0  0  0
  161.1780  208.1740  152.0330 C   0  0  2  0  0  3  0  0  0  0  0  0
  161.6400  203.9950  148.2850 C   0  0  1  0  0  3  0  0  0  0  0  0
  161.6140  209.6540  152.1760 C   0  0  0  0  0  2  0  0  0  0  0  0
  161.0570  203.6250  149.5530 N   0  0  0  0  0  2  0  0  0  0  0  0
  160.4560  204.3830  147.5340 N   0  0  0  0  0  2  0  0  0  0  0  0
  161.2250  205.7420  144.9960 C   0  0  0  0  0  3  0  0  0  0  0  0
  160.9870  204.5930  144.5180 O   0  0  0  0  0  0  0  0  0  0  0  0
  161.4190  206.0190  146.4130 N   0  0  0  0  0  2  0  0  0  0  0  0
  161.6800  207.1350  153.1050 C   0  0  0  0  0  2  0  0  0  0  0  0
  160.8310  206.9530  154.3190 C   0  0  0  0  0  2  0  0  0  0  0  0
  159.8720  208.9230  155.3370 N   0  0  0  0  0  0  0  0  0  0  0  0
  159.8370  209.9210  156.1790 C   0  0  0  0  0  3  0  0  0  0  0  0
  161.7340  209.0230  157.2490 N   0  0  0  0  0  0  0  0  0  0  0  0
  160.8040  210.0320  157.1730 C   0  0  0  0  0  3  0  0  0  0  0  0
  161.8050  208.0780  156.3120 C   0  0  0  0  0  3  0  0  0  0  0  0
  160.9150  208.0740  155.2300 C   0  0  0  0  0  0  0  0  0  0  0  0
  1 14  1  0  0  0  0
  2  4  1  6  0  0  0
  2  5  1  0  0  0  0
  3 12  1  0  0  0  0
  4  9  1  0  0  0  0
  5  3  1  0  0  0  0
  5  6  1  0  0  0  0
  7  1  1  0  0  0  0
  7  3  1  0  0  0  0
  9  7  1  0  0  0  0
 10  6  2  0  0  0  0
 10  8  1  0  0  0  0
 11 13  1  0  0  0  0
 11  2  1  0  0  0  0
 12 14  1  0  0  0  0
 12 20  1  0  0  0  0
 13 15  1  0  0  0  0
 15 10  1  0  0  0  0
 16 11  1  0  0  0  0
 16 13  1  0  0  0  0
 17 19  1  0  0  0  0
 18 17  2  0  0  0  0
 19 11  1  0  0  0  0
 20 21  1  0  0  0  0
 21 27  1  0  0  0  0
 22 23  1  0  0  0  0
 23 25  2  0  0  0  0
 25 24  1  0  0  0  0
 26 24  2  0  0  0  0
 27 22  2  0  0  0  0
 27 26  1  0  0  0  0
M  END
>  <MODEL>
6

>  <REMARK>
 VINA RESULT:      -8.0      2.239      4.146
  Name = 
  4 active torsions:
  status: ('A' for Active; 'I' for Inactive)
    1  A    between atoms: C_7  and  C_18
    2  A    between atoms: C_7  and  C_23
    3  A    between atoms: C_17  and  N_20
    4  A    between atoms: C_23  and  C_27
                            x       y       z     vdW  Elec       q    Type
                         _______ _______ _______ _____ _____    ______ ____

>  <TORSDO>
F 4

$$$$
=
 OpenBabel11072413183D

 27 31  0  0  1  0  0  0  0  0999 V2000
  161.8920  208.5310  148.2650 C   0  0  0  0  0  2  0  0  0  0  0  0
  161.2660  204.3970  148.0350 C   0  0  2  0  0  3  0  0  0  0  0  0
  161.8830  206.4390  149.3430 C   0  0  1  0  0  3  0  0  0  0  0  0
  162.4250  205.0410  147.1740 N   0  0  0  0  0  2  0  0  0  0  0  0
  161.5930  204.9870  149.3400 C   0  0  1  0  0  3  0  0  0  0  0  0
  161.2500  204.4400  150.6370 N   0  0  0  0  0  0  0  0  0  0  0  0
  161.6170  207.0380  148.0290 C   0  0  2  0  0  3  0  0  0  0  0  0
  160.6440  202.8580  152.3850 C   0  0  0  0  0  1  0  0  0  0  0  0
  162.2540  206.4130  146.9460 O   0  0  0  0  0  0  0  0  0  0  0  0
  160.8500  203.2380  150.9500 C   0  0  0  0  0  0  0  0  0  0  0  0
  161.1360  202.8980  147.5910 C   0  0  1  0  0  0  0  0  0  0  0  0
  161.2420  207.3400  150.3380 C   0  0  2  0  0  3  0  0  0  0  0  0
  161.2860  201.9380  148.7410 C   0  0  1  0  0  3  0  0  0  0  0  0
  161.7570  208.7040  149.8160 C   0  0  0  0  0  2  0  0  0  0  0  0
  160.7590  202.1870  150.0620 N   0  0  0  0  0  2  0  0  0  0  0  0
  160.0810  202.0470  147.9330 N   0  0  0  0  0  2  0  0  0  0  0  0
  160.4560  202.2760  145.0610 C   0  0  0  0  0  3  0  0  0  0  0  0
  159.7190  201.2500  145.1660 O   0  0  0  0  0  0  0  0  0  0  0  0
  161.0560  202.9770  146.1880 N   0  0  0  0  0  2  0  0  0  0  0  0
  161.7540  206.8270  151.7370 C   0  0  0  0  0  2  0  0  0  0  0  0
  160.8310  206.9970  152.8970 C   0  0  0  0  0  2  0  0  0  0  0  0
  161.1780  209.3550  153.2930 N   0  0  0  0  0  0  0  0  0  0  0  0
  161.4490  210.4040  154.0220 C   0  0  0  0  0  3  0  0  0  0  0  0
  161.3720  209.0340  155.9370 N   0  0  0  0  0  0  0  0  0  0  0  0
  161.5900  210.2800  155.4010 C   0  0  0  0  0  3  0  0  0  0  0  0
  161.2040  207.9670  155.1570 C   0  0  0  0  0  3  0  0  0  0  0  0
  161.2200  208.0900  153.7620 C   0  0  0  0  0  0  0  0  0  0  0  0
  1 14  1  0  0  0  0
  2  4  1  6  0  0  0
  2  5  1  0  0  0  0
  3 12  1  0  0  0  0
  5  3  1  0  0  0  0
  5  6  1  0  0  0  0
  6 10  2  0  0  0  0
  7  1  1  0  0  0  0
  7  3  1  0  0  0  0
  9  4  1  0  0  0  0
  9  7  1  0  0  0  0
 10  8  1  0  0  0  0
 11 16  1  0  0  0  0
 11  2  1  0  0  0  0
 11 13  1  0  0  0  0
 12 20  1  0  0  0  0
 13 15  1  0  0  0  0
 14 12  1  0  0  0  0
 15 10  1  0  0  0  0
 16 13  1  0  0  0  0
 17 18  2  0  0  0  0
 17 19  1  0  0  0  0
 19 11  1  0  0  0  0
 20 21  1  0  0  0  0
 21 27  1  0  0  0  0
 22 27  2  0  0  0  0
 22 23  1  0  0  0  0
 23 25  2  0  0  0  0
 25 24  1  0  0  0  0
 26 24  2  0  0  0  0
 27 26  1  0  0  0  0
M  END
>  <MODEL>
7

>  <REMARK>
 VINA RESULT:      -7.8      1.612      3.620
  Name = 
  4 active torsions:
  status: ('A' for Active; 'I' for Inactive)
    1  A    between atoms: C_7  and  C_18
    2  A    between atoms: C_7  and  C_23
    3  A    between atoms: C_17  and  N_20
    4  A    between atoms: C_23  and  C_27
                            x       y       z     vdW  Elec       q    Type
                         _______ _______ _______ _____ _____    ______ ____

>  <TORSDO>
F 4

$$$$
=
 OpenBabel11072413183D

 27 31  0  0  1  0  0  0  0  0999 V2000
  162.2160  205.8750  146.0010 C   0  0  0  0  0  2  0  0  0  0  0  0
  161.8160  206.9520  150.0280 C   0  0  2  0  0  3  0  0  0  0  0  0
  161.3850  205.3640  148.1430 C   0  0  1  0  0  3  0  0  0  0  0  0
  161.1560  207.8720  148.9250 N   0  0  0  0  0  2  0  0  0  0  0  0
  161.2870  205.6530  149.5920 C   0  0  1  0  0  3  0  0  0  0  0  0
  161.0920  204.4850  150.4260 N   0  0  0  0  0  0  0  0  0  0  0  0
  162.1610  206.3970  147.4450 C   0  0  2  0  0  3  0  0  0  0  0  0
  160.7490  203.0820  152.3850 C   0  0  0  0  0  1  0  0  0  0  0  0
  161.7260  207.7150  147.6530 O   0  0  0  0  0  0  0  0  0  0  0  0
  161.0680  204.3900  151.7270 C   0  0  0  0  0  0  0  0  0  0  0  0
  161.6850  207.7050  151.3980 C   0  0  1  0  0  0  0  0  0  0  0  0
  161.9180  204.0620  147.6620 C   0  0  2  0  0  3  0  0  0  0  0  0
  160.9730  206.8880  152.4430 C   0  0  1  0  0  3  0  0  0  0  0  0
  161.9380  204.3400  146.1390 C   0  0  0  0  0  2  0  0  0  0  0  0
  161.1420  205.4620  152.5920 N   0  0  0  0  0  2  0  0  0  0  0  0
  162.3460  207.3490  152.5770 N   0  0  0  0  0  2  0  0  0  0  0  0
  161.8670  210.3920  151.3600 C   0  0  0  0  0  3  0  0  0  0  0  0
  160.8760  210.7940  152.0380 O   0  0  0  0  0  0  0  0  0  0  0  0
  162.1830  208.9910  151.1150 N   0  0  0  0  0  2  0  0  0  0  0  0
  160.9130  202.9830  148.2180 C   0  0  0  0  0  2  0  0  0  0  0  0
  161.3910  201.5700  148.2550 C   0  0  0  0  0  2  0  0  0  0  0  0
  160.3730  201.4410  146.0680 N   0  0  0  0  0  0  0  0  0  0  0  0
  160.0150  200.8420  144.9650 C   0  0  0  0  0  3  0  0  0  0  0  0
  161.2510  198.9550  145.6430 N   0  0  0  0  0  0  0  0  0  0  0  0
  160.4220  199.5350  144.7140 C   0  0  0  0  0  3  0  0  0  0  0  0
  161.5110  199.5530  146.8050 C   0  0  0  0  0  3  0  0  0  0  0  0
  160.9620  200.8070  147.1030 C   0  0  0  0  0  0  0  0  0  0  0  0
  1 14  1  0  0  0  0
  1  7  1  0  0  0  0
  2  4  1  6  0  0  0
  2 11  1  0  0  0  0
  3  5  1  0  0  0  0
  5  2  1  0  0  0  0
  5  6  1  0  0  0  0
  6 10  2  0  0  0  0
  7  9  1  0  0  0  0
  7  3  1  0  0  0  0
  9  4  1  0  0  0  0
 10  8  1  0  0  0  0
 10 15  1  0  0  0  0
 11 13  1  0  0  0  0
 11 16  1  0  0  0  0
 12  3  1  0  0  0  0
 12 20  1  0  0  0  0
 13 16  1  0  0  0  0
 13 15  1  0  0  0  0
 14 12  1  0  0  0  0
 17 18  2  0  0  0  0
 19 17  1  0  0  0  0
 19 11  1  0  0  0  0
 20 21  1  0  0  0  0
 22 27  1  0  0  0  0
 23 22  2  0  0  0  0
 24 26  1  0  0  0  0
 25 23  1  0  0  0  0
 25 24  2  0  0  0  0
 26 27  2  0  0  0  0
 27 21  1  0  0  0  0
M  END
>  <MODEL>
8

>  <REMARK>
 VINA RESULT:      -7.5      2.779      8.029
  Name = 
  4 active torsions:
  status: ('A' for Active; 'I' for Inactive)
    1  A    between atoms: C_7  and  C_18
    2  A    between atoms: C_7  and  C_23
    3  A    between atoms: C_17  and  N_20
    4  A    between atoms: C_23  and  C_27
                            x       y       z     vdW  Elec       q    Type
                         _______ _______ _______ _____ _____    ______ ____

>  <TORSDO>
F 4

$$$$
=
 OpenBabel11072413183D

 27 31  0  0  1  0  0  0  0  0999 V2000
  162.0540  210.2640  148.6430 C   0  0  0  0  0  2  0  0  0  0  0  0
  161.4960  206.3470  150.0150 C   0  0  2  0  0  3  0  0  0  0  0  0
  162.0760  208.7450  150.4400 C   0  0  1  0  0  3  0  0  0  0  0  0
  162.6460  206.6310  148.9690 N   0  0  0  0  0  2  0  0  0  0  0  0
  161.8100  207.3970  150.9940 C   0  0  1  0  0  3  0  0  0  0  0  0
  161.4710  207.3830  152.4020 N   0  0  0  0  0  0  0  0  0  0  0  0
  161.8040  208.7910  148.9970 C   0  0  2  0  0  3  0  0  0  0  0  0
  160.8860  206.5820  154.6240 C   0  0  0  0  0  1  0  0  0  0  0  0
  162.4540  207.8090  148.2340 O   0  0  0  0  0  0  0  0  0  0  0  0
  161.0900  206.3860  153.1520 C   0  0  0  0  0  0  0  0  0  0  0  0
  161.3910  204.7910  150.1790 C   0  0  1  0  0  0  0  0  0  0  0  0
  161.4180  209.9470  151.0160 C   0  0  2  0  0  3  0  0  0  0  0  0
  161.5530  204.3470  151.6080 C   0  0  1  0  0  3  0  0  0  0  0  0
  161.9110  211.0160  150.0100 C   0  0  0  0  0  2  0  0  0  0  0  0
  161.0190  205.0740  152.7350 N   0  0  0  0  0  2  0  0  0  0  0  0
  160.3490  204.1190  150.8240 N   0  0  0  0  0  2  0  0  0  0  0  0
  161.2530  203.0750  148.1080 C   0  0  0  0  0  3  0  0  0  0  0  0
  161.2360  201.9250  148.6400 O   0  0  0  0  0  0  0  0  0  0  0  0
  161.3140  204.3250  148.8530 N   0  0  0  0  0  2  0  0  0  0  0  0
  161.9330  210.0170  152.5030 C   0  0  0  0  0  2  0  0  0  0  0  0
  161.2810  211.0170  153.3970 C   0  0  0  0  0  2  0  0  0  0  0  0
  160.0690  210.0790  155.2650 N   0  0  0  0  0  0  0  0  0  0  0  0
  159.9460  209.6010  156.4740 C   0  0  0  0  0  3  0  0  0  0  0  0
  162.2920  209.6400  156.6780 N   0  0  0  0  0  0  0  0  0  0  0  0
  161.0730  209.3840  157.2590 C   0  0  0  0  0  3  0  0  0  0  0  0
  162.3780  210.2250  155.4850 C   0  0  0  0  0  3  0  0  0  0  0  0
  161.2230  210.5780  154.7750 C   0  0  0  0  0  0  0  0  0  0  0  0
  1  7  1  0  0  0  0
  1 14  1  0  0  0  0
  2  4  1  6  0  0  0
  2 11  1  0  0  0  0
  2  5  1  0  0  0  0
  3  5  1  0  0  0  0
  3 12  1  0  0  0  0
  5  6  1  0  0  0  0
  6 10  2  0  0  0  0
  7  3  1  0  0  0  0
  9  4  1  0  0  0  0
  9  7  1  0  0  0  0
 10  8  1  0  0  0  0
 11 16  1  0  0  0  0
 11 13  1  0  0  0  0
 12 20  1  0  0  0  0
 13 15  1  0  0  0  0
 14 12  1  0  0  0  0
 15 10  1  0  0  0  0
 16 13  1  0  0  0  0
 17 18  2  0  0  0  0
 17 19  1  0  0  0  0
 19 11  1  0  0  0  0
 20 21  1  0  0  0  0
 21 27  1  0  0  0  0
 22 23  1  0  0  0  0
 23 25  2  0  0  0  0
 24 25  1  0  0  0  0
 26 24  2  0  0  0  0
 27 22  2  0  0  0  0
 27 26  1  0  0  0  0
M  END
>  <MODEL>
9

>  <REMARK>
 VINA RESULT:      -7.4      2.241      4.867
  Name = 
  4 active torsions:
  status: ('A' for Active; 'I' for Inactive)
    1  A    between atoms: C_7  and  C_18
    2  A    between atoms: C_7  and  C_23
    3  A    between atoms: C_17  and  N_20
    4  A    between atoms: C_23  and  C_27
                            x       y       z     vdW  Elec       q    Type
                         _______ _______ _______ _____ _____    ______ ____

>  <TORSDO>
F 4

$$$$
