=
 OpenBabel11072412503D

 52 57  0  0  1  0  0  0  0  0999 V2000
  162.3450  208.8690  150.8480 C   0  0  0  0  0  0  0  0  0  0  0  0
  161.5940  209.9700  151.3900 C   0  0  0  0  0  0  0  0  0  0  0  0
  161.7910  207.5690  151.3280 C   0  0  1  0  0  3  0  0  0  0  0  0
  163.3410  208.9890  150.0870 O   0  0  0  0  0  0  0  0  0  0  0  0
  160.7590  208.0240  152.3780 C   0  0  2  0  0  3  0  0  0  0  0  0
  161.7410  211.3310  150.9910 N   0  0  0  0  0  1  0  0  0  0  0  0
  160.6680  209.5230  152.2170 C   0  0  0  0  0  0  0  0  0  0  0  0
  161.2670  207.6850  153.7680 C   0  0  0  0  0  1  0  0  0  0  0  0
  160.2340  211.1860  153.9680 C   0  0  0  0  0  2  0  0  0  0  0  0
  159.6160  210.4140  152.8160 C   0  0  1  0  0  3  0  0  0  0  0  0
  159.9410  211.8920  152.6570 C   0  0  1  0  0  3  0  0  0  0  0  0
  158.6790  212.7900  152.6930 C   0  0  0  0  0  0  0  0  0  0  0  0
  158.9410  213.9200  153.6760 C   0  0  0  0  0  1  0  0  0  0  0  0
  157.4140  212.0770  153.1930 C   0  0  0  0  0  1  0  0  0  0  0  0
  157.2540  213.5480  150.9030 O   0  0  0  0  0  0  0  0  0  0  0  0
  158.4360  213.3730  151.3100 C   0  0  0  0  0  0  0  0  0  0  0  0
  159.5460  213.7310  150.4020 C   0  0  0  0  0  0  0  0  0  0  0  0
  160.4900  214.4480  150.8300 O   0  0  0  0  0  0  0  0  0  0  0  0
  159.5640  213.2590  149.0520 N   0  0  0  0  0  2  0  0  0  0  0  0
  161.5150  212.0950  147.6980 O   0  0  0  0  0  0  0  0  0  0  0  0
  160.9350  213.4470  148.0130 S   0  0  0  0  0  0  0  0  0  0  0  0
  161.9760  214.3030  148.6790 O   0  0  0  0  0  0  0  0  0  0  0  0
  160.4180  214.2310  146.5050 C   0  0  0  0  0  2  0  0  0  0  0  0
  159.1720  213.0110  144.7520 C   0  0  2  0  0  3  0  0  0  0  0  0
  160.4810  213.2710  145.4150 N   0  0  0  0  0  0  0  0  0  0  0  0
  160.0900  214.0060  144.2030 C   0  0  0  0  0  2  0  0  0  0  0  0
  157.7190  213.8480  145.4990 S   0  0  0  0  0  0  0  0  0  0  0  0
  157.1880  212.3270  146.3270 C   0  0  0  0  0  1  0  0  0  0  0  0
  161.3480  207.3560  148.9550 O   0  0  0  0  0  1  0  0  0  0  0  0
  161.0500  206.8300  150.2120 C   0  0  1  0  0  3  0  0  0  0  0  0
  161.3450  205.3250  150.2580 C   0  0  1  0  0  3  0  0  0  0  0  0
  160.5910  204.6860  151.3310 N   0  0  0  0  0  0  0  0  0  0  0  0
  161.4020  203.6140  151.8560 C   0  0  2  0  0  3  0  0  0  0  0  0
  160.5900  202.7050  152.5290 O   0  0  0  0  0  1  0  0  0  0  0  0
  161.3470  204.8160  152.4840 O   0  0  0  0  0  0  0  0  0  0  0  0
  161.1550  204.6370  148.8880 C   0  0  2  0  0  3  0  0  0  0  0  0
  160.2530  205.3960  147.8940 C   0  0  1  0  0  3  0  0  0  0  0  0
  159.7090  206.5440  148.4770 O   0  0  0  0  0  1  0  0  0  0  0  0
  162.5630  204.4430  145.2770 C   0  0  0  0  0  2  0  0  0  0  0  0
  162.3950  205.1720  146.5980 C   0  0  0  0  0  2  0  0  0  0  0  0
  161.3880  204.8360  144.4050 C   0  0  1  0  0  3  0  0  0  0  0  0
  160.9980  205.7570  146.6060 C   0  0  1  0  0  3  0  0  0  0  0  0
  160.2940  205.2440  145.3630 C   0  0  0  0  0  2  0  0  0  0  0  0
  161.7430  205.9280  143.6100 O   0  0  0  0  0  1  0  0  0  0  0  0
  160.6250  203.2310  149.1220 C   0  0  0  0  0  2  0  0  0  0  0  0
  160.4570  201.1570  145.9280 C   0  0  0  0  0  0  0  0  0  0  0  0
  161.3760  200.9000  148.6360 C   0  0  0  0  0  2  0  0  0  0  0  0
  161.7690  199.9170  147.5690 C   0  0  0  0  0  3  0  0  0  0  0  0
  160.0700  202.2010  146.9360 C   0  0  0  0  0  2  0  0  0  0  0  0
  161.3170  200.0270  146.3190 C   0  0  0  0  0  3  0  0  0  0  0  0
  160.0200  201.2340  144.7500 O   0  0  0  0  0  0  0  0  0  0  0  0
  161.1190  202.2890  148.0440 C   0  0  1  0  0  3  0  0  0  0  0  0
  1  3  1  0  0  0  0
  1  2  1  0  0  0  0
  2  7  2  0  0  0  0
  3 30  1  6  0  0  0
  3  5  1  0  0  0  0
  4  1  2  0  0  0  0
  5  8  1  1  0  0  0
  6  2  1  0  0  0  0
  7  5  1  0  0  0  0
 10  7  1  6  0  0  0
 10  9  1  0  0  0  0
 11 12  1  1  0  0  0
 11 10  1  0  0  0  0
 11  9  1  0  0  0  0
 12 14  1  0  0  0  0
 12 13  1  0  0  0  0
 15 16  2  0  0  0  0
 16 12  1  0  0  0  0
 17 18  2  0  0  0  0
 17 16  1  0  0  0  0
 19 17  1  0  0  0  0
 20 21  2  0  0  0  0
 21 22  2  0  0  0  0
 21 19  1  0  0  0  0
 23 21  1  0  0  0  0
 24 25  1  0  0  0  0
 24 27  1  1  0  0  0
 25 23  1  0  0  0  0
 26 24  1  0  0  0  0
 26 25  1  0  0  0  0
 27 28  1  0  0  0  0
 30 29  1  6  0  0  0
 30 31  1  0  0  0  0
 31 36  1  6  0  0  0
 31 32  1  0  0  0  0
 32 33  1  0  0  0  0
 32 35  1  0  0  0  0
 33 35  1  0  0  0  0
 33 34  1  1  0  0  0
 36 45  1  1  0  0  0
 37 38  1  1  0  0  0
 37 36  1  0  0  0  0
 39 40  1  0  0  0  0
 40 42  1  0  0  0  0
 41 44  1  6  0  0  0
 41 39  1  0  0  0  0
 41 43  1  0  0  0  0
 42 37  1  1  0  0  0
 43 42  1  0  0  0  0
 46 50  1  0  0  0  0
 46 49  1  0  0  0  0
 48 47  1  0  0  0  0
 49 52  1  0  0  0  0
 50 48  2  0  0  0  0
 51 46  2  0  0  0  0
 52 47  1  0  0  0  0
 52 45  1  1  0  0  0
M  END
>  <MODEL>
1

>  <REMARK>
 VINA RESULT:      -6.4      0.000      0.000
  Name = 
  16 active torsions:
  status: ('A' for Active; 'I' for Inactive)
    1  A    between atoms: N_1  and  C_11
    2  A    between atoms: C_3  and  C_20
    3  A    between atoms: C_9  and  C_29
    4  A    between atoms: C_9  and  C_52
    5  A    between atoms: C_11  and  C_42
    6  A    between atoms: C_11  and  C_52
    7  A    between atoms: C_12  and  C_45
    8  A    between atoms: C_16  and  C_42
    9  A    between atoms: C_20  and  C_23
   10  A    between atoms: C_21  and  S_46
   11  A    between atoms: C_23  and  C_34
   12  A    between atoms: S_28  and  C_43
   13  A    between atoms: S_28  and  N_47
   14  A    between atoms: N_35  and  C_43
   15  A    between atoms: C_37  and  C_48
   16  A    between atoms: C_37  and  C_52
                            x       y       z     vdW  Elec       q    Type
                         _______ _______ _______ _____ _____    ______ ____

>  <TORSDO>
F 16

$$$$
=
 OpenBabel11072412503D

 52 57  0  0  1  0  0  0  0  0999 V2000
  162.2630  209.6030  151.8420 C   0  0  0  0  0  0  0  0  0  0  0  0
  161.7060  208.3040  152.1100 C   0  0  0  0  0  0  0  0  0  0  0  0
  162.0780  209.9670  150.4060 C   0  0  1  0  0  3  0  0  0  0  0  0
  162.8380  210.3250  152.6980 O   0  0  0  0  0  0  0  0  0  0  0  0
  161.5360  208.6550  149.8050 C   0  0  2  0  0  3  0  0  0  0  0  0
  161.5500  207.7370  153.4090 N   0  0  0  0  0  1  0  0  0  0  0  0
  161.2500  207.7670  150.9930 C   0  0  0  0  0  0  0  0  0  0  0  0
  162.6020  208.0200  148.9320 C   0  0  0  0  0  1  0  0  0  0  0  0
  160.6550  205.8240  149.6180 C   0  0  0  0  0  2  0  0  0  0  0  0
  160.4640  206.4860  150.9700 C   0  0  1  0  0  3  0  0  0  0  0  0
  161.3520  205.2570  150.8410 C   0  0  1  0  0  3  0  0  0  0  0  0
  160.6880  203.9760  151.4070 C   0  0  0  0  0  0  0  0  0  0  0  0
  159.3300  203.8240  150.7380 C   0  0  0  0  0  1  0  0  0  0  0  0
  160.4150  204.0250  152.9170 C   0  0  0  0  0  1  0  0  0  0  0  0
  162.4990  202.4470  151.8390 O   0  0  0  0  0  0  0  0  0  0  0  0
  161.5510  202.7710  151.0720 C   0  0  0  0  0  0  0  0  0  0  0  0
  161.3340  201.9630  149.8530 C   0  0  0  0  0  0  0  0  0  0  0  0
  161.1690  200.7170  149.9580 O   0  0  0  0  0  0  0  0  0  0  0  0
  161.2970  202.5820  148.5650 N   0  0  0  0  0  2  0  0  0  0  0  0
  159.3750  201.3360  147.2430 O   0  0  0  0  0  0  0  0  0  0  0  0
  160.8210  201.7350  147.1330 S   0  0  0  0  0  0  0  0  0  0  0  0
  161.6730  200.5100  146.9490 O   0  0  0  0  0  0  0  0  0  0  0  0
  161.0320  202.8030  145.7290 C   0  0  0  0  0  2  0  0  0  0  0  0
  162.3090  204.9000  145.4370 C   0  0  2  0  0  3  0  0  0  0  0  0
  162.3280  203.4590  145.8110 N   0  0  0  0  0  0  0  0  0  0  0  0
  162.1900  204.5030  146.8380 C   0  0  0  0  0  2  0  0  0  0  0  0
  160.7010  205.5470  144.8330 S   0  0  0  0  0  0  0  0  0  0  0  0
  160.7340  206.9180  146.0160 C   0  0  0  0  0  1  0  0  0  0  0  0
  160.5570  211.5290  151.4650 O   0  0  0  0  0  1  0  0  0  0  0  0
  161.0120  211.0520  150.2360 C   0  0  1  0  0  3  0  0  0  0  0  0
  161.5300  212.2010  149.3620 C   0  0  1  0  0  3  0  0  0  0  0  0
  162.1220  211.6840  148.1320 N   0  0  0  0  0  0  0  0  0  0  0  0
  163.3260  212.4360  147.8770 C   0  0  2  0  0  3  0  0  0  0  0  0
  163.6690  212.3220  146.5320 O   0  0  0  0  0  1  0  0  0  0  0  0
  163.3820  211.2130  148.4600 O   0  0  0  0  0  0  0  0  0  0  0  0
  160.4640  213.2900  149.1120 C   0  0  2  0  0  3  0  0  0  0  0  0
  160.8790  214.3970  148.1220 C   0  0  1  0  0  3  0  0  0  0  0  0
  162.2690  214.4520  147.9750 O   0  0  0  0  0  1  0  0  0  0  0  0
  161.0740  213.2480  144.6960 C   0  0  0  0  0  2  0  0  0  0  0  0
  161.1970  214.4390  145.6290 C   0  0  0  0  0  2  0  0  0  0  0  0
  159.8330  212.4870  145.1170 C   0  0  1  0  0  3  0  0  0  0  0  0
  160.2090  214.2240  146.7560 C   0  0  1  0  0  3  0  0  0  0  0  0
  159.6180  212.8380  146.5710 C   0  0  0  0  0  2  0  0  0  0  0  0
  158.7410  212.9260  144.3650 O   0  0  0  0  0  1  0  0  0  0  0  0
  160.0670  213.8950  150.4500 C   0  0  0  0  0  2  0  0  0  0  0  0
  156.5180  214.1840  151.8110 C   0  0  0  0  0  0  0  0  0  0  0  0
  157.8550  213.4820  149.3690 C   0  0  0  0  0  2  0  0  0  0  0  0
  156.3780  213.7590  149.4130 C   0  0  0  0  0  3  0  0  0  0  0  0
  158.0050  213.9700  151.8240 C   0  0  0  0  0  2  0  0  0  0  0  0
  155.7590  214.0580  150.5560 C   0  0  0  0  0  3  0  0  0  0  0  0
  155.9160  214.4460  152.8850 O   0  0  0  0  0  0  0  0  0  0  0  0
  158.6000  214.2720  150.4500 C   0  0  1  0  0  3  0  0  0  0  0  0
  1  2  1  0  0  0  0
  1  4  2  0  0  0  0
  2  6  1  0  0  0  0
  3 30  1  1  0  0  0
  3  1  1  0  0  0  0
  5  8  1  6  0  0  0
  5  3  1  0  0  0  0
  5  7  1  0  0  0  0
  7  2  2  0  0  0  0
  9 11  1  0  0  0  0
  9 10  1  0  0  0  0
 10  7  1  6  0  0  0
 11 10  1  0  0  0  0
 11 12  1  1  0  0  0
 12 14  1  0  0  0  0
 13 12  1  0  0  0  0
 16 12  1  0  0  0  0
 16 15  2  0  0  0  0
 17 18  2  0  0  0  0
 17 16  1  0  0  0  0
 19 17  1  0  0  0  0
 21 20  2  0  0  0  0
 21 19  1  0  0  0  0
 22 21  2  0  0  0  0
 23 25  1  0  0  0  0
 23 21  1  0  0  0  0
 24 27  1  6  0  0  0
 24 25  1  0  0  0  0
 24 26  1  0  0  0  0
 25 26  1  0  0  0  0
 27 28  1  0  0  0  0
 30 29  1  1  0  0  0
 31 36  1  6  0  0  0
 31 30  1  0  0  0  0
 32 35  1  0  0  0  0
 32 31  1  0  0  0  0
 33 34  1  6  0  0  0
 33 32  1  0  0  0  0
 33 35  1  0  0  0  0
 36 45  1  1  0  0  0
 37 38  1  6  0  0  0
 37 36  1  0  0  0  0
 39 41  1  0  0  0  0
 39 40  1  0  0  0  0
 40 42  1  0  0  0  0
 41 44  1  6  0  0  0
 41 43  1  0  0  0  0
 42 37  1  1  0  0  0
 43 42  1  0  0  0  0
 46 49  1  0  0  0  0
 46 51  2  0  0  0  0
 47 48  1  0  0  0  0
 47 52  1  0  0  0  0
 48 50  2  0  0  0  0
 50 46  1  0  0  0  0
 52 45  1  1  0  0  0
 52 49  1  0  0  0  0
M  END
>  <MODEL>
2

>  <REMARK>
 VINA RESULT:      -5.6      2.970      9.625
  Name = 
  16 active torsions:
  status: ('A' for Active; 'I' for Inactive)
    1  A    between atoms: N_1  and  C_11
    2  A    between atoms: C_3  and  C_20
    3  A    between atoms: C_9  and  C_29
    4  A    between atoms: C_9  and  C_52
    5  A    between atoms: C_11  and  C_42
    6  A    between atoms: C_11  and  C_52
    7  A    between atoms: C_12  and  C_45
    8  A    between atoms: C_16  and  C_42
    9  A    between atoms: C_20  and  C_23
   10  A    between atoms: C_21  and  S_46
   11  A    between atoms: C_23  and  C_34
   12  A    between atoms: S_28  and  C_43
   13  A    between atoms: S_28  and  N_47
   14  A    between atoms: N_35  and  C_43
   15  A    between atoms: C_37  and  C_48
   16  A    between atoms: C_37  and  C_52
                            x       y       z     vdW  Elec       q    Type
                         _______ _______ _______ _____ _____    ______ ____

>  <TORSDO>
F 16

$$$$
=
 OpenBabel11072412503D

 52 57  0  0  1  0  0  0  0  0999 V2000
  162.1240  206.5320  151.6560 C   0  0  0  0  0  0  0  0  0  0  0  0
  161.8780  205.5950  150.5930 C   0  0  0  0  0  0  0  0  0  0  0  0
  161.7960  207.9210  151.2170 C   0  0  1  0  0  3  0  0  0  0  0  0
  162.5680  206.2240  152.7930 O   0  0  0  0  0  0  0  0  0  0  0  0
  161.5260  207.7310  149.7120 C   0  0  2  0  0  3  0  0  0  0  0  0
  161.9110  204.1770  150.7350 N   0  0  0  0  0  1  0  0  0  0  0  0
  161.4980  206.2360  149.5030 C   0  0  0  0  0  0  0  0  0  0  0  0
  162.6630  208.3410  148.9120 C   0  0  0  0  0  1  0  0  0  0  0  0
  160.6550  206.5600  147.2220 C   0  0  0  0  0  2  0  0  0  0  0  0
  161.0100  205.5240  148.2720 C   0  0  1  0  0  3  0  0  0  0  0  0
  161.9220  205.7380  147.0730 C   0  0  1  0  0  3  0  0  0  0  0  0
  161.8140  204.5990  146.0270 C   0  0  0  0  0  0  0  0  0  0  0  0
  160.9670  203.4920  146.6350 C   0  0  0  0  0  1  0  0  0  0  0  0
  163.1580  203.9530  145.6610 C   0  0  0  0  0  1  0  0  0  0  0  0
  159.8910  204.9490  144.6190 O   0  0  0  0  0  0  0  0  0  0  0  0
  161.1310  205.1260  144.7770 C   0  0  0  0  0  0  0  0  0  0  0  0
  161.8750  205.8320  143.7120 C   0  0  0  0  0  0  0  0  0  0  0  0
  163.0480  206.2320  143.9390 O   0  0  0  0  0  0  0  0  0  0  0  0
  161.2810  206.0490  142.4300 N   0  0  0  0  0  2  0  0  0  0  0  0
  162.4950  205.5260  140.1390 O   0  0  0  0  0  0  0  0  0  0  0  0
  162.1720  206.6570  141.0770 S   0  0  0  0  0  0  0  0  0  0  0  0
  163.4440  207.3080  141.5450 O   0  0  0  0  0  0  0  0  0  0  0  0
  161.1840  207.8640  140.2260 C   0  0  0  0  0  2  0  0  0  0  0  0
  161.2890  209.6130  138.4800 C   0  0  2  0  0  3  0  0  0  0  0  0
  162.0230  208.6070  139.2980 N   0  0  0  0  0  0  0  0  0  0  0  0
  161.9480  210.0130  139.7210 C   0  0  0  0  0  2  0  0  0  0  0  0
  159.4670  209.6460  138.7040 S   0  0  0  0  0  0  0  0  0  0  0  0
  159.5570  211.1270  139.7440 C   0  0  0  0  0  1  0  0  0  0  0  0
  159.9240  207.4550  152.6840 O   0  0  0  0  0  1  0  0  0  0  0  0
  160.5120  208.4290  151.8780 C   0  0  1  0  0  3  0  0  0  0  0  0
  160.7740  209.7130  152.6750 C   0  0  1  0  0  3  0  0  0  0  0  0
  162.1090  209.6900  153.2640 N   0  0  0  0  0  0  0  0  0  0  0  0
  162.0320  210.3460  154.5460 C   0  0  2  0  0  3  0  0  0  0  0  0
  163.3040  210.7600  154.9330 O   0  0  0  0  0  1  0  0  0  0  0  0
  162.0080  208.9920  154.4560 O   0  0  0  0  0  0  0  0  0  0  0  0
  160.4940  210.9920  151.8550 C   0  0  2  0  0  3  0  0  0  0  0  0
  161.6690  211.4790  150.9810 C   0  0  1  0  0  3  0  0  0  0  0  0
  162.6910  210.5270  150.9290 O   0  0  0  0  0  1  0  0  0  0  0  0
  161.2960  213.9840  148.3970 C   0  0  0  0  0  2  0  0  0  0  0  0
  160.6120  213.2350  149.5260 C   0  0  0  0  0  2  0  0  0  0  0  0
  162.0830  212.9600  147.6040 C   0  0  1  0  0  3  0  0  0  0  0  0
  161.2140  211.8460  149.5660 C   0  0  1  0  0  3  0  0  0  0  0  0
  162.3560  211.8280  148.5660 C   0  0  0  0  0  2  0  0  0  0  0  0
  161.3020  212.4930  146.5440 O   0  0  0  0  0  1  0  0  0  0  0  0
  160.0500  212.0910  152.8090 C   0  0  0  0  0  2  0  0  0  0  0  0
  156.4630  213.1900  153.4870 C   0  0  0  0  0  0  0  0  0  0  0  0
  158.4410  211.4300  154.6000 C   0  0  0  0  0  2  0  0  0  0  0  0
  156.9960  211.3600  155.0100 C   0  0  0  0  0  3  0  0  0  0  0  0
  157.8810  213.2760  152.9980 C   0  0  0  0  0  2  0  0  0  0  0  0
  156.0880  212.1980  154.5090 C   0  0  0  0  0  3  0  0  0  0  0  0
  155.5990  213.9880  153.0410 O   0  0  0  0  0  0  0  0  0  0  0  0
  158.5850  211.9300  153.1590 C   0  0  1  0  0  3  0  0  0  0  0  0
  1  4  2  0  0  0  0
  2  6  1  0  0  0  0
  2  1  1  0  0  0  0
  3  1  1  0  0  0  0
  3 30  1  1  0  0  0
  5  8  1  6  0  0  0
  5  3  1  0  0  0  0
  7  5  1  0  0  0  0
  7  2  2  0  0  0  0
  9 10  1  0  0  0  0
 10  7  1  1  0  0  0
 11 12  1  6  0  0  0
 11  9  1  0  0  0  0
 11 10  1  0  0  0  0
 12 13  1  0  0  0  0
 14 12  1  0  0  0  0
 15 16  2  0  0  0  0
 16 12  1  0  0  0  0
 17 18  2  0  0  0  0
 17 16  1  0  0  0  0
 19 17  1  0  0  0  0
 20 21  2  0  0  0  0
 21 22  2  0  0  0  0
 21 19  1  0  0  0  0
 23 21  1  0  0  0  0
 24 27  1  1  0  0  0
 24 25  1  0  0  0  0
 24 26  1  0  0  0  0
 25 26  1  0  0  0  0
 25 23  1  0  0  0  0
 27 28  1  0  0  0  0
 30 31  1  0  0  0  0
 30 29  1  1  0  0  0
 31 36  1  6  0  0  0
 31 32  1  0  0  0  0
 32 35  1  0  0  0  0
 32 33  1  0  0  0  0
 33 34  1  1  0  0  0
 35 33  1  0  0  0  0
 36 45  1  1  0  0  0
 37 38  1  6  0  0  0
 37 36  1  0  0  0  0
 39 40  1  0  0  0  0
 40 42  1  0  0  0  0
 41 44  1  6  0  0  0
 41 39  1  0  0  0  0
 41 43  1  0  0  0  0
 42 37  1  1  0  0  0
 43 42  1  0  0  0  0
 46 50  1  0  0  0  0
 47 48  1  0  0  0  0
 49 52  1  0  0  0  0
 49 46  1  0  0  0  0
 50 48  2  0  0  0  0
 51 46  2  0  0  0  0
 52 45  1  1  0  0  0
 52 47  1  0  0  0  0
M  END
>  <MODEL>
3

>  <REMARK>
 VINA RESULT:      -4.5      3.437      9.014
  Name = 
  16 active torsions:
  status: ('A' for Active; 'I' for Inactive)
    1  A    between atoms: N_1  and  C_11
    2  A    between atoms: C_3  and  C_20
    3  A    between atoms: C_9  and  C_29
    4  A    between atoms: C_9  and  C_52
    5  A    between atoms: C_11  and  C_42
    6  A    between atoms: C_11  and  C_52
    7  A    between atoms: C_12  and  C_45
    8  A    between atoms: C_16  and  C_42
    9  A    between atoms: C_20  and  C_23
   10  A    between atoms: C_21  and  S_46
   11  A    between atoms: C_23  and  C_34
   12  A    between atoms: S_28  and  C_43
   13  A    between atoms: S_28  and  N_47
   14  A    between atoms: N_35  and  C_43
   15  A    between atoms: C_37  and  C_48
   16  A    between atoms: C_37  and  C_52
                            x       y       z     vdW  Elec       q    Type
                         _______ _______ _______ _____ _____    ______ ____

>  <TORSDO>
F 16

$$$$
=
 OpenBabel11072412503D

 52 57  0  0  1  0  0  0  0  0999 V2000
  161.2000  207.7700  155.4250 C   0  0  0  0  0  0  0  0  0  0  0  0
  161.5200  207.0060  154.2480 C   0  0  0  0  0  0  0  0  0  0  0  0
  161.0470  209.2150  155.0870 C   0  0  1  0  0  3  0  0  0  0  0  0
  161.0820  207.2860  156.5810 O   0  0  0  0  0  0  0  0  0  0  0  0
  161.5130  209.2580  153.6190 C   0  0  2  0  0  3  0  0  0  0  0  0
  161.5510  205.5830  154.1850 N   0  0  0  0  0  1  0  0  0  0  0  0
  161.6560  207.8110  153.2100 C   0  0  0  0  0  0  0  0  0  0  0  0
  162.8600  209.9520  153.5350 C   0  0  0  0  0  1  0  0  0  0  0  0
  160.4770  206.8450  151.2870 C   0  0  0  0  0  2  0  0  0  0  0  0
  161.8290  207.3020  151.8060 C   0  0  1  0  0  3  0  0  0  0  0  0
  161.0800  208.1430  150.7830 C   0  0  1  0  0  3  0  0  0  0  0  0
  161.6930  208.0430  149.3620 C   0  0  0  0  0  0  0  0  0  0  0  0
  163.1300  207.5710  149.5100 C   0  0  0  0  0  1  0  0  0  0  0  0
  161.7600  209.3810  148.6110 C   0  0  0  0  0  1  0  0  0  0  0  0
  159.8030  206.5990  148.9760 O   0  0  0  0  0  0  0  0  0  0  0  0
  160.9110  207.0260  148.5470 C   0  0  0  0  0  0  0  0  0  0  0  0
  161.4120  206.4940  147.2630 C   0  0  0  0  0  0  0  0  0  0  0  0
  162.5600  206.8260  146.8620 O   0  0  0  0  0  0  0  0  0  0  0  0
  160.6150  205.5990  146.4840 N   0  0  0  0  0  2  0  0  0  0  0  0
  162.4450  205.4800  144.5790 O   0  0  0  0  0  0  0  0  0  0  0  0
  161.2280  204.7650  145.0980 S   0  0  0  0  0  0  0  0  0  0  0  0
  160.1780  204.7050  144.0230 O   0  0  0  0  0  0  0  0  0  0  0  0
  161.6730  203.1100  145.5650 C   0  0  0  0  0  2  0  0  0  0  0  0
  160.3260  201.3710  146.6970 C   0  0  2  0  0  3  0  0  0  0  0  0
  160.9340  202.7300  146.7590 N   0  0  0  0  0  0  0  0  0  0  0  0
  161.6350  201.5640  147.3170 C   0  0  0  0  0  2  0  0  0  0  0  0
  160.5170  200.4850  145.1000 S   0  0  0  0  0  0  0  0  0  0  0  0
  161.3260  199.0780  145.9050 C   0  0  0  0  0  1  0  0  0  0  0  0
  158.7380  208.5920  155.4790 O   0  0  0  0  0  1  0  0  0  0  0  0
  159.5800  209.6500  155.1400 C   0  0  1  0  0  3  0  0  0  0  0  0
  159.3910  210.8300  156.1020 C   0  0  1  0  0  3  0  0  0  0  0  0
  160.4990  210.9060  157.0480 N   0  0  0  0  0  0  0  0  0  0  0  0
  161.5800  211.6060  156.3990 C   0  0  2  0  0  3  0  0  0  0  0  0
  162.7780  211.3110  157.0440 O   0  0  0  0  0  1  0  0  0  0  0  0
  160.7530  212.2500  157.2610 O   0  0  0  0  0  0  0  0  0  0  0  0
  159.1260  212.1630  155.3690 C   0  0  2  0  0  3  0  0  0  0  0  0
  158.3860  213.2310  156.2000 C   0  0  1  0  0  3  0  0  0  0  0  0
  158.3280  214.4520  155.5210 O   0  0  0  0  0  1  0  0  0  0  0  0
  155.0560  212.2340  155.1960 C   0  0  0  0  0  2  0  0  0  0  0  0
  155.9320  213.3760  155.6780 C   0  0  0  0  0  2  0  0  0  0  0  0
  155.4060  211.0250  156.0390 C   0  0  1  0  0  3  0  0  0  0  0  0
  156.9780  212.7760  156.5940 C   0  0  1  0  0  3  0  0  0  0  0  0
  156.8150  211.2690  156.5280 C   0  0  0  0  0  2  0  0  0  0  0  0
  154.5390  210.9540  157.1320 O   0  0  0  0  0  1  0  0  0  0  0  0
  158.3650  211.8670  154.0850 C   0  0  0  0  0  2  0  0  0  0  0  0
  158.2790  213.6300  150.7070 C   0  0  0  0  0  0  0  0  0  0  0  0
  160.1050  212.0990  152.3090 C   0  0  0  0  0  2  0  0  0  0  0  0
  160.5680  212.8890  151.1170 C   0  0  0  0  0  3  0  0  0  0  0  0
  157.7630  212.9030  151.9150 C   0  0  0  0  0  2  0  0  0  0  0  0
  159.7100  213.5760  150.3620 C   0  0  0  0  0  3  0  0  0  0  0  0
  157.4800  214.2650  149.9700 O   0  0  0  0  0  0  0  0  0  0  0  0
  158.8710  212.7380  152.9540 C   0  0  1  0  0  3  0  0  0  0  0  0
  1  4  2  0  0  0  0
  2  1  1  0  0  0  0
  3 30  1  6  0  0  0
  3  1  1  0  0  0  0
  5  8  1  1  0  0  0
  5  3  1  0  0  0  0
  6  2  1  0  0  0  0
  7  5  1  0  0  0  0
  7  2  2  0  0  0  0
  9 10  1  0  0  0  0
 10  7  1  1  0  0  0
 11 12  1  6  0  0  0
 11  9  1  0  0  0  0
 11 10  1  0  0  0  0
 12 13  1  0  0  0  0
 14 12  1  0  0  0  0
 16 15  2  0  0  0  0
 16 12  1  0  0  0  0
 17 16  1  0  0  0  0
 18 17  2  0  0  0  0
 19 17  1  0  0  0  0
 20 21  2  0  0  0  0
 21 23  1  0  0  0  0
 21 19  1  0  0  0  0
 22 21  2  0  0  0  0
 23 25  1  0  0  0  0
 24 27  1  6  0  0  0
 24 25  1  0  0  0  0
 24 26  1  0  0  0  0
 25 26  1  0  0  0  0
 27 28  1  0  0  0  0
 30 29  1  1  0  0  0
 31 30  1  6  0  0  0
 31 32  1  0  0  0  0
 32 35  1  0  0  0  0
 33 34  1  1  0  0  0
 33 32  1  0  0  0  0
 33 35  1  0  0  0  0
 36 45  1  6  0  0  0
 36 31  1  0  0  0  0
 36 37  1  0  0  0  0
 37 38  1  6  0  0  0
 39 40  1  0  0  0  0
 39 41  1  0  0  0  0
 40 42  1  0  0  0  0
 41 43  1  0  0  0  0
 41 44  1  1  0  0  0
 42 37  1  6  0  0  0
 43 42  1  0  0  0  0
 46 49  1  0  0  0  0
 47 52  1  0  0  0  0
 48 47  1  0  0  0  0
 49 52  1  0  0  0  0
 50 46  1  0  0  0  0
 50 48  2  0  0  0  0
 51 46  2  0  0  0  0
 52 45  1  1  0  0  0
M  END
>  <MODEL>
4

>  <REMARK>
 VINA RESULT:      -3.6      3.758     10.047
  Name = 
  16 active torsions:
  status: ('A' for Active; 'I' for Inactive)
    1  A    between atoms: N_1  and  C_11
    2  A    between atoms: C_3  and  C_20
    3  A    between atoms: C_9  and  C_29
    4  A    between atoms: C_9  and  C_52
    5  A    between atoms: C_11  and  C_42
    6  A    between atoms: C_11  and  C_52
    7  A    between atoms: C_12  and  C_45
    8  A    between atoms: C_16  and  C_42
    9  A    between atoms: C_20  and  C_23
   10  A    between atoms: C_21  and  S_46
   11  A    between atoms: C_23  and  C_34
   12  A    between atoms: S_28  and  C_43
   13  A    between atoms: S_28  and  N_47
   14  A    between atoms: N_35  and  C_43
   15  A    between atoms: C_37  and  C_48
   16  A    between atoms: C_37  and  C_52
                            x       y       z     vdW  Elec       q    Type
                         _______ _______ _______ _____ _____    ______ ____

>  <TORSDO>
F 16

$$$$
=
 OpenBabel11072412503D

 52 57  0  0  1  0  0  0  0  0999 V2000
  161.8040  210.9840  150.3270 C   0  0  0  0  0  0  0  0  0  0  0  0
  160.9670  211.4350  151.4060 C   0  0  0  0  0  0  0  0  0  0  0  0
  162.3480  209.6250  150.6170 C   0  0  1  0  0  3  0  0  0  0  0  0
  162.0540  211.6510  149.2890 O   0  0  0  0  0  0  0  0  0  0  0  0
  161.9100  209.4040  152.0780 C   0  0  2  0  0  3  0  0  0  0  0  0
  160.1500  212.6030  151.3700 N   0  0  0  0  0  1  0  0  0  0  0  0
  160.9720  210.5480  152.3840 C   0  0  0  0  0  0  0  0  0  0  0  0
  163.1230  209.4770  152.9870 C   0  0  0  0  0  1  0  0  0  0  0  0
  160.6610  209.8360  154.7110 C   0  0  0  0  0  2  0  0  0  0  0  0
  160.0660  210.6530  153.5790 C   0  0  1  0  0  3  0  0  0  0  0  0
  160.7310  211.3510  154.7570 C   0  0  1  0  0  3  0  0  0  0  0  0
  159.7080  212.0000  155.7240 C   0  0  0  0  0  0  0  0  0  0  0  0
  160.4190  212.2650  157.0410 C   0  0  0  0  0  1  0  0  0  0  0  0
  158.5070  211.1040  156.0620 C   0  0  0  0  0  1  0  0  0  0  0  0
  159.7410  214.4010  155.5290 O   0  0  0  0  0  0  0  0  0  0  0  0
  159.2270  213.3170  155.1380 C   0  0  0  0  0  0  0  0  0  0  0  0
  158.1500  213.3820  154.1270 C   0  0  0  0  0  0  0  0  0  0  0  0
  158.4490  213.3530  152.9020 O   0  0  0  0  0  0  0  0  0  0  0  0
  156.7800  213.4620  154.5260 N   0  0  0  0  0  2  0  0  0  0  0  0
  154.5080  214.4510  153.5990 O   0  0  0  0  0  0  0  0  0  0  0  0
  155.4690  213.3090  153.4060 S   0  0  0  0  0  0  0  0  0  0  0  0
  154.7550  212.0030  153.6200 O   0  0  0  0  0  0  0  0  0  0  0  0
  156.1110  213.3540  151.7500 C   0  0  0  0  0  2  0  0  0  0  0  0
  155.5990  214.3010  149.5240 C   0  0  2  0  0  3  0  0  0  0  0  0
  155.4430  214.4070  151.0020 N   0  0  0  0  0  0  0  0  0  0  0  0
  154.4220  213.7370  150.1820 C   0  0  0  0  0  2  0  0  0  0  0  0
  156.6890  212.9480  148.9320 S   0  0  0  0  0  0  0  0  0  0  0  0
  157.9200  214.1240  148.3130 C   0  0  0  0  0  1  0  0  0  0  0  0
  162.2410  208.5040  148.4710 O   0  0  0  0  0  1  0  0  0  0  0  0
  161.6810  208.5570  149.7470 C   0  0  1  0  0  3  0  0  0  0  0  0
  161.7340  207.1830  150.4250 C   0  0  1  0  0  3  0  0  0  0  0  0
  161.3600  207.2880  151.8320 N   0  0  0  0  0  0  0  0  0  0  0  0
  161.2000  205.9480  152.3420 C   0  0  2  0  0  3  0  0  0  0  0  0
  160.4180  205.9820  153.4940 O   0  0  0  0  0  1  0  0  0  0  0  0
  162.3470  206.6410  152.5570 O   0  0  0  0  0  0  0  0  0  0  0  0
  160.9290  206.1080  149.6610 C   0  0  2  0  0  3  0  0  0  0  0  0
  161.6120  204.7290  149.5590 C   0  0  1  0  0  3  0  0  0  0  0  0
  162.2760  204.4020  150.7450 O   0  0  0  0  0  1  0  0  0  0  0  0
  160.9660  201.2270  148.9150 C   0  0  0  0  0  2  0  0  0  0  0  0
  161.2640  202.5820  148.2990 C   0  0  0  0  0  2  0  0  0  0  0  0
  159.9220  201.4530  149.9900 C   0  0  1  0  0  3  0  0  0  0  0  0
  160.6180  203.6240  149.1870 C   0  0  1  0  0  3  0  0  0  0  0  0
  160.0750  202.8970  150.4040 C   0  0  0  0  0  2  0  0  0  0  0  0
  158.6490  201.2550  149.4500 O   0  0  0  0  0  1  0  0  0  0  0  0
  160.6000  206.6430  148.2760 C   0  0  0  0  0  2  0  0  0  0  0  0
  162.6260  204.8480  145.5930 C   0  0  0  0  0  0  0  0  0  0  0  0
  159.9410  205.7630  146.0340 C   0  0  0  0  0  2  0  0  0  0  0  0
  160.2800  204.8080  144.9240 C   0  0  0  0  0  3  0  0  0  0  0  0
  162.3440  205.7610  146.7500 C   0  0  0  0  0  2  0  0  0  0  0  0
  161.5340  204.4080  144.7080 C   0  0  0  0  0  3  0  0  0  0  0  0
  163.8070  204.4790  145.3610 O   0  0  0  0  0  0  0  0  0  0  0  0
  160.8980  205.6000  147.2180 C   0  0  1  0  0  3  0  0  0  0  0  0
  1  3  1  0  0  0  0
  1  2  1  0  0  0  0
  2  7  2  0  0  0  0
  3 30  1  6  0  0  0
  3  5  1  0  0  0  0
  4  1  2  0  0  0  0
  5  7  1  0  0  0  0
  5  8  1  1  0  0  0
  6  2  1  0  0  0  0
  9 11  1  0  0  0  0
 10  7  1  6  0  0  0
 10  9  1  0  0  0  0
 10 11  1  0  0  0  0
 11 12  1  1  0  0  0
 12 14  1  0  0  0  0
 12 13  1  0  0  0  0
 16 15  2  0  0  0  0
 16 12  1  0  0  0  0
 17 19  1  0  0  0  0
 17 16  1  0  0  0  0
 18 17  2  0  0  0  0
 21 20  2  0  0  0  0
 21 22  2  0  0  0  0
 21 19  1  0  0  0  0
 23 21  1  0  0  0  0
 24 27  1  1  0  0  0
 24 26  1  0  0  0  0
 24 25  1  0  0  0  0
 25 23  1  0  0  0  0
 26 25  1  0  0  0  0
 28 27  1  0  0  0  0
 30 29  1  6  0  0  0
 30 31  1  0  0  0  0
 31 36  1  6  0  0  0
 31 32  1  0  0  0  0
 32 33  1  0  0  0  0
 32 35  1  0  0  0  0
 33 35  1  0  0  0  0
 33 34  1  1  0  0  0
 36 45  1  6  0  0  0
 37 36  1  0  0  0  0
 37 38  1  1  0  0  0
 39 41  1  0  0  0  0
 40 39  1  0  0  0  0
 40 42  1  0  0  0  0
 41 44  1  6  0  0  0
 41 43  1  0  0  0  0
 42 37  1  1  0  0  0
 42 43  1  0  0  0  0
 46 49  1  0  0  0  0
 47 52  1  0  0  0  0
 48 47  1  0  0  0  0
 49 52  1  0  0  0  0
 50 48  2  0  0  0  0
 50 46  1  0  0  0  0
 51 46  2  0  0  0  0
 52 45  1  1  0  0  0
M  END
>  <MODEL>
5

>  <REMARK>
 VINA RESULT:      -3.4      2.593      4.554
  Name = 
  16 active torsions:
  status: ('A' for Active; 'I' for Inactive)
    1  A    between atoms: N_1  and  C_11
    2  A    between atoms: C_3  and  C_20
    3  A    between atoms: C_9  and  C_29
    4  A    between atoms: C_9  and  C_52
    5  A    between atoms: C_11  and  C_42
    6  A    between atoms: C_11  and  C_52
    7  A    between atoms: C_12  and  C_45
    8  A    between atoms: C_16  and  C_42
    9  A    between atoms: C_20  and  C_23
   10  A    between atoms: C_21  and  S_46
   11  A    between atoms: C_23  and  C_34
   12  A    between atoms: S_28  and  C_43
   13  A    between atoms: S_28  and  N_47
   14  A    between atoms: N_35  and  C_43
   15  A    between atoms: C_37  and  C_48
   16  A    between atoms: C_37  and  C_52
                            x       y       z     vdW  Elec       q    Type
                         _______ _______ _______ _____ _____    ______ ____

>  <TORSDO>
F 16

$$$$
