=
 OpenBabel11072415083D

 58 62  0  0  1  0  0  0  0  0999 V2000
  162.2320  209.6040  155.2970 O   0  0  0  0  0  0  0  0  0  0  0  0
  160.1470  206.9220  155.9120 C   0  0  0  0  0  2  0  0  0  0  0  0
  160.8160  205.3960  150.8780 C   0  0  2  0  0  3  0  0  0  0  0  0
  160.6920  207.7510  150.0460 C   0  0  0  0  0  3  0  0  0  0  0  0
  161.0270  211.8530  154.2460 O   0  0  0  0  0  0  0  0  0  0  0  0
  160.6530  211.9390  149.8680 C   0  0  0  0  0  2  0  0  0  0  0  0
  162.3730  208.6730  148.5530 C   0  0  0  0  0  0  0  0  0  0  0  0
  162.8690  209.7190  147.7680 O   0  0  0  0  0  0  0  0  0  0  0  0
  161.3260  210.9220  153.5110 C   0  0  0  0  0  0  0  0  0  0  0  0
  163.0730  207.4640  148.6050 C   0  0  0  0  0  3  0  0  0  0  0  0
  161.3370  206.2380  155.2430 C   0  0  0  0  0  2  0  0  0  0  0  0
  162.1610  205.5570  153.0130 C   0  0  0  0  0  2  0  0  0  0  0  0
  160.1400  208.4590  155.7440 C   0  0  1  0  0  3  0  0  0  0  0  0
  161.8020  212.6900  149.2060 C   0  0  1  0  0  3  0  0  0  0  0  0
  160.8800  210.4010  157.1070 C   0  0  0  0  0  1  0  0  0  0  0  0
  161.3940  206.5410  150.1010 C   0  0  0  0  0  0  0  0  0  0  0  0
  162.2130  210.8860  147.6510 O   0  0  0  0  0  0  0  0  0  0  0  0
  161.3640  209.1800  156.3400 C   0  0  2  0  0  0  0  0  0  0  0  0
  163.0560  211.6150  151.9060 C   0  0  0  0  0  1  0  0  0  0  0  0
  161.6110  211.1580  152.0540 C   0  0  2  0  0  3  0  0  0  0  0  0
  160.2360  208.8610  154.3380 C   0  0  0  0  0  0  0  0  0  0  0  0
  161.1790  208.8120  149.2760 C   0  0  0  0  0  3  0  0  0  0  0  0
  160.6510  212.1580  151.3770 C   0  0  2  0  0  3  0  0  0  0  0  0
  162.5850  206.3980  149.3700 C   0  0  0  0  0  3  0  0  0  0  0  0
  161.5200  209.5420  154.0730 C   0  0  2  0  0  3  0  0  0  0  0  0
  159.3760  208.6460  153.4970 O   0  0  0  0  0  0  0  0  0  0  0  0
  161.8530  204.7240  151.7790 C   0  0  0  0  0  2  0  0  0  0  0  0
  162.0730  208.3590  157.2260 O   0  0  0  0  0  1  0  0  0  0  0  0
  160.9290  205.7060  153.8860 C   0  0  0  0  0  2  0  0  0  0  0  0
  162.8230  211.7410  148.5760 C   0  0  0  0  0  2  0  0  0  0  0  0
  161.3170  213.7760  148.2470 C   0  0  0  0  0  2  0  0  0  0  0  0
  162.3910  214.2240  147.2660 C   0  0  0  0  0  1  0  0  0  0  0  0
  159.3280  212.0050  151.8570 O   0  0  0  0  0  0  0  0  0  0  0  0
  158.8830  214.0900  152.8110 O   0  0  0  0  0  1  0  0  0  0  0  0
  158.6400  213.2410  151.7240 C   0  0  2  0  0  3  0  0  0  0  0  0
  157.1390  213.0570  151.4760 C   0  0  0  0  0  2  0  0  0  0  0  0
  156.8620  212.0110  156.8130 C   0  0  0  0  0  2  0  0  0  0  0  0
  156.3390  213.2350  152.7280 C   0  0  2  0  0  3  0  0  0  0  0  0
  155.2130  213.8740  152.7610 N   0  0  0  0  0  2  0  0  0  0  0  0
  153.7370  214.4470  154.5190 O   0  0  0  0  0  0  0  0  0  0  0  0
  157.5870  211.6140  154.3740 C   0  0  0  0  0  2  0  0  0  0  0  0
  156.0000  213.2060  156.3510 C   0  0  2  0  0  3  0  0  0  0  0  0
  158.0320  211.7010  155.8480 C   0  0  0  0  0  2  0  0  0  0  0  0
  154.7700  213.8480  154.1150 C   0  0  0  0  0  0  0  0  0  0  0  0
  154.7820  213.3140  157.2530 C   0  0  0  0  0  1  0  0  0  0  0  0
  155.5840  212.9050  154.9200 C   0  0  1  0  0  3  0  0  0  0  0  0
  156.8390  212.8970  154.0920 C   0  0  2  0  0  3  0  0  0  0  0  0
  160.1930  204.3810  149.9260 C   0  0  0  0  0  2  0  0  0  0  0  0
  161.2450  203.4570  149.3260 C   0  0  0  0  0  2  0  0  0  0  0  0
  161.1350  203.3950  147.8300 C   0  0  0  0  0  0  0  0  0  0  0  0
  161.5250  202.3960  147.2450 O   0  0  0  0  0  0  0  0  0  0  0  0
  160.5790  204.5360  147.0140 C   0  0  0  0  0  2  0  0  0  0  0  0
  161.5670  206.5510  146.2640 F   0  0  0  0  0  0  0  0  0  0  0  0
  162.8280  204.6980  146.2020 F   0  0  0  0  0  0  0  0  0  0  0  0
  161.5450  205.1900  146.0170 C   0  0  0  0  0  0  0  0  0  0  0  0
  161.7370  205.4510  143.6360 O   0  0  0  0  0  0  0  0  0  0  0  0
  161.0870  204.9710  144.6030 C   0  0  0  0  0  0  0  0  0  0  0  0
  159.9200  204.2550  144.3530 O   0  0  0  0  0  1  0  0  0  0  0  0
  1 18  1  0  0  0  0
  3 48  1  6  0  0  0
  3 27  1  0  0  0  0
  4 16  1  0  0  0  0
  6 23  1  0  0  0  0
  7 10  2  0  0  0  0
  7 22  1  0  0  0  0
  8  7  1  0  0  0  0
  9  5  2  0  0  0  0
 10 24  1  0  0  0  0
 11  2  1  0  0  0  0
 12 29  1  0  0  0  0
 13  2  1  6  0  0  0
 13 18  1  0  0  0  0
 14 31  1  6  0  0  0
 14  6  1  0  0  0  0
 16  3  1  0  0  0  0
 17  8  1  0  0  0  0
 17 30  1  0  0  0  0
 18 15  1  1  0  0  0
 18 28  1  0  0  0  0
 20 19  1  1  0  0  0
 20  9  1  0  0  0  0
 21 13  1  0  0  0  0
 22  4  2  0  0  0  0
 23 33  1  1  0  0  0
 23 20  1  0  0  0  0
 24 16  2  0  0  0  0
 25  9  1  1  0  0  0
 25 21  1  0  0  0  0
 25  1  1  0  0  0  0
 26 21  2  0  0  0  0
 27 12  1  0  0  0  0
 29 11  1  0  0  0  0
 30 14  1  0  0  0  0
 32 31  1  0  0  0  0
 35 33  1  0  0  0  0
 35 34  1  1  0  0  0
 36 35  1  0  0  0  0
 38 36  1  1  0  0  0
 38 39  1  0  0  0  0
 38 47  1  0  0  0  0
 39 44  1  0  0  0  0
 41 43  1  0  0  0  0
 42 37  1  0  0  0  0
 42 45  1  1  0  0  0
 43 37  1  0  0  0  0
 44 40  2  0  0  0  0
 46 44  1  6  0  0  0
 46 42  1  0  0  0  0
 47 41  1  6  0  0  0
 47 46  1  0  0  0  0
 49 48  1  0  0  0  0
 50 49  1  0  0  0  0
 51 50  2  0  0  0  0
 52 50  1  0  0  0  0
 55 54  1  0  0  0  0
 55 53  1  0  0  0  0
 55 52  1  0  0  0  0
 56 57  2  0  0  0  0
 57 55  1  0  0  0  0
 58 57  1  0  0  0  0
M  END
>  <MODEL>
1

>  <REMARK>
 VINA RESULT:       1.1      0.000      0.000
  Name = 
  11 active torsions:
  status: ('A' for Active; 'I' for Inactive)
    1  A    between atoms: C_3  and  C_46
    2  A    between atoms: C_6  and  C_8
    3  A    between atoms: C_6  and  C_46
    4  A    between atoms: C_8  and  C_17
    5  A    between atoms: C_17  and  C_38
    6  A    between atoms: C_18  and  C_57
    7  A    between atoms: C_20  and  C_45
    8  A    between atoms: C_30  and  O_33
    9  A    between atoms: C_30  and  C_57
   10  A    between atoms: O_33  and  C_41
   11  A    between atoms: C_34  and  C_38
                            x       y       z     vdW  Elec       q    Type
                         _______ _______ _______ _____ _____    ______ ____

>  <TORSDO>
F 11

$$$$
=
 OpenBabel11072415083D

 58 62  0  0  1  0  0  0  0  0999 V2000
  162.1570  209.9090  155.1890 O   0  0  0  0  0  0  0  0  0  0  0  0
  160.1950  207.2010  156.0470 C   0  0  0  0  0  2  0  0  0  0  0  0
  160.8980  205.2890  151.1510 C   0  0  2  0  0  3  0  0  0  0  0  0
  160.6650  207.5580  150.1270 C   0  0  0  0  0  3  0  0  0  0  0  0
  160.8480  212.0080  153.9660 O   0  0  0  0  0  0  0  0  0  0  0  0
  160.4420  211.7110  149.6010 C   0  0  0  0  0  2  0  0  0  0  0  0
  162.2940  208.4240  148.5450 C   0  0  0  0  0  0  0  0  0  0  0  0
  162.7390  209.4210  147.6700 O   0  0  0  0  0  0  0  0  0  0  0  0
  161.1820  211.0330  153.3080 C   0  0  0  0  0  0  0  0  0  0  0  0
  163.0480  207.2540  148.6900 C   0  0  0  0  0  3  0  0  0  0  0  0
  161.4100  206.5150  155.4250 C   0  0  0  0  0  2  0  0  0  0  0  0
  162.2480  205.6850  153.2510 C   0  0  0  0  0  2  0  0  0  0  0  0
  160.1200  208.7160  155.7510 C   0  0  1  0  0  3  0  0  0  0  0  0
  161.5530  212.4530  148.8660 C   0  0  1  0  0  3  0  0  0  0  0  0
  160.7830  210.7950  156.9400 C   0  0  0  0  0  1  0  0  0  0  0  0
  161.4200  206.3890  150.2750 C   0  0  0  0  0  0  0  0  0  0  0  0
  162.0320  210.5450  147.4630 O   0  0  0  0  0  0  0  0  0  0  0  0
  161.3150  209.5360  156.2720 C   0  0  2  0  0  0  0  0  0  0  0  0
  162.8700  211.6630  151.6340 C   0  0  0  0  0  1  0  0  0  0  0  0
  161.4470  211.1570  151.8350 C   0  0  2  0  0  3  0  0  0  0  0  0
  160.1890  209.0030  154.3160 C   0  0  0  0  0  0  0  0  0  0  0  0
  161.1000  208.5710  149.2660 C   0  0  0  0  0  3  0  0  0  0  0  0
  160.4400  212.0550  151.0860 C   0  0  2  0  0  3  0  0  0  0  0  0
  162.6110  206.2370  149.5470 C   0  0  0  0  0  3  0  0  0  0  0  0
  161.4400  209.7140  153.9820 C   0  0  2  0  0  3  0  0  0  0  0  0
  159.3340  208.6820  153.5040 O   0  0  0  0  0  0  0  0  0  0  0  0
  161.9700  204.7400  152.0950 C   0  0  0  0  0  2  0  0  0  0  0  0
  162.0650  208.8250  157.2170 O   0  0  0  0  0  1  0  0  0  0  0  0
  161.0170  205.8540  154.1220 C   0  0  0  0  0  2  0  0  0  0  0  0
  162.6100  211.4990  148.3080 C   0  0  0  0  0  2  0  0  0  0  0  0
  161.0140  213.4330  147.8250 C   0  0  0  0  0  2  0  0  0  0  0  0
  159.6290  213.0560  147.3180 C   0  0  0  0  0  1  0  0  0  0  0  0
  159.1280  211.8860  151.5910 O   0  0  0  0  0  0  0  0  0  0  0  0
  158.3780  213.7040  150.3300 O   0  0  0  0  0  1  0  0  0  0  0  0
  158.4730  213.1470  151.6120 C   0  0  2  0  0  3  0  0  0  0  0  0
  159.1060  214.1240  152.6080 C   0  0  0  0  0  2  0  0  0  0  0  0
  154.1630  214.0680  154.8930 C   0  0  0  0  0  2  0  0  0  0  0  0
  158.3400  214.1910  153.8910 C   0  0  2  0  0  3  0  0  0  0  0  0
  158.9090  214.3150  155.0480 N   0  0  0  0  0  2  0  0  0  0  0  0
  158.0720  214.3510  157.2600 O   0  0  0  0  0  0  0  0  0  0  0  0
  155.8790  214.4530  153.0120 C   0  0  0  0  0  2  0  0  0  0  0  0
  155.3150  213.6960  155.8520 C   0  0  2  0  0  3  0  0  0  0  0  0
  154.5200  213.8410  153.4030 C   0  0  0  0  0  2  0  0  0  0  0  0
  157.8650  214.3220  156.0160 C   0  0  0  0  0  0  0  0  0  0  0  0
  154.9420  214.1240  157.2610 C   0  0  0  0  0  1  0  0  0  0  0  0
  156.5390  214.4530  155.3660 C   0  0  1  0  0  3  0  0  0  0  0  0
  156.8800  213.9080  154.0060 C   0  0  2  0  0  3  0  0  0  0  0  0
  160.3140  204.1720  150.2930 C   0  0  0  0  0  2  0  0  0  0  0  0
  160.8990  202.8160  150.6660 C   0  0  0  0  0  2  0  0  0  0  0  0
  160.4410  201.7400  149.7230 C   0  0  0  0  0  0  0  0  0  0  0  0
  160.3770  200.5870  150.1200 O   0  0  0  0  0  0  0  0  0  0  0  0
  160.0780  202.0290  148.2870 C   0  0  0  0  0  2  0  0  0  0  0  0
  161.3500  202.9180  146.5010 F   0  0  0  0  0  0  0  0  0  0  0  0
  162.3730  201.4730  147.8760 F   0  0  0  0  0  0  0  0  0  0  0  0
  161.1740  201.7650  147.2450 C   0  0  0  0  0  0  0  0  0  0  0  0
  161.3490  199.5360  146.3660 O   0  0  0  0  0  1  0  0  0  0  0  0
  160.7730  200.6560  146.3140 C   0  0  0  0  0  0  0  0  0  0  0  0
  159.7770  200.8690  145.3660 O   0  0  0  0  0  0  0  0  0  0  0  0
  1 18  1  0  0  0  0
  3 48  1  6  0  0  0
  3 27  1  0  0  0  0
  4 16  1  0  0  0  0
  6 23  1  0  0  0  0
  7 10  2  0  0  0  0
  7 22  1  0  0  0  0
  8  7  1  0  0  0  0
  9  5  2  0  0  0  0
 10 24  1  0  0  0  0
 11  2  1  0  0  0  0
 12 29  1  0  0  0  0
 13  2  1  6  0  0  0
 13 18  1  0  0  0  0
 14 31  1  6  0  0  0
 14  6  1  0  0  0  0
 16  3  1  0  0  0  0
 17  8  1  0  0  0  0
 17 30  1  0  0  0  0
 18 15  1  1  0  0  0
 18 28  1  0  0  0  0
 20 19  1  1  0  0  0
 20  9  1  0  0  0  0
 21 13  1  0  0  0  0
 22  4  2  0  0  0  0
 23 33  1  1  0  0  0
 23 20  1  0  0  0  0
 24 16  2  0  0  0  0
 25  9  1  1  0  0  0
 25 21  1  0  0  0  0
 25  1  1  0  0  0  0
 26 21  2  0  0  0  0
 27 12  1  0  0  0  0
 29 11  1  0  0  0  0
 30 14  1  0  0  0  0
 32 31  1  0  0  0  0
 33 35  1  0  0  0  0
 35 34  1  6  0  0  0
 35 36  1  0  0  0  0
 37 42  1  0  0  0  0
 38 36  1  1  0  0  0
 38 47  1  0  0  0  0
 38 39  1  0  0  0  0
 39 44  1  0  0  0  0
 41 43  1  0  0  0  0
 42 45  1  1  0  0  0
 43 37  1  0  0  0  0
 44 40  2  0  0  0  0
 46 42  1  0  0  0  0
 46 44  1  1  0  0  0
 47 41  1  6  0  0  0
 47 46  1  0  0  0  0
 48 49  1  0  0  0  0
 50 51  2  0  0  0  0
 50 49  1  0  0  0  0
 52 50  1  0  0  0  0
 53 55  1  0  0  0  0
 55 54  1  0  0  0  0
 55 52  1  0  0  0  0
 57 56  1  0  0  0  0
 57 55  1  0  0  0  0
 58 57  2  0  0  0  0
M  END
>  <MODEL>
2

>  <REMARK>
 VINA RESULT:       1.6      1.847      2.255
  Name = 
  11 active torsions:
  status: ('A' for Active; 'I' for Inactive)
    1  A    between atoms: C_3  and  C_46
    2  A    between atoms: C_6  and  C_8
    3  A    between atoms: C_6  and  C_46
    4  A    between atoms: C_8  and  C_17
    5  A    between atoms: C_17  and  C_38
    6  A    between atoms: C_18  and  C_57
    7  A    between atoms: C_20  and  C_45
    8  A    between atoms: C_30  and  O_33
    9  A    between atoms: C_30  and  C_57
   10  A    between atoms: O_33  and  C_41
   11  A    between atoms: C_34  and  C_38
                            x       y       z     vdW  Elec       q    Type
                         _______ _______ _______ _____ _____    ______ ____

>  <TORSDO>
F 11

$$$$
=
 OpenBabel11072415083D

 58 62  0  0  1  0  0  0  0  0999 V2000
  162.7830  212.3550  148.8720 O   0  0  0  0  0  0  0  0  0  0  0  0
  159.9820  213.4530  147.1780 C   0  0  0  0  0  2  0  0  0  0  0  0
  157.2280  213.0180  151.6890 C   0  0  2  0  0  3  0  0  0  0  0  0
  158.3690  210.8770  152.2920 C   0  0  0  0  0  3  0  0  0  0  0  0
  163.0990  209.6190  149.0340 O   0  0  0  0  0  0  0  0  0  0  0  0
  161.0630  207.6670  152.4030 C   0  0  0  0  0  2  0  0  0  0  0  0
  159.3750  210.5300  154.4770 C   0  0  0  0  0  0  0  0  0  0  0  0
  160.0410  209.7200  155.4020 O   0  0  0  0  0  0  0  0  0  0  0  0
  162.3480  210.1920  149.8100 C   0  0  0  0  0  0  0  0  0  0  0  0
  159.0180  211.8340  154.8400 C   0  0  0  0  0  3  0  0  0  0  0  0
  159.9690  214.3550  148.4120 C   0  0  0  0  0  2  0  0  0  0  0  0
  159.0670  214.4530  150.7130 C   0  0  0  0  0  2  0  0  0  0  0  0
  160.9310  212.2400  147.3080 C   0  0  1  0  0  3  0  0  0  0  0  0
  161.9830  207.4780  153.6030 C   0  0  1  0  0  3  0  0  0  0  0  0
  163.2600  211.7210  146.6110 C   0  0  0  0  0  1  0  0  0  0  0  0
  158.0140  212.1810  152.6530 C   0  0  0  0  0  0  0  0  0  0  0  0
  160.3690  208.4480  155.1180 O   0  0  0  0  0  0  0  0  0  0  0  0
  162.4140  212.6000  147.5210 C   0  0  2  0  0  0  0  0  0  0  0  0
  163.1830  210.0010  152.1150 C   0  0  0  0  0  1  0  0  0  0  0  0
  162.0580  209.6120  151.1650 C   0  0  2  0  0  3  0  0  0  0  0  0
  160.6590  211.4530  148.5130 C   0  0  0  0  0  0  0  0  0  0  0  0
  159.0460  210.0550  153.1990 C   0  0  0  0  0  3  0  0  0  0  0  0
  161.8500  208.0830  151.1660 C   0  0  2  0  0  3  0  0  0  0  0  0
  158.3350  212.6560  153.9360 C   0  0  0  0  0  3  0  0  0  0  0  0
  161.7850  211.5420  149.4650 C   0  0  2  0  0  3  0  0  0  0  0  0
  159.6320  210.8200  148.7080 O   0  0  0  0  0  0  0  0  0  0  0  0
  157.7980  214.4320  151.5490 C   0  0  0  0  0  2  0  0  0  0  0  0
  162.6790  213.9380  147.2040 O   0  0  0  0  0  1  0  0  0  0  0  0
  158.7860  214.0070  149.2900 C   0  0  0  0  0  2  0  0  0  0  0  0
  161.7060  208.4990  154.7070 C   0  0  0  0  0  2  0  0  0  0  0  0
  162.0030  206.0360  154.1060 C   0  0  0  0  0  2  0  0  0  0  0  0
  160.8230  205.2170  153.6030 C   0  0  0  0  0  1  0  0  0  0  0  0
  161.1440  207.6610  150.0140 O   0  0  0  0  0  0  0  0  0  0  0  0
  163.1390  206.4940  149.6720 O   0  0  0  0  0  1  0  0  0  0  0  0
  161.7480  206.4780  149.5060 C   0  0  2  0  0  3  0  0  0  0  0  0
  161.3560  206.1930  148.0520 C   0  0  0  0  0  2  0  0  0  0  0  0
  160.7660  201.1710  150.0740 C   0  0  0  0  0  2  0  0  0  0  0  0
  161.3770  204.7290  147.7440 C   0  0  2  0  0  3  0  0  0  0  0  0
  161.6200  204.2600  146.5620 N   0  0  0  0  0  2  0  0  0  0  0  0
  161.6420  202.0680  145.6710 O   0  0  0  0  0  0  0  0  0  0  0  0
  161.2870  203.6920  150.1550 C   0  0  0  0  0  2  0  0  0  0  0  0
  160.5830  201.2690  148.5450 C   0  0  2  0  0  3  0  0  0  0  0  0
  160.5230  202.5180  150.8000 C   0  0  0  0  0  2  0  0  0  0  0  0
  161.5350  202.8420  146.6620 C   0  0  0  0  0  0  0  0  0  0  0  0
  161.0180  199.9590  147.9100 C   0  0  0  0  0  1  0  0  0  0  0  0
  161.4690  202.4130  148.0800 C   0  0  1  0  0  3  0  0  0  0  0  0
  160.9160  203.6710  148.6900 C   0  0  2  0  0  3  0  0  0  0  0  0
  155.7650  213.0690  152.1140 C   0  0  0  0  0  2  0  0  0  0  0  0
  155.3970  214.4300  152.6900 C   0  0  0  0  0  2  0  0  0  0  0  0
  155.0170  214.3300  154.1400 C   0  0  0  0  0  0  0  0  0  0  0  0
  153.8360  214.3570  154.4500 O   0  0  0  0  0  0  0  0  0  0  0  0
  156.0480  214.2200  155.2370 C   0  0  0  0  0  2  0  0  0  0  0  0
  156.7980  213.2170  157.2440 F   0  0  0  0  0  0  0  0  0  0  0  0
  154.6270  213.7620  157.1110 F   0  0  0  0  0  0  0  0  0  0  0  0
  155.7070  213.2720  156.3940 C   0  0  0  0  0  0  0  0  0  0  0  0
  155.2800  211.6690  154.6560 O   0  0  0  0  0  0  0  0  0  0  0  0
  155.4300  211.8840  155.8880 C   0  0  0  0  0  0  0  0  0  0  0  0
  155.3110  210.8280  156.7860 O   0  0  0  0  0  1  0  0  0  0  0  0
  1 25  1  0  0  0  0
  2 11  1  0  0  0  0
  3 48  1  1  0  0  0
  3 16  1  0  0  0  0
  4 16  2  0  0  0  0
  4 22  1  0  0  0  0
  5  9  2  0  0  0  0
  6 14  1  0  0  0  0
  7 10  1  0  0  0  0
  7  8  1  0  0  0  0
  9 20  1  0  0  0  0
 11 29  1  0  0  0  0
 12 27  1  0  0  0  0
 13  2  1  1  0  0  0
 13 18  1  0  0  0  0
 13 21  1  0  0  0  0
 14 31  1  1  0  0  0
 14 30  1  0  0  0  0
 16 24  1  0  0  0  0
 17  8  1  0  0  0  0
 18 15  1  6  0  0  0
 18  1  1  0  0  0  0
 20 23  1  0  0  0  0
 20 19  1  1  0  0  0
 21 26  2  0  0  0  0
 22  7  2  0  0  0  0
 23 33  1  6  0  0  0
 23  6  1  0  0  0  0
 24 10  2  0  0  0  0
 25 21  1  6  0  0  0
 25  9  1  0  0  0  0
 27  3  1  0  0  0  0
 28 18  1  0  0  0  0
 29 12  1  0  0  0  0
 30 17  1  0  0  0  0
 32 31  1  0  0  0  0
 35 34  1  6  0  0  0
 35 33  1  0  0  0  0
 36 35  1  0  0  0  0
 37 43  1  0  0  0  0
 38 36  1  6  0  0  0
 38 47  1  0  0  0  0
 39 44  1  0  0  0  0
 39 38  1  0  0  0  0
 40 44  2  0  0  0  0
 41 43  1  0  0  0  0
 42 45  1  6  0  0  0
 42 37  1  0  0  0  0
 46 44  1  6  0  0  0
 46 42  1  0  0  0  0
 46 47  1  0  0  0  0
 47 41  1  1  0  0  0
 48 49  1  0  0  0  0
 49 50  1  0  0  0  0
 50 51  2  0  0  0  0
 50 52  1  0  0  0  0
 52 55  1  0  0  0  0
 55 54  1  0  0  0  0
 55 53  1  0  0  0  0
 56 57  2  0  0  0  0
 57 55  1  0  0  0  0
 57 58  1  0  0  0  0
M  END
>  <MODEL>
3

>  <REMARK>
 VINA RESULT:       3.7      3.693     10.586
  Name = 
  11 active torsions:
  status: ('A' for Active; 'I' for Inactive)
    1  A    between atoms: C_3  and  C_46
    2  A    between atoms: C_6  and  C_8
    3  A    between atoms: C_6  and  C_46
    4  A    between atoms: C_8  and  C_17
    5  A    between atoms: C_17  and  C_38
    6  A    between atoms: C_18  and  C_57
    7  A    between atoms: C_20  and  C_45
    8  A    between atoms: C_30  and  O_33
    9  A    between atoms: C_30  and  C_57
   10  A    between atoms: O_33  and  C_41
   11  A    between atoms: C_34  and  C_38
                            x       y       z     vdW  Elec       q    Type
                         _______ _______ _______ _____ _____    ______ ____

>  <TORSDO>
F 11

$$$$
=
 OpenBabel11072415083D

 58 62  0  0  1  0  0  0  0  0999 V2000
  163.2850  211.2140  149.6250 O   0  0  0  0  0  0  0  0  0  0  0  0
  160.7180  211.7350  147.3750 C   0  0  0  0  0  2  0  0  0  0  0  0
  157.6270  213.2130  151.4230 C   0  0  2  0  0  3  0  0  0  0  0  0
  158.5270  211.4050  152.8960 C   0  0  0  0  0  3  0  0  0  0  0  0
  163.3430  208.7350  150.8350 O   0  0  0  0  0  0  0  0  0  0  0  0
  160.9100  208.3370  154.4720 C   0  0  0  0  0  2  0  0  0  0  0  0
  159.3430  211.8650  155.1390 C   0  0  0  0  0  0  0  0  0  0  0  0
  159.8680  211.4340  156.3620 O   0  0  0  0  0  0  0  0  0  0  0  0
  162.5930  209.6020  151.2600 C   0  0  0  0  0  0  0  0  0  0  0  0
  159.0800  213.2260  154.9480 C   0  0  0  0  0  3  0  0  0  0  0  0
  160.6980  213.0390  148.1710 C   0  0  0  0  0  2  0  0  0  0  0  0
  159.6500  214.0600  150.1650 C   0  0  0  0  0  2  0  0  0  0  0  0
  161.5440  210.6130  148.0440 C   0  0  1  0  0  3  0  0  0  0  0  0
  161.7240  208.5710  155.7400 C   0  0  1  0  0  3  0  0  0  0  0  0
  163.8590  209.7380  147.8280 C   0  0  0  0  0  1  0  0  0  0  0  0
  158.2660  212.7660  152.7040 C   0  0  0  0  0  0  0  0  0  0  0  0
  160.1010  210.1350  156.6110 O   0  0  0  0  0  0  0  0  0  0  0  0
  163.0340  210.9430  148.2520 C   0  0  2  0  0  0  0  0  0  0  0  0
  163.2450  210.2620  153.5370 C   0  0  0  0  0  1  0  0  0  0  0  0
  162.1590  209.6020  152.6980 C   0  0  2  0  0  3  0  0  0  0  0  0
  161.1190  210.3630  149.4240 C   0  0  0  0  0  0  0  0  0  0  0  0
  159.0630  210.9560  154.1080 C   0  0  0  0  0  3  0  0  0  0  0  0
  161.8170  208.2040  153.2530 C   0  0  2  0  0  3  0  0  0  0  0  0
  158.5370  213.6760  153.7380 C   0  0  0  0  0  3  0  0  0  0  0  0
  162.1790  210.7470  150.3780 C   0  0  2  0  0  3  0  0  0  0  0  0
  160.0280  209.9110  149.7410 O   0  0  0  0  0  0  0  0  0  0  0  0
  158.3290  214.4310  150.8180 C   0  0  0  0  0  2  0  0  0  0  0  0
  163.4380  212.0420  147.4820 O   0  0  0  0  0  1  0  0  0  0  0  0
  159.4310  213.1200  148.9950 C   0  0  0  0  0  2  0  0  0  0  0  0
  161.4620  209.9510  156.3450 C   0  0  0  0  0  2  0  0  0  0  0  0
  161.5800  207.4320  156.7480 C   0  0  0  0  0  2  0  0  0  0  0  0
  160.7540  206.2700  156.2140 C   0  0  0  0  0  1  0  0  0  0  0  0
  161.1580  207.4130  152.2810 O   0  0  0  0  0  0  0  0  0  0  0  0
  162.7320  205.7120  152.5790 O   0  0  0  0  0  1  0  0  0  0  0  0
  161.3700  206.0390  152.5790 C   0  0  2  0  0  3  0  0  0  0  0  0
  160.5650  205.1070  151.6670 C   0  0  0  0  0  2  0  0  0  0  0  0
  161.5710  202.4580  147.0160 C   0  0  0  0  0  2  0  0  0  0  0  0
  160.9680  205.2430  150.2330 C   0  0  2  0  0  3  0  0  0  0  0  0
  161.2320  206.3840  149.6780 N   0  0  0  0  0  2  0  0  0  0  0  0
  161.7900  207.0090  147.4660 O   0  0  0  0  0  0  0  0  0  0  0  0
  161.3730  202.7350  149.5690 C   0  0  0  0  0  2  0  0  0  0  0  0
  161.2400  203.9560  146.8400 C   0  0  2  0  0  3  0  0  0  0  0  0
  161.0240  201.8710  148.3410 C   0  0  0  0  0  2  0  0  0  0  0  0
  161.5540  206.1100  148.3180 C   0  0  0  0  0  0  0  0  0  0  0  0
  161.9690  204.4810  145.6150 C   0  0  0  0  0  1  0  0  0  0  0  0
  161.7300  204.6540  148.0980 C   0  0  1  0  0  3  0  0  0  0  0  0
  160.9010  204.1320  149.2390 C   0  0  2  0  0  3  0  0  0  0  0  0
  156.1480  213.5040  151.6510 C   0  0  0  0  0  2  0  0  0  0  0  0
  155.9320  214.3700  152.8850 C   0  0  0  0  0  2  0  0  0  0  0  0
  155.1060  213.6600  153.9190 C   0  0  0  0  0  0  0  0  0  0  0  0
  154.0740  213.1030  153.5770 O   0  0  0  0  0  0  0  0  0  0  0  0
  155.4930  213.6280  155.3770 C   0  0  0  0  0  2  0  0  0  0  0  0
  155.9870  211.3610  154.9120 F   0  0  0  0  0  0  0  0  0  0  0  0
  157.0080  212.2990  156.6740 F   0  0  0  0  0  0  0  0  0  0  0  0
  155.8200  212.2470  155.9610 C   0  0  0  0  0  0  0  0  0  0  0  0
  153.8200  212.5460  157.2600 O   0  0  0  0  0  1  0  0  0  0  0  0
  154.6960  211.7500  156.8270 C   0  0  0  0  0  0  0  0  0  0  0  0
  154.6320  210.4050  157.1790 O   0  0  0  0  0  0  0  0  0  0  0  0
  1 25  1  0  0  0  0
  2 11  1  0  0  0  0
  3 48  1  1  0  0  0
  3 16  1  0  0  0  0
  4 22  1  0  0  0  0
  5  9  2  0  0  0  0
  6 14  1  0  0  0  0
  7  8  1  0  0  0  0
  8 17  1  0  0  0  0
  9 20  1  0  0  0  0
 10  7  1  0  0  0  0
 11 29  1  0  0  0  0
 12 27  1  0  0  0  0
 13  2  1  1  0  0  0
 13 18  1  0  0  0  0
 13 21  1  0  0  0  0
 14 30  1  0  0  0  0
 14 31  1  1  0  0  0
 16  4  2  0  0  0  0
 16 24  1  0  0  0  0
 18 15  1  6  0  0  0
 18  1  1  0  0  0  0
 20 23  1  0  0  0  0
 20 19  1  1  0  0  0
 21 26  2  0  0  0  0
 22  7  2  0  0  0  0
 23 33  1  6  0  0  0
 23  6  1  0  0  0  0
 24 10  2  0  0  0  0
 25 21  1  6  0  0  0
 25  9  1  0  0  0  0
 27  3  1  0  0  0  0
 28 18  1  0  0  0  0
 29 12  1  0  0  0  0
 30 17  1  0  0  0  0
 32 31  1  0  0  0  0
 33 35  1  0  0  0  0
 35 34  1  6  0  0  0
 36 35  1  0  0  0  0
 37 43  1  0  0  0  0
 38 36  1  6  0  0  0
 39 38  1  0  0  0  0
 40 44  2  0  0  0  0
 42 45  1  6  0  0  0
 42 37  1  0  0  0  0
 42 46  1  0  0  0  0
 43 41  1  0  0  0  0
 44 39  1  0  0  0  0
 46 44  1  6  0  0  0
 46 47  1  0  0  0  0
 47 41  1  1  0  0  0
 47 38  1  0  0  0  0
 48 49  1  0  0  0  0
 49 50  1  0  0  0  0
 50 52  1  0  0  0  0
 51 50  2  0  0  0  0
 52 55  1  0  0  0  0
 53 55  1  0  0  0  0
 55 54  1  0  0  0  0
 55 57  1  0  0  0  0
 57 58  2  0  0  0  0
 57 56  1  0  0  0  0
M  END
>  <MODEL>
4

>  <REMARK>
 VINA RESULT:       3.9      3.248     10.226
  Name = 
  11 active torsions:
  status: ('A' for Active; 'I' for Inactive)
    1  A    between atoms: C_3  and  C_46
    2  A    between atoms: C_6  and  C_8
    3  A    between atoms: C_6  and  C_46
    4  A    between atoms: C_8  and  C_17
    5  A    between atoms: C_17  and  C_38
    6  A    between atoms: C_18  and  C_57
    7  A    between atoms: C_20  and  C_45
    8  A    between atoms: C_30  and  O_33
    9  A    between atoms: C_30  and  C_57
   10  A    between atoms: O_33  and  C_41
   11  A    between atoms: C_34  and  C_38
                            x       y       z     vdW  Elec       q    Type
                         _______ _______ _______ _____ _____    ______ ____

>  <TORSDO>
F 11

$$$$
