=
 OpenBabel11072413003D

 48 52  0  0  1  0  0  0  0  0999 V2000
  160.1800  211.9890  153.2450 C   0  0  0  0  0  0  0  0  0  0  0  0
  158.7970  213.4520  151.5860 C   0  0  0  0  0  3  0  0  0  0  0  0
  159.4790  212.7260  152.4250 C   0  0  0  0  0  0  0  0  0  0  0  0
  160.8630  210.7770  152.6800 C   0  0  2  0  0  3  0  0  0  0  0  0
  160.9490  208.3090  152.4150 C   0  0  0  0  0  2  0  0  0  0  0  0
  161.0810  210.9430  151.2990 O   0  0  0  0  0  0  0  0  0  0  0  0
  162.0480  209.9880  150.9350 C   0  0  1  0  0  3  0  0  0  0  0  0
  160.1020  209.4700  152.9320 C   0  0  0  0  0  2  0  0  0  0  0  0
  161.4310  208.5900  150.9900 C   0  0  0  0  0  2  0  0  0  0  0  0
  162.5060  210.2460  149.6400 O   0  0  0  0  0  0  0  0  0  0  0  0
  161.7050  209.4580  148.8080 C   0  0  0  0  0  2  0  0  0  0  0  0
  162.4250  208.1690  148.4460 C   0  0  0  0  0  2  0  0  0  0  0  0
  161.5250  207.2720  147.6080 C   0  0  0  0  0  2  0  0  0  0  0  0
  161.4890  205.8480  148.1550 C   0  0  2  0  0  3  0  0  0  0  0  0
  161.1670  204.8300  147.0930 C   0  0  0  0  0  0  0  0  0  0  0  0
  161.5630  203.5600  147.2400 C   0  0  0  0  0  2  0  0  0  0  0  0
  161.0170  204.2370  144.6570 C   0  0  0  0  0  2  0  0  0  0  0  0
  160.7760  205.3050  145.7130 C   0  0  2  0  0  3  0  0  0  0  0  0
  163.1740  205.0210  145.2910 O   0  0  0  0  0  1  0  0  0  0  0  0
  161.9530  205.4280  144.7340 C   0  0  1  0  0  3  0  0  0  0  0  0
  160.5150  205.7530  149.3180 C   0  0  0  0  0  2  0  0  0  0  0  0
  161.1950  205.0780  150.5040 C   0  0  0  0  0  2  0  0  0  0  0  0
  160.4200  203.9660  150.9540 O   0  0  0  0  0  0  0  0  0  0  0  0
  160.7200  201.7290  150.0210 N   0  0  0  0  0  1  0  0  0  0  0  0
  161.6430  202.3410  152.0620 O   0  0  0  0  0  0  0  0  0  0  0  0
  160.9480  202.6750  151.0640 C   0  0  0  0  0  0  0  0  0  0  0  0
  159.5080  214.1880  150.5040 C   0  0  0  0  0  2  0  0  0  0  0  0
  161.2340  213.1200  146.0880 C   0  0  0  0  0  1  0  0  0  0  0  0
  160.1220  212.9710  147.0170 N   0  0  0  0  0  0  0  0  0  0  0  0
  159.1980  214.0840  146.8200 C   0  0  0  0  0  2  0  0  0  0  0  0
  159.2730  213.5150  149.1570 C   0  0  2  0  0  3  0  0  0  0  0  0
  160.5240  213.0310  148.4300 C   0  0  2  0  0  3  0  0  0  0  0  0
  158.6120  214.4530  148.1780 C   0  0  0  0  0  2  0  0  0  0  0  0
  161.7270  213.9600  148.6820 C   0  0  0  0  0  1  0  0  0  0  0  0
  160.2020  212.2850  154.7280 C   0  0  2  0  0  3  0  0  0  0  0  0
  160.6680  211.1620  155.6230 C   0  0  0  0  0  0  0  0  0  0  0  0
  159.7370  210.2030  156.0550 C   0  0  0  0  0  3  0  0  0  0  0  0
  162.4160  209.9810  156.8300 C   0  0  0  0  0  3  0  0  0  0  0  0
  161.4800  209.0290  157.2580 C   0  0  0  0  0  3  0  0  0  0  0  0
  162.0120  211.0430  156.0160 C   0  0  0  0  0  3  0  0  0  0  0  0
  160.1420  209.1430  156.8750 C   0  0  0  0  0  3  0  0  0  0  0  0
  159.0220  212.9560  155.1950 O   0  0  0  0  0  0  0  0  0  0  0  0
  155.3990  211.0920  156.2710 C   0  0  0  0  0  3  0  0  0  0  0  0
  157.3540  212.3730  156.9090 C   0  0  0  0  0  3  0  0  0  0  0  0
  157.0610  211.6770  154.6100 C   0  0  0  0  0  3  0  0  0  0  0  0
  157.8200  212.3390  155.5830 C   0  0  0  0  0  0  0  0  0  0  0  0
  155.8560  211.0520  154.9500 C   0  0  0  0  0  3  0  0  0  0  0  0
  156.1460  211.7530  157.2500 C   0  0  0  0  0  3  0  0  0  0  0  0
  2  3  2  0  0  0  0
  3  1  2  0  0  0  0
  4  8  1  0  0  0  0
  4  1  1  6  0  0  0
  5  8  1  0  0  0  0
  6  4  1  0  0  0  0
  7 10  1  6  0  0  0
  7  9  1  0  0  0  0
  7  6  1  0  0  0  0
  9  5  1  0  0  0  0
 11 10  1  0  0  0  0
 12 11  1  0  0  0  0
 13 12  1  0  0  0  0
 14 13  1  6  0  0  0
 14 21  1  0  0  0  0
 15 16  2  0  0  0  0
 15 14  1  0  0  0  0
 17 20  1  0  0  0  0
 17 18  1  0  0  0  0
 18 15  1  1  0  0  0
 20 19  1  1  0  0  0
 20 18  1  0  0  0  0
 21 22  1  0  0  0  0
 22 23  1  0  0  0  0
 23 26  1  0  0  0  0
 24 26  1  0  0  0  0
 26 25  2  0  0  0  0
 27  2  1  0  0  0  0
 28 29  1  0  0  0  0
 29 32  1  0  0  0  0
 30 29  1  0  0  0  0
 30 33  1  0  0  0  0
 31 27  1  1  0  0  0
 32 34  1  6  0  0  0
 32 31  1  0  0  0  0
 33 31  1  0  0  0  0
 35  1  1  6  0  0  0
 35 42  1  0  0  0  0
 35 36  1  0  0  0  0
 36 40  2  0  0  0  0
 36 37  1  0  0  0  0
 37 41  2  0  0  0  0
 38 39  2  0  0  0  0
 40 38  1  0  0  0  0
 41 39  1  0  0  0  0
 42 46  1  0  0  0  0
 43 48  1  0  0  0  0
 44 48  2  0  0  0  0
 45 47  1  0  0  0  0
 45 46  2  0  0  0  0
 46 44  1  0  0  0  0
 47 43  2  0  0  0  0
M  END
>  <MODEL>
1

>  <REMARK>
 VINA RESULT:      -7.1      0.000      0.000
  Name = 
  18 active torsions:
  status: ('A' for Active; 'I' for Inactive)
    1  A    between atoms: C_2  and  C_15
    2  A    between atoms: O_6  and  C_16
    3  A    between atoms: O_6  and  C_30
    4  A    between atoms: C_10  and  C_16
    5  A    between atoms: C_10  and  C_25
    6  A    between atoms: C_11  and  C_39
    7  A    between atoms: C_13  and  C_18
    8  A    between atoms: C_15  and  C_18
    9  A    between atoms: C_17  and  O_38
   10  A    between atoms: C_18  and  O_38
   11  A    between atoms: C_20  and  C_21
   12  A    between atoms: C_21  and  C_37
   13  A    between atoms: C_25  and  C_27
   14  A    between atoms: C_27  and  C_32
   15  A    between atoms: C_27  and  C_39
   16  A    between atoms: C_31  and  C_32
   17  A    between atoms: C_31  and  O_41
   18  A    between atoms: C_40  and  O_41
                            x       y       z     vdW  Elec       q    Type
                         _______ _______ _______ _____ _____    ______ ____

>  <TORSDO>
F 18

$$$$
=
 OpenBabel11072413003D

 48 52  0  0  1  0  0  0  0  0999 V2000
  161.3480  206.6500  150.4940 C   0  0  0  0  0  0  0  0  0  0  0  0
  160.4520  206.2270  152.9070 C   0  0  0  0  0  3  0  0  0  0  0  0
  160.8910  206.4290  151.6980 C   0  0  0  0  0  0  0  0  0  0  0  0
  161.8570  208.0290  150.1870 C   0  0  2  0  0  3  0  0  0  0  0  0
  162.3280  209.8040  148.5150 C   0  0  0  0  0  2  0  0  0  0  0  0
  161.2390  208.9730  151.0290 O   0  0  0  0  0  0  0  0  0  0  0  0
  162.0300  210.1340  150.9680 C   0  0  1  0  0  3  0  0  0  0  0  0
  161.6720  208.4410  148.7220 C   0  0  0  0  0  2  0  0  0  0  0  0
  161.8730  210.7880  149.5940 C   0  0  0  0  0  2  0  0  0  0  0  0
  161.6320  211.0330  151.9620 O   0  0  0  0  0  0  0  0  0  0  0  0
  160.7850  211.9360  151.3150 C   0  0  0  0  0  2  0  0  0  0  0  0
  159.4350  211.9890  152.0140 C   0  0  0  0  0  2  0  0  0  0  0  0
  159.2140  213.3570  152.6450 C   0  0  0  0  0  2  0  0  0  0  0  0
  157.8410  213.9220  152.2890 C   0  0  2  0  0  3  0  0  0  0  0  0
  156.8320  213.7160  153.3870 C   0  0  0  0  0  0  0  0  0  0  0  0
  155.5230  213.7780  153.1150 C   0  0  0  0  0  2  0  0  0  0  0  0
  157.9990  212.6060  155.3140 C   0  0  0  0  0  2  0  0  0  0  0  0
  157.2720  213.8500  154.8260 C   0  0  2  0  0  3  0  0  0  0  0  0
  155.7050  211.9900  155.1380 O   0  0  0  0  0  1  0  0  0  0  0  0
  156.5820  212.8710  155.7880 C   0  0  1  0  0  3  0  0  0  0  0  0
  157.3520  213.3310  150.9770 C   0  0  0  0  0  2  0  0  0  0  0  0
  157.1980  214.4390  149.9410 C   0  0  0  0  0  2  0  0  0  0  0  0
  158.3220  214.4530  149.0580 O   0  0  0  0  0  0  0  0  0  0  0  0
  159.7310  212.9430  147.7540 N   0  0  0  0  0  1  0  0  0  0  0  0
  157.4760  213.2330  147.2810 O   0  0  0  0  0  0  0  0  0  0  0  0
  158.4610  213.5440  148.0030 C   0  0  0  0  0  0  0  0  0  0  0  0
  161.4030  206.2790  154.0520 C   0  0  0  0  0  2  0  0  0  0  0  0
  160.0630  209.6750  157.2610 C   0  0  0  0  0  1  0  0  0  0  0  0
  160.9260  209.3560  156.1310 N   0  0  0  0  0  0  0  0  0  0  0  0
  160.2160  209.6790  154.8970 C   0  0  0  0  0  2  0  0  0  0  0  0
  161.5570  207.7100  154.5540 C   0  0  2  0  0  3  0  0  0  0  0  0
  161.2660  207.9300  156.0350 C   0  0  2  0  0  3  0  0  0  0  0  0
  160.6110  208.6490  153.8450 C   0  0  0  0  0  2  0  0  0  0  0  0
  160.1460  207.0010  156.5410 C   0  0  0  0  0  1  0  0  0  0  0  0
  161.2550  205.5890  149.4210 C   0  0  2  0  0  3  0  0  0  0  0  0
  161.1630  204.1610  149.9060 C   0  0  0  0  0  0  0  0  0  0  0  0
  160.7900  203.1560  148.9990 C   0  0  0  0  0  3  0  0  0  0  0  0
  161.3850  202.4810  151.6480 C   0  0  0  0  0  3  0  0  0  0  0  0
  161.0100  201.4840  150.7370 C   0  0  0  0  0  3  0  0  0  0  0  0
  161.4610  203.8140  151.2350 C   0  0  0  0  0  3  0  0  0  0  0  0
  160.7090  201.8220  149.4150 C   0  0  0  0  0  3  0  0  0  0  0  0
  162.1810  205.7820  148.3420 O   0  0  0  0  0  0  0  0  0  0  0  0
  161.2420  205.3750  144.2540 C   0  0  0  0  0  3  0  0  0  0  0  0
  162.8080  205.0560  146.0750 C   0  0  0  0  0  3  0  0  0  0  0  0
  160.6570  206.0830  146.4950 C   0  0  0  0  0  3  0  0  0  0  0  0
  161.8970  205.6380  146.9730 C   0  0  0  0  0  0  0  0  0  0  0  0
  160.3310  205.9560  145.1400 C   0  0  0  0  0  3  0  0  0  0  0  0
  162.4810  204.9240  144.7210 C   0  0  0  0  0  3  0  0  0  0  0  0
  1  3  2  0  0  0  0
  2 27  1  0  0  0  0
  3  2  2  0  0  0  0
  4  1  1  6  0  0  0
  4  6  1  0  0  0  0
  5  8  1  0  0  0  0
  5  9  1  0  0  0  0
  7  6  1  0  0  0  0
  7 10  1  1  0  0  0
  8  4  1  0  0  0  0
  9  7  1  0  0  0  0
 11 10  1  0  0  0  0
 11 12  1  0  0  0  0
 12 13  1  0  0  0  0
 14 21  1  6  0  0  0
 14 13  1  0  0  0  0
 14 15  1  0  0  0  0
 16 15  2  0  0  0  0
 17 20  1  0  0  0  0
 18 15  1  6  0  0  0
 18 17  1  0  0  0  0
 18 20  1  0  0  0  0
 20 19  1  6  0  0  0
 22 21  1  0  0  0  0
 23 22  1  0  0  0  0
 24 26  1  0  0  0  0
 25 26  2  0  0  0  0
 26 23  1  0  0  0  0
 29 28  1  0  0  0  0
 30 29  1  0  0  0  0
 31 27  1  6  0  0  0
 31 32  1  0  0  0  0
 32 29  1  0  0  0  0
 32 34  1  6  0  0  0
 33 31  1  0  0  0  0
 33 30  1  0  0  0  0
 35 42  1  6  0  0  0
 35 36  1  0  0  0  0
 35  1  1  0  0  0  0
 36 40  1  0  0  0  0
 37 41  1  0  0  0  0
 37 36  2  0  0  0  0
 39 38  1  0  0  0  0
 40 38  2  0  0  0  0
 41 39  2  0  0  0  0
 43 48  2  0  0  0  0
 43 47  1  0  0  0  0
 44 46  2  0  0  0  0
 45 46  1  0  0  0  0
 46 42  1  0  0  0  0
 47 45  2  0  0  0  0
 48 44  1  0  0  0  0
M  END
>  <MODEL>
2

>  <REMARK>
 VINA RESULT:      -6.6      2.403      9.929
  Name = 
  18 active torsions:
  status: ('A' for Active; 'I' for Inactive)
    1  A    between atoms: C_2  and  C_15
    2  A    between atoms: O_6  and  C_16
    3  A    between atoms: O_6  and  C_30
    4  A    between atoms: C_10  and  C_16
    5  A    between atoms: C_10  and  C_25
    6  A    between atoms: C_11  and  C_39
    7  A    between atoms: C_13  and  C_18
    8  A    between atoms: C_15  and  C_18
    9  A    between atoms: C_17  and  O_38
   10  A    between atoms: C_18  and  O_38
   11  A    between atoms: C_20  and  C_21
   12  A    between atoms: C_21  and  C_37
   13  A    between atoms: C_25  and  C_27
   14  A    between atoms: C_27  and  C_32
   15  A    between atoms: C_27  and  C_39
   16  A    between atoms: C_31  and  C_32
   17  A    between atoms: C_31  and  O_41
   18  A    between atoms: C_40  and  O_41
                            x       y       z     vdW  Elec       q    Type
                         _______ _______ _______ _____ _____    ______ ____

>  <TORSDO>
F 18

$$$$
=
 OpenBabel11072413003D

 48 52  0  0  1  0  0  0  0  0999 V2000
  160.0230  211.6690  152.8340 C   0  0  0  0  0  0  0  0  0  0  0  0
  158.4170  213.2210  151.4870 C   0  0  0  0  0  3  0  0  0  0  0  0
  159.2120  212.4500  152.1710 C   0  0  0  0  0  0  0  0  0  0  0  0
  160.5840  210.4770  152.1130 C   0  0  2  0  0  3  0  0  0  0  0  0
  162.3310  209.5050  150.6390 C   0  0  0  0  0  2  0  0  0  0  0  0
  160.7140  209.3910  152.9990 O   0  0  0  0  0  0  0  0  0  0  0  0
  160.8510  208.2420  152.1980 C   0  0  1  0  0  3  0  0  0  0  0  0
  161.9280  210.7500  151.4270 C   0  0  0  0  0  2  0  0  0  0  0  0
  162.2200  208.2560  151.5160 C   0  0  0  0  0  2  0  0  0  0  0  0
  160.7340  207.0950  152.9890 O   0  0  0  0  0  0  0  0  0  0  0  0
  161.6160  206.1720  152.4200 C   0  0  0  0  0  2  0  0  0  0  0  0
  160.8710  205.2370  151.4810 C   0  0  0  0  0  2  0  0  0  0  0  0
  161.8470  204.3240  150.7510 C   0  0  0  0  0  2  0  0  0  0  0  0
  161.4770  204.1730  149.2790 C   0  0  2  0  0  3  0  0  0  0  0  0
  160.9370  205.4480  148.6870 C   0  0  0  0  0  0  0  0  0  0  0  0
  159.9870  206.1370  149.3320 C   0  0  0  0  0  2  0  0  0  0  0  0
  162.5660  205.3770  146.7780 C   0  0  0  0  0  2  0  0  0  0  0  0
  161.1540  205.7290  147.2180 C   0  0  2  0  0  3  0  0  0  0  0  0
  162.7720  207.3460  148.1000 O   0  0  0  0  0  1  0  0  0  0  0  0
  162.1810  206.8350  146.9350 C   0  0  1  0  0  3  0  0  0  0  0  0
  160.4960  203.0260  149.0950 C   0  0  0  0  0  2  0  0  0  0  0  0
  161.2410  201.7860  148.6140 C   0  0  0  0  0  2  0  0  0  0  0  0
  160.5980  201.2350  147.4630 O   0  0  0  0  0  0  0  0  0  0  0  0
  159.8940  201.3230  145.1270 N   0  0  0  0  0  1  0  0  0  0  0  0
  161.5050  202.7620  145.9790 O   0  0  0  0  0  0  0  0  0  0  0  0
  160.7090  201.8080  146.1920 C   0  0  0  0  0  0  0  0  0  0  0  0
  158.9570  213.9980  150.3360 C   0  0  0  0  0  2  0  0  0  0  0  0
  161.7170  212.9210  146.4830 C   0  0  0  0  0  1  0  0  0  0  0  0
  160.5590  212.5410  147.2820 N   0  0  0  0  0  0  0  0  0  0  0  0
  159.3820  213.2180  146.7460 C   0  0  0  0  0  2  0  0  0  0  0  0
  159.2020  213.0830  149.1420 C   0  0  2  0  0  3  0  0  0  0  0  0
  160.6530  212.9570  148.6890 C   0  0  2  0  0  3  0  0  0  0  0  0
  158.4690  213.5680  147.9150 C   0  0  0  0  0  2  0  0  0  0  0  0
  161.4290  214.2730  148.8850 C   0  0  0  0  0  1  0  0  0  0  0  0
  160.2890  211.8960  154.3050 C   0  0  2  0  0  3  0  0  0  0  0  0
  160.5940  210.6640  155.1230 C   0  0  0  0  0  0  0  0  0  0  0  0
  159.5490  209.7870  155.4510 C   0  0  0  0  0  3  0  0  0  0  0  0
  162.1550  209.2080  156.2870 C   0  0  0  0  0  3  0  0  0  0  0  0
  161.1050  208.3380  156.6110 C   0  0  0  0  0  3  0  0  0  0  0  0
  161.9020  210.3670  155.5470 C   0  0  0  0  0  3  0  0  0  0  0  0
  159.8030  208.6290  156.1970 C   0  0  0  0  0  3  0  0  0  0  0  0
  159.3560  212.7940  154.9240 O   0  0  0  0  0  0  0  0  0  0  0  0
  155.5840  211.7970  156.5170 C   0  0  0  0  0  3  0  0  0  0  0  0
  157.1700  211.6880  154.6880 C   0  0  0  0  0  3  0  0  0  0  0  0
  157.7420  212.8790  156.7150 C   0  0  0  0  0  3  0  0  0  0  0  0
  158.0900  212.4510  155.4280 C   0  0  0  0  0  0  0  0  0  0  0  0
  156.4930  212.5570  157.2590 C   0  0  0  0  0  3  0  0  0  0  0  0
  155.9220  211.3610  155.2320 C   0  0  0  0  0  3  0  0  0  0  0  0
  2  3  2  0  0  0  0
  3  1  2  0  0  0  0
  4  1  1  1  0  0  0
  4  6  1  0  0  0  0
  5  8  1  0  0  0  0
  5  9  1  0  0  0  0
  7 10  1  1  0  0  0
  7  6  1  0  0  0  0
  8  4  1  0  0  0  0
  9  7  1  0  0  0  0
 11 10  1  0  0  0  0
 12 11  1  0  0  0  0
 13 12  1  0  0  0  0
 14 21  1  1  0  0  0
 14 13  1  0  0  0  0
 15 14  1  0  0  0  0
 15 16  2  0  0  0  0
 17 20  1  0  0  0  0
 17 18  1  0  0  0  0
 18 15  1  1  0  0  0
 20 18  1  0  0  0  0
 20 19  1  1  0  0  0
 22 21  1  0  0  0  0
 23 22  1  0  0  0  0
 24 26  1  0  0  0  0
 25 26  2  0  0  0  0
 26 23  1  0  0  0  0
 27  2  1  0  0  0  0
 28 29  1  0  0  0  0
 29 32  1  0  0  0  0
 30 29  1  0  0  0  0
 30 33  1  0  0  0  0
 31 27  1  1  0  0  0
 32 34  1  6  0  0  0
 32 31  1  0  0  0  0
 33 31  1  0  0  0  0
 35  1  1  6  0  0  0
 35 42  1  0  0  0  0
 35 36  1  0  0  0  0
 36 37  2  0  0  0  0
 36 40  1  0  0  0  0
 37 41  1  0  0  0  0
 38 39  1  0  0  0  0
 40 38  2  0  0  0  0
 41 39  2  0  0  0  0
 42 46  1  0  0  0  0
 43 47  1  0  0  0  0
 44 48  1  0  0  0  0
 44 46  2  0  0  0  0
 45 47  2  0  0  0  0
 46 45  1  0  0  0  0
 48 43  2  0  0  0  0
M  END
>  <MODEL>
3

>  <REMARK>
 VINA RESULT:      -6.3      1.694      2.612
  Name = 
  18 active torsions:
  status: ('A' for Active; 'I' for Inactive)
    1  A    between atoms: C_2  and  C_15
    2  A    between atoms: O_6  and  C_16
    3  A    between atoms: O_6  and  C_30
    4  A    between atoms: C_10  and  C_16
    5  A    between atoms: C_10  and  C_25
    6  A    between atoms: C_11  and  C_39
    7  A    between atoms: C_13  and  C_18
    8  A    between atoms: C_15  and  C_18
    9  A    between atoms: C_17  and  O_38
   10  A    between atoms: C_18  and  O_38
   11  A    between atoms: C_20  and  C_21
   12  A    between atoms: C_21  and  C_37
   13  A    between atoms: C_25  and  C_27
   14  A    between atoms: C_27  and  C_32
   15  A    between atoms: C_27  and  C_39
   16  A    between atoms: C_31  and  C_32
   17  A    between atoms: C_31  and  O_41
   18  A    between atoms: C_40  and  O_41
                            x       y       z     vdW  Elec       q    Type
                         _______ _______ _______ _____ _____    ______ ____

>  <TORSDO>
F 18

$$$$
=
 OpenBabel11072413003D

 48 52  0  0  1  0  0  0  0  0999 V2000
  159.4090  211.8820  152.9310 C   0  0  0  0  0  0  0  0  0  0  0  0
  160.5030  212.7190  155.1470 C   0  0  0  0  0  3  0  0  0  0  0  0
  159.9510  212.3130  154.0390 C   0  0  0  0  0  0  0  0  0  0  0  0
  160.1430  210.8160  152.1690 C   0  0  2  0  0  3  0  0  0  0  0  0
  162.0380  210.1690  150.7000 C   0  0  0  0  0  2  0  0  0  0  0  0
  160.3990  209.7120  153.0030 O   0  0  0  0  0  0  0  0  0  0  0  0
  160.7100  208.6370  152.1510 C   0  0  1  0  0  3  0  0  0  0  0  0
  161.4520  211.3040  151.5360 C   0  0  0  0  0  2  0  0  0  0  0  0
  162.0790  208.8710  151.5100 C   0  0  0  0  0  2  0  0  0  0  0  0
  160.7320  207.4440  152.8790 O   0  0  0  0  0  0  0  0  0  0  0  0
  162.0880  207.1490  153.0500 C   0  0  0  0  0  2  0  0  0  0  0  0
  162.3550  205.6870  152.7320 C   0  0  0  0  0  2  0  0  0  0  0  0
  161.1630  205.0700  152.0120 C   0  0  0  0  0  2  0  0  0  0  0  0
  161.4970  204.7390  150.5600 C   0  0  2  0  0  3  0  0  0  0  0  0
  161.1900  205.8790  149.6250 C   0  0  0  0  0  0  0  0  0  0  0  0
  159.9200  206.1710  149.3190 C   0  0  0  0  0  2  0  0  0  0  0  0
  161.7200  207.1730  147.5390 C   0  0  0  0  0  2  0  0  0  0  0  0
  162.2840  206.4130  148.7300 C   0  0  2  0  0  3  0  0  0  0  0  0
  161.2680  204.8740  147.1150 O   0  0  0  0  0  1  0  0  0  0  0  0
  162.3080  205.7910  147.3260 C   0  0  1  0  0  3  0  0  0  0  0  0
  160.7820  203.4690  150.1300 C   0  0  0  0  0  2  0  0  0  0  0  0
  161.1840  202.3180  151.0460 C   0  0  0  0  0  2  0  0  0  0  0  0
  161.1340  201.0780  150.3380 O   0  0  0  0  0  0  0  0  0  0  0  0
  159.4270  201.2210  148.5980 N   0  0  0  0  0  1  0  0  0  0  0  0
  161.6470  200.7480  148.1040 O   0  0  0  0  0  0  0  0  0  0  0  0
  160.7810  200.9970  148.9870 C   0  0  0  0  0  0  0  0  0  0  0  0
  160.6160  211.7810  156.2980 C   0  0  0  0  0  2  0  0  0  0  0  0
  160.1820  206.9600  156.7400 C   0  0  0  0  0  1  0  0  0  0  0  0
  160.8170  208.0530  156.0160 N   0  0  0  0  0  0  0  0  0  0  0  0
  162.0620  208.4000  156.6950 C   0  0  0  0  0  2  0  0  0  0  0  0
  161.0470  210.3990  155.8210 C   0  0  2  0  0  3  0  0  0  0  0  0
  160.0180  209.2860  155.9920 C   0  0  2  0  0  3  0  0  0  0  0  0
  162.2580  209.9060  156.5750 C   0  0  0  0  0  2  0  0  0  0  0  0
  159.1680  209.4860  157.2610 C   0  0  0  0  0  1  0  0  0  0  0  0
  158.1530  212.5190  152.3830 C   0  0  2  0  0  3  0  0  0  0  0  0
  158.2810  213.1870  151.0350 C   0  0  0  0  0  0  0  0  0  0  0  0
  157.1510  213.2720  150.2050 C   0  0  0  0  0  3  0  0  0  0  0  0
  159.5780  214.3720  149.3550 C   0  0  0  0  0  3  0  0  0  0  0  0
  158.4460  214.4510  148.5330 C   0  0  0  0  0  3  0  0  0  0  0  0
  159.4970  213.7430  150.6010 C   0  0  0  0  0  3  0  0  0  0  0  0
  157.2350  213.8980  148.9560 C   0  0  0  0  0  3  0  0  0  0  0  0
  157.4310  213.2910  153.3530 O   0  0  0  0  0  0  0  0  0  0  0  0
  155.8800  211.8000  156.9770 C   0  0  0  0  0  3  0  0  0  0  0  0
  156.9860  213.5780  155.7570 C   0  0  0  0  0  3  0  0  0  0  0  0
  156.3370  211.5470  154.6120 C   0  0  0  0  0  3  0  0  0  0  0  0
  156.9260  212.8170  154.5760 C   0  0  0  0  0  0  0  0  0  0  0  0
  155.8180  211.0370  155.8070 C   0  0  0  0  0  3  0  0  0  0  0  0
  156.4630  213.0710  156.9520 C   0  0  0  0  0  3  0  0  0  0  0  0
  1  3  2  0  0  0  0
  2 27  1  0  0  0  0
  3  2  2  0  0  0  0
  4  1  1  1  0  0  0
  4  6  1  0  0  0  0
  5  9  1  0  0  0  0
  5  8  1  0  0  0  0
  7 10  1  1  0  0  0
  7  6  1  0  0  0  0
  8  4  1  0  0  0  0
  9  7  1  0  0  0  0
 10 11  1  0  0  0  0
 12 11  1  0  0  0  0
 13 12  1  0  0  0  0
 14 21  1  6  0  0  0
 14 13  1  0  0  0  0
 15 14  1  0  0  0  0
 16 15  2  0  0  0  0
 17 18  1  0  0  0  0
 18 15  1  1  0  0  0
 20 19  1  1  0  0  0
 20 17  1  0  0  0  0
 20 18  1  0  0  0  0
 21 22  1  0  0  0  0
 23 22  1  0  0  0  0
 24 26  1  0  0  0  0
 25 26  2  0  0  0  0
 26 23  1  0  0  0  0
 29 30  1  0  0  0  0
 29 28  1  0  0  0  0
 31 32  1  0  0  0  0
 31 27  1  1  0  0  0
 31 33  1  0  0  0  0
 32 29  1  0  0  0  0
 32 34  1  1  0  0  0
 33 30  1  0  0  0  0
 35  1  1  1  0  0  0
 35 42  1  0  0  0  0
 36 35  1  0  0  0  0
 37 36  2  0  0  0  0
 38 40  2  0  0  0  0
 39 41  2  0  0  0  0
 39 38  1  0  0  0  0
 40 36  1  0  0  0  0
 41 37  1  0  0  0  0
 42 46  1  0  0  0  0
 44 48  2  0  0  0  0
 45 47  1  0  0  0  0
 46 45  2  0  0  0  0
 46 44  1  0  0  0  0
 47 43  2  0  0  0  0
 48 43  1  0  0  0  0
M  END
>  <MODEL>
4

>  <REMARK>
 VINA RESULT:      -6.2      2.248      5.545
  Name = 
  18 active torsions:
  status: ('A' for Active; 'I' for Inactive)
    1  A    between atoms: C_2  and  C_15
    2  A    between atoms: O_6  and  C_16
    3  A    between atoms: O_6  and  C_30
    4  A    between atoms: C_10  and  C_16
    5  A    between atoms: C_10  and  C_25
    6  A    between atoms: C_11  and  C_39
    7  A    between atoms: C_13  and  C_18
    8  A    between atoms: C_15  and  C_18
    9  A    between atoms: C_17  and  O_38
   10  A    between atoms: C_18  and  O_38
   11  A    between atoms: C_20  and  C_21
   12  A    between atoms: C_21  and  C_37
   13  A    between atoms: C_25  and  C_27
   14  A    between atoms: C_27  and  C_32
   15  A    between atoms: C_27  and  C_39
   16  A    between atoms: C_31  and  C_32
   17  A    between atoms: C_31  and  O_41
   18  A    between atoms: C_40  and  O_41
                            x       y       z     vdW  Elec       q    Type
                         _______ _______ _______ _____ _____    ______ ____

>  <TORSDO>
F 18

$$$$
=
 OpenBabel11072413003D

 48 52  0  0  1  0  0  0  0  0999 V2000
  159.2430  211.9600  152.8620 C   0  0  0  0  0  0  0  0  0  0  0  0
  160.2190  212.8800  155.1000 C   0  0  0  0  0  3  0  0  0  0  0  0
  159.7250  212.4330  153.9810 C   0  0  0  0  0  0  0  0  0  0  0  0
  160.0670  210.9440  152.1260 C   0  0  2  0  0  3  0  0  0  0  0  0
  162.0920  210.4030  150.7930 C   0  0  0  0  0  2  0  0  0  0  0  0
  160.2910  209.8180  152.9400 O   0  0  0  0  0  0  0  0  0  0  0  0
  160.7000  208.7830  152.0790 C   0  0  1  0  0  3  0  0  0  0  0  0
  161.4070  211.4910  151.6180 C   0  0  0  0  0  2  0  0  0  0  0  0
  162.1080  209.0790  151.5590 C   0  0  0  0  0  2  0  0  0  0  0  0
  160.7020  207.5660  152.7660 O   0  0  0  0  0  0  0  0  0  0  0  0
  161.9870  207.0490  152.5840 C   0  0  0  0  0  2  0  0  0  0  0  0
  161.9360  205.7900  151.7320 C   0  0  0  0  0  2  0  0  0  0  0  0
  160.5900  205.6760  151.0280 C   0  0  0  0  0  2  0  0  0  0  0  0
  160.6710  204.7540  149.8160 C   0  0  2  0  0  3  0  0  0  0  0  0
  161.0890  203.3540  150.1830 C   0  0  0  0  0  0  0  0  0  0  0  0
  161.3990  203.0590  151.4510 C   0  0  0  0  0  2  0  0  0  0  0  0
  160.4070  202.0230  148.1660 C   0  0  0  0  0  2  0  0  0  0  0  0
  161.5470  202.4130  149.0940 C   0  0  2  0  0  3  0  0  0  0  0  0
  159.9940  200.8820  150.2140 O   0  0  0  0  0  1  0  0  0  0  0  0
  160.9230  201.0110  149.1710 C   0  0  1  0  0  3  0  0  0  0  0  0
  161.5960  205.3440  148.7640 C   0  0  0  0  0  2  0  0  0  0  0  0
  160.7700  205.9990  147.6620 C   0  0  0  0  0  2  0  0  0  0  0  0
  160.8160  205.2110  146.4710 O   0  0  0  0  0  0  0  0  0  0  0  0
  163.2050  204.9970  146.0080 N   0  0  0  0  0  1  0  0  0  0  0  0
  161.6790  205.5720  144.3530 O   0  0  0  0  0  0  0  0  0  0  0  0
  161.8790  205.2810  145.5640 C   0  0  0  0  0  0  0  0  0  0  0  0
  160.3670  211.9570  156.2590 C   0  0  0  0  0  2  0  0  0  0  0  0
  160.8730  207.1370  156.6340 C   0  0  0  0  0  1  0  0  0  0  0  0
  161.3690  208.3580  156.0120 N   0  0  0  0  0  0  0  0  0  0  0  0
  162.4030  208.9300  156.8690 C   0  0  0  0  0  2  0  0  0  0  0  0
  161.1370  210.7060  155.8520 C   0  0  2  0  0  3  0  0  0  0  0  0
  160.3450  209.4030  155.8690 C   0  0  2  0  0  3  0  0  0  0  0  0
  162.3000  210.4480  156.7780 C   0  0  0  0  0  2  0  0  0  0  0  0
  159.2960  209.3870  156.9970 C   0  0  0  0  0  1  0  0  0  0  0  0
  157.9600  212.5070  152.2780 C   0  0  2  0  0  3  0  0  0  0  0  0
  158.0790  213.1840  150.9330 C   0  0  0  0  0  0  0  0  0  0  0  0
  159.2910  213.7990  150.5840 C   0  0  0  0  0  3  0  0  0  0  0  0
  157.1590  213.8150  148.7740 C   0  0  0  0  0  3  0  0  0  0  0  0
  158.3730  214.4280  148.4330 C   0  0  0  0  0  3  0  0  0  0  0  0
  157.0110  213.1960  150.0180 C   0  0  0  0  0  3  0  0  0  0  0  0
  159.4360  214.4240  149.3390 C   0  0  0  0  0  3  0  0  0  0  0  0
  157.1590  213.2250  153.2270 O   0  0  0  0  0  0  0  0  0  0  0  0
  155.5820  211.7390  156.8410 C   0  0  0  0  0  3  0  0  0  0  0  0
  156.1690  211.3780  154.5190 C   0  0  0  0  0  3  0  0  0  0  0  0
  156.5530  213.5370  155.5420 C   0  0  0  0  0  3  0  0  0  0  0  0
  156.6240  212.7050  154.4180 C   0  0  0  0  0  0  0  0  0  0  0  0
  156.0310  213.0590  156.7500 C   0  0  0  0  0  3  0  0  0  0  0  0
  155.6510  210.8980  155.7270 C   0  0  0  0  0  3  0  0  0  0  0  0
  1  3  2  0  0  0  0
  2 27  1  0  0  0  0
  3  2  2  0  0  0  0
  4  1  1  1  0  0  0
  4  6  1  0  0  0  0
  5  9  1  0  0  0  0
  5  8  1  0  0  0  0
  7 10  1  1  0  0  0
  7  6  1  0  0  0  0
  8  4  1  0  0  0  0
  9  7  1  0  0  0  0
 11 10  1  0  0  0  0
 12 11  1  0  0  0  0
 13 12  1  0  0  0  0
 14 21  1  6  0  0  0
 14 15  1  0  0  0  0
 14 13  1  0  0  0  0
 15 16  2  0  0  0  0
 17 18  1  0  0  0  0
 17 20  1  0  0  0  0
 18 20  1  0  0  0  0
 18 15  1  1  0  0  0
 20 19  1  1  0  0  0
 22 21  1  0  0  0  0
 23 22  1  0  0  0  0
 25 26  2  0  0  0  0
 26 24  1  0  0  0  0
 26 23  1  0  0  0  0
 29 28  1  0  0  0  0
 29 30  1  0  0  0  0
 31 32  1  0  0  0  0
 31 27  1  1  0  0  0
 31 33  1  0  0  0  0
 32 29  1  0  0  0  0
 32 34  1  1  0  0  0
 33 30  1  0  0  0  0
 35  1  1  1  0  0  0
 35 42  1  0  0  0  0
 36 35  1  0  0  0  0
 37 36  1  0  0  0  0
 38 40  1  0  0  0  0
 39 38  2  0  0  0  0
 39 41  1  0  0  0  0
 40 36  2  0  0  0  0
 41 37  2  0  0  0  0
 42 46  1  0  0  0  0
 44 48  1  0  0  0  0
 45 47  2  0  0  0  0
 46 44  2  0  0  0  0
 46 45  1  0  0  0  0
 47 43  1  0  0  0  0
 48 43  2  0  0  0  0
M  END
>  <MODEL>
5

>  <REMARK>
 VINA RESULT:      -6.2      2.215      5.956
  Name = 
  18 active torsions:
  status: ('A' for Active; 'I' for Inactive)
    1  A    between atoms: C_2  and  C_15
    2  A    between atoms: O_6  and  C_16
    3  A    between atoms: O_6  and  C_30
    4  A    between atoms: C_10  and  C_16
    5  A    between atoms: C_10  and  C_25
    6  A    between atoms: C_11  and  C_39
    7  A    between atoms: C_13  and  C_18
    8  A    between atoms: C_15  and  C_18
    9  A    between atoms: C_17  and  O_38
   10  A    between atoms: C_18  and  O_38
   11  A    between atoms: C_20  and  C_21
   12  A    between atoms: C_21  and  C_37
   13  A    between atoms: C_25  and  C_27
   14  A    between atoms: C_27  and  C_32
   15  A    between atoms: C_27  and  C_39
   16  A    between atoms: C_31  and  C_32
   17  A    between atoms: C_31  and  O_41
   18  A    between atoms: C_40  and  O_41
                            x       y       z     vdW  Elec       q    Type
                         _______ _______ _______ _____ _____    ______ ____

>  <TORSDO>
F 18

$$$$
=
 OpenBabel11072413003D

 48 52  0  0  1  0  0  0  0  0999 V2000
  161.5170  210.0300  152.5270 C   0  0  0  0  0  0  0  0  0  0  0  0
  160.8810  211.3330  150.3580 C   0  0  0  0  0  3  0  0  0  0  0  0
  161.1910  210.6920  151.4480 C   0  0  0  0  0  0  0  0  0  0  0  0
  161.7940  208.5610  152.3840 C   0  0  2  0  0  3  0  0  0  0  0  0
  161.5070  206.2460  153.2340 C   0  0  0  0  0  2  0  0  0  0  0  0
  161.4780  208.1330  151.0810 O   0  0  0  0  0  0  0  0  0  0  0  0
  162.1210  206.8930  150.9060 C   0  0  1  0  0  3  0  0  0  0  0  0
  161.0550  207.6940  153.4100 C   0  0  0  0  0  2  0  0  0  0  0  0
  161.4270  205.8330  151.7630 C   0  0  0  0  0  2  0  0  0  0  0  0
  162.0670  206.5160  149.5610 O   0  0  0  0  0  0  0  0  0  0  0  0
  160.7080  206.3470  149.2860 C   0  0  0  0  0  2  0  0  0  0  0  0
  160.4780  205.0420  148.5400 C   0  0  0  0  0  2  0  0  0  0  0  0
  161.7690  204.2400  148.4550 C   0  0  0  0  0  2  0  0  0  0  0  0
  161.7940  203.3480  147.2170 C   0  0  2  0  0  3  0  0  0  0  0  0
  162.0490  204.1260  145.9530 C   0  0  0  0  0  0  0  0  0  0  0  0
  163.0970  204.9540  145.8760 C   0  0  0  0  0  2  0  0  0  0  0  0
  161.2430  205.3690  143.9260 C   0  0  0  0  0  2  0  0  0  0  0  0
  160.9320  204.2880  144.9490 C   0  0  2  0  0  3  0  0  0  0  0  0
  160.7850  206.5160  145.9620 O   0  0  0  0  0  1  0  0  0  0  0  0
  160.2230  205.6490  145.0130 C   0  0  1  0  0  3  0  0  0  0  0  0
  160.5050  202.5480  147.1170 C   0  0  0  0  0  2  0  0  0  0  0  0
  160.7280  201.1460  147.6740 C   0  0  0  0  0  2  0  0  0  0  0  0
  161.5110  200.3690  146.7660 O   0  0  0  0  0  0  0  0  0  0  0  0
  161.3530  198.3920  145.3410 N   0  0  0  0  0  1  0  0  0  0  0  0
  160.0940  200.3010  144.9360 O   0  0  0  0  0  0  0  0  0  0  0  0
  160.9560  199.7260  145.6540 C   0  0  0  0  0  0  0  0  0  0  0  0
  161.8990  211.4900  149.2830 C   0  0  0  0  0  2  0  0  0  0  0  0
  160.2280  214.2300  145.6330 C   0  0  0  0  0  1  0  0  0  0  0  0
  160.9650  214.2140  146.8900 N   0  0  0  0  0  0  0  0  0  0  0  0
  162.3780  213.9890  146.5990 C   0  0  0  0  0  2  0  0  0  0  0  0
  161.8000  212.8740  148.6510 C   0  0  2  0  0  3  0  0  0  0  0  0
  160.5640  213.1240  147.7920 C   0  0  2  0  0  3  0  0  0  0  0  0
  162.9600  213.1420  147.7240 C   0  0  0  0  0  2  0  0  0  0  0  0
  160.1190  211.8510  147.0490 C   0  0  0  0  0  1  0  0  0  0  0  0
  161.4980  210.6990  153.8830 C   0  0  2  0  0  3  0  0  0  0  0  0
  161.2170  209.8010  155.0630 C   0  0  0  0  0  0  0  0  0  0  0  0
  159.9530  209.2030  155.1800 C   0  0  0  0  0  3  0  0  0  0  0  0
  161.9130  208.6820  157.1060 C   0  0  0  0  0  3  0  0  0  0  0  0
  160.6470  208.0910  157.2160 C   0  0  0  0  0  3  0  0  0  0  0  0
  162.1980  209.5340  156.0350 C   0  0  0  0  0  3  0  0  0  0  0  0
  159.6670  208.3550  156.2560 C   0  0  0  0  0  3  0  0  0  0  0  0
  160.7700  211.9360  153.9010 O   0  0  0  0  0  0  0  0  0  0  0  0
  156.9430  212.5310  155.5610 C   0  0  0  0  0  3  0  0  0  0  0  0
  159.3510  212.7060  155.7590 C   0  0  0  0  0  3  0  0  0  0  0  0
  158.3660  211.7780  153.7530 C   0  0  0  0  0  3  0  0  0  0  0  0
  159.5060  212.1410  154.4810 C   0  0  0  0  0  0  0  0  0  0  0  0
  157.0880  211.9680  154.2900 C   0  0  0  0  0  3  0  0  0  0  0  0
  158.0730  212.9010  156.2960 C   0  0  0  0  0  3  0  0  0  0  0  0
  2  3  2  0  0  0  0
  3  1  2  0  0  0  0
  4  1  1  6  0  0  0
  4  8  1  0  0  0  0
  5  8  1  0  0  0  0
  6  4  1  0  0  0  0
  7 10  1  6  0  0  0
  7  6  1  0  0  0  0
  7  9  1  0  0  0  0
  9  5  1  0  0  0  0
 11 10  1  0  0  0  0
 12 11  1  0  0  0  0
 13 12  1  0  0  0  0
 14 21  1  6  0  0  0
 14 13  1  0  0  0  0
 15 14  1  0  0  0  0
 16 15  2  0  0  0  0
 17 18  1  0  0  0  0
 17 20  1  0  0  0  0
 18 20  1  0  0  0  0
 18 15  1  1  0  0  0
 20 19  1  1  0  0  0
 21 22  1  0  0  0  0
 23 22  1  0  0  0  0
 24 26  1  0  0  0  0
 25 26  2  0  0  0  0
 26 23  1  0  0  0  0
 27  2  1  0  0  0  0
 28 29  1  0  0  0  0
 29 32  1  0  0  0  0
 30 29  1  0  0  0  0
 30 33  1  0  0  0  0
 31 27  1  6  0  0  0
 32 34  1  6  0  0  0
 32 31  1  0  0  0  0
 33 31  1  0  0  0  0
 35  1  1  6  0  0  0
 35 42  1  0  0  0  0
 35 36  1  0  0  0  0
 36 37  2  0  0  0  0
 36 40  1  0  0  0  0
 37 41  1  0  0  0  0
 38 39  1  0  0  0  0
 40 38  2  0  0  0  0
 41 39  2  0  0  0  0
 42 46  1  0  0  0  0
 43 48  1  0  0  0  0
 44 48  2  0  0  0  0
 45 47  1  0  0  0  0
 45 46  2  0  0  0  0
 46 44  1  0  0  0  0
 47 43  2  0  0  0  0
M  END
>  <MODEL>
6

>  <REMARK>
 VINA RESULT:      -5.9      2.129      3.095
  Name = 
  18 active torsions:
  status: ('A' for Active; 'I' for Inactive)
    1  A    between atoms: C_2  and  C_15
    2  A    between atoms: O_6  and  C_16
    3  A    between atoms: O_6  and  C_30
    4  A    between atoms: C_10  and  C_16
    5  A    between atoms: C_10  and  C_25
    6  A    between atoms: C_11  and  C_39
    7  A    between atoms: C_13  and  C_18
    8  A    between atoms: C_15  and  C_18
    9  A    between atoms: C_17  and  O_38
   10  A    between atoms: C_18  and  O_38
   11  A    between atoms: C_20  and  C_21
   12  A    between atoms: C_21  and  C_37
   13  A    between atoms: C_25  and  C_27
   14  A    between atoms: C_27  and  C_32
   15  A    between atoms: C_27  and  C_39
   16  A    between atoms: C_31  and  C_32
   17  A    between atoms: C_31  and  O_41
   18  A    between atoms: C_40  and  O_41
                            x       y       z     vdW  Elec       q    Type
                         _______ _______ _______ _____ _____    ______ ____

>  <TORSDO>
F 18

$$$$
=
 OpenBabel11072413003D

 48 52  0  0  1  0  0  0  0  0999 V2000
  161.0340  210.1630  152.1250 C   0  0  0  0  0  0  0  0  0  0  0  0
  158.8620  210.8820  153.3790 C   0  0  0  0  0  3  0  0  0  0  0  0
  159.9460  210.5120  152.7610 C   0  0  0  0  0  0  0  0  0  0  0  0
  161.1810  210.6160  150.7010 C   0  0  2  0  0  3  0  0  0  0  0  0
  161.3760  212.4750  149.0660 C   0  0  0  0  0  2  0  0  0  0  0  0
  162.2610  209.9520  150.0900 O   0  0  0  0  0  0  0  0  0  0  0  0
  162.0900  210.1140  148.7030 C   0  0  1  0  0  3  0  0  0  0  0  0
  161.3530  212.1330  150.5540 C   0  0  0  0  0  2  0  0  0  0  0  0
  162.3600  211.5700  148.3220 C   0  0  0  0  0  2  0  0  0  0  0  0
  162.9750  209.2790  148.0150 O   0  0  0  0  0  0  0  0  0  0  0  0
  162.6840  207.9900  148.4690 C   0  0  0  0  0  2  0  0  0  0  0  0
  161.1800  207.7950  148.5820 C   0  0  0  0  0  2  0  0  0  0  0  0
  160.7350  206.5890  147.7660 C   0  0  0  0  0  2  0  0  0  0  0  0
  161.7900  205.4870  147.7760 C   0  0  2  0  0  3  0  0  0  0  0  0
  162.2370  205.1060  146.3890 C   0  0  0  0  0  0  0  0  0  0  0  0
  163.4410  204.5530  146.2020 C   0  0  0  0  0  2  0  0  0  0  0  0
  160.0190  205.5770  145.3110 C   0  0  0  0  0  2  0  0  0  0  0  0
  161.5300  205.7060  145.1960 C   0  0  2  0  0  3  0  0  0  0  0  0
  160.8240  203.3830  144.8580 O   0  0  0  0  0  1  0  0  0  0  0  0
  160.7670  204.6850  144.3390 C   0  0  1  0  0  3  0  0  0  0  0  0
  161.2820  204.2750  148.5400 C   0  0  0  0  0  2  0  0  0  0  0  0
  161.3160  203.0470  147.6360 C   0  0  0  0  0  2  0  0  0  0  0  0
  161.2860  201.8530  148.4200 O   0  0  0  0  0  0  0  0  0  0  0  0
  160.9000  201.7210  150.8270 N   0  0  0  0  0  1  0  0  0  0  0  0
  159.1700  201.5020  149.2920 O   0  0  0  0  0  0  0  0  0  0  0  0
  160.4030  201.6780  149.4910 C   0  0  0  0  0  0  0  0  0  0  0  0
  158.6390  212.3260  153.6710 C   0  0  0  0  0  2  0  0  0  0  0  0
  155.1890  212.8100  157.0600 C   0  0  0  0  0  1  0  0  0  0  0  0
  156.6200  212.7360  156.7970 N   0  0  0  0  0  0  0  0  0  0  0  0
  157.1180  214.0850  156.5460 C   0  0  0  0  0  2  0  0  0  0  0  0
  158.2970  212.5270  155.1420 C   0  0  2  0  0  3  0  0  0  0  0  0
  156.9580  211.9560  155.5970 C   0  0  2  0  0  3  0  0  0  0  0  0
  158.2180  213.9920  155.4960 C   0  0  0  0  0  2  0  0  0  0  0  0
  155.8920  212.0490  154.4890 C   0  0  0  0  0  1  0  0  0  0  0  0
  162.0440  209.2390  152.7670 C   0  0  2  0  0  3  0  0  0  0  0  0
  161.7310  207.7630  152.7010 C   0  0  0  0  0  0  0  0  0  0  0  0
  162.3310  206.9830  151.7000 C   0  0  0  0  0  3  0  0  0  0  0  0
  160.6160  205.7790  153.5530 C   0  0  0  0  0  3  0  0  0  0  0  0
  161.2170  205.0070  152.5490 C   0  0  0  0  0  3  0  0  0  0  0  0
  160.8710  207.1510  153.6290 C   0  0  0  0  0  3  0  0  0  0  0  0
  162.0700  205.6090  151.6210 C   0  0  0  0  0  3  0  0  0  0  0  0
  162.4930  209.6860  154.0550 O   0  0  0  0  0  0  0  0  0  0  0  0
  159.9810  210.7720  157.2590 C   0  0  0  0  0  3  0  0  0  0  0  0
  161.7280  211.3610  155.6880 C   0  0  0  0  0  3  0  0  0  0  0  0
  160.7580  209.1450  155.6430 C   0  0  0  0  0  3  0  0  0  0  0  0
  161.6700  210.0740  155.1260 C   0  0  0  0  0  0  0  0  0  0  0  0
  159.9180  209.4900  156.7080 C   0  0  0  0  0  3  0  0  0  0  0  0
  160.8850  211.7090  156.7490 C   0  0  0  0  0  3  0  0  0  0  0  0
  1  3  2  0  0  0  0
  2 27  1  0  0  0  0
  3  2  2  0  0  0  0
  4  1  1  1  0  0  0
  5  8  1  0  0  0  0
  6  4  1  0  0  0  0
  7 10  1  6  0  0  0
  7  6  1  0  0  0  0
  8  4  1  0  0  0  0
  9  7  1  0  0  0  0
  9  5  1  0  0  0  0
 10 11  1  0  0  0  0
 11 12  1  0  0  0  0
 13 12  1  0  0  0  0
 14 13  1  6  0  0  0
 14 21  1  0  0  0  0
 15 14  1  0  0  0  0
 16 15  2  0  0  0  0
 18 17  1  0  0  0  0
 18 15  1  1  0  0  0
 20 19  1  1  0  0  0
 20 18  1  0  0  0  0
 20 17  1  0  0  0  0
 22 23  1  0  0  0  0
 22 21  1  0  0  0  0
 23 26  1  0  0  0  0
 25 26  2  0  0  0  0
 26 24  1  0  0  0  0
 29 28  1  0  0  0  0
 30 29  1  0  0  0  0
 31 27  1  6  0  0  0
 31 33  1  0  0  0  0
 31 32  1  0  0  0  0
 32 34  1  6  0  0  0
 32 29  1  0  0  0  0
 33 30  1  0  0  0  0
 35  1  1  1  0  0  0
 35 42  1  0  0  0  0
 36 35  1  0  0  0  0
 36 40  1  0  0  0  0
 37 36  2  0  0  0  0
 38 40  2  0  0  0  0
 39 38  1  0  0  0  0
 41 37  1  0  0  0  0
 41 39  2  0  0  0  0
 42 46  1  0  0  0  0
 44 48  2  0  0  0  0
 45 47  1  0  0  0  0
 46 45  2  0  0  0  0
 46 44  1  0  0  0  0
 47 43  2  0  0  0  0
 48 43  1  0  0  0  0
M  END
>  <MODEL>
7

>  <REMARK>
 VINA RESULT:      -5.8      2.397      4.877
  Name = 
  18 active torsions:
  status: ('A' for Active; 'I' for Inactive)
    1  A    between atoms: C_2  and  C_15
    2  A    between atoms: O_6  and  C_16
    3  A    between atoms: O_6  and  C_30
    4  A    between atoms: C_10  and  C_16
    5  A    between atoms: C_10  and  C_25
    6  A    between atoms: C_11  and  C_39
    7  A    between atoms: C_13  and  C_18
    8  A    between atoms: C_15  and  C_18
    9  A    between atoms: C_17  and  O_38
   10  A    between atoms: C_18  and  O_38
   11  A    between atoms: C_20  and  C_21
   12  A    between atoms: C_21  and  C_37
   13  A    between atoms: C_25  and  C_27
   14  A    between atoms: C_27  and  C_32
   15  A    between atoms: C_27  and  C_39
   16  A    between atoms: C_31  and  C_32
   17  A    between atoms: C_31  and  O_41
   18  A    between atoms: C_40  and  O_41
                            x       y       z     vdW  Elec       q    Type
                         _______ _______ _______ _____ _____    ______ ____

>  <TORSDO>
F 18

$$$$
=
 OpenBabel11072413003D

 48 52  0  0  1  0  0  0  0  0999 V2000
  162.1900  207.3490  150.1680 C   0  0  0  0  0  0  0  0  0  0  0  0
  163.0450  206.0850  148.0530 C   0  0  0  0  0  3  0  0  0  0  0  0
  162.6220  206.7050  149.1160 C   0  0  0  0  0  0  0  0  0  0  0  0
  162.2600  208.8490  150.1410 C   0  0  2  0  0  3  0  0  0  0  0  0
  162.1350  210.9650  148.8470 C   0  0  0  0  0  2  0  0  0  0  0  0
  161.4170  209.3920  151.1290 O   0  0  0  0  0  0  0  0  0  0  0  0
  161.8290  210.7250  151.3090 C   0  0  1  0  0  3  0  0  0  0  0  0
  161.9170  209.4550  148.7750 C   0  0  0  0  0  2  0  0  0  0  0  0
  161.4440  211.5500  150.0800 C   0  0  0  0  0  2  0  0  0  0  0  0
  161.2140  211.2630  152.4440 O   0  0  0  0  0  0  0  0  0  0  0  0
  159.9860  211.7540  151.9930 C   0  0  0  0  0  2  0  0  0  0  0  0
  159.3080  212.5670  153.0840 C   0  0  0  0  0  2  0  0  0  0  0  0
  157.7980  212.5760  152.8820 C   0  0  0  0  0  2  0  0  0  0  0  0
  157.1590  213.8150  153.5040 C   0  0  2  0  0  3  0  0  0  0  0  0
  156.7090  213.5800  154.9220 C   0  0  0  0  0  0  0  0  0  0  0  0
  155.4880  213.0860  155.1640 C   0  0  0  0  0  2  0  0  0  0  0  0
  158.9470  214.2750  155.8240 C   0  0  0  0  0  2  0  0  0  0  0  0
  157.4430  214.2640  156.0510 C   0  0  2  0  0  3  0  0  0  0  0  0
  158.3880  212.0240  156.3600 O   0  0  0  0  0  1  0  0  0  0  0  0
  158.3600  213.3340  156.8590 C   0  0  1  0  0  3  0  0  0  0  0  0
  156.0110  214.3080  152.6390 C   0  0  0  0  0  2  0  0  0  0  0  0
  156.3010  213.9960  151.1750 C   0  0  0  0  0  2  0  0  0  0  0  0
  157.6070  214.4530  150.8180 O   0  0  0  0  0  0  0  0  0  0  0  0
  159.5640  214.3560  149.3610 N   0  0  0  0  0  1  0  0  0  0  0  0
  157.4190  213.9580  148.5640 O   0  0  0  0  0  0  0  0  0  0  0  0
  158.1530  214.2510  149.5470 C   0  0  0  0  0  0  0  0  0  0  0  0
  162.3020  206.2340  146.7710 C   0  0  0  0  0  2  0  0  0  0  0  0
  159.4790  203.1490  144.2940 C   0  0  0  0  0  1  0  0  0  0  0  0
  160.8060  203.3950  144.8420 N   0  0  0  0  0  0  0  0  0  0  0  0
  160.8500  202.8790  146.2070 C   0  0  0  0  0  2  0  0  0  0  0  0
  162.1700  204.8860  146.0700 C   0  0  2  0  0  3  0  0  0  0  0  0
  161.1450  204.8220  144.9420 C   0  0  2  0  0  3  0  0  0  0  0  0
  161.7380  203.8050  147.0290 C   0  0  0  0  0  2  0  0  0  0  0  0
  159.9260  205.7190  145.2270 C   0  0  0  0  0  1  0  0  0  0  0  0
  161.7490  206.6040  151.4080 C   0  0  2  0  0  3  0  0  0  0  0  0
  161.4010  205.1470  151.2180 C   0  0  0  0  0  0  0  0  0  0  0  0
  160.4930  204.7880  150.2080 C   0  0  0  0  0  3  0  0  0  0  0  0
  161.6500  202.8000  151.8000 C   0  0  0  0  0  3  0  0  0  0  0  0
  160.7420  202.4510  150.7910 C   0  0  0  0  0  3  0  0  0  0  0  0
  161.9790  204.1420  152.0130 C   0  0  0  0  0  3  0  0  0  0  0  0
  160.1610  203.4450  149.9990 C   0  0  0  0  0  3  0  0  0  0  0  0
  160.8070  207.3320  152.2090 O   0  0  0  0  0  0  0  0  0  0  0  0
  161.0010  207.8890  156.3820 C   0  0  0  0  0  3  0  0  0  0  0  0
  161.5190  208.6710  154.1480 C   0  0  0  0  0  3  0  0  0  0  0  0
  160.3190  206.5920  154.4540 C   0  0  0  0  0  3  0  0  0  0  0  0
  160.8900  207.5410  153.5960 C   0  0  0  0  0  0  0  0  0  0  0  0
  160.3760  206.7620  155.8420 C   0  0  0  0  0  3  0  0  0  0  0  0
  161.5720  208.8450  155.5350 C   0  0  0  0  0  3  0  0  0  0  0  0
  2  3  2  0  0  0  0
  3  1  2  0  0  0  0
  4  1  1  6  0  0  0
  4  6  1  0  0  0  0
  5  9  1  0  0  0  0
  6  7  1  0  0  0  0
  7 10  1  1  0  0  0
  8  5  1  0  0  0  0
  8  4  1  0  0  0  0
  9  7  1  0  0  0  0
 11 10  1  0  0  0  0
 11 12  1  0  0  0  0
 13 12  1  0  0  0  0
 13 14  1  0  0  0  0
 14 21  1  6  0  0  0
 14 15  1  0  0  0  0
 15 16  2  0  0  0  0
 17 18  1  0  0  0  0
 17 20  1  0  0  0  0
 18 15  1  6  0  0  0
 18 20  1  0  0  0  0
 20 19  1  6  0  0  0
 22 21  1  0  0  0  0
 23 22  1  0  0  0  0
 24 26  1  0  0  0  0
 25 26  2  0  0  0  0
 26 23  1  0  0  0  0
 27  2  1  0  0  0  0
 28 29  1  0  0  0  0
 29 32  1  0  0  0  0
 29 30  1  0  0  0  0
 30 33  1  0  0  0  0
 31 27  1  1  0  0  0
 31 33  1  0  0  0  0
 32 34  1  1  0  0  0
 32 31  1  0  0  0  0
 35  1  1  6  0  0  0
 35 42  1  0  0  0  0
 36 35  1  0  0  0  0
 36 40  1  0  0  0  0
 37 36  2  0  0  0  0
 38 40  2  0  0  0  0
 39 38  1  0  0  0  0
 41 37  1  0  0  0  0
 41 39  2  0  0  0  0
 42 46  1  0  0  0  0
 44 48  1  0  0  0  0
 45 47  2  0  0  0  0
 46 44  2  0  0  0  0
 46 45  1  0  0  0  0
 47 43  1  0  0  0  0
 48 43  2  0  0  0  0
M  END
>  <MODEL>
8

>  <REMARK>
 VINA RESULT:      -5.8      2.350      9.174
  Name = 
  18 active torsions:
  status: ('A' for Active; 'I' for Inactive)
    1  A    between atoms: C_2  and  C_15
    2  A    between atoms: O_6  and  C_16
    3  A    between atoms: O_6  and  C_30
    4  A    between atoms: C_10  and  C_16
    5  A    between atoms: C_10  and  C_25
    6  A    between atoms: C_11  and  C_39
    7  A    between atoms: C_13  and  C_18
    8  A    between atoms: C_15  and  C_18
    9  A    between atoms: C_17  and  O_38
   10  A    between atoms: C_18  and  O_38
   11  A    between atoms: C_20  and  C_21
   12  A    between atoms: C_21  and  C_37
   13  A    between atoms: C_25  and  C_27
   14  A    between atoms: C_27  and  C_32
   15  A    between atoms: C_27  and  C_39
   16  A    between atoms: C_31  and  C_32
   17  A    between atoms: C_31  and  O_41
   18  A    between atoms: C_40  and  O_41
                            x       y       z     vdW  Elec       q    Type
                         _______ _______ _______ _____ _____    ______ ____

>  <TORSDO>
F 18

$$$$
=
 OpenBabel11072413003D

 48 52  0  0  1  0  0  0  0  0999 V2000
  161.5280  209.9860  152.4580 C   0  0  0  0  0  0  0  0  0  0  0  0
  160.9050  211.3530  150.3260 C   0  0  0  0  0  3  0  0  0  0  0  0
  161.2090  210.6800  151.3980 C   0  0  0  0  0  0  0  0  0  0  0  0
  161.7820  208.5170  152.2770 C   0  0  2  0  0  3  0  0  0  0  0  0
  161.2640  206.1710  152.9070 C   0  0  0  0  0  2  0  0  0  0  0  0
  161.7090  208.1770  150.9130 O   0  0  0  0  0  0  0  0  0  0  0  0
  162.3350  206.9240  150.7850 C   0  0  1  0  0  3  0  0  0  0  0  0
  160.8320  207.6250  153.0850 C   0  0  0  0  0  2  0  0  0  0  0  0
  161.4570  205.8470  151.4250 C   0  0  0  0  0  2  0  0  0  0  0  0
  162.5300  206.6260  149.4340 O   0  0  0  0  0  0  0  0  0  0  0  0
  161.2650  206.7340  148.8520 C   0  0  0  0  0  2  0  0  0  0  0  0
  160.6040  205.3670  148.7630 C   0  0  0  0  0  2  0  0  0  0  0  0
  161.6060  204.3190  148.2980 C   0  0  0  0  0  2  0  0  0  0  0  0
  160.9110  203.0270  147.8810 C   0  0  2  0  0  3  0  0  0  0  0  0
  161.0080  201.9550  148.9340 C   0  0  0  0  0  0  0  0  0  0  0  0
  161.6290  200.8010  148.6600 C   0  0  0  0  0  2  0  0  0  0  0  0
  160.0780  203.3750  150.7840 C   0  0  0  0  0  2  0  0  0  0  0  0
  160.0790  202.0040  150.1240 C   0  0  2  0  0  3  0  0  0  0  0  0
  162.1760  202.3940  151.3330 O   0  0  0  0  0  1  0  0  0  0  0  0
  160.7910  202.2240  151.4680 C   0  0  1  0  0  3  0  0  0  0  0  0
  161.4570  202.5380  146.5490 C   0  0  0  0  0  2  0  0  0  0  0  0
  160.8290  203.3380  145.4130 C   0  0  0  0  0  2  0  0  0  0  0  0
  161.6900  204.4090  145.0230 O   0  0  0  0  0  0  0  0  0  0  0  0
  160.4500  206.5070  145.1860 N   0  0  0  0  0  1  0  0  0  0  0  0
  161.4640  205.8290  143.2090 O   0  0  0  0  0  0  0  0  0  0  0  0
  161.2130  205.5760  144.4180 C   0  0  0  0  0  0  0  0  0  0  0  0
  161.9230  211.5220  149.2510 C   0  0  0  0  0  2  0  0  0  0  0  0
  160.6000  214.2510  145.4530 C   0  0  0  0  0  1  0  0  0  0  0  0
  161.1570  214.2460  146.7990 N   0  0  0  0  0  0  0  0  0  0  0  0
  162.6070  214.1140  146.7030 C   0  0  0  0  0  2  0  0  0  0  0  0
  161.8240  212.9130  148.6360 C   0  0  2  0  0  3  0  0  0  0  0  0
  160.7050  213.1110  147.6180 C   0  0  2  0  0  3  0  0  0  0  0  0
  163.0810  213.2750  147.8840 C   0  0  0  0  0  2  0  0  0  0  0  0
  160.4470  211.8330  146.7980 C   0  0  0  0  0  1  0  0  0  0  0  0
  161.5230  210.6210  153.8310 C   0  0  2  0  0  3  0  0  0  0  0  0
  161.2200  209.6990  154.9880 C   0  0  0  0  0  0  0  0  0  0  0  0
  162.2090  209.4750  155.9590 C   0  0  0  0  0  3  0  0  0  0  0  0
  159.7100  208.2450  156.2190 C   0  0  0  0  0  3  0  0  0  0  0  0
  160.7040  208.0260  157.1830 C   0  0  0  0  0  3  0  0  0  0  0  0
  159.9660  209.0780  155.1260 C   0  0  0  0  0  3  0  0  0  0  0  0
  161.9530  208.6370  157.0500 C   0  0  0  0  0  3  0  0  0  0  0  0
  160.8240  211.8730  153.8800 O   0  0  0  0  0  0  0  0  0  0  0  0
  156.9900  212.5000  155.5110 C   0  0  0  0  0  3  0  0  0  0  0  0
  159.3960  212.6970  155.7080 C   0  0  0  0  0  3  0  0  0  0  0  0
  158.4220  211.6950  153.7320 C   0  0  0  0  0  3  0  0  0  0  0  0
  159.5580  212.0900  154.4500 C   0  0  0  0  0  0  0  0  0  0  0  0
  157.1420  211.8950  154.2600 C   0  0  0  0  0  3  0  0  0  0  0  0
  158.1160  212.9030  156.2350 C   0  0  0  0  0  3  0  0  0  0  0  0
  2  3  2  0  0  0  0
  3  1  2  0  0  0  0
  4  1  1  6  0  0  0
  4  8  1  0  0  0  0
  5  8  1  0  0  0  0
  6  4  1  0  0  0  0
  7 10  1  6  0  0  0
  7  6  1  0  0  0  0
  7  9  1  0  0  0  0
  9  5  1  0  0  0  0
 11 10  1  0  0  0  0
 12 11  1  0  0  0  0
 13 12  1  0  0  0  0
 14 21  1  6  0  0  0
 14 13  1  0  0  0  0
 14 15  1  0  0  0  0
 16 15  2  0  0  0  0
 17 20  1  0  0  0  0
 18 15  1  6  0  0  0
 18 17  1  0  0  0  0
 18 20  1  0  0  0  0
 20 19  1  6  0  0  0
 22 21  1  0  0  0  0
 23 22  1  0  0  0  0
 25 26  2  0  0  0  0
 26 23  1  0  0  0  0
 26 24  1  0  0  0  0
 27  2  1  0  0  0  0
 28 29  1  0  0  0  0
 29 32  1  0  0  0  0
 30 29  1  0  0  0  0
 30 33  1  0  0  0  0
 31 27  1  6  0  0  0
 32 34  1  6  0  0  0
 32 31  1  0  0  0  0
 33 31  1  0  0  0  0
 35  1  1  6  0  0  0
 35 42  1  0  0  0  0
 35 36  1  0  0  0  0
 36 40  2  0  0  0  0
 36 37  1  0  0  0  0
 37 41  2  0  0  0  0
 38 39  2  0  0  0  0
 40 38  1  0  0  0  0
 41 39  1  0  0  0  0
 42 46  1  0  0  0  0
 43 48  1  0  0  0  0
 44 48  2  0  0  0  0
 45 47  1  0  0  0  0
 45 46  2  0  0  0  0
 46 44  1  0  0  0  0
 47 43  2  0  0  0  0
M  END
>  <MODEL>
9

>  <REMARK>
 VINA RESULT:      -5.8      1.907      3.886
  Name = 
  18 active torsions:
  status: ('A' for Active; 'I' for Inactive)
    1  A    between atoms: C_2  and  C_15
    2  A    between atoms: O_6  and  C_16
    3  A    between atoms: O_6  and  C_30
    4  A    between atoms: C_10  and  C_16
    5  A    between atoms: C_10  and  C_25
    6  A    between atoms: C_11  and  C_39
    7  A    between atoms: C_13  and  C_18
    8  A    between atoms: C_15  and  C_18
    9  A    between atoms: C_17  and  O_38
   10  A    between atoms: C_18  and  O_38
   11  A    between atoms: C_20  and  C_21
   12  A    between atoms: C_21  and  C_37
   13  A    between atoms: C_25  and  C_27
   14  A    between atoms: C_27  and  C_32
   15  A    between atoms: C_27  and  C_39
   16  A    between atoms: C_31  and  C_32
   17  A    between atoms: C_31  and  O_41
   18  A    between atoms: C_40  and  O_41
                            x       y       z     vdW  Elec       q    Type
                         _______ _______ _______ _____ _____    ______ ____

>  <TORSDO>
F 18

$$$$
