=
 OpenBabel11072414543D

 47 50  0  0  1  0  0  0  0  0999 V2000
  161.1730  206.3260  151.3080 C   0  0  0  0  0  0  0  0  0  0  0  0
  161.2690  207.5890  149.2270 C   0  0  0  0  0  0  0  0  0  0  0  0
  161.0750  205.1410  150.5630 C   0  0  0  0  0  3  0  0  0  0  0  0
  161.2640  207.5450  150.6240 C   0  0  0  0  0  3  0  0  0  0  0  0
  160.9950  203.9790  148.4560 O   0  0  0  0  0  1  0  0  0  0  0  0
  161.1830  206.4190  147.0640 N   0  0  0  0  0  1  0  0  0  0  0  0
  161.0850  205.1700  149.1650 C   0  0  0  0  0  0  0  0  0  0  0  0
  161.1830  206.3930  148.4900 C   0  0  0  0  0  0  0  0  0  0  0  0
  161.0940  207.5090  153.5600 C   0  0  0  0  0  0  0  0  0  0  0  0
  160.6330  208.5830  153.0860 O   0  0  0  0  0  0  0  0  0  0  0  0
  161.3230  205.1340  153.3800 F   0  0  0  0  0  0  0  0  0  0  0  0
  161.1810  206.3230  152.7470 N   0  0  0  0  0  0  0  0  0  0  0  0
  158.9880  207.4710  155.4120 O   0  0  0  0  0  1  0  0  0  0  0  0
  161.0990  208.7080  155.8490 C   0  0  1  0  0  3  0  0  0  0  0  0
  160.2730  207.4400  155.9730 C   0  0  2  0  0  0  0  0  0  0  0  0
  161.4630  207.4490  155.0220 C   0  0  1  0  0  3  0  0  0  0  0  0
  160.4420  206.7340  157.1480 F   0  0  0  0  0  0  0  0  0  0  0  0
  160.8860  211.6780  153.5650 O   0  0  0  0  0  1  0  0  0  0  0  0
  160.3670  211.0650  155.8690 N   0  0  0  0  0  0  0  0  0  0  0  0
  161.2420  210.9160  154.6820 C   0  0  0  0  0  0  0  0  0  0  0  0
  162.5990  210.8710  155.0150 O   0  0  0  0  0  1  0  0  0  0  0  0
  160.3640  209.8100  155.0710 C   0  0  1  0  0  3  0  0  0  0  0  0
  159.1370  211.8750  155.6570 C   0  0  2  0  0  3  0  0  0  0  0  0
  158.6600  214.1700  155.2690 O   0  0  0  0  0  0  0  0  0  0  0  0
  159.2140  213.3490  155.9810 C   0  0  0  0  0  3  0  0  0  0  0  0
  157.9140  211.2210  156.3010 C   0  0  0  0  0  2  0  0  0  0  0  0
  155.6010  210.5030  155.7060 O   0  0  0  0  0  1  0  0  0  0  0  0
  156.9470  211.5040  154.1430 O   0  0  0  0  0  0  0  0  0  0  0  0
  156.8030  211.0810  155.3200 C   0  0  0  0  0  0  0  0  0  0  0  0
  161.3410  208.9200  148.5540 C   0  0  0  0  0  2  0  0  0  0  0  0
  162.5300  209.6220  149.0010 N   0  0  0  0  0  2  0  0  0  0  0  0
  162.1050  210.6760  149.8250 N   0  0  0  0  0  2  0  0  0  0  0  0
  161.6710  211.7970  148.9830 C   0  0  1  0  0  3  0  0  0  0  0  0
  159.1050  214.4350  151.6320 S   0  0  0  0  0  1  0  0  0  0  0  0
  160.7970  212.7170  149.7090 N   0  0  0  0  0  2  0  0  0  0  0  0
  158.7940  214.1580  149.9150 N   0  0  0  0  0  2  0  0  0  0  0  0
  159.6380  213.3180  149.1210 C   0  0  0  0  0  0  0  0  0  0  0  0
  159.3620  213.1040  147.8700 N   0  0  0  0  0  0  0  0  0  0  0  0
  158.1980  213.6590  147.1910 C   0  0  0  0  0  3  0  0  0  0  0  0
  158.6460  214.3880  145.9410 C   0  0  0  0  0  1  0  0  0  0  0  0
  157.2460  212.5430  146.8000 C   0  0  0  0  0  1  0  0  0  0  0  0
  162.8480  212.5330  148.3340 C   0  0  0  0  0  2  0  0  0  0  0  0
  162.3460  214.4520  145.3940 C   0  0  0  0  0  3  0  0  0  0  0  0
  162.5000  213.0900  147.0330 N   0  0  0  0  0  0  0  0  0  0  0  0
  161.9240  212.3980  146.0690 N   0  0  0  0  0  0  0  0  0  0  0  0
  162.7710  214.3300  146.6660 N   0  0  0  0  0  0  0  0  0  0  0  0
  161.8100  213.2310  145.0170 C   0  0  0  0  0  3  0  0  0  0  0  0
  1 12  1  0  0  0  0
  2  4  2  0  0  0  0
  3  1  2  0  0  0  0
  4  1  1  0  0  0  0
  5  7  1  0  0  0  0
  6  8  1  0  0  0  0
  7  3  1  0  0  0  0
  8  7  2  0  0  0  0
  8  2  1  0  0  0  0
 10  9  2  0  0  0  0
 12 11  1  0  0  0  0
 12  9  1  0  0  0  0
 14 22  1  6  0  0  0
 14 15  1  0  0  0  0
 15 13  1  6  0  0  0
 15 17  1  0  0  0  0
 16  9  1  6  0  0  0
 16 14  1  0  0  0  0
 16 15  1  0  0  0  0
 18 20  1  0  0  0  0
 20 21  1  0  0  0  0
 20 19  1  0  0  0  0
 22 20  1  6  0  0  0
 22 19  1  0  0  0  0
 23 19  1  0  0  0  0
 23 25  1  1  0  0  0
 23 26  1  0  0  0  0
 24 25  2  0  0  0  0
 28 29  2  0  0  0  0
 29 27  1  0  0  0  0
 29 26  1  0  0  0  0
 30 31  1  0  0  0  0
 30  2  1  0  0  0  0
 31 32  1  0  0  0  0
 33 42  1  1  0  0  0
 33 35  1  0  0  0  0
 33 32  1  0  0  0  0
 36 34  1  0  0  0  0
 37 35  1  0  0  0  0
 37 36  1  0  0  0  0
 38 37  2  0  0  0  0
 39 38  1  0  0  0  0
 40 39  1  0  0  0  0
 41 39  1  0  0  0  0
 43 46  2  0  0  0  0
 44 42  1  0  0  0  0
 45 44  1  0  0  0  0
 46 44  1  0  0  0  0
 47 43  1  0  0  0  0
 47 45  2  0  0  0  0
M  END
>  <MODEL>
1

>  <REMARK>
 VINA RESULT:      -6.4      0.000      0.000
  Name = 
  15 active torsions:
  status: ('A' for Active; 'I' for Inactive)
    1  A    between atoms: C_1  and  N_33
    2  A    between atoms: C_2  and  C_40
    3  A    between atoms: N_6  and  C_34
    4  A    between atoms: N_7  and  N_22
    5  A    between atoms: N_7  and  C_34
    6  A    between atoms: C_10  and  C_32
    7  A    between atoms: C_11  and  C_30
    8  A    between atoms: N_13  and  C_28
    9  A    between atoms: C_17  and  N_47
   10  A    between atoms: N_19  and  C_42
   11  A    between atoms: N_22  and  C_40
   12  A    between atoms: C_28  and  C_31
   13  A    between atoms: C_28  and  C_39
   14  A    between atoms: C_31  and  C_44
   15  A    between atoms: C_34  and  C_42
                            x       y       z     vdW  Elec       q    Type
                         _______ _______ _______ _____ _____    ______ ____

>  <TORSDO>
F 15

$$$$
=
 OpenBabel11072414543D

 47 50  0  0  1  0  0  0  0  0999 V2000
  159.7500  210.5150  152.9940 C   0  0  0  0  0  0  0  0  0  0  0  0
  161.1780  208.5530  152.7890 C   0  0  0  0  0  0  0  0  0  0  0  0
  159.7970  210.3810  154.3910 C   0  0  0  0  0  3  0  0  0  0  0  0
  160.4430  209.5880  152.2060 C   0  0  0  0  0  3  0  0  0  0  0  0
  160.5690  209.2530  156.3720 O   0  0  0  0  0  1  0  0  0  0  0  0
  161.9730  207.3840  154.8040 N   0  0  0  0  0  1  0  0  0  0  0  0
  160.5340  209.3540  154.9880 C   0  0  0  0  0  0  0  0  0  0  0  0
  161.2300  208.4350  154.1910 C   0  0  0  0  0  0  0  0  0  0  0  0
  159.5600  212.4550  151.3590 C   0  0  0  0  0  0  0  0  0  0  0  0
  160.5930  212.1340  150.7120 O   0  0  0  0  0  0  0  0  0  0  0  0
  157.7310  211.7800  152.7450 F   0  0  0  0  0  0  0  0  0  0  0  0
  159.0110  211.5720  152.3550 N   0  0  0  0  0  0  0  0  0  0  0  0
  157.2760  212.2440  149.7450 O   0  0  0  0  0  1  0  0  0  0  0  0
  158.8790  214.1290  149.5110 C   0  0  1  0  0  3  0  0  0  0  0  0
  157.6160  213.5510  150.1240 C   0  0  2  0  0  0  0  0  0  0  0  0
  158.8420  213.7360  151.0100 C   0  0  1  0  0  3  0  0  0  0  0  0
  156.5860  214.4500  150.3200 F   0  0  0  0  0  0  0  0  0  0  0  0
  161.8680  212.3180  148.1440 O   0  0  0  0  0  1  0  0  0  0  0  0
  160.1140  213.8390  147.3940 N   0  0  0  0  0  0  0  0  0  0  0  0
  161.0300  213.3880  148.4700 C   0  0  0  0  0  0  0  0  0  0  0  0
  161.6000  214.4530  149.1730 O   0  0  0  0  0  1  0  0  0  0  0  0
  159.5930  213.1260  148.5920 C   0  0  1  0  0  3  0  0  0  0  0  0
  160.0950  212.9870  146.1750 C   0  0  2  0  0  3  0  0  0  0  0  0
  161.2690  212.7370  144.1240 O   0  0  0  0  0  0  0  0  0  0  0  0
  161.3400  212.9750  145.3180 C   0  0  0  0  0  3  0  0  0  0  0  0
  158.8390  213.2310  145.3370 C   0  0  0  0  0  2  0  0  0  0  0  0
  156.7980  214.0580  146.5090 O   0  0  0  0  0  1  0  0  0  0  0  0
  157.2870  211.8180  146.4630 O   0  0  0  0  0  0  0  0  0  0  0  0
  157.6070  212.9920  146.1370 C   0  0  0  0  0  0  0  0  0  0  0  0
  161.8750  207.5790  151.8960 C   0  0  0  0  0  2  0  0  0  0  0  0
  160.9290  207.0490  150.9310 N   0  0  0  0  0  2  0  0  0  0  0  0
  161.4990  207.2090  149.6580 N   0  0  0  0  0  2  0  0  0  0  0  0
  161.4030  205.9400  148.9270 C   0  0  1  0  0  3  0  0  0  0  0  0
  160.6620  202.7130  152.0250 S   0  0  0  0  0  1  0  0  0  0  0  0
  161.0930  204.8220  149.8150 N   0  0  0  0  0  2  0  0  0  0  0  0
  160.6620  202.4280  150.2820 N   0  0  0  0  0  2  0  0  0  0  0  0
  160.8970  203.4840  149.3440 C   0  0  0  0  0  0  0  0  0  0  0  0
  160.9280  203.2360  148.0690 N   0  0  0  0  0  0  0  0  0  0  0  0
  160.7550  201.9060  147.4990 C   0  0  0  0  0  3  0  0  0  0  0  0
  160.6530  202.0140  145.9930 C   0  0  0  0  0  1  0  0  0  0  0  0
  161.9460  201.0320  147.8540 C   0  0  0  0  0  1  0  0  0  0  0  0
  160.4210  206.0140  147.7530 C   0  0  0  0  0  2  0  0  0  0  0  0
  162.6080  205.4920  145.0110 C   0  0  0  0  0  3  0  0  0  0  0  0
  161.0810  205.8190  146.4680 N   0  0  0  0  0  0  0  0  0  0  0  0
  160.4360  205.6770  145.3260 N   0  0  0  0  0  0  0  0  0  0  0  0
  162.3890  205.7120  146.3210 N   0  0  0  0  0  0  0  0  0  0  0  0
  161.3740  205.4710  144.3820 C   0  0  0  0  0  3  0  0  0  0  0  0
  1  3  1  0  0  0  0
  2  8  2  0  0  0  0
  3  7  2  0  0  0  0
  4  2  1  0  0  0  0
  4  1  2  0  0  0  0
  7  5  1  0  0  0  0
  8  6  1  0  0  0  0
  8  7  1  0  0  0  0
  9 12  1  0  0  0  0
 10  9  2  0  0  0  0
 12 11  1  0  0  0  0
 12  1  1  0  0  0  0
 14 22  1  6  0  0  0
 14 15  1  0  0  0  0
 14 16  1  0  0  0  0
 15 13  1  6  0  0  0
 15 17  1  0  0  0  0
 15 16  1  0  0  0  0
 16  9  1  6  0  0  0
 18 20  1  0  0  0  0
 19 20  1  0  0  0  0
 20 22  1  0  0  0  0
 20 21  1  0  0  0  0
 22 19  1  6  0  0  0
 23 25  1  6  0  0  0
 23 19  1  0  0  0  0
 24 25  2  0  0  0  0
 26 29  1  0  0  0  0
 26 23  1  0  0  0  0
 29 28  2  0  0  0  0
 29 27  1  0  0  0  0
 30  2  1  0  0  0  0
 31 30  1  0  0  0  0
 32 31  1  0  0  0  0
 33 42  1  6  0  0  0
 33 32  1  0  0  0  0
 33 35  1  0  0  0  0
 36 34  1  0  0  0  0
 37 35  1  0  0  0  0
 37 36  1  0  0  0  0
 38 37  2  0  0  0  0
 39 41  1  0  0  0  0
 39 38  1  0  0  0  0
 40 39  1  0  0  0  0
 43 46  2  0  0  0  0
 44 42  1  0  0  0  0
 45 44  1  0  0  0  0
 46 44  1  0  0  0  0
 47 43  1  0  0  0  0
 47 45  2  0  0  0  0
M  END
>  <MODEL>
2

>  <REMARK>
 VINA RESULT:      -4.9      4.212      8.346
  Name = 
  15 active torsions:
  status: ('A' for Active; 'I' for Inactive)
    1  A    between atoms: C_1  and  N_33
    2  A    between atoms: C_2  and  C_40
    3  A    between atoms: N_6  and  C_34
    4  A    between atoms: N_7  and  N_22
    5  A    between atoms: N_7  and  C_34
    6  A    between atoms: C_10  and  C_32
    7  A    between atoms: C_11  and  C_30
    8  A    between atoms: N_13  and  C_28
    9  A    between atoms: C_17  and  N_47
   10  A    between atoms: N_19  and  C_42
   11  A    between atoms: N_22  and  C_40
   12  A    between atoms: C_28  and  C_31
   13  A    between atoms: C_28  and  C_39
   14  A    between atoms: C_31  and  C_44
   15  A    between atoms: C_34  and  C_42
                            x       y       z     vdW  Elec       q    Type
                         _______ _______ _______ _____ _____    ______ ____

>  <TORSDO>
F 15

$$$$
=
 OpenBabel11072414543D

 47 50  0  0  1  0  0  0  0  0999 V2000
  159.6600  210.0630  154.9000 C   0  0  0  0  0  0  0  0  0  0  0  0
  160.8400  208.9730  153.0700 C   0  0  0  0  0  0  0  0  0  0  0  0
  159.7780  208.8850  155.6540 C   0  0  0  0  0  3  0  0  0  0  0  0
  160.1920  210.0890  153.6050 C   0  0  0  0  0  3  0  0  0  0  0  0
  160.5390  206.6160  155.9080 O   0  0  0  0  0  1  0  0  0  0  0  0
  161.6210  206.6520  153.3090 N   0  0  0  0  0  1  0  0  0  0  0  0
  160.4300  207.7640  155.1340 C   0  0  0  0  0  0  0  0  0  0  0  0
  160.9650  207.8020  153.8400 C   0  0  0  0  0  0  0  0  0  0  0  0
  157.6890  211.6680  155.0300 C   0  0  0  0  0  0  0  0  0  0  0  0
  156.8760  210.8610  154.5040 O   0  0  0  0  0  0  0  0  0  0  0  0
  159.6910  212.0110  156.2950 F   0  0  0  0  0  0  0  0  0  0  0  0
  159.0070  211.2370  155.4190 N   0  0  0  0  0  0  0  0  0  0  0  0
  155.2830  212.5220  153.8700 O   0  0  0  0  0  1  0  0  0  0  0  0
  157.2250  214.0490  154.1390 C   0  0  1  0  0  3  0  0  0  0  0  0
  155.9250  213.4750  154.6740 C   0  0  2  0  0  0  0  0  0  0  0  0
  157.2340  213.0730  155.3430 C   0  0  1  0  0  3  0  0  0  0  0  0
  155.1320  214.3590  155.3790 F   0  0  0  0  0  0  0  0  0  0  0  0
  159.5870  212.3830  151.7450 O   0  0  0  0  0  1  0  0  0  0  0  0
  158.3130  214.4530  151.9610 N   0  0  0  0  0  0  0  0  0  0  0  0
  159.0780  213.3600  152.6070 C   0  0  0  0  0  0  0  0  0  0  0  0
  159.9260  213.8210  153.6180 O   0  0  0  0  0  1  0  0  0  0  0  0
  157.6270  213.4280  152.7920 C   0  0  1  0  0  3  0  0  0  0  0  0
  158.0490  214.2740  150.5080 C   0  0  2  0  0  3  0  0  0  0  0  0
  156.3660  213.2650  149.1670 O   0  0  0  0  0  0  0  0  0  0  0  0
  156.6180  214.0210  150.0900 C   0  0  0  0  0  3  0  0  0  0  0  0
  159.0040  213.2560  149.8830 C   0  0  0  0  0  2  0  0  0  0  0  0
  158.5190  213.0110  147.4480 O   0  0  0  0  0  0  0  0  0  0  0  0
  160.1940  214.4020  148.1670 O   0  0  0  0  0  1  0  0  0  0  0  0
  159.2800  213.5870  148.4570 C   0  0  0  0  0  0  0  0  0  0  0  0
  161.3640  209.0520  151.6730 C   0  0  0  0  0  2  0  0  0  0  0  0
  160.8990  207.9030  150.9190 N   0  0  0  0  0  2  0  0  0  0  0  0
  161.9790  207.4480  150.1460 N   0  0  0  0  0  2  0  0  0  0  0  0
  161.5780  206.2300  149.4320 C   0  0  1  0  0  3  0  0  0  0  0  0
  160.8050  203.1070  152.6270 S   0  0  0  0  0  1  0  0  0  0  0  0
  161.2660  205.1380  150.3520 N   0  0  0  0  0  2  0  0  0  0  0  0
  160.8960  202.7510  150.8990 N   0  0  0  0  0  2  0  0  0  0  0  0
  161.1390  203.7760  149.9300 C   0  0  0  0  0  0  0  0  0  0  0  0
  161.2380  203.4770  148.6690 N   0  0  0  0  0  0  0  0  0  0  0  0
  161.1380  202.1200  148.1480 C   0  0  0  0  0  3  0  0  0  0  0  0
  159.8630  201.4800  148.6540 C   0  0  0  0  0  1  0  0  0  0  0  0
  161.1100  202.1490  146.6300 C   0  0  0  0  0  1  0  0  0  0  0  0
  160.4320  206.4790  148.4450 C   0  0  0  0  0  2  0  0  0  0  0  0
  162.0170  205.7220  145.3650 C   0  0  0  0  0  3  0  0  0  0  0  0
  160.8240  206.2140  147.0670 N   0  0  0  0  0  0  0  0  0  0  0  0
  159.9720  206.1500  146.0610 N   0  0  0  0  0  0  0  0  0  0  0  0
  162.0640  205.9610  146.6890 N   0  0  0  0  0  0  0  0  0  0  0  0
  160.6950  205.8420  144.9680 C   0  0  0  0  0  3  0  0  0  0  0  0
  1 12  1  0  0  0  0
  1  3  1  0  0  0  0
  2  4  1  0  0  0  0
  2  8  2  0  0  0  0
  4  1  2  0  0  0  0
  6  8  1  0  0  0  0
  7  3  2  0  0  0  0
  7  5  1  0  0  0  0
  8  7  1  0  0  0  0
  9 12  1  0  0  0  0
 10  9  2  0  0  0  0
 12 11  1  0  0  0  0
 14 22  1  6  0  0  0
 14 15  1  0  0  0  0
 14 16  1  0  0  0  0
 15 13  1  6  0  0  0
 15 16  1  0  0  0  0
 15 17  1  0  0  0  0
 16  9  1  6  0  0  0
 18 20  1  0  0  0  0
 19 20  1  0  0  0  0
 20 22  1  0  0  0  0
 20 21  1  0  0  0  0
 22 19  1  6  0  0  0
 23 26  1  1  0  0  0
 23 19  1  0  0  0  0
 24 25  2  0  0  0  0
 25 23  1  0  0  0  0
 27 29  2  0  0  0  0
 28 29  1  0  0  0  0
 29 26  1  0  0  0  0
 30  2  1  0  0  0  0
 31 30  1  0  0  0  0
 32 31  1  0  0  0  0
 33 42  1  1  0  0  0
 33 32  1  0  0  0  0
 33 35  1  0  0  0  0
 36 34  1  0  0  0  0
 37 35  1  0  0  0  0
 37 36  1  0  0  0  0
 38 37  2  0  0  0  0
 39 40  1  0  0  0  0
 39 38  1  0  0  0  0
 41 39  1  0  0  0  0
 43 46  2  0  0  0  0
 44 42  1  0  0  0  0
 45 44  1  0  0  0  0
 46 44  1  0  0  0  0
 47 43  1  0  0  0  0
 47 45  2  0  0  0  0
M  END
>  <MODEL>
3

>  <REMARK>
 VINA RESULT:      -4.4      3.674      7.329
  Name = 
  15 active torsions:
  status: ('A' for Active; 'I' for Inactive)
    1  A    between atoms: C_1  and  N_33
    2  A    between atoms: C_2  and  C_40
    3  A    between atoms: N_6  and  C_34
    4  A    between atoms: N_7  and  N_22
    5  A    between atoms: N_7  and  C_34
    6  A    between atoms: C_10  and  C_32
    7  A    between atoms: C_11  and  C_30
    8  A    between atoms: N_13  and  C_28
    9  A    between atoms: C_17  and  N_47
   10  A    between atoms: N_19  and  C_42
   11  A    between atoms: N_22  and  C_40
   12  A    between atoms: C_28  and  C_31
   13  A    between atoms: C_28  and  C_39
   14  A    between atoms: C_31  and  C_44
   15  A    between atoms: C_34  and  C_42
                            x       y       z     vdW  Elec       q    Type
                         _______ _______ _______ _____ _____    ______ ____

>  <TORSDO>
F 15

$$$$
=
 OpenBabel11072414543D

 47 50  0  0  1  0  0  0  0  0999 V2000
  161.1860  209.4490  153.1060 C   0  0  0  0  0  0  0  0  0  0  0  0
  159.8600  211.1060  154.3010 C   0  0  0  0  0  0  0  0  0  0  0  0
  160.8020  208.4860  154.0520 C   0  0  0  0  0  3  0  0  0  0  0  0
  160.7100  210.7590  153.2480 C   0  0  0  0  0  3  0  0  0  0  0  0
  159.5780  207.8410  156.0210 O   0  0  0  0  0  1  0  0  0  0  0  0
  158.6060  210.4660  156.3190 N   0  0  0  0  0  1  0  0  0  0  0  0
  159.9470  208.8180  155.1070 C   0  0  0  0  0  0  0  0  0  0  0  0
  159.4700  210.1300  155.2360 C   0  0  0  0  0  0  0  0  0  0  0  0
  161.6250  208.4450  150.8090 C   0  0  0  0  0  0  0  0  0  0  0  0
  160.4070  208.4120  150.4860 O   0  0  0  0  0  0  0  0  0  0  0  0
  163.3640  209.4520  152.1080 F   0  0  0  0  0  0  0  0  0  0  0  0
  162.0540  209.1290  152.0020 N   0  0  0  0  0  0  0  0  0  0  0  0
  160.6640  207.1370  148.5220 O   0  0  0  0  0  1  0  0  0  0  0  0
  162.6310  206.2940  149.7870 C   0  0  1  0  0  3  0  0  0  0  0  0
  162.0590  207.1390  148.6620 C   0  0  2  0  0  0  0  0  0  0  0  0
  162.6490  207.8420  149.8790 C   0  0  1  0  0  3  0  0  0  0  0  0
  162.8190  207.1850  147.5100 F   0  0  0  0  0  0  0  0  0  0  0  0
  160.9290  205.2610  152.9680 O   0  0  0  0  0  1  0  0  0  0  0  0
  162.0000  204.2520  151.0220 N   0  0  0  0  0  0  0  0  0  0  0  0
  161.9340  205.3630  152.0020 C   0  0  0  0  0  0  0  0  0  0  0  0
  163.1980  205.7720  152.4380 O   0  0  0  0  0  1  0  0  0  0  0  0
  161.5340  205.6050  150.6130 C   0  0  1  0  0  3  0  0  0  0  0  0
  160.8870  203.2680  151.0980 C   0  0  2  0  0  3  0  0  0  0  0  0
  162.3600  201.5980  151.9290 O   0  0  0  0  0  0  0  0  0  0  0  0
  161.2130  201.8940  151.6360 C   0  0  0  0  0  3  0  0  0  0  0  0
  160.1160  203.1870  149.7800 C   0  0  0  0  0  2  0  0  0  0  0  0
  161.5830  203.0320  147.7680 O   0  0  0  0  0  0  0  0  0  0  0  0
  160.8640  201.1340  148.8340 O   0  0  0  0  0  1  0  0  0  0  0  0
  160.8660  202.3910  148.7700 C   0  0  0  0  0  0  0  0  0  0  0  0
  159.4060  212.5250  154.4150 C   0  0  0  0  0  2  0  0  0  0  0  0
  159.4050  213.1370  153.0990 N   0  0  0  0  0  2  0  0  0  0  0  0
  158.5890  212.3470  152.2730 N   0  0  0  0  0  2  0  0  0  0  0  0
  158.6010  212.9030  150.9150 C   0  0  1  0  0  3  0  0  0  0  0  0
  154.4080  214.4530  150.1570 S   0  0  0  0  0  1  0  0  0  0  0  0
  157.3080  213.4780  150.5510 N   0  0  0  0  0  2  0  0  0  0  0  0
  155.6680  214.3680  148.9230 N   0  0  0  0  0  2  0  0  0  0  0  0
  156.9790  213.8730  149.2150 C   0  0  0  0  0  0  0  0  0  0  0  0
  157.8730  213.7880  148.2760 N   0  0  0  0  0  0  0  0  0  0  0  0
  157.6260  214.1520  146.8870 C   0  0  0  0  0  3  0  0  0  0  0  0
  158.9200  214.0630  146.1060 C   0  0  0  0  0  1  0  0  0  0  0  0
  156.6120  213.2010  146.2760 C   0  0  0  0  0  1  0  0  0  0  0  0
  159.7410  213.9050  150.7020 C   0  0  0  0  0  2  0  0  0  0  0  0
  162.0670  212.0040  148.8170 C   0  0  0  0  0  3  0  0  0  0  0  0
  160.7810  213.3780  149.8270 N   0  0  0  0  0  0  0  0  0  0  0  0
  161.4620  214.1160  148.9700 N   0  0  0  0  0  0  0  0  0  0  0  0
  161.1150  212.1020  149.7640 N   0  0  0  0  0  0  0  0  0  0  0  0
  162.2860  213.2760  148.3150 C   0  0  0  0  0  3  0  0  0  0  0  0
  1  4  2  0  0  0  0
  1  3  1  0  0  0  0
  2 30  1  0  0  0  0
  2  8  2  0  0  0  0
  3  7  2  0  0  0  0
  4  2  1  0  0  0  0
  7  8  1  0  0  0  0
  7  5  1  0  0  0  0
  8  6  1  0  0  0  0
  9 12  1  0  0  0  0
 10  9  2  0  0  0  0
 12 11  1  0  0  0  0
 12  1  1  0  0  0  0
 13 15  1  0  0  0  0
 14 16  1  0  0  0  0
 14 22  1  1  0  0  0
 15 17  1  6  0  0  0
 15 14  1  0  0  0  0
 15 16  1  0  0  0  0
 16  9  1  1  0  0  0
 19 23  1  0  0  0  0
 19 20  1  0  0  0  0
 20 21  1  0  0  0  0
 20 18  1  0  0  0  0
 22 19  1  6  0  0  0
 22 20  1  0  0  0  0
 23 26  1  6  0  0  0
 23 25  1  0  0  0  0
 25 24  2  0  0  0  0
 27 29  2  0  0  0  0
 29 28  1  0  0  0  0
 29 26  1  0  0  0  0
 31 30  1  0  0  0  0
 32 31  1  0  0  0  0
 33 42  1  1  0  0  0
 33 32  1  0  0  0  0
 35 33  1  0  0  0  0
 36 37  1  0  0  0  0
 36 34  1  0  0  0  0
 37 35  1  0  0  0  0
 38 37  2  0  0  0  0
 39 38  1  0  0  0  0
 40 39  1  0  0  0  0
 41 39  1  0  0  0  0
 43 46  2  0  0  0  0
 44 42  1  0  0  0  0
 45 44  1  0  0  0  0
 46 44  1  0  0  0  0
 47 43  1  0  0  0  0
 47 45  2  0  0  0  0
M  END
>  <MODEL>
4

>  <REMARK>
 VINA RESULT:      -4.3      2.803      6.843
  Name = 
  15 active torsions:
  status: ('A' for Active; 'I' for Inactive)
    1  A    between atoms: C_1  and  N_33
    2  A    between atoms: C_2  and  C_40
    3  A    between atoms: N_6  and  C_34
    4  A    between atoms: N_7  and  N_22
    5  A    between atoms: N_7  and  C_34
    6  A    between atoms: C_10  and  C_32
    7  A    between atoms: C_11  and  C_30
    8  A    between atoms: N_13  and  C_28
    9  A    between atoms: C_17  and  N_47
   10  A    between atoms: N_19  and  C_42
   11  A    between atoms: N_22  and  C_40
   12  A    between atoms: C_28  and  C_31
   13  A    between atoms: C_28  and  C_39
   14  A    between atoms: C_31  and  C_44
   15  A    between atoms: C_34  and  C_42
                            x       y       z     vdW  Elec       q    Type
                         _______ _______ _______ _____ _____    ______ ____

>  <TORSDO>
F 15

$$$$
=
 OpenBabel11072414543D

 47 50  0  0  1  0  0  0  0  0999 V2000
  161.1170  209.7540  153.7280 C   0  0  0  0  0  0  0  0  0  0  0  0
  159.9440  211.2260  155.2730 C   0  0  0  0  0  0  0  0  0  0  0  0
  160.7740  208.6600  154.5380 C   0  0  0  0  0  3  0  0  0  0  0  0
  160.6980  211.0340  154.1130 C   0  0  0  0  0  3  0  0  0  0  0  0
  159.6830  207.7350  156.4730 O   0  0  0  0  0  1  0  0  0  0  0  0
  158.8270  210.2980  157.2600 N   0  0  0  0  0  1  0  0  0  0  0  0
  160.0140  208.8380  155.6980 C   0  0  0  0  0  0  0  0  0  0  0  0
  159.5940  210.1210  156.0710 C   0  0  0  0  0  0  0  0  0  0  0  0
  161.6020  208.6150  151.5040 C   0  0  0  0  0  0  0  0  0  0  0  0
  160.4620  208.0860  151.4190 O   0  0  0  0  0  0  0  0  0  0  0  0
  162.9680  210.3900  152.3470 F   0  0  0  0  0  0  0  0  0  0  0  0
  161.8850  209.5970  152.5200 N   0  0  0  0  0  0  0  0  0  0  0  0
  160.6880  207.9060  148.9500 O   0  0  0  0  0  1  0  0  0  0  0  0
  162.6630  206.8100  149.9890 C   0  0  1  0  0  3  0  0  0  0  0  0
  162.0820  207.8990  149.1040 C   0  0  2  0  0  0  0  0  0  0  0  0
  162.6470  208.2850  150.4660 C   0  0  1  0  0  3  0  0  0  0  0  0
  162.8500  208.2470  148.0100 F   0  0  0  0  0  0  0  0  0  0  0  0
  160.8360  205.1470  152.8140 O   0  0  0  0  0  1  0  0  0  0  0  0
  162.1280  204.5530  150.8310 N   0  0  0  0  0  0  0  0  0  0  0  0
  161.8950  205.4810  151.9630 C   0  0  0  0  0  0  0  0  0  0  0  0
  163.0830  205.9070  152.5630 O   0  0  0  0  0  1  0  0  0  0  0  0
  161.5750  205.9150  150.6010 C   0  0  1  0  0  3  0  0  0  0  0  0
  161.1030  203.4890  150.6570 C   0  0  2  0  0  3  0  0  0  0  0  0
  162.3920  201.7340  151.6090 O   0  0  0  0  0  0  0  0  0  0  0  0
  161.2830  202.2170  151.4540 C   0  0  0  0  0  3  0  0  0  0  0  0
  160.8420  203.1930  149.1800 C   0  0  0  0  0  2  0  0  0  0  0  0
  159.0390  201.4810  148.9880 O   0  0  0  0  0  1  0  0  0  0  0  0
  161.2420  200.8760  148.8040 O   0  0  0  0  0  0  0  0  0  0  0  0
  160.3930  201.7870  148.9860 C   0  0  0  0  0  0  0  0  0  0  0  0
  159.5480  212.6180  155.6470 C   0  0  0  0  0  2  0  0  0  0  0  0
  159.5110  213.4440  154.4540 N   0  0  0  0  0  2  0  0  0  0  0  0
  158.3870  214.2790  154.5620 N   0  0  0  0  0  2  0  0  0  0  0  0
  157.5830  214.1600  153.3400 C   0  0  1  0  0  3  0  0  0  0  0  0
  160.4560  212.8780  150.0750 S   0  0  0  0  0  1  0  0  0  0  0  0
  158.3860  213.7220  152.2000 N   0  0  0  0  0  2  0  0  0  0  0  0
  158.8090  213.4420  149.7760 N   0  0  0  0  0  2  0  0  0  0  0  0
  157.9400  213.8320  150.8440 C   0  0  0  0  0  0  0  0  0  0  0  0
  156.7460  214.2790  150.5900 N   0  0  0  0  0  0  0  0  0  0  0  0
  156.2120  214.4400  149.2440 C   0  0  0  0  0  3  0  0  0  0  0  0
  156.7380  213.3300  148.3580 C   0  0  0  0  0  1  0  0  0  0  0  0
  154.6950  214.3700  149.2780 C   0  0  0  0  0  1  0  0  0  0  0  0
  156.3500  213.2710  153.5340 C   0  0  0  0  0  2  0  0  0  0  0  0
  155.3440  213.4850  156.9270 C   0  0  0  0  0  3  0  0  0  0  0  0
  156.0190  213.0850  154.9410 N   0  0  0  0  0  0  0  0  0  0  0  0
  156.0740  211.9210  155.5590 N   0  0  0  0  0  0  0  0  0  0  0  0
  155.5830  214.0510  155.7300 N   0  0  0  0  0  0  0  0  0  0  0  0
  155.6540  212.1390  156.8200 C   0  0  0  0  0  3  0  0  0  0  0  0
  1  4  2  0  0  0  0
  1  3  1  0  0  0  0
  2 30  1  0  0  0  0
  2  8  2  0  0  0  0
  3  7  2  0  0  0  0
  4  2  1  0  0  0  0
  7  8  1  0  0  0  0
  7  5  1  0  0  0  0
  8  6  1  0  0  0  0
  9 12  1  0  0  0  0
 10  9  2  0  0  0  0
 11 12  1  0  0  0  0
 12  1  1  0  0  0  0
 13 15  1  0  0  0  0
 14 16  1  0  0  0  0
 14 22  1  1  0  0  0
 15 17  1  6  0  0  0
 15 14  1  0  0  0  0
 15 16  1  0  0  0  0
 16  9  1  1  0  0  0
 19 20  1  0  0  0  0
 20 21  1  0  0  0  0
 20 18  1  0  0  0  0
 22 19  1  6  0  0  0
 22 20  1  0  0  0  0
 23 26  1  6  0  0  0
 23 19  1  0  0  0  0
 23 25  1  0  0  0  0
 25 24  2  0  0  0  0
 28 29  2  0  0  0  0
 29 27  1  0  0  0  0
 29 26  1  0  0  0  0
 31 32  1  0  0  0  0
 31 30  1  0  0  0  0
 33 42  1  1  0  0  0
 33 32  1  0  0  0  0
 35 33  1  0  0  0  0
 36 34  1  0  0  0  0
 36 37  1  0  0  0  0
 37 35  1  0  0  0  0
 38 37  2  0  0  0  0
 39 41  1  0  0  0  0
 39 38  1  0  0  0  0
 40 39  1  0  0  0  0
 42 44  1  0  0  0  0
 44 45  1  0  0  0  0
 44 46  1  0  0  0  0
 45 47  2  0  0  0  0
 46 43  2  0  0  0  0
 47 43  1  0  0  0  0
M  END
>  <MODEL>
5

>  <REMARK>
 VINA RESULT:      -4.2      3.377      8.059
  Name = 
  15 active torsions:
  status: ('A' for Active; 'I' for Inactive)
    1  A    between atoms: C_1  and  N_33
    2  A    between atoms: C_2  and  C_40
    3  A    between atoms: N_6  and  C_34
    4  A    between atoms: N_7  and  N_22
    5  A    between atoms: N_7  and  C_34
    6  A    between atoms: C_10  and  C_32
    7  A    between atoms: C_11  and  C_30
    8  A    between atoms: N_13  and  C_28
    9  A    between atoms: C_17  and  N_47
   10  A    between atoms: N_19  and  C_42
   11  A    between atoms: N_22  and  C_40
   12  A    between atoms: C_28  and  C_31
   13  A    between atoms: C_28  and  C_39
   14  A    between atoms: C_31  and  C_44
   15  A    between atoms: C_34  and  C_42
                            x       y       z     vdW  Elec       q    Type
                         _______ _______ _______ _____ _____    ______ ____

>  <TORSDO>
F 15

$$$$
=
 OpenBabel11072414543D

 47 50  0  0  1  0  0  0  0  0999 V2000
  161.9630  207.5590  150.9420 C   0  0  0  0  0  0  0  0  0  0  0  0
  161.7520  209.9180  151.5120 C   0  0  0  0  0  0  0  0  0  0  0  0
  162.0160  207.9110  149.5840 C   0  0  0  0  0  3  0  0  0  0  0  0
  161.8250  208.5760  151.8950 C   0  0  0  0  0  3  0  0  0  0  0  0
  162.0140  209.5650  147.8360 O   0  0  0  0  0  1  0  0  0  0  0  0
  161.7430  211.6230  149.7380 N   0  0  0  0  0  1  0  0  0  0  0  0
  161.9500  209.2490  149.1870 C   0  0  0  0  0  0  0  0  0  0  0  0
  161.8190  210.2600  150.1480 C   0  0  0  0  0  0  0  0  0  0  0  0
  160.9800  205.2300  151.2320 C   0  0  0  0  0  0  0  0  0  0  0  0
  160.0590  205.4110  150.3890 O   0  0  0  0  0  0  0  0  0  0  0  0
  163.1740  205.7870  152.0040 F   0  0  0  0  0  0  0  0  0  0  0  0
  162.0440  206.1900  151.3780 N   0  0  0  0  0  0  0  0  0  0  0  0
  162.6830  203.2020  150.3090 O   0  0  0  0  0  1  0  0  0  0  0  0
  160.4530  202.7010  151.2850 C   0  0  1  0  0  3  0  0  0  0  0  0
  161.9500  202.8830  151.4610 C   0  0  2  0  0  0  0  0  0  0  0  0
  161.0120  203.9440  152.0220 C   0  0  1  0  0  3  0  0  0  0  0  0
  162.5440  202.0490  152.3880 F   0  0  0  0  0  0  0  0  0  0  0  0
  158.8680  201.7470  148.0200 O   0  0  0  0  0  1  0  0  0  0  0  0
  161.0370  202.4340  148.9020 N   0  0  0  0  0  0  0  0  0  0  0  0
  159.7590  201.7080  149.0970 C   0  0  0  0  0  0  0  0  0  0  0  0
  159.9320  200.4770  149.7350 O   0  0  0  0  0  1  0  0  0  0  0  0
  160.0010  202.9480  149.8380 C   0  0  1  0  0  3  0  0  0  0  0  0
  161.1270  203.2430  147.6570 C   0  0  2  0  0  3  0  0  0  0  0  0
  160.9220  202.5970  145.3790 O   0  0  0  0  0  0  0  0  0  0  0  0
  161.5840  202.5350  146.4020 C   0  0  0  0  0  3  0  0  0  0  0  0
  161.9040  204.5410  147.8830 C   0  0  0  0  0  2  0  0  0  0  0  0
  162.2510  205.7900  145.7520 O   0  0  0  0  0  0  0  0  0  0  0  0
  160.4640  206.2710  147.1050 O   0  0  0  0  0  1  0  0  0  0  0  0
  161.4990  205.5840  146.9010 C   0  0  0  0  0  0  0  0  0  0  0  0
  161.5790  210.9560  152.5710 C   0  0  0  0  0  2  0  0  0  0  0  0
  160.1970  210.9640  153.0170 N   0  0  0  0  0  2  0  0  0  0  0  0
  160.0260  212.1040  153.8190 N   0  0  0  0  0  2  0  0  0  0  0  0
  159.7670  211.6820  155.2010 C   0  0  1  0  0  3  0  0  0  0  0  0
  163.7720  211.1310  157.2540 S   0  0  0  0  0  1  0  0  0  0  0  0
  161.0030  211.3720  155.9160 N   0  0  0  0  0  2  0  0  0  0  0  0
  162.6720  209.8060  156.8620 N   0  0  0  0  0  2  0  0  0  0  0  0
  161.4150  210.0340  156.2160 C   0  0  0  0  0  0  0  0  0  0  0  0
  160.6440  209.0350  155.9070 N   0  0  0  0  0  0  0  0  0  0  0  0
  160.9860  207.6410  156.1600 C   0  0  0  0  0  3  0  0  0  0  0  0
  160.0810  207.0900  157.2410 C   0  0  0  0  0  1  0  0  0  0  0  0
  160.7980  206.8250  154.8930 C   0  0  0  0  0  1  0  0  0  0  0  0
  158.9100  212.6930  155.9710 C   0  0  0  0  0  2  0  0  0  0  0  0
  155.5140  212.1310  156.8220 C   0  0  0  0  0  3  0  0  0  0  0  0
  157.5440  212.2250  156.1630 N   0  0  0  0  0  0  0  0  0  0  0  0
  157.0300  211.1840  155.5350 N   0  0  0  0  0  0  0  0  0  0  0  0
  156.6630  212.8220  156.9450 N   0  0  0  0  0  0  0  0  0  0  0  0
  155.7460  211.0950  155.9310 C   0  0  0  0  0  3  0  0  0  0  0  0
  1 12  1  0  0  0  0
  1  4  1  0  0  0  0
  2  4  2  0  0  0  0
  2 30  1  0  0  0  0
  3  1  2  0  0  0  0
  5  7  1  0  0  0  0
  6  8  1  0  0  0  0
  7  3  1  0  0  0  0
  7  8  2  0  0  0  0
  8  2  1  0  0  0  0
  9 12  1  0  0  0  0
 10  9  2  0  0  0  0
 12 11  1  0  0  0  0
 14 22  1  6  0  0  0
 14 15  1  0  0  0  0
 14 16  1  0  0  0  0
 15 13  1  6  0  0  0
 15 16  1  0  0  0  0
 15 17  1  0  0  0  0
 16  9  1  6  0  0  0
 18 20  1  0  0  0  0
 19 20  1  0  0  0  0
 20 21  1  0  0  0  0
 20 22  1  0  0  0  0
 22 19  1  6  0  0  0
 23 25  1  6  0  0  0
 23 26  1  0  0  0  0
 23 19  1  0  0  0  0
 24 25  2  0  0  0  0
 27 29  2  0  0  0  0
 29 28  1  0  0  0  0
 29 26  1  0  0  0  0
 30 31  1  0  0  0  0
 31 32  1  0  0  0  0
 32 33  1  0  0  0  0
 33 35  1  0  0  0  0
 33 42  1  1  0  0  0
 35 37  1  0  0  0  0
 36 34  1  0  0  0  0
 37 36  1  0  0  0  0
 38 39  1  0  0  0  0
 38 37  2  0  0  0  0
 39 40  1  0  0  0  0
 41 39  1  0  0  0  0
 42 44  1  0  0  0  0
 43 46  2  0  0  0  0
 44 46  1  0  0  0  0
 45 47  2  0  0  0  0
 45 44  1  0  0  0  0
 47 43  1  0  0  0  0
M  END
>  <MODEL>
6

>  <REMARK>
 VINA RESULT:      -4.1      4.171      8.917
  Name = 
  15 active torsions:
  status: ('A' for Active; 'I' for Inactive)
    1  A    between atoms: C_1  and  N_33
    2  A    between atoms: C_2  and  C_40
    3  A    between atoms: N_6  and  C_34
    4  A    between atoms: N_7  and  N_22
    5  A    between atoms: N_7  and  C_34
    6  A    between atoms: C_10  and  C_32
    7  A    between atoms: C_11  and  C_30
    8  A    between atoms: N_13  and  C_28
    9  A    between atoms: C_17  and  N_47
   10  A    between atoms: N_19  and  C_42
   11  A    between atoms: N_22  and  C_40
   12  A    between atoms: C_28  and  C_31
   13  A    between atoms: C_28  and  C_39
   14  A    between atoms: C_31  and  C_44
   15  A    between atoms: C_34  and  C_42
                            x       y       z     vdW  Elec       q    Type
                         _______ _______ _______ _____ _____    ______ ____

>  <TORSDO>
F 15

$$$$
=
 OpenBabel11072414543D

 47 50  0  0  1  0  0  0  0  0999 V2000
  159.4290  213.0260  151.2200 C   0  0  0  0  0  0  0  0  0  0  0  0
  161.1840  211.5970  150.3200 C   0  0  0  0  0  0  0  0  0  0  0  0
  159.4420  213.7640  150.0270 C   0  0  0  0  0  3  0  0  0  0  0  0
  160.3120  211.9460  151.3540 C   0  0  0  0  0  3  0  0  0  0  0  0
  160.2890  214.1670  147.8100 O   0  0  0  0  0  1  0  0  0  0  0  0
  162.0650  211.9970  148.0570 N   0  0  0  0  0  1  0  0  0  0  0  0
  160.3050  213.4220  148.9820 C   0  0  0  0  0  0  0  0  0  0  0  0
  161.1800  212.3360  149.1220 C   0  0  0  0  0  0  0  0  0  0  0  0
  158.9760  213.7810  153.6080 C   0  0  0  0  0  0  0  0  0  0  0  0
  160.1280  214.2640  153.7740 O   0  0  0  0  0  0  0  0  0  0  0  0
  157.2100  213.1930  152.1060 F   0  0  0  0  0  0  0  0  0  0  0  0
  158.5390  213.3480  152.3060 N   0  0  0  0  0  0  0  0  0  0  0  0
  160.0810  213.9020  156.1830 O   0  0  0  0  0  1  0  0  0  0  0  0
  158.1000  212.4900  155.6690 C   0  0  1  0  0  3  0  0  0  0  0  0
  158.6820  213.8110  156.1410 C   0  0  2  0  0  0  0  0  0  0  0  0
  158.0150  213.7520  154.7720 C   0  0  1  0  0  3  0  0  0  0  0  0
  157.9680  214.4530  157.1340 F   0  0  0  0  0  0  0  0  0  0  0  0
  159.4450  209.4880  153.8630 O   0  0  0  0  0  1  0  0  0  0  0  0
  159.0870  210.2780  156.1440 N   0  0  0  0  0  0  0  0  0  0  0  0
  158.6430  210.2360  154.7300 C   0  0  0  0  0  0  0  0  0  0  0  0
  157.2590  210.0860  154.6050 O   0  0  0  0  0  1  0  0  0  0  0  0
  159.1900  211.4810  155.2740 C   0  0  1  0  0  3  0  0  0  0  0  0
  160.4130  209.6600  156.4140 C   0  0  2  0  0  3  0  0  0  0  0  0
  161.3670  207.5080  156.7380 O   0  0  0  0  0  0  0  0  0  0  0  0
  160.4220  208.2480  156.9530 C   0  0  0  0  0  3  0  0  0  0  0  0
  161.3070  210.5830  157.2430 C   0  0  0  0  0  2  0  0  0  0  0  0
  163.6490  211.4410  157.2550 O   0  0  0  0  0  1  0  0  0  0  0  0
  162.8220  210.3410  155.4220 O   0  0  0  0  0  0  0  0  0  0  0  0
  162.6270  210.7830  156.5840 C   0  0  0  0  0  0  0  0  0  0  0  0
  162.1210  210.4530  150.5300 C   0  0  0  0  0  2  0  0  0  0  0  0
  161.6840  209.3200  149.7350 N   0  0  0  0  0  2  0  0  0  0  0  0
  162.6180  208.2900  149.9300 N   0  0  0  0  0  2  0  0  0  0  0  0
  162.0150  207.0150  149.5260 C   0  0  1  0  0  3  0  0  0  0  0  0
  160.8200  204.9200  153.3650 S   0  0  0  0  0  1  0  0  0  0  0  0
  161.5470  206.2450  150.6760 N   0  0  0  0  0  2  0  0  0  0  0  0
  160.7630  204.1650  151.7690 N   0  0  0  0  0  2  0  0  0  0  0  0
  161.1490  204.8730  150.5860 C   0  0  0  0  0  0  0  0  0  0  0  0
  161.1320  204.2780  149.4310 N   0  0  0  0  0  0  0  0  0  0  0  0
  160.7570  202.8830  149.2440 C   0  0  0  0  0  3  0  0  0  0  0  0
  161.1190  202.4480  147.8390 C   0  0  0  0  0  1  0  0  0  0  0  0
  161.5000  202.0100  150.2390 C   0  0  0  0  0  1  0  0  0  0  0  0
  160.9070  207.1950  148.4810 C   0  0  0  0  0  2  0  0  0  0  0  0
  162.3730  205.6440  145.6490 C   0  0  0  0  0  3  0  0  0  0  0  0
  161.2470  206.5770  147.2050 N   0  0  0  0  0  0  0  0  0  0  0  0
  160.3580  206.2710  146.2790 N   0  0  0  0  0  0  0  0  0  0  0  0
  162.4700  206.2150  146.8640 N   0  0  0  0  0  0  0  0  0  0  0  0
  161.0390  205.6800  145.2790 C   0  0  0  0  0  3  0  0  0  0  0  0
  1  4  1  0  0  0  0
  1 12  1  0  0  0  0
  2 30  1  0  0  0  0
  2  4  2  0  0  0  0
  3  1  2  0  0  0  0
  5  7  1  0  0  0  0
  6  8  1  0  0  0  0
  7  8  2  0  0  0  0
  7  3  1  0  0  0  0
  8  2  1  0  0  0  0
  9 10  2  0  0  0  0
 11 12  1  0  0  0  0
 12  9  1  0  0  0  0
 14 22  1  6  0  0  0
 14 15  1  0  0  0  0
 15 13  1  1  0  0  0
 15 17  1  0  0  0  0
 16  9  1  6  0  0  0
 16 14  1  0  0  0  0
 16 15  1  0  0  0  0
 18 20  1  0  0  0  0
 19 23  1  0  0  0  0
 20 19  1  0  0  0  0
 21 20  1  0  0  0  0
 22 20  1  6  0  0  0
 22 19  1  0  0  0  0
 23 25  1  1  0  0  0
 23 26  1  0  0  0  0
 24 25  2  0  0  0  0
 28 29  2  0  0  0  0
 29 26  1  0  0  0  0
 29 27  1  0  0  0  0
 31 32  1  0  0  0  0
 31 30  1  0  0  0  0
 33 42  1  6  0  0  0
 33 32  1  0  0  0  0
 33 35  1  0  0  0  0
 36 34  1  0  0  0  0
 37 35  1  0  0  0  0
 37 36  1  0  0  0  0
 38 37  2  0  0  0  0
 39 38  1  0  0  0  0
 39 41  1  0  0  0  0
 40 39  1  0  0  0  0
 43 46  2  0  0  0  0
 44 42  1  0  0  0  0
 45 44  1  0  0  0  0
 46 44  1  0  0  0  0
 47 43  1  0  0  0  0
 47 45  2  0  0  0  0
M  END
>  <MODEL>
7

>  <REMARK>
 VINA RESULT:      -4.1      3.264      7.032
  Name = 
  15 active torsions:
  status: ('A' for Active; 'I' for Inactive)
    1  A    between atoms: C_1  and  N_33
    2  A    between atoms: C_2  and  C_40
    3  A    between atoms: N_6  and  C_34
    4  A    between atoms: N_7  and  N_22
    5  A    between atoms: N_7  and  C_34
    6  A    between atoms: C_10  and  C_32
    7  A    between atoms: C_11  and  C_30
    8  A    between atoms: N_13  and  C_28
    9  A    between atoms: C_17  and  N_47
   10  A    between atoms: N_19  and  C_42
   11  A    between atoms: N_22  and  C_40
   12  A    between atoms: C_28  and  C_31
   13  A    between atoms: C_28  and  C_39
   14  A    between atoms: C_31  and  C_44
   15  A    between atoms: C_34  and  C_42
                            x       y       z     vdW  Elec       q    Type
                         _______ _______ _______ _____ _____    ______ ____

>  <TORSDO>
F 15

$$$$
=
 OpenBabel11072414543D

 47 50  0  0  1  0  0  0  0  0999 V2000
  160.1200  210.2140  152.9490 C   0  0  0  0  0  0  0  0  0  0  0  0
  161.0990  207.9900  152.7870 C   0  0  0  0  0  0  0  0  0  0  0  0
  160.3500  210.1950  154.3330 C   0  0  0  0  0  3  0  0  0  0  0  0
  160.4960  209.0990  152.1890 C   0  0  0  0  0  3  0  0  0  0  0  0
  161.1810  209.1090  156.3140 O   0  0  0  0  0  1  0  0  0  0  0  0
  161.9500  206.8620  154.8020 N   0  0  0  0  0  1  0  0  0  0  0  0
  160.9590  209.0940  154.9440 C   0  0  0  0  0  0  0  0  0  0  0  0
  161.3380  207.9860  154.1740 C   0  0  0  0  0  0  0  0  0  0  0  0
  160.2010  212.2250  151.3920 C   0  0  0  0  0  0  0  0  0  0  0  0
  161.2690  211.8630  150.8270 O   0  0  0  0  0  0  0  0  0  0  0  0
  158.2140  211.6150  152.5750 F   0  0  0  0  0  0  0  0  0  0  0  0
  159.5090  211.3410  152.2940 N   0  0  0  0  0  0  0  0  0  0  0  0
  158.0110  212.2180  149.6400 O   0  0  0  0  0  1  0  0  0  0  0  0
  159.7540  213.9880  149.5550 C   0  0  1  0  0  3  0  0  0  0  0  0
  158.4180  213.4870  150.0750 C   0  0  2  0  0  0  0  0  0  0  0  0
  159.5980  213.5630  151.0380 C   0  0  1  0  0  3  0  0  0  0  0  0
  157.4440  214.4530  150.2350 F   0  0  0  0  0  0  0  0  0  0  0  0
  162.7280  212.2590  148.0540 O   0  0  0  0  0  1  0  0  0  0  0  0
  160.8120  213.6010  147.3590 N   0  0  0  0  0  0  0  0  0  0  0  0
  161.8490  213.2980  148.3750 C   0  0  0  0  0  0  0  0  0  0  0  0
  162.4050  214.4500  148.9370 O   0  0  0  0  0  1  0  0  0  0  0  0
  160.4510  212.9590  148.6510 C   0  0  1  0  0  3  0  0  0  0  0  0
  160.7430  212.6520  146.2160 C   0  0  2  0  0  3  0  0  0  0  0  0
  162.7880  213.2130  145.1430 O   0  0  0  0  0  0  0  0  0  0  0  0
  161.6040  212.9550  145.0110 C   0  0  0  0  0  3  0  0  0  0  0  0
  159.2970  212.3580  145.8140 C   0  0  0  0  0  2  0  0  0  0  0  0
  158.5520  214.3130  144.4550 O   0  0  0  0  0  1  0  0  0  0  0  0
  159.0820  212.3250  143.4420 O   0  0  0  0  0  0  0  0  0  0  0  0
  158.9670  212.9890  144.5060 C   0  0  0  0  0  0  0  0  0  0  0  0
  161.4540  206.8190  151.9290 C   0  0  0  0  0  2  0  0  0  0  0  0
  160.2540  206.3060  151.2950 N   0  0  0  0  0  2  0  0  0  0  0  0
  160.5150  204.9770  150.9250 N   0  0  0  0  0  2  0  0  0  0  0  0
  161.1440  204.9630  149.5990 C   0  0  1  0  0  3  0  0  0  0  0  0
  161.1930  200.6610  148.1680 S   0  0  0  0  0  1  0  0  0  0  0  0
  161.1220  203.6300  149.0000 N   0  0  0  0  0  2  0  0  0  0  0  0
  161.3880  202.0580  147.1050 N   0  0  0  0  0  2  0  0  0  0  0  0
  161.3600  203.3980  147.6080 C   0  0  0  0  0  0  0  0  0  0  0  0
  161.5440  204.4040  146.8060 N   0  0  0  0  0  0  0  0  0  0  0  0
  161.8080  204.2650  145.3800 C   0  0  0  0  0  3  0  0  0  0  0  0
  160.4990  204.3010  144.6200 C   0  0  0  0  0  1  0  0  0  0  0  0
  162.6900  205.4060  144.9030 C   0  0  0  0  0  1  0  0  0  0  0  0
  160.5460  206.0130  148.6560 C   0  0  0  0  0  2  0  0  0  0  0  0
  163.1060  208.4410  148.3050 C   0  0  0  0  0  3  0  0  0  0  0  0
  161.3850  207.2000  148.5490 N   0  0  0  0  0  0  0  0  0  0  0  0
  160.9140  208.4320  148.5160 N   0  0  0  0  0  0  0  0  0  0  0  0
  162.7000  207.1640  148.4240 N   0  0  0  0  0  0  0  0  0  0  0  0
  161.9780  209.2430  148.3640 C   0  0  0  0  0  3  0  0  0  0  0  0
  1  3  1  0  0  0  0
  2  8  2  0  0  0  0
  3  7  2  0  0  0  0
  4  2  1  0  0  0  0
  4  1  2  0  0  0  0
  7  5  1  0  0  0  0
  8  6  1  0  0  0  0
  8  7  1  0  0  0  0
  9 12  1  0  0  0  0
 10  9  2  0  0  0  0
 12 11  1  0  0  0  0
 12  1  1  0  0  0  0
 14 22  1  6  0  0  0
 14 15  1  0  0  0  0
 14 16  1  0  0  0  0
 15 13  1  6  0  0  0
 15 17  1  0  0  0  0
 15 16  1  0  0  0  0
 16  9  1  6  0  0  0
 18 20  1  0  0  0  0
 19 20  1  0  0  0  0
 20 22  1  0  0  0  0
 20 21  1  0  0  0  0
 22 19  1  6  0  0  0
 23 25  1  6  0  0  0
 23 19  1  0  0  0  0
 25 24  2  0  0  0  0
 26 23  1  0  0  0  0
 27 29  1  0  0  0  0
 28 29  2  0  0  0  0
 29 26  1  0  0  0  0
 30  2  1  0  0  0  0
 31 30  1  0  0  0  0
 32 31  1  0  0  0  0
 33 42  1  6  0  0  0
 33 32  1  0  0  0  0
 35 33  1  0  0  0  0
 36 37  1  0  0  0  0
 36 34  1  0  0  0  0
 37 35  1  0  0  0  0
 38 37  2  0  0  0  0
 39 38  1  0  0  0  0
 40 39  1  0  0  0  0
 41 39  1  0  0  0  0
 43 47  1  0  0  0  0
 43 46  2  0  0  0  0
 44 42  1  0  0  0  0
 45 44  1  0  0  0  0
 46 44  1  0  0  0  0
 47 45  2  0  0  0  0
M  END
>  <MODEL>
8

>  <REMARK>
 VINA RESULT:      -3.9      4.413      8.255
  Name = 
  15 active torsions:
  status: ('A' for Active; 'I' for Inactive)
    1  A    between atoms: C_1  and  N_33
    2  A    between atoms: C_2  and  C_40
    3  A    between atoms: N_6  and  C_34
    4  A    between atoms: N_7  and  N_22
    5  A    between atoms: N_7  and  C_34
    6  A    between atoms: C_10  and  C_32
    7  A    between atoms: C_11  and  C_30
    8  A    between atoms: N_13  and  C_28
    9  A    between atoms: C_17  and  N_47
   10  A    between atoms: N_19  and  C_42
   11  A    between atoms: N_22  and  C_40
   12  A    between atoms: C_28  and  C_31
   13  A    between atoms: C_28  and  C_39
   14  A    between atoms: C_31  and  C_44
   15  A    between atoms: C_34  and  C_42
                            x       y       z     vdW  Elec       q    Type
                         _______ _______ _______ _____ _____    ______ ____

>  <TORSDO>
F 15

$$$$
=
 OpenBabel11072414543D

 47 50  0  0  1  0  0  0  0  0999 V2000
  159.5150  210.8060  153.5380 C   0  0  0  0  0  0  0  0  0  0  0  0
  160.8100  208.7460  153.6380 C   0  0  0  0  0  0  0  0  0  0  0  0
  159.5350  210.8650  154.9400 C   0  0  0  0  0  3  0  0  0  0  0  0
  160.1540  209.7350  152.9010 C   0  0  0  0  0  3  0  0  0  0  0  0
  160.2030  209.9760  157.0750 O   0  0  0  0  0  1  0  0  0  0  0  0
  161.4980  207.8200  155.8110 N   0  0  0  0  0  1  0  0  0  0  0  0
  160.1930  209.8860  155.6900 C   0  0  0  0  0  0  0  0  0  0  0  0
  160.8360  208.8220  155.0430 C   0  0  0  0  0  0  0  0  0  0  0  0
  159.4660  212.4810  151.6230 C   0  0  0  0  0  0  0  0  0  0  0  0
  160.4620  211.9810  151.0350 O   0  0  0  0  0  0  0  0  0  0  0  0
  157.6040  212.1790  153.0940 F   0  0  0  0  0  0  0  0  0  0  0  0
  158.8570  211.8100  152.7430 N   0  0  0  0  0  0  0  0  0  0  0  0
  157.4700  212.2020  149.6730 O   0  0  0  0  0  1  0  0  0  0  0  0
  159.1430  214.0390  149.5860 C   0  0  1  0  0  3  0  0  0  0  0  0
  157.7810  213.5250  150.0180 C   0  0  2  0  0  0  0  0  0  0  0  0
  158.8510  213.7480  151.0800 C   0  0  1  0  0  3  0  0  0  0  0  0
  156.7590  214.4530  149.9850 F   0  0  0  0  0  0  0  0  0  0  0  0
  162.3030  212.2210  148.6970 O   0  0  0  0  0  1  0  0  0  0  0  0
  160.5560  213.5440  147.6240 N   0  0  0  0  0  0  0  0  0  0  0  0
  161.3990  213.2800  148.8160 C   0  0  0  0  0  0  0  0  0  0  0  0
  161.8670  214.4530  149.4140 O   0  0  0  0  0  1  0  0  0  0  0  0
  159.9690  212.9640  148.8620 C   0  0  1  0  0  3  0  0  0  0  0  0
  160.6700  212.5430  146.5290 C   0  0  2  0  0  3  0  0  0  0  0  0
  162.5340  213.5100  145.4150 O   0  0  0  0  0  0  0  0  0  0  0  0
  161.4590  212.9440  145.3030 C   0  0  0  0  0  3  0  0  0  0  0  0
  159.3070  211.9620  146.1540 C   0  0  0  0  0  2  0  0  0  0  0  0
  157.2220  213.3260  146.2730 O   0  0  0  0  0  1  0  0  0  0  0  0
  158.7230  213.6410  144.5690 O   0  0  0  0  0  0  0  0  0  0  0  0
  158.4050  213.0160  145.6140 C   0  0  0  0  0  0  0  0  0  0  0  0
  161.4510  207.6140  152.9030 C   0  0  0  0  0  2  0  0  0  0  0  0
  160.4400  206.8940  152.1510 N   0  0  0  0  0  2  0  0  0  0  0  0
  160.8580  205.5560  152.0670 N   0  0  0  0  0  2  0  0  0  0  0  0
  160.9520  205.1720  150.6540 C   0  0  1  0  0  3  0  0  0  0  0  0
  161.9430  208.9640  148.3750 S   0  0  0  0  0  1  0  0  0  0  0  0
  161.3160  206.3040  149.8040 N   0  0  0  0  0  2  0  0  0  0  0  0
  161.6260  207.4050  147.6080 N   0  0  0  0  0  2  0  0  0  0  0  0
  161.3220  206.2350  148.3740 C   0  0  0  0  0  0  0  0  0  0  0  0
  161.0570  205.1110  147.7800 N   0  0  0  0  0  0  0  0  0  0  0  0
  161.0230  204.9490  146.3320 C   0  0  0  0  0  3  0  0  0  0  0  0
  160.7490  206.2890  145.6820 C   0  0  0  0  0  1  0  0  0  0  0  0
  162.3610  204.4250  145.8390 C   0  0  0  0  0  1  0  0  0  0  0  0
  161.8880  203.9780  150.4320 C   0  0  0  0  0  2  0  0  0  0  0  0
  160.7930  201.0440  148.7690 C   0  0  0  0  0  3  0  0  0  0  0  0
  161.1890  202.8240  149.8820 N   0  0  0  0  0  0  0  0  0  0  0  0
  159.9790  202.4520  150.2540 N   0  0  0  0  0  0  0  0  0  0  0  0
  161.7130  202.0010  148.9900 N   0  0  0  0  0  0  0  0  0  0  0  0
  159.6970  201.3290  149.5670 C   0  0  0  0  0  3  0  0  0  0  0  0
  1  3  1  0  0  0  0
  2  8  2  0  0  0  0
  3  7  2  0  0  0  0
  4  1  2  0  0  0  0
  4  2  1  0  0  0  0
  7  5  1  0  0  0  0
  8  7  1  0  0  0  0
  8  6  1  0  0  0  0
  9 12  1  0  0  0  0
 10  9  2  0  0  0  0
 12 11  1  0  0  0  0
 12  1  1  0  0  0  0
 14 22  1  6  0  0  0
 14 15  1  0  0  0  0
 14 16  1  0  0  0  0
 15 13  1  6  0  0  0
 15 16  1  0  0  0  0
 16  9  1  6  0  0  0
 17 15  1  0  0  0  0
 18 20  1  0  0  0  0
 19 20  1  0  0  0  0
 20 22  1  0  0  0  0
 20 21  1  0  0  0  0
 22 19  1  6  0  0  0
 23 25  1  6  0  0  0
 23 19  1  0  0  0  0
 25 24  2  0  0  0  0
 26 23  1  0  0  0  0
 28 29  2  0  0  0  0
 29 26  1  0  0  0  0
 29 27  1  0  0  0  0
 30  2  1  0  0  0  0
 31 30  1  0  0  0  0
 32 31  1  0  0  0  0
 33 42  1  1  0  0  0
 33 32  1  0  0  0  0
 35 33  1  0  0  0  0
 36 37  1  0  0  0  0
 36 34  1  0  0  0  0
 37 35  1  0  0  0  0
 38 37  2  0  0  0  0
 39 38  1  0  0  0  0
 40 39  1  0  0  0  0
 41 39  1  0  0  0  0
 43 46  2  0  0  0  0
 43 47  1  0  0  0  0
 44 45  1  0  0  0  0
 44 42  1  0  0  0  0
 46 44  1  0  0  0  0
 47 45  2  0  0  0  0
M  END
>  <MODEL>
9

>  <REMARK>
 VINA RESULT:      -3.5      4.004      8.489
  Name = 
  15 active torsions:
  status: ('A' for Active; 'I' for Inactive)
    1  A    between atoms: C_1  and  N_33
    2  A    between atoms: C_2  and  C_40
    3  A    between atoms: N_6  and  C_34
    4  A    between atoms: N_7  and  N_22
    5  A    between atoms: N_7  and  C_34
    6  A    between atoms: C_10  and  C_32
    7  A    between atoms: C_11  and  C_30
    8  A    between atoms: N_13  and  C_28
    9  A    between atoms: C_17  and  N_47
   10  A    between atoms: N_19  and  C_42
   11  A    between atoms: N_22  and  C_40
   12  A    between atoms: C_28  and  C_31
   13  A    between atoms: C_28  and  C_39
   14  A    between atoms: C_31  and  C_44
   15  A    between atoms: C_34  and  C_42
                            x       y       z     vdW  Elec       q    Type
                         _______ _______ _______ _____ _____    ______ ____

>  <TORSDO>
F 15

$$$$
