=
 OpenBabel11072413003D

 48 52  0  0  1  0  0  0  0  0999 V2000
  161.1330  206.7070  150.7370 C   0  0  1  0  0  3  0  0  0  0  0  0
  160.8380  207.2710  154.5290 C   0  0  0  0  0  3  0  0  0  0  0  0
  161.0310  205.0890  152.6740 C   0  0  0  0  0  2  0  0  0  0  0  0
  162.9970  208.4620  150.8680 N   0  0  0  0  0  2  0  0  0  0  0  0
  160.7790  205.5460  149.7840 C   0  0  2  0  0  3  0  0  0  0  0  0
  160.7800  207.5860  153.1640 C   0  0  0  0  0  0  0  0  0  0  0  0
  160.5720  206.4550  152.1550 C   0  0  1  0  0  3  0  0  0  0  0  0
  160.9990  209.6170  155.1260 C   0  0  0  0  0  0  0  0  0  0  0  0
  162.1240  209.6450  150.8050 C   0  0  2  0  0  3  0  0  0  0  0  0
  160.9230  209.9410  153.7760 C   0  0  0  0  0  3  0  0  0  0  0  0
  160.6090  203.9800  151.7180 C   0  0  0  0  0  2  0  0  0  0  0  0
  160.8010  208.9530  152.7990 C   0  0  0  0  0  0  0  0  0  0  0  0
  163.4770  206.1880  150.7690 O   0  0  0  0  0  0  0  0  0  0  0  0
  160.7270  209.3990  151.3800 C   0  0  0  0  0  2  0  0  0  0  0  0
  162.5930  207.0850  150.7600 C   0  0  0  0  0  0  0  0  0  0  0  0
  161.2370  204.2000  150.3480 C   0  0  0  0  0  2  0  0  0  0  0  0
  160.9600  208.2570  155.5130 C   0  0  0  0  0  0  0  0  0  0  0  0
  161.2360  205.7560  148.3650 C   0  0  0  0  0  0  0  0  0  0  0  0
  162.0110  204.7510  147.7110 N   0  0  0  0  0  2  0  0  0  0  0  0
  160.8480  206.7630  147.7150 O   0  0  0  0  0  0  0  0  0  0  0  0
  162.5890  204.9890  146.4620 N   0  0  0  0  0  2  0  0  0  0  0  0
  161.7340  204.3590  145.4680 C   0  0  0  0  0  2  0  0  0  0  0  0
  160.4120  202.2980  145.2470 C   0  0  0  0  0  2  0  0  0  0  0  0
  161.3470  202.9820  145.9090 C   0  0  0  0  0  3  0  0  0  0  0  0
  162.0300  210.2040  149.4080 C   0  0  0  0  0  0  0  0  0  0  0  0
  162.0170  209.4200  148.4210 O   0  0  0  0  0  0  0  0  0  0  0  0
  161.8630  211.5770  149.1700 O   0  0  0  0  0  0  0  0  0  0  0  0
  162.7800  213.0360  147.3630 C   0  0  0  0  0  2  0  0  0  0  0  0
  162.2610  214.1120  146.4050 C   0  0  0  0  0  2  0  0  0  0  0  0
  161.6770  212.1740  147.9140 C   0  0  0  0  0  0  0  0  0  0  0  0
  161.2020  213.5750  145.4790 C   0  0  0  0  0  3  0  0  0  0  0  0
  160.3800  212.6060  145.8810 C   0  0  0  0  0  0  0  0  0  0  0  0
  159.3850  212.1890  145.0660 F   0  0  0  0  0  0  0  0  0  0  0  0
  160.5680  211.9650  147.1950 C   0  0  0  0  0  3  0  0  0  0  0  0
  160.6730  206.6430  157.2610 O   0  0  0  0  0  0  0  0  0  0  0  0
  161.0500  207.7900  156.9060 C   0  0  0  0  0  3  0  0  0  0  0  0
  161.0470  210.7460  156.1120 C   0  0  0  0  0  2  0  0  0  0  0  0
  159.6570  211.3280  156.3500 C   0  0  1  0  0  3  0  0  0  0  0  0
  159.8020  212.6360  156.9640 N   0  0  0  0  0  1  0  0  0  0  0  0
  158.5460  212.8950  154.7760 C   0  0  0  0  0  3  0  0  0  0  0  0
  157.5230  210.8740  155.2060 N   0  0  0  0  0  0  0  0  0  0  0  0
  157.2290  213.0020  154.8270 C   0  0  0  0  0  0  0  0  0  0  0  0
  156.6180  211.7550  155.0900 N   0  0  0  0  0  0  0  0  0  0  0  0
  158.8560  211.4520  155.0510 C   0  0  2  0  0  3  0  0  0  0  0  0
  156.4710  214.2640  154.5690 C   0  0  0  0  0  2  0  0  0  0  0  0
  155.6400  214.1270  153.3400 C   0  0  0  0  0  0  0  0  0  0  0  0
  154.3910  214.0810  153.4260 O   0  0  0  0  0  1  0  0  0  0  0  0
  156.2430  214.0590  152.0970 O   0  0  0  0  0  0  0  0  0  0  0  0
  1 15  1  1  0  0  0
  1  7  1  0  0  0  0
  2 17  1  0  0  0  0
  5 18  1  6  0  0  0
  5 16  1  0  0  0  0
  5  1  1  0  0  0  0
  6  2  2  0  0  0  0
  7  3  1  1  0  0  0
  7  6  1  0  0  0  0
  8 17  2  0  0  0  0
  8 37  1  0  0  0  0
  9 25  1  6  0  0  0
  9  4  1  0  0  0  0
  9 14  1  0  0  0  0
 10  8  1  0  0  0  0
 11  3  1  0  0  0  0
 12  6  1  0  0  0  0
 12 10  2  0  0  0  0
 14 12  1  0  0  0  0
 15 13  2  0  0  0  0
 15  4  1  0  0  0  0
 16 11  1  0  0  0  0
 17 36  1  0  0  0  0
 19 18  1  0  0  0  0
 20 18  2  0  0  0  0
 21 19  1  0  0  0  0
 22 24  1  0  0  0  0
 22 21  1  0  0  0  0
 23 24  2  0  0  0  0
 26 25  2  0  0  0  0
 27 25  1  0  0  0  0
 28 30  1  0  0  0  0
 29 28  1  0  0  0  0
 30 27  1  0  0  0  0
 31 32  2  0  0  0  0
 31 29  1  0  0  0  0
 32 34  1  0  0  0  0
 33 32  1  0  0  0  0
 34 30  2  0  0  0  0
 36 35  2  0  0  0  0
 37 38  1  0  0  0  0
 38 39  1  6  0  0  0
 40 42  2  0  0  0  0
 40 44  1  0  0  0  0
 42 43  1  0  0  0  0
 43 41  2  0  0  0  0
 44 41  1  0  0  0  0
 44 38  1  1  0  0  0
 45 42  1  0  0  0  0
 46 47  1  0  0  0  0
 46 45  1  0  0  0  0
 48 46  2  0  0  0  0
M  END
>  <MODEL>
1

>  <REMARK>
 VINA RESULT:      -7.9      0.000      0.000
  Name = 
  13 active torsions:
  status: ('A' for Active; 'I' for Inactive)
    1  A    between atoms: C_2  and  C_10
    2  A    between atoms: C_6  and  C_22
    3  A    between atoms: C_6  and  O_35
    4  A    between atoms: C_8  and  C_26
    5  A    between atoms: C_8  and  N_37
    6  A    between atoms: C_14  and  C_18
    7  A    between atoms: C_14  and  C_47
    8  A    between atoms: C_16  and  O_35
    9  A    between atoms: C_17  and  C_40
   10  A    between atoms: C_18  and  C_21
   11  A    between atoms: N_24  and  N_37
   12  A    between atoms: C_33  and  C_48
   13  A    between atoms: C_38  and  C_40
                            x       y       z     vdW  Elec       q    Type
                         _______ _______ _______ _____ _____    ______ ____

>  <TORSDO>
F 13

$$$$
=
 OpenBabel11072413003D

 48 52  0  0  1  0  0  0  0  0999 V2000
  160.1000  210.7800  154.8780 C   0  0  1  0  0  3  0  0  0  0  0  0
  161.2810  207.4410  153.3820 C   0  0  0  0  0  3  0  0  0  0  0  0
  160.2210  208.4520  155.8500 C   0  0  0  0  0  2  0  0  0  0  0  0
  158.7530  210.9960  152.7090 N   0  0  0  0  0  2  0  0  0  0  0  0
  159.9780  211.3420  156.3100 C   0  0  2  0  0  3  0  0  0  0  0  0
  161.1300  208.8300  153.4910 C   0  0  0  0  0  0  0  0  0  0  0  0
  160.8650  209.4380  154.8700 C   0  0  1  0  0  3  0  0  0  0  0  0
  161.7850  207.6200  151.0150 C   0  0  0  0  0  0  0  0  0  0  0  0
  159.8410  211.5450  151.8840 C   0  0  2  0  0  3  0  0  0  0  0  0
  161.6570  209.0010  151.1170 C   0  0  0  0  0  3  0  0  0  0  0  0
  160.1750  209.0420  157.2550 C   0  0  0  0  0  2  0  0  0  0  0  0
  161.3480  209.6130  152.3320 C   0  0  0  0  0  0  0  0  0  0  0  0
  157.7560  210.2940  154.6890 O   0  0  0  0  0  0  0  0  0  0  0  0
  161.2320  211.0980  152.3400 C   0  0  0  0  0  2  0  0  0  0  0  0
  158.8010  210.7010  154.1160 C   0  0  0  0  0  0  0  0  0  0  0  0
  159.3500  210.3210  157.2610 C   0  0  0  0  0  2  0  0  0  0  0  0
  161.5900  206.8220  152.1670 C   0  0  0  0  0  0  0  0  0  0  0  0
  159.3030  212.6850  156.3870 C   0  0  0  0  0  0  0  0  0  0  0  0
  158.0460  212.8130  157.0540 N   0  0  0  0  0  2  0  0  0  0  0  0
  159.8890  213.7160  155.9620 O   0  0  0  0  0  0  0  0  0  0  0  0
  157.3190  214.0040  156.9940 N   0  0  0  0  0  2  0  0  0  0  0  0
  155.9320  213.6460  156.7410 C   0  0  0  0  0  2  0  0  0  0  0  0
  156.2090  214.2820  154.3820 C   0  0  0  0  0  2  0  0  0  0  0  0
  155.7060  213.4290  155.2770 C   0  0  0  0  0  3  0  0  0  0  0  0
  159.7750  213.0480  151.7890 C   0  0  0  0  0  0  0  0  0  0  0  0
  159.1990  213.7070  152.6960 O   0  0  0  0  0  0  0  0  0  0  0  0
  160.4170  213.7540  150.7590 O   0  0  0  0  0  0  0  0  0  0  0  0
  159.0450  213.7410  148.6720 C   0  0  0  0  0  2  0  0  0  0  0  0
  158.8310  212.8240  147.4650 C   0  0  0  0  0  2  0  0  0  0  0  0
  160.3370  213.4570  149.3900 C   0  0  0  0  0  0  0  0  0  0  0  0
  160.0970  212.6360  146.6720 C   0  0  0  0  0  3  0  0  0  0  0  0
  161.2840  212.6520  147.2790 C   0  0  0  0  0  0  0  0  0  0  0  0
  162.4060  212.4040  146.5660 F   0  0  0  0  0  0  0  0  0  0  0  0
  161.3840  212.9680  148.7150 C   0  0  0  0  0  3  0  0  0  0  0  0
  160.6920  204.6120  151.9440 O   0  0  0  0  0  0  0  0  0  0  0  0
  161.6810  205.3530  152.1810 C   0  0  0  0  0  3  0  0  0  0  0  0
  162.1980  207.0550  149.6890 C   0  0  0  0  0  2  0  0  0  0  0  0
  161.3680  207.6490  148.5560 C   0  0  1  0  0  3  0  0  0  0  0  0
  162.1000  208.7630  147.9790 N   0  0  0  0  0  1  0  0  0  0  0  0
  160.6410  205.3180  148.1000 C   0  0  0  0  0  3  0  0  0  0  0  0
  162.2710  206.2340  146.7520 N   0  0  0  0  0  0  0  0  0  0  0  0
  161.5600  204.4330  147.7570 C   0  0  0  0  0  0  0  0  0  0  0  0
  162.5500  205.0100  146.9290 N   0  0  0  0  0  0  0  0  0  0  0  0
  161.0570  206.6160  147.4690 C   0  0  2  0  0  3  0  0  0  0  0  0
  161.5260  202.9860  148.1300 C   0  0  0  0  0  2  0  0  0  0  0  0
  161.1210  202.1580  146.9600 C   0  0  0  0  0  0  0  0  0  0  0  0
  160.8780  202.7020  145.8580 O   0  0  0  0  0  0  0  0  0  0  0  0
  161.0180  200.7840  147.0830 O   0  0  0  0  0  1  0  0  0  0  0  0
  1 15  1  1  0  0  0
  1  5  1  0  0  0  0
  2  6  1  0  0  0  0
  3 11  1  0  0  0  0
  4 15  1  0  0  0  0
  5 18  1  6  0  0  0
  5 16  1  0  0  0  0
  6  7  1  0  0  0  0
  7  1  1  0  0  0  0
  7  3  1  1  0  0  0
  8 10  2  0  0  0  0
  8 17  1  0  0  0  0
  9 25  1  1  0  0  0
  9 14  1  0  0  0  0
  9  4  1  0  0  0  0
 10 12  1  0  0  0  0
 11 16  1  0  0  0  0
 12 14  1  0  0  0  0
 12  6  2  0  0  0  0
 15 13  2  0  0  0  0
 17 36  1  0  0  0  0
 17  2  2  0  0  0  0
 18 19  1  0  0  0  0
 20 18  2  0  0  0  0
 21 19  1  0  0  0  0
 22 21  1  0  0  0  0
 23 24  2  0  0  0  0
 24 22  1  0  0  0  0
 25 26  2  0  0  0  0
 27 25  1  0  0  0  0
 28 30  1  0  0  0  0
 29 28  1  0  0  0  0
 30 27  1  0  0  0  0
 31 32  2  0  0  0  0
 31 29  1  0  0  0  0
 32 34  1  0  0  0  0
 33 32  1  0  0  0  0
 34 30  2  0  0  0  0
 35 36  2  0  0  0  0
 37  8  1  0  0  0  0
 38 39  1  6  0  0  0
 38 37  1  0  0  0  0
 41 43  2  0  0  0  0
 41 44  1  0  0  0  0
 42 40  2  0  0  0  0
 42 45  1  0  0  0  0
 43 42  1  0  0  0  0
 44 40  1  0  0  0  0
 44 38  1  1  0  0  0
 46 48  1  0  0  0  0
 46 45  1  0  0  0  0
 47 46  2  0  0  0  0
M  END
>  <MODEL>
2

>  <REMARK>
 VINA RESULT:      -7.6      2.321      8.798
  Name = 
  13 active torsions:
  status: ('A' for Active; 'I' for Inactive)
    1  A    between atoms: C_2  and  C_10
    2  A    between atoms: C_6  and  C_22
    3  A    between atoms: C_6  and  O_35
    4  A    between atoms: C_8  and  C_26
    5  A    between atoms: C_8  and  N_37
    6  A    between atoms: C_14  and  C_18
    7  A    between atoms: C_14  and  C_47
    8  A    between atoms: C_16  and  O_35
    9  A    between atoms: C_17  and  C_40
   10  A    between atoms: C_18  and  C_21
   11  A    between atoms: N_24  and  N_37
   12  A    between atoms: C_33  and  C_48
   13  A    between atoms: C_38  and  C_40
                            x       y       z     vdW  Elec       q    Type
                         _______ _______ _______ _____ _____    ______ ____

>  <TORSDO>
F 13

$$$$
=
 OpenBabel11072413003D

 48 52  0  0  1  0  0  0  0  0999 V2000
  161.2090  206.1090  150.8170 C   0  0  1  0  0  3  0  0  0  0  0  0
  160.8130  207.1630  154.4940 C   0  0  0  0  0  3  0  0  0  0  0  0
  161.0530  204.7580  152.9460 C   0  0  0  0  0  2  0  0  0  0  0  0
  163.0700  207.8700  150.7670 N   0  0  0  0  0  2  0  0  0  0  0  0
  160.8800  204.8320  150.0150 C   0  0  2  0  0  3  0  0  0  0  0  0
  160.7920  207.2970  153.0980 C   0  0  0  0  0  0  0  0  0  0  0  0
  160.6100  206.0430  152.2400 C   0  0  1  0  0  3  0  0  0  0  0  0
  160.9600  209.5680  154.7830 C   0  0  0  0  0  0  0  0  0  0  0  0
  162.2010  209.0320  150.5260 C   0  0  2  0  0  3  0  0  0  0  0  0
  160.9210  209.7120  153.4000 C   0  0  0  0  0  3  0  0  0  0  0  0
  160.6560  203.5320  152.1320 C   0  0  0  0  0  2  0  0  0  0  0  0
  160.8250  208.6040  152.5570 C   0  0  0  0  0  0  0  0  0  0  0  0
  163.5510  205.6040  150.9800 O   0  0  0  0  0  0  0  0  0  0  0  0
  160.7890  208.8610  151.0910 C   0  0  0  0  0  2  0  0  0  0  0  0
  162.6690  206.4900  150.8300 C   0  0  0  0  0  0  0  0  0  0  0  0
  161.3200  203.5720  150.7630 C   0  0  0  0  0  2  0  0  0  0  0  0
  160.9090  208.2700  155.3430 C   0  0  0  0  0  0  0  0  0  0  0  0
  161.3740  204.8550  148.5940 C   0  0  0  0  0  0  0  0  0  0  0  0
  161.4770  203.6370  147.8560 N   0  0  0  0  0  2  0  0  0  0  0  0
  161.5950  205.9530  148.0160 O   0  0  0  0  0  0  0  0  0  0  0  0
  162.0900  203.6070  146.6010 N   0  0  0  0  0  2  0  0  0  0  0  0
  161.0640  203.2500  145.6330 C   0  0  0  0  0  2  0  0  0  0  0  0
  161.2680  205.3650  144.3980 C   0  0  0  0  0  2  0  0  0  0  0  0
  160.4810  204.4790  145.0110 C   0  0  0  0  0  3  0  0  0  0  0  0
  162.1450  209.4030  149.0660 C   0  0  0  0  0  0  0  0  0  0  0  0
  161.4850  208.6880  148.2660 O   0  0  0  0  0  0  0  0  0  0  0  0
  162.7360  210.5800  148.5780 O   0  0  0  0  0  0  0  0  0  0  0  0
  162.7730  212.9070  147.6730 C   0  0  0  0  0  2  0  0  0  0  0  0
  162.4410  214.3180  148.1670 C   0  0  0  0  0  2  0  0  0  0  0  0
  162.1170  211.8360  148.5030 C   0  0  0  0  0  0  0  0  0  0  0  0
  160.9890  214.4530  148.5450 C   0  0  0  0  0  3  0  0  0  0  0  0
  160.3200  213.4120  149.0400 C   0  0  0  0  0  0  0  0  0  0  0  0
  159.0400  213.5700  149.4480 F   0  0  0  0  0  0  0  0  0  0  0  0
  160.9550  212.0850  149.1190 C   0  0  0  0  0  3  0  0  0  0  0  0
  160.7550  206.8420  157.2610 O   0  0  0  0  0  0  0  0  0  0  0  0
  160.9610  207.9890  156.7860 C   0  0  0  0  0  3  0  0  0  0  0  0
  160.9830  210.8160  155.6130 C   0  0  0  0  0  2  0  0  0  0  0  0
  160.1850  211.9330  154.9480 C   0  0  1  0  0  3  0  0  0  0  0  0
  159.0580  211.3450  154.2460 N   0  0  0  0  0  1  0  0  0  0  0  0
  158.4990  212.4110  156.7090 C   0  0  0  0  0  3  0  0  0  0  0  0
  159.1070  214.1230  155.2880 N   0  0  0  0  0  0  0  0  0  0  0  0
  157.4770  213.1900  156.3990 C   0  0  0  0  0  0  0  0  0  0  0  0
  157.8670  214.2350  155.5300 N   0  0  0  0  0  0  0  0  0  0  0  0
  159.6820  212.9620  155.9650 C   0  0  2  0  0  3  0  0  0  0  0  0
  156.0970  213.0380  156.9520 C   0  0  0  0  0  2  0  0  0  0  0  0
  155.4500  211.8140  156.4020 C   0  0  0  0  0  0  0  0  0  0  0  0
  155.3880  211.6380  155.1640 O   0  0  0  0  0  0  0  0  0  0  0  0
  154.9230  210.8620  157.2570 O   0  0  0  0  0  1  0  0  0  0  0  0
  1 15  1  1  0  0  0
  1  7  1  0  0  0  0
  2 17  1  0  0  0  0
  4 15  1  0  0  0  0
  5 18  1  6  0  0  0
  5 16  1  0  0  0  0
  5  1  1  0  0  0  0
  6  2  2  0  0  0  0
  7  3  1  1  0  0  0
  7  6  1  0  0  0  0
  8 17  2  0  0  0  0
  8 37  1  0  0  0  0
  9 25  1  6  0  0  0
  9  4  1  0  0  0  0
  9 14  1  0  0  0  0
 10  8  1  0  0  0  0
 11  3  1  0  0  0  0
 12  6  1  0  0  0  0
 12 10  2  0  0  0  0
 14 12  1  0  0  0  0
 15 13  2  0  0  0  0
 16 11  1  0  0  0  0
 17 36  1  0  0  0  0
 19 18  1  0  0  0  0
 20 18  2  0  0  0  0
 21 19  1  0  0  0  0
 22 21  1  0  0  0  0
 23 24  2  0  0  0  0
 24 22  1  0  0  0  0
 26 25  2  0  0  0  0
 27 25  1  0  0  0  0
 28 29  1  0  0  0  0
 28 30  1  0  0  0  0
 29 31  1  0  0  0  0
 30 27  1  0  0  0  0
 30 34  2  0  0  0  0
 31 32  2  0  0  0  0
 32 34  1  0  0  0  0
 32 33  1  0  0  0  0
 36 35  2  0  0  0  0
 38 39  1  1  0  0  0
 38 37  1  0  0  0  0
 41 43  2  0  0  0  0
 41 44  1  0  0  0  0
 42 40  2  0  0  0  0
 42 45  1  0  0  0  0
 43 42  1  0  0  0  0
 44 38  1  6  0  0  0
 44 40  1  0  0  0  0
 46 45  1  0  0  0  0
 46 48  1  0  0  0  0
 47 46  2  0  0  0  0
M  END
>  <MODEL>
3

>  <REMARK>
 VINA RESULT:      -6.7      1.676      2.017
  Name = 
  13 active torsions:
  status: ('A' for Active; 'I' for Inactive)
    1  A    between atoms: C_2  and  C_10
    2  A    between atoms: C_6  and  C_22
    3  A    between atoms: C_6  and  O_35
    4  A    between atoms: C_8  and  C_26
    5  A    between atoms: C_8  and  N_37
    6  A    between atoms: C_14  and  C_18
    7  A    between atoms: C_14  and  C_47
    8  A    between atoms: C_16  and  O_35
    9  A    between atoms: C_17  and  C_40
   10  A    between atoms: C_18  and  C_21
   11  A    between atoms: N_24  and  N_37
   12  A    between atoms: C_33  and  C_48
   13  A    between atoms: C_38  and  C_40
                            x       y       z     vdW  Elec       q    Type
                         _______ _______ _______ _____ _____    ______ ____

>  <TORSDO>
F 13

$$$$
=
 OpenBabel11072413003D

 48 52  0  0  1  0  0  0  0  0999 V2000
  160.9740  205.4210  151.2760 C   0  0  1  0  0  3  0  0  0  0  0  0
  160.9410  207.2910  154.6360 C   0  0  0  0  0  3  0  0  0  0  0  0
  160.8450  204.5940  153.6590 C   0  0  0  0  0  2  0  0  0  0  0  0
  162.9840  206.9190  150.7410 N   0  0  0  0  0  2  0  0  0  0  0  0
  160.4700  204.0430  150.7980 C   0  0  2  0  0  3  0  0  0  0  0  0
  160.8340  207.1170  153.2480 C   0  0  0  0  0  0  0  0  0  0  0  0
  160.4740  205.7330  152.7040 C   0  0  1  0  0  3  0  0  0  0  0  0
  161.3330  209.6710  154.3690 C   0  0  0  0  0  0  0  0  0  0  0  0
  162.2120  208.0870  150.2870 C   0  0  2  0  0  3  0  0  0  0  0  0
  161.2090  209.5120  152.9930 C   0  0  0  0  0  3  0  0  0  0  0  0
  160.2780  203.2690  153.1620 C   0  0  0  0  0  2  0  0  0  0  0  0
  160.9500  208.2630  152.4260 C   0  0  0  0  0  0  0  0  0  0  0  0
  163.2640  204.7160  151.4340 O   0  0  0  0  0  0  0  0  0  0  0  0
  160.8340  208.1950  150.9430 C   0  0  0  0  0  2  0  0  0  0  0  0
  162.4600  205.6370  151.1320 C   0  0  0  0  0  0  0  0  0  0  0  0
  160.8430  202.9370  151.7880 C   0  0  0  0  0  2  0  0  0  0  0  0
  161.2010  208.5400  155.2080 C   0  0  0  0  0  0  0  0  0  0  0  0
  160.8630  203.7010  149.3860 C   0  0  0  0  0  0  0  0  0  0  0  0
  161.1640  202.3490  149.0380 N   0  0  0  0  0  2  0  0  0  0  0  0
  160.8220  204.5810  148.4850 O   0  0  0  0  0  0  0  0  0  0  0  0
  161.6920  202.0310  147.7850 N   0  0  0  0  0  2  0  0  0  0  0  0
  161.1860  200.7150  147.4300 C   0  0  0  0  0  2  0  0  0  0  0  0
  160.1070  201.6640  145.4360 C   0  0  0  0  0  2  0  0  0  0  0  0
  160.8120  200.6710  145.9820 C   0  0  0  0  0  3  0  0  0  0  0  0
  162.0870  208.1330  148.7850 C   0  0  0  0  0  0  0  0  0  0  0  0
  161.3590  209.0080  148.2460 O   0  0  0  0  0  0  0  0  0  0  0  0
  162.8320  207.2810  147.9540 O   0  0  0  0  0  0  0  0  0  0  0  0
  163.0440  205.1310  146.7020 C   0  0  0  0  0  2  0  0  0  0  0  0
  162.8040  204.6230  145.2770 C   0  0  0  0  0  2  0  0  0  0  0  0
  162.3030  206.4090  146.9910 C   0  0  0  0  0  0  0  0  0  0  0  0
  161.3600  204.7550  144.8710 C   0  0  0  0  0  3  0  0  0  0  0  0
  160.6120  205.7520  145.3450 C   0  0  0  0  0  0  0  0  0  0  0  0
  159.3400  205.9030  144.9090 F   0  0  0  0  0  0  0  0  0  0  0  0
  161.1520  206.6720  146.3610 C   0  0  0  0  0  3  0  0  0  0  0  0
  162.4410  208.4970  157.2580 O   0  0  0  0  0  0  0  0  0  0  0  0
  161.3290  208.5780  156.6740 C   0  0  0  0  0  3  0  0  0  0  0  0
  161.5310  211.0600  154.8940 C   0  0  0  0  0  2  0  0  0  0  0  0
  160.2330  211.8590  154.8430 C   0  0  1  0  0  3  0  0  0  0  0  0
  160.0530  212.3670  153.4940 N   0  0  0  0  0  1  0  0  0  0  0  0
  157.8560  211.3320  154.3510 C   0  0  0  0  0  3  0  0  0  0  0  0
  158.5210  211.4080  156.5570 N   0  0  0  0  0  0  0  0  0  0  0  0
  156.9260  211.8490  155.1350 C   0  0  0  0  0  0  0  0  0  0  0  0
  157.3490  211.8870  156.4830 N   0  0  0  0  0  0  0  0  0  0  0  0
  159.0210  211.0120  155.2430 C   0  0  2  0  0  3  0  0  0  0  0  0
  155.5690  212.2740  154.6740 C   0  0  0  0  0  2  0  0  0  0  0  0
  155.5910  213.7000  154.2450 C   0  0  0  0  0  0  0  0  0  0  0  0
  156.6320  214.3830  154.3800 O   0  0  0  0  0  1  0  0  0  0  0  0
  154.4630  214.2760  153.6870 O   0  0  0  0  0  0  0  0  0  0  0  0
  1 15  1  1  0  0  0
  1  7  1  0  0  0  0
  2 17  1  0  0  0  0
  4 15  1  0  0  0  0
  5 18  1  6  0  0  0
  5  1  1  0  0  0  0
  5 16  1  0  0  0  0
  6  2  2  0  0  0  0
  7  6  1  0  0  0  0
  7  3  1  1  0  0  0
  8 37  1  0  0  0  0
  8 17  2  0  0  0  0
  9 25  1  6  0  0  0
  9  4  1  0  0  0  0
  9 14  1  0  0  0  0
 10  8  1  0  0  0  0
 11  3  1  0  0  0  0
 12 10  2  0  0  0  0
 12  6  1  0  0  0  0
 14 12  1  0  0  0  0
 15 13  2  0  0  0  0
 16 11  1  0  0  0  0
 17 36  1  0  0  0  0
 19 18  1  0  0  0  0
 20 18  2  0  0  0  0
 21 19  1  0  0  0  0
 22 21  1  0  0  0  0
 23 24  2  0  0  0  0
 24 22  1  0  0  0  0
 26 25  2  0  0  0  0
 27 25  1  0  0  0  0
 28 30  1  0  0  0  0
 29 28  1  0  0  0  0
 30 27  1  0  0  0  0
 31 29  1  0  0  0  0
 31 32  2  0  0  0  0
 32 34  1  0  0  0  0
 33 32  1  0  0  0  0
 34 30  2  0  0  0  0
 36 35  2  0  0  0  0
 38 39  1  6  0  0  0
 38 37  1  0  0  0  0
 40 42  2  0  0  0  0
 40 44  1  0  0  0  0
 42 43  1  0  0  0  0
 43 41  2  0  0  0  0
 44 38  1  6  0  0  0
 44 41  1  0  0  0  0
 45 42  1  0  0  0  0
 46 47  1  0  0  0  0
 46 45  1  0  0  0  0
 48 46  2  0  0  0  0
M  END
>  <MODEL>
4

>  <REMARK>
 VINA RESULT:      -6.0      2.557      3.366
  Name = 
  13 active torsions:
  status: ('A' for Active; 'I' for Inactive)
    1  A    between atoms: C_2  and  C_10
    2  A    between atoms: C_6  and  C_22
    3  A    between atoms: C_6  and  O_35
    4  A    between atoms: C_8  and  C_26
    5  A    between atoms: C_8  and  N_37
    6  A    between atoms: C_14  and  C_18
    7  A    between atoms: C_14  and  C_47
    8  A    between atoms: C_16  and  O_35
    9  A    between atoms: C_17  and  C_40
   10  A    between atoms: C_18  and  C_21
   11  A    between atoms: N_24  and  N_37
   12  A    between atoms: C_33  and  C_48
   13  A    between atoms: C_38  and  C_40
                            x       y       z     vdW  Elec       q    Type
                         _______ _______ _______ _____ _____    ______ ____

>  <TORSDO>
F 13

$$$$
=
 OpenBabel11072413003D

 48 52  0  0  1  0  0  0  0  0999 V2000
  161.0550  209.0020  154.5490 C   0  0  1  0  0  3  0  0  0  0  0  0
  161.1610  205.6820  152.6130 C   0  0  0  0  0  3  0  0  0  0  0  0
  160.8840  206.6020  155.3170 C   0  0  0  0  0  2  0  0  0  0  0  0
  159.3570  209.7080  152.7630 N   0  0  0  0  0  2  0  0  0  0  0  0
  161.3600  209.4180  156.0040 C   0  0  2  0  0  3  0  0  0  0  0  0
  161.3330  207.0540  152.8410 C   0  0  0  0  0  0  0  0  0  0  0  0
  161.5000  207.5470  154.2800 C   0  0  1  0  0  3  0  0  0  0  0  0
  161.1800  206.0180  150.2100 C   0  0  0  0  0  0  0  0  0  0  0  0
  160.3380  210.1250  151.7480 C   0  0  2  0  0  3  0  0  0  0  0  0
  161.3710  207.3780  150.4260 C   0  0  0  0  0  3  0  0  0  0  0  0
  161.2610  207.0330  156.7300 C   0  0  0  0  0  2  0  0  0  0  0  0
  161.4620  207.9020  151.7160 C   0  0  0  0  0  0  0  0  0  0  0  0
  158.6750  208.9990  154.8710 O   0  0  0  0  0  0  0  0  0  0  0  0
  161.6670  209.3720  151.8440 C   0  0  0  0  0  2  0  0  0  0  0  0
  159.6370  209.2580  154.1010 C   0  0  0  0  0  0  0  0  0  0  0  0
  160.7450  208.4390  157.0060 C   0  0  0  0  0  2  0  0  0  0  0  0
  161.0680  205.1510  151.3220 C   0  0  0  0  0  0  0  0  0  0  0  0
  161.0150  210.8490  156.3180 C   0  0  0  0  0  0  0  0  0  0  0  0
  159.8530  211.1480  157.0930 N   0  0  0  0  0  2  0  0  0  0  0  0
  161.8020  211.7780  155.9940 O   0  0  0  0  0  0  0  0  0  0  0  0
  159.4180  212.4640  157.2560 N   0  0  0  0  0  2  0  0  0  0  0  0
  158.5270  212.7600  156.1450 C   0  0  0  0  0  2  0  0  0  0  0  0
  156.1640  212.1160  155.9310 C   0  0  0  0  0  2  0  0  0  0  0  0
  157.1040  212.7800  156.6070 C   0  0  0  0  0  3  0  0  0  0  0  0
  160.5720  211.6140  151.7660 C   0  0  0  0  0  0  0  0  0  0  0  0
  161.1510  212.1430  152.7520 O   0  0  0  0  0  0  0  0  0  0  0  0
  160.2430  212.4280  150.6710 O   0  0  0  0  0  0  0  0  0  0  0  0
  162.0740  211.5180  149.2380 C   0  0  0  0  0  2  0  0  0  0  0  0
  163.1000  212.0560  148.2370 C   0  0  0  0  0  2  0  0  0  0  0  0
  160.9190  212.4610  149.4430 C   0  0  0  0  0  0  0  0  0  0  0  0
  162.4390  212.6950  147.0440 C   0  0  0  0  0  3  0  0  0  0  0  0
  161.2650  213.3120  147.1720 C   0  0  0  0  0  0  0  0  0  0  0  0
  160.7220  213.9480  146.1090 F   0  0  0  0  0  0  0  0  0  0  0  0
  160.5400  213.2800  148.4540 C   0  0  0  0  0  3  0  0  0  0  0  0
  161.6210  202.8590  151.7490 O   0  0  0  0  0  0  0  0  0  0  0  0
  160.8470  203.7000  151.2220 C   0  0  0  0  0  3  0  0  0  0  0  0
  161.1740  205.5320  148.7920 C   0  0  0  0  0  2  0  0  0  0  0  0
  161.4380  206.6750  147.8170 C   0  0  1  0  0  3  0  0  0  0  0  0
  162.7950  207.1510  148.0160 N   0  0  0  0  0  1  0  0  0  0  0  0
  160.4520  204.9710  146.3020 C   0  0  0  0  0  3  0  0  0  0  0  0
  162.5220  205.8360  145.7700 N   0  0  0  0  0  0  0  0  0  0  0  0
  161.2560  204.0600  145.7810 C   0  0  0  0  0  0  0  0  0  0  0  0
  162.5190  204.6070  145.4590 N   0  0  0  0  0  0  0  0  0  0  0  0
  161.2490  206.2430  146.3600 C   0  0  2  0  0  3  0  0  0  0  0  0
  160.8620  202.6460  145.4970 C   0  0  0  0  0  2  0  0  0  0  0  0
  161.0080  201.8110  146.7210 C   0  0  0  0  0  0  0  0  0  0  0  0
  160.9930  202.3460  147.8540 O   0  0  0  0  0  1  0  0  0  0  0  0
  161.1530  200.4390  146.6140 O   0  0  0  0  0  0  0  0  0  0  0  0
  1 15  1  1  0  0  0
  1  5  1  0  0  0  0
  2  6  1  0  0  0  0
  3 11  1  0  0  0  0
  4 15  1  0  0  0  0
  5 18  1  1  0  0  0
  5 16  1  0  0  0  0
  6  7  1  0  0  0  0
  7  1  1  0  0  0  0
  7  3  1  1  0  0  0
  8 10  2  0  0  0  0
  8 17  1  0  0  0  0
  9 25  1  1  0  0  0
  9 14  1  0  0  0  0
  9  4  1  0  0  0  0
 10 12  1  0  0  0  0
 11 16  1  0  0  0  0
 12 14  1  0  0  0  0
 12  6  2  0  0  0  0
 15 13  2  0  0  0  0
 17  2  2  0  0  0  0
 18 19  1  0  0  0  0
 19 21  1  0  0  0  0
 20 18  2  0  0  0  0
 22 24  1  0  0  0  0
 22 21  1  0  0  0  0
 23 24  2  0  0  0  0
 25 26  2  0  0  0  0
 27 25  1  0  0  0  0
 28 30  1  0  0  0  0
 29 28  1  0  0  0  0
 30 27  1  0  0  0  0
 31 32  2  0  0  0  0
 31 29  1  0  0  0  0
 32 34  1  0  0  0  0
 33 32  1  0  0  0  0
 34 30  2  0  0  0  0
 36 17  1  0  0  0  0
 36 35  2  0  0  0  0
 37  8  1  0  0  0  0
 38 39  1  6  0  0  0
 38 37  1  0  0  0  0
 40 44  1  0  0  0  0
 41 44  1  0  0  0  0
 42 40  2  0  0  0  0
 43 41  2  0  0  0  0
 43 42  1  0  0  0  0
 44 38  1  1  0  0  0
 45 42  1  0  0  0  0
 45 46  1  0  0  0  0
 46 47  1  0  0  0  0
 48 46  2  0  0  0  0
M  END
>  <MODEL>
5

>  <REMARK>
 VINA RESULT:      -5.4      2.245      8.722
  Name = 
  13 active torsions:
  status: ('A' for Active; 'I' for Inactive)
    1  A    between atoms: C_2  and  C_10
    2  A    between atoms: C_6  and  C_22
    3  A    between atoms: C_6  and  O_35
    4  A    between atoms: C_8  and  C_26
    5  A    between atoms: C_8  and  N_37
    6  A    between atoms: C_14  and  C_18
    7  A    between atoms: C_14  and  C_47
    8  A    between atoms: C_16  and  O_35
    9  A    between atoms: C_17  and  C_40
   10  A    between atoms: C_18  and  C_21
   11  A    between atoms: N_24  and  N_37
   12  A    between atoms: C_33  and  C_48
   13  A    between atoms: C_38  and  C_40
                            x       y       z     vdW  Elec       q    Type
                         _______ _______ _______ _____ _____    ______ ____

>  <TORSDO>
F 13

$$$$
