=
 OpenBabel11072410513D

 40 43  0  0  1  0  0  0  0  0999 V2000
  160.0630  211.1430  156.5260 C   0  0  2  0  0  3  0  0  0  0  0  0
  161.9120  208.8990  148.3690 C   0  0  0  0  0  2  0  0  0  0  0  0
  161.4060  209.0440  156.2000 C   0  0  0  0  0  2  0  0  0  0  0  0
  161.7850  208.2990  149.5450 C   0  0  0  0  0  0  0  0  0  0  0  0
  161.0980  204.8090  151.0430 C   0  0  0  0  0  0  0  0  0  0  0  0
  161.5950  206.2270  150.9190 C   0  0  2  0  0  3  0  0  0  0  0  0
  159.9260  208.8670  154.2170 N   0  0  0  0  0  0  0  0  0  0  0  0
  161.8480  208.3630  152.0560 N   0  0  0  0  0  2  0  0  0  0  0  0
  162.5460  210.1890  150.7910 O   0  0  0  0  0  0  0  0  0  0  0  0
  160.9920  204.2770  152.2630 C   0  0  0  0  0  3  0  0  0  0  0  0
  160.9070  208.3890  154.9380 C   0  0  0  0  0  0  0  0  0  0  0  0
  159.2640  210.1680  154.3400 C   0  0  0  0  0  2  0  0  0  0  0  0
  161.4260  210.5630  156.1350 C   0  0  0  0  0  2  0  0  0  0  0  0
  158.8990  210.4810  155.7850 C   0  0  0  0  0  2  0  0  0  0  0  0
  161.4150  207.0820  154.6500 N   0  0  0  0  0  2  0  0  0  0  0  0
  162.0740  209.0220  150.8060 C   0  0  0  0  0  0  0  0  0  0  0  0
  161.2780  206.3760  153.4100 C   0  0  0  0  0  0  0  0  0  0  0  0
  161.1850  205.0780  153.4420 N   0  0  0  0  0  0  0  0  0  0  0  0
  161.1170  207.0990  152.0880 C   0  0  2  0  0  3  0  0  0  0  0  0
  161.2220  206.9060  149.5990 C   0  0  0  0  0  2  0  0  0  0  0  0
  160.9500  203.9230  149.8470 C   0  0  0  0  0  2  0  0  0  0  0  0
  161.5570  204.5620  148.6020 C   0  0  0  0  0  2  0  0  0  0  0  0
  161.5010  203.6250  147.4020 C   0  0  0  0  0  2  0  0  0  0  0  0
  161.1510  203.8260  144.9410 O   0  0  0  0  0  0  0  0  0  0  0  0
  162.0810  205.5530  146.1250 O   0  0  0  0  0  1  0  0  0  0  0  0
  161.6050  204.3880  146.1260 C   0  0  0  0  0  0  0  0  0  0  0  0
  160.0410  212.6430  156.2850 C   0  0  0  0  0  2  0  0  0  0  0  0
  159.4790  212.9490  154.9060 C   0  0  0  0  0  2  0  0  0  0  0  0
  158.5320  214.0560  154.9910 N   0  0  0  0  0  0  0  0  0  0  0  0
  156.7050  214.2590  153.3230 C   0  0  0  0  0  0  0  0  0  0  0  0
  155.8530  214.2780  154.2510 O   0  0  0  0  0  0  0  0  0  0  0  0
  157.1540  214.0490  150.9270 C   0  0  0  0  0  0  0  0  0  0  0  0
  156.2640  214.1160  152.0030 O   0  0  0  0  0  0  0  0  0  0  0  0
  158.1810  214.4520  153.6120 C   0  0  2  0  0  3  0  0  0  0  0  0
  158.6370  214.1190  151.1600 C   0  0  2  0  0  3  0  0  0  0  0  0
  156.7010  213.9880  149.7540 O   0  0  0  0  0  0  0  0  0  0  0  0
  159.3080  213.3160  150.2370 O   0  0  0  0  0  1  0  0  0  0  0  0
  158.9670  213.6450  152.5700 C   0  0  0  0  0  2  0  0  0  0  0  0
  157.0870  214.2490  156.9390 C   0  0  0  0  0  1  0  0  0  0  0  0
  157.3580  213.4950  155.6530 C   0  0  0  0  0  2  0  0  0  0  0  0
  1 27  1  6  0  0  0
  2  4  2  0  0  0  0
  4 20  1  0  0  0  0
  4 16  1  0  0  0  0
  5 10  2  0  0  0  0
  6 20  1  6  0  0  0
  6  5  1  0  0  0  0
  6 19  1  0  0  0  0
  7 12  1  0  0  0  0
  7 11  2  0  0  0  0
  9 16  2  0  0  0  0
 10 18  1  0  0  0  0
 11  3  1  0  0  0  0
 12 14  1  0  0  0  0
 13  3  1  0  0  0  0
 13  1  1  0  0  0  0
 14  1  1  0  0  0  0
 15 11  1  0  0  0  0
 16  8  1  0  0  0  0
 17 18  2  0  0  0  0
 17 15  1  0  0  0  0
 19  8  1  1  0  0  0
 19 17  1  0  0  0  0
 21  5  1  0  0  0  0
 22 21  1  0  0  0  0
 23 22  1  0  0  0  0
 24 26  2  0  0  0  0
 25 26  1  0  0  0  0
 26 23  1  0  0  0  0
 28 29  1  0  0  0  0
 28 27  1  0  0  0  0
 29 40  1  0  0  0  0
 30 34  1  0  0  0  0
 30 31  2  0  0  0  0
 32 35  1  0  0  0  0
 32 33  1  0  0  0  0
 33 30  1  0  0  0  0
 34 29  1  1  0  0  0
 35 37  1  6  0  0  0
 35 38  1  0  0  0  0
 36 32  2  0  0  0  0
 38 34  1  0  0  0  0
 40 39  1  0  0  0  0
M  END
>  <MODEL>
1

>  <REMARK>
 VINA RESULT:      -6.1      0.000      0.000
  Name = 
  9 active torsions:
  status: ('A' for Active; 'I' for Inactive)
    1  A    between atoms: C_2  and  C_25
    2  A    between atoms: C_10  and  C_35
    3  A    between atoms: C_10  and  C_39
    4  A    between atoms: C_11  and  N_36
    5  A    between atoms: C_14  and  C_16
    6  A    between atoms: C_16  and  C_39
    7  A    between atoms: C_24  and  N_36
    8  A    between atoms: C_25  and  C_31
    9  A    between atoms: C_31  and  N_36
                            x       y       z     vdW  Elec       q    Type
                         _______ _______ _______ _____ _____    ______ ____

>  <TORSDO>
F 9

$$$$
=
 OpenBabel11072410513D

 40 43  0  0  1  0  0  0  0  0999 V2000
  159.4050  212.6610  153.8930 C   0  0  2  0  0  3  0  0  0  0  0  0
  161.4650  206.9540  147.7140 C   0  0  0  0  0  2  0  0  0  0  0  0
  160.9990  210.8250  154.5270 C   0  0  0  0  0  2  0  0  0  0  0  0
  161.4220  206.9900  149.0390 C   0  0  0  0  0  0  0  0  0  0  0  0
  161.1910  204.6150  152.0720 C   0  0  0  0  0  0  0  0  0  0  0  0
  161.5040  205.8380  151.2490 C   0  0  2  0  0  3  0  0  0  0  0  0
  159.5390  209.5510  152.9770 N   0  0  0  0  0  0  0  0  0  0  0  0
  161.4940  208.2700  151.2000 N   0  0  0  0  0  2  0  0  0  0  0  0
  161.9470  209.3170  149.1690 O   0  0  0  0  0  0  0  0  0  0  0  0
  161.1610  204.7330  153.4020 C   0  0  0  0  0  3  0  0  0  0  0  0
  160.5770  209.5910  153.7710 C   0  0  0  0  0  0  0  0  0  0  0  0
  158.7200  210.6690  152.5040 C   0  0  0  0  0  2  0  0  0  0  0  0
  160.8270  212.1140  153.7380 C   0  0  0  0  0  2  0  0  0  0  0  0
  158.3280  211.6020  153.6410 C   0  0  0  0  0  2  0  0  0  0  0  0
  161.2450  208.3710  154.1130 N   0  0  0  0  0  2  0  0  0  0  0  0
  161.6270  208.2600  149.7750 C   0  0  0  0  0  0  0  0  0  0  0  0
  161.1880  207.1420  153.3770 C   0  0  0  0  0  0  0  0  0  0  0  0
  161.2600  206.0210  154.0350 N   0  0  0  0  0  0  0  0  0  0  0  0
  160.9290  207.1110  151.8850 C   0  0  2  0  0  3  0  0  0  0  0  0
  161.0390  205.7470  149.7930 C   0  0  0  0  0  2  0  0  0  0  0  0
  161.1470  203.2490  151.4630 C   0  0  0  0  0  2  0  0  0  0  0  0
  160.8400  203.3170  149.9700 C   0  0  0  0  0  2  0  0  0  0  0  0
  160.4840  201.9470  149.4050 C   0  0  0  0  0  2  0  0  0  0  0  0
  161.1850  202.9460  147.2300 O   0  0  0  0  0  0  0  0  0  0  0  0
  161.1790  200.6730  147.5130 O   0  0  0  0  0  1  0  0  0  0  0  0
  160.9580  201.8130  147.9980 C   0  0  0  0  0  0  0  0  0  0  0  0
  159.1920  213.8440  152.9630 C   0  0  0  0  0  2  0  0  0  0  0  0
  159.6640  213.5040  151.5580 C   0  0  0  0  0  2  0  0  0  0  0  0
  158.9400  214.3130  150.5830 N   0  0  0  0  0  0  0  0  0  0  0  0
  158.9550  214.1860  148.1040 C   0  0  0  0  0  0  0  0  0  0  0  0
  157.7220  214.4390  148.0790 O   0  0  0  0  0  0  0  0  0  0  0  0
  160.9400  213.4250  146.8920 C   0  0  0  0  0  0  0  0  0  0  0  0
  159.5830  213.7590  146.9290 O   0  0  0  0  0  0  0  0  0  0  0  0
  159.7710  214.3960  149.3660 C   0  0  2  0  0  3  0  0  0  0  0  0
  161.7770  213.5030  148.1370 C   0  0  2  0  0  3  0  0  0  0  0  0
  161.4690  213.1130  145.7930 O   0  0  0  0  0  0  0  0  0  0  0  0
  162.7400  212.4930  148.1340 O   0  0  0  0  0  1  0  0  0  0  0  0
  160.8960  213.3520  149.3700 C   0  0  0  0  0  2  0  0  0  0  0  0
  156.5880  214.0690  151.1580 C   0  0  0  0  0  1  0  0  0  0  0  0
  157.7250  213.5560  150.2960 C   0  0  0  0  0  2  0  0  0  0  0  0
  1 27  1  6  0  0  0
  2  4  2  0  0  0  0
  4 16  1  0  0  0  0
  4 20  1  0  0  0  0
  5 10  2  0  0  0  0
  6 20  1  6  0  0  0
  6 19  1  0  0  0  0
  6  5  1  0  0  0  0
  7 11  2  0  0  0  0
  9 16  2  0  0  0  0
 10 18  1  0  0  0  0
 11 15  1  0  0  0  0
 11  3  1  0  0  0  0
 12  7  1  0  0  0  0
 12 14  1  0  0  0  0
 13  1  1  0  0  0  0
 13  3  1  0  0  0  0
 14  1  1  0  0  0  0
 16  8  1  0  0  0  0
 17 18  2  0  0  0  0
 17 15  1  0  0  0  0
 19  8  1  6  0  0  0
 19 17  1  0  0  0  0
 21  5  1  0  0  0  0
 22 21  1  0  0  0  0
 23 22  1  0  0  0  0
 24 26  2  0  0  0  0
 25 26  1  0  0  0  0
 26 23  1  0  0  0  0
 28 27  1  0  0  0  0
 29 28  1  0  0  0  0
 30 34  1  0  0  0  0
 31 30  2  0  0  0  0
 32 33  1  0  0  0  0
 32 35  1  0  0  0  0
 33 30  1  0  0  0  0
 34 38  1  0  0  0  0
 34 29  1  1  0  0  0
 35 37  1  6  0  0  0
 35 38  1  0  0  0  0
 36 32  2  0  0  0  0
 40 29  1  0  0  0  0
 40 39  1  0  0  0  0
M  END
>  <MODEL>
2

>  <REMARK>
 VINA RESULT:      -6.0      2.288      3.455
  Name = 
  9 active torsions:
  status: ('A' for Active; 'I' for Inactive)
    1  A    between atoms: C_2  and  C_25
    2  A    between atoms: C_10  and  C_35
    3  A    between atoms: C_10  and  C_39
    4  A    between atoms: C_11  and  N_36
    5  A    between atoms: C_14  and  C_16
    6  A    between atoms: C_16  and  C_39
    7  A    between atoms: C_24  and  N_36
    8  A    between atoms: C_25  and  C_31
    9  A    between atoms: C_31  and  N_36
                            x       y       z     vdW  Elec       q    Type
                         _______ _______ _______ _____ _____    ______ ____

>  <TORSDO>
F 9

$$$$
=
 OpenBabel11072410513D

 40 43  0  0  1  0  0  0  0  0999 V2000
  162.2000  206.0890  146.9360 C   0  0  2  0  0  3  0  0  0  0  0  0
  160.6600  206.5600  155.4450 C   0  0  0  0  0  2  0  0  0  0  0  0
  162.9000  208.2010  148.1040 C   0  0  0  0  0  2  0  0  0  0  0  0
  160.8240  207.3990  154.4320 C   0  0  0  0  0  0  0  0  0  0  0  0
  160.0070  211.0320  153.4170 C   0  0  0  0  0  0  0  0  0  0  0  0
  160.7040  209.6970  153.4710 C   0  0  2  0  0  3  0  0  0  0  0  0
  160.8280  207.7230  149.3820 N   0  0  0  0  0  0  0  0  0  0  0  0
  161.7530  207.9360  152.1600 N   0  0  0  0  0  2  0  0  0  0  0  0
  162.3280  205.9630  153.2550 O   0  0  0  0  0  0  0  0  0  0  0  0
  160.2200  211.8200  152.3600 C   0  0  0  0  0  3  0  0  0  0  0  0
  161.8790  208.4740  149.1780 C   0  0  0  0  0  0  0  0  0  0  0  0
  160.5230  206.4170  148.7940 C   0  0  0  0  0  2  0  0  0  0  0  0
  163.2010  206.7240  147.9060 C   0  0  0  0  0  2  0  0  0  0  0  0
  160.7440  206.4100  147.2870 C   0  0  0  0  0  2  0  0  0  0  0  0
  161.9860  209.7290  149.8590 N   0  0  0  0  0  2  0  0  0  0  0  0
  161.6660  207.0340  153.2680 C   0  0  0  0  0  0  0  0  0  0  0  0
  161.2950  210.1000  151.0590 C   0  0  0  0  0  0  0  0  0  0  0  0
  160.9600  211.3480  151.2210 N   0  0  0  0  0  0  0  0  0  0  0  0
  160.8400  209.0730  152.0750 C   0  0  2  0  0  3  0  0  0  0  0  0
  160.0470  208.6850  154.4130 C   0  0  0  0  0  2  0  0  0  0  0  0
  159.2850  211.5870  154.6040 C   0  0  0  0  0  2  0  0  0  0  0  0
  157.8120  211.8340  154.2930 C   0  0  0  0  0  2  0  0  0  0  0  0
  157.0600  212.3640  155.5070 C   0  0  0  0  0  2  0  0  0  0  0  0
  155.5900  210.4020  155.0450 O   0  0  0  0  0  0  0  0  0  0  0  0
  155.3540  211.5960  156.9870 O   0  0  0  0  0  1  0  0  0  0  0  0
  155.9500  211.4450  155.8880 C   0  0  0  0  0  0  0  0  0  0  0  0
  162.3970  204.5830  146.8860 C   0  0  0  0  0  2  0  0  0  0  0  0
  161.3340  203.9390  146.0110 C   0  0  0  0  0  2  0  0  0  0  0  0
  161.2270  202.5180  146.3250 N   0  0  0  0  0  0  0  0  0  0  0  0
  161.4320  200.9040  148.1990 C   0  0  0  0  0  0  0  0  0  0  0  0
  161.5790  199.9610  147.3770 O   0  0  0  0  0  0  0  0  0  0  0  0
  161.0110  201.5920  150.5090 C   0  0  0  0  0  0  0  0  0  0  0  0
  161.2200  200.5990  149.5470 O   0  0  0  0  0  0  0  0  0  0  0  0
  161.5420  202.3510  147.7570 C   0  0  2  0  0  3  0  0  0  0  0  0
  160.9950  203.0410  150.1140 C   0  0  2  0  0  3  0  0  0  0  0  0
  160.8950  201.2660  151.7180 O   0  0  0  0  0  0  0  0  0  0  0  0
  160.0810  203.7450  150.8990 O   0  0  0  0  0  1  0  0  0  0  0  0
  160.6070  203.1790  148.6480 C   0  0  0  0  0  2  0  0  0  0  0  0
  159.7060  201.3090  144.8590 C   0  0  0  0  0  1  0  0  0  0  0  0
  159.8250  202.1870  146.0890 C   0  0  0  0  0  2  0  0  0  0  0  0
  1 27  1  1  0  0  0
  1 14  1  0  0  0  0
  1 13  1  0  0  0  0
  3 11  1  0  0  0  0
  4  2  2  0  0  0  0
  5  6  1  0  0  0  0
  5 21  1  0  0  0  0
  6 20  1  1  0  0  0
  8 16  1  0  0  0  0
  9 16  2  0  0  0  0
 10  5  2  0  0  0  0
 11  7  2  0  0  0  0
 11 15  1  0  0  0  0
 12  7  1  0  0  0  0
 13  3  1  0  0  0  0
 14 12  1  0  0  0  0
 15 17  1  0  0  0  0
 16  4  1  0  0  0  0
 17 18  2  0  0  0  0
 18 10  1  0  0  0  0
 19 17  1  6  0  0  0
 19  8  1  0  0  0  0
 19  6  1  0  0  0  0
 20  4  1  0  0  0  0
 22 21  1  0  0  0  0
 22 23  1  0  0  0  0
 23 26  1  0  0  0  0
 24 26  2  0  0  0  0
 26 25  1  0  0  0  0
 28 29  1  0  0  0  0
 28 27  1  0  0  0  0
 30 33  1  0  0  0  0
 31 30  2  0  0  0  0
 32 36  2  0  0  0  0
 33 32  1  0  0  0  0
 34 29  1  6  0  0  0
 34 30  1  0  0  0  0
 34 38  1  0  0  0  0
 35 32  1  0  0  0  0
 35 37  1  1  0  0  0
 38 35  1  0  0  0  0
 39 40  1  0  0  0  0
 40 29  1  0  0  0  0
M  END
>  <MODEL>
3

>  <REMARK>
 VINA RESULT:      -5.9      3.034     10.538
  Name = 
  9 active torsions:
  status: ('A' for Active; 'I' for Inactive)
    1  A    between atoms: C_2  and  C_25
    2  A    between atoms: C_10  and  C_35
    3  A    between atoms: C_10  and  C_39
    4  A    between atoms: C_11  and  N_36
    5  A    between atoms: C_14  and  C_16
    6  A    between atoms: C_16  and  C_39
    7  A    between atoms: C_24  and  N_36
    8  A    between atoms: C_25  and  C_31
    9  A    between atoms: C_31  and  N_36
                            x       y       z     vdW  Elec       q    Type
                         _______ _______ _______ _____ _____    ______ ____

>  <TORSDO>
F 9

$$$$
=
 OpenBabel11072410513D

 40 43  0  0  1  0  0  0  0  0999 V2000
  161.2350  209.3550  154.0770 C   0  0  2  0  0  3  0  0  0  0  0  0
  160.7050  201.6100  150.2410 C   0  0  0  0  0  2  0  0  0  0  0  0
  160.4560  209.3200  151.6890 C   0  0  0  0  0  2  0  0  0  0  0  0
  160.8630  202.8750  149.8750 C   0  0  0  0  0  0  0  0  0  0  0  0
  162.2090  204.9730  146.9290 C   0  0  0  0  0  0  0  0  0  0  0  0
  161.4080  204.5870  148.1460 C   0  0  2  0  0  3  0  0  0  0  0  0
  162.1090  207.4730  151.5820 N   0  0  0  0  0  0  0  0  0  0  0  0
  160.5610  205.3330  150.3010 N   0  0  0  0  0  2  0  0  0  0  0  0
  159.5720  203.7440  151.6870 O   0  0  0  0  0  0  0  0  0  0  0  0
  162.3270  206.2690  146.6300 C   0  0  0  0  0  3  0  0  0  0  0  0
  161.2060  208.2130  150.9930 C   0  0  0  0  0  0  0  0  0  0  0  0
  162.4340  207.4090  153.0090 C   0  0  0  0  0  2  0  0  0  0  0  0
  160.0860  208.9990  153.1280 C   0  0  0  0  0  2  0  0  0  0  0  0
  162.5840  208.7970  153.6170 C   0  0  0  0  0  2  0  0  0  0  0  0
  161.0450  208.1250  149.5730 N   0  0  0  0  0  2  0  0  0  0  0  0
  160.3000  203.9790  150.6870 C   0  0  0  0  0  0  0  0  0  0  0  0
  161.4550  207.0300  148.7430 C   0  0  0  0  0  0  0  0  0  0  0  0
  161.8460  207.2840  147.5280 N   0  0  0  0  0  0  0  0  0  0  0  0
  161.5610  205.6150  149.2750 C   0  0  2  0  0  3  0  0  0  0  0  0
  161.7290  203.1910  148.6880 C   0  0  0  0  0  2  0  0  0  0  0  0
  162.6680  203.9530  145.9360 C   0  0  0  0  0  2  0  0  0  0  0  0
  161.5960  203.6770  144.8860 C   0  0  0  0  0  2  0  0  0  0  0  0
  160.3470  203.0600  145.5040 C   0  0  0  0  0  2  0  0  0  0  0  0
  161.0180  200.8810  146.5160 O   0  0  0  0  0  1  0  0  0  0  0  0
  159.9140  200.9360  144.5100 O   0  0  0  0  0  0  0  0  0  0  0  0
  160.4190  201.5710  145.4710 C   0  0  0  0  0  0  0  0  0  0  0  0
  160.9280  208.8670  155.4830 C   0  0  0  0  0  2  0  0  0  0  0  0
  159.5880  209.4120  155.9520 C   0  0  0  0  0  2  0  0  0  0  0  0
  159.5800  210.8670  155.8450 N   0  0  0  0  0  0  0  0  0  0  0  0
  158.3620  212.3440  154.2640 C   0  0  0  0  0  0  0  0  0  0  0  0
  159.4040  212.4660  153.5680 O   0  0  0  0  0  0  0  0  0  0  0  0
  156.0970  213.1250  154.7590 C   0  0  0  0  0  0  0  0  0  0  0  0
  157.2710  213.1790  154.0030 O   0  0  0  0  0  0  0  0  0  0  0  0
  158.2560  211.2710  155.3320 C   0  0  2  0  0  3  0  0  0  0  0  0
  155.9730  212.1600  155.9040 C   0  0  2  0  0  3  0  0  0  0  0  0
  155.1210  213.8510  154.4370 O   0  0  0  0  0  0  0  0  0  0  0  0
  155.2050  212.7210  156.9260 O   0  0  0  0  0  1  0  0  0  0  0  0
  157.3530  211.8150  156.4470 C   0  0  0  0  0  2  0  0  0  0  0  0
  160.7910  212.4370  157.2550 C   0  0  0  0  0  1  0  0  0  0  0  0
  159.7410  211.3440  157.2150 C   0  0  0  0  0  2  0  0  0  0  0  0
  1 27  1  1  0  0  0
  3 13  1  0  0  0  0
  4  2  2  0  0  0  0
  4 16  1  0  0  0  0
  5  6  1  0  0  0  0
  6 20  1  1  0  0  0
  6 19  1  0  0  0  0
  7 12  1  0  0  0  0
  8 16  1  0  0  0  0
 10  5  2  0  0  0  0
 10 18  1  0  0  0  0
 11  7  2  0  0  0  0
 11  3  1  0  0  0  0
 12 14  1  0  0  0  0
 13  1  1  0  0  0  0
 14  1  1  0  0  0  0
 15 11  1  0  0  0  0
 16  9  2  0  0  0  0
 17 15  1  0  0  0  0
 18 17  2  0  0  0  0
 19 17  1  6  0  0  0
 19  8  1  0  0  0  0
 20  4  1  0  0  0  0
 21  5  1  0  0  0  0
 22 23  1  0  0  0  0
 22 21  1  0  0  0  0
 25 26  2  0  0  0  0
 26 23  1  0  0  0  0
 26 24  1  0  0  0  0
 27 28  1  0  0  0  0
 29 28  1  0  0  0  0
 29 40  1  0  0  0  0
 30 34  1  0  0  0  0
 31 30  2  0  0  0  0
 32 35  1  0  0  0  0
 33 30  1  0  0  0  0
 33 32  1  0  0  0  0
 34 29  1  1  0  0  0
 34 38  1  0  0  0  0
 35 38  1  0  0  0  0
 35 37  1  1  0  0  0
 36 32  2  0  0  0  0
 40 39  1  0  0  0  0
M  END
>  <MODEL>
4

>  <REMARK>
 VINA RESULT:      -5.1      2.360      4.574
  Name = 
  9 active torsions:
  status: ('A' for Active; 'I' for Inactive)
    1  A    between atoms: C_2  and  C_25
    2  A    between atoms: C_10  and  C_35
    3  A    between atoms: C_10  and  C_39
    4  A    between atoms: C_11  and  N_36
    5  A    between atoms: C_14  and  C_16
    6  A    between atoms: C_16  and  C_39
    7  A    between atoms: C_24  and  N_36
    8  A    between atoms: C_25  and  C_31
    9  A    between atoms: C_31  and  N_36
                            x       y       z     vdW  Elec       q    Type
                         _______ _______ _______ _____ _____    ______ ____

>  <TORSDO>
F 9

$$$$
=
 OpenBabel11072410513D

 40 43  0  0  1  0  0  0  0  0999 V2000
  160.6310  209.0880  156.4400 C   0  0  2  0  0  3  0  0  0  0  0  0
  161.7200  208.3420  147.8810 C   0  0  0  0  0  2  0  0  0  0  0  0
  161.8310  207.0380  155.6210 C   0  0  0  0  0  2  0  0  0  0  0  0
  161.6520  207.5380  148.9340 C   0  0  0  0  0  0  0  0  0  0  0  0
  160.9010  203.8580  149.8210 C   0  0  0  0  0  0  0  0  0  0  0  0
  161.4600  205.2540  149.9160 C   0  0  2  0  0  3  0  0  0  0  0  0
  160.1940  207.2910  153.7730 N   0  0  0  0  0  0  0  0  0  0  0  0
  161.9140  207.1290  151.3990 N   0  0  0  0  0  2  0  0  0  0  0  0
  162.6070  209.1320  150.4350 O   0  0  0  0  0  0  0  0  0  0  0  0
  160.8610  203.1110  150.9270 C   0  0  0  0  0  3  0  0  0  0  0  0
  161.2020  206.6510  154.3070 C   0  0  0  0  0  0  0  0  0  0  0  0
  159.6140  208.5700  154.1900 C   0  0  0  0  0  2  0  0  0  0  0  0
  161.9270  208.5410  155.8340 C   0  0  0  0  0  2  0  0  0  0  0  0
  159.3790  208.6210  155.6930 C   0  0  0  0  0  2  0  0  0  0  0  0
  161.6170  205.4020  153.7420 N   0  0  0  0  0  2  0  0  0  0  0  0
  162.0770  208.0010  150.2760 C   0  0  0  0  0  0  0  0  0  0  0  0
  161.3460  204.9470  152.4100 C   0  0  0  0  0  0  0  0  0  0  0  0
  161.1870  203.6700  152.2110 N   0  0  0  0  0  0  0  0  0  0  0  0
  161.1220  205.9090  151.2620 C   0  0  2  0  0  3  0  0  0  0  0  0
  161.0220  206.1820  148.7800 C   0  0  0  0  0  2  0  0  0  0  0  0
  160.6130  203.2170  148.4990 C   0  0  0  0  0  2  0  0  0  0  0  0
  161.8540  203.1920  147.6120 C   0  0  0  0  0  2  0  0  0  0  0  0
  161.4990  203.3730  146.1420 C   0  0  0  0  0  2  0  0  0  0  0  0
  160.4160  205.4630  145.3160 O   0  0  0  0  0  0  0  0  0  0  0  0
  162.6450  205.4430  145.8440 O   0  0  0  0  0  1  0  0  0  0  0  0
  161.5610  204.8110  145.7530 C   0  0  0  0  0  0  0  0  0  0  0  0
  160.6690  210.6070  156.4810 C   0  0  0  0  0  2  0  0  0  0  0  0
  159.2590  211.1710  156.5270 C   0  0  0  0  0  2  0  0  0  0  0  0
  158.8310  211.5490  155.1840 N   0  0  0  0  0  0  0  0  0  0  0  0
  157.7810  213.6110  156.0830 C   0  0  0  0  0  0  0  0  0  0  0  0
  158.9070  214.1730  156.1240 O   0  0  0  0  0  0  0  0  0  0  0  0
  155.4240  213.6420  156.7400 C   0  0  0  0  0  0  0  0  0  0  0  0
  156.6940  214.2260  156.7130 O   0  0  0  0  0  0  0  0  0  0  0  0
  157.5790  212.3190  155.3130 C   0  0  2  0  0  3  0  0  0  0  0  0
  155.1860  212.3080  156.0920 C   0  0  2  0  0  3  0  0  0  0  0  0
  154.4670  214.2710  157.2610 O   0  0  0  0  0  0  0  0  0  0  0  0
  154.2400  211.5820  156.8170 O   0  0  0  0  0  1  0  0  0  0  0  0
  156.4870  211.5170  156.0330 C   0  0  0  0  0  2  0  0  0  0  0  0
  159.7050  212.6510  153.1980 C   0  0  0  0  0  1  0  0  0  0  0  0
  159.8920  212.4180  154.6840 C   0  0  0  0  0  2  0  0  0  0  0  0
  1 27  1  6  0  0  0
  2  4  2  0  0  0  0
  3 13  1  0  0  0  0
  4 16  1  0  0  0  0
  5  6  1  0  0  0  0
  5 10  2  0  0  0  0
  6 20  1  6  0  0  0
  6 19  1  0  0  0  0
  7 12  1  0  0  0  0
  7 11  2  0  0  0  0
 10 18  1  0  0  0  0
 11  3  1  0  0  0  0
 12 14  1  0  0  0  0
 13  1  1  0  0  0  0
 14  1  1  0  0  0  0
 15 11  1  0  0  0  0
 16  9  2  0  0  0  0
 16  8  1  0  0  0  0
 17 15  1  0  0  0  0
 18 17  2  0  0  0  0
 19  8  1  1  0  0  0
 19 17  1  0  0  0  0
 20  4  1  0  0  0  0
 21  5  1  0  0  0  0
 22 21  1  0  0  0  0
 23 22  1  0  0  0  0
 24 26  2  0  0  0  0
 26 25  1  0  0  0  0
 26 23  1  0  0  0  0
 27 28  1  0  0  0  0
 29 28  1  0  0  0  0
 30 31  2  0  0  0  0
 30 33  1  0  0  0  0
 32 36  2  0  0  0  0
 33 32  1  0  0  0  0
 34 29  1  1  0  0  0
 34 38  1  0  0  0  0
 34 30  1  0  0  0  0
 35 32  1  0  0  0  0
 35 37  1  1  0  0  0
 38 35  1  0  0  0  0
 39 40  1  0  0  0  0
 40 29  1  0  0  0  0
M  END
>  <MODEL>
5

>  <REMARK>
 VINA RESULT:      -4.5      2.143      3.154
  Name = 
  9 active torsions:
  status: ('A' for Active; 'I' for Inactive)
    1  A    between atoms: C_2  and  C_25
    2  A    between atoms: C_10  and  C_35
    3  A    between atoms: C_10  and  C_39
    4  A    between atoms: C_11  and  N_36
    5  A    between atoms: C_14  and  C_16
    6  A    between atoms: C_16  and  C_39
    7  A    between atoms: C_24  and  N_36
    8  A    between atoms: C_25  and  C_31
    9  A    between atoms: C_31  and  N_36
                            x       y       z     vdW  Elec       q    Type
                         _______ _______ _______ _____ _____    ______ ____

>  <TORSDO>
F 9

$$$$
=
 OpenBabel11072410513D

 40 43  0  0  1  0  0  0  0  0999 V2000
  161.1900  201.6800  150.9720 C   0  0  2  0  0  3  0  0  0  0  0  0
  162.2380  210.1650  149.5970 C   0  0  0  0  0  2  0  0  0  0  0  0
  159.9040  203.2410  152.4630 C   0  0  0  0  0  2  0  0  0  0  0  0
  161.8900  209.3710  150.6000 C   0  0  0  0  0  0  0  0  0  0  0  0
  161.7330  209.3490  154.4560 C   0  0  0  0  0  0  0  0  0  0  0  0
  161.4200  209.0080  153.0220 C   0  0  2  0  0  3  0  0  0  0  0  0
  161.9810  204.5740  152.2080 N   0  0  0  0  0  0  0  0  0  0  0  0
  160.9330  207.2110  151.4550 N   0  0  0  0  0  2  0  0  0  0  0  0
  160.8730  207.7360  149.1870 O   0  0  0  0  0  0  0  0  0  0  0  0
  161.3540  208.4950  155.4110 C   0  0  0  0  0  3  0  0  0  0  0  0
  160.7740  204.4490  152.6960 C   0  0  0  0  0  0  0  0  0  0  0  0
  162.6480  203.7250  151.2190 C   0  0  0  0  0  2  0  0  0  0  0  0
  160.0200  202.6650  151.0600 C   0  0  0  0  0  2  0  0  0  0  0  0
  162.4910  202.2460  151.5470 C   0  0  0  0  0  2  0  0  0  0  0  0
  160.3080  205.3970  153.6640 N   0  0  0  0  0  2  0  0  0  0  0  0
  161.2210  208.0730  150.3490 C   0  0  0  0  0  0  0  0  0  0  0  0
  160.8300  206.7150  153.8740 C   0  0  0  0  0  0  0  0  0  0  0  0
  160.8100  207.2060  155.0800 N   0  0  0  0  0  0  0  0  0  0  0  0
  161.5080  207.4970  152.7670 C   0  0  2  0  0  3  0  0  0  0  0  0
  162.2920  209.7430  152.0000 C   0  0  0  0  0  2  0  0  0  0  0  0
  162.2360  210.7020  154.8490 C   0  0  0  0  0  2  0  0  0  0  0  0
  161.1720  211.4930  155.6030 C   0  0  0  0  0  2  0  0  0  0  0  0
  160.0890  212.0170  154.6680 C   0  0  0  0  0  2  0  0  0  0  0  0
  157.6460  211.7420  154.2490 O   0  0  0  0  0  0  0  0  0  0  0  0
  158.6420  210.6950  156.0260 O   0  0  0  0  0  1  0  0  0  0  0  0
  158.7570  211.4540  155.0290 C   0  0  0  0  0  0  0  0  0  0  0  0
  161.4080  201.2490  149.5310 C   0  0  0  0  0  2  0  0  0  0  0  0
  160.1050  201.3300  148.7520 C   0  0  0  0  0  2  0  0  0  0  0  0
  160.3750  201.2240  147.3220 N   0  0  0  0  0  0  0  0  0  0  0  0
  160.3200  202.6160  145.2680 C   0  0  0  0  0  0  0  0  0  0  0  0
  159.7060  201.7010  144.6580 O   0  0  0  0  0  0  0  0  0  0  0  0
  161.5540  204.7250  145.1410 C   0  0  0  0  0  0  0  0  0  0  0  0
  160.8300  203.6940  144.5360 O   0  0  0  0  0  0  0  0  0  0  0  0
  160.4580  202.5940  146.7780 C   0  0  2  0  0  3  0  0  0  0  0  0
  161.8220  204.7020  146.6180 C   0  0  2  0  0  3  0  0  0  0  0  0
  161.9300  205.7050  144.4460 O   0  0  0  0  0  0  0  0  0  0  0  0
  163.0720  205.2590  146.8900 O   0  0  0  0  0  1  0  0  0  0  0  0
  161.7900  203.2690  147.1320 C   0  0  0  0  0  2  0  0  0  0  0  0
  161.5810  199.3260  146.3910 C   0  0  0  0  0  1  0  0  0  0  0  0
  161.6830  200.5820  147.2340 C   0  0  0  0  0  2  0  0  0  0  0  0
  1 27  1  6  0  0  0
  1 13  1  0  0  0  0
  1 14  1  0  0  0  0
  2  4  2  0  0  0  0
  3 11  1  0  0  0  0
  4 20  1  0  0  0  0
  5 21  1  0  0  0  0
  5 10  2  0  0  0  0
  6 20  1  6  0  0  0
  6  5  1  0  0  0  0
  7 11  2  0  0  0  0
  9 16  2  0  0  0  0
 11 15  1  0  0  0  0
 12 14  1  0  0  0  0
 12  7  1  0  0  0  0
 13  3  1  0  0  0  0
 15 17  1  0  0  0  0
 16  4  1  0  0  0  0
 16  8  1  0  0  0  0
 17 18  2  0  0  0  0
 18 10  1  0  0  0  0
 19  8  1  6  0  0  0
 19  6  1  0  0  0  0
 19 17  1  0  0  0  0
 21 22  1  0  0  0  0
 23 26  1  0  0  0  0
 23 22  1  0  0  0  0
 24 26  2  0  0  0  0
 26 25  1  0  0  0  0
 28 27  1  0  0  0  0
 29 28  1  0  0  0  0
 30 34  1  0  0  0  0
 31 30  2  0  0  0  0
 32 35  1  0  0  0  0
 33 32  1  0  0  0  0
 33 30  1  0  0  0  0
 34 38  1  0  0  0  0
 34 29  1  6  0  0  0
 35 37  1  6  0  0  0
 35 38  1  0  0  0  0
 36 32  2  0  0  0  0
 39 40  1  0  0  0  0
 40 29  1  0  0  0  0
M  END
>  <MODEL>
6

>  <REMARK>
 VINA RESULT:      -4.5      2.643      9.983
  Name = 
  9 active torsions:
  status: ('A' for Active; 'I' for Inactive)
    1  A    between atoms: C_2  and  C_25
    2  A    between atoms: C_10  and  C_35
    3  A    between atoms: C_10  and  C_39
    4  A    between atoms: C_11  and  N_36
    5  A    between atoms: C_14  and  C_16
    6  A    between atoms: C_16  and  C_39
    7  A    between atoms: C_24  and  N_36
    8  A    between atoms: C_25  and  C_31
    9  A    between atoms: C_31  and  N_36
                            x       y       z     vdW  Elec       q    Type
                         _______ _______ _______ _____ _____    ______ ____

>  <TORSDO>
F 9

$$$$
=
 OpenBabel11072410513D

 40 43  0  0  1  0  0  0  0  0999 V2000
  162.1740  206.3090  147.4190 C   0  0  2  0  0  3  0  0  0  0  0  0
  160.4630  206.7480  155.8970 C   0  0  0  0  0  2  0  0  0  0  0  0
  162.8730  208.4070  148.6140 C   0  0  0  0  0  2  0  0  0  0  0  0
  160.6580  207.5920  154.8920 C   0  0  0  0  0  0  0  0  0  0  0  0
  159.9010  211.2380  153.8830 C   0  0  0  0  0  0  0  0  0  0  0  0
  160.5820  209.8960  153.9430 C   0  0  2  0  0  3  0  0  0  0  0  0
  160.7700  207.9440  149.8460 N   0  0  0  0  0  0  0  0  0  0  0  0
  161.6390  208.1310  152.6430 N   0  0  0  0  0  2  0  0  0  0  0  0
  162.1700  206.1460  153.7390 O   0  0  0  0  0  0  0  0  0  0  0  0
  160.1440  212.0300  152.8350 C   0  0  0  0  0  3  0  0  0  0  0  0
  161.8330  208.6840  149.6690 C   0  0  0  0  0  0  0  0  0  0  0  0
  160.4640  206.6440  149.2440 C   0  0  0  0  0  2  0  0  0  0  0  0
  163.1620  206.9270  148.4140 C   0  0  0  0  0  2  0  0  0  0  0  0
  160.7150  206.6440  147.7420 C   0  0  0  0  0  2  0  0  0  0  0  0
  161.9390  209.9350  150.3590 N   0  0  0  0  0  2  0  0  0  0  0  0
  161.5190  207.2240  153.7440 C   0  0  0  0  0  0  0  0  0  0  0  0
  161.2270  210.3070  151.5460 C   0  0  0  0  0  0  0  0  0  0  0  0
  160.9020  211.5570  151.7090 N   0  0  0  0  0  0  0  0  0  0  0  0
  160.7410  209.2790  152.5470 C   0  0  2  0  0  3  0  0  0  0  0  0
  159.8950  208.8860  154.8660 C   0  0  0  0  0  2  0  0  0  0  0  0
  159.1600  211.7950  155.0580 C   0  0  0  0  0  2  0  0  0  0  0  0
  157.8700  211.0230  155.3180 C   0  0  0  0  0  2  0  0  0  0  0  0
  157.2110  211.4480  156.6240 C   0  0  0  0  0  2  0  0  0  0  0  0
  155.5740  213.1710  155.8670 O   0  0  0  0  0  0  0  0  0  0  0  0
  154.8470  211.1410  156.6410 O   0  0  0  0  0  1  0  0  0  0  0  0
  155.8130  211.9070  156.3900 C   0  0  0  0  0  0  0  0  0  0  0  0
  162.3570  204.8020  147.3640 C   0  0  0  0  0  2  0  0  0  0  0  0
  161.2270  204.1610  146.5740 C   0  0  0  0  0  2  0  0  0  0  0  0
  160.7460  202.9730  147.2710 N   0  0  0  0  0  0  0  0  0  0  0  0
  160.2040  201.5520  145.3090 C   0  0  0  0  0  0  0  0  0  0  0  0
  159.5390  202.4950  144.8030 O   0  0  0  0  0  0  0  0  0  0  0  0
  160.7890  199.1770  145.2710 C   0  0  0  0  0  0  0  0  0  0  0  0
  160.1100  200.2770  144.7410 O   0  0  0  0  0  0  0  0  0  0  0  0
  161.1430  201.7940  146.4750 C   0  0  2  0  0  3  0  0  0  0  0  0
  161.6460  199.3290  146.4950 C   0  0  2  0  0  3  0  0  0  0  0  0
  160.7230  198.0670  144.6800 O   0  0  0  0  0  0  0  0  0  0  0  0
  161.5850  198.1720  147.2740 O   0  0  0  0  0  1  0  0  0  0  0  0
  161.1690  200.5150  147.3230 C   0  0  0  0  0  2  0  0  0  0  0  0
  160.4820  202.7610  149.6810 C   0  0  0  0  0  1  0  0  0  0  0  0
  161.4620  202.9680  148.5430 C   0  0  0  0  0  2  0  0  0  0  0  0
  1 27  1  1  0  0  0
  1 14  1  0  0  0  0
  1 13  1  0  0  0  0
  3 11  1  0  0  0  0
  4  2  2  0  0  0  0
  5  6  1  0  0  0  0
  5 21  1  0  0  0  0
  6 20  1  1  0  0  0
  8 16  1  0  0  0  0
  9 16  2  0  0  0  0
 10  5  2  0  0  0  0
 11  7  2  0  0  0  0
 11 15  1  0  0  0  0
 12  7  1  0  0  0  0
 13  3  1  0  0  0  0
 14 12  1  0  0  0  0
 15 17  1  0  0  0  0
 16  4  1  0  0  0  0
 17 18  2  0  0  0  0
 18 10  1  0  0  0  0
 19 17  1  6  0  0  0
 19  8  1  0  0  0  0
 19  6  1  0  0  0  0
 20  4  1  0  0  0  0
 21 22  1  0  0  0  0
 22 23  1  0  0  0  0
 24 26  2  0  0  0  0
 26 23  1  0  0  0  0
 26 25  1  0  0  0  0
 28 29  1  0  0  0  0
 28 27  1  0  0  0  0
 29 40  1  0  0  0  0
 30 34  1  0  0  0  0
 31 30  2  0  0  0  0
 32 35  1  0  0  0  0
 33 32  1  0  0  0  0
 33 30  1  0  0  0  0
 34 29  1  1  0  0  0
 34 38  1  0  0  0  0
 35 37  1  1  0  0  0
 35 38  1  0  0  0  0
 36 32  2  0  0  0  0
 40 39  1  0  0  0  0
M  END
>  <MODEL>
7

>  <REMARK>
 VINA RESULT:      -3.7      2.856     11.041
  Name = 
  9 active torsions:
  status: ('A' for Active; 'I' for Inactive)
    1  A    between atoms: C_2  and  C_25
    2  A    between atoms: C_10  and  C_35
    3  A    between atoms: C_10  and  C_39
    4  A    between atoms: C_11  and  N_36
    5  A    between atoms: C_14  and  C_16
    6  A    between atoms: C_16  and  C_39
    7  A    between atoms: C_24  and  N_36
    8  A    between atoms: C_25  and  C_31
    9  A    between atoms: C_31  and  N_36
                            x       y       z     vdW  Elec       q    Type
                         _______ _______ _______ _____ _____    ______ ____

>  <TORSDO>
F 9

$$$$
=
 OpenBabel11072410513D

 40 43  0  0  1  0  0  0  0  0999 V2000
  161.7500  210.3290  153.1140 C   0  0  2  0  0  3  0  0  0  0  0  0
  160.8230  202.0230  150.8460 C   0  0  0  0  0  2  0  0  0  0  0  0
  160.6880  209.8710  150.8830 C   0  0  0  0  0  2  0  0  0  0  0  0
  160.9250  203.1990  150.2400 C   0  0  0  0  0  0  0  0  0  0  0  0
  161.8860  204.7060  146.8200 C   0  0  0  0  0  0  0  0  0  0  0  0
  161.2420  204.5590  148.1740 C   0  0  2  0  0  3  0  0  0  0  0  0
  162.3310  208.0120  150.9170 N   0  0  0  0  0  0  0  0  0  0  0  0
  160.6560  205.6970  150.2440 N   0  0  0  0  0  2  0  0  0  0  0  0
  159.8560  204.4010  152.0050 O   0  0  0  0  0  0  0  0  0  0  0  0
  161.9560  205.9240  146.2780 C   0  0  0  0  0  3  0  0  0  0  0  0
  161.3570  208.6460  150.3160 C   0  0  0  0  0  0  0  0  0  0  0  0
  162.8260  208.2040  152.2820 C   0  0  0  0  0  2  0  0  0  0  0  0
  160.4980  209.8220  152.3910 C   0  0  0  0  0  2  0  0  0  0  0  0
  163.0380  209.6770  152.6040 C   0  0  0  0  0  2  0  0  0  0  0  0
  161.0260  208.3030  148.9660 N   0  0  0  0  0  2  0  0  0  0  0  0
  160.4550  204.4400  150.8990 C   0  0  0  0  0  0  0  0  0  0  0  0
  161.3420  207.0690  148.3070 C   0  0  0  0  0  0  0  0  0  0  0  0
  161.5800  207.0930  147.0270 N   0  0  0  0  0  0  0  0  0  0  0  0
  161.5220  205.7730  149.0700 C   0  0  2  0  0  3  0  0  0  0  0  0
  161.6380  203.2810  148.9200 C   0  0  0  0  0  2  0  0  0  0  0  0
  162.2300  203.5160  145.9820 C   0  0  0  0  0  2  0  0  0  0  0  0
  160.9790  202.7450  145.5710 C   0  0  0  0  0  2  0  0  0  0  0  0
  160.8600  201.4230  146.3190 C   0  0  0  0  0  2  0  0  0  0  0  0
  160.9830  199.0560  145.5420 O   0  0  0  0  0  1  0  0  0  0  0  0
  159.5860  200.5450  144.5040 O   0  0  0  0  0  0  0  0  0  0  0  0
  160.4450  200.3270  145.3980 C   0  0  0  0  0  0  0  0  0  0  0  0
  161.6190  210.1090  154.6110 C   0  0  0  0  0  2  0  0  0  0  0  0
  161.2690  211.4120  155.3100 C   0  0  0  0  0  2  0  0  0  0  0  0
  159.9910  211.2770  156.0010 N   0  0  0  0  0  0  0  0  0  0  0  0
  157.7030  212.2340  156.0970 C   0  0  0  0  0  0  0  0  0  0  0  0
  157.5360  211.7340  157.2410 O   0  0  0  0  0  0  0  0  0  0  0  0
  156.7030  213.3120  154.1410 C   0  0  0  0  0  0  0  0  0  0  0  0
  156.6000  212.7740  155.4280 O   0  0  0  0  0  0  0  0  0  0  0  0
  159.0820  212.3130  155.4720 C   0  0  2  0  0  3  0  0  0  0  0  0
  158.0220  213.3150  153.4220 C   0  0  2  0  0  3  0  0  0  0  0  0
  155.6940  213.8470  153.6130 O   0  0  0  0  0  0  0  0  0  0  0  0
  157.8240  213.1350  152.0520 O   0  0  0  0  0  1  0  0  0  0  0  0
  158.9090  212.1960  153.9510 C   0  0  0  0  0  2  0  0  0  0  0  0
  159.7470  208.9760  156.7550 C   0  0  0  0  0  1  0  0  0  0  0  0
  159.4990  209.9550  155.6250 C   0  0  0  0  0  2  0  0  0  0  0  0
  1 27  1  1  0  0  0
  3 13  1  0  0  0  0
  4  2  2  0  0  0  0
  4 16  1  0  0  0  0
  5  6  1  0  0  0  0
  6 20  1  1  0  0  0
  6 19  1  0  0  0  0
  7 12  1  0  0  0  0
  8 16  1  0  0  0  0
 10  5  2  0  0  0  0
 10 18  1  0  0  0  0
 11  3  1  0  0  0  0
 11  7  2  0  0  0  0
 12 14  1  0  0  0  0
 13  1  1  0  0  0  0
 14  1  1  0  0  0  0
 15 11  1  0  0  0  0
 16  9  2  0  0  0  0
 17 15  1  0  0  0  0
 18 17  2  0  0  0  0
 19 17  1  6  0  0  0
 19  8  1  0  0  0  0
 20  4  1  0  0  0  0
 21  5  1  0  0  0  0
 22 21  1  0  0  0  0
 22 23  1  0  0  0  0
 25 26  2  0  0  0  0
 26 24  1  0  0  0  0
 26 23  1  0  0  0  0
 27 28  1  0  0  0  0
 28 29  1  0  0  0  0
 30 31  2  0  0  0  0
 32 33  1  0  0  0  0
 33 30  1  0  0  0  0
 34 29  1  1  0  0  0
 34 30  1  0  0  0  0
 35 37  1  6  0  0  0
 35 38  1  0  0  0  0
 35 32  1  0  0  0  0
 36 32  2  0  0  0  0
 38 34  1  0  0  0  0
 40 29  1  0  0  0  0
 40 39  1  0  0  0  0
M  END
>  <MODEL>
8

>  <REMARK>
 VINA RESULT:      -3.3      2.467      4.456
  Name = 
  9 active torsions:
  status: ('A' for Active; 'I' for Inactive)
    1  A    between atoms: C_2  and  C_25
    2  A    between atoms: C_10  and  C_35
    3  A    between atoms: C_10  and  C_39
    4  A    between atoms: C_11  and  N_36
    5  A    between atoms: C_14  and  C_16
    6  A    between atoms: C_16  and  C_39
    7  A    between atoms: C_24  and  N_36
    8  A    between atoms: C_25  and  C_31
    9  A    between atoms: C_31  and  N_36
                            x       y       z     vdW  Elec       q    Type
                         _______ _______ _______ _____ _____    ______ ____

>  <TORSDO>
F 9

$$$$
=
 OpenBabel11072410513D

 40 43  0  0  1  0  0  0  0  0999 V2000
  161.0140  210.3800  154.4730 C   0  0  2  0  0  3  0  0  0  0  0  0
  161.3000  206.9160  146.5420 C   0  0  0  0  0  2  0  0  0  0  0  0
  162.1920  208.1730  154.2380 C   0  0  0  0  0  2  0  0  0  0  0  0
  161.3580  206.4930  147.7980 C   0  0  0  0  0  0  0  0  0  0  0  0
  160.8070  203.2960  149.8880 C   0  0  0  0  0  0  0  0  0  0  0  0
  161.3300  204.6470  149.4740 C   0  0  2  0  0  3  0  0  0  0  0  0
  160.3780  207.8210  152.5810 N   0  0  0  0  0  0  0  0  0  0  0  0
  161.8660  206.8990  150.2250 N   0  0  0  0  0  2  0  0  0  0  0  0
  162.4030  208.4840  148.6050 O   0  0  0  0  0  0  0  0  0  0  0  0
  160.8970  202.9450  151.1730 C   0  0  0  0  0  3  0  0  0  0  0  0
  161.4510  207.3840  153.1880 C   0  0  0  0  0  0  0  0  0  0  0  0
  159.8020  209.1670  152.6220 C   0  0  0  0  0  2  0  0  0  0  0  0
  162.2620  209.6640  153.9470 C   0  0  0  0  0  2  0  0  0  0  0  0
  159.7110  209.6990  154.0450 C   0  0  0  0  0  2  0  0  0  0  0  0
  161.8480  206.0190  153.0150 N   0  0  0  0  0  2  0  0  0  0  0  0
  161.8950  207.3630  148.8710 C   0  0  0  0  0  0  0  0  0  0  0  0
  161.4650  205.1600  151.9330 C   0  0  0  0  0  0  0  0  0  0  0  0
  161.3270  203.8870  152.1710 N   0  0  0  0  0  0  0  0  0  0  0  0
  161.1030  205.7020  150.5660 C   0  0  2  0  0  3  0  0  0  0  0  0
  160.7570  205.1610  148.1500 C   0  0  0  0  0  2  0  0  0  0  0  0
  160.4140  202.2650  148.8780 C   0  0  0  0  0  2  0  0  0  0  0  0
  161.6300  201.5040  148.3580 C   0  0  0  0  0  2  0  0  0  0  0  0
  161.2850  200.0620  148.0070 C   0  0  0  0  0  2  0  0  0  0  0  0
  160.5170  200.7750  145.7430 O   0  0  0  0  0  0  0  0  0  0  0  0
  161.8320  198.9150  145.9890 O   0  0  0  0  0  1  0  0  0  0  0  0
  161.2230  199.8750  146.5290 C   0  0  0  0  0  0  0  0  0  0  0  0
  161.0090  211.8300  154.0210 C   0  0  0  0  0  2  0  0  0  0  0  0
  159.7550  212.1300  153.2170 C   0  0  0  0  0  2  0  0  0  0  0  0
  159.3250  213.5030  153.4610 N   0  0  0  0  0  0  0  0  0  0  0  0
  157.5470  214.3080  151.9280 C   0  0  0  0  0  0  0  0  0  0  0  0
  156.7520  214.4170  152.8990 O   0  0  0  0  0  0  0  0  0  0  0  0
  157.8610  214.2720  149.5020 C   0  0  0  0  0  0  0  0  0  0  0  0
  157.0450  214.4190  150.6270 O   0  0  0  0  0  0  0  0  0  0  0  0
  159.0350  214.1220  152.1530 C   0  0  2  0  0  3  0  0  0  0  0  0
  159.3250  213.9720  149.6580 C   0  0  2  0  0  3  0  0  0  0  0  0
  157.3710  214.4500  148.3570 O   0  0  0  0  0  0  0  0  0  0  0  0
  159.7610  213.1460  148.6210 O   0  0  0  0  0  1  0  0  0  0  0  0
  159.5770  213.2790  150.9910 C   0  0  0  0  0  2  0  0  0  0  0  0
  157.5490  211.9670  154.1010 C   0  0  0  0  0  1  0  0  0  0  0  0
  158.0890  213.3770  154.2280 C   0  0  0  0  0  2  0  0  0  0  0  0
  1 27  1  6  0  0  0
  2  4  2  0  0  0  0
  4 20  1  0  0  0  0
  4 16  1  0  0  0  0
  5 10  2  0  0  0  0
  6 20  1  6  0  0  0
  6  5  1  0  0  0  0
  6 19  1  0  0  0  0
  7 12  1  0  0  0  0
  7 11  2  0  0  0  0
  9 16  2  0  0  0  0
 10 18  1  0  0  0  0
 11  3  1  0  0  0  0
 12 14  1  0  0  0  0
 13  3  1  0  0  0  0
 13  1  1  0  0  0  0
 14  1  1  0  0  0  0
 15 11  1  0  0  0  0
 16  8  1  0  0  0  0
 17 18  2  0  0  0  0
 17 15  1  0  0  0  0
 19  8  1  6  0  0  0
 19 17  1  0  0  0  0
 21  5  1  0  0  0  0
 22 21  1  0  0  0  0
 23 22  1  0  0  0  0
 24 26  2  0  0  0  0
 25 26  1  0  0  0  0
 26 23  1  0  0  0  0
 28 29  1  0  0  0  0
 28 27  1  0  0  0  0
 29 40  1  0  0  0  0
 30 34  1  0  0  0  0
 30 31  2  0  0  0  0
 32 35  1  0  0  0  0
 32 33  1  0  0  0  0
 33 30  1  0  0  0  0
 34 29  1  1  0  0  0
 35 37  1  6  0  0  0
 35 38  1  0  0  0  0
 36 32  2  0  0  0  0
 38 34  1  0  0  0  0
 39 40  1  0  0  0  0
M  END
>  <MODEL>
9

>  <REMARK>
 VINA RESULT:      -3.3      2.006      2.528
  Name = 
  9 active torsions:
  status: ('A' for Active; 'I' for Inactive)
    1  A    between atoms: C_2  and  C_25
    2  A    between atoms: C_10  and  C_35
    3  A    between atoms: C_10  and  C_39
    4  A    between atoms: C_11  and  N_36
    5  A    between atoms: C_14  and  C_16
    6  A    between atoms: C_16  and  C_39
    7  A    between atoms: C_24  and  N_36
    8  A    between atoms: C_25  and  C_31
    9  A    between atoms: C_31  and  N_36
                            x       y       z     vdW  Elec       q    Type
                         _______ _______ _______ _____ _____    ______ ____

>  <TORSDO>
F 9

$$$$
