=
 OpenBabel11072414523D

 47 52  0  0  1  0  0  0  0  0999 V2000
  160.9850  209.7260  155.0200 C   0  0  0  0  0  0  0  0  0  0  0  0
  159.9580  210.1010  152.5620 N   0  0  0  0  0  0  0  0  0  0  0  0
  161.9980  207.9680  155.9050 N   0  0  0  0  0  2  0  0  0  0  0  0
  161.6700  207.6920  154.6650 O   0  0  0  0  0  0  0  0  0  0  0  0
  160.4140  210.9220  154.7490 N   0  0  0  0  0  2  0  0  0  0  0  0
  161.7100  209.8280  157.2510 O   0  0  0  0  0  0  0  0  0  0  0  0
  159.8920  211.1100  153.4940 C   0  0  0  0  0  0  0  0  0  0  0  0
  161.0650  208.7220  154.1170 C   0  0  0  0  0  0  0  0  0  0  0  0
  160.5440  208.8960  152.8430 C   0  0  2  0  0  3  0  0  0  0  0  0
  161.5780  209.2310  156.1490 C   0  0  0  0  0  0  0  0  0  0  0  0
  161.8070  208.0750  150.8810 C   0  0  0  0  0  2  0  0  0  0  0  0
  160.6400  207.8160  151.8120 C   0  0  1  0  0  3  0  0  0  0  0  0
  162.6510  206.8190  150.9360 C   0  0  0  0  0  2  0  0  0  0  0  0
  160.9220  206.4780  152.4720 C   0  0  0  0  0  2  0  0  0  0  0  0
  162.3000  206.1120  152.1600 N   0  0  0  0  0  0  0  0  0  0  0  0
  162.4080  204.6600  151.9710 C   0  0  0  0  0  2  0  0  0  0  0  0
  161.1260  204.0000  151.4550 C   0  0  2  0  0  3  0  0  0  0  0  0
  160.6200  203.0240  152.4990 C   0  0  0  0  0  1  0  0  0  0  0  0
  161.4290  203.0880  147.7580 N   0  0  0  0  0  2  0  0  0  0  0  0
  161.4040  203.2910  150.2140 N   0  0  0  0  0  2  0  0  0  0  0  0
  160.7050  205.0350  148.8240 O   0  0  0  0  0  0  0  0  0  0  0  0
  161.1560  203.8600  148.9270 C   0  0  0  0  0  0  0  0  0  0  0  0
  161.1780  203.6000  146.4190 C   0  0  0  0  0  2  0  0  0  0  0  0
  162.3950  204.3590  145.9170 C   0  0  0  0  0  2  0  0  0  0  0  0
  162.1350  205.8550  145.8830 C   0  0  0  0  0  2  0  0  0  0  0  0
  160.6440  206.1320  145.9090 C   0  0  0  0  0  1  0  0  0  0  0  0
  159.2420  212.4150  153.1190 C   0  0  1  0  0  3  0  0  0  0  0  0
  158.7690  212.1810  150.7320 C   0  0  1  0  0  3  0  0  0  0  0  0
  157.1570  213.5530  148.9370 C   0  0  0  0  0  3  0  0  0  0  0  0
  160.2380  212.5150  150.4670 C   0  0  0  0  0  2  0  0  0  0  0  0
  159.5810  214.2880  148.7130 C   0  0  0  0  0  3  0  0  0  0  0  0
  156.9330  213.6600  150.4360 C   0  0  0  0  0  2  0  0  0  0  0  0
  158.2720  213.7770  148.1990 C   0  0  0  0  0  0  0  0  0  0  0  0
  158.1990  212.2320  152.1050 N   0  0  0  0  0  0  0  0  0  0  0  0
  160.4080  213.7830  149.6520 C   0  0  0  0  0  3  0  0  0  0  0  0
  158.1940  213.4250  151.2460 C   0  0  1  0  0  3  0  0  0  0  0  0
  158.1330  213.7020  146.6960 C   0  0  0  0  0  0  0  0  0  0  0  0
  156.9910  214.3620  146.2670 F   0  0  0  0  0  0  0  0  0  0  0  0
  158.0220  212.3760  146.3090 F   0  0  0  0  0  0  0  0  0  0  0  0
  159.6720  213.5840  144.7820 N   0  0  0  0  0  1  0  0  0  0  0  0
  159.3570  214.3020  146.0090 C   0  0  0  0  0  2  0  0  0  0  0  0
  157.6860  214.3480  156.6350 C   0  0  0  0  0  3  0  0  0  0  0  0
  157.2980  213.1990  154.5380 C   0  0  0  0  0  3  0  0  0  0  0  0
  159.0680  214.2460  156.4370 C   0  0  0  0  0  3  0  0  0  0  0  0
  158.6840  213.0970  154.3340 C   0  0  0  0  0  0  0  0  0  0  0  0
  159.5660  213.6200  155.2900 C   0  0  0  0  0  3  0  0  0  0  0  0
  156.8020  213.8250  155.6860 C   0  0  0  0  0  3  0  0  0  0  0  0
  1 10  1  0  0  0  0
  2  7  2  0  0  0  0
  3 10  1  0  0  0  0
  4  3  1  0  0  0  0
  5  1  1  0  0  0  0
  7  5  1  0  0  0  0
  8  4  1  0  0  0  0
  8  1  2  0  0  0  0
  9  2  1  6  0  0  0
  9  8  1  0  0  0  0
 10  6  2  0  0  0  0
 11 13  1  0  0  0  0
 12 11  1  6  0  0  0
 12 14  1  0  0  0  0
 12  9  1  0  0  0  0
 13 15  1  0  0  0  0
 15 14  1  0  0  0  0
 16 15  1  0  0  0  0
 17 16  1  0  0  0  0
 17 18  1  1  0  0  0
 19 22  1  0  0  0  0
 20 17  1  0  0  0  0
 21 22  2  0  0  0  0
 22 20  1  0  0  0  0
 23 19  1  0  0  0  0
 24 23  1  0  0  0  0
 25 26  1  0  0  0  0
 25 24  1  0  0  0  0
 27  7  1  1  0  0  0
 27 45  1  0  0  0  0
 28 30  1  1  0  0  0
 28 36  1  0  0  0  0
 28 34  1  0  0  0  0
 29 32  1  0  0  0  0
 31 35  2  0  0  0  0
 33 31  1  0  0  0  0
 33 29  2  0  0  0  0
 34 27  1  0  0  0  0
 35 30  1  0  0  0  0
 36 32  1  6  0  0  0
 36 34  1  0  0  0  0
 37 33  1  0  0  0  0
 38 37  1  0  0  0  0
 39 37  1  0  0  0  0
 40 41  1  0  0  0  0
 41 37  1  0  0  0  0
 43 47  1  0  0  0  0
 44 42  1  0  0  0  0
 45 43  2  0  0  0  0
 45 46  1  0  0  0  0
 46 44  2  0  0  0  0
 47 42  2  0  0  0  0
M  END
>  <MODEL>
1

>  <REMARK>
 VINA RESULT:      -6.1      0.000      0.000
  Name = 
  12 active torsions:
  status: ('A' for Active; 'I' for Inactive)
    1  A    between atoms: C_8  and  C_26
    2  A    between atoms: C_9  and  C_28
    3  A    between atoms: C_9  and  N_40
    4  A    between atoms: C_10  and  C_29
    5  A    between atoms: C_10  and  C_39
    6  A    between atoms: C_15  and  N_17
    7  A    between atoms: C_15  and  C_26
    8  A    between atoms: C_21  and  C_45
    9  A    between atoms: C_25  and  C_30
   10  A    between atoms: C_25  and  C_32
   11  A    between atoms: C_25  and  N_41
   12  A    between atoms: C_28  and  N_31
                            x       y       z     vdW  Elec       q    Type
                         _______ _______ _______ _____ _____    ______ ____

>  <TORSDO>
F 12

$$$$
=
 OpenBabel11072414523D

 47 52  0  0  1  0  0  0  0  0999 V2000
  160.4710  209.3090  155.1730 C   0  0  0  0  0  0  0  0  0  0  0  0
  160.1840  210.8540  152.9890 N   0  0  0  0  0  0  0  0  0  0  0  0
  159.8070  209.6270  157.2600 N   0  0  0  0  0  2  0  0  0  0  0  0
  159.4380  210.6550  156.5330 O   0  0  0  0  0  0  0  0  0  0  0  0
  160.9860  208.8570  154.0060 N   0  0  0  0  0  2  0  0  0  0  0  0
  160.9690  207.6820  156.7910 O   0  0  0  0  0  0  0  0  0  0  0  0
  160.8370  209.6480  152.8950 C   0  0  0  0  0  0  0  0  0  0  0  0
  159.8220  210.4890  155.2870 C   0  0  0  0  0  0  0  0  0  0  0  0
  159.6600  211.3010  154.1730 C   0  0  2  0  0  3  0  0  0  0  0  0
  160.4560  208.7760  156.4330 C   0  0  0  0  0  0  0  0  0  0  0  0
  159.6890  213.6920  153.5440 C   0  0  0  0  0  2  0  0  0  0  0  0
  158.9230  212.5990  154.2590 C   0  0  1  0  0  3  0  0  0  0  0  0
  158.7190  214.2710  152.5360 C   0  0  0  0  0  2  0  0  0  0  0  0
  157.5850  212.4950  153.5490 C   0  0  0  0  0  2  0  0  0  0  0  0
  157.6720  213.2800  152.3220 N   0  0  0  0  0  0  0  0  0  0  0  0
  156.3870  213.9340  152.0460 C   0  0  0  0  0  2  0  0  0  0  0  0
  156.2160  214.3860  150.5920 C   0  0  2  0  0  3  0  0  0  0  0  0
  154.7400  214.3890  150.2470 C   0  0  0  0  0  1  0  0  0  0  0  0
  157.5340  212.5920  147.4870 N   0  0  0  0  0  2  0  0  0  0  0  0
  156.9260  213.4730  149.7080 N   0  0  0  0  0  2  0  0  0  0  0  0
  156.1310  214.4420  147.7350 O   0  0  0  0  0  0  0  0  0  0  0  0
  156.8290  213.5440  148.2840 C   0  0  0  0  0  0  0  0  0  0  0  0
  157.4590  212.5960  146.0340 C   0  0  0  0  0  2  0  0  0  0  0  0
  158.3100  213.7240  145.4730 C   0  0  0  0  0  2  0  0  0  0  0  0
  159.7730  213.5430  145.8370 C   0  0  0  0  0  2  0  0  0  0  0  0
  160.3220  212.2790  145.2030 C   0  0  0  0  0  1  0  0  0  0  0  0
  161.3820  209.2100  151.5620 C   0  0  1  0  0  3  0  0  0  0  0  0
  160.6710  206.8760  151.7100 C   0  0  1  0  0  3  0  0  0  0  0  0
  160.7690  204.7110  149.9760 C   0  0  0  0  0  3  0  0  0  0  0  0
  161.7020  206.6930  152.8240 C   0  0  0  0  0  2  0  0  0  0  0  0
  162.6490  204.5820  151.6840 C   0  0  0  0  0  3  0  0  0  0  0  0
  160.9060  206.1350  149.4640 C   0  0  0  0  0  2  0  0  0  0  0  0
  161.4680  204.0520  150.9330 C   0  0  0  0  0  0  0  0  0  0  0  0
  160.5630  208.1540  150.9570 N   0  0  0  0  0  0  0  0  0  0  0  0
  162.7670  205.6730  152.4680 C   0  0  0  0  0  3  0  0  0  0  0  0
  161.4670  207.0900  150.5000 C   0  0  1  0  0  3  0  0  0  0  0  0
  161.1650  202.5840  151.1230 C   0  0  0  0  0  0  0  0  0  0  0  0
  160.0380  202.4060  151.9140 F   0  0  0  0  0  0  0  0  0  0  0  0
  162.2290  201.9720  151.7660 F   0  0  0  0  0  0  0  0  0  0  0  0
  159.5860  201.4230  149.6400 N   0  0  0  0  0  1  0  0  0  0  0  0
  160.9560  201.8960  149.7770 C   0  0  0  0  0  2  0  0  0  0  0  0
  161.6820  212.5780  148.8990 C   0  0  0  0  0  3  0  0  0  0  0  0
  162.2930  210.3040  149.4690 C   0  0  0  0  0  3  0  0  0  0  0  0
  160.8930  212.6560  150.0520 C   0  0  0  0  0  3  0  0  0  0  0  0
  161.5070  210.3810  150.6300 C   0  0  0  0  0  0  0  0  0  0  0  0
  160.8050  211.5590  150.9160 C   0  0  0  0  0  3  0  0  0  0  0  0
  162.3810  211.4020  148.6070 C   0  0  0  0  0  3  0  0  0  0  0  0
  1  8  2  0  0  0  0
  1 10  1  0  0  0  0
  4  3  1  0  0  0  0
  5  1  1  0  0  0  0
  7  2  2  0  0  0  0
  7  5  1  0  0  0  0
  8  4  1  0  0  0  0
  9  2  1  6  0  0  0
  9 12  1  0  0  0  0
  9  8  1  0  0  0  0
 10  6  2  0  0  0  0
 10  3  1  0  0  0  0
 12 11  1  6  0  0  0
 13 11  1  0  0  0  0
 14 12  1  0  0  0  0
 15 13  1  0  0  0  0
 15 14  1  0  0  0  0
 16 15  1  0  0  0  0
 17 18  1  6  0  0  0
 17 16  1  0  0  0  0
 19 22  1  0  0  0  0
 20 17  1  0  0  0  0
 21 22  2  0  0  0  0
 22 20  1  0  0  0  0
 23 19  1  0  0  0  0
 24 25  1  0  0  0  0
 24 23  1  0  0  0  0
 26 25  1  0  0  0  0
 27 45  1  6  0  0  0
 27  7  1  0  0  0  0
 28 30  1  1  0  0  0
 29 33  2  0  0  0  0
 31 35  2  0  0  0  0
 32 29  1  0  0  0  0
 33 37  1  0  0  0  0
 33 31  1  0  0  0  0
 34 27  1  0  0  0  0
 34 28  1  0  0  0  0
 35 30  1  0  0  0  0
 36 32  1  6  0  0  0
 36 34  1  0  0  0  0
 36 28  1  0  0  0  0
 37 39  1  0  0  0  0
 37 38  1  0  0  0  0
 40 41  1  0  0  0  0
 41 37  1  0  0  0  0
 42 44  1  0  0  0  0
 43 45  2  0  0  0  0
 44 46  2  0  0  0  0
 45 46  1  0  0  0  0
 47 42  2  0  0  0  0
 47 43  1  0  0  0  0
M  END
>  <MODEL>
2

>  <REMARK>
 VINA RESULT:      -4.9      3.497      8.383
  Name = 
  12 active torsions:
  status: ('A' for Active; 'I' for Inactive)
    1  A    between atoms: C_8  and  C_26
    2  A    between atoms: C_9  and  C_28
    3  A    between atoms: C_9  and  N_40
    4  A    between atoms: C_10  and  C_29
    5  A    between atoms: C_10  and  C_39
    6  A    between atoms: C_15  and  N_17
    7  A    between atoms: C_15  and  C_26
    8  A    between atoms: C_21  and  C_45
    9  A    between atoms: C_25  and  C_30
   10  A    between atoms: C_25  and  C_32
   11  A    between atoms: C_25  and  N_41
   12  A    between atoms: C_28  and  N_31
                            x       y       z     vdW  Elec       q    Type
                         _______ _______ _______ _____ _____    ______ ____

>  <TORSDO>
F 12

$$$$
=
 OpenBabel11072414523D

 47 52  0  0  1  0  0  0  0  0999 V2000
  160.9490  209.6130  153.4420 C   0  0  0  0  0  0  0  0  0  0  0  0
  161.5840  209.4910  150.8300 N   0  0  0  0  0  0  0  0  0  0  0  0
  161.1250  208.0910  155.0400 N   0  0  0  0  0  2  0  0  0  0  0  0
  161.5660  207.5810  153.9130 O   0  0  0  0  0  0  0  0  0  0  0  0
  160.7310  210.7130  152.6860 N   0  0  0  0  0  2  0  0  0  0  0  0
  160.2370  210.1490  155.6140 O   0  0  0  0  0  0  0  0  0  0  0  0
  161.0570  210.6480  151.3540 C   0  0  0  0  0  0  0  0  0  0  0  0
  161.4710  208.4670  152.9480 C   0  0  0  0  0  0  0  0  0  0  0  0
  161.8070  208.3840  151.6040 C   0  0  2  0  0  3  0  0  0  0  0  0
  160.7330  209.3580  154.7680 C   0  0  0  0  0  0  0  0  0  0  0  0
  161.3950  206.0190  151.0080 C   0  0  0  0  0  2  0  0  0  0  0  0
  162.4120  207.1410  151.0310 C   0  0  1  0  0  3  0  0  0  0  0  0
  161.3480  205.5490  149.5700 C   0  0  0  0  0  2  0  0  0  0  0  0
  162.8160  207.3680  149.5850 C   0  0  0  0  0  2  0  0  0  0  0  0
  161.8880  206.6200  148.7430 N   0  0  0  0  0  0  0  0  0  0  0  0
  162.5890  206.0730  147.5760 C   0  0  0  0  0  2  0  0  0  0  0  0
  161.7770  206.1250  146.2780 C   0  0  2  0  0  3  0  0  0  0  0  0
  160.3690  206.5900  146.5950 C   0  0  0  0  0  1  0  0  0  0  0  0
  161.2380  202.3870  145.7050 N   0  0  0  0  0  2  0  0  0  0  0  0
  161.7330  204.8010  145.6740 N   0  0  0  0  0  2  0  0  0  0  0  0
  160.7500  203.7660  147.5240 O   0  0  0  0  0  0  0  0  0  0  0  0
  161.2200  203.6560  146.3570 C   0  0  0  0  0  0  0  0  0  0  0  0
  160.7510  201.1790  146.3540 C   0  0  0  0  0  2  0  0  0  0  0  0
  161.3330  201.0710  147.7540 C   0  0  0  0  0  2  0  0  0  0  0  0
  160.2530  201.2200  148.8110 C   0  0  0  0  0  2  0  0  0  0  0  0
  160.8750  201.2910  150.1930 C   0  0  0  0  0  1  0  0  0  0  0  0
  160.8430  211.8330  150.4510 C   0  0  1  0  0  3  0  0  0  0  0  0
  161.5760  211.6320  148.1280 C   0  0  1  0  0  3  0  0  0  0  0  0
  160.6150  212.5930  145.7080 C   0  0  0  0  0  3  0  0  0  0  0  0
  162.8410  212.3960  148.5210 C   0  0  0  0  0  2  0  0  0  0  0  0
  162.5550  214.0150  146.5330 C   0  0  0  0  0  3  0  0  0  0  0  0
  159.7250  212.5300  146.9370 C   0  0  0  0  0  2  0  0  0  0  0  0
  161.8240  213.1810  145.5290 C   0  0  0  0  0  0  0  0  0  0  0  0
  160.4650  211.4230  149.0940 N   0  0  0  0  0  0  0  0  0  0  0  0
  162.9820  213.7100  147.7770 C   0  0  0  0  0  3  0  0  0  0  0  0
  160.4990  212.6180  148.2390 C   0  0  1  0  0  3  0  0  0  0  0  0
  162.3990  213.1690  144.1310 C   0  0  0  0  0  0  0  0  0  0  0  0
  163.7510  212.8570  144.1510 F   0  0  0  0  0  0  0  0  0  0  0  0
  162.2660  214.4270  143.5670 F   0  0  0  0  0  0  0  0  0  0  0  0
  161.6050  212.6230  141.8690 N   0  0  0  0  0  1  0  0  0  0  0  0
  161.6580  212.1660  143.2510 C   0  0  0  0  0  2  0  0  0  0  0  0
  157.8800  214.4530  152.1470 C   0  0  0  0  0  3  0  0  0  0  0  0
  159.0170  213.5670  150.1990 C   0  0  0  0  0  3  0  0  0  0  0  0
  158.6700  213.6480  152.9760 C   0  0  0  0  0  3  0  0  0  0  0  0
  159.8140  212.7610  151.0290 C   0  0  0  0  0  0  0  0  0  0  0  0
  159.6340  212.8030  152.4170 C   0  0  0  0  0  3  0  0  0  0  0  0
  158.0540  214.4130  150.7600 C   0  0  0  0  0  3  0  0  0  0  0  0
  1 10  1  0  0  0  0
  2  7  2  0  0  0  0
  4  3  1  0  0  0  0
  5  1  1  0  0  0  0
  7  5  1  0  0  0  0
  8  1  2  0  0  0  0
  8  4  1  0  0  0  0
  9  2  1  1  0  0  0
  9  8  1  0  0  0  0
 10  3  1  0  0  0  0
 10  6  2  0  0  0  0
 11 12  1  0  0  0  0
 12 14  1  6  0  0  0
 12  9  1  0  0  0  0
 13 11  1  0  0  0  0
 15 13  1  0  0  0  0
 15 14  1  0  0  0  0
 16 15  1  0  0  0  0
 17 18  1  1  0  0  0
 17 16  1  0  0  0  0
 19 23  1  0  0  0  0
 19 22  1  0  0  0  0
 20 17  1  0  0  0  0
 20 22  1  0  0  0  0
 22 21  2  0  0  0  0
 23 24  1  0  0  0  0
 24 25  1  0  0  0  0
 25 26  1  0  0  0  0
 27 45  1  1  0  0  0
 27  7  1  0  0  0  0
 28 36  1  0  0  0  0
 28 30  1  1  0  0  0
 28 34  1  0  0  0  0
 29 32  1  0  0  0  0
 31 35  2  0  0  0  0
 33 29  2  0  0  0  0
 33 31  1  0  0  0  0
 34 27  1  0  0  0  0
 35 30  1  0  0  0  0
 36 32  1  6  0  0  0
 36 34  1  0  0  0  0
 37 38  1  0  0  0  0
 37 33  1  0  0  0  0
 39 37  1  0  0  0  0
 40 41  1  0  0  0  0
 41 37  1  0  0  0  0
 42 44  1  0  0  0  0
 43 47  1  0  0  0  0
 43 45  2  0  0  0  0
 45 46  1  0  0  0  0
 46 44  2  0  0  0  0
 47 42  2  0  0  0  0
M  END
>  <MODEL>
3

>  <REMARK>
 VINA RESULT:      -4.8      2.460      3.863
  Name = 
  12 active torsions:
  status: ('A' for Active; 'I' for Inactive)
    1  A    between atoms: C_8  and  C_26
    2  A    between atoms: C_9  and  C_28
    3  A    between atoms: C_9  and  N_40
    4  A    between atoms: C_10  and  C_29
    5  A    between atoms: C_10  and  C_39
    6  A    between atoms: C_15  and  N_17
    7  A    between atoms: C_15  and  C_26
    8  A    between atoms: C_21  and  C_45
    9  A    between atoms: C_25  and  C_30
   10  A    between atoms: C_25  and  C_32
   11  A    between atoms: C_25  and  N_41
   12  A    between atoms: C_28  and  N_31
                            x       y       z     vdW  Elec       q    Type
                         _______ _______ _______ _____ _____    ______ ____

>  <TORSDO>
F 12

$$$$
=
 OpenBabel11072414523D

 47 52  0  0  1  0  0  0  0  0999 V2000
  161.1260  209.2560  154.6700 C   0  0  0  0  0  0  0  0  0  0  0  0
  160.4470  209.8870  152.1440 N   0  0  0  0  0  0  0  0  0  0  0  0
  161.4250  210.5430  156.4460 N   0  0  0  0  0  2  0  0  0  0  0  0
  161.0930  211.2960  155.4230 O   0  0  0  0  0  0  0  0  0  0  0  0
  161.0130  208.2480  153.7750 N   0  0  0  0  0  2  0  0  0  0  0  0
  161.7520  208.2670  156.7050 O   0  0  0  0  0  0  0  0  0  0  0  0
  160.6660  208.5740  152.4880 C   0  0  0  0  0  0  0  0  0  0  0  0
  160.9110  210.5530  154.3550 C   0  0  0  0  0  0  0  0  0  0  0  0
  160.5570  210.9010  153.0580 C   0  0  2  0  0  3  0  0  0  0  0  0
  161.4540  209.2660  155.9980 C   0  0  0  0  0  0  0  0  0  0  0  0
  160.6250  212.5610  151.2270 C   0  0  0  0  0  2  0  0  0  0  0  0
  160.2850  212.3230  152.6830 C   0  0  1  0  0  3  0  0  0  0  0  0
  159.3650  213.1260  150.6070 C   0  0  0  0  0  2  0  0  0  0  0  0
  158.8050  212.6320  152.8220 C   0  0  0  0  0  2  0  0  0  0  0  0
  158.2530  212.7690  151.4790 N   0  0  0  0  0  0  0  0  0  0  0  0
  157.2210  213.8120  151.4580 C   0  0  0  0  0  2  0  0  0  0  0  0
  156.6350  214.0840  150.0690 C   0  0  2  0  0  3  0  0  0  0  0  0
  155.1220  214.1030  150.1670 C   0  0  0  0  0  1  0  0  0  0  0  0
  157.6890  212.2000  146.9170 N   0  0  0  0  0  2  0  0  0  0  0  0
  157.0540  213.0390  149.1460 N   0  0  0  0  0  2  0  0  0  0  0  0
  157.2050  214.4530  147.2920 O   0  0  0  0  0  0  0  0  0  0  0  0
  157.3090  213.2860  147.7620 C   0  0  0  0  0  0  0  0  0  0  0  0
  157.9410  212.3810  145.4960 C   0  0  0  0  0  2  0  0  0  0  0  0
  159.4220  212.2030  145.2040 C   0  0  0  0  0  2  0  0  0  0  0  0
  160.2680  212.5700  146.4100 C   0  0  0  0  0  2  0  0  0  0  0  0
  160.6110  214.0480  146.3840 C   0  0  0  0  0  1  0  0  0  0  0  0
  160.5200  207.5060  151.4370 C   0  0  1  0  0  3  0  0  0  0  0  0
  160.6700  207.0030  149.0500 C   0  0  1  0  0  3  0  0  0  0  0  0
  162.7760  206.6470  147.2770 C   0  0  0  0  0  3  0  0  0  0  0  0
  160.0160  205.6540  149.3520 C   0  0  0  0  0  2  0  0  0  0  0  0
  161.8360  204.4030  148.0190 C   0  0  0  0  0  3  0  0  0  0  0  0
  162.9770  207.3580  148.6040 C   0  0  0  0  0  2  0  0  0  0  0  0
  162.2650  205.4200  147.0080 C   0  0  0  0  0  0  0  0  0  0  0  0
  161.0460  207.9420  150.1390 N   0  0  0  0  0  0  0  0  0  0  0  0
  160.9100  204.4810  148.9980 C   0  0  0  0  0  3  0  0  0  0  0  0
  161.9930  206.9200  149.6710 C   0  0  1  0  0  3  0  0  0  0  0  0
  162.3150  204.9490  145.5730 C   0  0  0  0  0  0  0  0  0  0  0  0
  163.5860  204.5030  145.2400 F   0  0  0  0  0  0  0  0  0  0  0  0
  162.0050  206.0030  144.7300 F   0  0  0  0  0  0  0  0  0  0  0  0
  160.2420  204.2670  144.4420 N   0  0  0  0  0  1  0  0  0  0  0  0
  161.3050  203.8300  145.3360 C   0  0  0  0  0  2  0  0  0  0  0  0
  162.4720  203.8690  152.6560 C   0  0  0  0  0  3  0  0  0  0  0  0
  160.4310  205.1110  152.2520 C   0  0  0  0  0  3  0  0  0  0  0  0
  163.2270  204.9860  152.2790 C   0  0  0  0  0  3  0  0  0  0  0  0
  161.1860  206.2340  151.8770 C   0  0  0  0  0  0  0  0  0  0  0  0
  162.5850  206.1660  151.8890 C   0  0  0  0  0  3  0  0  0  0  0  0
  161.0750  203.9320  152.6420 C   0  0  0  0  0  3  0  0  0  0  0  0
  1 10  1  0  0  0  0
  2  7  2  0  0  0  0
  4  3  1  0  0  0  0
  5  1  1  0  0  0  0
  7  5  1  0  0  0  0
  8  1  2  0  0  0  0
  8  4  1  0  0  0  0
  9  2  1  1  0  0  0
  9  8  1  0  0  0  0
 10  3  1  0  0  0  0
 10  6  2  0  0  0  0
 12 11  1  6  0  0  0
 12 14  1  0  0  0  0
 12  9  1  0  0  0  0
 13 11  1  0  0  0  0
 13 15  1  0  0  0  0
 15 14  1  0  0  0  0
 16 15  1  0  0  0  0
 17 18  1  1  0  0  0
 17 16  1  0  0  0  0
 19 22  1  0  0  0  0
 20 17  1  0  0  0  0
 21 22  2  0  0  0  0
 22 20  1  0  0  0  0
 23 19  1  0  0  0  0
 24 23  1  0  0  0  0
 24 25  1  0  0  0  0
 26 25  1  0  0  0  0
 27 45  1  1  0  0  0
 27  7  1  0  0  0  0
 28 30  1  1  0  0  0
 28 36  1  0  0  0  0
 28 34  1  0  0  0  0
 29 32  1  0  0  0  0
 31 35  2  0  0  0  0
 33 29  2  0  0  0  0
 33 31  1  0  0  0  0
 34 27  1  0  0  0  0
 35 30  1  0  0  0  0
 36 32  1  6  0  0  0
 36 34  1  0  0  0  0
 37 33  1  0  0  0  0
 38 37  1  0  0  0  0
 39 37  1  0  0  0  0
 40 41  1  0  0  0  0
 41 37  1  0  0  0  0
 43 47  2  0  0  0  0
 44 42  2  0  0  0  0
 45 46  2  0  0  0  0
 45 43  1  0  0  0  0
 46 44  1  0  0  0  0
 47 42  1  0  0  0  0
M  END
>  <MODEL>
4

>  <REMARK>
 VINA RESULT:      -4.5      2.923      8.092
  Name = 
  12 active torsions:
  status: ('A' for Active; 'I' for Inactive)
    1  A    between atoms: C_8  and  C_26
    2  A    between atoms: C_9  and  C_28
    3  A    between atoms: C_9  and  N_40
    4  A    between atoms: C_10  and  C_29
    5  A    between atoms: C_10  and  C_39
    6  A    between atoms: C_15  and  N_17
    7  A    between atoms: C_15  and  C_26
    8  A    between atoms: C_21  and  C_45
    9  A    between atoms: C_25  and  C_30
   10  A    between atoms: C_25  and  C_32
   11  A    between atoms: C_25  and  N_41
   12  A    between atoms: C_28  and  N_31
                            x       y       z     vdW  Elec       q    Type
                         _______ _______ _______ _____ _____    ______ ____

>  <TORSDO>
F 12

$$$$
=
 OpenBabel11072414523D

 47 52  0  0  1  0  0  0  0  0999 V2000
  159.2230  212.2090  152.4840 C   0  0  0  0  0  0  0  0  0  0  0  0
  160.9050  211.1790  150.6550 N   0  0  0  0  0  0  0  0  0  0  0  0
  158.4140  214.2580  152.7040 N   0  0  0  0  0  2  0  0  0  0  0  0
  159.2000  214.2190  151.6540 O   0  0  0  0  0  0  0  0  0  0  0  0
  159.5530  210.9020  152.5940 N   0  0  0  0  0  2  0  0  0  0  0  0
  157.7810  212.6820  154.2750 O   0  0  0  0  0  0  0  0  0  0  0  0
  160.4110  210.3800  151.6590 C   0  0  0  0  0  0  0  0  0  0  0  0
  159.6930  213.0110  151.5020 C   0  0  0  0  0  0  0  0  0  0  0  0
  160.5610  212.4990  150.5470 C   0  0  2  0  0  3  0  0  0  0  0  0
  158.4160  213.0150  153.2390 C   0  0  0  0  0  0  0  0  0  0  0  0
  162.0540  212.5720  148.5770 C   0  0  0  0  0  2  0  0  0  0  0  0
  161.0770  213.3520  149.4320 C   0  0  1  0  0  3  0  0  0  0  0  0
  161.5190  212.6670  147.1650 C   0  0  0  0  0  2  0  0  0  0  0  0
  159.9440  213.7550  148.5060 C   0  0  0  0  0  2  0  0  0  0  0  0
  160.1080  213.0180  147.2570 N   0  0  0  0  0  0  0  0  0  0  0  0
  159.7050  213.8530  146.1190 C   0  0  0  0  0  2  0  0  0  0  0  0
  158.7300  213.1670  145.1560 C   0  0  2  0  0  3  0  0  0  0  0  0
  157.6520  212.4690  145.9600 C   0  0  0  0  0  1  0  0  0  0  0  0
  160.5120  211.4300  142.2570 N   0  0  0  0  0  2  0  0  0  0  0  0
  159.4460  212.1930  144.3450 N   0  0  0  0  0  2  0  0  0  0  0  0
  159.5960  213.5680  142.4610 O   0  0  0  0  0  0  0  0  0  0  0  0
  159.8380  212.4490  142.9940 C   0  0  0  0  0  0  0  0  0  0  0  0
  160.9170  211.6200  140.8730 C   0  0  0  0  0  2  0  0  0  0  0  0
  162.3140  211.0580  140.6590 C   0  0  0  0  0  2  0  0  0  0  0  0
  163.0290  211.7780  139.5290 C   0  0  0  0  0  2  0  0  0  0  0  0
  162.6330  211.1820  138.1910 C   0  0  0  0  0  1  0  0  0  0  0  0
  160.8230  208.9330  151.7170 C   0  0  1  0  0  3  0  0  0  0  0  0
  161.6070  208.0970  149.5580 C   0  0  1  0  0  3  0  0  0  0  0  0
  163.3730  206.1000  148.7840 C   0  0  0  0  0  3  0  0  0  0  0  0
  160.1710  207.6560  149.2720 C   0  0  0  0  0  2  0  0  0  0  0  0
  160.9670  205.3020  148.5810 C   0  0  0  0  0  3  0  0  0  0  0  0
  163.3980  206.6690  150.1920 C   0  0  0  0  0  2  0  0  0  0  0  0
  162.3520  205.5540  148.0760 C   0  0  0  0  0  0  0  0  0  0  0  0
  161.9950  208.6660  150.8760 N   0  0  0  0  0  0  0  0  0  0  0  0
  160.0500  206.1560  149.0820 C   0  0  0  0  0  3  0  0  0  0  0  0
  162.0560  207.2170  150.6380 C   0  0  1  0  0  3  0  0  0  0  0  0
  162.6860  204.9610  146.7270 C   0  0  0  0  0  0  0  0  0  0  0  0
  162.0510  203.7410  146.5480 F   0  0  0  0  0  0  0  0  0  0  0  0
  164.0510  204.7400  146.6440 F   0  0  0  0  0  0  0  0  0  0  0  0
  160.8570  205.8220  145.3280 N   0  0  0  0  0  1  0  0  0  0  0  0
  162.2840  205.9130  145.6040 C   0  0  0  0  0  2  0  0  0  0  0  0
  161.5190  207.6910  155.7780 C   0  0  0  0  0  3  0  0  0  0  0  0
  161.5610  209.4260  154.0870 C   0  0  0  0  0  3  0  0  0  0  0  0
  161.0380  206.7790  154.8320 C   0  0  0  0  0  3  0  0  0  0  0  0
  161.0830  208.5120  153.1340 C   0  0  0  0  0  0  0  0  0  0  0  0
  160.8190  207.1890  153.5130 C   0  0  0  0  0  3  0  0  0  0  0  0
  161.7810  209.0130  155.4060 C   0  0  0  0  0  3  0  0  0  0  0  0
  1  5  1  0  0  0  0
  1 10  1  0  0  0  0
  2  7  2  0  0  0  0
  3 10  1  0  0  0  0
  4  3  1  0  0  0  0
  7  5  1  0  0  0  0
  8  4  1  0  0  0  0
  8  1  2  0  0  0  0
  9  2  1  6  0  0  0
  9  8  1  0  0  0  0
 10  6  2  0  0  0  0
 11 12  1  0  0  0  0
 12 14  1  6  0  0  0
 12  9  1  0  0  0  0
 13 15  1  0  0  0  0
 13 11  1  0  0  0  0
 15 14  1  0  0  0  0
 16 15  1  0  0  0  0
 17 18  1  1  0  0  0
 17 16  1  0  0  0  0
 19 22  1  0  0  0  0
 20 17  1  0  0  0  0
 21 22  2  0  0  0  0
 22 20  1  0  0  0  0
 23 19  1  0  0  0  0
 24 23  1  0  0  0  0
 25 24  1  0  0  0  0
 26 25  1  0  0  0  0
 27  7  1  1  0  0  0
 27 45  1  0  0  0  0
 28 30  1  1  0  0  0
 28 36  1  0  0  0  0
 28 34  1  0  0  0  0
 29 32  1  0  0  0  0
 31 35  2  0  0  0  0
 33 31  1  0  0  0  0
 33 29  2  0  0  0  0
 34 27  1  0  0  0  0
 35 30  1  0  0  0  0
 36 32  1  6  0  0  0
 36 34  1  0  0  0  0
 37 33  1  0  0  0  0
 38 37  1  0  0  0  0
 39 37  1  0  0  0  0
 40 41  1  0  0  0  0
 41 37  1  0  0  0  0
 43 47  2  0  0  0  0
 44 42  2  0  0  0  0
 45 46  2  0  0  0  0
 45 43  1  0  0  0  0
 46 44  1  0  0  0  0
 47 42  1  0  0  0  0
M  END
>  <MODEL>
5

>  <REMARK>
 VINA RESULT:      -4.5      3.998      7.992
  Name = 
  12 active torsions:
  status: ('A' for Active; 'I' for Inactive)
    1  A    between atoms: C_8  and  C_26
    2  A    between atoms: C_9  and  C_28
    3  A    between atoms: C_9  and  N_40
    4  A    between atoms: C_10  and  C_29
    5  A    between atoms: C_10  and  C_39
    6  A    between atoms: C_15  and  N_17
    7  A    between atoms: C_15  and  C_26
    8  A    between atoms: C_21  and  C_45
    9  A    between atoms: C_25  and  C_30
   10  A    between atoms: C_25  and  C_32
   11  A    between atoms: C_25  and  N_41
   12  A    between atoms: C_28  and  N_31
                            x       y       z     vdW  Elec       q    Type
                         _______ _______ _______ _____ _____    ______ ____

>  <TORSDO>
F 12

$$$$
=
 OpenBabel11072414523D

 47 52  0  0  1  0  0  0  0  0999 V2000
  161.2050  207.6100  152.8170 C   0  0  0  0  0  0  0  0  0  0  0  0
  161.5430  208.9340  150.4990 N   0  0  0  0  0  0  0  0  0  0  0  0
  161.3820  205.4540  153.2840 N   0  0  0  0  0  2  0  0  0  0  0  0
  161.6420  205.6380  152.0100 O   0  0  0  0  0  0  0  0  0  0  0  0
  161.0300  208.9510  152.8230 N   0  0  0  0  0  2  0  0  0  0  0  0
  160.7900  206.8770  155.0090 O   0  0  0  0  0  0  0  0  0  0  0  0
  161.2040  209.6230  151.6400 C   0  0  0  0  0  0  0  0  0  0  0  0
  161.5430  206.9130  151.7090 C   0  0  0  0  0  0  0  0  0  0  0  0
  161.7240  207.5770  150.5030 C   0  0  2  0  0  3  0  0  0  0  0  0
  161.1040  206.6710  153.8060 C   0  0  0  0  0  0  0  0  0  0  0  0
  161.7040  205.3880  149.3520 C   0  0  0  0  0  2  0  0  0  0  0  0
  162.1250  206.8400  149.2650 C   0  0  1  0  0  3  0  0  0  0  0  0
  160.8660  205.1370  148.1160 C   0  0  0  0  0  2  0  0  0  0  0  0
  161.4060  207.4100  148.0550 C   0  0  0  0  0  2  0  0  0  0  0  0
  160.4110  206.4320  147.6280 N   0  0  0  0  0  0  0  0  0  0  0  0
  160.2990  206.4260  146.1650 C   0  0  0  0  0  2  0  0  0  0  0  0
  161.2260  205.4210  145.4720 C   0  0  2  0  0  3  0  0  0  0  0  0
  161.5170  205.9080  144.0660 C   0  0  0  0  0  1  0  0  0  0  0  0
  160.5330  201.6730  145.7370 N   0  0  0  0  0  2  0  0  0  0  0  0
  160.5810  204.1170  145.4160 N   0  0  0  0  0  2  0  0  0  0  0  0
  162.3870  202.9570  146.3400 O   0  0  0  0  0  0  0  0  0  0  0  0
  161.2230  202.9170  145.8520 C   0  0  0  0  0  0  0  0  0  0  0  0
  161.1380  200.4140  146.1430 C   0  0  0  0  0  2  0  0  0  0  0  0
  161.1900  200.3270  147.6590 C   0  0  0  0  0  2  0  0  0  0  0  0
  160.1230  201.1990  148.2970 C   0  0  0  0  0  2  0  0  0  0  0  0
  160.4880  201.5110  149.7360 C   0  0  0  0  0  1  0  0  0  0  0  0
  161.0270  211.1160  151.5700 C   0  0  1  0  0  3  0  0  0  0  0  0
  160.8660  211.4470  149.1530 C   0  0  1  0  0  3  0  0  0  0  0  0
  160.1650  213.5930  147.5380 C   0  0  0  0  0  3  0  0  0  0  0  0
  162.3760  211.2180  149.0790 C   0  0  0  0  0  2  0  0  0  0  0  0
  162.6940  213.3480  147.6600 C   0  0  0  0  0  3  0  0  0  0  0  0
  159.7740  213.5530  149.0050 C   0  0  0  0  0  2  0  0  0  0  0  0
  161.3820  213.4730  146.9510 C   0  0  0  0  0  0  0  0  0  0  0  0
  160.1550  211.5110  150.4580 N   0  0  0  0  0  0  0  0  0  0  0  0
  163.1230  212.4250  148.5460 C   0  0  0  0  0  3  0  0  0  0  0  0
  160.7210  212.7250  149.8530 C   0  0  1  0  0  3  0  0  0  0  0  0
  161.4530  213.6840  145.4560 C   0  0  0  0  0  0  0  0  0  0  0  0
  161.5510  212.4740  144.7860 F   0  0  0  0  0  0  0  0  0  0  0  0
  162.5800  214.4280  145.1480 F   0  0  0  0  0  0  0  0  0  0  0  0
  159.1110  213.5360  144.7240 N   0  0  0  0  0  1  0  0  0  0  0  0
  160.2250  214.4430  144.9590 C   0  0  0  0  0  2  0  0  0  0  0  0
  159.5020  212.6970  155.2710 C   0  0  0  0  0  3  0  0  0  0  0  0
  161.0770  211.2800  154.0950 C   0  0  0  0  0  3  0  0  0  0  0  0
  158.9260  213.0710  154.0510 C   0  0  0  0  0  3  0  0  0  0  0  0
  160.4980  211.6490  152.8700 C   0  0  0  0  0  0  0  0  0  0  0  0
  159.4240  212.5490  152.8530 C   0  0  0  0  0  3  0  0  0  0  0  0
  160.5760  211.8020  155.2930 C   0  0  0  0  0  3  0  0  0  0  0  0
  1  5  1  0  0  0  0
  1 10  1  0  0  0  0
  2  7  2  0  0  0  0
  3 10  1  0  0  0  0
  4  3  1  0  0  0  0
  7  5  1  0  0  0  0
  8  4  1  0  0  0  0
  8  1  2  0  0  0  0
  9  2  1  1  0  0  0
  9  8  1  0  0  0  0
 10  6  2  0  0  0  0
 12 14  1  6  0  0  0
 12 11  1  0  0  0  0
 12  9  1  0  0  0  0
 13 11  1  0  0  0  0
 15 14  1  0  0  0  0
 15 13  1  0  0  0  0
 16 15  1  0  0  0  0
 17 18  1  6  0  0  0
 17 16  1  0  0  0  0
 19 22  1  0  0  0  0
 19 23  1  0  0  0  0
 20 17  1  0  0  0  0
 20 22  1  0  0  0  0
 22 21  2  0  0  0  0
 23 24  1  0  0  0  0
 24 25  1  0  0  0  0
 25 26  1  0  0  0  0
 27  7  1  1  0  0  0
 27 45  1  0  0  0  0
 28 30  1  1  0  0  0
 28 36  1  0  0  0  0
 28 34  1  0  0  0  0
 29 32  1  0  0  0  0
 31 35  2  0  0  0  0
 33 29  2  0  0  0  0
 33 31  1  0  0  0  0
 34 27  1  0  0  0  0
 35 30  1  0  0  0  0
 36 32  1  6  0  0  0
 36 34  1  0  0  0  0
 37 33  1  0  0  0  0
 38 37  1  0  0  0  0
 39 37  1  0  0  0  0
 40 41  1  0  0  0  0
 41 37  1  0  0  0  0
 42 47  1  0  0  0  0
 43 47  2  0  0  0  0
 44 42  2  0  0  0  0
 45 43  1  0  0  0  0
 46 45  2  0  0  0  0
 46 44  1  0  0  0  0
M  END
>  <MODEL>
6

>  <REMARK>
 VINA RESULT:      -4.3      2.253      3.915
  Name = 
  12 active torsions:
  status: ('A' for Active; 'I' for Inactive)
    1  A    between atoms: C_8  and  C_26
    2  A    between atoms: C_9  and  C_28
    3  A    between atoms: C_9  and  N_40
    4  A    between atoms: C_10  and  C_29
    5  A    between atoms: C_10  and  C_39
    6  A    between atoms: C_15  and  N_17
    7  A    between atoms: C_15  and  C_26
    8  A    between atoms: C_21  and  C_45
    9  A    between atoms: C_25  and  C_30
   10  A    between atoms: C_25  and  C_32
   11  A    between atoms: C_25  and  N_41
   12  A    between atoms: C_28  and  N_31
                            x       y       z     vdW  Elec       q    Type
                         _______ _______ _______ _____ _____    ______ ____

>  <TORSDO>
F 12

$$$$
=
 OpenBabel11072414523D

 47 52  0  0  1  0  0  0  0  0999 V2000
  160.7910  209.4460  153.0900 C   0  0  0  0  0  0  0  0  0  0  0  0
  161.7650  209.3360  150.5850 N   0  0  0  0  0  0  0  0  0  0  0  0
  160.6980  207.8970  154.6690 N   0  0  0  0  0  2  0  0  0  0  0  0
  161.2670  207.3860  153.6020 O   0  0  0  0  0  0  0  0  0  0  0  0
  160.7140  210.5640  152.3320 N   0  0  0  0  0  2  0  0  0  0  0  0
  159.8130  209.9780  155.1570 O   0  0  0  0  0  0  0  0  0  0  0  0
  161.2130  210.5040  151.0550 C   0  0  0  0  0  0  0  0  0  0  0  0
  161.3340  208.2890  152.6490 C   0  0  0  0  0  0  0  0  0  0  0  0
  161.8440  208.2110  151.3610 C   0  0  2  0  0  3  0  0  0  0  0  0
  160.3890  209.1800  154.3700 C   0  0  0  0  0  0  0  0  0  0  0  0
  161.5150  205.7910  150.9710 C   0  0  0  0  0  2  0  0  0  0  0  0
  162.4760  206.9550  150.8510 C   0  0  1  0  0  3  0  0  0  0  0  0
  161.4150  205.2070  149.5780 C   0  0  0  0  0  2  0  0  0  0  0  0
  162.7920  207.0840  149.3720 C   0  0  0  0  0  2  0  0  0  0  0  0
  161.8570  206.2330  148.6430 N   0  0  0  0  0  0  0  0  0  0  0  0
  162.5210  205.6270  147.4830 C   0  0  0  0  0  2  0  0  0  0  0  0
  161.6140  204.7160  146.6490 C   0  0  2  0  0  3  0  0  0  0  0  0
  161.7110  203.3010  147.1830 C   0  0  0  0  0  1  0  0  0  0  0  0
  161.8130  205.4560  142.9060 N   0  0  0  0  0  2  0  0  0  0  0  0
  162.0360  204.7460  145.2560 N   0  0  0  0  0  2  0  0  0  0  0  0
  160.3530  206.2120  144.5640 O   0  0  0  0  0  0  0  0  0  0  0  0
  161.3520  205.5030  144.2560 C   0  0  0  0  0  0  0  0  0  0  0  0
  161.1480  206.1860  141.8380 C   0  0  0  0  0  2  0  0  0  0  0  0
  162.1640  206.6210  140.7940 C   0  0  0  0  0  2  0  0  0  0  0  0
  161.8150  207.9820  140.2190 C   0  0  0  0  0  2  0  0  0  0  0  0
  161.7680  207.9190  138.7050 C   0  0  0  0  0  1  0  0  0  0  0  0
  161.1640  211.7090  150.1540 C   0  0  1  0  0  3  0  0  0  0  0  0
  162.0580  211.7530  147.8790 C   0  0  1  0  0  3  0  0  0  0  0  0
  161.1200  212.7160  145.4510 C   0  0  0  0  0  3  0  0  0  0  0  0
  163.1750  212.6600  148.3980 C   0  0  0  0  0  2  0  0  0  0  0  0
  162.7830  214.3410  146.4810 C   0  0  0  0  0  3  0  0  0  0  0  0
  160.1750  212.4550  146.6120 C   0  0  0  0  0  2  0  0  0  0  0  0
  162.2410  213.4760  145.3870 C   0  0  0  0  0  0  0  0  0  0  0  0
  160.9320  211.3330  148.7550 N   0  0  0  0  0  0  0  0  0  0  0  0
  163.1720  214.0230  147.7330 C   0  0  0  0  0  3  0  0  0  0  0  0
  160.8470  212.5710  147.9660 C   0  0  1  0  0  3  0  0  0  0  0  0
  162.8960  213.6290  144.0330 C   0  0  0  0  0  0  0  0  0  0  0  0
  163.1510  212.3910  143.4600 F   0  0  0  0  0  0  0  0  0  0  0  0
  164.1100  214.2820  144.1790 F   0  0  0  0  0  0  0  0  0  0  0  0
  161.9130  213.8220  141.7880 N   0  0  0  0  0  1  0  0  0  0  0  0
  162.0160  214.4520  143.0970 C   0  0  0  0  0  2  0  0  0  0  0  0
  158.1510  214.4530  151.5380 C   0  0  0  0  0  3  0  0  0  0  0  0
  159.3110  213.3740  149.7050 C   0  0  0  0  0  3  0  0  0  0  0  0
  158.9500  213.7580  152.4540 C   0  0  0  0  0  3  0  0  0  0  0  0
  160.1180  212.6790  150.6210 C   0  0  0  0  0  0  0  0  0  0  0  0
  159.9300  212.8720  151.9960 C   0  0  0  0  0  3  0  0  0  0  0  0
  158.3320  214.2610  150.1650 C   0  0  0  0  0  3  0  0  0  0  0  0
  1 10  1  0  0  0  0
  2  7  2  0  0  0  0
  4  3  1  0  0  0  0
  5  1  1  0  0  0  0
  7  5  1  0  0  0  0
  8  1  2  0  0  0  0
  8  4  1  0  0  0  0
  9  2  1  1  0  0  0
  9  8  1  0  0  0  0
 10  3  1  0  0  0  0
 10  6  2  0  0  0  0
 12 14  1  6  0  0  0
 12 11  1  0  0  0  0
 12  9  1  0  0  0  0
 13 11  1  0  0  0  0
 15 14  1  0  0  0  0
 15 13  1  0  0  0  0
 16 15  1  0  0  0  0
 17 18  1  1  0  0  0
 17 16  1  0  0  0  0
 19 22  1  0  0  0  0
 20 17  1  0  0  0  0
 22 21  2  0  0  0  0
 22 20  1  0  0  0  0
 23 19  1  0  0  0  0
 24 23  1  0  0  0  0
 25 24  1  0  0  0  0
 26 25  1  0  0  0  0
 27 45  1  1  0  0  0
 27  7  1  0  0  0  0
 28 36  1  0  0  0  0
 28 30  1  1  0  0  0
 28 34  1  0  0  0  0
 29 32  1  0  0  0  0
 31 35  2  0  0  0  0
 33 29  2  0  0  0  0
 33 31  1  0  0  0  0
 34 27  1  0  0  0  0
 35 30  1  0  0  0  0
 36 32  1  6  0  0  0
 36 34  1  0  0  0  0
 37 39  1  0  0  0  0
 37 33  1  0  0  0  0
 38 37  1  0  0  0  0
 40 41  1  0  0  0  0
 41 37  1  0  0  0  0
 42 44  1  0  0  0  0
 43 47  1  0  0  0  0
 43 45  2  0  0  0  0
 45 46  1  0  0  0  0
 46 44  2  0  0  0  0
 47 42  2  0  0  0  0
M  END
>  <MODEL>
7

>  <REMARK>
 VINA RESULT:      -4.1      3.166      4.358
  Name = 
  12 active torsions:
  status: ('A' for Active; 'I' for Inactive)
    1  A    between atoms: C_8  and  C_26
    2  A    between atoms: C_9  and  C_28
    3  A    between atoms: C_9  and  N_40
    4  A    between atoms: C_10  and  C_29
    5  A    between atoms: C_10  and  C_39
    6  A    between atoms: C_15  and  N_17
    7  A    between atoms: C_15  and  C_26
    8  A    between atoms: C_21  and  C_45
    9  A    between atoms: C_25  and  C_30
   10  A    between atoms: C_25  and  C_32
   11  A    between atoms: C_25  and  N_41
   12  A    between atoms: C_28  and  N_31
                            x       y       z     vdW  Elec       q    Type
                         _______ _______ _______ _____ _____    ______ ____

>  <TORSDO>
F 12

$$$$
=
 OpenBabel11072414523D

 47 52  0  0  1  0  0  0  0  0999 V2000
  160.1670  209.6480  155.0170 C   0  0  0  0  0  0  0  0  0  0  0  0
  160.4280  210.5880  152.5090 N   0  0  0  0  0  0  0  0  0  0  0  0
  161.0120  207.8390  155.9720 N   0  0  0  0  0  2  0  0  0  0  0  0
  161.4170  207.8920  154.7240 O   0  0  0  0  0  0  0  0  0  0  0  0
  159.5290  210.7980  154.7030 N   0  0  0  0  0  2  0  0  0  0  0  0
  159.6490  209.1930  157.2610 O   0  0  0  0  0  0  0  0  0  0  0  0
  159.6640  211.2750  153.4240 C   0  0  0  0  0  0  0  0  0  0  0  0
  160.9270  208.9590  154.1350 C   0  0  0  0  0  0  0  0  0  0  0  0
  161.0760  209.4270  152.8370 C   0  0  2  0  0  3  0  0  0  0  0  0
  160.2290  208.9230  156.1750 C   0  0  0  0  0  0  0  0  0  0  0  0
  161.9460  207.2200  152.1410 C   0  0  0  0  0  2  0  0  0  0  0  0
  161.9310  208.7050  151.8450 C   0  0  1  0  0  3  0  0  0  0  0  0
  161.5050  206.5500  150.8570 C   0  0  0  0  0  2  0  0  0  0  0  0
  161.3540  208.8460  150.4480 C   0  0  0  0  0  2  0  0  0  0  0  0
  160.8050  207.5500  150.0620 N   0  0  0  0  0  0  0  0  0  0  0  0
  161.0170  207.3160  148.6290 C   0  0  0  0  0  2  0  0  0  0  0  0
  162.4880  207.1530  148.2330 C   0  0  2  0  0  3  0  0  0  0  0  0
  163.0550  208.5120  147.8740 C   0  0  0  0  0  1  0  0  0  0  0  0
  161.9730  204.2440  145.8100 N   0  0  0  0  0  2  0  0  0  0  0  0
  162.5910  206.2590  147.0880 N   0  0  0  0  0  2  0  0  0  0  0  0
  160.9260  204.7940  147.8230 O   0  0  0  0  0  0  0  0  0  0  0  0
  161.7910  205.0830  146.9490 C   0  0  0  0  0  0  0  0  0  0  0  0
  161.2060  203.0220  145.6210 C   0  0  0  0  0  2  0  0  0  0  0  0
  161.5840  202.0020  146.6820 C   0  0  0  0  0  2  0  0  0  0  0  0
  160.5280  201.9220  147.7710 C   0  0  0  0  0  2  0  0  0  0  0  0
  161.0950  201.2500  149.0070 C   0  0  0  0  0  1  0  0  0  0  0  0
  158.9830  212.5490  153.0020 C   0  0  1  0  0  3  0  0  0  0  0  0
  158.7080  212.2440  150.5920 C   0  0  1  0  0  3  0  0  0  0  0  0
  157.2260  213.5400  148.6350 C   0  0  0  0  0  3  0  0  0  0  0  0
  160.1880  212.5970  150.4370 C   0  0  0  0  0  2  0  0  0  0  0  0
  159.6490  214.3110  148.5860 C   0  0  0  0  0  3  0  0  0  0  0  0
  156.8800  213.6830  150.1080 C   0  0  0  0  0  2  0  0  0  0  0  0
  158.3940  213.7640  147.9830 C   0  0  0  0  0  0  0  0  0  0  0  0
  158.0280  212.3220  151.9120 N   0  0  0  0  0  0  0  0  0  0  0  0
  160.4040  213.8450  149.6030 C   0  0  0  0  0  3  0  0  0  0  0  0
  158.0740  213.4910  151.0230 C   0  0  1  0  0  3  0  0  0  0  0  0
  158.3780  213.6460  146.4760 C   0  0  0  0  0  0  0  0  0  0  0  0
  158.2700  212.3210  146.0810 F   0  0  0  0  0  0  0  0  0  0  0  0
  159.5650  214.1420  145.9620 F   0  0  0  0  0  0  0  0  0  0  0  0
  156.9520  214.0410  144.5130 N   0  0  0  0  0  1  0  0  0  0  0  0
  157.2230  214.4500  145.8840 C   0  0  0  0  0  2  0  0  0  0  0  0
  156.9960  214.4380  156.3190 C   0  0  0  0  0  3  0  0  0  0  0  0
  159.0490  213.7800  155.2130 C   0  0  0  0  0  3  0  0  0  0  0  0
  156.2520  213.8660  155.2810 C   0  0  0  0  0  3  0  0  0  0  0  0
  158.3040  213.2000  154.1720 C   0  0  0  0  0  0  0  0  0  0  0  0
  156.9050  213.2490  154.2090 C   0  0  0  0  0  3  0  0  0  0  0  0
  158.3930  214.3950  156.2840 C   0  0  0  0  0  3  0  0  0  0  0  0
  1 10  1  0  0  0  0
  2  7  2  0  0  0  0
  3 10  1  0  0  0  0
  4  3  1  0  0  0  0
  5  1  1  0  0  0  0
  7  5  1  0  0  0  0
  8  4  1  0  0  0  0
  8  1  2  0  0  0  0
  9  2  1  1  0  0  0
  9  8  1  0  0  0  0
 10  6  2  0  0  0  0
 12 14  1  6  0  0  0
 12 11  1  0  0  0  0
 12  9  1  0  0  0  0
 13 11  1  0  0  0  0
 15 14  1  0  0  0  0
 15 13  1  0  0  0  0
 16 15  1  0  0  0  0
 17 18  1  6  0  0  0
 17 16  1  0  0  0  0
 19 22  1  0  0  0  0
 20 17  1  0  0  0  0
 22 20  1  0  0  0  0
 22 21  2  0  0  0  0
 23 19  1  0  0  0  0
 23 24  1  0  0  0  0
 24 25  1  0  0  0  0
 25 26  1  0  0  0  0
 27  7  1  1  0  0  0
 27 45  1  0  0  0  0
 28 30  1  1  0  0  0
 28 36  1  0  0  0  0
 28 34  1  0  0  0  0
 29 32  1  0  0  0  0
 31 35  2  0  0  0  0
 33 31  1  0  0  0  0
 33 29  2  0  0  0  0
 34 27  1  0  0  0  0
 35 30  1  0  0  0  0
 36 32  1  6  0  0  0
 36 34  1  0  0  0  0
 37 33  1  0  0  0  0
 38 37  1  0  0  0  0
 39 37  1  0  0  0  0
 40 41  1  0  0  0  0
 41 37  1  0  0  0  0
 43 47  2  0  0  0  0
 44 42  2  0  0  0  0
 45 46  2  0  0  0  0
 45 43  1  0  0  0  0
 46 44  1  0  0  0  0
 47 42  1  0  0  0  0
M  END
>  <MODEL>
8

>  <REMARK>
 VINA RESULT:      -4.1      1.534      2.442
  Name = 
  12 active torsions:
  status: ('A' for Active; 'I' for Inactive)
    1  A    between atoms: C_8  and  C_26
    2  A    between atoms: C_9  and  C_28
    3  A    between atoms: C_9  and  N_40
    4  A    between atoms: C_10  and  C_29
    5  A    between atoms: C_10  and  C_39
    6  A    between atoms: C_15  and  N_17
    7  A    between atoms: C_15  and  C_26
    8  A    between atoms: C_21  and  C_45
    9  A    between atoms: C_25  and  C_30
   10  A    between atoms: C_25  and  C_32
   11  A    between atoms: C_25  and  N_41
   12  A    between atoms: C_28  and  N_31
                            x       y       z     vdW  Elec       q    Type
                         _______ _______ _______ _____ _____    ______ ____

>  <TORSDO>
F 12

$$$$
=
 OpenBabel11072414523D

 47 52  0  0  1  0  0  0  0  0999 V2000
  160.4290  210.0520  153.2700 C   0  0  0  0  0  0  0  0  0  0  0  0
  161.6260  209.7250  150.8820 N   0  0  0  0  0  0  0  0  0  0  0  0
  160.3400  208.7140  155.0310 N   0  0  0  0  0  2  0  0  0  0  0  0
  161.0460  208.1330  154.0890 O   0  0  0  0  0  0  0  0  0  0  0  0
  160.3180  211.0500  152.3640 N   0  0  0  0  0  2  0  0  0  0  0  0
  159.2290  210.7380  155.1670 O   0  0  0  0  0  0  0  0  0  0  0  0
  160.9300  210.8810  151.1480 C   0  0  0  0  0  0  0  0  0  0  0  0
  161.1130  208.9100  153.0300 C   0  0  0  0  0  0  0  0  0  0  0  0
  161.7400  208.7220  151.8060 C   0  0  2  0  0  3  0  0  0  0  0  0
  159.9430  209.9110  154.5400 C   0  0  0  0  0  0  0  0  0  0  0  0
  162.5040  206.5520  152.7140 C   0  0  0  0  0  2  0  0  0  0  0  0
  162.5270  207.4830  151.5200 C   0  0  1  0  0  3  0  0  0  0  0  0
  161.9860  205.2320  152.1860 C   0  0  0  0  0  2  0  0  0  0  0  0
  161.8960  206.7080  150.3760 C   0  0  0  0  0  2  0  0  0  0  0  0
  161.2880  205.5060  150.9370 N   0  0  0  0  0  0  0  0  0  0  0  0
  161.4300  204.3830  150.0040 C   0  0  0  0  0  2  0  0  0  0  0  0
  160.6190  203.1420  150.3920 C   0  0  2  0  0  3  0  0  0  0  0  0
  161.4680  202.2550  151.2800 C   0  0  0  0  0  1  0  0  0  0  0  0
  160.4010  201.8940  146.7870 N   0  0  0  0  0  2  0  0  0  0  0  0
  160.2350  202.4120  149.1910 N   0  0  0  0  0  2  0  0  0  0  0  0
  161.7970  203.4630  147.8070 O   0  0  0  0  0  0  0  0  0  0  0  0
  160.8550  202.6310  147.9220 C   0  0  0  0  0  0  0  0  0  0  0  0
  160.9740  202.0860  145.4640 C   0  0  0  0  0  2  0  0  0  0  0  0
  160.1050  203.0330  144.6530 C   0  0  0  0  0  2  0  0  0  0  0  0
  160.3790  204.4810  145.0200 C   0  0  0  0  0  2  0  0  0  0  0  0
  161.2770  205.1270  143.9820 C   0  0  0  0  0  1  0  0  0  0  0  0
  160.8500  211.9500  150.0920 C   0  0  1  0  0  3  0  0  0  0  0  0
  161.9260  211.8920  147.8970 C   0  0  1  0  0  3  0  0  0  0  0  0
  161.0600  212.3810  145.3060 C   0  0  0  0  0  3  0  0  0  0  0  0
  162.8180  213.0410  148.3690 C   0  0  0  0  0  2  0  0  0  0  0  0
  162.3200  214.3890  146.2270 C   0  0  0  0  0  3  0  0  0  0  0  0
  160.0720  212.0900  146.4230 C   0  0  0  0  0  2  0  0  0  0  0  0
  162.0350  213.3200  145.2210 C   0  0  0  0  0  0  0  0  0  0  0  0
  160.8130  211.3800  148.7410 N   0  0  0  0  0  0  0  0  0  0  0  0
  162.6420  214.2950  147.5340 C   0  0  0  0  0  3  0  0  0  0  0  0
  160.5890  212.4810  147.7940 C   0  0  1  0  0  3  0  0  0  0  0  0
  162.7740  213.4320  143.9070 C   0  0  0  0  0  0  0  0  0  0  0  0
  162.8430  212.2020  143.2670 F   0  0  0  0  0  0  0  0  0  0  0  0
  164.0720  213.8550  144.1420 F   0  0  0  0  0  0  0  0  0  0  0  0
  162.6420  214.3780  141.6420 N   0  0  0  0  0  1  0  0  0  0  0  0
  162.0960  214.4460  142.9900 C   0  0  0  0  0  2  0  0  0  0  0  0
  157.4200  214.4530  150.7940 C   0  0  0  0  0  3  0  0  0  0  0  0
  159.0450  213.5180  149.2600 C   0  0  0  0  0  3  0  0  0  0  0  0
  158.0280  213.7720  151.8550 C   0  0  0  0  0  3  0  0  0  0  0  0
  159.6610  212.8370  150.3230 C   0  0  0  0  0  0  0  0  0  0  0  0
  159.1460  212.9640  151.6200 C   0  0  0  0  0  3  0  0  0  0  0  0
  157.9280  214.3260  149.4980 C   0  0  0  0  0  3  0  0  0  0  0  0
  1 10  1  0  0  0  0
  2  7  2  0  0  0  0
  4  3  1  0  0  0  0
  5  1  1  0  0  0  0
  7  5  1  0  0  0  0
  8  1  2  0  0  0  0
  8  4  1  0  0  0  0
  9  2  1  1  0  0  0
  9  8  1  0  0  0  0
 10  3  1  0  0  0  0
 10  6  2  0  0  0  0
 12 14  1  6  0  0  0
 12  9  1  0  0  0  0
 12 11  1  0  0  0  0
 13 11  1  0  0  0  0
 14 15  1  0  0  0  0
 15 13  1  0  0  0  0
 16 17  1  0  0  0  0
 16 15  1  0  0  0  0
 17 18  1  1  0  0  0
 19 22  1  0  0  0  0
 20 17  1  0  0  0  0
 21 22  2  0  0  0  0
 22 20  1  0  0  0  0
 23 19  1  0  0  0  0
 24 25  1  0  0  0  0
 24 23  1  0  0  0  0
 26 25  1  0  0  0  0
 27 45  1  1  0  0  0
 27  7  1  0  0  0  0
 28 30  1  1  0  0  0
 28 34  1  0  0  0  0
 29 32  1  0  0  0  0
 31 35  2  0  0  0  0
 33 29  2  0  0  0  0
 33 31  1  0  0  0  0
 34 27  1  0  0  0  0
 35 30  1  0  0  0  0
 36 32  1  6  0  0  0
 36 28  1  0  0  0  0
 36 34  1  0  0  0  0
 37 39  1  0  0  0  0
 37 33  1  0  0  0  0
 38 37  1  0  0  0  0
 40 41  1  0  0  0  0
 41 37  1  0  0  0  0
 42 44  1  0  0  0  0
 43 47  1  0  0  0  0
 43 45  2  0  0  0  0
 45 46  1  0  0  0  0
 46 44  2  0  0  0  0
 47 42  2  0  0  0  0
M  END
>  <MODEL>
9

>  <REMARK>
 VINA RESULT:      -3.9      2.517      3.619
  Name = 
  12 active torsions:
  status: ('A' for Active; 'I' for Inactive)
    1  A    between atoms: C_8  and  C_26
    2  A    between atoms: C_9  and  C_28
    3  A    between atoms: C_9  and  N_40
    4  A    between atoms: C_10  and  C_29
    5  A    between atoms: C_10  and  C_39
    6  A    between atoms: C_15  and  N_17
    7  A    between atoms: C_15  and  C_26
    8  A    between atoms: C_21  and  C_45
    9  A    between atoms: C_25  and  C_30
   10  A    between atoms: C_25  and  C_32
   11  A    between atoms: C_25  and  N_41
   12  A    between atoms: C_28  and  N_31
                            x       y       z     vdW  Elec       q    Type
                         _______ _______ _______ _____ _____    ______ ____

>  <TORSDO>
F 12

$$$$
