=
 OpenBabel11072414093D

 28 32  0  0  1  0  0  0  0  0999 V2000
  160.5760  204.8750  153.5130 C   0  0  0  0  0  2  0  0  0  0  0  0
  161.8350  207.1780  148.4930 C   0  0  0  0  0  0  0  0  0  0  0  0
  161.5650  207.9500  155.2510 C   0  0  0  0  0  0  0  0  0  0  0  0
  161.4410  209.1840  153.0490 O   0  0  0  0  0  0  0  0  0  0  0  0
  161.6690  210.1230  150.8300 C   0  0  0  0  0  0  0  0  0  0  0  0
  160.1770  204.3100  152.1600 C   0  0  0  0  0  2  0  0  0  0  0  0
  161.4080  209.1970  154.4500 C   0  0  0  0  0  0  0  0  0  0  0  0
  161.3450  203.5580  151.5460 C   0  0  1  0  0  3  0  0  0  0  0  0
  162.1480  209.6580  148.1290 C   0  0  0  0  0  3  0  0  0  0  0  0
  161.3190  210.3600  155.1130 C   0  0  0  0  0  3  0  0  0  0  0  0
  161.5740  204.4930  147.7010 C   0  0  0  0  0  0  0  0  0  0  0  0
  161.7250  205.5010  146.7360 C   0  0  0  0  0  3  0  0  0  0  0  0
  161.3700  210.3840  152.2710 C   0  0  0  0  0  2  0  0  0  0  0  0
  161.4270  203.1690  147.3020 O   0  0  0  0  0  1  0  0  0  0  0  0
  162.1680  210.9240  148.6320 N   0  0  0  0  0  0  0  0  0  0  0  0
  160.9340  202.5750  150.6670 C   0  0  0  0  0  2  0  0  0  0  0  0
  161.3870  206.7480  154.7840 N   0  0  0  0  0  0  0  0  0  0  0  0
  161.7070  206.1580  149.4370 C   0  0  0  0  0  3  0  0  0  0  0  0
  161.9330  211.1760  149.9510 C   0  0  0  0  0  3  0  0  0  0  0  0
  161.5760  204.8320  149.0590 C   0  0  0  0  0  0  0  0  0  0  0  0
  161.8530  206.8430  147.1300 C   0  0  0  0  0  3  0  0  0  0  0  0
  160.9640  206.3490  153.4490 C   0  0  0  0  0  2  0  0  0  0  0  0
  161.8670  209.2150  157.2580 C   0  0  0  0  0  3  0  0  0  0  0  0
  161.6380  208.8300  150.3260 C   0  0  0  0  0  3  0  0  0  0  0  0
  161.3720  203.8780  150.0900 N   0  0  0  0  0  0  0  0  0  0  0  0
  161.8840  208.5720  148.9740 C   0  0  0  0  0  0  0  0  0  0  0  0
  161.2570  210.4280  156.6140 C   0  0  0  0  0  2  0  0  0  0  0  0
  161.9500  208.0840  156.6250 N   0  0  0  0  0  0  0  0  0  0  0  0
  2 26  1  0  0  0  0
  2 18  1  0  0  0  0
  3 28  1  0  0  0  0
  4  7  1  0  0  0  0
  5 13  1  0  0  0  0
  6  1  1  0  0  0  0
  7 10  2  0  0  0  0
  7  3  1  0  0  0  0
  8 16  1  6  0  0  0
  8  6  1  0  0  0  0
  9 15  2  0  0  0  0
  9 26  1  0  0  0  0
 10 27  1  0  0  0  0
 11 20  1  0  0  0  0
 12 21  1  0  0  0  0
 12 11  2  0  0  0  0
 13  4  1  0  0  0  0
 14 11  1  0  0  0  0
 15 19  1  0  0  0  0
 17  3  2  0  0  0  0
 19  5  2  0  0  0  0
 20 18  2  0  0  0  0
 20 25  1  0  0  0  0
 21  2  2  0  0  0  0
 22  1  1  0  0  0  0
 22 17  1  0  0  0  0
 24  5  1  0  0  0  0
 25 16  1  0  0  0  0
 25  8  1  0  0  0  0
 26 24  2  0  0  0  0
 27 23  1  0  0  0  0
 28 23  2  0  0  0  0
M  END
>  <MODEL>
1

>  <REMARK>
 VINA RESULT:      -7.7      0.000      0.000
  Name = 
  0 active torsions:
  status: ('A' for Active; 'I' for Inactive)
                            x       y       z     vdW  Elec       q    Type
                         _______ _______ _______ _____ _____    ______ ____

>  <TORSDO>
F 0

$$$$
=
 OpenBabel11072414093D

 28 32  0  0  1  0  0  0  0  0999 V2000
  161.3870  205.1560  152.8300 C   0  0  0  0  0  2  0  0  0  0  0  0
  160.8430  210.7800  152.4220 C   0  0  0  0  0  0  0  0  0  0  0  0
  161.3760  204.8190  149.1780 C   0  0  0  0  0  0  0  0  0  0  0  0
  161.8490  207.2950  148.9900 O   0  0  0  0  0  0  0  0  0  0  0  0
  161.8990  209.7140  148.9700 C   0  0  0  0  0  0  0  0  0  0  0  0
  161.5900  206.1460  153.9650 C   0  0  0  0  0  2  0  0  0  0  0  0
  161.8930  206.0060  148.4400 C   0  0  0  0  0  0  0  0  0  0  0  0
  160.2470  206.5590  154.5410 C   0  0  1  0  0  3  0  0  0  0  0  0
  161.2840  212.0790  150.3010 C   0  0  0  0  0  3  0  0  0  0  0  0
  162.3310  205.8220  147.1860 C   0  0  0  0  0  3  0  0  0  0  0  0
  160.2830  210.4740  155.1600 C   0  0  0  0  0  0  0  0  0  0  0  0
  160.4340  211.7560  154.6100 C   0  0  0  0  0  3  0  0  0  0  0  0
  162.2710  208.4530  148.2610 C   0  0  0  0  0  2  0  0  0  0  0  0
  160.0240  210.3290  156.5180 O   0  0  0  0  0  1  0  0  0  0  0  0
  161.6480  212.0930  148.9880 N   0  0  0  0  0  0  0  0  0  0  0  0
  160.3390  206.9530  155.8610 C   0  0  0  0  0  2  0  0  0  0  0  0
  161.1830  204.7790  150.4640 N   0  0  0  0  0  0  0  0  0  0  0  0
  160.6660  209.5150  152.9830 C   0  0  0  0  0  3  0  0  0  0  0  0
  161.9560  210.9480  148.3160 C   0  0  0  0  0  3  0  0  0  0  0  0
  160.3910  209.3510  154.3310 C   0  0  0  0  0  0  0  0  0  0  0  0
  160.7160  211.9110  153.2440 C   0  0  0  0  0  3  0  0  0  0  0  0
  161.4580  205.8110  151.4540 C   0  0  0  0  0  2  0  0  0  0  0  0
  161.4790  203.4800  147.1990 C   0  0  0  0  0  3  0  0  0  0  0  0
  161.5380  209.6900  150.3110 C   0  0  0  0  0  3  0  0  0  0  0  0
  160.3080  208.0220  154.8220 N   0  0  0  0  0  0  0  0  0  0  0  0
  161.2160  210.8660  150.9970 C   0  0  0  0  0  0  0  0  0  0  0  0
  162.4210  204.4600  146.5560 C   0  0  0  0  0  2  0  0  0  0  0  0
  161.0570  203.6480  148.4160 N   0  0  0  0  0  0  0  0  0  0  0  0
  1  6  1  0  0  0  0
  2 18  2  0  0  0  0
  2 21  1  0  0  0  0
  3 17  2  0  0  0  0
  5 24  1  0  0  0  0
  7  4  1  0  0  0  0
  7  3  1  0  0  0  0
  8  6  1  6  0  0  0
  8 25  1  0  0  0  0
  8 16  1  0  0  0  0
  9 26  1  0  0  0  0
 10  7  2  0  0  0  0
 11 14  1  0  0  0  0
 12 11  1  0  0  0  0
 13  5  1  0  0  0  0
 13  4  1  0  0  0  0
 15  9  2  0  0  0  0
 17 22  1  0  0  0  0
 18 20  1  0  0  0  0
 19  5  2  0  0  0  0
 19 15  1  0  0  0  0
 20 25  1  0  0  0  0
 20 11  2  0  0  0  0
 21 12  2  0  0  0  0
 22  1  1  0  0  0  0
 23 28  2  0  0  0  0
 24 26  2  0  0  0  0
 25 16  1  0  0  0  0
 26  2  1  0  0  0  0
 27 10  1  0  0  0  0
 27 23  1  0  0  0  0
 28  3  1  0  0  0  0
M  END
>  <MODEL>
2

>  <REMARK>
 VINA RESULT:      -7.4      1.791      6.693
  Name = 
  0 active torsions:
  status: ('A' for Active; 'I' for Inactive)
                            x       y       z     vdW  Elec       q    Type
                         _______ _______ _______ _____ _____    ______ ____

>  <TORSDO>
F 0

$$$$
=
 OpenBabel11072414093D

 28 32  0  0  1  0  0  0  0  0999 V2000
  162.3310  206.5780  146.2420 C   0  0  0  0  0  2  0  0  0  0  0  0
  160.9530  202.9720  150.3890 C   0  0  0  0  0  0  0  0  0  0  0  0
  161.7240  209.4490  148.4420 C   0  0  0  0  0  0  0  0  0  0  0  0
  161.8110  207.8920  150.4300 O   0  0  0  0  0  0  0  0  0  0  0  0
  161.5220  206.2370  152.1730 C   0  0  0  0  0  0  0  0  0  0  0  0
  162.5920  205.0810  146.2310 C   0  0  0  0  0  2  0  0  0  0  0  0
  161.9350  209.1800  149.8920 C   0  0  0  0  0  0  0  0  0  0  0  0
  161.3260  204.3360  145.8430 C   0  0  1  0  0  3  0  0  0  0  0  0
  160.8310  203.6220  152.8260 C   0  0  0  0  0  3  0  0  0  0  0  0
  162.1670  210.2280  150.6970 C   0  0  0  0  0  3  0  0  0  0  0  0
  160.9300  201.1860  148.2170 C   0  0  0  0  0  0  0  0  0  0  0  0
  160.8050  200.7040  149.5290 C   0  0  0  0  0  3  0  0  0  0  0  0
  161.9340  207.6320  151.8330 C   0  0  0  0  0  2  0  0  0  0  0  0
  160.9370  200.2970  147.1490 O   0  0  0  0  0  1  0  0  0  0  0  0
  160.9530  204.5730  153.7940 N   0  0  0  0  0  0  0  0  0  0  0  0
  161.5940  203.1130  145.2610 C   0  0  0  0  0  2  0  0  0  0  0  0
  161.7680  208.5410  147.5110 N   0  0  0  0  0  0  0  0  0  0  0  0
  161.0540  203.4340  149.0760 C   0  0  0  0  0  3  0  0  0  0  0  0
  161.2930  205.8600  153.4980 C   0  0  0  0  0  3  0  0  0  0  0  0
  161.0460  202.5650  147.9980 C   0  0  0  0  0  0  0  0  0  0  0  0
  160.8180  201.5930  150.6140 C   0  0  0  0  0  3  0  0  0  0  0  0
  162.0680  207.1230  147.6430 C   0  0  0  0  0  2  0  0  0  0  0  0
  161.6620  211.8070  148.8360 C   0  0  0  0  0  3  0  0  0  0  0  0
  161.4090  205.2730  151.1790 C   0  0  0  0  0  3  0  0  0  0  0  0
  161.2340  203.1240  146.7070 N   0  0  0  0  0  0  0  0  0  0  0  0
  161.0550  203.9550  151.4850 C   0  0  0  0  0  0  0  0  0  0  0  0
  162.3310  211.6270  150.1700 C   0  0  0  0  0  2  0  0  0  0  0  0
  161.4410  210.7980  148.0490 N   0  0  0  0  0  0  0  0  0  0  0  0
  1 22  1  0  0  0  0
  2 21  1  0  0  0  0
  2 26  1  0  0  0  0
  3  7  1  0  0  0  0
  4 13  1  0  0  0  0
  5 19  1  0  0  0  0
  6  1  1  0  0  0  0
  7  4  1  0  0  0  0
  7 10  2  0  0  0  0
  8 16  1  6  0  0  0
  8  6  1  0  0  0  0
  8 25  1  0  0  0  0
  9 15  1  0  0  0  0
 11 12  1  0  0  0  0
 12 21  2  0  0  0  0
 13  5  1  0  0  0  0
 14 11  1  0  0  0  0
 16 25  1  0  0  0  0
 17 22  1  0  0  0  0
 17  3  2  0  0  0  0
 18  2  2  0  0  0  0
 19 15  2  0  0  0  0
 20 11  2  0  0  0  0
 20 18  1  0  0  0  0
 23 27  1  0  0  0  0
 24 26  1  0  0  0  0
 24  5  2  0  0  0  0
 25 20  1  0  0  0  0
 26  9  2  0  0  0  0
 27 10  1  0  0  0  0
 28  3  1  0  0  0  0
 28 23  2  0  0  0  0
M  END
>  <MODEL>
3

>  <REMARK>
 VINA RESULT:      -7.2      2.466      5.778
  Name = 
  0 active torsions:
  status: ('A' for Active; 'I' for Inactive)
                            x       y       z     vdW  Elec       q    Type
                         _______ _______ _______ _____ _____    ______ ____

>  <TORSDO>
F 0

$$$$
=
 OpenBabel11072414093D

 28 32  0  0  1  0  0  0  0  0999 V2000
  162.1840  206.9670  147.0110 C   0  0  0  0  0  2  0  0  0  0  0  0
  160.9850  204.9630  152.1730 C   0  0  0  0  0  0  0  0  0  0  0  0
  161.4790  210.3970  148.1020 C   0  0  0  0  0  0  0  0  0  0  0  0
  161.6440  209.6240  150.5020 O   0  0  0  0  0  0  0  0  0  0  0  0
  161.4360  208.6610  152.7130 C   0  0  0  0  0  0  0  0  0  0  0  0
  162.5050  205.5680  147.5100 C   0  0  0  0  0  2  0  0  0  0  0  0
  161.7120  210.6510  149.5520 C   0  0  0  0  0  0  0  0  0  0  0  0
  161.2680  204.6910  147.4280 C   0  0  1  0  0  3  0  0  0  0  0  0
  160.8560  206.4080  154.2400 C   0  0  0  0  0  3  0  0  0  0  0  0
  161.9070  211.9200  149.9420 C   0  0  0  0  0  3  0  0  0  0  0  0
  161.0180  202.5390  150.7480 C   0  0  0  0  0  0  0  0  0  0  0  0
  160.9220  202.5340  152.1480 C   0  0  0  0  0  3  0  0  0  0  0  0
  161.7880  209.8680  151.9060 C   0  0  0  0  0  2  0  0  0  0  0  0
  161.0520  201.3380  150.0510 O   0  0  0  0  0  1  0  0  0  0  0  0
  160.9460  207.6380  154.8200 N   0  0  0  0  0  0  0  0  0  0  0  0
  161.5800  203.3520  147.2970 C   0  0  0  0  0  2  0  0  0  0  0  0
  161.5520  209.2260  147.5390 N   0  0  0  0  0  0  0  0  0  0  0  0
  161.0570  204.9490  150.7790 C   0  0  0  0  0  3  0  0  0  0  0  0
  161.2320  208.7550  154.0920 C   0  0  0  0  0  3  0  0  0  0  0  0
  161.0750  203.7610  150.0660 C   0  0  0  0  0  0  0  0  0  0  0  0
  160.9080  203.7430  152.8610 C   0  0  0  0  0  3  0  0  0  0  0  0
  161.9100  207.9510  148.1440 C   0  0  0  0  0  2  0  0  0  0  0  0
  161.3240  212.7430  147.6630 C   0  0  0  0  0  3  0  0  0  0  0  0
  161.3540  207.4100  152.1150 C   0  0  0  0  0  3  0  0  0  0  0  0
  161.2310  203.8480  148.6580 N   0  0  0  0  0  0  0  0  0  0  0  0
  161.0550  206.2670  152.8620 C   0  0  0  0  0  0  0  0  0  0  0  0
  162.0110  213.0560  148.9640 C   0  0  0  0  0  2  0  0  0  0  0  0
  161.1380  211.5170  147.2750 N   0  0  0  0  0  0  0  0  0  0  0  0
  1  6  1  0  0  0  0
  1 22  1  0  0  0  0
  2 21  1  0  0  0  0
  2 26  1  0  0  0  0
  3  7  1  0  0  0  0
  4 13  1  0  0  0  0
  5 19  1  0  0  0  0
  7 10  2  0  0  0  0
  7  4  1  0  0  0  0
  8 16  1  6  0  0  0
  8  6  1  0  0  0  0
  8 25  1  0  0  0  0
  9 15  1  0  0  0  0
 11 12  1  0  0  0  0
 12 21  2  0  0  0  0
 13  5  1  0  0  0  0
 14 11  1  0  0  0  0
 16 25  1  0  0  0  0
 17  3  2  0  0  0  0
 17 22  1  0  0  0  0
 18  2  2  0  0  0  0
 19 15  2  0  0  0  0
 20 11  2  0  0  0  0
 20 18  1  0  0  0  0
 23 27  1  0  0  0  0
 24  5  2  0  0  0  0
 24 26  1  0  0  0  0
 25 20  1  0  0  0  0
 26  9  2  0  0  0  0
 27 10  1  0  0  0  0
 28 23  2  0  0  0  0
 28  3  1  0  0  0  0
M  END
>  <MODEL>
4

>  <REMARK>
 VINA RESULT:      -6.7      1.643      5.604
  Name = 
  0 active torsions:
  status: ('A' for Active; 'I' for Inactive)
                            x       y       z     vdW  Elec       q    Type
                         _______ _______ _______ _____ _____    ______ ____

>  <TORSDO>
F 0

$$$$
=
 OpenBabel11072414093D

 28 32  0  0  1  0  0  0  0  0999 V2000
  159.3050  213.4400  152.1310 C   0  0  0  0  0  2  0  0  0  0  0  0
  161.0570  208.2480  153.5680 C   0  0  0  0  0  0  0  0  0  0  0  0
  161.2990  213.3370  149.0540 C   0  0  0  0  0  0  0  0  0  0  0  0
  161.5010  210.8320  149.3170 O   0  0  0  0  0  0  0  0  0  0  0  0
  161.9380  208.5290  149.9200 C   0  0  0  0  0  0  0  0  0  0  0  0
  158.6960  212.5750  153.2210 C   0  0  0  0  0  2  0  0  0  0  0  0
  161.5250  211.9720  148.5020 C   0  0  0  0  0  0  0  0  0  0  0  0
  159.5340  212.6650  154.4850 C   0  0  1  0  0  3  0  0  0  0  0  0
  162.1420  206.6390  151.9510 C   0  0  0  0  0  3  0  0  0  0  0  0
  161.8410  211.8650  147.2030 C   0  0  0  0  0  3  0  0  0  0  0  0
  159.9130  209.0270  156.0150 C   0  0  0  0  0  0  0  0  0  0  0  0
  160.3460  207.7060  155.8280 C   0  0  0  0  0  3  0  0  0  0  0  0
  161.7940  209.5240  148.8140 C   0  0  0  0  0  2  0  0  0  0  0  0
  159.3310  209.4020  157.2200 O   0  0  0  0  0  1  0  0  0  0  0  0
  162.5880  206.3610  150.6950 N   0  0  0  0  0  0  0  0  0  0  0  0
  158.7950  212.4170  155.6250 C   0  0  0  0  0  2  0  0  0  0  0  0
  160.7250  213.5840  150.1950 N   0  0  0  0  0  0  0  0  0  0  0  0
  160.6400  209.5630  153.7810 C   0  0  0  0  0  3  0  0  0  0  0  0
  162.4960  207.2710  149.6830 C   0  0  0  0  0  3  0  0  0  0  0  0
  160.0740  209.9580  154.9810 C   0  0  0  0  0  0  0  0  0  0  0  0
  160.9150  207.3140  154.6070 C   0  0  0  0  0  3  0  0  0  0  0  0
  160.1470  212.6400  151.1410 C   0  0  0  0  0  2  0  0  0  0  0  0
  162.0680  214.3410  147.0240 C   0  0  0  0  0  3  0  0  0  0  0  0
  161.4720  208.8190  151.1950 C   0  0  0  0  0  3  0  0  0  0  0  0
  159.6090  211.2960  155.0730 N   0  0  0  0  0  0  0  0  0  0  0  0
  161.5720  207.8870  152.2330 C   0  0  0  0  0  0  0  0  0  0  0  0
  161.8590  213.0510  146.2790 C   0  0  0  0  0  2  0  0  0  0  0  0
  161.7570  214.4530  148.2800 N   0  0  0  0  0  0  0  0  0  0  0  0
  1  6  1  0  0  0  0
  2 18  2  0  0  0  0
  2 21  1  0  0  0  0
  3 17  2  0  0  0  0
  5 24  1  0  0  0  0
  7  3  1  0  0  0  0
  7  4  1  0  0  0  0
  8  6  1  6  0  0  0
  8 25  1  0  0  0  0
  8 16  1  0  0  0  0
  9 26  1  0  0  0  0
 10  7  2  0  0  0  0
 11 14  1  0  0  0  0
 12 11  1  0  0  0  0
 13  4  1  0  0  0  0
 13  5  1  0  0  0  0
 15  9  2  0  0  0  0
 17 22  1  0  0  0  0
 18 20  1  0  0  0  0
 19  5  2  0  0  0  0
 19 15  1  0  0  0  0
 20 25  1  0  0  0  0
 20 11  2  0  0  0  0
 21 12  2  0  0  0  0
 22  1  1  0  0  0  0
 23 28  2  0  0  0  0
 24 26  2  0  0  0  0
 25 16  1  0  0  0  0
 26  2  1  0  0  0  0
 27 23  1  0  0  0  0
 27 10  1  0  0  0  0
 28  3  1  0  0  0  0
M  END
>  <MODEL>
5

>  <REMARK>
 VINA RESULT:      -6.5      2.995      7.815
  Name = 
  0 active torsions:
  status: ('A' for Active; 'I' for Inactive)
                            x       y       z     vdW  Elec       q    Type
                         _______ _______ _______ _____ _____    ______ ____

>  <TORSDO>
F 0

$$$$
=
 OpenBabel11072414093D

 28 32  0  0  1  0  0  0  0  0999 V2000
  162.3230  208.9650  149.1080 C   0  0  0  0  0  2  0  0  0  0  0  0
  159.8220  210.4770  153.9610 C   0  0  0  0  0  0  0  0  0  0  0  0
  160.8750  211.8570  147.3790 C   0  0  0  0  0  0  0  0  0  0  0  0
  160.3710  212.8960  149.6260 O   0  0  0  0  0  0  0  0  0  0  0  0
  159.6000  213.5650  151.8210 C   0  0  0  0  0  0  0  0  0  0  0  0
  162.6470  208.3990  150.4800 C   0  0  0  0  0  2  0  0  0  0  0  0
  160.6030  213.0340  148.2510 C   0  0  0  0  0  0  0  0  0  0  0  0
  161.6230  207.3440  150.8620 C   0  0  1  0  0  3  0  0  0  0  0  0
  158.8610  212.7750  154.3840 C   0  0  0  0  0  3  0  0  0  0  0  0
  160.5000  214.2370  147.6660 C   0  0  0  0  0  3  0  0  0  0  0  0
  160.6150  207.8720  154.6590 C   0  0  0  0  0  0  0  0  0  0  0  0
  160.0830  208.7320  155.6320 C   0  0  0  0  0  3  0  0  0  0  0  0
  160.0310  214.0090  150.4610 C   0  0  0  0  0  2  0  0  0  0  0  0
  161.0220  206.5910  155.0140 O   0  0  0  0  0  1  0  0  0  0  0  0
  158.6060  214.0380  153.9440 N   0  0  0  0  0  0  0  0  0  0  0  0
  162.1300  206.4150  151.7490 C   0  0  0  0  0  2  0  0  0  0  0  0
  161.2720  210.6960  147.8120 N   0  0  0  0  0  0  0  0  0  0  0  0
  160.3320  209.6000  153.0040 C   0  0  0  0  0  3  0  0  0  0  0  0
  158.9600  214.4490  152.6940 C   0  0  0  0  0  3  0  0  0  0  0  0
  160.7270  208.3140  153.3350 C   0  0  0  0  0  0  0  0  0  0  0  0
  159.6890  210.0340  155.2860 C   0  0  0  0  0  3  0  0  0  0  0  0
  161.5810  210.2960  149.1770 C   0  0  0  0  0  2  0  0  0  0  0  0
  160.5670  213.1800  145.4100 C   0  0  0  0  0  3  0  0  0  0  0  0
  159.8730  212.2780  152.2630 C   0  0  0  0  0  3  0  0  0  0  0  0
  161.3070  207.5250  152.3080 N   0  0  0  0  0  0  0  0  0  0  0  0
  159.5030  211.8570  153.5440 C   0  0  0  0  0  0  0  0  0  0  0  0
  160.7610  214.4440  146.2000 C   0  0  0  0  0  2  0  0  0  0  0  0
  160.6730  212.0120  145.9680 N   0  0  0  0  0  0  0  0  0  0  0  0
  1 22  1  0  0  0  0
  1  6  1  0  0  0  0
  2 21  1  0  0  0  0
  3 17  2  0  0  0  0
  3  7  1  0  0  0  0
  4 13  1  0  0  0  0
  5 24  2  0  0  0  0
  5 19  1  0  0  0  0
  7  4  1  0  0  0  0
  8  6  1  1  0  0  0
  8 16  1  0  0  0  0
  8 25  1  0  0  0  0
 10  7  2  0  0  0  0
 11 14  1  0  0  0  0
 11 12  1  0  0  0  0
 13  5  1  0  0  0  0
 15  9  1  0  0  0  0
 16 25  1  0  0  0  0
 17 22  1  0  0  0  0
 18 20  1  0  0  0  0
 18  2  2  0  0  0  0
 19 15  2  0  0  0  0
 20 11  2  0  0  0  0
 21 12  2  0  0  0  0
 23 28  2  0  0  0  0
 23 27  1  0  0  0  0
 24 26  1  0  0  0  0
 25 20  1  0  0  0  0
 26  2  1  0  0  0  0
 26  9  2  0  0  0  0
 27 10  1  0  0  0  0
 28  3  1  0  0  0  0
M  END
>  <MODEL>
6

>  <REMARK>
 VINA RESULT:      -5.7      3.193      7.303
  Name = 
  0 active torsions:
  status: ('A' for Active; 'I' for Inactive)
                            x       y       z     vdW  Elec       q    Type
                         _______ _______ _______ _____ _____    ______ ____

>  <TORSDO>
F 0

$$$$
=
 OpenBabel11072414093D

 28 32  0  0  1  0  0  0  0  0999 V2000
  159.8340  212.6710  152.3220 C   0  0  0  0  0  2  0  0  0  0  0  0
  161.2410  207.1840  152.4170 C   0  0  0  0  0  0  0  0  0  0  0  0
  161.4200  213.0930  149.0420 C   0  0  0  0  0  0  0  0  0  0  0  0
  161.4110  210.5820  148.7600 O   0  0  0  0  0  0  0  0  0  0  0  0
  161.6950  208.1790  148.8150 C   0  0  0  0  0  0  0  0  0  0  0  0
  159.2810  211.6370  153.2880 C   0  0  0  0  0  2  0  0  0  0  0  0
  161.4450  211.8650  148.1980 C   0  0  0  0  0  0  0  0  0  0  0  0
  160.2720  211.3960  154.4140 C   0  0  1  0  0  3  0  0  0  0  0  0
  161.9620  205.8890  150.3720 C   0  0  0  0  0  3  0  0  0  0  0  0
  161.5890  212.0180  146.8730 C   0  0  0  0  0  3  0  0  0  0  0  0
  160.4820  207.4980  155.1060 C   0  0  0  0  0  0  0  0  0  0  0  0
  160.7610  206.2210  154.5960 C   0  0  0  0  0  3  0  0  0  0  0  0
  161.5130  209.3950  147.9660 C   0  0  0  0  0  2  0  0  0  0  0  0
  160.0900  207.6450  156.4310 O   0  0  0  0  0  1  0  0  0  0  0  0
  162.2240  205.8570  149.0360 N   0  0  0  0  0  0  0  0  0  0  0  0
  159.6560  210.9610  155.5710 C   0  0  0  0  0  2  0  0  0  0  0  0
  161.0150  213.1290  150.2780 N   0  0  0  0  0  0  0  0  0  0  0  0
  160.9810  208.4480  152.9480 C   0  0  0  0  0  3  0  0  0  0  0  0
  162.0970  206.9650  148.2520 C   0  0  0  0  0  3  0  0  0  0  0  0
  160.6050  208.6160  154.2710 C   0  0  0  0  0  0  0  0  0  0  0  0
  161.1380  206.0620  153.2530 C   0  0  0  0  0  3  0  0  0  0  0  0
  160.4680  212.0460  151.0830 C   0  0  0  0  0  2  0  0  0  0  0  0
  162.0290  214.4530  147.1710 C   0  0  0  0  0  3  0  0  0  0  0  0
  161.4170  208.2200  150.1750 C   0  0  0  0  0  3  0  0  0  0  0  0
  160.2860  209.9320  154.6960 N   0  0  0  0  0  0  0  0  0  0  0  0
  161.5530  207.0830  150.9780 C   0  0  0  0  0  0  0  0  0  0  0  0
  161.6090  213.3700  146.2160 C   0  0  0  0  0  2  0  0  0  0  0  0
  161.8850  214.3150  148.4550 N   0  0  0  0  0  0  0  0  0  0  0  0
  1  6  1  0  0  0  0
  2 18  2  0  0  0  0
  2 21  1  0  0  0  0
  3 17  2  0  0  0  0
  5 24  1  0  0  0  0
  7  4  1  0  0  0  0
  7  3  1  0  0  0  0
  8  6  1  6  0  0  0
  8 25  1  0  0  0  0
  8 16  1  0  0  0  0
  9 26  1  0  0  0  0
 10  7  2  0  0  0  0
 11 14  1  0  0  0  0
 12 11  1  0  0  0  0
 13  4  1  0  0  0  0
 13  5  1  0  0  0  0
 15  9  2  0  0  0  0
 17 22  1  0  0  0  0
 18 20  1  0  0  0  0
 19  5  2  0  0  0  0
 19 15  1  0  0  0  0
 20 25  1  0  0  0  0
 20 11  2  0  0  0  0
 21 12  2  0  0  0  0
 22  1  1  0  0  0  0
 23 28  2  0  0  0  0
 24 26  2  0  0  0  0
 25 16  1  0  0  0  0
 26  2  1  0  0  0  0
 27 10  1  0  0  0  0
 27 23  1  0  0  0  0
 28  3  1  0  0  0  0
M  END
>  <MODEL>
7

>  <REMARK>
 VINA RESULT:      -5.4      2.562      7.186
  Name = 
  0 active torsions:
  status: ('A' for Active; 'I' for Inactive)
                            x       y       z     vdW  Elec       q    Type
                         _______ _______ _______ _____ _____    ______ ____

>  <TORSDO>
F 0

$$$$
=
 OpenBabel11072414093D

 28 32  0  0  1  0  0  0  0  0999 V2000
  160.9170  207.7090  153.3670 C   0  0  0  0  0  2  0  0  0  0  0  0
  159.9390  213.0340  151.6980 C   0  0  0  0  0  0  0  0  0  0  0  0
  161.2700  206.6090  149.8870 C   0  0  0  0  0  0  0  0  0  0  0  0
  161.5480  209.0230  149.1950 O   0  0  0  0  0  0  0  0  0  0  0  0
  161.3950  211.3760  148.6490 C   0  0  0  0  0  0  0  0  0  0  0  0
  160.9290  208.9320  154.2690 C   0  0  0  0  0  2  0  0  0  0  0  0
  161.7520  207.6590  148.9460 C   0  0  0  0  0  0  0  0  0  0  0  0
  159.5080  209.3180  154.6430 C   0  0  1  0  0  3  0  0  0  0  0  0
  160.4630  213.8930  149.3820 C   0  0  0  0  0  3  0  0  0  0  0  0
  162.3170  207.2600  147.7970 C   0  0  0  0  0  3  0  0  0  0  0  0
  159.1570  213.2580  154.3900 C   0  0  0  0  0  0  0  0  0  0  0  0
  159.2500  214.4040  153.5840 C   0  0  0  0  0  3  0  0  0  0  0  0
  161.9360  210.0390  148.2620 C   0  0  0  0  0  2  0  0  0  0  0  0
  158.7870  213.3770  155.7240 O   0  0  0  0  0  1  0  0  0  0  0  0
  160.9440  213.6670  148.1270 N   0  0  0  0  0  0  0  0  0  0  0  0
  159.4450  209.9900  155.8470 C   0  0  0  0  0  2  0  0  0  0  0  0
  160.9640  206.8220  151.1340 N   0  0  0  0  0  0  0  0  0  0  0  0
  159.8190  211.9050  152.5090 C   0  0  0  0  0  3  0  0  0  0  0  0
  161.4080  212.4430  147.7470 C   0  0  0  0  0  3  0  0  0  0  0  0
  159.4360  212.0020  153.8360 C   0  0  0  0  0  0  0  0  0  0  0  0
  159.6430  214.2940  152.2410 C   0  0  0  0  0  3  0  0  0  0  0  0
  161.0580  208.0620  151.8900 C   0  0  0  0  0  2  0  0  0  0  0  0
  161.6680  204.8990  148.2620 C   0  0  0  0  0  3  0  0  0  0  0  0
  160.9150  211.5990  149.9330 C   0  0  0  0  0  3  0  0  0  0  0  0
  159.4200  210.8060  154.6000 N   0  0  0  0  0  0  0  0  0  0  0  0
  160.4340  212.8540  150.3200 C   0  0  0  0  0  0  0  0  0  0  0  0
  162.5790  205.8120  147.4890 C   0  0  0  0  0  2  0  0  0  0  0  0
  161.1230  205.2760  149.3790 N   0  0  0  0  0  0  0  0  0  0  0  0
  1  6  1  0  0  0  0
  2 21  2  0  0  0  0
  2 18  1  0  0  0  0
  3 17  2  0  0  0  0
  5 24  1  0  0  0  0
  7  4  1  0  0  0  0
  7  3  1  0  0  0  0
  8  6  1  1  0  0  0
  8 16  1  0  0  0  0
  9 26  1  0  0  0  0
 10  7  2  0  0  0  0
 11 14  1  0  0  0  0
 12 11  2  0  0  0  0
 13  5  1  0  0  0  0
 13  4  1  0  0  0  0
 15  9  2  0  0  0  0
 17 22  1  0  0  0  0
 18 20  2  0  0  0  0
 19 15  1  0  0  0  0
 19  5  2  0  0  0  0
 20 11  1  0  0  0  0
 20 25  1  0  0  0  0
 21 12  1  0  0  0  0
 22  1  1  0  0  0  0
 23 28  2  0  0  0  0
 24 26  2  0  0  0  0
 25  8  1  0  0  0  0
 25 16  1  0  0  0  0
 26  2  1  0  0  0  0
 27 10  1  0  0  0  0
 27 23  1  0  0  0  0
 28  3  1  0  0  0  0
M  END
>  <MODEL>
8

>  <REMARK>
 VINA RESULT:      -5.0      2.704      7.217
  Name = 
  0 active torsions:
  status: ('A' for Active; 'I' for Inactive)
                            x       y       z     vdW  Elec       q    Type
                         _______ _______ _______ _____ _____    ______ ____

>  <TORSDO>
F 0

$$$$
=
 OpenBabel11072414093D

 28 32  0  0  1  0  0  0  0  0999 V2000
  162.0730  208.1620  147.5990 C   0  0  0  0  0  2  0  0  0  0  0  0
  160.8880  207.0030  153.0160 C   0  0  0  0  0  0  0  0  0  0  0  0
  161.0060  211.6430  148.0370 C   0  0  0  0  0  0  0  0  0  0  0  0
  161.1600  211.3320  150.5400 O   0  0  0  0  0  0  0  0  0  0  0  0
  160.9660  210.7640  152.8850 C   0  0  0  0  0  0  0  0  0  0  0  0
  162.5070  206.9140  148.3480 C   0  0  0  0  0  2  0  0  0  0  0  0
  161.1630  212.1740  149.4200 C   0  0  0  0  0  0  0  0  0  0  0  0
  161.3630  205.9160  148.4050 C   0  0  1  0  0  3  0  0  0  0  0  0
  160.5500  208.7750  154.7840 C   0  0  0  0  0  3  0  0  0  0  0  0
  161.2230  213.5050  149.5770 C   0  0  0  0  0  3  0  0  0  0  0  0
  161.2020  204.3790  152.0560 C   0  0  0  0  0  0  0  0  0  0  0  0
  161.0580  204.6140  153.4320 C   0  0  0  0  0  3  0  0  0  0  0  0
  161.2310  211.8360  151.8780 C   0  0  0  0  0  2  0  0  0  0  0  0
  161.3750  203.0820  151.5890 O   0  0  0  0  0  1  0  0  0  0  0  0
  160.5030  210.0910  155.1330 N   0  0  0  0  0  0  0  0  0  0  0  0
  161.8060  204.6140  148.5240 C   0  0  0  0  0  2  0  0  0  0  0  0
  161.2110  210.4040  147.6970 N   0  0  0  0  0  0  0  0  0  0  0  0
  161.0110  206.7470  151.6500 C   0  0  0  0  0  3  0  0  0  0  0  0
  160.7060  211.0830  154.2200 C   0  0  0  0  0  3  0  0  0  0  0  0
  161.1670  205.4590  151.1650 C   0  0  0  0  0  0  0  0  0  0  0  0
  160.9040  205.9240  153.9130 C   0  0  0  0  0  3  0  0  0  0  0  0
  161.6670  209.3000  148.5290 C   0  0  0  0  0  2  0  0  0  0  0  0
  160.6450  213.8460  147.1770 C   0  0  0  0  0  3  0  0  0  0  0  0
  161.0250  209.4250  152.5210 C   0  0  0  0  0  3  0  0  0  0  0  0
  161.3630  205.3080  149.7670 N   0  0  0  0  0  0  0  0  0  0  0  0
  160.8100  208.4090  153.4580 C   0  0  0  0  0  0  0  0  0  0  0  0
  161.2520  214.4530  148.4100 C   0  0  0  0  0  2  0  0  0  0  0  0
  160.5910  212.5580  147.0140 N   0  0  0  0  0  0  0  0  0  0  0  0
  1  6  1  0  0  0  0
  1 22  1  0  0  0  0
  2 26  1  0  0  0  0
  2 21  1  0  0  0  0
  3  7  1  0  0  0  0
  4 13  1  0  0  0  0
  5 19  1  0  0  0  0
  7 10  2  0  0  0  0
  7  4  1  0  0  0  0
  8  6  1  1  0  0  0
  8 16  1  0  0  0  0
  8 25  1  0  0  0  0
  9 15  1  0  0  0  0
 11 12  1  0  0  0  0
 12 21  2  0  0  0  0
 13  5  1  0  0  0  0
 14 11  1  0  0  0  0
 16 25  1  0  0  0  0
 17  3  2  0  0  0  0
 17 22  1  0  0  0  0
 18  2  2  0  0  0  0
 19 15  2  0  0  0  0
 20 18  1  0  0  0  0
 20 11  2  0  0  0  0
 23 27  1  0  0  0  0
 24  5  2  0  0  0  0
 24 26  1  0  0  0  0
 25 20  1  0  0  0  0
 26  9  2  0  0  0  0
 27 10  1  0  0  0  0
 28 23  2  0  0  0  0
 28  3  1  0  0  0  0
M  END
>  <MODEL>
9

>  <REMARK>
 VINA RESULT:      -4.9      2.024      5.927
  Name = 
  0 active torsions:
  status: ('A' for Active; 'I' for Inactive)
                            x       y       z     vdW  Elec       q    Type
                         _______ _______ _______ _____ _____    ______ ____

>  <TORSDO>
F 0

$$$$
