=
 OpenBabel11072415153D

 40 46  0  0  1  0  0  0  0  0999 V2000
  162.0940  209.8890  157.2460 N   0  0  0  0  0  2  0  0  0  0  0  0
  159.7870  208.7840  156.8870 F   0  0  0  0  0  0  0  0  0  0  0  0
  162.1430  211.0250  156.3660 C   0  0  0  0  0  2  0  0  0  0  0  0
  160.6800  208.3450  153.3820 C   0  0  1  0  0  3  0  0  0  0  0  0
  161.9020  209.6840  155.7840 C   0  0  2  0  0  0  0  0  0  0  0  0
  160.4990  207.7130  154.7490 C   0  0  0  0  0  2  0  0  0  0  0  0
  160.5780  210.1220  155.1070 C   0  0  1  0  0  3  0  0  0  0  0  0
  160.6470  209.8610  153.6070 C   0  0  2  0  0  3  0  0  0  0  0  0
  160.6140  208.8230  155.7750 C   0  0  1  0  0  0  0  0  0  0  0  0
  159.7500  212.1430  152.9320 C   0  0  2  0  0  3  0  0  0  0  0  0
  159.5180  210.6410  152.9040 C   0  0  2  0  0  3  0  0  0  0  0  0
  158.7030  211.5180  153.8360 C   0  0  0  0  0  2  0  0  0  0  0  0
  159.0690  212.7860  151.7370 C   0  0  0  0  0  2  0  0  0  0  0  0
  159.9690  213.8330  151.0910 C   0  0  0  0  0  2  0  0  0  0  0  0
  158.3410  213.5130  149.3810 O   0  0  0  0  0  1  0  0  0  0  0  0
  159.6070  214.0520  149.6220 C   0  0  2  0  0  3  0  0  0  0  0  0
  160.6590  213.4340  148.6800 C   0  0  2  0  0  0  0  0  0  0  0  0
  161.2160  212.3100  149.2690 F   0  0  0  0  0  0  0  0  0  0  0  0
  161.7650  214.4530  148.4260 C   0  0  0  0  0  1  0  0  0  0  0  0
  160.5730  212.4810  145.2670 C   0  0  0  0  0  2  0  0  0  0  0  0
  159.7200  214.1970  146.5800 O   0  0  0  0  0  0  0  0  0  0  0  0
  159.9060  213.8230  145.2520 C   0  0  0  0  0  2  0  0  0  0  0  0
  160.8910  212.2140  146.5940 O   0  0  0  0  0  0  0  0  0  0  0  0
  160.0330  213.0480  147.3280 C   0  0  0  0  0  3  0  0  0  0  0  0
  161.9300  207.9780  152.8730 O   0  0  0  0  0  0  0  0  0  0  0  0
  163.1780  205.8410  151.6760 O   0  0  0  0  0  0  0  0  0  0  0  0
  161.6740  206.5500  151.9900 P   0  0  1  0  0  0  0  0  0  0  0  0
  160.8370  205.5930  152.8120 O   0  0  0  0  0  1  0  0  0  0  0  0
  160.8570  206.9380  150.5340 O   0  0  0  0  0  0  0  0  0  0  0  0
  162.9990  207.7340  150.0840 O   0  0  0  0  0  1  0  0  0  0  0  0
  161.7510  207.3950  149.5330 C   0  0  0  0  0  0  0  0  0  0  0  0
  161.2050  208.5150  148.8950 O   0  0  0  0  0  1  0  0  0  0  0  0
  163.1250  204.8480  146.3930 C   0  0  0  0  0  2  0  0  0  0  0  0
  161.7870  206.8700  147.1810 C   0  0  0  0  0  2  0  0  0  0  0  0
  161.6790  204.3950  146.4920 C   0  0  1  0  0  0  0  0  0  0  0  0
  162.0030  205.8250  146.0680 C   0  0  2  0  0  3  0  0  0  0  0  0
  161.3100  203.4270  145.3870 C   0  0  0  0  0  1  0  0  0  0  0  0
  160.8780  205.3080  148.7040 C   0  0  0  0  0  2  0  0  0  0  0  0
  161.2720  204.0590  147.9280 C   0  0  0  0  0  2  0  0  0  0  0  0
  161.9170  206.3220  148.5370 N   0  0  0  0  0  0  0  0  0  0  0  0
  3  1  1  0  0  0  0
  4 25  1  1  0  0  0
  4  8  1  0  0  0  0
  4  6  1  0  0  0  0
  5  3  1  6  0  0  0
  5  1  1  0  0  0  0
  6  9  1  0  0  0  0
  7  9  1  0  0  0  0
  7  5  1  0  0  0  0
  8  7  1  0  0  0  0
  9  5  1  0  0  0  0
  9  2  1  0  0  0  0
 10 12  1  0  0  0  0
 11 10  1  0  0  0  0
 11  8  1  0  0  0  0
 11 12  1  0  0  0  0
 13 10  1  0  0  0  0
 14 13  1  0  0  0  0
 15 16  1  0  0  0  0
 16 14  1  0  0  0  0
 17 18  1  0  0  0  0
 17 16  1  0  0  0  0
 19 17  1  0  0  0  0
 20 23  1  0  0  0  0
 21 24  1  0  0  0  0
 22 20  1  0  0  0  0
 22 21  1  0  0  0  0
 23 24  1  0  0  0  0
 24 17  1  0  0  0  0
 26 27  2  0  0  0  0
 27 28  1  0  0  0  0
 27 25  1  0  0  0  0
 29 27  1  0  0  0  0
 31 30  1  0  0  0  0
 31 29  1  0  0  0  0
 32 31  1  0  0  0  0
 33 35  1  0  0  0  0
 34 40  1  0  0  0  0
 35 39  1  0  0  0  0
 36 33  1  0  0  0  0
 36 35  1  0  0  0  0
 36 34  1  0  0  0  0
 37 35  1  0  0  0  0
 39 38  1  0  0  0  0
 40 38  1  0  0  0  0
 40 31  1  0  0  0  0
M  END
>  <MODEL>
1

>  <REMARK>
 VINA RESULT:      -7.5      0.000      0.000
  Name = 
  11 active torsions:
  status: ('A' for Active; 'I' for Inactive)
    1  A    between atoms: C_2  and  C_33
    2  A    between atoms: C_2  and  C_35
    3  A    between atoms: C_7  and  C_13
    4  A    between atoms: C_7  and  C_33
    5  A    between atoms: O_11  and  P_14
    6  A    between atoms: O_11  and  C_18
    7  A    between atoms: C_13  and  C_19
    8  A    between atoms: P_14  and  O_27
    9  A    between atoms: C_17  and  O_27
   10  A    between atoms: C_18  and  N_39
   11  A    between atoms: C_23  and  C_37
                            x       y       z     vdW  Elec       q    Type
                         _______ _______ _______ _____ _____    ______ ____

>  <TORSDO>
F 11

$$$$
=
 OpenBabel11072415153D

 40 46  0  0  1  0  0  0  0  0999 V2000
  160.5560  212.9310  145.7440 N   0  0  0  0  0  2  0  0  0  0  0  0
  162.5460  213.9080  147.0700 F   0  0  0  0  0  0  0  0  0  0  0  0
  159.4180  212.9840  146.6200 C   0  0  0  0  0  2  0  0  0  0  0  0
  162.0220  211.2900  149.5490 C   0  0  1  0  0  3  0  0  0  0  0  0
  160.6200  212.2380  147.0600 C   0  0  2  0  0  0  0  0  0  0  0  0
  162.8500  211.8140  148.3910 C   0  0  0  0  0  2  0  0  0  0  0  0
  160.7580  213.0630  148.3650 C   0  0  1  0  0  3  0  0  0  0  0  0
  160.7440  212.1360  149.5740 C   0  0  2  0  0  3  0  0  0  0  0  0
  161.9700  212.7660  147.6060 C   0  0  1  0  0  0  0  0  0  0  0  0
  159.2780  212.4760  151.6250 C   0  0  2  0  0  3  0  0  0  0  0  0
  160.4900  212.9670  150.8480 C   0  0  2  0  0  3  0  0  0  0  0  0
  159.1950  213.7590  150.8180 C   0  0  0  0  0  2  0  0  0  0  0  0
  159.4460  212.8120  153.0960 C   0  0  0  0  0  2  0  0  0  0  0  0
  160.2940  211.7640  153.8050 C   0  0  0  0  0  2  0  0  0  0  0  0
  158.1420  211.3270  154.7280 O   0  0  0  0  0  1  0  0  0  0  0  0
  159.4290  210.7960  154.6120 C   0  0  2  0  0  3  0  0  0  0  0  0
  160.0360  210.5140  156.0010 C   0  0  2  0  0  0  0  0  0  0  0  0
  159.0550  210.6210  156.9730 F   0  0  0  0  0  0  0  0  0  0  0  0
  161.1260  211.5420  156.2890 C   0  0  0  0  0  1  0  0  0  0  0  0
  160.5520  207.1230  155.1090 C   0  0  0  0  0  2  0  0  0  0  0  0
  160.0290  208.3200  157.0300 O   0  0  0  0  0  0  0  0  0  0  0  0
  160.0770  207.0230  156.5270 C   0  0  0  0  0  2  0  0  0  0  0  0
  160.5990  208.4780  154.8040 O   0  0  0  0  0  0  0  0  0  0  0  0
  160.6640  209.1100  156.0560 C   0  0  0  0  0  3  0  0  0  0  0  0
  161.6890  209.9540  149.3020 O   0  0  0  0  0  0  0  0  0  0  0  0
  163.1080  210.0150  151.6560 O   0  0  0  0  0  1  0  0  0  0  0  0
  161.9890  209.1230  150.7520 P   0  0  1  0  0  0  0  0  0  0  0  0
  160.7010  209.0010  151.5390 O   0  0  0  0  0  0  0  0  0  0  0  0
  162.5960  207.5630  150.3820 O   0  0  0  0  0  0  0  0  0  0  0  0
  160.2980  207.2210  150.2140 O   0  0  0  0  0  1  0  0  0  0  0  0
  161.5580  206.6010  150.2890 C   0  0  0  0  0  0  0  0  0  0  0  0
  161.5970  205.7630  151.4100 O   0  0  0  0  0  1  0  0  0  0  0  0
  162.9470  205.0250  146.5720 C   0  0  0  0  0  2  0  0  0  0  0  0
  161.3580  206.5220  147.8900 C   0  0  0  0  0  2  0  0  0  0  0  0
  161.6520  204.2480  146.7250 C   0  0  1  0  0  0  0  0  0  0  0  0
  161.6160  205.7660  146.5700 C   0  0  2  0  0  3  0  0  0  0  0  0
  161.3290  203.4330  145.4900 C   0  0  0  0  0  1  0  0  0  0  0  0
  161.0110  204.5510  149.1470 C   0  0  0  0  0  2  0  0  0  0  0  0
  161.5320  203.5810  148.0960 C   0  0  0  0  0  2  0  0  0  0  0  0
  161.7900  205.7860  149.0840 N   0  0  0  0  0  0  0  0  0  0  0  0
  1  3  1  0  0  0  0
  1  5  1  0  0  0  0
  2  9  1  0  0  0  0
  4 25  1  6  0  0  0
  4  8  1  0  0  0  0
  5  3  1  1  0  0  0
  5  9  1  0  0  0  0
  5  7  1  0  0  0  0
  6  4  1  0  0  0  0
  7  8  1  0  0  0  0
  8 11  1  0  0  0  0
  9  7  1  0  0  0  0
  9  6  1  0  0  0  0
 10 13  1  0  0  0  0
 11 10  1  0  0  0  0
 12 11  1  0  0  0  0
 12 10  1  0  0  0  0
 13 14  1  0  0  0  0
 14 16  1  0  0  0  0
 16 15  1  0  0  0  0
 16 17  1  0  0  0  0
 17 24  1  0  0  0  0
 17 19  1  0  0  0  0
 17 18  1  0  0  0  0
 20 22  1  0  0  0  0
 22 21  1  0  0  0  0
 23 20  1  0  0  0  0
 23 24  1  0  0  0  0
 24 21  1  0  0  0  0
 25 27  1  0  0  0  0
 27 28  2  0  0  0  0
 27 26  1  0  0  0  0
 29 27  1  0  0  0  0
 30 31  1  0  0  0  0
 31 29  1  0  0  0  0
 31 32  1  0  0  0  0
 33 35  1  0  0  0  0
 34 40  1  0  0  0  0
 35 39  1  0  0  0  0
 36 33  1  0  0  0  0
 36 35  1  0  0  0  0
 36 34  1  0  0  0  0
 37 35  1  0  0  0  0
 39 38  1  0  0  0  0
 40 38  1  0  0  0  0
 40 31  1  0  0  0  0
M  END
>  <MODEL>
2

>  <REMARK>
 VINA RESULT:      -7.3      2.339      6.564
  Name = 
  11 active torsions:
  status: ('A' for Active; 'I' for Inactive)
    1  A    between atoms: C_2  and  C_33
    2  A    between atoms: C_2  and  C_35
    3  A    between atoms: C_7  and  C_13
    4  A    between atoms: C_7  and  C_33
    5  A    between atoms: O_11  and  P_14
    6  A    between atoms: O_11  and  C_18
    7  A    between atoms: C_13  and  C_19
    8  A    between atoms: P_14  and  O_27
    9  A    between atoms: C_17  and  O_27
   10  A    between atoms: C_18  and  N_39
   11  A    between atoms: C_23  and  C_37
                            x       y       z     vdW  Elec       q    Type
                         _______ _______ _______ _____ _____    ______ ____

>  <TORSDO>
F 11

$$$$
=
 OpenBabel11072415153D

 40 46  0  0  1  0  0  0  0  0999 V2000
  161.0570  202.9790  152.1760 N   0  0  0  0  0  2  0  0  0  0  0  0
  163.2530  204.2910  151.8180 F   0  0  0  0  0  0  0  0  0  0  0  0
  160.0810  203.5740  151.3060 C   0  0  0  0  0  2  0  0  0  0  0  0
  161.4780  207.3020  152.8470 C   0  0  1  0  0  3  0  0  0  0  0  0
  160.7560  204.4310  152.3080 C   0  0  2  0  0  0  0  0  0  0  0  0
  162.4720  206.2130  153.2040 C   0  0  0  0  0  2  0  0  0  0  0  0
  161.2650  205.4290  151.2380 C   0  0  1  0  0  3  0  0  0  0  0  0
  160.7810  206.8370  151.5630 C   0  0  2  0  0  3  0  0  0  0  0  0
  162.1840  205.0300  152.3010 C   0  0  1  0  0  0  0  0  0  0  0  0
  162.0190  207.2090  149.3740 C   0  0  2  0  0  3  0  0  0  0  0  0
  160.9510  207.7330  150.3200 C   0  0  2  0  0  3  0  0  0  0  0  0
  162.3010  208.4230  150.2400 C   0  0  0  0  0  2  0  0  0  0  0  0
  161.7090  207.6580  147.9570 C   0  0  0  0  0  2  0  0  0  0  0  0
  160.8270  206.6420  147.2400 C   0  0  0  0  0  2  0  0  0  0  0  0
  160.5630  205.9690  144.9710 O   0  0  0  0  0  1  0  0  0  0  0  0
  161.5110  206.0920  145.9900 C   0  0  2  0  0  3  0  0  0  0  0  0
  162.2020  204.7420  146.2660 C   0  0  2  0  0  0  0  0  0  0  0  0
  163.2060  204.9120  147.2060 F   0  0  0  0  0  0  0  0  0  0  0  0
  162.8240  204.2240  144.9730 C   0  0  0  0  0  1  0  0  0  0  0  0
  161.0330  201.9460  148.1030 C   0  0  0  0  0  2  0  0  0  0  0  0
  161.1050  202.6160  145.8800 O   0  0  0  0  0  0  0  0  0  0  0  0
  160.8510  201.5070  146.6820 C   0  0  0  0  0  2  0  0  0  0  0  0
  161.5430  203.2380  148.0540 O   0  0  0  0  0  0  0  0  0  0  0  0
  161.1930  203.6970  146.7740 C   0  0  0  0  0  3  0  0  0  0  0  0
  160.5350  207.4120  153.8740 O   0  0  0  0  0  0  0  0  0  0  0  0
  161.8070  208.5650  156.0200 O   0  0  0  0  0  1  0  0  0  0  0  0
  160.8620  208.8840  154.6530 P   0  0  1  0  0  0  0  0  0  0  0  0
  161.6350  209.7890  153.7170 O   0  0  0  0  0  0  0  0  0  0  0  0
  159.3780  209.6240  155.0870 O   0  0  0  0  0  0  0  0  0  0  0  0
  160.8070  211.4320  155.4240 O   0  0  0  0  0  1  0  0  0  0  0  0
  159.5790  210.8460  155.7780 C   0  0  0  0  0  0  0  0  0  0  0  0
  159.5580  210.6100  157.1580 O   0  0  0  0  0  1  0  0  0  0  0  0
  156.0650  213.2710  155.8190 C   0  0  0  0  0  2  0  0  0  0  0  0
  157.2010  211.0200  155.4360 C   0  0  0  0  0  2  0  0  0  0  0  0
  156.2910  213.1520  154.3220 C   0  0  1  0  0  0  0  0  0  0  0  0
  155.9730  211.9070  155.1460 C   0  0  2  0  0  3  0  0  0  0  0  0
  155.1490  213.7480  153.5260 C   0  0  0  0  0  1  0  0  0  0  0  0
  158.6610  212.3140  154.1030 C   0  0  0  0  0  2  0  0  0  0  0  0
  157.7260  213.5000  153.9220 C   0  0  0  0  0  2  0  0  0  0  0  0
  158.4710  211.7560  155.4400 N   0  0  0  0  0  0  0  0  0  0  0  0
  1  5  1  0  0  0  0
  2  9  1  0  0  0  0
  3  1  1  0  0  0  0
  4  6  1  0  0  0  0
  4 25  1  1  0  0  0
  5  3  1  1  0  0  0
  7  8  1  0  0  0  0
  7  9  1  0  0  0  0
  7  5  1  0  0  0  0
  8  4  1  0  0  0  0
  9  5  1  0  0  0  0
  9  6  1  0  0  0  0
 10 12  1  0  0  0  0
 10 11  1  0  0  0  0
 11  8  1  0  0  0  0
 12 11  1  0  0  0  0
 13 10  1  0  0  0  0
 14 13  1  0  0  0  0
 15 16  1  0  0  0  0
 16 17  1  0  0  0  0
 16 14  1  0  0  0  0
 17 24  1  0  0  0  0
 17 18  1  0  0  0  0
 19 17  1  0  0  0  0
 21 22  1  0  0  0  0
 21 24  1  0  0  0  0
 22 20  1  0  0  0  0
 23 20  1  0  0  0  0
 24 23  1  0  0  0  0
 25 27  1  0  0  0  0
 27 29  1  0  0  0  0
 27 26  1  0  0  0  0
 28 27  2  0  0  0  0
 29 31  1  0  0  0  0
 30 31  1  0  0  0  0
 31 32  1  0  0  0  0
 34 40  1  0  0  0  0
 35 36  1  0  0  0  0
 35 33  1  0  0  0  0
 36 34  1  0  0  0  0
 36 33  1  0  0  0  0
 37 35  1  0  0  0  0
 38 40  1  0  0  0  0
 39 38  1  0  0  0  0
 39 35  1  0  0  0  0
 40 31  1  0  0  0  0
M  END
>  <MODEL>
3

>  <REMARK>
 VINA RESULT:      -7.0      4.146      8.658
  Name = 
  11 active torsions:
  status: ('A' for Active; 'I' for Inactive)
    1  A    between atoms: C_2  and  C_33
    2  A    between atoms: C_2  and  C_35
    3  A    between atoms: C_7  and  C_13
    4  A    between atoms: C_7  and  C_33
    5  A    between atoms: O_11  and  P_14
    6  A    between atoms: O_11  and  C_18
    7  A    between atoms: C_13  and  C_19
    8  A    between atoms: P_14  and  O_27
    9  A    between atoms: C_17  and  O_27
   10  A    between atoms: C_18  and  N_39
   11  A    between atoms: C_23  and  C_37
                            x       y       z     vdW  Elec       q    Type
                         _______ _______ _______ _____ _____    ______ ____

>  <TORSDO>
F 11

$$$$
=
 OpenBabel11072415153D

 40 46  0  0  1  0  0  0  0  0999 V2000
  160.4720  204.9310  144.6630 N   0  0  0  0  0  2  0  0  0  0  0  0
  162.9080  204.5000  145.4050 F   0  0  0  0  0  0  0  0  0  0  0  0
  160.1090  206.2200  145.1850 C   0  0  0  0  0  2  0  0  0  0  0  0
  161.7860  204.8240  148.8550 C   0  0  1  0  0  3  0  0  0  0  0  0
  160.5580  205.1700  146.1300 C   0  0  2  0  0  0  0  0  0  0  0  0
  162.2230  203.9080  147.7290 C   0  0  0  0  0  2  0  0  0  0  0  0
  161.6930  206.0540  146.7060 C   0  0  1  0  0  3  0  0  0  0  0  0
  161.5330  206.1940  148.2150 C   0  0  2  0  0  3  0  0  0  0  0  0
  161.9860  204.6500  146.4290 C   0  0  1  0  0  0  0  0  0  0  0  0
  161.6620  208.6870  148.7010 C   0  0  2  0  0  3  0  0  0  0  0  0
  162.4080  207.3620  148.7120 C   0  0  2  0  0  3  0  0  0  0  0  0
  162.7140  208.3990  147.6460 C   0  0  0  0  0  2  0  0  0  0  0  0
  162.2430  209.6080  149.7590 C   0  0  0  0  0  2  0  0  0  0  0  0
  161.5390  210.9600  149.7550 C   0  0  0  0  0  2  0  0  0  0  0  0
  163.2840  211.8610  148.4060 O   0  0  0  0  0  1  0  0  0  0  0  0
  161.8940  211.7710  148.5100 C   0  0  2  0  0  3  0  0  0  0  0  0
  161.2520  213.1730  148.5420 C   0  0  2  0  0  0  0  0  0  0  0  0
  162.2410  214.1420  148.5780 F   0  0  0  0  0  0  0  0  0  0  0  0
  160.3940  213.3020  149.7960 C   0  0  0  0  0  1  0  0  0  0  0  0
  158.4810  212.7020  146.3820 C   0  0  0  0  0  2  0  0  0  0  0  0
  160.7980  212.6280  146.2240 O   0  0  0  0  0  0  0  0  0  0  0  0
  159.6410  212.2960  145.5250 C   0  0  0  0  0  2  0  0  0  0  0  0
  159.0140  213.0970  147.6040 O   0  0  0  0  0  0  0  0  0  0  0  0
  160.3540  213.3990  147.3130 C   0  0  0  0  0  3  0  0  0  0  0  0
  160.5930  204.3390  149.4000 O   0  0  0  0  0  0  0  0  0  0  0  0
  159.7510  203.2400  151.7750 O   0  0  0  0  0  1  0  0  0  0  0  0
  160.8000  204.3750  151.0850 P   0  0  1  0  0  0  0  0  0  0  0  0
  162.2270  204.0010  151.4250 O   0  0  0  0  0  0  0  0  0  0  0  0
  160.4600  205.9560  151.6520 O   0  0  0  0  0  0  0  0  0  0  0  0
  162.6770  206.5040  152.1090 O   0  0  0  0  0  1  0  0  0  0  0  0
  161.3850  206.3710  152.6450 C   0  0  0  0  0  0  0  0  0  0  0  0
  161.4070  205.4320  153.6840 O   0  0  0  0  0  1  0  0  0  0  0  0
  159.9440  210.3560  153.1690 C   0  0  0  0  0  2  0  0  0  0  0  0
  161.8710  208.7240  152.8140 C   0  0  0  0  0  2  0  0  0  0  0  0
  160.5580  210.1110  154.5360 C   0  0  1  0  0  0  0  0  0  0  0  0
  161.4450  210.1270  153.2930 C   0  0  2  0  0  3  0  0  0  0  0  0
  160.5640  211.3630  155.3870 C   0  0  0  0  0  1  0  0  0  0  0  0
  160.8820  207.6120  154.6480 C   0  0  0  0  0  2  0  0  0  0  0  0
  160.0810  208.8000  155.1610 C   0  0  0  0  0  2  0  0  0  0  0  0
  160.9300  207.6620  153.1890 N   0  0  0  0  0  0  0  0  0  0  0  0
  1  3  1  0  0  0  0
  1  5  1  0  0  0  0
  2  9  1  0  0  0  0
  4 25  1  6  0  0  0
  5  3  1  1  0  0  0
  5  9  1  0  0  0  0
  5  7  1  0  0  0  0
  6  4  1  0  0  0  0
  7  8  1  0  0  0  0
  8 11  1  0  0  0  0
  8  4  1  0  0  0  0
  9  7  1  0  0  0  0
  9  6  1  0  0  0  0
 10 11  1  0  0  0  0
 10 13  1  0  0  0  0
 12 10  1  0  0  0  0
 12 11  1  0  0  0  0
 14 13  1  0  0  0  0
 15 16  1  0  0  0  0
 16 17  1  0  0  0  0
 16 14  1  0  0  0  0
 17 18  1  0  0  0  0
 17 19  1  0  0  0  0
 20 23  1  0  0  0  0
 21 24  1  0  0  0  0
 22 21  1  0  0  0  0
 22 20  1  0  0  0  0
 24 23  1  0  0  0  0
 24 17  1  0  0  0  0
 25 27  1  0  0  0  0
 27 28  2  0  0  0  0
 27 29  1  0  0  0  0
 27 26  1  0  0  0  0
 29 31  1  0  0  0  0
 30 31  1  0  0  0  0
 31 40  1  0  0  0  0
 31 32  1  0  0  0  0
 33 36  1  0  0  0  0
 33 35  1  0  0  0  0
 34 40  1  0  0  0  0
 34 36  1  0  0  0  0
 35 39  1  0  0  0  0
 35 37  1  0  0  0  0
 36 35  1  0  0  0  0
 38 39  1  0  0  0  0
 40 38  1  0  0  0  0
M  END
>  <MODEL>
4

>  <REMARK>
 VINA RESULT:      -6.8      2.418      6.886
  Name = 
  11 active torsions:
  status: ('A' for Active; 'I' for Inactive)
    1  A    between atoms: C_2  and  C_33
    2  A    between atoms: C_2  and  C_35
    3  A    between atoms: C_7  and  C_13
    4  A    between atoms: C_7  and  C_33
    5  A    between atoms: O_11  and  P_14
    6  A    between atoms: O_11  and  C_18
    7  A    between atoms: C_13  and  C_19
    8  A    between atoms: P_14  and  O_27
    9  A    between atoms: C_17  and  O_27
   10  A    between atoms: C_18  and  N_39
   11  A    between atoms: C_23  and  C_37
                            x       y       z     vdW  Elec       q    Type
                         _______ _______ _______ _____ _____    ______ ____

>  <TORSDO>
F 11

$$$$
=
 OpenBabel11072415153D

 40 46  0  0  1  0  0  0  0  0999 V2000
  162.3050  208.1670  148.5370 N   0  0  0  0  0  2  0  0  0  0  0  0
  160.0800  206.9980  149.1330 F   0  0  0  0  0  0  0  0  0  0  0  0
  163.3550  207.2580  148.9070 C   0  0  0  0  0  2  0  0  0  0  0  0
  161.2290  206.8390  152.5860 C   0  0  1  0  0  3  0  0  0  0  0  0
  162.3930  207.6940  149.9460 C   0  0  2  0  0  0  0  0  0  0  0  0
  160.3270  207.5020  151.5640 C   0  0  0  0  0  2  0  0  0  0  0  0
  161.9890  206.2420  150.3040 C   0  0  1  0  0  3  0  0  0  0  0  0
  162.2210  205.9850  151.7880 C   0  0  2  0  0  3  0  0  0  0  0  0
  160.9320  207.2450  150.1980 C   0  0  1  0  0  0  0  0  0  0  0  0
  161.3920  203.7140  151.0000 C   0  0  2  0  0  3  0  0  0  0  0  0
  162.1920  204.4660  152.0510 C   0  0  2  0  0  3  0  0  0  0  0  0
  160.8140  203.9250  152.3860 C   0  0  0  0  0  2  0  0  0  0  0  0
  161.9160  202.2930  150.8800 C   0  0  0  0  0  2  0  0  0  0  0  0
  160.8680  201.3720  150.2670 C   0  0  0  0  0  2  0  0  0  0  0  0
  158.7660  201.7050  149.1970 O   0  0  0  0  0  1  0  0  0  0  0  0
  160.1150  202.0620  149.1300 C   0  0  2  0  0  3  0  0  0  0  0  0
  160.7120  201.7060  147.7540 C   0  0  2  0  0  0  0  0  0  0  0  0
  159.6930  201.4360  146.8550 F   0  0  0  0  0  0  0  0  0  0  0  0
  161.5830  200.4610  147.8930 C   0  0  0  0  0  1  0  0  0  0  0  0
  161.5320  205.0150  146.7850 C   0  0  0  0  0  2  0  0  0  0  0  0
  161.5220  202.9060  145.8100 O   0  0  0  0  0  0  0  0  0  0  0  0
  161.6410  204.2560  145.4970 C   0  0  0  0  0  2  0  0  0  0  0  0
  161.1910  204.0850  147.7610 O   0  0  0  0  0  0  0  0  0  0  0  0
  161.5840  202.8530  147.2140 C   0  0  0  0  0  3  0  0  0  0  0  0
  161.9280  207.8290  153.2860 O   0  0  0  0  0  0  0  0  0  0  0  0
  160.0570  206.7850  155.0080 O   0  0  0  0  0  0  0  0  0  0  0  0
  161.0220  208.1380  154.6880 P   0  0  1  0  0  0  0  0  0  0  0  0
  161.9600  208.3650  155.8540 O   0  0  0  0  0  1  0  0  0  0  0  0
  160.0620  209.5350  154.4300 O   0  0  0  0  0  0  0  0  0  0  0  0
  161.9960  210.5140  153.5770 O   0  0  0  0  0  1  0  0  0  0  0  0
  160.8510  210.7130  154.3670 C   0  0  0  0  0  0  0  0  0  0  0  0
  161.2370  211.0860  155.6600 O   0  0  0  0  0  1  0  0  0  0  0  0
  158.3360  214.1080  153.7510 C   0  0  0  0  0  2  0  0  0  0  0  0
  158.6230  211.6130  154.1890 C   0  0  0  0  0  2  0  0  0  0  0  0
  158.1850  213.4160  152.4080 C   0  0  1  0  0  0  0  0  0  0  0  0
  157.6910  212.7310  153.6800 C   0  0  2  0  0  3  0  0  0  0  0  0
  157.1330  214.0780  151.5430 C   0  0  0  0  0  1  0  0  0  0  0  0
  160.0810  211.7520  152.3340 C   0  0  0  0  0  2  0  0  0  0  0  0
  159.5340  213.0600  151.7820 C   0  0  0  0  0  2  0  0  0  0  0  0
  160.0260  211.7900  153.7940 N   0  0  0  0  0  0  0  0  0  0  0  0
  1  3  1  0  0  0  0
  1  5  1  0  0  0  0
  2  9  1  0  0  0  0
  4 25  1  6  0  0  0
  5  3  1  1  0  0  0
  5  9  1  0  0  0  0
  5  7  1  0  0  0  0
  6  4  1  0  0  0  0
  7  8  1  0  0  0  0
  8 11  1  0  0  0  0
  8  4  1  0  0  0  0
  9  7  1  0  0  0  0
  9  6  1  0  0  0  0
 10 11  1  0  0  0  0
 10 12  1  0  0  0  0
 11 12  1  0  0  0  0
 13 10  1  0  0  0  0
 14 13  1  0  0  0  0
 16 15  1  0  0  0  0
 16 14  1  0  0  0  0
 17 19  1  0  0  0  0
 17 16  1  0  0  0  0
 18 17  1  0  0  0  0
 20 23  1  0  0  0  0
 21 24  1  0  0  0  0
 22 21  1  0  0  0  0
 22 20  1  0  0  0  0
 24 17  1  0  0  0  0
 24 23  1  0  0  0  0
 25 27  1  0  0  0  0
 27 26  2  0  0  0  0
 27 28  1  0  0  0  0
 29 27  1  0  0  0  0
 30 31  1  0  0  0  0
 31 29  1  0  0  0  0
 31 32  1  0  0  0  0
 35 36  1  0  0  0  0
 35 33  1  0  0  0  0
 36 33  1  0  0  0  0
 36 34  1  0  0  0  0
 37 35  1  0  0  0  0
 38 40  1  0  0  0  0
 39 38  1  0  0  0  0
 39 35  1  0  0  0  0
 40 34  1  0  0  0  0
 40 31  1  0  0  0  0
M  END
>  <MODEL>
5

>  <REMARK>
 VINA RESULT:      -6.8      3.648      8.789
  Name = 
  11 active torsions:
  status: ('A' for Active; 'I' for Inactive)
    1  A    between atoms: C_2  and  C_33
    2  A    between atoms: C_2  and  C_35
    3  A    between atoms: C_7  and  C_13
    4  A    between atoms: C_7  and  C_33
    5  A    between atoms: O_11  and  P_14
    6  A    between atoms: O_11  and  C_18
    7  A    between atoms: C_13  and  C_19
    8  A    between atoms: P_14  and  O_27
    9  A    between atoms: C_17  and  O_27
   10  A    between atoms: C_18  and  N_39
   11  A    between atoms: C_23  and  C_37
                            x       y       z     vdW  Elec       q    Type
                         _______ _______ _______ _____ _____    ______ ____

>  <TORSDO>
F 11

$$$$
=
 OpenBabel11072415153D

 40 46  0  0  1  0  0  0  0  0999 V2000
  160.6650  213.0690  145.8260 N   0  0  0  0  0  2  0  0  0  0  0  0
  162.5950  214.0590  147.2280 F   0  0  0  0  0  0  0  0  0  0  0  0
  159.5000  213.0860  146.6680 C   0  0  0  0  0  2  0  0  0  0  0  0
  162.0470  211.3900  149.6450 C   0  0  1  0  0  3  0  0  0  0  0  0
  160.7030  212.3550  147.1320 C   0  0  2  0  0  0  0  0  0  0  0  0
  162.8990  211.9490  148.5220 C   0  0  0  0  0  2  0  0  0  0  0  0
  160.7860  213.1600  148.4540 C   0  0  1  0  0  3  0  0  0  0  0  0
  160.7530  212.2120  149.6460 C   0  0  2  0  0  3  0  0  0  0  0  0
  162.0260  212.8980  147.7270 C   0  0  1  0  0  0  0  0  0  0  0  0
  159.3230  212.3940  151.7410 C   0  0  2  0  0  3  0  0  0  0  0  0
  160.4450  213.0150  150.9260 C   0  0  2  0  0  3  0  0  0  0  0  0
  159.0680  213.6540  150.9350 C   0  0  0  0  0  2  0  0  0  0  0  0
  159.4960  212.7560  153.2060 C   0  0  0  0  0  2  0  0  0  0  0  0
  159.3490  211.5270  154.0950 C   0  0  0  0  0  2  0  0  0  0  0  0
  159.9100  213.2230  155.6710 O   0  0  0  0  0  1  0  0  0  0  0  0
  159.6510  211.8550  155.5570 C   0  0  2  0  0  3  0  0  0  0  0  0
  160.8320  211.0230  156.0940 C   0  0  2  0  0  0  0  0  0  0  0  0
  161.5190  211.7470  157.0550 F   0  0  0  0  0  0  0  0  0  0  0  0
  161.7850  210.7060  154.9460 C   0  0  0  0  0  1  0  0  0  0  0  0
  160.9270  207.5840  156.9480 C   0  0  0  0  0  2  0  0  0  0  0  0
  159.5020  209.0180  155.8030 O   0  0  0  0  0  0  0  0  0  0  0  0
  159.7370  207.6670  156.0410 C   0  0  0  0  0  2  0  0  0  0  0  0
  161.4260  208.8770  157.0610 O   0  0  0  0  0  0  0  0  0  0  0  0
  160.3440  209.6960  156.7020 C   0  0  0  0  0  3  0  0  0  0  0  0
  161.7470  210.0520  149.3670 O   0  0  0  0  0  0  0  0  0  0  0  0
  163.0920  210.0510  151.7640 O   0  0  0  0  0  1  0  0  0  0  0  0
  161.9600  209.2120  150.8260 P   0  0  1  0  0  0  0  0  0  0  0  0
  160.6440  209.1560  151.5720 O   0  0  0  0  0  0  0  0  0  0  0  0
  162.5010  207.6230  150.4780 O   0  0  0  0  0  0  0  0  0  0  0  0
  162.6960  207.0280  148.2350 O   0  0  0  0  0  1  0  0  0  0  0  0
  161.8400  207.0770  149.3480 C   0  0  0  0  0  0  0  0  0  0  0  0
  160.7200  207.8590  149.0380 O   0  0  0  0  0  1  0  0  0  0  0  0
  160.0850  203.6530  151.2000 C   0  0  0  0  0  2  0  0  0  0  0  0
  162.0400  205.2660  150.9240 C   0  0  0  0  0  2  0  0  0  0  0  0
  161.0730  202.9760  150.2670 C   0  0  1  0  0  0  0  0  0  0  0  0
  161.5800  203.8710  151.3940 C   0  0  2  0  0  3  0  0  0  0  0  0
  161.1450  201.4820  150.5030 C   0  0  0  0  0  1  0  0  0  0  0  0
  161.7390  204.7780  148.6320 C   0  0  0  0  0  2  0  0  0  0  0  0
  160.9590  203.4870  148.8290 C   0  0  0  0  0  2  0  0  0  0  0  0
  161.3840  205.7190  149.6920 N   0  0  0  0  0  0  0  0  0  0  0  0
  1  3  1  0  0  0  0
  1  5  1  0  0  0  0
  2  9  1  0  0  0  0
  4 25  1  6  0  0  0
  4  8  1  0  0  0  0
  5  3  1  1  0  0  0
  5  9  1  0  0  0  0
  5  7  1  0  0  0  0
  6  4  1  0  0  0  0
  7  8  1  0  0  0  0
  8 11  1  0  0  0  0
  9  7  1  0  0  0  0
  9  6  1  0  0  0  0
 10 13  1  0  0  0  0
 11 12  1  0  0  0  0
 11 10  1  0  0  0  0
 12 10  1  0  0  0  0
 13 14  1  0  0  0  0
 14 16  1  0  0  0  0
 16 15  1  0  0  0  0
 16 17  1  0  0  0  0
 17 24  1  0  0  0  0
 17 18  1  0  0  0  0
 19 17  1  0  0  0  0
 20 23  1  0  0  0  0
 21 22  1  0  0  0  0
 21 24  1  0  0  0  0
 22 20  1  0  0  0  0
 24 23  1  0  0  0  0
 25 27  1  0  0  0  0
 27 28  2  0  0  0  0
 27 26  1  0  0  0  0
 29 27  1  0  0  0  0
 30 31  1  0  0  0  0
 31 40  1  0  0  0  0
 31 29  1  0  0  0  0
 32 31  1  0  0  0  0
 33 36  1  0  0  0  0
 34 36  1  0  0  0  0
 35 37  1  0  0  0  0
 35 33  1  0  0  0  0
 35 36  1  0  0  0  0
 38 39  1  0  0  0  0
 38 40  1  0  0  0  0
 39 35  1  0  0  0  0
 40 34  1  0  0  0  0
M  END
>  <MODEL>
6

>  <REMARK>
 VINA RESULT:      -6.6      2.621      6.809
  Name = 
  11 active torsions:
  status: ('A' for Active; 'I' for Inactive)
    1  A    between atoms: C_2  and  C_33
    2  A    between atoms: C_2  and  C_35
    3  A    between atoms: C_7  and  C_13
    4  A    between atoms: C_7  and  C_33
    5  A    between atoms: O_11  and  P_14
    6  A    between atoms: O_11  and  C_18
    7  A    between atoms: C_13  and  C_19
    8  A    between atoms: P_14  and  O_27
    9  A    between atoms: C_17  and  O_27
   10  A    between atoms: C_18  and  N_39
   11  A    between atoms: C_23  and  C_37
                            x       y       z     vdW  Elec       q    Type
                         _______ _______ _______ _____ _____    ______ ____

>  <TORSDO>
F 11

$$$$
=
 OpenBabel11072415153D

 40 46  0  0  1  0  0  0  0  0999 V2000
  162.5320  205.0760  145.5770 N   0  0  0  0  0  2  0  0  0  0  0  0
  160.0870  205.7900  146.0050 F   0  0  0  0  0  0  0  0  0  0  0  0
  162.9540  204.3500  146.7430 C   0  0  0  0  0  2  0  0  0  0  0  0
  161.2550  207.5850  148.9510 C   0  0  1  0  0  3  0  0  0  0  0  0
  162.4700  205.7410  146.9070 C   0  0  2  0  0  0  0  0  0  0  0  0
  160.7680  207.6530  147.5170 C   0  0  0  0  0  2  0  0  0  0  0  0
  161.3790  205.3310  147.9290 C   0  0  1  0  0  3  0  0  0  0  0  0
  161.5600  206.1080  149.2270 C   0  0  2  0  0  3  0  0  0  0  0  0
  161.0240  206.2960  146.8920 C   0  0  1  0  0  0  0  0  0  0  0  0
  161.6230  204.8750  151.4500 C   0  0  2  0  0  3  0  0  0  0  0  0
  160.7410  205.4300  150.3440 C   0  0  2  0  0  3  0  0  0  0  0  0
  160.9720  203.9340  150.4530 C   0  0  0  0  0  2  0  0  0  0  0  0
  160.8480  204.8470  152.7560 C   0  0  0  0  0  2  0  0  0  0  0  0
  161.4740  205.7810  153.7850 C   0  0  0  0  0  2  0  0  0  0  0  0
  161.9100  207.9160  152.8220 O   0  0  0  0  0  1  0  0  0  0  0  0
  160.9870  207.2180  153.6050 C   0  0  2  0  0  3  0  0  0  0  0  0
  160.7730  207.9190  154.9610 C   0  0  2  0  0  0  0  0  0  0  0  0
  161.9570  207.9220  155.6810 F   0  0  0  0  0  0  0  0  0  0  0  0
  159.7180  207.1580  155.7570 C   0  0  0  0  0  1  0  0  0  0  0  0
  160.8290  211.4540  155.2190 C   0  0  0  0  0  2  0  0  0  0  0  0
  159.3800  209.7260  155.7800 O   0  0  0  0  0  0  0  0  0  0  0  0
  159.5950  211.0860  155.9850 C   0  0  0  0  0  2  0  0  0  0  0  0
  161.3650  210.2630  154.7420 O   0  0  0  0  0  0  0  0  0  0  0  0
  160.2850  209.3660  154.7660 C   0  0  0  0  0  3  0  0  0  0  0  0
  162.4320  208.3320  149.0690 O   0  0  0  0  0  0  0  0  0  0  0  0
  160.7610  209.6990  150.7700 O   0  0  0  0  0  1  0  0  0  0  0  0
  161.9550  209.8780  149.5840 P   0  0  1  0  0  0  0  0  0  0  0  0
  163.1440  210.5980  150.1830 O   0  0  0  0  0  0  0  0  0  0  0  0
  161.3610  210.7530  148.2360 O   0  0  0  0  0  0  0  0  0  0  0  0
  163.1060  212.2960  148.2660 O   0  0  0  0  0  1  0  0  0  0  0  0
  161.7110  212.1260  148.3020 C   0  0  0  0  0  0  0  0  0  0  0  0
  161.2060  212.6800  149.4850 O   0  0  0  0  0  1  0  0  0  0  0  0
  159.0160  214.0260  145.5900 C   0  0  0  0  0  2  0  0  0  0  0  0
  160.1400  211.9210  146.4870 C   0  0  0  0  0  2  0  0  0  0  0  0
  160.1700  213.7220  144.6510 C   0  0  1  0  0  0  0  0  0  0  0  0
  159.3980  212.5800  145.3060 C   0  0  2  0  0  3  0  0  0  0  0  0
  159.8260  214.0320  143.2100 C   0  0  0  0  0  1  0  0  0  0  0  0
  162.1070  213.1930  146.1780 C   0  0  0  0  0  2  0  0  0  0  0  0
  161.5120  214.2010  145.2060 C   0  0  0  0  0  2  0  0  0  0  0  0
  161.0910  212.8160  147.1580 N   0  0  0  0  0  0  0  0  0  0  0  0
  1  3  1  0  0  0  0
  1  5  1  0  0  0  0
  2  9  1  0  0  0  0
  4 25  1  6  0  0  0
  4  8  1  0  0  0  0
  5  3  1  1  0  0  0
  5  7  1  0  0  0  0
  6  4  1  0  0  0  0
  7  8  1  0  0  0  0
  8 11  1  0  0  0  0
  9  5  1  0  0  0  0
  9  6  1  0  0  0  0
  9  7  1  0  0  0  0
 10 13  1  0  0  0  0
 11 12  1  0  0  0  0
 11 10  1  0  0  0  0
 12 10  1  0  0  0  0
 13 14  1  0  0  0  0
 15 16  1  0  0  0  0
 16 14  1  0  0  0  0
 16 17  1  0  0  0  0
 17 18  1  0  0  0  0
 17 19  1  0  0  0  0
 20 22  1  0  0  0  0
 21 22  1  0  0  0  0
 23 24  1  0  0  0  0
 23 20  1  0  0  0  0
 24 17  1  0  0  0  0
 24 21  1  0  0  0  0
 25 27  1  0  0  0  0
 27 28  2  0  0  0  0
 27 26  1  0  0  0  0
 29 31  1  0  0  0  0
 29 27  1  0  0  0  0
 30 31  1  0  0  0  0
 31 32  1  0  0  0  0
 34 40  1  0  0  0  0
 35 39  1  0  0  0  0
 35 36  1  0  0  0  0
 35 33  1  0  0  0  0
 36 33  1  0  0  0  0
 36 34  1  0  0  0  0
 37 35  1  0  0  0  0
 38 40  1  0  0  0  0
 39 38  1  0  0  0  0
 40 31  1  0  0  0  0
M  END
>  <MODEL>
7

>  <REMARK>
 VINA RESULT:      -6.6      2.945      8.251
  Name = 
  11 active torsions:
  status: ('A' for Active; 'I' for Inactive)
    1  A    between atoms: C_2  and  C_33
    2  A    between atoms: C_2  and  C_35
    3  A    between atoms: C_7  and  C_13
    4  A    between atoms: C_7  and  C_33
    5  A    between atoms: O_11  and  P_14
    6  A    between atoms: O_11  and  C_18
    7  A    between atoms: C_13  and  C_19
    8  A    between atoms: P_14  and  O_27
    9  A    between atoms: C_17  and  O_27
   10  A    between atoms: C_18  and  N_39
   11  A    between atoms: C_23  and  C_37
                            x       y       z     vdW  Elec       q    Type
                         _______ _______ _______ _____ _____    ______ ____

>  <TORSDO>
F 11

$$$$
=
 OpenBabel11072415153D

 40 46  0  0  1  0  0  0  0  0999 V2000
  160.3630  211.2280  155.0680 N   0  0  0  0  0  2  0  0  0  0  0  0
  162.6230  210.0200  154.7430 F   0  0  0  0  0  0  0  0  0  0  0  0
  159.3560  210.3610  154.5200 C   0  0  0  0  0  2  0  0  0  0  0  0
  161.9680  210.0150  151.1600 C   0  0  1  0  0  3  0  0  0  0  0  0
  160.4640  210.8080  153.6430 C   0  0  2  0  0  0  0  0  0  0  0  0
  162.7320  210.6160  152.3240 C   0  0  0  0  0  2  0  0  0  0  0  0
  160.8820  209.3580  153.2890 C   0  0  1  0  0  3  0  0  0  0  0  0
  160.8550  209.1600  151.7780 C   0  0  2  0  0  3  0  0  0  0  0  0
  161.9350  210.3280  153.5800 C   0  0  1  0  0  0  0  0  0  0  0  0
  161.6510  206.8590  152.5110 C   0  0  2  0  0  3  0  0  0  0  0  0
  160.8870  207.6510  151.4630 C   0  0  2  0  0  3  0  0  0  0  0  0
  162.2730  207.1170  151.1510 C   0  0  0  0  0  2  0  0  0  0  0  0
  161.1190  205.4370  152.5650 C   0  0  0  0  0  2  0  0  0  0  0  0
  161.9560  204.5060  151.6970 C   0  0  0  0  0  2  0  0  0  0  0  0
  162.0780  202.1270  151.6560 O   0  0  0  0  0  1  0  0  0  0  0  0
  161.2190  203.2000  151.4050 C   0  0  2  0  0  3  0  0  0  0  0  0
  160.6900  203.1560  149.9580 C   0  0  2  0  0  0  0  0  0  0  0  0
  159.3150  203.3270  149.9550 F   0  0  0  0  0  0  0  0  0  0  0  0
  161.0150  201.7970  149.3460 C   0  0  0  0  0  1  0  0  0  0  0  0
  160.8630  205.8270  147.6340 C   0  0  0  0  0  2  0  0  0  0  0  0
  161.7970  203.7130  147.8750 O   0  0  0  0  0  0  0  0  0  0  0  0
  161.6450  204.7450  146.9530 C   0  0  0  0  0  2  0  0  0  0  0  0
  160.4560  205.3070  148.8580 O   0  0  0  0  0  0  0  0  0  0  0  0
  161.3460  204.2480  149.0950 C   0  0  0  0  0  3  0  0  0  0  0  0
  161.3960  211.0470  150.4090 O   0  0  0  0  0  0  0  0  0  0  0  0
  163.4090  211.7200  148.6620 O   0  0  0  0  0  1  0  0  0  0  0  0
  161.9690  210.8440  148.8240 P   0  0  1  0  0  0  0  0  0  0  0  0
  162.2510  209.3780  148.5740 O   0  0  0  0  0  0  0  0  0  0  0  0
  160.7780  211.4050  147.7270 O   0  0  0  0  0  0  0  0  0  0  0  0
  161.8370  213.3860  148.3420 O   0  0  0  0  0  1  0  0  0  0  0  0
  160.7400  212.8220  147.6680 C   0  0  0  0  0  0  0  0  0  0  0  0
  159.5520  213.2830  148.2480 O   0  0  0  0  0  1  0  0  0  0  0  0
  159.7190  214.0630  143.7120 C   0  0  0  0  0  2  0  0  0  0  0  0
  160.0760  212.2160  145.4330 C   0  0  0  0  0  2  0  0  0  0  0  0
  161.1120  213.5120  143.4690 C   0  0  1  0  0  0  0  0  0  0  0  0
  159.9960  212.5830  143.9370 C   0  0  2  0  0  3  0  0  0  0  0  0
  161.4560  213.4690  141.9950 C   0  0  0  0  0  1  0  0  0  0  0  0
  162.1340  213.3280  145.7680 C   0  0  0  0  0  2  0  0  0  0  0  0
  162.1420  214.0810  144.4460 C   0  0  0  0  0  2  0  0  0  0  0  0
  160.7580  213.2260  146.2510 N   0  0  0  0  0  0  0  0  0  0  0  0
  3  1  1  0  0  0  0
  4 25  1  6  0  0  0
  4  8  1  0  0  0  0
  4  6  1  0  0  0  0
  5  3  1  6  0  0  0
  5  1  1  0  0  0  0
  6  9  1  0  0  0  0
  7  9  1  0  0  0  0
  7  5  1  0  0  0  0
  8  7  1  0  0  0  0
  9  5  1  0  0  0  0
  9  2  1  0  0  0  0
 10 13  1  0  0  0  0
 11  8  1  0  0  0  0
 11 10  1  0  0  0  0
 12 11  1  0  0  0  0
 12 10  1  0  0  0  0
 14 13  1  0  0  0  0
 16 15  1  0  0  0  0
 16 14  1  0  0  0  0
 17 16  1  0  0  0  0
 18 17  1  0  0  0  0
 19 17  1  0  0  0  0
 20 23  1  0  0  0  0
 21 24  1  0  0  0  0
 22 20  1  0  0  0  0
 22 21  1  0  0  0  0
 23 24  1  0  0  0  0
 24 17  1  0  0  0  0
 26 27  1  0  0  0  0
 27 25  1  0  0  0  0
 28 27  2  0  0  0  0
 29 27  1  0  0  0  0
 31 29  1  0  0  0  0
 31 32  1  0  0  0  0
 31 30  1  0  0  0  0
 33 36  1  0  0  0  0
 34 40  1  0  0  0  0
 35 33  1  0  0  0  0
 35 36  1  0  0  0  0
 35 39  1  0  0  0  0
 36 34  1  0  0  0  0
 37 35  1  0  0  0  0
 38 40  1  0  0  0  0
 39 38  1  0  0  0  0
 40 31  1  0  0  0  0
M  END
>  <MODEL>
8

>  <REMARK>
 VINA RESULT:      -6.5      3.034      7.457
  Name = 
  11 active torsions:
  status: ('A' for Active; 'I' for Inactive)
    1  A    between atoms: C_2  and  C_33
    2  A    between atoms: C_2  and  C_35
    3  A    between atoms: C_7  and  C_13
    4  A    between atoms: C_7  and  C_33
    5  A    between atoms: O_11  and  P_14
    6  A    between atoms: O_11  and  C_18
    7  A    between atoms: C_13  and  C_19
    8  A    between atoms: P_14  and  O_27
    9  A    between atoms: C_17  and  O_27
   10  A    between atoms: C_18  and  N_39
   11  A    between atoms: C_23  and  C_37
                            x       y       z     vdW  Elec       q    Type
                         _______ _______ _______ _____ _____    ______ ____

>  <TORSDO>
F 11

$$$$
=
 OpenBabel11072415153D

 40 46  0  0  1  0  0  0  0  0999 V2000
  161.2090  201.6410  151.1430 N   0  0  0  0  0  2  0  0  0  0  0  0
  159.2750  203.2890  151.6060 F   0  0  0  0  0  0  0  0  0  0  0  0
  162.3200  202.0810  151.9410 C   0  0  0  0  0  2  0  0  0  0  0  0
  161.4350  205.9690  150.4130 C   0  0  1  0  0  3  0  0  0  0  0  0
  161.7270  203.0250  150.9640 C   0  0  2  0  0  0  0  0  0  0  0  0
  160.2620  205.0480  150.1380 C   0  0  0  0  0  2  0  0  0  0  0  0
  161.4500  204.1020  152.0430 C   0  0  1  0  0  3  0  0  0  0  0  0
  162.1290  205.4110  151.6620 C   0  0  2  0  0  3  0  0  0  0  0  0
  160.4150  203.8430  151.0460 C   0  0  1  0  0  0  0  0  0  0  0  0
  160.7950  206.6640  153.4270 C   0  0  2  0  0  3  0  0  0  0  0  0
  162.1800  206.3360  152.8950 C   0  0  2  0  0  3  0  0  0  0  0  0
  161.5810  207.7100  152.6590 C   0  0  0  0  0  2  0  0  0  0  0  0
  160.8770  206.9590  154.9150 C   0  0  0  0  0  2  0  0  0  0  0  0
  160.2680  208.3180  155.2380 C   0  0  0  0  0  2  0  0  0  0  0  0
  162.1180  208.8850  156.6280 O   0  0  0  0  0  1  0  0  0  0  0  0
  161.3470  209.3510  155.5610 C   0  0  2  0  0  3  0  0  0  0  0  0
  160.7370  210.7300  155.8830 C   0  0  2  0  0  0  0  0  0  0  0  0
  161.6290  211.4740  156.6370 F   0  0  0  0  0  0  0  0  0  0  0  0
  159.4570  210.5340  156.6900 C   0  0  0  0  0  1  0  0  0  0  0  0
  159.0110  211.4560  152.8730 C   0  0  0  0  0  2  0  0  0  0  0  0
  161.2070  211.0780  153.5310 O   0  0  0  0  0  0  0  0  0  0  0  0
  160.4060  211.1870  152.3970 C   0  0  0  0  0  2  0  0  0  0  0  0
  159.0350  211.3260  154.2570 O   0  0  0  0  0  0  0  0  0  0  0  0
  160.3880  211.4960  154.5940 C   0  0  0  0  0  3  0  0  0  0  0  0
  162.3180  205.9170  149.3290 O   0  0  0  0  0  0  0  0  0  0  0  0
  161.2050  208.4270  149.2050 O   0  0  0  0  0  1  0  0  0  0  0  0
  161.8410  207.1620  148.2780 P   0  0  1  0  0  0  0  0  0  0  0  0
  163.0470  207.6660  147.5140 O   0  0  0  0  0  0  0  0  0  0  0  0
  160.6720  206.5470  147.1860 O   0  0  0  0  0  0  0  0  0  0  0  0
  162.6630  205.9860  146.1160 O   0  0  0  0  0  1  0  0  0  0  0  0
  161.2700  205.8000  146.1390 C   0  0  0  0  0  0  0  0  0  0  0  0
  160.7280  206.1990  144.9110 O   0  0  0  0  0  1  0  0  0  0  0  0
  160.1880  202.0060  147.7720 C   0  0  0  0  0  2  0  0  0  0  0  0
  161.9520  203.7690  147.2420 C   0  0  0  0  0  2  0  0  0  0  0  0
  160.8690  201.5610  146.4900 C   0  0  1  0  0  0  0  0  0  0  0  0
  161.6710  202.2880  147.5670 C   0  0  2  0  0  3  0  0  0  0  0  0
  161.0310  200.0570  146.4260 C   0  0  0  0  0  1  0  0  0  0  0  0
  161.0000  203.6510  145.0820 C   0  0  0  0  0  2  0  0  0  0  0  0
  160.3320  202.2960  145.2610 C   0  0  0  0  0  2  0  0  0  0  0  0
  160.9560  204.3760  146.3500 N   0  0  0  0  0  0  0  0  0  0  0  0
  1  3  1  0  0  0  0
  4 25  1  6  0  0  0
  4  8  1  0  0  0  0
  5  9  1  0  0  0  0
  5  1  1  0  0  0  0
  5  3  1  6  0  0  0
  5  7  1  0  0  0  0
  6  4  1  0  0  0  0
  6  9  1  0  0  0  0
  8  7  1  0  0  0  0
  8 11  1  0  0  0  0
  9  2  1  0  0  0  0
  9  7  1  0  0  0  0
 10 13  1  0  0  0  0
 11 10  1  0  0  0  0
 12 11  1  0  0  0  0
 12 10  1  0  0  0  0
 13 14  1  0  0  0  0
 14 16  1  0  0  0  0
 16 17  1  0  0  0  0
 16 15  1  0  0  0  0
 17 18  1  0  0  0  0
 17 19  1  0  0  0  0
 20 23  1  0  0  0  0
 21 24  1  0  0  0  0
 22 20  1  0  0  0  0
 22 21  1  0  0  0  0
 23 24  1  0  0  0  0
 24 17  1  0  0  0  0
 27 26  1  0  0  0  0
 27 25  1  0  0  0  0
 28 27  2  0  0  0  0
 29 27  1  0  0  0  0
 30 31  1  0  0  0  0
 31 40  1  0  0  0  0
 31 29  1  0  0  0  0
 32 31  1  0  0  0  0
 34 36  1  0  0  0  0
 35 36  1  0  0  0  0
 35 33  1  0  0  0  0
 36 33  1  0  0  0  0
 37 35  1  0  0  0  0
 38 39  1  0  0  0  0
 38 40  1  0  0  0  0
 39 35  1  0  0  0  0
 40 34  1  0  0  0  0
M  END
>  <MODEL>
9

>  <REMARK>
 VINA RESULT:      -6.2      3.756      6.270
  Name = 
  11 active torsions:
  status: ('A' for Active; 'I' for Inactive)
    1  A    between atoms: C_2  and  C_33
    2  A    between atoms: C_2  and  C_35
    3  A    between atoms: C_7  and  C_13
    4  A    between atoms: C_7  and  C_33
    5  A    between atoms: O_11  and  P_14
    6  A    between atoms: O_11  and  C_18
    7  A    between atoms: C_13  and  C_19
    8  A    between atoms: P_14  and  O_27
    9  A    between atoms: C_17  and  O_27
   10  A    between atoms: C_18  and  N_39
   11  A    between atoms: C_23  and  C_37
                            x       y       z     vdW  Elec       q    Type
                         _______ _______ _______ _____ _____    ______ ____

>  <TORSDO>
F 11

$$$$
