=
 OpenBabel11072410473D

 38 43  0  0  1  0  0  0  0  0999 V2000
  161.9620  209.8990  148.6430 N   0  0  0  0  0  0  0  0  0  0  0  0
  161.8130  208.5900  148.4220 N   0  0  0  0  0  0  0  0  0  0  0  0
  162.0870  209.5190  150.9850 C   0  0  0  0  0  0  0  0  0  0  0  0
  162.0950  210.3930  149.9000 C   0  0  0  0  0  3  0  0  0  0  0  0
  161.9380  208.1530  150.7530 C   0  0  0  0  0  3  0  0  0  0  0  0
  161.7950  207.6880  149.4420 C   0  0  0  0  0  0  0  0  0  0  0  0
  160.9390  204.0290  149.9140 C   0  0  0  0  0  0  0  0  0  0  0  0
  161.2790  203.5010  148.6440 C   0  0  0  0  0  0  0  0  0  0  0  0
  161.1140  205.3950  150.1520 C   0  0  0  0  0  3  0  0  0  0  0  0
  161.9410  205.7140  147.9090 C   0  0  0  0  0  3  0  0  0  0  0  0
  161.7990  204.3510  147.6490 C   0  0  0  0  0  0  0  0  0  0  0  0
  161.0760  202.1570  148.3530 O   0  0  0  0  0  1  0  0  0  0  0  0
  161.6080  206.2490  149.1600 C   0  0  0  0  0  0  0  0  0  0  0  0
  161.2070  202.5400  151.9080 C   0  0  0  0  0  1  0  0  0  0  0  0
  160.4220  203.2590  150.9680 O   0  0  0  0  0  0  0  0  0  0  0  0
  162.1470  203.8790  146.3780 O   0  0  0  0  0  0  0  0  0  0  0  0
  161.3230  203.9640  145.2480 C   0  0  0  0  0  0  0  0  0  0  0  0
  160.5660  202.9970  144.9660 O   0  0  0  0  0  0  0  0  0  0  0  0
  160.1860  206.1290  144.9630 C   0  0  0  0  0  1  0  0  0  0  0  0
  161.2510  205.2020  144.4140 C   0  0  0  0  0  2  0  0  0  0  0  0
  162.2570  210.0350  152.3740 C   0  0  0  0  0  2  0  0  0  0  0  0
  160.9940  210.7430  152.8400 C   0  0  0  0  0  2  0  0  0  0  0  0
  159.6210  212.8330  155.8510 C   0  0  0  0  0  2  0  0  0  0  0  0
  158.1050  213.0020  155.7960 C   0  0  2  0  0  3  0  0  0  0  0  0
  160.0140  206.8600  157.2590 O   0  0  0  0  0  0  0  0  0  0  0  0
  160.5170  207.7200  156.4890 C   0  0  0  0  0  0  0  0  0  0  0  0
  157.5120  212.1700  154.6990 C   0  0  2  0  0  3  0  0  0  0  0  0
  160.1910  209.8360  153.7690 C   0  0  1  0  0  3  0  0  0  0  0  0
  159.9330  211.3410  155.8650 C   0  0  1  0  0  3  0  0  0  0  0  0
  161.1300  208.9190  154.5600 C   0  0  1  0  0  3  0  0  0  0  0  0
  158.4680  211.5220  153.8850 O   0  0  0  0  0  0  0  0  0  0  0  0
  161.2680  208.8160  156.9640 N   0  0  0  0  0  2  0  0  0  0  0  0
  159.2310  210.6310  154.6730 C   0  0  1  0  0  3  0  0  0  0  0  0
  157.7010  213.5600  154.5710 O   0  0  0  0  0  0  0  0  0  0  0  0
  161.7530  209.5760  155.8230 C   0  0  2  0  0  3  0  0  0  0  0  0
  161.9250  211.5420  157.1920 O   0  0  0  0  0  1  0  0  0  0  0  0
  161.4380  211.0710  155.9690 C   0  0  2  0  0  3  0  0  0  0  0  0
  160.3820  207.6690  155.0210 C   0  0  0  0  0  2  0  0  0  0  0  0
  1  4  1  0  0  0  0
  2  1  2  0  0  0  0
  2  6  1  0  0  0  0
  3 21  1  0  0  0  0
  4  3  2  0  0  0  0
  5  3  1  0  0  0  0
  6  5  2  0  0  0  0
  7  9  1  0  0  0  0
  7 15  1  0  0  0  0
  8  7  2  0  0  0  0
 10 13  1  0  0  0  0
 11 10  2  0  0  0  0
 11  8  1  0  0  0  0
 12  8  1  0  0  0  0
 13  6  1  0  0  0  0
 13  9  2  0  0  0  0
 15 14  1  0  0  0  0
 16 11  1  0  0  0  0
 17 16  1  0  0  0  0
 18 17  2  0  0  0  0
 20 19  1  0  0  0  0
 20 17  1  0  0  0  0
 21 22  1  0  0  0  0
 24 23  1  6  0  0  0
 26 32  1  0  0  0  0
 26 25  2  0  0  0  0
 27 31  1  6  0  0  0
 27 24  1  0  0  0  0
 28 22  1  1  0  0  0
 28 30  1  0  0  0  0
 28 33  1  0  0  0  0
 29 23  1  6  0  0  0
 29 37  1  0  0  0  0
 30 38  1  1  0  0  0
 30 35  1  0  0  0  0
 33 31  1  6  0  0  0
 33 29  1  0  0  0  0
 34 27  1  0  0  0  0
 34 24  1  0  0  0  0
 35 37  1  0  0  0  0
 35 32  1  1  0  0  0
 37 36  1  1  0  0  0
 38 26  1  0  0  0  0
M  END
>  <MODEL>
1

>  <REMARK>
 VINA RESULT:      -9.3      0.000      0.000
  Name = 
  8 active torsions:
  status: ('A' for Active; 'I' for Inactive)
    1  A    between atoms: C_1  and  O_34
    2  A    between atoms: C_6  and  C_17
    3  A    between atoms: C_6  and  C_36
    4  A    between atoms: O_10  and  C_22
    5  A    between atoms: O_10  and  C_27
    6  A    between atoms: C_14  and  C_22
    7  A    between atoms: C_23  and  C_36
    8  A    between atoms: C_33  and  C_38
                            x       y       z     vdW  Elec       q    Type
                         _______ _______ _______ _____ _____    ______ ____

>  <TORSDO>
F 8

$$$$
=
 OpenBabel11072410473D

 38 43  0  0  1  0  0  0  0  0999 V2000
  161.9560  210.2950  148.6310 N   0  0  0  0  0  0  0  0  0  0  0  0
  161.8220  209.0160  148.2700 N   0  0  0  0  0  0  0  0  0  0  0  0
  162.0830  209.6670  150.9180 C   0  0  0  0  0  0  0  0  0  0  0  0
  162.0830  210.6530  149.9340 C   0  0  0  0  0  3  0  0  0  0  0  0
  161.9490  208.3330  150.5410 C   0  0  0  0  0  3  0  0  0  0  0  0
  161.8120  208.0100  149.1870 C   0  0  0  0  0  0  0  0  0  0  0  0
  161.8230  204.9110  147.0100 C   0  0  0  0  0  0  0  0  0  0  0  0
  161.2910  203.9460  147.9010 C   0  0  0  0  0  0  0  0  0  0  0  0
  161.9850  206.2270  147.4490 C   0  0  0  0  0  3  0  0  0  0  0  0
  161.1150  205.6450  149.6220 C   0  0  0  0  0  3  0  0  0  0  0  0
  160.9210  204.3280  149.2050 C   0  0  0  0  0  0  0  0  0  0  0  0
  161.1580  202.6170  147.5170 O   0  0  0  0  0  1  0  0  0  0  0  0
  161.6410  206.6080  148.7510 C   0  0  0  0  0  0  0  0  0  0  0  0
  161.5520  205.1050  144.5290 C   0  0  0  0  0  1  0  0  0  0  0  0
  162.2130  204.6250  145.6920 O   0  0  0  0  0  0  0  0  0  0  0  0
  160.3930  203.4130  150.1250 O   0  0  0  0  0  0  0  0  0  0  0  0
  161.0070  203.0620  151.3340 C   0  0  0  0  0  0  0  0  0  0  0  0
  161.9450  202.2220  151.3260 O   0  0  0  0  0  0  0  0  0  0  0  0
  161.3870  205.0300  152.7660 C   0  0  0  0  0  1  0  0  0  0  0  0
  160.6390  203.7190  152.6250 C   0  0  0  0  0  2  0  0  0  0  0  0
  162.2460  210.0320  152.3550 C   0  0  0  0  0  2  0  0  0  0  0  0
  161.0120  210.7620  152.8650 C   0  0  0  0  0  2  0  0  0  0  0  0
  159.6870  212.8420  155.9050 C   0  0  0  0  0  2  0  0  0  0  0  0
  158.1730  213.0280  155.8630 C   0  0  2  0  0  3  0  0  0  0  0  0
  160.0270  206.8540  157.2600 O   0  0  0  0  0  0  0  0  0  0  0  0
  160.5330  207.7150  156.4930 C   0  0  0  0  0  0  0  0  0  0  0  0
  157.5620  212.2120  154.7650 C   0  0  2  0  0  3  0  0  0  0  0  0
  160.2080  209.8560  153.7930 C   0  0  1  0  0  3  0  0  0  0  0  0
  159.9830  211.3460  155.9040 C   0  0  1  0  0  3  0  0  0  0  0  0
  161.1430  208.9220  154.5690 C   0  0  1  0  0  3  0  0  0  0  0  0
  158.5040  211.5600  153.9370 O   0  0  0  0  0  0  0  0  0  0  0  0
  161.2990  208.7980  156.9710 N   0  0  0  0  0  2  0  0  0  0  0  0
  159.2640  210.6540  154.7120 C   0  0  1  0  0  3  0  0  0  0  0  0
  157.7650  213.6000  154.6460 O   0  0  0  0  0  0  0  0  0  0  0  0
  161.7840  209.5620  155.8320 C   0  0  2  0  0  3  0  0  0  0  0  0
  161.9880  211.5150  157.2160 O   0  0  0  0  0  1  0  0  0  0  0  0
  161.4860  211.0600  155.9930 C   0  0  2  0  0  3  0  0  0  0  0  0
  160.3860  207.6770  155.0260 C   0  0  0  0  0  2  0  0  0  0  0  0
  1  4  1  0  0  0  0
  2  1  2  0  0  0  0
  2  6  1  0  0  0  0
  3 21  1  0  0  0  0
  4  3  2  0  0  0  0
  5  3  1  0  0  0  0
  6  5  2  0  0  0  0
  7  9  2  0  0  0  0
  7  8  1  0  0  0  0
  8 11  2  0  0  0  0
  9 13  1  0  0  0  0
 11 10  1  0  0  0  0
 11 16  1  0  0  0  0
 12  8  1  0  0  0  0
 13  6  1  0  0  0  0
 13 10  2  0  0  0  0
 14 15  1  0  0  0  0
 15  7  1  0  0  0  0
 16 17  1  0  0  0  0
 17 20  1  0  0  0  0
 18 17  2  0  0  0  0
 20 19  1  0  0  0  0
 21 22  1  0  0  0  0
 24 23  1  6  0  0  0
 26 32  1  0  0  0  0
 26 25  2  0  0  0  0
 27 31  1  6  0  0  0
 27 24  1  0  0  0  0
 28 22  1  1  0  0  0
 28 30  1  0  0  0  0
 28 33  1  0  0  0  0
 29 23  1  6  0  0  0
 29 37  1  0  0  0  0
 30 38  1  1  0  0  0
 30 35  1  0  0  0  0
 33 31  1  6  0  0  0
 33 29  1  0  0  0  0
 34 27  1  0  0  0  0
 34 24  1  0  0  0  0
 35 37  1  0  0  0  0
 35 32  1  1  0  0  0
 37 36  1  1  0  0  0
 38 26  1  0  0  0  0
M  END
>  <MODEL>
2

>  <REMARK>
 VINA RESULT:      -9.2      0.723      3.053
  Name = 
  8 active torsions:
  status: ('A' for Active; 'I' for Inactive)
    1  A    between atoms: C_1  and  O_34
    2  A    between atoms: C_6  and  C_17
    3  A    between atoms: C_6  and  C_36
    4  A    between atoms: O_10  and  C_22
    5  A    between atoms: O_10  and  C_27
    6  A    between atoms: C_14  and  C_22
    7  A    between atoms: C_23  and  C_36
    8  A    between atoms: C_33  and  C_38
                            x       y       z     vdW  Elec       q    Type
                         _______ _______ _______ _____ _____    ______ ____

>  <TORSDO>
F 8

$$$$
=
 OpenBabel11072410473D

 38 43  0  0  1  0  0  0  0  0999 V2000
  162.0020  209.2640  149.0060 N   0  0  0  0  0  0  0  0  0  0  0  0
  161.8420  208.1380  148.3040 N   0  0  0  0  0  0  0  0  0  0  0  0
  161.7880  208.0600  151.0430 C   0  0  0  0  0  0  0  0  0  0  0  0
  161.9760  209.2620  150.3630 C   0  0  0  0  0  3  0  0  0  0  0  0
  161.6290  206.8850  150.3110 C   0  0  0  0  0  3  0  0  0  0  0  0
  161.6530  206.9350  148.9140 C   0  0  0  0  0  0  0  0  0  0  0  0
  161.0310  204.6700  145.9430 C   0  0  0  0  0  0  0  0  0  0  0  0
  161.0620  203.3940  146.5580 C   0  0  0  0  0  0  0  0  0  0  0  0
  161.2260  205.8090  146.7280 C   0  0  0  0  0  3  0  0  0  0  0  0
  161.4890  204.4460  148.7010 C   0  0  0  0  0  3  0  0  0  0  0  0
  161.2740  203.2920  147.9470 C   0  0  0  0  0  0  0  0  0  0  0  0
  160.9180  202.2350  145.8050 O   0  0  0  0  0  1  0  0  0  0  0  0
  161.4610  205.7130  148.1040 C   0  0  0  0  0  0  0  0  0  0  0  0
  161.7490  205.4800  143.6860 C   0  0  0  0  0  1  0  0  0  0  0  0
  160.8190  204.8700  144.5700 O   0  0  0  0  0  0  0  0  0  0  0  0
  161.3170  202.0550  148.6020 O   0  0  0  0  0  0  0  0  0  0  0  0
  160.7970  201.8180  149.8810 C   0  0  0  0  0  0  0  0  0  0  0  0
  159.6650  201.2770  149.9930 O   0  0  0  0  0  0  0  0  0  0  0  0
  160.8670  203.1570  151.9470 C   0  0  0  0  0  1  0  0  0  0  0  0
  161.5830  202.1090  151.1190 C   0  0  0  0  0  2  0  0  0  0  0  0
  161.7810  208.0270  152.5340 C   0  0  0  0  0  2  0  0  0  0  0  0
  160.5340  208.7070  153.0780 C   0  0  0  0  0  2  0  0  0  0  0  0
  160.4300  210.0360  156.7580 C   0  0  0  0  0  2  0  0  0  0  0  0
  161.7910  210.5390  157.2310 C   0  0  2  0  0  3  0  0  0  0  0  0
  158.9600  214.4490  152.7370 O   0  0  0  0  0  0  0  0  0  0  0  0
  158.9580  213.1960  152.8600 C   0  0  0  0  0  0  0  0  0  0  0  0
  162.7760  210.5620  156.1020 C   0  0  2  0  0  3  0  0  0  0  0  0
  160.7160  210.2230  153.0810 C   0  0  1  0  0  3  0  0  0  0  0  0
  160.0400  210.8220  155.5110 C   0  0  1  0  0  3  0  0  0  0  0  0
  159.4460  210.9130  152.5720 C   0  0  1  0  0  3  0  0  0  0  0  0
  162.2890  210.0050  154.8980 O   0  0  0  0  0  0  0  0  0  0  0  0
  158.1560  212.5290  153.8090 N   0  0  0  0  0  2  0  0  0  0  0  0
  161.1750  210.7520  154.4520 C   0  0  1  0  0  3  0  0  0  0  0  0
  162.7780  209.5500  157.0810 O   0  0  0  0  0  0  0  0  0  0  0  0
  158.3410  211.0960  153.6490 C   0  0  2  0  0  3  0  0  0  0  0  0
  157.6760  210.7440  155.9300 O   0  0  0  0  0  1  0  0  0  0  0  0
  158.6570  210.4170  154.9890 C   0  0  2  0  0  3  0  0  0  0  0  0
  159.7820  212.3010  152.0270 C   0  0  0  0  0  2  0  0  0  0  0  0
  1  4  1  0  0  0  0
  2  6  1  0  0  0  0
  2  1  2  0  0  0  0
  3 21  1  0  0  0  0
  4  3  2  0  0  0  0
  5  3  1  0  0  0  0
  6  5  2  0  0  0  0
  7  8  2  0  0  0  0
  7  9  1  0  0  0  0
  8 11  1  0  0  0  0
  9 13  2  0  0  0  0
 11 16  1  0  0  0  0
 11 10  2  0  0  0  0
 12  8  1  0  0  0  0
 13 10  1  0  0  0  0
 13  6  1  0  0  0  0
 14 15  1  0  0  0  0
 15  7  1  0  0  0  0
 16 17  1  0  0  0  0
 17 18  2  0  0  0  0
 17 20  1  0  0  0  0
 20 19  1  0  0  0  0
 21 22  1  0  0  0  0
 24 23  1  6  0  0  0
 25 26  2  0  0  0  0
 26 32  1  0  0  0  0
 27 31  1  6  0  0  0
 27 34  1  0  0  0  0
 27 24  1  0  0  0  0
 28 22  1  1  0  0  0
 28 33  1  0  0  0  0
 29 23  1  1  0  0  0
 30 38  1  1  0  0  0
 30 28  1  0  0  0  0
 30 35  1  0  0  0  0
 33 31  1  1  0  0  0
 33 29  1  0  0  0  0
 34 24  1  0  0  0  0
 35 32  1  1  0  0  0
 35 37  1  0  0  0  0
 37 29  1  0  0  0  0
 37 36  1  1  0  0  0
 38 26  1  0  0  0  0
M  END
>  <MODEL>
3

>  <REMARK>
 VINA RESULT:      -8.0      1.847      4.413
  Name = 
  8 active torsions:
  status: ('A' for Active; 'I' for Inactive)
    1  A    between atoms: C_1  and  O_34
    2  A    between atoms: C_6  and  C_17
    3  A    between atoms: C_6  and  C_36
    4  A    between atoms: O_10  and  C_22
    5  A    between atoms: O_10  and  C_27
    6  A    between atoms: C_14  and  C_22
    7  A    between atoms: C_23  and  C_36
    8  A    between atoms: C_33  and  C_38
                            x       y       z     vdW  Elec       q    Type
                         _______ _______ _______ _____ _____    ______ ____

>  <TORSDO>
F 8

$$$$
=
 OpenBabel11072410473D

 38 43  0  0  1  0  0  0  0  0999 V2000
  162.2390  209.9670  150.0850 N   0  0  0  0  0  0  0  0  0  0  0  0
  162.1840  208.8110  149.4170 N   0  0  0  0  0  0  0  0  0  0  0  0
  161.1040  208.9900  151.9280 C   0  0  0  0  0  0  0  0  0  0  0  0
  161.7100  210.0920  151.3280 C   0  0  0  0  0  3  0  0  0  0  0  0
  161.0520  207.7830  151.2350 C   0  0  0  0  0  3  0  0  0  0  0  0
  161.6030  207.7020  149.9510 C   0  0  0  0  0  0  0  0  0  0  0  0
  162.0160  205.2190  147.1210 C   0  0  0  0  0  0  0  0  0  0  0  0
  161.4070  204.0670  147.6750 C   0  0  0  0  0  0  0  0  0  0  0  0
  162.0700  206.3920  147.8790 C   0  0  0  0  0  3  0  0  0  0  0  0
  160.9420  205.3000  149.7110 C   0  0  0  0  0  3  0  0  0  0  0  0
  160.8540  204.1210  148.9690 C   0  0  0  0  0  0  0  0  0  0  0  0
  161.3740  202.8690  146.9710 O   0  0  0  0  0  1  0  0  0  0  0  0
  161.5430  206.4460  149.1750 C   0  0  0  0  0  0  0  0  0  0  0  0
  161.8840  205.5930  144.6490 C   0  0  0  0  0  1  0  0  0  0  0  0
  162.5860  205.2620  145.8390 O   0  0  0  0  0  0  0  0  0  0  0  0
  160.2440  203.0090  149.5630 O   0  0  0  0  0  0  0  0  0  0  0  0
  160.8870  202.1270  150.4400 C   0  0  0  0  0  0  0  0  0  0  0  0
  160.9140  200.8980  150.1650 O   0  0  0  0  0  0  0  0  0  0  0  0
  160.7430  203.5760  152.4260 C   0  0  0  0  0  1  0  0  0  0  0  0
  161.6170  202.6110  151.6510 C   0  0  0  0  0  2  0  0  0  0  0  0
  160.5370  209.0950  153.3040 C   0  0  0  0  0  2  0  0  0  0  0  0
  160.2850  210.5500  153.6700 C   0  0  0  0  0  2  0  0  0  0  0  0
  159.4110  214.2850  152.8910 C   0  0  0  0  0  2  0  0  0  0  0  0
  158.5570  214.4300  151.6350 C   0  0  2  0  0  3  0  0  0  0  0  0
  155.3120  211.7720  156.7250 O   0  0  0  0  0  0  0  0  0  0  0  0
  156.5090  211.6510  156.3540 C   0  0  0  0  0  0  0  0  0  0  0  0
  158.1220  213.0900  151.1240 C   0  0  2  0  0  3  0  0  0  0  0  0
  158.7960  210.7860  153.9040 C   0  0  1  0  0  3  0  0  0  0  0  0
  158.6710  213.3760  153.8670 C   0  0  1  0  0  3  0  0  0  0  0  0
  158.4890  210.8070  155.4060 C   0  0  1  0  0  3  0  0  0  0  0  0
  158.6860  211.9960  151.8180 O   0  0  0  0  0  0  0  0  0  0  0  0
  157.4790  212.6470  156.5890 N   0  0  0  0  0  2  0  0  0  0  0  0
  158.2820  212.0400  153.1730 C   0  0  1  0  0  3  0  0  0  0  0  0
  159.1720  213.8160  150.5300 O   0  0  0  0  0  0  0  0  0  0  0  0
  158.7620  212.1720  156.0960 C   0  0  2  0  0  3  0  0  0  0  0  0
  159.5190  214.4380  155.8470 O   0  0  0  0  0  1  0  0  0  0  0  0
  159.4340  213.2100  155.1850 C   0  0  2  0  0  3  0  0  0  0  0  0
  157.0210  210.4610  155.6490 C   0  0  0  0  0  2  0  0  0  0  0  0
  1  4  1  0  0  0  0
  2  6  1  0  0  0  0
  2  1  2  0  0  0  0
  3 21  1  0  0  0  0
  4  3  2  0  0  0  0
  5  3  1  0  0  0  0
  6  5  2  0  0  0  0
  7  8  2  0  0  0  0
  7  9  1  0  0  0  0
  8 11  1  0  0  0  0
  9 13  2  0  0  0  0
 11 16  1  0  0  0  0
 11 10  2  0  0  0  0
 12  8  1  0  0  0  0
 13 10  1  0  0  0  0
 13  6  1  0  0  0  0
 14 15  1  0  0  0  0
 15  7  1  0  0  0  0
 16 17  1  0  0  0  0
 17 20  1  0  0  0  0
 18 17  2  0  0  0  0
 20 19  1  0  0  0  0
 21 22  1  0  0  0  0
 24 23  1  1  0  0  0
 26 32  1  0  0  0  0
 26 25  2  0  0  0  0
 27 34  1  6  0  0  0
 27 24  1  0  0  0  0
 27 31  1  0  0  0  0
 28 22  1  1  0  0  0
 28 30  1  0  0  0  0
 29 23  1  6  0  0  0
 29 37  1  0  0  0  0
 30 38  1  6  0  0  0
 30 35  1  0  0  0  0
 33 31  1  6  0  0  0
 33 29  1  0  0  0  0
 33 28  1  0  0  0  0
 34 24  1  0  0  0  0
 35 32  1  6  0  0  0
 37 36  1  1  0  0  0
 37 35  1  0  0  0  0
 38 26  1  0  0  0  0
M  END
>  <MODEL>
4

>  <REMARK>
 VINA RESULT:      -7.6      2.145      3.985
  Name = 
  8 active torsions:
  status: ('A' for Active; 'I' for Inactive)
    1  A    between atoms: C_1  and  O_34
    2  A    between atoms: C_6  and  C_17
    3  A    between atoms: C_6  and  C_36
    4  A    between atoms: O_10  and  C_22
    5  A    between atoms: O_10  and  C_27
    6  A    between atoms: C_14  and  C_22
    7  A    between atoms: C_23  and  C_36
    8  A    between atoms: C_33  and  C_38
                            x       y       z     vdW  Elec       q    Type
                         _______ _______ _______ _____ _____    ______ ____

>  <TORSDO>
F 8

$$$$
=
 OpenBabel11072410473D

 38 43  0  0  1  0  0  0  0  0999 V2000
  161.1910  206.6390  154.0560 N   0  0  0  0  0  0  0  0  0  0  0  0
  161.1990  205.8400  152.9850 N   0  0  0  0  0  0  0  0  0  0  0  0
  160.9710  208.5520  152.6660 C   0  0  0  0  0  0  0  0  0  0  0  0
  161.0840  207.9860  153.9350 C   0  0  0  0  0  3  0  0  0  0  0  0
  160.9730  207.7200  151.5500 C   0  0  0  0  0  3  0  0  0  0  0  0
  161.0940  206.3370  151.7210 C   0  0  0  0  0  0  0  0  0  0  0  0
  160.7520  203.2080  149.6150 C   0  0  0  0  0  0  0  0  0  0  0  0
  161.2130  203.6700  148.3580 C   0  0  0  0  0  0  0  0  0  0  0  0
  160.7210  204.0920  150.6960 C   0  0  0  0  0  3  0  0  0  0  0  0
  161.5800  205.8690  149.3110 C   0  0  0  0  0  3  0  0  0  0  0  0
  161.6440  205.0030  148.2190 C   0  0  0  0  0  0  0  0  0  0  0  0
  161.2150  202.8340  147.2480 O   0  0  0  0  0  1  0  0  0  0  0  0
  161.1260  205.4250  150.5590 C   0  0  0  0  0  0  0  0  0  0  0  0
  161.1600  200.7870  150.1040 C   0  0  0  0  0  1  0  0  0  0  0  0
  160.3100  201.8960  149.8510 O   0  0  0  0  0  0  0  0  0  0  0  0
  162.1050  205.5100  146.9970 O   0  0  0  0  0  0  0  0  0  0  0  0
  161.2850  205.7980  145.8990 C   0  0  0  0  0  0  0  0  0  0  0  0
  160.3680  206.6520  146.0240 O   0  0  0  0  0  0  0  0  0  0  0  0
  160.3300  204.3310  144.1660 C   0  0  0  0  0  1  0  0  0  0  0  0
  161.5200  205.1850  144.5560 C   0  0  0  0  0  2  0  0  0  0  0  0
  160.8280  210.0280  152.5070 C   0  0  0  0  0  2  0  0  0  0  0  0
  160.4770  210.6790  153.8370 C   0  0  0  0  0  2  0  0  0  0  0  0
  159.3500  214.3460  153.0590 C   0  0  0  0  0  2  0  0  0  0  0  0
  158.5610  214.4450  151.7570 C   0  0  2  0  0  3  0  0  0  0  0  0
  155.2560  211.4460  156.6130 O   0  0  0  0  0  0  0  0  0  0  0  0
  156.4780  211.4260  156.3110 C   0  0  0  0  0  0  0  0  0  0  0  0
  158.2650  213.0840  151.2040 C   0  0  2  0  0  3  0  0  0  0  0  0
  158.9630  210.7920  153.9870 C   0  0  1  0  0  3  0  0  0  0  0  0
  158.6310  213.3630  153.9770 C   0  0  1  0  0  3  0  0  0  0  0  0
  158.5700  210.7610  155.4680 C   0  0  1  0  0  3  0  0  0  0  0  0
  158.8740  212.0260  151.9150 O   0  0  0  0  0  0  0  0  0  0  0  0
  157.3500  212.4930  156.6160 N   0  0  0  0  0  2  0  0  0  0  0  0
  158.3920  212.0140  153.2440 C   0  0  1  0  0  3  0  0  0  0  0  0
  159.2850  213.9030  150.6810 O   0  0  0  0  0  0  0  0  0  0  0  0
  158.6930  212.1300  156.1920 C   0  0  2  0  0  3  0  0  0  0  0  0
  159.2770  214.4530  156.0180 O   0  0  0  0  0  1  0  0  0  0  0  0
  159.3290  213.2340  155.3360 C   0  0  2  0  0  3  0  0  0  0  0  0
  157.1230  210.2950  155.6210 C   0  0  0  0  0  2  0  0  0  0  0  0
  2  1  2  0  0  0  0
  3  4  2  0  0  0  0
  4  1  1  0  0  0  0
  5  6  2  0  0  0  0
  5  3  1  0  0  0  0
  6  2  1  0  0  0  0
  7 15  1  0  0  0  0
  7  9  1  0  0  0  0
  8  7  2  0  0  0  0
 10 13  1  0  0  0  0
 11  8  1  0  0  0  0
 11 10  2  0  0  0  0
 12  8  1  0  0  0  0
 13  9  2  0  0  0  0
 13  6  1  0  0  0  0
 15 14  1  0  0  0  0
 16 11  1  0  0  0  0
 17 18  2  0  0  0  0
 17 16  1  0  0  0  0
 19 20  1  0  0  0  0
 20 17  1  0  0  0  0
 21  3  1  0  0  0  0
 21 22  1  0  0  0  0
 24 23  1  1  0  0  0
 26 25  2  0  0  0  0
 26 32  1  0  0  0  0
 27 34  1  6  0  0  0
 27 24  1  0  0  0  0
 27 31  1  0  0  0  0
 28 22  1  1  0  0  0
 28 30  1  0  0  0  0
 29 23  1  6  0  0  0
 29 37  1  0  0  0  0
 30 38  1  6  0  0  0
 30 35  1  0  0  0  0
 33 31  1  6  0  0  0
 33 29  1  0  0  0  0
 33 28  1  0  0  0  0
 34 24  1  0  0  0  0
 35 32  1  6  0  0  0
 37 36  1  1  0  0  0
 37 35  1  0  0  0  0
 38 26  1  0  0  0  0
M  END
>  <MODEL>
5

>  <REMARK>
 VINA RESULT:      -7.2      2.426      3.286
  Name = 
  8 active torsions:
  status: ('A' for Active; 'I' for Inactive)
    1  A    between atoms: C_1  and  O_34
    2  A    between atoms: C_6  and  C_17
    3  A    between atoms: C_6  and  C_36
    4  A    between atoms: O_10  and  C_22
    5  A    between atoms: O_10  and  C_27
    6  A    between atoms: C_14  and  C_22
    7  A    between atoms: C_23  and  C_36
    8  A    between atoms: C_33  and  C_38
                            x       y       z     vdW  Elec       q    Type
                         _______ _______ _______ _____ _____    ______ ____

>  <TORSDO>
F 8

$$$$
=
 OpenBabel11072410473D

 38 43  0  0  1  0  0  0  0  0999 V2000
  161.2360  205.8430  154.4040 N   0  0  0  0  0  0  0  0  0  0  0  0
  161.3410  205.8500  153.0720 N   0  0  0  0  0  0  0  0  0  0  0  0
  160.7730  208.1720  154.4100 C   0  0  0  0  0  0  0  0  0  0  0  0
  160.9600  206.9750  155.0990 C   0  0  0  0  0  3  0  0  0  0  0  0
  160.8770  208.1790  153.0220 C   0  0  0  0  0  3  0  0  0  0  0  0
  161.1720  206.9900  152.3470 C   0  0  0  0  0  0  0  0  0  0  0  0
  161.8820  208.1090  148.7990 C   0  0  0  0  0  0  0  0  0  0  0  0
  161.5630  206.9360  148.0710 C   0  0  0  0  0  0  0  0  0  0  0  0
  161.7480  208.1040  150.1900 C   0  0  0  0  0  3  0  0  0  0  0  0
  161.0030  205.8110  150.1450 C   0  0  0  0  0  3  0  0  0  0  0  0
  161.1050  205.7930  148.7530 C   0  0  0  0  0  0  0  0  0  0  0  0
  161.7270  206.8860  146.6920 O   0  0  0  0  0  1  0  0  0  0  0  0
  161.3160  206.9640  150.8760 C   0  0  0  0  0  0  0  0  0  0  0  0
  162.0230  210.6050  148.6620 C   0  0  0  0  0  1  0  0  0  0  0  0
  162.3390  209.2970  148.2060 O   0  0  0  0  0  0  0  0  0  0  0  0
  160.7800  204.6080  148.0810 O   0  0  0  0  0  0  0  0  0  0  0  0
  160.9850  203.3220  148.5970 C   0  0  0  0  0  0  0  0  0  0  0  0
  160.9580  203.1490  149.8440 O   0  0  0  0  0  0  0  0  0  0  0  0
  161.2230  200.8710  148.5440 C   0  0  0  0  0  1  0  0  0  0  0  0
  161.1530  202.1330  147.7080 C   0  0  0  0  0  2  0  0  0  0  0  0
  160.4450  209.4260  155.1490 C   0  0  0  0  0  2  0  0  0  0  0  0
  160.0330  210.5250  154.1810 C   0  0  0  0  0  2  0  0  0  0  0  0
  159.3310  214.2780  153.3200 C   0  0  0  0  0  2  0  0  0  0  0  0
  158.5730  214.4390  152.0060 C   0  0  2  0  0  3  0  0  0  0  0  0
  154.8980  211.9240  156.8710 O   0  0  0  0  0  0  0  0  0  0  0  0
  156.1140  211.7630  156.5870 C   0  0  0  0  0  0  0  0  0  0  0  0
  158.1330  213.1080  151.4740 C   0  0  2  0  0  3  0  0  0  0  0  0
  158.5390  210.8090  154.3090 C   0  0  1  0  0  3  0  0  0  0  0  0
  158.4970  213.4010  154.2460 C   0  0  1  0  0  3  0  0  0  0  0  0
  158.1280  210.8510  155.7850 C   0  0  1  0  0  3  0  0  0  0  0  0
  158.6120  212.0030  152.2130 O   0  0  0  0  0  0  0  0  0  0  0  0
  157.0960  212.7310  156.8830 N   0  0  0  0  0  2  0  0  0  0  0  0
  158.1170  212.0720  153.5350 C   0  0  1  0  0  3  0  0  0  0  0  0
  159.2440  213.7980  150.9500 O   0  0  0  0  0  0  0  0  0  0  0  0
  158.3950  212.2130  156.4840 C   0  0  2  0  0  3  0  0  0  0  0  0
  159.2360  214.4530  156.2750 O   0  0  0  0  0  1  0  0  0  0  0  0
  159.1600  213.2220  155.6170 C   0  0  2  0  0  3  0  0  0  0  0  0
  156.6370  210.5530  155.9270 C   0  0  0  0  0  2  0  0  0  0  0  0
  1  4  1  0  0  0  0
  2  1  2  0  0  0  0
  3  4  2  0  0  0  0
  3 21  1  0  0  0  0
  5  3  1  0  0  0  0
  6  5  2  0  0  0  0
  6  2  1  0  0  0  0
  7  9  1  0  0  0  0
  8 11  1  0  0  0  0
  8  7  2  0  0  0  0
  9 13  2  0  0  0  0
 10 13  1  0  0  0  0
 11 10  2  0  0  0  0
 12  8  1  0  0  0  0
 13  6  1  0  0  0  0
 15 14  1  0  0  0  0
 15  7  1  0  0  0  0
 16 17  1  0  0  0  0
 16 11  1  0  0  0  0
 17 18  2  0  0  0  0
 20 19  1  0  0  0  0
 20 17  1  0  0  0  0
 22 21  1  0  0  0  0
 24 23  1  1  0  0  0
 26 25  2  0  0  0  0
 26 32  1  0  0  0  0
 27 34  1  6  0  0  0
 27 24  1  0  0  0  0
 27 31  1  0  0  0  0
 28 22  1  1  0  0  0
 28 30  1  0  0  0  0
 29 23  1  6  0  0  0
 29 37  1  0  0  0  0
 30 38  1  6  0  0  0
 30 35  1  0  0  0  0
 33 31  1  6  0  0  0
 33 29  1  0  0  0  0
 33 28  1  0  0  0  0
 34 24  1  0  0  0  0
 35 32  1  6  0  0  0
 37 36  1  1  0  0  0
 37 35  1  0  0  0  0
 38 26  1  0  0  0  0
M  END
>  <MODEL>
6

>  <REMARK>
 VINA RESULT:      -6.9      2.670      4.427
  Name = 
  8 active torsions:
  status: ('A' for Active; 'I' for Inactive)
    1  A    between atoms: C_1  and  O_34
    2  A    between atoms: C_6  and  C_17
    3  A    between atoms: C_6  and  C_36
    4  A    between atoms: O_10  and  C_22
    5  A    between atoms: O_10  and  C_27
    6  A    between atoms: C_14  and  C_22
    7  A    between atoms: C_23  and  C_36
    8  A    between atoms: C_33  and  C_38
                            x       y       z     vdW  Elec       q    Type
                         _______ _______ _______ _____ _____    ______ ____

>  <TORSDO>
F 8

$$$$
=
 OpenBabel11072410473D

 38 43  0  0  1  0  0  0  0  0999 V2000
  161.2770  207.3660  148.9230 N   0  0  0  0  0  0  0  0  0  0  0  0
  161.2140  207.9910  150.1030 N   0  0  0  0  0  0  0  0  0  0  0  0
  161.1250  205.2540  149.9990 C   0  0  0  0  0  0  0  0  0  0  0  0
  161.2400  206.0130  148.8360 C   0  0  0  0  0  3  0  0  0  0  0  0
  161.0520  205.9050  151.2280 C   0  0  0  0  0  3  0  0  0  0  0  0
  161.1020  207.3020  151.2720 C   0  0  0  0  0  0  0  0  0  0  0  0
  161.0660  207.9820  154.9980 C   0  0  0  0  0  0  0  0  0  0  0  0
  160.9330  209.3930  155.0190 C   0  0  0  0  0  0  0  0  0  0  0  0
  161.1200  207.3220  153.7680 C   0  0  0  0  0  3  0  0  0  0  0  0
  160.9230  209.4200  152.5940 C   0  0  0  0  0  3  0  0  0  0  0  0
  160.8440  210.1050  153.8080 C   0  0  0  0  0  0  0  0  0  0  0  0
  160.9230  210.0900  156.2210 O   0  0  0  0  0  1  0  0  0  0  0  0
  161.0550  208.0270  152.5600 C   0  0  0  0  0  0  0  0  0  0  0  0
  160.0900  206.9590  157.0630 C   0  0  0  0  0  1  0  0  0  0  0  0
  161.1560  207.1880  156.1520 O   0  0  0  0  0  0  0  0  0  0  0  0
  160.7150  211.4990  153.7740 O   0  0  0  0  0  0  0  0  0  0  0  0
  159.6680  212.1830  153.1430 C   0  0  0  0  0  0  0  0  0  0  0  0
  159.9260  212.9350  152.1660 O   0  0  0  0  0  0  0  0  0  0  0  0
  158.1060  212.1020  155.0460 C   0  0  0  0  0  1  0  0  0  0  0  0
  158.2410  211.9820  153.5410 C   0  0  0  0  0  2  0  0  0  0  0  0
  161.0570  203.7660  149.9290 C   0  0  0  0  0  2  0  0  0  0  0  0
  160.4460  203.3200  148.6090 C   0  0  0  0  0  2  0  0  0  0  0  0
  161.1890  204.5880  144.9820 C   0  0  0  0  0  2  0  0  0  0  0  0
  162.6350  205.0450  144.8130 C   0  0  2  0  0  3  0  0  0  0  0  0
  161.9980  198.5110  145.4430 O   0  0  0  0  0  0  0  0  0  0  0  0
  161.3650  199.4580  145.9790 C   0  0  0  0  0  0  0  0  0  0  0  0
  163.4460  204.7200  146.0310 C   0  0  2  0  0  3  0  0  0  0  0  0
  161.3730  202.3350  147.9030 C   0  0  1  0  0  3  0  0  0  0  0  0
  161.2000  203.1350  145.4420 C   0  0  1  0  0  3  0  0  0  0  0  0
  160.6110  201.0600  147.5270 C   0  0  1  0  0  3  0  0  0  0  0  0
  162.6930  204.1910  147.1030 O   0  0  0  0  0  0  0  0  0  0  0  0
  160.3760  200.1920  145.2910 N   0  0  0  0  0  2  0  0  0  0  0  0
  162.0960  202.9740  146.7020 C   0  0  1  0  0  3  0  0  0  0  0  0
  162.9750  206.0200  145.7670 O   0  0  0  0  0  0  0  0  0  0  0  0
  159.7990  201.1640  146.2060 C   0  0  2  0  0  3  0  0  0  0  0  0
  159.1460  202.5400  144.3490 O   0  0  0  0  0  1  0  0  0  0  0  0
  159.7830  202.5720  145.5930 C   0  0  2  0  0  3  0  0  0  0  0  0
  161.5820  199.8900  147.3710 C   0  0  0  0  0  2  0  0  0  0  0  0
  1  2  1  0  0  0  0
  2  6  2  0  0  0  0
  3  5  2  0  0  0  0
  4  1  2  0  0  0  0
  4  3  1  0  0  0  0
  5  6  1  0  0  0  0
  6 13  1  0  0  0  0
  7  8  1  0  0  0  0
  7 15  1  0  0  0  0
  8 12  1  0  0  0  0
  9  7  2  0  0  0  0
 10 11  1  0  0  0  0
 11  8  2  0  0  0  0
 13 10  2  0  0  0  0
 13  9  1  0  0  0  0
 15 14  1  0  0  0  0
 16 11  1  0  0  0  0
 17 20  1  0  0  0  0
 17 16  1  0  0  0  0
 18 17  2  0  0  0  0
 20 19  1  0  0  0  0
 21  3  1  0  0  0  0
 22 21  1  0  0  0  0
 24 23  1  1  0  0  0
 24 34  1  0  0  0  0
 24 27  1  0  0  0  0
 25 26  2  0  0  0  0
 26 38  1  0  0  0  0
 27 34  1  1  0  0  0
 27 31  1  0  0  0  0
 28 22  1  6  0  0  0
 29 23  1  1  0  0  0
 29 37  1  0  0  0  0
 29 33  1  0  0  0  0
 30 38  1  6  0  0  0
 30 28  1  0  0  0  0
 32 26  1  0  0  0  0
 33 31  1  1  0  0  0
 33 28  1  0  0  0  0
 35 32  1  6  0  0  0
 35 30  1  0  0  0  0
 37 36  1  6  0  0  0
 37 35  1  0  0  0  0
M  END
>  <MODEL>
7

>  <REMARK>
 VINA RESULT:      -6.5      2.471     10.274
  Name = 
  8 active torsions:
  status: ('A' for Active; 'I' for Inactive)
    1  A    between atoms: C_1  and  O_34
    2  A    between atoms: C_6  and  C_17
    3  A    between atoms: C_6  and  C_36
    4  A    between atoms: O_10  and  C_22
    5  A    between atoms: O_10  and  C_27
    6  A    between atoms: C_14  and  C_22
    7  A    between atoms: C_23  and  C_36
    8  A    between atoms: C_33  and  C_38
                            x       y       z     vdW  Elec       q    Type
                         _______ _______ _______ _____ _____    ______ ____

>  <TORSDO>
F 8

$$$$
