=
 OpenBabel11072414363D

 36 40  0  0  1  0  0  0  0  0999 V2000
  162.1910  208.3040  152.5060 C   0  0  1  0  0  3  0  0  0  0  0  0
  160.3010  208.1190  153.9140 C   0  0  1  0  0  3  0  0  0  0  0  0
  160.2850  210.4120  154.4490 C   0  0  2  0  0  3  0  0  0  0  0  0
  161.8280  208.0750  155.9870 C   0  0  0  0  0  1  0  0  0  0  0  0
  161.6560  206.0760  153.4950 C   0  0  0  0  0  2  0  0  0  0  0  0
  160.4120  208.2310  155.4380 C   0  0  0  0  0  0  0  0  0  0  0  0
  160.4500  209.4570  153.3500 N   0  0  1  0  0  0  0  0  0  0  0  0
  161.7370  209.5900  152.8890 O   0  0  0  0  0  0  0  0  0  0  0  0
  159.4890  207.2360  156.1090 C   0  0  0  0  0  1  0  0  0  0  0  0
  161.3400  207.3450  153.2350 C   0  0  0  0  0  0  0  0  0  0  0  0
  159.9440  209.6320  155.7100 C   0  0  0  0  0  2  0  0  0  0  0  0
  157.4750  212.0680  152.4830 N   0  0  0  0  0  2  0  0  0  0  0  0
  158.6590  213.8390  153.7290 C   0  0  0  0  0  2  0  0  0  0  0  0
  159.7520  212.8410  154.1040 C   0  0  0  0  0  2  0  0  0  0  0  0
  157.9850  213.4440  152.4070 C   0  0  1  0  0  3  0  0  0  0  0  0
  158.5670  211.1310  152.7590 C   0  0  0  0  0  2  0  0  0  0  0  0
  159.1840  211.4230  154.1260 C   0  0  1  0  0  3  0  0  0  0  0  0
  158.8940  213.6640  151.1830 C   0  0  2  0  0  3  0  0  0  0  0  0
  159.9930  214.4450  151.5540 O   0  0  0  0  0  1  0  0  0  0  0  0
  156.7690  214.3880  150.2900 O   0  0  0  0  0  1  0  0  0  0  0  0
  158.1430  214.3540  150.0350 C   0  0  2  0  0  3  0  0  0  0  0  0
  157.4000  212.9670  148.1610 C   0  0  0  0  0  2  0  0  0  0  0  0
  158.3810  213.6660  148.7240 C   0  0  0  0  0  0  0  0  0  0  0  0
  159.7170  213.7240  148.0590 C   0  0  0  0  0  1  0  0  0  0  0  0
  162.0710  208.1330  150.9870 C   0  0  2  0  0  3  0  0  0  0  0  0
  161.9600  209.4830  150.2990 C   0  0  0  0  0  1  0  0  0  0  0  0
  160.8420  207.3010  150.6450 C   0  0  0  0  0  2  0  0  0  0  0  0
  160.7330  202.7650  150.0990 C   0  0  0  0  0  3  0  0  0  0  0  0
  161.2750  204.2720  148.4510 C   0  0  0  0  0  0  0  0  0  0  0  0
  160.6410  204.1870  150.6960 C   0  0  0  0  0  3  0  0  0  0  0  0
  161.1230  202.9350  148.7360 O   0  0  0  0  0  0  0  0  0  0  0  0
  161.7420  206.2290  147.1660 C   0  0  0  0  0  3  0  0  0  0  0  0
  161.1040  206.4350  149.4580 C   0  0  0  0  0  0  0  0  0  0  0  0
  161.4740  206.9940  148.2680 N   0  0  0  0  0  0  0  0  0  0  0  0
  161.0100  205.0450  149.5410 C   0  0  0  0  0  0  0  0  0  0  0  0
  161.6470  204.8300  147.2320 C   0  0  0  0  0  3  0  0  0  0  0  0
  1 25  1  6  0  0  0
  1  8  1  0  0  0  0
  1 10  1  0  0  0  0
  2 10  1  6  0  0  0
  2  6  1  0  0  0  0
  3 11  1  1  0  0  0
  6 11  1  0  0  0  0
  6  4  1  0  0  0  0
  6  9  1  0  0  0  0
  7  8  1  1  0  0  0
  7  2  1  0  0  0  0
  7  3  1  0  0  0  0
 10  5  2  0  0  0  0
 12 16  1  0  0  0  0
 13 14  1  0  0  0  0
 14 17  1  0  0  0  0
 15 18  1  6  0  0  0
 15 12  1  0  0  0  0
 15 13  1  0  0  0  0
 17 16  1  6  0  0  0
 17  3  1  0  0  0  0
 18 19  1  1  0  0  0
 21 20  1  1  0  0  0
 21 18  1  0  0  0  0
 22 23  2  0  0  0  0
 23 21  1  0  0  0  0
 24 23  1  0  0  0  0
 25 26  1  6  0  0  0
 27 25  1  0  0  0  0
 28 30  2  0  0  0  0
 29 31  1  0  0  0  0
 29 35  1  0  0  0  0
 31 28  1  0  0  0  0
 32 36  1  0  0  0  0
 32 34  2  0  0  0  0
 33 35  2  0  0  0  0
 33 27  1  0  0  0  0
 34 33  1  0  0  0  0
 35 30  1  0  0  0  0
 36 29  2  0  0  0  0
M  END
>  <MODEL>
1

>  <REMARK>
 VINA RESULT:      -7.7      0.000      0.000
  Name = 
  7 active torsions:
  status: ('A' for Active; 'I' for Inactive)
    1  A    between atoms: C_2  and  C_21
    2  A    between atoms: C_2  and  C_35
    3  A    between atoms: C_3  and  C_13
    4  A    between atoms: C_7  and  C_35
    5  A    between atoms: C_9  and  C_26
    6  A    between atoms: C_13  and  C_16
    7  A    between atoms: C_16  and  C_23
                            x       y       z     vdW  Elec       q    Type
                         _______ _______ _______ _____ _____    ______ ____

>  <TORSDO>
F 7

$$$$
=
 OpenBabel11072414363D

 36 40  0  0  1  0  0  0  0  0999 V2000
  159.1060  211.9360  153.6660 C   0  0  1  0  0  3  0  0  0  0  0  0
  161.0370  210.9120  154.5670 C   0  0  1  0  0  3  0  0  0  0  0  0
  160.6760  208.8810  153.4340 C   0  0  2  0  0  3  0  0  0  0  0  0
  159.5970  209.7040  156.3260 C   0  0  0  0  0  1  0  0  0  0  0  0
  160.0400  212.8280  155.8020 C   0  0  0  0  0  2  0  0  0  0  0  0
  160.9500  209.8090  155.6270 C   0  0  0  0  0  0  0  0  0  0  0  0
  160.6460  210.3370  153.2840 N   0  0  1  0  0  0  0  0  0  0  0  0
  159.3430  210.6920  153.0310 O   0  0  0  0  0  0  0  0  0  0  0  0
  162.0480  209.9790  156.6570 C   0  0  0  0  0  1  0  0  0  0  0  0
  160.1270  212.0480  154.7240 C   0  0  0  0  0  0  0  0  0  0  0  0
  161.1790  208.5560  154.8320 C   0  0  0  0  0  2  0  0  0  0  0  0
  161.9180  207.9260  149.9630 N   0  0  0  0  0  2  0  0  0  0  0  0
  162.5440  206.1060  151.5070 C   0  0  0  0  0  2  0  0  0  0  0  0
  161.6850  206.7390  152.5980 C   0  0  0  0  0  2  0  0  0  0  0  0
  162.0150  206.4670  150.1110 C   0  0  1  0  0  3  0  0  0  0  0  0
  161.0180  208.4870  150.9740 C   0  0  0  0  0  2  0  0  0  0  0  0
  161.5780  208.2460  152.3750 C   0  0  1  0  0  3  0  0  0  0  0  0
  160.6910  205.7560  149.7710 C   0  0  2  0  0  3  0  0  0  0  0  0
  160.2600  205.0210  150.8790 O   0  0  0  0  0  1  0  0  0  0  0  0
  161.7020  203.7560  148.8670 O   0  0  0  0  0  1  0  0  0  0  0  0
  160.8450  204.8180  148.5650 C   0  0  2  0  0  3  0  0  0  0  0  0
  160.6640  206.5400  146.8370 C   0  0  0  0  0  2  0  0  0  0  0  0
  161.3700  205.5430  147.3620 C   0  0  0  0  0  0  0  0  0  0  0  0
  162.6580  205.1390  146.7230 C   0  0  0  0  0  1  0  0  0  0  0  0
  159.2110  213.0770  152.6480 C   0  0  2  0  0  3  0  0  0  0  0  0
  158.6500  214.3680  153.2240 C   0  0  0  0  0  1  0  0  0  0  0  0
  158.4430  212.7260  151.3810 C   0  0  0  0  0  2  0  0  0  0  0  0
  156.7460  214.0610  147.3530 C   0  0  0  0  0  3  0  0  0  0  0  0
  158.9580  214.2060  147.9580 C   0  0  0  0  0  0  0  0  0  0  0  0
  156.8910  213.5130  148.7900 C   0  0  0  0  0  3  0  0  0  0  0  0
  158.0580  214.4530  146.9470 O   0  0  0  0  0  0  0  0  0  0  0  0
  161.0600  214.1190  149.0850 C   0  0  0  0  0  3  0  0  0  0  0  0
  159.0880  213.3430  150.1840 C   0  0  0  0  0  0  0  0  0  0  0  0
  160.4340  213.5750  150.1720 N   0  0  0  0  0  0  0  0  0  0  0  0
  158.3460  213.6650  149.0470 C   0  0  0  0  0  0  0  0  0  0  0  0
  160.3270  214.4530  147.9350 C   0  0  0  0  0  3  0  0  0  0  0  0
  1 25  1  6  0  0  0
  1 10  1  0  0  0  0
  2 10  1  1  0  0  0
  2  6  1  0  0  0  0
  3 11  1  1  0  0  0
  6  4  1  0  0  0  0
  6  9  1  0  0  0  0
  7  8  1  1  0  0  0
  7  3  1  0  0  0  0
  7  2  1  0  0  0  0
  8  1  1  0  0  0  0
 10  5  2  0  0  0  0
 11  6  1  0  0  0  0
 12 15  1  0  0  0  0
 12 16  1  0  0  0  0
 13 14  1  0  0  0  0
 15 18  1  1  0  0  0
 15 13  1  0  0  0  0
 17 16  1  6  0  0  0
 17 14  1  0  0  0  0
 17  3  1  0  0  0  0
 18 19  1  1  0  0  0
 21 20  1  1  0  0  0
 21 18  1  0  0  0  0
 22 23  2  0  0  0  0
 23 21  1  0  0  0  0
 24 23  1  0  0  0  0
 25 26  1  1  0  0  0
 27 25  1  0  0  0  0
 28 30  2  0  0  0  0
 29 35  1  0  0  0  0
 30 35  1  0  0  0  0
 31 28  1  0  0  0  0
 31 29  1  0  0  0  0
 32 34  2  0  0  0  0
 33 27  1  0  0  0  0
 34 33  1  0  0  0  0
 35 33  2  0  0  0  0
 36 29  2  0  0  0  0
 36 32  1  0  0  0  0
M  END
>  <MODEL>
2

>  <REMARK>
 VINA RESULT:      -7.5      1.652      7.450
  Name = 
  7 active torsions:
  status: ('A' for Active; 'I' for Inactive)
    1  A    between atoms: C_2  and  C_21
    2  A    between atoms: C_2  and  C_35
    3  A    between atoms: C_3  and  C_13
    4  A    between atoms: C_7  and  C_35
    5  A    between atoms: C_9  and  C_26
    6  A    between atoms: C_13  and  C_16
    7  A    between atoms: C_16  and  C_23
                            x       y       z     vdW  Elec       q    Type
                         _______ _______ _______ _____ _____    ______ ____

>  <TORSDO>
F 7

$$$$
=
 OpenBabel11072414363D

 36 40  0  0  1  0  0  0  0  0999 V2000
  162.1780  206.9220  150.2940 C   0  0  1  0  0  3  0  0  0  0  0  0
  160.6980  207.1780  152.1200 C   0  0  1  0  0  3  0  0  0  0  0  0
  161.6770  209.1990  152.8270 C   0  0  2  0  0  3  0  0  0  0  0  0
  162.4830  206.2400  153.7200 C   0  0  0  0  0  1  0  0  0  0  0  0
  161.0440  204.8920  151.2010 C   0  0  0  0  0  2  0  0  0  0  0  0
  161.1560  206.9790  153.5680 C   0  0  0  0  0  0  0  0  0  0  0  0
  161.2310  208.4530  151.6480 N   0  0  1  0  0  0  0  0  0  0  0  0
  162.3450  208.1990  150.8850 O   0  0  0  0  0  0  0  0  0  0  0  0
  160.0810  206.2750  154.3700 C   0  0  0  0  0  1  0  0  0  0  0  0
  161.1950  206.2150  151.1360 C   0  0  0  0  0  0  0  0  0  0  0  0
  161.3310  208.3860  154.0650 C   0  0  0  0  0  2  0  0  0  0  0  0
  160.3700  212.4350  154.3510 N   0  0  0  0  0  2  0  0  0  0  0  0
  158.9040  211.8590  152.4510 C   0  0  0  0  0  2  0  0  0  0  0  0
  159.5810  210.4950  152.3460 C   0  0  0  0  0  2  0  0  0  0  0  0
  158.9760  212.3990  153.8870 C   0  0  1  0  0  3  0  0  0  0  0  0
  160.9580  211.0940  154.3160 C   0  0  0  0  0  2  0  0  0  0  0  0
  161.0090  210.5740  152.8800 C   0  0  1  0  0  3  0  0  0  0  0  0
  158.0560  211.6360  154.8600 C   0  0  2  0  0  3  0  0  0  0  0  0
  156.8050  211.4470  154.2650 O   0  0  0  0  0  1  0  0  0  0  0  0
  157.8230  211.5000  157.2610 O   0  0  0  0  0  1  0  0  0  0  0  0
  157.8820  212.3910  156.1860 C   0  0  2  0  0  3  0  0  0  0  0  0
  156.6670  214.4290  155.5890 C   0  0  0  0  0  2  0  0  0  0  0  0
  156.6460  213.2390  156.1820 C   0  0  0  0  0  0  0  0  0  0  0  0
  155.4000  212.7830  156.8680 C   0  0  0  0  0  1  0  0  0  0  0  0
  161.6910  207.0680  148.8480 C   0  0  2  0  0  3  0  0  0  0  0  0
  160.3410  206.3950  148.6620 C   0  0  0  0  0  1  0  0  0  0  0  0
  162.6930  206.4400  147.8880 C   0  0  0  0  0  2  0  0  0  0  0  0
  161.2440  202.1060  147.8230 C   0  0  0  0  0  3  0  0  0  0  0  0
  161.0280  203.5880  146.0800 C   0  0  0  0  0  0  0  0  0  0  0  0
  161.8540  203.4560  148.2590 C   0  0  0  0  0  3  0  0  0  0  0  0
  160.7740  202.2990  146.4880 O   0  0  0  0  0  0  0  0  0  0  0  0
  161.0740  205.4920  144.6410 C   0  0  0  0  0  3  0  0  0  0  0  0
  161.9910  205.6410  146.8410 C   0  0  0  0  0  0  0  0  0  0  0  0
  161.6980  206.2010  145.6300 N   0  0  0  0  0  0  0  0  0  0  0  0
  161.6490  204.3050  147.0570 C   0  0  0  0  0  0  0  0  0  0  0  0
  160.7180  204.1490  144.8450 C   0  0  0  0  0  3  0  0  0  0  0  0
  1 25  1  6  0  0  0
  1  8  1  0  0  0  0
  1 10  1  0  0  0  0
  2 10  1  6  0  0  0
  2  6  1  0  0  0  0
  3 17  1  0  0  0  0
  3 11  1  1  0  0  0
  6  4  1  0  0  0  0
  6 11  1  0  0  0  0
  6  9  1  0  0  0  0
  7  8  1  6  0  0  0
  7  2  1  0  0  0  0
  7  3  1  0  0  0  0
 10  5  2  0  0  0  0
 13 15  1  0  0  0  0
 14 13  1  0  0  0  0
 15 12  1  0  0  0  0
 15 18  1  1  0  0  0
 16 12  1  0  0  0  0
 17 14  1  1  0  0  0
 17 16  1  0  0  0  0
 18 19  1  6  0  0  0
 18 21  1  0  0  0  0
 21 20  1  1  0  0  0
 22 23  2  0  0  0  0
 23 21  1  0  0  0  0
 23 24  1  0  0  0  0
 25 26  1  1  0  0  0
 27 25  1  0  0  0  0
 28 30  2  0  0  0  0
 29 31  1  0  0  0  0
 29 35  1  0  0  0  0
 31 28  1  0  0  0  0
 32 36  1  0  0  0  0
 32 34  2  0  0  0  0
 33 35  2  0  0  0  0
 33 27  1  0  0  0  0
 34 33  1  0  0  0  0
 35 30  1  0  0  0  0
 36 29  2  0  0  0  0
M  END
>  <MODEL>
3

>  <REMARK>
 VINA RESULT:      -6.6      2.460      3.958
  Name = 
  7 active torsions:
  status: ('A' for Active; 'I' for Inactive)
    1  A    between atoms: C_2  and  C_21
    2  A    between atoms: C_2  and  C_35
    3  A    between atoms: C_3  and  C_13
    4  A    between atoms: C_7  and  C_35
    5  A    between atoms: C_9  and  C_26
    6  A    between atoms: C_13  and  C_16
    7  A    between atoms: C_16  and  C_23
                            x       y       z     vdW  Elec       q    Type
                         _______ _______ _______ _____ _____    ______ ____

>  <TORSDO>
F 7

$$$$
=
 OpenBabel11072414363D

 36 40  0  0  1  0  0  0  0  0999 V2000
  158.8700  211.7750  152.8360 C   0  0  1  0  0  3  0  0  0  0  0  0
  160.7010  211.0830  154.1630 C   0  0  1  0  0  3  0  0  0  0  0  0
  160.5190  208.8290  153.5100 C   0  0  2  0  0  3  0  0  0  0  0  0
  159.0860  210.2500  155.9870 C   0  0  0  0  0  1  0  0  0  0  0  0
  159.5240  213.1840  154.7900 C   0  0  0  0  0  2  0  0  0  0  0  0
  160.5100  210.2550  155.4380 C   0  0  0  0  0  0  0  0  0  0  0  0
  160.4780  210.2070  153.0170 N   0  0  1  0  0  0  0  0  0  0  0  0
  159.2070  210.4300  152.5440 O   0  0  0  0  0  0  0  0  0  0  0  0
  161.4730  210.7130  156.5140 C   0  0  0  0  0  1  0  0  0  0  0  0
  159.7550  212.1790  153.9440 C   0  0  0  0  0  0  0  0  0  0  0  0
  160.8580  208.8630  154.9930 C   0  0  0  0  0  2  0  0  0  0  0  0
  162.6000  207.6580  150.5440 N   0  0  0  0  0  2  0  0  0  0  0  0
  162.2420  205.7120  152.0200 C   0  0  0  0  0  2  0  0  0  0  0  0
  161.2350  206.5190  152.8350 C   0  0  0  0  0  2  0  0  0  0  0  0
  162.3080  206.2180  150.5710 C   0  0  1  0  0  3  0  0  0  0  0  0
  161.5670  208.4060  151.2630 C   0  0  0  0  0  2  0  0  0  0  0  0
  161.5550  208.0090  152.7390 C   0  0  1  0  0  3  0  0  0  0  0  0
  161.0500  205.8620  149.7560 C   0  0  2  0  0  3  0  0  0  0  0  0
  160.6870  204.5370  150.0150 O   0  0  0  0  0  1  0  0  0  0  0  0
  160.0780  206.3150  147.5910 O   0  0  0  0  0  1  0  0  0  0  0  0
  161.2800  206.0430  148.2490 C   0  0  2  0  0  3  0  0  0  0  0  0
  162.9960  204.9630  146.8780 C   0  0  0  0  0  2  0  0  0  0  0  0
  161.9110  204.8280  147.6350 C   0  0  0  0  0  0  0  0  0  0  0  0
  161.3160  203.4720  147.8310 C   0  0  0  0  0  1  0  0  0  0  0  0
  159.0730  212.6510  151.5950 C   0  0  2  0  0  3  0  0  0  0  0  0
  160.5450  212.7250  151.2200 C   0  0  0  0  0  1  0  0  0  0  0  0
  158.5590  214.0610  151.8560 C   0  0  0  0  0  2  0  0  0  0  0  0
  156.5330  214.3370  147.7680 C   0  0  0  0  0  3  0  0  0  0  0  0
  155.4320  214.3850  149.7840 C   0  0  0  0  0  0  0  0  0  0  0  0
  157.5820  214.2100  148.8950 C   0  0  0  0  0  3  0  0  0  0  0  0
  155.2660  214.4360  148.4190 O   0  0  0  0  0  0  0  0  0  0  0  0
  154.8300  214.3830  152.0940 C   0  0  0  0  0  3  0  0  0  0  0  0
  157.1240  214.1800  151.4620 C   0  0  0  0  0  0  0  0  0  0  0  0
  156.1520  214.2520  152.4190 N   0  0  0  0  0  0  0  0  0  0  0  0
  156.7450  214.2540  150.1210 C   0  0  0  0  0  0  0  0  0  0  0  0
  154.4320  214.4530  150.7500 C   0  0  0  0  0  3  0  0  0  0  0  0
  1 25  1  6  0  0  0
  1 10  1  0  0  0  0
  2 10  1  1  0  0  0
  2  6  1  0  0  0  0
  3 11  1  1  0  0  0
  6  4  1  0  0  0  0
  6  9  1  0  0  0  0
  7  8  1  1  0  0  0
  7  3  1  0  0  0  0
  7  2  1  0  0  0  0
  8  1  1  0  0  0  0
 10  5  2  0  0  0  0
 11  6  1  0  0  0  0
 12 15  1  0  0  0  0
 12 16  1  0  0  0  0
 13 14  1  0  0  0  0
 15 18  1  1  0  0  0
 15 13  1  0  0  0  0
 17 16  1  6  0  0  0
 17 14  1  0  0  0  0
 17  3  1  0  0  0  0
 18 19  1  6  0  0  0
 21 20  1  6  0  0  0
 21 18  1  0  0  0  0
 22 23  2  0  0  0  0
 23 24  1  0  0  0  0
 23 21  1  0  0  0  0
 25 26  1  1  0  0  0
 25 27  1  0  0  0  0
 28 31  1  0  0  0  0
 28 30  2  0  0  0  0
 29 35  2  0  0  0  0
 29 36  1  0  0  0  0
 30 35  1  0  0  0  0
 31 29  1  0  0  0  0
 32 34  1  0  0  0  0
 33 27  1  0  0  0  0
 33 34  2  0  0  0  0
 35 33  1  0  0  0  0
 36 32  2  0  0  0  0
M  END
>  <MODEL>
4

>  <REMARK>
 VINA RESULT:      -6.4      1.776      8.039
  Name = 
  7 active torsions:
  status: ('A' for Active; 'I' for Inactive)
    1  A    between atoms: C_2  and  C_21
    2  A    between atoms: C_2  and  C_35
    3  A    between atoms: C_3  and  C_13
    4  A    between atoms: C_7  and  C_35
    5  A    between atoms: C_9  and  C_26
    6  A    between atoms: C_13  and  C_16
    7  A    between atoms: C_16  and  C_23
                            x       y       z     vdW  Elec       q    Type
                         _______ _______ _______ _____ _____    ______ ____

>  <TORSDO>
F 7

$$$$
=
 OpenBabel11072414363D

 36 40  0  0  1  0  0  0  0  0999 V2000
  162.1180  208.9730  151.3870 C   0  0  1  0  0  3  0  0  0  0  0  0
  160.1650  209.8310  152.4060 C   0  0  1  0  0  3  0  0  0  0  0  0
  160.7880  212.0750  152.0640 C   0  0  2  0  0  3  0  0  0  0  0  0
  161.4640  210.2400  154.5910 C   0  0  0  0  0  1  0  0  0  0  0  0
  160.8850  207.5250  153.0030 C   0  0  0  0  0  2  0  0  0  0  0  0
  160.1990  210.5070  153.7800 C   0  0  0  0  0  0  0  0  0  0  0  0
  160.7400  210.7540  151.4330 N   0  0  1  0  0  0  0  0  0  0  0  0
  162.0390  210.3740  151.1920 O   0  0  0  0  0  0  0  0  0  0  0  0
  158.9790  210.1190  154.5900 C   0  0  0  0  0  1  0  0  0  0  0  0
  160.9750  208.6210  152.2490 C   0  0  0  0  0  0  0  0  0  0  0  0
  160.1470  211.9690  153.4390 C   0  0  0  0  0  2  0  0  0  0  0  0
  157.9910  213.5900  149.9710 N   0  0  0  0  0  2  0  0  0  0  0  0
  160.1310  214.4530  149.0950 C   0  0  0  0  0  2  0  0  0  0  0  0
  160.8880  213.4600  149.9720 C   0  0  0  0  0  2  0  0  0  0  0  0
  158.7320  213.9240  148.7470 C   0  0  1  0  0  3  0  0  0  0  0  0
  158.7070  212.5720  150.7430 C   0  0  0  0  0  2  0  0  0  0  0  0
  160.0590  213.1100  151.2070 C   0  0  1  0  0  3  0  0  0  0  0  0
  158.7670  212.7520  147.7470 C   0  0  2  0  0  3  0  0  0  0  0  0
  160.0900  212.3390  147.5610 O   0  0  0  0  0  1  0  0  0  0  0  0
  157.2110  212.2020  145.9830 O   0  0  0  0  0  1  0  0  0  0  0  0
  158.1590  213.1430  146.3930 C   0  0  2  0  0  3  0  0  0  0  0  0
  160.3290  213.9430  145.5940 C   0  0  0  0  0  2  0  0  0  0  0  0
  159.2090  213.2750  145.3310 C   0  0  0  0  0  0  0  0  0  0  0  0
  159.0010  212.6990  143.9690 C   0  0  0  0  0  1  0  0  0  0  0  0
  162.0590  208.2470  150.0370 C   0  0  2  0  0  3  0  0  0  0  0  0
  162.2210  209.2300  148.8890 C   0  0  0  0  0  1  0  0  0  0  0  0
  160.7270  207.5240  149.8850 C   0  0  0  0  0  2  0  0  0  0  0  0
  161.1570  203.1630  151.1820 C   0  0  0  0  0  3  0  0  0  0  0  0
  161.1890  203.8930  149.0030 C   0  0  0  0  0  0  0  0  0  0  0  0
  160.9730  204.6970  151.1840 C   0  0  0  0  0  3  0  0  0  0  0  0
  161.2770  202.7830  149.8100 O   0  0  0  0  0  0  0  0  0  0  0  0
  161.1490  205.1770  146.9910 C   0  0  0  0  0  3  0  0  0  0  0  0
  160.8970  206.2650  149.1020 C   0  0  0  0  0  0  0  0  0  0  0  0
  160.9730  206.3090  147.7390 N   0  0  0  0  0  0  0  0  0  0  0  0
  161.0130  205.0280  149.7360 C   0  0  0  0  0  0  0  0  0  0  0  0
  161.2620  203.9240  147.6140 C   0  0  0  0  0  3  0  0  0  0  0  0
  1 25  1  6  0  0  0
  1 10  1  0  0  0  0
  2 10  1  1  0  0  0
  2  6  1  0  0  0  0
  3 11  1  1  0  0  0
  6  9  1  0  0  0  0
  6  4  1  0  0  0  0
  7  8  1  1  0  0  0
  7  3  1  0  0  0  0
  7  2  1  0  0  0  0
  8  1  1  0  0  0  0
 10  5  2  0  0  0  0
 11  6  1  0  0  0  0
 12 16  1  0  0  0  0
 13 14  1  0  0  0  0
 15 18  1  6  0  0  0
 15 13  1  0  0  0  0
 15 12  1  0  0  0  0
 16 17  1  0  0  0  0
 17 14  1  6  0  0  0
 17  3  1  0  0  0  0
 18 19  1  6  0  0  0
 21 20  1  6  0  0  0
 21 18  1  0  0  0  0
 23 22  2  0  0  0  0
 23 21  1  0  0  0  0
 24 23  1  0  0  0  0
 25 26  1  6  0  0  0
 27 25  1  0  0  0  0
 28 30  2  0  0  0  0
 29 35  1  0  0  0  0
 29 31  1  0  0  0  0
 31 28  1  0  0  0  0
 32 36  1  0  0  0  0
 32 34  2  0  0  0  0
 33 35  2  0  0  0  0
 33 27  1  0  0  0  0
 34 33  1  0  0  0  0
 35 30  1  0  0  0  0
 36 29  2  0  0  0  0
M  END
>  <MODEL>
5

>  <REMARK>
 VINA RESULT:      -6.1      1.960      2.789
  Name = 
  7 active torsions:
  status: ('A' for Active; 'I' for Inactive)
    1  A    between atoms: C_2  and  C_21
    2  A    between atoms: C_2  and  C_35
    3  A    between atoms: C_3  and  C_13
    4  A    between atoms: C_7  and  C_35
    5  A    between atoms: C_9  and  C_26
    6  A    between atoms: C_13  and  C_16
    7  A    between atoms: C_16  and  C_23
                            x       y       z     vdW  Elec       q    Type
                         _______ _______ _______ _____ _____    ______ ____

>  <TORSDO>
F 7

$$$$
=
 OpenBabel11072414363D

 36 40  0  0  1  0  0  0  0  0999 V2000
  158.8080  214.0050  149.8160 C   0  0  1  0  0  3  0  0  0  0  0  0
  159.3710  212.4640  148.1140 C   0  0  1  0  0  3  0  0  0  0  0  0
  161.6260  212.3240  148.7760 C   0  0  2  0  0  3  0  0  0  0  0  0
  160.3450  214.3720  146.6860 C   0  0  0  0  0  1  0  0  0  0  0  0
  157.3740  213.9090  147.7760 C   0  0  0  0  0  2  0  0  0  0  0  0
  160.2250  212.8670  146.9070 C   0  0  0  0  0  0  0  0  0  0  0  0
  160.2500  212.3610  149.2750 N   0  0  1  0  0  0  0  0  0  0  0  0
  160.1200  213.5100  150.0180 O   0  0  0  0  0  0  0  0  0  0  0  0
  159.7060  212.2030  145.6480 C   0  0  0  0  0  1  0  0  0  0  0  0
  158.3490  213.4200  148.5430 C   0  0  0  0  0  0  0  0  0  0  0  0
  161.5810  212.3240  147.2550 C   0  0  0  0  0  2  0  0  0  0  0  0
  162.6900  208.6720  148.9650 N   0  0  0  0  0  2  0  0  0  0  0  0
  162.7140  209.5780  151.2610 C   0  0  0  0  0  2  0  0  0  0  0  0
  162.0240  210.8460  150.7660 C   0  0  0  0  0  2  0  0  0  0  0  0
  162.3660  208.3780  150.3680 C   0  0  1  0  0  3  0  0  0  0  0  0
  161.9440  209.8440  148.5010 C   0  0  0  0  0  2  0  0  0  0  0  0
  162.3560  211.0840  149.2940 C   0  0  1  0  0  3  0  0  0  0  0  0
  160.9110  207.9030  150.5440 C   0  0  2  0  0  3  0  0  0  0  0  0
  160.3360  208.5610  151.6360 O   0  0  0  0  0  1  0  0  0  0  0  0
  161.8980  205.9400  151.5470 O   0  0  0  0  0  1  0  0  0  0  0  0
  160.8310  206.3850  150.7630 C   0  0  2  0  0  3  0  0  0  0  0  0
  161.2060  204.3620  149.4400 C   0  0  0  0  0  2  0  0  0  0  0  0
  160.8330  205.6380  149.4630 C   0  0  0  0  0  0  0  0  0  0  0  0
  160.4560  206.3160  148.1870 C   0  0  0  0  0  1  0  0  0  0  0  0
  157.9050  213.6010  150.9880 C   0  0  2  0  0  3  0  0  0  0  0  0
  156.5240  214.2210  150.8440 C   0  0  0  0  0  1  0  0  0  0  0  0
  158.5170  214.0580  152.3060 C   0  0  0  0  0  2  0  0  0  0  0  0
  155.9390  211.9740  155.4530 C   0  0  0  0  0  3  0  0  0  0  0  0
  158.0930  211.3780  154.9170 C   0  0  0  0  0  0  0  0  0  0  0  0
  156.4410  212.9230  154.3420 C   0  0  0  0  0  3  0  0  0  0  0  0
  157.0190  211.0790  155.7230 O   0  0  0  0  0  0  0  0  0  0  0  0
  160.2830  211.2060  153.9830 C   0  0  0  0  0  3  0  0  0  0  0  0
  158.7840  212.8900  153.1970 C   0  0  0  0  0  0  0  0  0  0  0  0
  159.9980  212.2650  153.1660 N   0  0  0  0  0  0  0  0  0  0  0  0
  157.8210  212.4320  154.0970 C   0  0  0  0  0  0  0  0  0  0  0  0
  159.3230  210.7290  154.8900 C   0  0  0  0  0  3  0  0  0  0  0  0
  1  8  1  0  0  0  0
  1 25  1  1  0  0  0
  2 10  1  1  0  0  0
  2  7  1  0  0  0  0
  3 11  1  6  0  0  0
  3  7  1  0  0  0  0
  3 17  1  0  0  0  0
  4  6  1  0  0  0  0
  5 10  2  0  0  0  0
  6 11  1  0  0  0  0
  6  2  1  0  0  0  0
  7  8  1  1  0  0  0
  9  6  1  0  0  0  0
 10  1  1  0  0  0  0
 12 15  1  0  0  0  0
 14 13  1  0  0  0  0
 15 18  1  6  0  0  0
 15 13  1  0  0  0  0
 16 12  1  0  0  0  0
 17 16  1  6  0  0  0
 17 14  1  0  0  0  0
 18 21  1  0  0  0  0
 18 19  1  1  0  0  0
 21 20  1  1  0  0  0
 22 23  2  0  0  0  0
 23 21  1  0  0  0  0
 24 23  1  0  0  0  0
 25 26  1  6  0  0  0
 25 27  1  0  0  0  0
 27 33  1  0  0  0  0
 28 31  1  0  0  0  0
 29 31  1  0  0  0  0
 30 28  2  0  0  0  0
 32 36  2  0  0  0  0
 33 35  1  0  0  0  0
 34 33  2  0  0  0  0
 34 32  1  0  0  0  0
 35 30  1  0  0  0  0
 35 29  2  0  0  0  0
 36 29  1  0  0  0  0
M  END
>  <MODEL>
6

>  <REMARK>
 VINA RESULT:      -6.1      2.114      8.336
  Name = 
  7 active torsions:
  status: ('A' for Active; 'I' for Inactive)
    1  A    between atoms: C_2  and  C_21
    2  A    between atoms: C_2  and  C_35
    3  A    between atoms: C_3  and  C_13
    4  A    between atoms: C_7  and  C_35
    5  A    between atoms: C_9  and  C_26
    6  A    between atoms: C_13  and  C_16
    7  A    between atoms: C_16  and  C_23
                            x       y       z     vdW  Elec       q    Type
                         _______ _______ _______ _____ _____    ______ ____

>  <TORSDO>
F 7

$$$$
=
 OpenBabel11072414363D

 36 40  0  0  1  0  0  0  0  0999 V2000
  158.7560  213.9440  149.8120 C   0  0  1  0  0  3  0  0  0  0  0  0
  159.4030  212.4310  148.1140 C   0  0  1  0  0  3  0  0  0  0  0  0
  161.6330  212.3130  148.8570 C   0  0  2  0  0  3  0  0  0  0  0  0
  160.4010  214.3690  146.7440 C   0  0  0  0  0  1  0  0  0  0  0  0
  157.3990  213.8530  147.7190 C   0  0  0  0  0  2  0  0  0  0  0  0
  160.2940  212.8600  146.9440 C   0  0  0  0  0  0  0  0  0  0  0  0
  160.2390  212.3260  149.3060 N   0  0  1  0  0  0  0  0  0  0  0  0
  160.0660  213.4640  150.0560 O   0  0  0  0  0  0  0  0  0  0  0  0
  159.8310  212.2030  145.6600 C   0  0  0  0  0  1  0  0  0  0  0  0
  158.3520  213.3680  148.5160 C   0  0  0  0  0  0  0  0  0  0  0  0
  161.6440  212.3300  147.3360 C   0  0  0  0  0  2  0  0  0  0  0  0
  162.7010  208.6650  149.0760 N   0  0  0  0  0  2  0  0  0  0  0  0
  162.7060  209.5830  151.3660 C   0  0  0  0  0  2  0  0  0  0  0  0
  162.0180  210.8470  150.8590 C   0  0  0  0  0  2  0  0  0  0  0  0
  162.3660  208.3770  150.4780 C   0  0  1  0  0  3  0  0  0  0  0  0
  161.9570  209.8320  148.5990 C   0  0  0  0  0  2  0  0  0  0  0  0
  162.3610  211.0770  149.3880 C   0  0  1  0  0  3  0  0  0  0  0  0
  160.9100  207.9020  150.6460 C   0  0  2  0  0  3  0  0  0  0  0  0
  160.3270  208.5640  151.7310 O   0  0  0  0  0  1  0  0  0  0  0  0
  161.8980  205.9430  151.6560 O   0  0  0  0  0  1  0  0  0  0  0  0
  160.8310  206.3850  150.8700 C   0  0  2  0  0  3  0  0  0  0  0  0
  161.2030  204.3560  149.5560 C   0  0  0  0  0  2  0  0  0  0  0  0
  160.8320  205.6320  149.5740 C   0  0  0  0  0  0  0  0  0  0  0  0
  160.4560  206.3060  148.2940 C   0  0  0  0  0  1  0  0  0  0  0  0
  157.8170  213.5150  150.9450 C   0  0  2  0  0  3  0  0  0  0  0  0
  156.4350  214.1230  150.7610 C   0  0  0  0  0  1  0  0  0  0  0  0
  158.3760  213.9590  152.2900 C   0  0  0  0  0  2  0  0  0  0  0  0
  160.2920  210.5370  154.6370 C   0  0  0  0  0  3  0  0  0  0  0  0
  158.1450  211.2970  154.9420 C   0  0  0  0  0  0  0  0  0  0  0  0
  160.0480  211.7020  153.6540 C   0  0  0  0  0  3  0  0  0  0  0  0
  159.0760  210.3770  155.3680 O   0  0  0  0  0  0  0  0  0  0  0  0
  156.0630  212.4590  154.8330 C   0  0  0  0  0  3  0  0  0  0  0  0
  157.8570  213.0930  153.3900 C   0  0  0  0  0  0  0  0  0  0  0  0
  156.5780  213.2490  153.8410 N   0  0  0  0  0  0  0  0  0  0  0  0
  158.6460  212.0910  153.9560 C   0  0  0  0  0  0  0  0  0  0  0  0
  156.8450  211.4500  155.4160 C   0  0  0  0  0  3  0  0  0  0  0  0
  1  8  1  0  0  0  0
  1 25  1  1  0  0  0
  2 10  1  1  0  0  0
  2  7  1  0  0  0  0
  3 11  1  6  0  0  0
  3  7  1  0  0  0  0
  3 17  1  0  0  0  0
  4  6  1  0  0  0  0
  5 10  2  0  0  0  0
  6 11  1  0  0  0  0
  6  2  1  0  0  0  0
  7  8  1  1  0  0  0
  9  6  1  0  0  0  0
 10  1  1  0  0  0  0
 12 15  1  0  0  0  0
 14 13  1  0  0  0  0
 15 18  1  6  0  0  0
 15 13  1  0  0  0  0
 16 12  1  0  0  0  0
 17 16  1  6  0  0  0
 17 14  1  0  0  0  0
 18 21  1  0  0  0  0
 18 19  1  1  0  0  0
 21 20  1  1  0  0  0
 22 23  2  0  0  0  0
 23 21  1  0  0  0  0
 24 23  1  0  0  0  0
 25 26  1  6  0  0  0
 25 27  1  0  0  0  0
 27 33  1  0  0  0  0
 28 31  1  0  0  0  0
 29 31  1  0  0  0  0
 29 36  1  0  0  0  0
 30 35  1  0  0  0  0
 30 28  2  0  0  0  0
 32 36  2  0  0  0  0
 33 34  2  0  0  0  0
 33 35  1  0  0  0  0
 34 32  1  0  0  0  0
 35 29  2  0  0  0  0
M  END
>  <MODEL>
7

>  <REMARK>
 VINA RESULT:      -6.0      2.073      8.325
  Name = 
  7 active torsions:
  status: ('A' for Active; 'I' for Inactive)
    1  A    between atoms: C_2  and  C_21
    2  A    between atoms: C_2  and  C_35
    3  A    between atoms: C_3  and  C_13
    4  A    between atoms: C_7  and  C_35
    5  A    between atoms: C_9  and  C_26
    6  A    between atoms: C_13  and  C_16
    7  A    between atoms: C_16  and  C_23
                            x       y       z     vdW  Elec       q    Type
                         _______ _______ _______ _____ _____    ______ ____

>  <TORSDO>
F 7

$$$$
=
 OpenBabel11072414363D

 36 40  0  0  1  0  0  0  0  0999 V2000
  158.5240  212.6830  151.9680 C   0  0  1  0  0  3  0  0  0  0  0  0
  159.7530  212.2090  153.9310 C   0  0  1  0  0  3  0  0  0  0  0  0
  159.7460  209.8850  153.5580 C   0  0  2  0  0  3  0  0  0  0  0  0
  157.5780  211.5960  155.1640 C   0  0  0  0  0  1  0  0  0  0  0  0
  158.4930  214.3520  153.8240 C   0  0  0  0  0  2  0  0  0  0  0  0
  159.1040  211.5540  155.1550 C   0  0  0  0  0  0  0  0  0  0  0  0
  159.9200  211.1840  152.9050 N   0  0  1  0  0  0  0  0  0  0  0  0
  158.9030  211.3180  151.9920 O   0  0  0  0  0  0  0  0  0  0  0  0
  159.6420  212.1690  156.4300 C   0  0  0  0  0  1  0  0  0  0  0  0
  158.9770  213.2480  153.2530 C   0  0  0  0  0  0  0  0  0  0  0  0
  159.5440  210.1220  155.0470 C   0  0  0  0  0  2  0  0  0  0  0  0
  162.6010  208.2510  151.6400 N   0  0  0  0  0  2  0  0  0  0  0  0
  161.8290  206.6410  153.3440 C   0  0  0  0  0  2  0  0  0  0  0  0
  160.6270  207.5350  153.6410 C   0  0  0  0  0  2  0  0  0  0  0  0
  162.3140  206.8330  151.9000 C   0  0  1  0  0  3  0  0  0  0  0  0
  161.4030  209.0650  151.8520 C   0  0  0  0  0  2  0  0  0  0  0  0
  160.9610  208.9890  153.3130 C   0  0  1  0  0  3  0  0  0  0  0  0
  161.3480  206.2330  150.8600 C   0  0  2  0  0  3  0  0  0  0  0  0
  160.8750  205.0010  151.3210 O   0  0  0  0  0  1  0  0  0  0  0  0
  162.4510  207.2670  148.9750 O   0  0  0  0  0  1  0  0  0  0  0  0
  162.0300  206.0410  149.4970 C   0  0  2  0  0  3  0  0  0  0  0  0
  161.0020  204.0510  148.5140 C   0  0  0  0  0  2  0  0  0  0  0  0
  161.1180  205.3750  148.5110 C   0  0  0  0  0  0  0  0  0  0  0  0
  160.3650  206.1760  147.4990 C   0  0  0  0  0  1  0  0  0  0  0  0
  159.1750  213.3910  150.7730 C   0  0  2  0  0  3  0  0  0  0  0  0
  160.1560  214.4530  151.2430 C   0  0  0  0  0  1  0  0  0  0  0  0
  158.1090  214.0510  149.9070 C   0  0  0  0  0  2  0  0  0  0  0  0
  161.3830  214.1820  146.7210 C   0  0  0  0  0  3  0  0  0  0  0  0
  159.3140  213.2250  146.4370 C   0  0  0  0  0  0  0  0  0  0  0  0
  160.5900  214.3480  148.0360 C   0  0  0  0  0  3  0  0  0  0  0  0
  160.5160  213.4890  145.8230 O   0  0  0  0  0  0  0  0  0  0  0  0
  157.0860  212.4080  146.6950 C   0  0  0  0  0  3  0  0  0  0  0  0
  158.1620  213.5230  148.5120 C   0  0  0  0  0  0  0  0  0  0  0  0
  157.0790  212.8860  147.9770 N   0  0  0  0  0  0  0  0  0  0  0  0
  159.2950  213.6950  147.7160 C   0  0  0  0  0  0  0  0  0  0  0  0
  158.2190  212.5680  145.8830 C   0  0  0  0  0  3  0  0  0  0  0  0
  1 25  1  6  0  0  0
  1  8  1  0  0  0  0
  1 10  1  0  0  0  0
  2 10  1  6  0  0  0
  2  6  1  0  0  0  0
  3 11  1  1  0  0  0
  6  4  1  0  0  0  0
  6  9  1  0  0  0  0
  7  8  1  6  0  0  0
  7  3  1  0  0  0  0
  7  2  1  0  0  0  0
 10  5  2  0  0  0  0
 11  6  1  0  0  0  0
 12 16  1  0  0  0  0
 12 15  1  0  0  0  0
 13 14  1  0  0  0  0
 15 18  1  6  0  0  0
 15 13  1  0  0  0  0
 17 16  1  6  0  0  0
 17  3  1  0  0  0  0
 17 14  1  0  0  0  0
 18 19  1  1  0  0  0
 21 20  1  6  0  0  0
 21 18  1  0  0  0  0
 23 22  2  0  0  0  0
 23 21  1  0  0  0  0
 24 23  1  0  0  0  0
 25 26  1  1  0  0  0
 27 25  1  0  0  0  0
 28 30  2  0  0  0  0
 29 35  1  0  0  0  0
 31 29  1  0  0  0  0
 31 28  1  0  0  0  0
 32 34  2  0  0  0  0
 33 27  1  0  0  0  0
 34 33  1  0  0  0  0
 35 30  1  0  0  0  0
 35 33  2  0  0  0  0
 36 29  2  0  0  0  0
 36 32  1  0  0  0  0
M  END
>  <MODEL>
8

>  <REMARK>
 VINA RESULT:      -5.8      2.100      7.318
  Name = 
  7 active torsions:
  status: ('A' for Active; 'I' for Inactive)
    1  A    between atoms: C_2  and  C_21
    2  A    between atoms: C_2  and  C_35
    3  A    between atoms: C_3  and  C_13
    4  A    between atoms: C_7  and  C_35
    5  A    between atoms: C_9  and  C_26
    6  A    between atoms: C_13  and  C_16
    7  A    between atoms: C_16  and  C_23
                            x       y       z     vdW  Elec       q    Type
                         _______ _______ _______ _____ _____    ______ ____

>  <TORSDO>
F 7

$$$$
=
 OpenBabel11072414363D

 36 40  0  0  1  0  0  0  0  0999 V2000
  162.2060  208.2340  150.5220 C   0  0  1  0  0  3  0  0  0  0  0  0
  160.8470  206.6810  151.6760 C   0  0  1  0  0  3  0  0  0  0  0  0
  161.5570  207.4050  153.8000 C   0  0  2  0  0  3  0  0  0  0  0  0
  162.8700  205.1210  151.9930 C   0  0  0  0  0  1  0  0  0  0  0  0
  161.4670  206.1760  149.3200 C   0  0  0  0  0  2  0  0  0  0  0  0
  161.4390  205.4650  152.3960 C   0  0  0  0  0  0  0  0  0  0  0  0
  161.1420  207.8670  152.4730 N   0  0  1  0  0  0  0  0  0  0  0  0
  162.2200  208.5080  151.9120 O   0  0  0  0  0  0  0  0  0  0  0  0
  160.5480  204.2550  152.2080 C   0  0  0  0  0  1  0  0  0  0  0  0
  161.4080  207.0040  150.3630 C   0  0  0  0  0  0  0  0  0  0  0  0
  161.4340  205.8900  153.8370 C   0  0  0  0  0  2  0  0  0  0  0  0
  159.0510  209.8060  155.3670 N   0  0  0  0  0  2  0  0  0  0  0  0
  160.7030  209.2130  157.1030 C   0  0  0  0  0  2  0  0  0  0  0  0
  161.5660  208.5310  156.0450 C   0  0  0  0  0  2  0  0  0  0  0  0
  159.8530  210.3310  156.4820 C   0  0  1  0  0  3  0  0  0  0  0  0
  159.9180  209.2370  154.3340 C   0  0  0  0  0  2  0  0  0  0  0  0
  160.6930  208.0430  154.8890 C   0  0  1  0  0  3  0  0  0  0  0  0
  160.6870  211.5600  156.0730 C   0  0  2  0  0  3  0  0  0  0  0  0
  161.7980  211.6690  156.9150 O   0  0  0  0  0  1  0  0  0  0  0  0
  159.0250  212.8490  157.2600 O   0  0  0  0  0  1  0  0  0  0  0  0
  159.8640  212.8540  156.1420 C   0  0  2  0  0  3  0  0  0  0  0  0
  159.5790  212.8460  153.7130 C   0  0  0  0  0  2  0  0  0  0  0  0
  159.0350  213.0510  154.9080 C   0  0  0  0  0  0  0  0  0  0  0  0
  157.6170  213.5090  155.0010 C   0  0  0  0  0  1  0  0  0  0  0  0
  161.5940  209.4140  149.7580 C   0  0  2  0  0  3  0  0  0  0  0  0
  161.6920  209.1940  148.2570 C   0  0  0  0  0  1  0  0  0  0  0  0
  162.3160  210.7060  150.1170 C   0  0  0  0  0  2  0  0  0  0  0  0
  162.7110  213.5320  146.5460 C   0  0  0  0  0  3  0  0  0  0  0  0
  161.1120  213.7060  148.1870 C   0  0  0  0  0  0  0  0  0  0  0  0
  162.9260  212.3810  147.5540 C   0  0  0  0  0  3  0  0  0  0  0  0
  161.5870  214.2710  147.0260 O   0  0  0  0  0  0  0  0  0  0  0  0
  159.7200  213.4130  150.1040 C   0  0  0  0  0  3  0  0  0  0  0  0
  161.5160  211.8930  149.6940 C   0  0  0  0  0  0  0  0  0  0  0  0
  160.4620  212.3170  150.4510 N   0  0  0  0  0  0  0  0  0  0  0  0
  161.8410  212.6120  148.5430 C   0  0  0  0  0  0  0  0  0  0  0  0
  160.0310  214.1440  148.9470 C   0  0  0  0  0  3  0  0  0  0  0  0
  1 25  1  6  0  0  0
  1  8  1  0  0  0  0
  2 10  1  6  0  0  0
  2  6  1  0  0  0  0
  2  7  1  0  0  0  0
  3 11  1  6  0  0  0
  3 17  1  0  0  0  0
  4  6  1  0  0  0  0
  5 10  2  0  0  0  0
  6 11  1  0  0  0  0
  7  8  1  6  0  0  0
  7  3  1  0  0  0  0
  9  6  1  0  0  0  0
 10  1  1  0  0  0  0
 12 15  1  0  0  0  0
 14 13  1  0  0  0  0
 15 18  1  6  0  0  0
 15 13  1  0  0  0  0
 16 12  1  0  0  0  0
 17 16  1  6  0  0  0
 17 14  1  0  0  0  0
 18 21  1  0  0  0  0
 18 19  1  1  0  0  0
 21 20  1  1  0  0  0
 22 23  2  0  0  0  0
 23 24  1  0  0  0  0
 23 21  1  0  0  0  0
 25 26  1  6  0  0  0
 25 27  1  0  0  0  0
 28 31  1  0  0  0  0
 28 30  2  0  0  0  0
 29 35  2  0  0  0  0
 29 36  1  0  0  0  0
 30 35  1  0  0  0  0
 31 29  1  0  0  0  0
 32 34  1  0  0  0  0
 33 27  1  0  0  0  0
 33 34  2  0  0  0  0
 35 33  1  0  0  0  0
 36 32  2  0  0  0  0
M  END
>  <MODEL>
9

>  <REMARK>
 VINA RESULT:      -5.8      2.403      6.027
  Name = 
  7 active torsions:
  status: ('A' for Active; 'I' for Inactive)
    1  A    between atoms: C_2  and  C_21
    2  A    between atoms: C_2  and  C_35
    3  A    between atoms: C_3  and  C_13
    4  A    between atoms: C_7  and  C_35
    5  A    between atoms: C_9  and  C_26
    6  A    between atoms: C_13  and  C_16
    7  A    between atoms: C_16  and  C_23
                            x       y       z     vdW  Elec       q    Type
                         _______ _______ _______ _____ _____    ______ ____

>  <TORSDO>
F 7

$$$$
