=
 OpenBabel11072410153D

 37 40  0  0  1  0  0  0  0  0999 V2000
  160.1250  209.6670  152.7850 C   0  0  1  0  0  3  0  0  0  0  0  0
  160.9310  206.0970  150.3470 C   0  0  0  0  0  2  0  0  0  0  0  0
  160.7960  209.7830  151.4320 C   0  0  0  0  0  0  0  0  0  0  0  0
  161.7100  206.9980  152.4870 C   0  0  2  0  0  3  0  0  0  0  0  0
  161.8410  205.4890  152.5380 C   0  0  0  0  0  2  0  0  0  0  0  0
  161.1270  207.5530  153.7940 C   0  0  1  0  0  3  0  0  0  0  0  0
  161.8760  207.0800  154.8750 O   0  0  0  0  0  1  0  0  0  0  0  0
  161.0980  209.0920  153.8340 C   0  0  2  0  0  3  0  0  0  0  0  0
  161.1860  211.0320  150.9170 C   0  0  0  0  0  3  0  0  0  0  0  0
  161.1030  208.6140  150.7040 C   0  0  0  0  0  0  0  0  0  0  0  0
  161.8440  211.1330  149.6900 C   0  0  0  0  0  0  0  0  0  0  0  0
  161.6900  205.0210  151.1030 C   0  0  1  0  0  3  0  0  0  0  0  0
  160.7900  207.2710  151.3080 C   0  0  1  0  0  3  0  0  0  0  0  0
  160.7430  209.5050  155.1230 O   0  0  0  0  0  1  0  0  0  0  0  0
  161.7780  208.7190  149.4780 C   0  0  0  0  0  3  0  0  0  0  0  0
  162.1370  209.9670  148.9690 C   0  0  0  0  0  3  0  0  0  0  0  0
  160.3740  203.2840  152.0060 O   0  0  0  0  0  0  0  0  0  0  0  0
  161.0230  203.6770  151.0020 C   0  0  0  0  0  0  0  0  0  0  0  0
  161.4220  204.8370  148.1790 C   0  0  0  0  0  1  0  0  0  0  0  0
  161.1880  200.4790  148.8260 C   0  0  0  0  0  2  0  0  0  0  0  0
  161.2620  203.3750  148.4170 C   0  0  0  0  0  0  0  0  0  0  0  0
  161.0770  201.4700  149.9520 C   0  0  0  0  0  3  0  0  0  0  0  0
  161.0350  200.4130  146.4470 O   0  0  0  0  0  0  0  0  0  0  0  0
  161.1340  201.1270  147.4770 C   0  0  0  0  0  0  0  0  0  0  0  0
  161.1300  202.8030  149.7950 C   0  0  0  0  0  0  0  0  0  0  0  0
  161.2480  202.5820  147.3450 C   0  0  0  0  0  3  0  0  0  0  0  0
  159.4780  210.9270  153.2090 C   0  0  0  0  0  0  0  0  0  0  0  0
  158.9720  211.9140  153.5400 N   0  0  0  0  0  0  0  0  0  0  0  0
  162.1970  212.4000  149.2140 O   0  0  0  0  0  0  0  0  0  0  0  0
  161.6220  212.9870  148.0490 C   0  0  2  0  0  3  0  0  0  0  0  0
  163.5940  214.3180  147.8370 O   0  0  0  0  0  1  0  0  0  0  0  0
  162.6680  213.7030  147.2470 C   0  0  0  0  0  0  0  0  0  0  0  0
  162.6280  213.6870  145.8580 O   0  0  0  0  0  0  0  0  0  0  0  0
  159.0790  213.2370  148.1940 C   0  0  0  0  0  1  0  0  0  0  0  0
  160.4380  213.8790  148.4430 C   0  0  1  0  0  3  0  0  0  0  0  0
  159.4660  214.0700  150.6430 O   0  0  0  0  0  1  0  0  0  0  0  0
  160.5560  214.4460  149.8550 C   0  0  0  0  0  2  0  0  0  0  0  0
  1 27  1  1  0  0  0
  1  8  1  0  0  0  0
  2 12  1  0  0  0  0
  3  1  1  0  0  0  0
  4  5  1  1  0  0  0
  4  6  1  0  0  0  0
  6  8  1  0  0  0  0
  6  7  1  1  0  0  0
  8 14  1  1  0  0  0
  9  3  1  0  0  0  0
 10 13  1  0  0  0  0
 10  3  2  0  0  0  0
 11  9  2  0  0  0  0
 12 18  1  1  0  0  0
 12  5  1  0  0  0  0
 13  2  1  6  0  0  0
 13  4  1  0  0  0  0
 15 10  1  0  0  0  0
 16 15  2  0  0  0  0
 16 11  1  0  0  0  0
 18 17  2  0  0  0  0
 19 21  1  0  0  0  0
 20 22  1  0  0  0  0
 21 25  1  0  0  0  0
 23 24  2  0  0  0  0
 24 20  1  0  0  0  0
 25 22  2  0  0  0  0
 25 18  1  0  0  0  0
 26 24  1  0  0  0  0
 26 21  2  0  0  0  0
 27 28  3  0  0  0  0
 29 11  1  0  0  0  0
 30 32  1  1  0  0  0
 30 35  1  0  0  0  0
 30 29  1  0  0  0  0
 32 31  1  0  0  0  0
 33 32  2  0  0  0  0
 35 34  1  1  0  0  0
 35 37  1  0  0  0  0
 37 36  1  0  0  0  0
M  END
>  <MODEL>
1

>  <REMARK>
 VINA RESULT:      -7.7      0.000      0.000
  Name = 
  8 active torsions:
  status: ('A' for Active; 'I' for Inactive)
    1  A    between atoms: C_2  and  C_7
    2  A    between atoms: C_2  and  O_27
    3  A    between atoms: C_2  and  C_34
    4  A    between atoms: C_4  and  C_17
    5  A    between atoms: C_15  and  C_34
    6  A    between atoms: C_25  and  O_27
    7  A    between atoms: C_26  and  C_28
    8  A    between atoms: C_26  and  C_32
                            x       y       z     vdW  Elec       q    Type
                         _______ _______ _______ _____ _____    ______ ____

>  <TORSDO>
F 8

$$$$
=
 OpenBabel11072410153D

 37 40  0  0  1  0  0  0  0  0999 V2000
  160.3330  209.9940  152.4790 C   0  0  1  0  0  3  0  0  0  0  0  0
  160.8790  206.4120  149.9880 C   0  0  0  0  0  2  0  0  0  0  0  0
  161.0050  210.0820  151.1240 C   0  0  0  0  0  0  0  0  0  0  0  0
  161.7280  207.2260  152.1360 C   0  0  2  0  0  3  0  0  0  0  0  0
  161.7530  205.7100  152.1660 C   0  0  0  0  0  2  0  0  0  0  0  0
  161.1890  207.8010  153.4530 C   0  0  1  0  0  3  0  0  0  0  0  0
  161.9080  207.2620  154.5240 O   0  0  0  0  0  1  0  0  0  0  0  0
  161.2680  209.3370  153.5150 C   0  0  2  0  0  3  0  0  0  0  0  0
  161.4800  211.3080  150.6250 C   0  0  0  0  0  3  0  0  0  0  0  0
  161.2280  208.9050  150.3780 C   0  0  0  0  0  0  0  0  0  0  0  0
  162.1390  211.3800  149.3960 C   0  0  0  0  0  0  0  0  0  0  0  0
  161.5650  205.2750  150.7250 C   0  0  1  0  0  3  0  0  0  0  0  0
  160.8240  207.5780  150.9650 C   0  0  1  0  0  3  0  0  0  0  0  0
  160.9480  209.7560  154.8120 O   0  0  0  0  0  1  0  0  0  0  0  0
  161.9040  208.9800  149.1510 C   0  0  0  0  0  3  0  0  0  0  0  0
  162.3470  210.2070  148.6580 C   0  0  0  0  0  3  0  0  0  0  0  0
  159.9930  203.7110  151.5310 O   0  0  0  0  0  0  0  0  0  0  0  0
  160.8060  203.9820  150.6090 C   0  0  0  0  0  0  0  0  0  0  0  0
  161.3160  204.9280  147.7250 C   0  0  0  0  0  1  0  0  0  0  0  0
  161.1830  200.6290  148.7080 C   0  0  0  0  0  2  0  0  0  0  0  0
  161.1890  203.4850  148.0720 C   0  0  0  0  0  0  0  0  0  0  0  0
  160.9830  201.7020  149.7440 C   0  0  0  0  0  3  0  0  0  0  0  0
  161.1580  200.3710  146.3380 O   0  0  0  0  0  0  0  0  0  0  0  0
  161.1810  201.1670  147.3110 C   0  0  0  0  0  0  0  0  0  0  0  0
  161.0030  203.0190  149.4830 C   0  0  0  0  0  0  0  0  0  0  0  0
  161.2570  202.6100  147.0670 C   0  0  0  0  0  3  0  0  0  0  0  0
  159.7780  211.2890  152.9230 C   0  0  0  0  0  0  0  0  0  0  0  0
  159.3430  212.3040  153.2720 N   0  0  0  0  0  0  0  0  0  0  0  0
  162.5770  212.6260  148.9360 O   0  0  0  0  0  0  0  0  0  0  0  0
  161.7060  213.6010  148.3670 C   0  0  2  0  0  3  0  0  0  0  0  0
  160.4480  214.4530  150.2100 O   0  0  0  0  0  1  0  0  0  0  0  0
  160.4530  213.7280  149.1810 C   0  0  0  0  0  0  0  0  0  0  0  0
  159.2960  213.0570  148.8060 O   0  0  0  0  0  0  0  0  0  0  0  0
  160.4960  214.2450  146.2060 C   0  0  0  0  0  1  0  0  0  0  0  0
  161.4450  213.2700  146.8920 C   0  0  1  0  0  3  0  0  0  0  0  0
  162.4760  213.1210  144.7160 O   0  0  0  0  0  1  0  0  0  0  0  0
  162.7240  213.0510  146.0890 C   0  0  0  0  0  2  0  0  0  0  0  0
  1 27  1  1  0  0  0
  1  8  1  0  0  0  0
  2 12  1  0  0  0  0
  3  1  1  0  0  0  0
  4  5  1  1  0  0  0
  4  6  1  0  0  0  0
  6  8  1  0  0  0  0
  6  7  1  1  0  0  0
  8 14  1  1  0  0  0
  9  3  1  0  0  0  0
 10 13  1  0  0  0  0
 10  3  2  0  0  0  0
 11  9  2  0  0  0  0
 12 18  1  1  0  0  0
 12  5  1  0  0  0  0
 13  2  1  6  0  0  0
 13  4  1  0  0  0  0
 15 10  1  0  0  0  0
 16 15  2  0  0  0  0
 16 11  1  0  0  0  0
 18 17  2  0  0  0  0
 19 21  1  0  0  0  0
 20 22  1  0  0  0  0
 21 25  1  0  0  0  0
 23 24  2  0  0  0  0
 24 20  1  0  0  0  0
 25 22  2  0  0  0  0
 25 18  1  0  0  0  0
 26 24  1  0  0  0  0
 26 21  2  0  0  0  0
 27 28  3  0  0  0  0
 29 11  1  0  0  0  0
 30 29  1  1  0  0  0
 30 32  1  0  0  0  0
 32 31  1  0  0  0  0
 33 32  2  0  0  0  0
 35 34  1  6  0  0  0
 35 30  1  0  0  0  0
 36 37  1  0  0  0  0
 37 35  1  0  0  0  0
M  END
>  <MODEL>
2

>  <REMARK>
 VINA RESULT:      -7.4      0.783      1.856
  Name = 
  8 active torsions:
  status: ('A' for Active; 'I' for Inactive)
    1  A    between atoms: C_2  and  C_7
    2  A    between atoms: C_2  and  O_27
    3  A    between atoms: C_2  and  C_34
    4  A    between atoms: C_4  and  C_17
    5  A    between atoms: C_15  and  C_34
    6  A    between atoms: C_25  and  O_27
    7  A    between atoms: C_26  and  C_28
    8  A    between atoms: C_26  and  C_32
                            x       y       z     vdW  Elec       q    Type
                         _______ _______ _______ _____ _____    ______ ____

>  <TORSDO>
F 8

$$$$
=
 OpenBabel11072410153D

 37 40  0  0  1  0  0  0  0  0999 V2000
  160.8020  206.8700  149.1640 C   0  0  1  0  0  3  0  0  0  0  0  0
  160.3030  206.1950  153.4810 C   0  0  0  0  0  2  0  0  0  0  0  0
  160.8930  205.4760  149.7510 C   0  0  0  0  0  0  0  0  0  0  0  0
  161.9290  207.3210  152.0370 C   0  0  2  0  0  3  0  0  0  0  0  0
  161.9510  208.0050  153.3900 C   0  0  0  0  0  2  0  0  0  0  0  0
  161.9510  208.3460  150.8940 C   0  0  1  0  0  3  0  0  0  0  0  0
  163.0260  209.2210  151.0750 O   0  0  0  0  0  1  0  0  0  0  0  0
  162.0610  207.6930  149.5040 C   0  0  2  0  0  3  0  0  0  0  0  0
  161.1460  204.3590  148.9350 C   0  0  0  0  0  3  0  0  0  0  0  0
  160.7970  205.3000  151.1470 C   0  0  0  0  0  0  0  0  0  0  0  0
  161.2740  203.0810  149.4830 C   0  0  0  0  0  0  0  0  0  0  0  0
  161.2120  207.0680  154.3270 C   0  0  1  0  0  3  0  0  0  0  0  0
  160.6430  206.5100  152.0300 C   0  0  1  0  0  3  0  0  0  0  0  0
  162.2760  208.6940  148.5490 O   0  0  0  0  0  1  0  0  0  0  0  0
  160.9420  204.0160  151.6950 C   0  0  0  0  0  3  0  0  0  0  0  0
  161.1680  202.9140  150.8700 C   0  0  0  0  0  3  0  0  0  0  0  0
  159.8010  207.1090  156.2180 O   0  0  0  0  0  0  0  0  0  0  0  0
  160.4570  207.8050  155.3990 C   0  0  0  0  0  0  0  0  0  0  0  0
  162.4870  209.3550  157.1180 C   0  0  0  0  0  1  0  0  0  0  0  0
  159.3910  211.4780  154.8010 C   0  0  0  0  0  2  0  0  0  0  0  0
  161.3830  210.0400  156.3870 C   0  0  0  0  0  0  0  0  0  0  0  0
  159.5140  209.9790  154.8000 C   0  0  0  0  0  3  0  0  0  0  0  0
  160.1160  213.3570  156.0780 O   0  0  0  0  0  0  0  0  0  0  0  0
  160.2490  212.1290  155.8400 C   0  0  0  0  0  0  0  0  0  0  0  0
  160.4340  209.2950  155.5010 C   0  0  0  0  0  0  0  0  0  0  0  0
  161.2770  211.3600  156.5470 C   0  0  0  0  0  3  0  0  0  0  0  0
  160.4740  206.8600  147.7230 C   0  0  0  0  0  0  0  0  0  0  0  0
  160.2190  206.8530  146.5940 N   0  0  0  0  0  0  0  0  0  0  0  0
  161.5090  201.9990  148.6280 O   0  0  0  0  0  0  0  0  0  0  0  0
  160.8380  201.8270  147.3820 C   0  0  2  0  0  3  0  0  0  0  0  0
  161.8180  199.6490  147.4600 O   0  0  0  0  0  1  0  0  0  0  0  0
  161.1660  200.4890  146.7870 C   0  0  0  0  0  0  0  0  0  0  0  0
  160.7500  200.1670  145.5000 O   0  0  0  0  0  0  0  0  0  0  0  0
  162.6450  203.2850  146.3080 C   0  0  0  0  0  1  0  0  0  0  0  0
  161.1550  203.0030  146.4500 C   0  0  1  0  0  3  0  0  0  0  0  0
  160.4260  204.1430  144.4520 O   0  0  0  0  0  1  0  0  0  0  0  0
  160.4570  202.9040  145.0970 C   0  0  0  0  0  2  0  0  0  0  0  0
  1 27  1  6  0  0  0
  1  8  1  0  0  0  0
  1  3  1  0  0  0  0
  2 12  1  0  0  0  0
  3 10  1  0  0  0  0
  4  5  1  1  0  0  0
  5 12  1  0  0  0  0
  6  7  1  1  0  0  0
  6  4  1  0  0  0  0
  8 14  1  6  0  0  0
  8  6  1  0  0  0  0
  9 11  1  0  0  0  0
  9  3  2  0  0  0  0
 10 15  2  0  0  0  0
 10 13  1  0  0  0  0
 11 16  2  0  0  0  0
 12 18  1  1  0  0  0
 13  4  1  0  0  0  0
 13  2  1  1  0  0  0
 16 15  1  0  0  0  0
 18 25  1  0  0  0  0
 18 17  2  0  0  0  0
 20 24  1  0  0  0  0
 21 26  2  0  0  0  0
 21 19  1  0  0  0  0
 22 20  1  0  0  0  0
 22 25  2  0  0  0  0
 24 23  2  0  0  0  0
 24 26  1  0  0  0  0
 25 21  1  0  0  0  0
 28 27  3  0  0  0  0
 29 11  1  0  0  0  0
 30 32  1  6  0  0  0
 30 29  1  0  0  0  0
 32 31  1  0  0  0  0
 33 32  2  0  0  0  0
 35 34  1  6  0  0  0
 35 30  1  0  0  0  0
 36 37  1  0  0  0  0
 37 35  1  0  0  0  0
M  END
>  <MODEL>
3

>  <REMARK>
 VINA RESULT:      -7.3      3.507      9.123
  Name = 
  8 active torsions:
  status: ('A' for Active; 'I' for Inactive)
    1  A    between atoms: C_2  and  C_7
    2  A    between atoms: C_2  and  O_27
    3  A    between atoms: C_2  and  C_34
    4  A    between atoms: C_4  and  C_17
    5  A    between atoms: C_15  and  C_34
    6  A    between atoms: C_25  and  O_27
    7  A    between atoms: C_26  and  C_28
    8  A    between atoms: C_26  and  C_32
                            x       y       z     vdW  Elec       q    Type
                         _______ _______ _______ _____ _____    ______ ____

>  <TORSDO>
F 8

$$$$
=
 OpenBabel11072410153D

 37 40  0  0  1  0  0  0  0  0999 V2000
  160.9680  207.7440  149.5660 C   0  0  1  0  0  3  0  0  0  0  0  0
  160.4250  208.4840  153.8670 C   0  0  0  0  0  2  0  0  0  0  0  0
  160.9870  206.6030  150.5620 C   0  0  0  0  0  0  0  0  0  0  0  0
  162.1100  209.0220  152.1720 C   0  0  2  0  0  3  0  0  0  0  0  0
  162.1630  210.0940  153.2430 C   0  0  0  0  0  2  0  0  0  0  0  0
  162.1870  209.6330  150.7670 C   0  0  1  0  0  3  0  0  0  0  0  0
  163.3040  210.4690  150.6830 O   0  0  0  0  0  1  0  0  0  0  0  0
  162.2660  208.5720  149.6530 C   0  0  2  0  0  3  0  0  0  0  0  0
  161.1840  205.2750  150.1430 C   0  0  0  0  0  3  0  0  0  0  0  0
  160.8790  206.8790  151.9410 C   0  0  0  0  0  0  0  0  0  0  0  0
  161.2460  204.2290  151.0660 C   0  0  0  0  0  0  0  0  0  0  0  0
  161.3760  209.5350  154.4130 C   0  0  1  0  0  3  0  0  0  0  0  0
  160.7840  208.3110  152.3970 C   0  0  1  0  0  3  0  0  0  0  0  0
  162.5330  209.2110  148.4370 O   0  0  0  0  0  1  0  0  0  0  0  0
  160.9570  205.8260  152.8660 C   0  0  0  0  0  3  0  0  0  0  0  0
  161.1290  204.5120  152.4330 C   0  0  0  0  0  3  0  0  0  0  0  0
  161.2740  211.1290  156.1510 O   0  0  0  0  0  0  0  0  0  0  0  0
  160.6560  210.6060  155.1860 C   0  0  0  0  0  0  0  0  0  0  0  0
  159.9860  212.3290  152.7250 C   0  0  0  0  0  1  0  0  0  0  0  0
  156.8130  210.9780  155.4770 C   0  0  0  0  0  2  0  0  0  0  0  0
  158.9470  211.9240  153.7130 C   0  0  0  0  0  0  0  0  0  0  0  0
  158.2630  210.6320  155.6830 C   0  0  0  0  0  3  0  0  0  0  0  0
  155.4750  212.5250  154.2520 O   0  0  0  0  0  0  0  0  0  0  0  0
  156.6100  212.0080  154.4100 C   0  0  0  0  0  0  0  0  0  0  0  0
  159.2590  211.0340  154.8760 C   0  0  0  0  0  0  0  0  0  0  0  0
  157.7100  212.3820  153.5150 C   0  0  0  0  0  3  0  0  0  0  0  0
  160.6430  207.2980  148.1950 C   0  0  0  0  0  0  0  0  0  0  0  0
  160.3880  206.9480  147.1220 N   0  0  0  0  0  0  0  0  0  0  0  0
  161.4280  202.9240  150.5980 O   0  0  0  0  0  0  0  0  0  0  0  0
  160.6640  202.3610  149.5330 C   0  0  2  0  0  3  0  0  0  0  0  0
  160.4000  200.3950  150.8660 O   0  0  0  0  0  1  0  0  0  0  0  0
  159.8910  201.1680  150.0130 C   0  0  0  0  0  0  0  0  0  0  0  0
  158.6140  200.9130  149.5290 O   0  0  0  0  0  0  0  0  0  0  0  0
  161.5530  200.5950  147.9090 C   0  0  0  0  0  1  0  0  0  0  0  0
  161.5770  202.0560  148.3390 C   0  0  1  0  0  3  0  0  0  0  0  0
  162.2600  204.0780  147.2120 O   0  0  0  0  0  1  0  0  0  0  0  0
  161.3660  203.0060  147.1630 C   0  0  0  0  0  2  0  0  0  0  0  0
  1 27  1  6  0  0  0
  1  8  1  0  0  0  0
  1  3  1  0  0  0  0
  2 12  1  0  0  0  0
  3 10  1  0  0  0  0
  4 13  1  0  0  0  0
  4  5  1  1  0  0  0
  5 12  1  0  0  0  0
  6  7  1  1  0  0  0
  6  4  1  0  0  0  0
  8 14  1  6  0  0  0
  8  6  1  0  0  0  0
  9  3  2  0  0  0  0
  9 11  1  0  0  0  0
 10 13  1  0  0  0  0
 10 15  2  0  0  0  0
 11 16  2  0  0  0  0
 12 18  1  6  0  0  0
 13  2  1  1  0  0  0
 16 15  1  0  0  0  0
 18 17  2  0  0  0  0
 19 21  1  0  0  0  0
 20 22  1  0  0  0  0
 21 25  1  0  0  0  0
 23 24  2  0  0  0  0
 24 20  1  0  0  0  0
 25 18  1  0  0  0  0
 25 22  2  0  0  0  0
 26 21  2  0  0  0  0
 26 24  1  0  0  0  0
 28 27  3  0  0  0  0
 29 11  1  0  0  0  0
 30 32  1  1  0  0  0
 30 29  1  0  0  0  0
 32 31  1  0  0  0  0
 33 32  2  0  0  0  0
 35 34  1  6  0  0  0
 35 30  1  0  0  0  0
 37 36  1  0  0  0  0
 37 35  1  0  0  0  0
M  END
>  <MODEL>
4

>  <REMARK>
 VINA RESULT:      -7.2      2.990      9.191
  Name = 
  8 active torsions:
  status: ('A' for Active; 'I' for Inactive)
    1  A    between atoms: C_2  and  C_7
    2  A    between atoms: C_2  and  O_27
    3  A    between atoms: C_2  and  C_34
    4  A    between atoms: C_4  and  C_17
    5  A    between atoms: C_15  and  C_34
    6  A    between atoms: C_25  and  O_27
    7  A    between atoms: C_26  and  C_28
    8  A    between atoms: C_26  and  C_32
                            x       y       z     vdW  Elec       q    Type
                         _______ _______ _______ _____ _____    ______ ____

>  <TORSDO>
F 8

$$$$
=
 OpenBabel11072410153D

 37 40  0  0  1  0  0  0  0  0999 V2000
  161.4520  210.5700  152.5830 C   0  0  1  0  0  3  0  0  0  0  0  0
  162.4610  211.4990  148.4060 C   0  0  0  0  0  2  0  0  0  0  0  0
  161.6010  209.4690  151.5540 C   0  0  0  0  0  0  0  0  0  0  0  0
  160.5660  211.9000  149.9050 C   0  0  2  0  0  3  0  0  0  0  0  0
  160.5900  213.0100  148.8730 C   0  0  0  0  0  2  0  0  0  0  0  0
  160.2970  212.4520  151.3120 C   0  0  1  0  0  3  0  0  0  0  0  0
  159.1410  213.2370  151.2900 O   0  0  0  0  0  1  0  0  0  0  0  0
  160.1360  211.3460  152.3710 C   0  0  2  0  0  3  0  0  0  0  0  0
  161.4170  208.1190  151.9020 C   0  0  0  0  0  3  0  0  0  0  0  0
  161.8580  209.8030  150.2080 C   0  0  0  0  0  0  0  0  0  0  0  0
  161.5120  207.1080  150.9420 C   0  0  0  0  0  0  0  0  0  0  0  0
  161.5340  212.5310  147.7860 C   0  0  1  0  0  3  0  0  0  0  0  0
  161.9400  211.2540  149.8160 C   0  0  1  0  0  3  0  0  0  0  0  0
  159.6990  211.9250  153.5680 O   0  0  0  0  0  1  0  0  0  0  0  0
  161.9370  208.7850  149.2450 C   0  0  0  0  0  3  0  0  0  0  0  0
  161.7760  207.4480  149.6090 C   0  0  0  0  0  3  0  0  0  0  0  0
  162.9010  214.4510  147.9070 O   0  0  0  0  0  0  0  0  0  0  0  0
  162.2900  213.6600  147.1410 C   0  0  0  0  0  0  0  0  0  0  0  0
  159.7600  214.4480  145.5750 C   0  0  0  0  0  1  0  0  0  0  0  0
  163.6400  213.9850  143.5270 C   0  0  0  0  0  2  0  0  0  0  0  0
  161.0660  214.2090  144.8990 C   0  0  0  0  0  0  0  0  0  0  0  0
  163.4760  213.7690  145.0070 C   0  0  0  0  0  3  0  0  0  0  0  0
  162.3030  214.1280  141.5570 O   0  0  0  0  0  0  0  0  0  0  0  0
  162.3300  214.1220  142.8140 C   0  0  0  0  0  0  0  0  0  0  0  0
  162.3110  213.8870  145.6640 C   0  0  0  0  0  0  0  0  0  0  0  0
  161.0870  214.3020  143.5680 C   0  0  0  0  0  3  0  0  0  0  0  0
  161.6330  210.0840  153.9670 C   0  0  0  0  0  0  0  0  0  0  0  0
  161.7730  209.7030  155.0510 N   0  0  0  0  0  0  0  0  0  0  0  0
  161.3360  205.7780  151.3410 O   0  0  0  0  0  0  0  0  0  0  0  0
  161.6980  204.6630  150.5300 C   0  0  2  0  0  3  0  0  0  0  0  0
  161.7850  204.3050  148.1690 O   0  0  0  0  0  0  0  0  0  0  0  0
  161.1760  204.8360  149.1340 C   0  0  0  0  0  0  0  0  0  0  0  0
  160.0210  205.5720  148.8980 O   0  0  0  0  0  1  0  0  0  0  0  0
  160.5560  203.5710  152.5410 C   0  0  0  0  0  1  0  0  0  0  0  0
  161.2390  203.3610  151.1960 C   0  0  1  0  0  3  0  0  0  0  0  0
  161.0950  201.2750  149.9920 O   0  0  0  0  0  1  0  0  0  0  0  0
  160.4210  202.4660  150.2690 C   0  0  0  0  0  2  0  0  0  0  0  0
  1 27  1  1  0  0  0
  3  9  1  0  0  0  0
  3  1  1  0  0  0  0
  4  5  1  6  0  0  0
  4  6  1  0  0  0  0
  6  7  1  6  0  0  0
  6  8  1  0  0  0  0
  8  1  1  0  0  0  0
  8 14  1  1  0  0  0
 10  3  2  0  0  0  0
 11 29  1  0  0  0  0
 11  9  2  0  0  0  0
 12 18  1  1  0  0  0
 12  2  1  0  0  0  0
 12  5  1  0  0  0  0
 13  2  1  6  0  0  0
 13  4  1  0  0  0  0
 13 10  1  0  0  0  0
 15 16  2  0  0  0  0
 15 10  1  0  0  0  0
 16 11  1  0  0  0  0
 18 17  2  0  0  0  0
 20 22  1  0  0  0  0
 21 19  1  0  0  0  0
 21 25  1  0  0  0  0
 22 25  2  0  0  0  0
 23 24  2  0  0  0  0
 24 20  1  0  0  0  0
 24 26  1  0  0  0  0
 25 18  1  0  0  0  0
 26 21  2  0  0  0  0
 27 28  3  0  0  0  0
 30 32  1  6  0  0  0
 30 35  1  0  0  0  0
 30 29  1  0  0  0  0
 31 32  2  0  0  0  0
 33 32  1  0  0  0  0
 35 34  1  1  0  0  0
 36 37  1  0  0  0  0
 37 35  1  0  0  0  0
M  END
>  <MODEL>
5

>  <REMARK>
 VINA RESULT:      -6.0      2.299      8.890
  Name = 
  8 active torsions:
  status: ('A' for Active; 'I' for Inactive)
    1  A    between atoms: C_2  and  C_7
    2  A    between atoms: C_2  and  O_27
    3  A    between atoms: C_2  and  C_34
    4  A    between atoms: C_4  and  C_17
    5  A    between atoms: C_15  and  C_34
    6  A    between atoms: C_25  and  O_27
    7  A    between atoms: C_26  and  C_28
    8  A    between atoms: C_26  and  C_32
                            x       y       z     vdW  Elec       q    Type
                         _______ _______ _______ _____ _____    ______ ____

>  <TORSDO>
F 8

$$$$
=
 OpenBabel11072410153D

 37 40  0  0  1  0  0  0  0  0999 V2000
  162.3250  208.4440  151.3280 C   0  0  1  0  0  3  0  0  0  0  0  0
  161.4520  204.1430  151.6120 C   0  0  0  0  0  2  0  0  0  0  0  0
  161.6820  207.8590  152.5690 C   0  0  0  0  0  0  0  0  0  0  0  0
  160.6630  206.0290  150.2640 C   0  0  2  0  0  3  0  0  0  0  0  0
  160.4850  204.7630  149.4490 C   0  0  0  0  0  2  0  0  0  0  0  0
  161.2400  207.1660  149.4090 C   0  0  1  0  0  3  0  0  0  0  0  0
  160.4570  207.3290  148.2630 O   0  0  0  0  0  1  0  0  0  0  0  0
  161.3160  208.5060  150.1640 C   0  0  2  0  0  3  0  0  0  0  0  0
  161.3410  208.6730  153.6640 C   0  0  0  0  0  3  0  0  0  0  0  0
  161.3520  206.4880  152.6030 C   0  0  0  0  0  0  0  0  0  0  0  0
  160.7080  208.1400  154.7890 C   0  0  0  0  0  0  0  0  0  0  0  0
  160.6460  203.6220  150.4350 C   0  0  1  0  0  3  0  0  0  0  0  0
  161.6130  205.6410  151.3860 C   0  0  1  0  0  3  0  0  0  0  0  0
  161.6600  209.5170  149.2580 O   0  0  0  0  0  1  0  0  0  0  0  0
  160.7030  205.9600  153.7300 C   0  0  0  0  0  3  0  0  0  0  0  0
  160.3920  206.7750  154.8180 C   0  0  0  0  0  3  0  0  0  0  0  0
  162.0270  201.7110  150.5420 O   0  0  0  0  0  0  0  0  0  0  0  0
  161.2730  202.4050  149.8110 C   0  0  0  0  0  0  0  0  0  0  0  0
  162.2150  204.1920  147.4880 C   0  0  0  0  0  1  0  0  0  0  0  0
  160.2060  200.3410  146.7140 C   0  0  0  0  0  2  0  0  0  0  0  0
  161.4660  202.9240  147.2570 C   0  0  0  0  0  0  0  0  0  0  0  0
  160.4660  200.8520  148.1050 C   0  0  0  0  0  3  0  0  0  0  0  0
  160.1300  201.1470  144.4710 O   0  0  0  0  0  0  0  0  0  0  0  0
  160.4720  201.3710  145.6600 C   0  0  0  0  0  0  0  0  0  0  0  0
  161.0620  202.0230  148.3820 C   0  0  0  0  0  0  0  0  0  0  0  0
  161.1720  202.6140  145.9930 C   0  0  0  0  0  3  0  0  0  0  0  0
  163.0030  209.7300  151.5910 C   0  0  0  0  0  0  0  0  0  0  0  0
  163.5330  210.7390  151.7950 N   0  0  0  0  0  0  0  0  0  0  0  0
  160.4030  208.9890  155.8590 O   0  0  0  0  0  0  0  0  0  0  0  0
  160.8910  210.3240  155.9610 C   0  0  2  0  0  3  0  0  0  0  0  0
  162.6270  209.3110  157.2530 O   0  0  0  0  0  0  0  0  0  0  0  0
  162.0900  210.3800  156.8610 C   0  0  0  0  0  0  0  0  0  0  0  0
  162.6170  211.6020  157.2610 O   0  0  0  0  0  1  0  0  0  0  0  0
  160.0400  212.7330  156.1130 C   0  0  0  0  0  1  0  0  0  0  0  0
  159.7580  211.2630  156.3950 C   0  0  1  0  0  3  0  0  0  0  0  0
  158.2570  211.0900  154.5140 O   0  0  0  0  0  1  0  0  0  0  0  0
  158.3880  210.8300  155.8800 C   0  0  0  0  0  2  0  0  0  0  0  0
  1 27  1  1  0  0  0
  1  3  1  0  0  0  0
  3 10  2  0  0  0  0
  3  9  1  0  0  0  0
  4  5  1  6  0  0  0
  4 13  1  0  0  0  0
  5 12  1  0  0  0  0
  6  7  1  6  0  0  0
  6  8  1  0  0  0  0
  6  4  1  0  0  0  0
  8 14  1  6  0  0  0
  8  1  1  0  0  0  0
  9 11  2  0  0  0  0
 10 15  1  0  0  0  0
 11 16  1  0  0  0  0
 11 29  1  0  0  0  0
 12 18  1  6  0  0  0
 12  2  1  0  0  0  0
 13  2  1  1  0  0  0
 13 10  1  0  0  0  0
 15 16  2  0  0  0  0
 18 17  2  0  0  0  0
 20 22  1  0  0  0  0
 21 19  1  0  0  0  0
 21 25  1  0  0  0  0
 22 25  2  0  0  0  0
 23 24  2  0  0  0  0
 24 26  1  0  0  0  0
 24 20  1  0  0  0  0
 25 18  1  0  0  0  0
 26 21  2  0  0  0  0
 27 28  3  0  0  0  0
 30 29  1  1  0  0  0
 30 35  1  0  0  0  0
 30 32  1  0  0  0  0
 32 31  2  0  0  0  0
 32 33  1  0  0  0  0
 35 34  1  6  0  0  0
 36 37  1  0  0  0  0
 37 35  1  0  0  0  0
M  END
>  <MODEL>
6

>  <REMARK>
 VINA RESULT:      -5.8      3.026      5.368
  Name = 
  8 active torsions:
  status: ('A' for Active; 'I' for Inactive)
    1  A    between atoms: C_2  and  C_7
    2  A    between atoms: C_2  and  O_27
    3  A    between atoms: C_2  and  C_34
    4  A    between atoms: C_4  and  C_17
    5  A    between atoms: C_15  and  C_34
    6  A    between atoms: C_25  and  O_27
    7  A    between atoms: C_26  and  C_28
    8  A    between atoms: C_26  and  C_32
                            x       y       z     vdW  Elec       q    Type
                         _______ _______ _______ _____ _____    ______ ____

>  <TORSDO>
F 8

$$$$
=
 OpenBabel11072410153D

 37 40  0  0  1  0  0  0  0  0999 V2000
  159.5020  210.0740  154.8820 C   0  0  1  0  0  3  0  0  0  0  0  0
  160.6280  207.0880  151.8560 C   0  0  0  0  0  2  0  0  0  0  0  0
  159.9330  210.4960  153.4930 C   0  0  0  0  0  0  0  0  0  0  0  0
  161.5190  207.8640  154.0020 C   0  0  2  0  0  3  0  0  0  0  0  0
  161.9480  206.4230  153.8090 C   0  0  0  0  0  2  0  0  0  0  0  0
  161.0340  208.1150  155.4360 C   0  0  1  0  0  3  0  0  0  0  0  0
  162.0110  207.6840  156.3390 O   0  0  0  0  0  1  0  0  0  0  0  0
  160.7110  209.5950  155.7110 C   0  0  2  0  0  3  0  0  0  0  0  0
  159.9920  211.8540  153.1310 C   0  0  0  0  0  3  0  0  0  0  0  0
  160.3540  209.5200  152.5660 C   0  0  0  0  0  0  0  0  0  0  0  0
  160.4320  212.2440  151.8650 C   0  0  0  0  0  0  0  0  0  0  0  0
  161.6850  206.1150  152.3470 C   0  0  1  0  0  3  0  0  0  0  0  0
  160.4010  208.0770  152.9930 C   0  0  1  0  0  3  0  0  0  0  0  0
  160.4740  209.7600  157.0810 O   0  0  0  0  0  1  0  0  0  0  0  0
  160.8090  209.9180  151.3000 C   0  0  0  0  0  3  0  0  0  0  0  0
  160.8390  211.2670  150.9470 C   0  0  0  0  0  3  0  0  0  0  0  0
  160.9710  204.0100  153.1400 O   0  0  0  0  0  0  0  0  0  0  0  0
  161.2860  204.6820  152.1230 C   0  0  0  0  0  0  0  0  0  0  0  0
  161.9850  206.2480  149.5670 C   0  0  0  0  0  1  0  0  0  0  0  0
  160.9720  201.9580  149.3900 C   0  0  0  0  0  2  0  0  0  0  0  0
  161.5640  204.8190  149.5280 C   0  0  0  0  0  0  0  0  0  0  0  0
  160.9940  202.7310  150.6800 C   0  0  0  0  0  3  0  0  0  0  0  0
  160.8980  202.3560  147.0400 O   0  0  0  0  0  0  0  0  0  0  0  0
  161.0820  202.8400  148.1850 C   0  0  0  0  0  0  0  0  0  0  0  0
  161.2840  204.0380  150.7740 C   0  0  0  0  0  0  0  0  0  0  0  0
  161.4530  204.2510  148.3270 C   0  0  0  0  0  3  0  0  0  0  0  0
  158.6900  211.1030  155.5640 C   0  0  0  0  0  0  0  0  0  0  0  0
  158.0530  211.9090  156.0990 N   0  0  0  0  0  0  0  0  0  0  0  0
  160.4570  213.6070  151.5470 O   0  0  0  0  0  0  0  0  0  0  0  0
  159.5730  214.2070  150.6040 C   0  0  2  0  0  3  0  0  0  0  0  0
  157.6170  214.4530  151.9540 O   0  0  0  0  0  1  0  0  0  0  0  0
  158.1450  213.9040  150.9520 C   0  0  0  0  0  0  0  0  0  0  0  0
  157.4000  213.0260  150.1750 O   0  0  0  0  0  0  0  0  0  0  0  0
  158.8570  214.0140  148.1550 C   0  0  0  0  0  1  0  0  0  0  0  0
  159.9570  213.7800  149.1820 C   0  0  1  0  0  3  0  0  0  0  0  0
  162.2470  213.3330  148.5630 O   0  0  0  0  0  1  0  0  0  0  0  0
  161.2990  214.3460  148.7260 C   0  0  0  0  0  2  0  0  0  0  0  0
  1 27  1  1  0  0  0
  1  8  1  0  0  0  0
  2 12  1  0  0  0  0
  3  1  1  0  0  0  0
  4  5  1  1  0  0  0
  4  6  1  0  0  0  0
  6  8  1  0  0  0  0
  6  7  1  1  0  0  0
  8 14  1  1  0  0  0
  9  3  1  0  0  0  0
 10 13  1  0  0  0  0
 10  3  2  0  0  0  0
 11  9  2  0  0  0  0
 12 18  1  1  0  0  0
 12  5  1  0  0  0  0
 13  2  1  6  0  0  0
 13  4  1  0  0  0  0
 15 10  1  0  0  0  0
 16 15  2  0  0  0  0
 16 11  1  0  0  0  0
 18 17  2  0  0  0  0
 20 22  1  0  0  0  0
 21 19  1  0  0  0  0
 21 25  1  0  0  0  0
 22 25  2  0  0  0  0
 23 24  2  0  0  0  0
 24 26  1  0  0  0  0
 24 20  1  0  0  0  0
 25 18  1  0  0  0  0
 26 21  2  0  0  0  0
 27 28  3  0  0  0  0
 29 11  1  0  0  0  0
 30 32  1  1  0  0  0
 30 29  1  0  0  0  0
 32 31  1  0  0  0  0
 33 32  2  0  0  0  0
 35 34  1  6  0  0  0
 35 30  1  0  0  0  0
 36 37  1  0  0  0  0
 37 35  1  0  0  0  0
M  END
>  <MODEL>
7

>  <REMARK>
 VINA RESULT:      -5.7      1.460      2.788
  Name = 
  8 active torsions:
  status: ('A' for Active; 'I' for Inactive)
    1  A    between atoms: C_2  and  C_7
    2  A    between atoms: C_2  and  O_27
    3  A    between atoms: C_2  and  C_34
    4  A    between atoms: C_4  and  C_17
    5  A    between atoms: C_15  and  C_34
    6  A    between atoms: C_25  and  O_27
    7  A    between atoms: C_26  and  C_28
    8  A    between atoms: C_26  and  C_32
                            x       y       z     vdW  Elec       q    Type
                         _______ _______ _______ _____ _____    ______ ____

>  <TORSDO>
F 8

$$$$
=
 OpenBabel11072410153D

 37 40  0  0  1  0  0  0  0  0999 V2000
  160.4060  207.4950  154.0650 C   0  0  1  0  0  3  0  0  0  0  0  0
  160.8910  208.2120  149.7540 C   0  0  0  0  0  2  0  0  0  0  0  0
  160.4710  208.9030  153.5120 C   0  0  0  0  0  0  0  0  0  0  0  0
  162.2400  207.2470  151.5550 C   0  0  2  0  0  3  0  0  0  0  0  0
  162.6700  206.6040  150.2510 C   0  0  0  0  0  2  0  0  0  0  0  0
  162.1070  206.2050  152.6740 C   0  0  1  0  0  3  0  0  0  0  0  0
  163.2890  205.4650  152.7640 O   0  0  0  0  0  1  0  0  0  0  0  0
  161.7980  206.8310  154.0460 C   0  0  2  0  0  3  0  0  0  0  0  0
  160.3840  210.0220  154.3590 C   0  0  0  0  0  3  0  0  0  0  0  0
  160.6950  209.1010  152.1340 C   0  0  0  0  0  0  0  0  0  0  0  0
  160.4890  211.3200  153.8530 C   0  0  0  0  0  0  0  0  0  0  0  0
  162.0750  207.4710  149.1580 C   0  0  1  0  0  3  0  0  0  0  0  0
  160.9040  207.9040  151.2450 C   0  0  1  0  0  3  0  0  0  0  0  0
  161.8920  205.8390  155.0290 O   0  0  0  0  0  1  0  0  0  0  0  0
  160.8150  210.4070  151.6320 C   0  0  0  0  0  3  0  0  0  0  0  0
  160.7030  211.5070  152.4810 C   0  0  0  0  0  3  0  0  0  0  0  0
  161.4660  207.3260  146.8830 O   0  0  0  0  0  0  0  0  0  0  0  0
  161.6940  206.6780  147.9380 C   0  0  0  0  0  0  0  0  0  0  0  0
  162.8550  204.9150  145.6990 C   0  0  0  0  0  1  0  0  0  0  0  0
  160.7150  203.1220  149.1150 C   0  0  0  0  0  2  0  0  0  0  0  0
  162.0620  204.3440  146.8230 C   0  0  0  0  0  0  0  0  0  0  0  0
  160.9160  204.6060  148.9750 C   0  0  0  0  0  3  0  0  0  0  0  0
  160.8090  201.1470  147.7820 O   0  0  0  0  0  0  0  0  0  0  0  0
  161.0910  202.3690  147.8760 C   0  0  0  0  0  0  0  0  0  0  0  0
  161.5490  205.1910  147.9460 C   0  0  0  0  0  0  0  0  0  0  0  0
  161.8290  203.0310  146.7970 C   0  0  0  0  0  3  0  0  0  0  0  0
  159.7410  207.4310  155.3830 C   0  0  0  0  0  0  0  0  0  0  0  0
  159.2180  207.3810  156.4150 N   0  0  0  0  0  0  0  0  0  0  0  0
  160.3800  212.4000  154.7350 O   0  0  0  0  0  0  0  0  0  0  0  0
  159.1380  213.0170  155.0670 C   0  0  2  0  0  3  0  0  0  0  0  0
  158.1540  213.7420  157.1200 O   0  0  0  0  0  0  0  0  0  0  0  0
  158.8560  212.8780  156.5340 C   0  0  0  0  0  0  0  0  0  0  0  0
  159.3570  211.7970  157.2500 O   0  0  0  0  0  1  0  0  0  0  0  0
  157.0270  211.5790  154.9200 C   0  0  0  0  0  1  0  0  0  0  0  0
  158.0220  212.4590  154.1750 C   0  0  1  0  0  3  0  0  0  0  0  0
  157.7700  213.5010  152.0130 O   0  0  0  0  0  1  0  0  0  0  0  0
  157.3290  213.5310  153.3380 C   0  0  0  0  0  2  0  0  0  0  0  0
  1 27  1  1  0  0  0
  3  1  1  0  0  0  0
  3  9  1  0  0  0  0
  4  5  1  6  0  0  0
  4  6  1  0  0  0  0
  6  7  1  1  0  0  0
  6  8  1  0  0  0  0
  8  1  1  0  0  0  0
  8 14  1  1  0  0  0
 10  3  2  0  0  0  0
 11  9  2  0  0  0  0
 11 29  1  0  0  0  0
 12 18  1  6  0  0  0
 12  2  1  0  0  0  0
 12  5  1  0  0  0  0
 13  2  1  6  0  0  0
 13  4  1  0  0  0  0
 13 10  1  0  0  0  0
 15 10  1  0  0  0  0
 15 16  2  0  0  0  0
 16 11  1  0  0  0  0
 17 18  2  0  0  0  0
 18 25  1  0  0  0  0
 19 21  1  0  0  0  0
 21 25  1  0  0  0  0
 22 20  1  0  0  0  0
 23 24  2  0  0  0  0
 24 20  1  0  0  0  0
 25 22  2  0  0  0  0
 26 21  2  0  0  0  0
 26 24  1  0  0  0  0
 27 28  3  0  0  0  0
 30 29  1  1  0  0  0
 30 32  1  0  0  0  0
 32 31  2  0  0  0  0
 32 33  1  0  0  0  0
 35 34  1  1  0  0  0
 35 30  1  0  0  0  0
 36 37  1  0  0  0  0
 37 35  1  0  0  0  0
M  END
>  <MODEL>
8

>  <REMARK>
 VINA RESULT:      -5.7      3.035      4.805
  Name = 
  8 active torsions:
  status: ('A' for Active; 'I' for Inactive)
    1  A    between atoms: C_2  and  C_7
    2  A    between atoms: C_2  and  O_27
    3  A    between atoms: C_2  and  C_34
    4  A    between atoms: C_4  and  C_17
    5  A    between atoms: C_15  and  C_34
    6  A    between atoms: C_25  and  O_27
    7  A    between atoms: C_26  and  C_28
    8  A    between atoms: C_26  and  C_32
                            x       y       z     vdW  Elec       q    Type
                         _______ _______ _______ _____ _____    ______ ____

>  <TORSDO>
F 8

$$$$
=
 OpenBabel11072410153D

 37 40  0  0  1  0  0  0  0  0999 V2000
  162.4100  209.0910  153.0450 C   0  0  1  0  0  3  0  0  0  0  0  0
  161.1330  204.8940  152.7370 C   0  0  0  0  0  2  0  0  0  0  0  0
  161.4470  208.4940  154.0500 C   0  0  0  0  0  0  0  0  0  0  0  0
  160.8450  206.9380  151.4190 C   0  0  2  0  0  3  0  0  0  0  0  0
  160.7570  205.7550  150.4750 C   0  0  0  0  0  2  0  0  0  0  0  0
  161.7010  208.0640  150.8230 C   0  0  1  0  0  3  0  0  0  0  0  0
  161.2270  208.3840  149.5480 O   0  0  0  0  0  1  0  0  0  0  0  0
  161.7110  209.3350  151.6920 C   0  0  2  0  0  3  0  0  0  0  0  0
  160.9280  209.2630  155.1060 C   0  0  0  0  0  3  0  0  0  0  0  0
  161.0030  207.1650  153.8850 C   0  0  0  0  0  0  0  0  0  0  0  0
  160.0050  208.7240  156.0060 C   0  0  0  0  0  0  0  0  0  0  0  0
  160.5850  204.5390  151.3660 C   0  0  1  0  0  3  0  0  0  0  0  0
  161.4690  206.3790  152.6880 C   0  0  1  0  0  3  0  0  0  0  0  0
  162.3430  210.3640  150.9820 O   0  0  0  0  0  1  0  0  0  0  0  0
  160.0640  206.6320  154.7830 C   0  0  0  0  0  3  0  0  0  0  0  0
  159.5770  207.4000  155.8400 C   0  0  0  0  0  3  0  0  0  0  0  0
  162.0020  202.6610  151.5550 O   0  0  0  0  0  0  0  0  0  0  0  0
  161.2350  203.3090  150.7950 C   0  0  0  0  0  0  0  0  0  0  0  0
  159.7530  200.7010  150.1050 C   0  0  0  0  0  1  0  0  0  0  0  0
  161.3400  203.3150  146.9240 C   0  0  0  0  0  2  0  0  0  0  0  0
  160.3670  201.5630  149.0550 C   0  0  0  0  0  0  0  0  0  0  0  0
  161.4900  203.6380  148.3860 C   0  0  0  0  0  3  0  0  0  0  0  0
  160.8250  201.4560  145.5220 O   0  0  0  0  0  0  0  0  0  0  0  0
  160.8310  201.9270  146.6880 C   0  0  0  0  0  0  0  0  0  0  0  0
  161.0330  202.8630  149.3830 C   0  0  0  0  0  0  0  0  0  0  0  0
  160.2910  201.1330  147.7950 C   0  0  0  0  0  3  0  0  0  0  0  0
  163.1130  210.2800  153.5680 C   0  0  0  0  0  0  0  0  0  0  0  0
  163.6650  211.2120  153.9770 N   0  0  0  0  0  0  0  0  0  0  0  0
  159.5310  209.5250  157.0500 O   0  0  0  0  0  0  0  0  0  0  0  0
  159.2110  210.9060  156.8930 C   0  0  2  0  0  3  0  0  0  0  0  0
  157.7680  210.6350  155.0080 O   0  0  0  0  0  0  0  0  0  0  0  0
  157.9000  211.0660  156.1830 C   0  0  0  0  0  0  0  0  0  0  0  0
  156.8260  211.6810  156.8150 O   0  0  0  0  0  1  0  0  0  0  0  0
  159.9210  212.7220  155.2360 C   0  0  0  0  0  1  0  0  0  0  0  0
  160.3710  211.6360  156.2040 C   0  0  1  0  0  3  0  0  0  0  0  0
  162.5070  211.2540  157.2610 O   0  0  0  0  0  1  0  0  0  0  0  0
  161.4300  212.1400  157.1810 C   0  0  0  0  0  2  0  0  0  0  0  0
  1 27  1  1  0  0  0
  1  3  1  0  0  0  0
  3  9  1  0  0  0  0
  4  5  1  6  0  0  0
  4 13  1  0  0  0  0
  5 12  1  0  0  0  0
  6  7  1  6  0  0  0
  6  4  1  0  0  0  0
  6  8  1  0  0  0  0
  8 14  1  6  0  0  0
  8  1  1  0  0  0  0
  9 11  2  0  0  0  0
 10  3  2  0  0  0  0
 10 15  1  0  0  0  0
 11 29  1  0  0  0  0
 12 18  1  6  0  0  0
 12  2  1  0  0  0  0
 13  2  1  1  0  0  0
 13 10  1  0  0  0  0
 15 16  2  0  0  0  0
 16 11  1  0  0  0  0
 18 17  2  0  0  0  0
 20 22  1  0  0  0  0
 21 25  1  0  0  0  0
 21 19  1  0  0  0  0
 22 25  2  0  0  0  0
 23 24  2  0  0  0  0
 24 20  1  0  0  0  0
 24 26  1  0  0  0  0
 25 18  1  0  0  0  0
 26 21  2  0  0  0  0
 27 28  3  0  0  0  0
 30 32  1  6  0  0  0
 30 29  1  0  0  0  0
 31 32  2  0  0  0  0
 32 33  1  0  0  0  0
 35 34  1  1  0  0  0
 35 30  1  0  0  0  0
 35 37  1  0  0  0  0
 37 36  1  0  0  0  0
M  END
>  <MODEL>
9

>  <REMARK>
 VINA RESULT:      -5.1      3.084      5.548
  Name = 
  8 active torsions:
  status: ('A' for Active; 'I' for Inactive)
    1  A    between atoms: C_2  and  C_7
    2  A    between atoms: C_2  and  O_27
    3  A    between atoms: C_2  and  C_34
    4  A    between atoms: C_4  and  C_17
    5  A    between atoms: C_15  and  C_34
    6  A    between atoms: C_25  and  O_27
    7  A    between atoms: C_26  and  C_28
    8  A    between atoms: C_26  and  C_32
                            x       y       z     vdW  Elec       q    Type
                         _______ _______ _______ _____ _____    ______ ____

>  <TORSDO>
F 8

$$$$
