=
 OpenBabel11072410333D

 54 58  0  0  1  0  0  0  0  0999 V2000
  161.0530  207.9730  149.9130 O   0  0  0  0  0  0  0  0  0  0  0  0
  163.0520  207.5930  148.7850 O   0  0  0  0  0  1  0  0  0  0  0  0
  161.6040  205.1580  149.7420 C   0  0  1  0  0  3  0  0  0  0  0  0
  161.6560  207.4350  148.7520 C   0  0  1  0  0  3  0  0  0  0  0  0
  161.3010  206.0180  148.5960 N   0  0  0  0  0  0  0  0  0  0  0  0
  161.5860  205.1200  152.1130 F   0  0  0  0  0  0  0  0  0  0  0  0
  161.0550  205.7870  151.0210 C   0  0  1  0  0  3  0  0  0  0  0  0
  161.5050  207.2570  151.0520 C   0  0  2  0  0  3  0  0  0  0  0  0
  160.5690  205.5680  146.3480 C   0  0  0  0  0  0  0  0  0  0  0  0
  160.3550  205.6080  147.6310 N   0  0  0  0  0  0  0  0  0  0  0  0
  161.8570  205.8750  145.6440 C   0  0  2  0  0  3  0  0  0  0  0  0
  161.4030  205.6790  144.2310 C   0  0  0  0  0  0  0  0  0  0  0  0
  162.8950  204.8200  145.9940 C   0  0  0  0  0  1  0  0  0  0  0  0
  159.5830  205.1950  145.4480 O   0  0  0  0  0  0  0  0  0  0  0  0
  160.0480  205.2500  144.1600 N   0  0  0  0  0  2  0  0  0  0  0  0
  162.1600  205.9050  143.1610 C   0  0  0  0  0  3  0  0  0  0  0  0
  161.6460  205.7010  141.7750 C   0  0  0  0  0  2  0  0  0  0  0  0
  161.9180  207.5780  139.7850 C   0  0  0  0  0  0  0  0  0  0  0  0
  162.9290  207.8790  140.6650 O   0  0  0  0  0  0  0  0  0  0  0  0
  162.0760  206.8310  140.9070 C   0  0  0  0  0  0  0  0  0  0  0  0
  162.0440  207.5370  137.3360 C   0  0  0  0  0  1  0  0  0  0  0  0
  161.1740  207.8730  138.5300 C   0  0  0  0  0  3  0  0  0  0  0  0
  160.8040  209.3430  138.4860 C   0  0  0  0  0  1  0  0  0  0  0  0
  161.3370  203.2930  152.0180 C   0  0  0  0  0  1  0  0  0  0  0  0
  161.0590  202.8400  150.6610 N   0  0  0  0  0  0  0  0  0  0  0  0
  161.1640  203.7310  149.5420 C   0  0  0  0  0  0  0  0  0  0  0  0
  160.9270  203.3090  148.3780 O   0  0  0  0  0  0  0  0  0  0  0  0
  160.6790  201.4480  150.4650 C   0  0  0  0  0  1  0  0  0  0  0  0
  161.7290  207.3790  153.4390 O   0  0  0  0  0  1  0  0  0  0  0  0
  161.0650  207.9400  152.3450 C   0  0  1  0  0  3  0  0  0  0  0  0
  161.2270  209.4640  152.3110 C   0  0  2  0  0  3  0  0  0  0  0  0
  162.1860  209.8500  151.3670 O   0  0  0  0  0  1  0  0  0  0  0  0
  161.5880  210.0000  153.6610 C   0  0  0  0  0  0  0  0  0  0  0  0
  162.7500  210.2890  153.9200 O   0  0  0  0  0  0  0  0  0  0  0  0
  160.4980  210.1820  154.6810 C   0  0  1  0  0  3  0  0  0  0  0  0
  159.6390  211.6550  157.2550 O   0  0  0  0  0  1  0  0  0  0  0  0
  160.6810  211.5730  156.3210 C   0  0  1  0  0  3  0  0  0  0  0  0
  161.0450  210.1120  156.1050 C   0  0  0  0  0  2  0  0  0  0  0  0
  160.1620  211.6540  154.8760 C   0  0  2  0  0  3  0  0  0  0  0  0
  158.7710  211.8310  154.8100 O   0  0  0  0  0  0  0  0  0  0  0  0
  158.2580  212.3870  152.5050 C   0  0  2  0  0  0  0  0  0  0  0  0
  157.1540  212.9480  153.3850 C   0  0  1  0  0  0  0  0  0  0  0  0
  156.2860  212.0060  153.9580 O   0  0  0  0  0  1  0  0  0  0  0  0
  158.3110  211.0050  152.3650 F   0  0  0  0  0  0  0  0  0  0  0  0
  158.5940  212.8970  153.9120 C   0  0  1  0  0  3  0  0  0  0  0  0
  160.1090  213.0970  151.0550 C   0  0  0  0  0  3  0  0  0  0  0  0
  158.8440  213.2410  151.4270 C   0  0  0  0  0  3  0  0  0  0  0  0
  160.6350  213.9130  150.0560 O   0  0  0  0  0  0  0  0  0  0  0  0
  160.2010  212.7560  148.1030 O   0  0  0  0  0  0  0  0  0  0  0  0
  162.3000  213.6390  148.3420 O   0  0  0  0  0  1  0  0  0  0  0  0
  161.0130  213.4120  148.8110 C   0  0  0  0  0  0  0  0  0  0  0  0
  156.6290  214.3610  153.1570 C   0  0  0  0  0  2  0  0  0  0  0  0
  155.3580  214.3300  152.3250 C   0  0  0  0  0  2  0  0  0  0  0  0
  154.2570  214.4530  153.1670 O   0  0  0  0  0  1  0  0  0  0  0  0
  1  8  1  0  0  0  0
  3 26  1  6  0  0  0
  3  7  1  0  0  0  0
  4  2  1  1  0  0  0
  4  1  1  0  0  0  0
  5  4  1  0  0  0  0
  5  3  1  0  0  0  0
  7  8  1  0  0  0  0
  7  6  1  1  0  0  0
  8 30  1  1  0  0  0
  9 10  2  0  0  0  0
 10  5  1  0  0  0  0
 11 13  1  1  0  0  0
 11  9  1  0  0  0  0
 12 11  1  0  0  0  0
 14  9  1  0  0  0  0
 15 12  1  0  0  0  0
 15 14  1  0  0  0  0
 16 12  2  0  0  0  0
 17 16  1  0  0  0  0
 18 19  1  0  0  0  0
 18 20  2  0  0  0  0
 19 20  1  0  0  0  0
 20 17  1  0  0  0  0
 21 22  1  0  0  0  0
 22 18  1  0  0  0  0
 23 22  1  0  0  0  0
 25 24  1  0  0  0  0
 26 25  1  0  0  0  0
 27 26  2  0  0  0  0
 28 25  1  0  0  0  0
 30 29  1  1  0  0  0
 31 32  1  6  0  0  0
 31 30  1  0  0  0  0
 31 33  1  0  0  0  0
 33 34  2  0  0  0  0
 35 33  1  6  0  0  0
 35 39  1  0  0  0  0
 35 38  1  0  0  0  0
 37 36  1  1  0  0  0
 38 37  1  0  0  0  0
 39 40  1  1  0  0  0
 39 37  1  0  0  0  0
 41 44  1  6  0  0  0
 41 42  1  0  0  0  0
 41 45  1  0  0  0  0
 42 45  1  0  0  0  0
 42 43  1  1  0  0  0
 45 40  1  1  0  0  0
 46 47  2  0  0  0  0
 47 41  1  0  0  0  0
 48 46  1  0  0  0  0
 49 51  2  0  0  0  0
 50 51  1  0  0  0  0
 51 48  1  0  0  0  0
 52 42  1  0  0  0  0
 53 52  1  0  0  0  0
 53 54  1  0  0  0  0
M  END
>  <MODEL>
1

>  <REMARK>
 VINA RESULT:      -5.5      0.000      0.000
  Name = 
  16 active torsions:
  status: ('A' for Active; 'I' for Inactive)
    1  A    between atoms: O_1  and  C_31
    2  A    between atoms: O_1  and  C_48
    3  A    between atoms: C_2  and  C_15
    4  A    between atoms: C_2  and  C_45
    5  A    between atoms: C_6  and  C_37
    6  A    between atoms: C_7  and  C_36
    7  A    between atoms: N_11  and  N_41
    8  A    between atoms: C_13  and  C_21
    9  A    between atoms: C_13  and  C_54
   10  A    between atoms: C_14  and  C_43
   11  A    between atoms: C_15  and  C_20
   12  A    between atoms: C_17  and  C_43
   13  A    between atoms: C_23  and  C_26
   14  A    between atoms: O_29  and  C_47
   15  A    between atoms: O_29  and  C_53
   16  A    between atoms: C_45  and  C_52
                            x       y       z     vdW  Elec       q    Type
                         _______ _______ _______ _____ _____    ______ ____

>  <TORSDO>
F 16

$$$$
=
 OpenBabel11072410333D

 54 58  0  0  1  0  0  0  0  0999 V2000
  161.3680  212.4230  149.7910 O   0  0  0  0  0  0  0  0  0  0  0  0
  162.2920  214.3300  148.8300 O   0  0  0  0  0  1  0  0  0  0  0  0
  160.4000  212.7800  147.1090 C   0  0  1  0  0  3  0  0  0  0  0  0
  161.1120  213.7230  149.2940 C   0  0  1  0  0  3  0  0  0  0  0  0
  160.1020  213.6770  148.2280 N   0  0  0  0  0  0  0  0  0  0  0  0
  161.3350  210.6590  146.6050 F   0  0  0  0  0  0  0  0  0  0  0  0
  160.7890  211.4020  147.6400 C   0  0  1  0  0  3  0  0  0  0  0  0
  161.8470  211.6030  148.7370 C   0  0  2  0  0  3  0  0  0  0  0  0
  158.1550  214.0000  149.6040 C   0  0  0  0  0  0  0  0  0  0  0  0
  158.7760  214.1000  148.4650 N   0  0  0  0  0  0  0  0  0  0  0  0
  158.7240  213.4910  150.8940 C   0  0  2  0  0  3  0  0  0  0  0  0
  157.5020  213.6060  151.7510 C   0  0  0  0  0  0  0  0  0  0  0  0
  159.7890  214.4530  151.3970 C   0  0  0  0  0  1  0  0  0  0  0  0
  156.8360  214.3960  149.7600 O   0  0  0  0  0  0  0  0  0  0  0  0
  156.4050  214.1740  151.0420 N   0  0  0  0  0  2  0  0  0  0  0  0
  157.4300  213.2030  153.0160 C   0  0  0  0  0  3  0  0  0  0  0  0
  156.1780  213.3360  153.8160 C   0  0  0  0  0  2  0  0  0  0  0  0
  157.2540  212.5570  156.2220 C   0  0  0  0  0  0  0  0  0  0  0  0
  155.9090  212.3230  156.3700 O   0  0  0  0  0  0  0  0  0  0  0  0
  156.4080  212.8370  155.1990 C   0  0  0  0  0  0  0  0  0  0  0  0
  159.5900  213.1710  155.7960 C   0  0  0  0  0  1  0  0  0  0  0  0
  158.6320  212.5400  156.7850 C   0  0  0  0  0  3  0  0  0  0  0  0
  159.0590  211.1110  157.0580 C   0  0  0  0  0  1  0  0  0  0  0  0
  160.6510  214.1840  144.5210 C   0  0  0  0  0  1  0  0  0  0  0  0
  159.4390  213.4400  144.8380 N   0  0  0  0  0  0  0  0  0  0  0  0
  159.3010  212.7340  146.0800 C   0  0  0  0  0  0  0  0  0  0  0  0
  158.2380  212.1070  146.3310 O   0  0  0  0  0  0  0  0  0  0  0  0
  158.3590  213.4360  143.8620 C   0  0  0  0  0  1  0  0  0  0  0  0
  162.7160  210.3800  150.6120 O   0  0  0  0  0  1  0  0  0  0  0  0
  162.3530  210.2620  149.2670 C   0  0  1  0  0  3  0  0  0  0  0  0
  161.3620  209.1130  149.0520 C   0  0  2  0  0  3  0  0  0  0  0  0
  160.8430  208.6570  150.2700 O   0  0  0  0  0  1  0  0  0  0  0  0
  161.9980  207.9810  148.3070 C   0  0  0  0  0  0  0  0  0  0  0  0
  163.2130  207.9440  148.1620 O   0  0  0  0  0  0  0  0  0  0  0  0
  161.1160  206.8960  147.7530 C   0  0  1  0  0  3  0  0  0  0  0  0
  160.8820  204.6130  145.6870 O   0  0  0  0  0  1  0  0  0  0  0  0
  161.7760  205.5720  146.1820 C   0  0  1  0  0  3  0  0  0  0  0  0
  161.0850  206.9260  146.2260 C   0  0  0  0  0  2  0  0  0  0  0  0
  161.8390  205.5580  147.7180 C   0  0  2  0  0  3  0  0  0  0  0  0
  161.0210  204.5670  148.2840 O   0  0  0  0  0  0  0  0  0  0  0  0
  160.7160  204.8840  150.6690 C   0  0  2  0  0  0  0  0  0  0  0  0
  160.7000  203.3920  150.3830 C   0  0  1  0  0  0  0  0  0  0  0  0
  159.5650  202.9070  149.7170 O   0  0  0  0  0  1  0  0  0  0  0  0
  159.6220  205.6210  150.2340 F   0  0  0  0  0  0  0  0  0  0  0  0
  161.5900  204.3160  149.5430 C   0  0  1  0  0  3  0  0  0  0  0  0
  160.9860  206.2350  152.7030 C   0  0  0  0  0  3  0  0  0  0  0  0
  161.5210  205.4030  151.8180 C   0  0  0  0  0  3  0  0  0  0  0  0
  161.7600  206.7150  153.7580 O   0  0  0  0  0  0  0  0  0  0  0  0
  160.8180  208.8030  154.0670 O   0  0  0  0  0  0  0  0  0  0  0  0
  161.4920  207.6790  155.9440 O   0  0  0  0  0  1  0  0  0  0  0  0
  161.3380  207.7690  154.5670 C   0  0  0  0  0  0  0  0  0  0  0  0
  161.4750  202.4270  151.2740 C   0  0  0  0  0  2  0  0  0  0  0  0
  161.2460  200.9920  150.8320 C   0  0  0  0  0  2  0  0  0  0  0  0
  161.4120  200.9060  149.4540 O   0  0  0  0  0  1  0  0  0  0  0  0
  3 26  1  6  0  0  0
  3  7  1  0  0  0  0
  3  5  1  0  0  0  0
  4  2  1  6  0  0  0
  4  1  1  0  0  0  0
  5 10  1  0  0  0  0
  5  4  1  0  0  0  0
  7  6  1  6  0  0  0
  7  8  1  0  0  0  0
  8 30  1  1  0  0  0
  8  1  1  0  0  0  0
  9 14  1  0  0  0  0
  9 11  1  0  0  0  0
 10  9  2  0  0  0  0
 11 13  1  1  0  0  0
 11 12  1  0  0  0  0
 12 16  2  0  0  0  0
 14 15  1  0  0  0  0
 15 12  1  0  0  0  0
 16 17  1  0  0  0  0
 17 20  1  0  0  0  0
 18 19  1  0  0  0  0
 18 22  1  0  0  0  0
 20 18  2  0  0  0  0
 20 19  1  0  0  0  0
 21 22  1  0  0  0  0
 22 23  1  0  0  0  0
 24 25  1  0  0  0  0
 25 26  1  0  0  0  0
 26 27  2  0  0  0  0
 28 25  1  0  0  0  0
 30 29  1  1  0  0  0
 31 30  1  0  0  0  0
 31 32  1  1  0  0  0
 33 31  1  0  0  0  0
 34 33  2  0  0  0  0
 35 33  1  6  0  0  0
 37 36  1  1  0  0  0
 37 38  1  0  0  0  0
 37 39  1  0  0  0  0
 38 35  1  0  0  0  0
 39 35  1  0  0  0  0
 39 40  1  1  0  0  0
 41 44  1  6  0  0  0
 41 47  1  0  0  0  0
 42 43  1  6  0  0  0
 42 41  1  0  0  0  0
 42 52  1  0  0  0  0
 45 40  1  6  0  0  0
 45 42  1  0  0  0  0
 45 41  1  0  0  0  0
 46 48  1  0  0  0  0
 47 46  2  0  0  0  0
 48 51  1  0  0  0  0
 49 51  2  0  0  0  0
 51 50  1  0  0  0  0
 53 52  1  0  0  0  0
 54 53  1  0  0  0  0
M  END
>  <MODEL>
2

>  <REMARK>
 VINA RESULT:      -5.4      3.918     10.973
  Name = 
  16 active torsions:
  status: ('A' for Active; 'I' for Inactive)
    1  A    between atoms: O_1  and  C_31
    2  A    between atoms: O_1  and  C_48
    3  A    between atoms: C_2  and  C_15
    4  A    between atoms: C_2  and  C_45
    5  A    between atoms: C_6  and  C_37
    6  A    between atoms: C_7  and  C_36
    7  A    between atoms: N_11  and  N_41
    8  A    between atoms: C_13  and  C_21
    9  A    between atoms: C_13  and  C_54
   10  A    between atoms: C_14  and  C_43
   11  A    between atoms: C_15  and  C_20
   12  A    between atoms: C_17  and  C_43
   13  A    between atoms: C_23  and  C_26
   14  A    between atoms: O_29  and  C_47
   15  A    between atoms: O_29  and  C_53
   16  A    between atoms: C_45  and  C_52
                            x       y       z     vdW  Elec       q    Type
                         _______ _______ _______ _____ _____    ______ ____

>  <TORSDO>
F 16

$$$$
=
 OpenBabel11072410333D

 54 58  0  0  1  0  0  0  0  0999 V2000
  161.1210  208.0250  149.5730 O   0  0  0  0  0  0  0  0  0  0  0  0
  163.1290  207.6850  148.4500 O   0  0  0  0  0  1  0  0  0  0  0  0
  161.8010  205.2330  149.5280 C   0  0  1  0  0  3  0  0  0  0  0  0
  161.7430  207.4610  148.4330 C   0  0  1  0  0  3  0  0  0  0  0  0
  161.4520  206.0240  148.3460 N   0  0  0  0  0  0  0  0  0  0  0  0
  161.7970  205.3050  151.8990 F   0  0  0  0  0  0  0  0  0  0  0  0
  161.2300  205.8950  150.7810 C   0  0  1  0  0  3  0  0  0  0  0  0
  161.6120  207.3830  150.7410 C   0  0  2  0  0  3  0  0  0  0  0  0
  160.7080  205.4900  146.1210 C   0  0  0  0  0  0  0  0  0  0  0  0
  160.5210  205.5260  147.4080 N   0  0  0  0  0  0  0  0  0  0  0  0
  161.9490  205.8970  145.3830 C   0  0  2  0  0  3  0  0  0  0  0  0
  161.4790  205.6500  143.9830 C   0  0  0  0  0  0  0  0  0  0  0  0
  163.0790  204.9360  145.7160 C   0  0  0  0  0  1  0  0  0  0  0  0
  159.7350  205.0270  145.2490 O   0  0  0  0  0  0  0  0  0  0  0  0
  160.1630  205.1080  143.9490 N   0  0  0  0  0  2  0  0  0  0  0  0
  162.1890  205.9270  142.8930 C   0  0  0  0  0  3  0  0  0  0  0  0
  161.6610  205.6660  141.5220 C   0  0  0  0  0  2  0  0  0  0  0  0
  161.8430  207.6130  139.5900 C   0  0  0  0  0  0  0  0  0  0  0  0
  163.0990  207.5790  140.1450 O   0  0  0  0  0  0  0  0  0  0  0  0
  162.1080  206.7430  140.5970 C   0  0  0  0  0  0  0  0  0  0  0  0
  161.4160  208.0100  137.2070 C   0  0  0  0  0  1  0  0  0  0  0  0
  160.8840  208.1970  138.6130 C   0  0  0  0  0  3  0  0  0  0  0  0
  160.7050  209.6770  138.8920 C   0  0  0  0  0  1  0  0  0  0  0  0
  160.2620  203.8430  151.6330 C   0  0  0  0  0  1  0  0  0  0  0  0
  160.6940  203.1220  150.4420 N   0  0  0  0  0  0  0  0  0  0  0  0
  161.4260  203.7800  149.3980 C   0  0  0  0  0  0  0  0  0  0  0  0
  161.7950  203.1290  148.3840 O   0  0  0  0  0  0  0  0  0  0  0  0
  160.3720  201.7060  150.3400 C   0  0  0  0  0  1  0  0  0  0  0  0
  161.8860  207.6720  153.1080 O   0  0  0  0  0  1  0  0  0  0  0  0
  161.1460  208.1060  152.0040 C   0  0  1  0  0  3  0  0  0  0  0  0
  161.1750  209.6320  151.8740 C   0  0  2  0  0  3  0  0  0  0  0  0
  162.4630  210.1360  152.0920 O   0  0  0  0  0  1  0  0  0  0  0  0
  160.2050  210.2740  152.8170 C   0  0  0  0  0  0  0  0  0  0  0  0
  159.6100  209.5970  153.6450 O   0  0  0  0  0  0  0  0  0  0  0  0
  159.9880  211.7600  152.7280 C   0  0  1  0  0  3  0  0  0  0  0  0
  158.6000  214.0410  151.1780 O   0  0  0  0  0  1  0  0  0  0  0  0
  158.7190  212.6450  151.2240 C   0  0  1  0  0  3  0  0  0  0  0  0
  160.1910  212.2700  151.3030 C   0  0  0  0  0  2  0  0  0  0  0  0
  158.5060  212.0990  152.6450 C   0  0  2  0  0  3  0  0  0  0  0  0
  158.2030  213.1080  153.5720 O   0  0  0  0  0  0  0  0  0  0  0  0
  159.0470  213.3070  155.8380 C   0  0  2  0  0  0  0  0  0  0  0  0
  157.5290  213.2790  155.8980 C   0  0  1  0  0  0  0  0  0  0  0  0
  156.8750  214.4270  155.4240 O   0  0  0  0  0  1  0  0  0  0  0  0
  159.6360  214.4490  155.3100 F   0  0  0  0  0  0  0  0  0  0  0  0
  158.2610  212.4680  154.8220 C   0  0  1  0  0  3  0  0  0  0  0  0
  160.6670  211.5320  156.3500 C   0  0  0  0  0  3  0  0  0  0  0  0
  159.8350  212.4670  156.7920 C   0  0  0  0  0  3  0  0  0  0  0  0
  161.3810  210.7550  157.2590 O   0  0  0  0  0  0  0  0  0  0  0  0
  163.5530  209.9640  157.2480 O   0  0  0  0  0  1  0  0  0  0  0  0
  162.0210  208.8090  156.0000 O   0  0  0  0  0  0  0  0  0  0  0  0
  162.3610  209.8500  156.8520 C   0  0  0  0  0  0  0  0  0  0  0  0
  156.8130  212.4240  156.9370 C   0  0  0  0  0  2  0  0  0  0  0  0
  155.3840  212.9040  157.1310 C   0  0  0  0  0  2  0  0  0  0  0  0
  154.5280  211.8080  157.1100 O   0  0  0  0  0  1  0  0  0  0  0  0
  1  8  1  0  0  0  0
  3 26  1  6  0  0  0
  3  7  1  0  0  0  0
  4  2  1  1  0  0  0
  4  1  1  0  0  0  0
  5  4  1  0  0  0  0
  5  3  1  0  0  0  0
  7  6  1  1  0  0  0
  8  7  1  0  0  0  0
  8 30  1  1  0  0  0
  9 10  2  0  0  0  0
 10  5  1  0  0  0  0
 11 13  1  1  0  0  0
 11  9  1  0  0  0  0
 12 11  1  0  0  0  0
 14  9  1  0  0  0  0
 15 12  1  0  0  0  0
 15 14  1  0  0  0  0
 16 12  2  0  0  0  0
 17 16  1  0  0  0  0
 18 19  1  0  0  0  0
 18 20  2  0  0  0  0
 19 20  1  0  0  0  0
 20 17  1  0  0  0  0
 21 22  1  0  0  0  0
 22 23  1  0  0  0  0
 22 18  1  0  0  0  0
 25 24  1  0  0  0  0
 26 25  1  0  0  0  0
 27 26  2  0  0  0  0
 28 25  1  0  0  0  0
 30 29  1  1  0  0  0
 31 30  1  0  0  0  0
 31 32  1  1  0  0  0
 31 33  1  0  0  0  0
 33 34  2  0  0  0  0
 35 33  1  6  0  0  0
 37 36  1  1  0  0  0
 37 38  1  0  0  0  0
 37 39  1  0  0  0  0
 38 35  1  0  0  0  0
 39 35  1  0  0  0  0
 39 40  1  1  0  0  0
 41 44  1  6  0  0  0
 41 42  1  0  0  0  0
 41 47  1  0  0  0  0
 42 43  1  6  0  0  0
 42 52  1  0  0  0  0
 45 40  1  6  0  0  0
 45 41  1  0  0  0  0
 45 42  1  0  0  0  0
 46 47  2  0  0  0  0
 46 48  1  0  0  0  0
 50 51  2  0  0  0  0
 51 49  1  0  0  0  0
 51 48  1  0  0  0  0
 52 53  1  0  0  0  0
 54 53  1  0  0  0  0
M  END
>  <MODEL>
3

>  <REMARK>
 VINA RESULT:      -4.7      1.650      3.458
  Name = 
  16 active torsions:
  status: ('A' for Active; 'I' for Inactive)
    1  A    between atoms: O_1  and  C_31
    2  A    between atoms: O_1  and  C_48
    3  A    between atoms: C_2  and  C_15
    4  A    between atoms: C_2  and  C_45
    5  A    between atoms: C_6  and  C_37
    6  A    between atoms: C_7  and  C_36
    7  A    between atoms: N_11  and  N_41
    8  A    between atoms: C_13  and  C_21
    9  A    between atoms: C_13  and  C_54
   10  A    between atoms: C_14  and  C_43
   11  A    between atoms: C_15  and  C_20
   12  A    between atoms: C_17  and  C_43
   13  A    between atoms: C_23  and  C_26
   14  A    between atoms: O_29  and  C_47
   15  A    between atoms: O_29  and  C_53
   16  A    between atoms: C_45  and  C_52
                            x       y       z     vdW  Elec       q    Type
                         _______ _______ _______ _____ _____    ______ ____

>  <TORSDO>
F 16

$$$$
=
 OpenBabel11072410333D

 54 58  0  0  1  0  0  0  0  0999 V2000
  160.9370  207.6200  150.5230 O   0  0  0  0  0  0  0  0  0  0  0  0
  162.8320  207.7820  149.1840 O   0  0  0  0  0  1  0  0  0  0  0  0
  161.7900  205.0190  149.6500 C   0  0  1  0  0  3  0  0  0  0  0  0
  161.4690  207.4440  149.2240 C   0  0  1  0  0  3  0  0  0  0  0  0
  161.2660  206.0620  148.7670 N   0  0  0  0  0  0  0  0  0  0  0  0
  162.0340  204.4490  151.9400 F   0  0  0  0  0  0  0  0  0  0  0  0
  161.3130  205.2640  151.0810 C   0  0  1  0  0  3  0  0  0  0  0  0
  161.5900  206.7370  151.4220 C   0  0  2  0  0  3  0  0  0  0  0  0
  160.4620  205.7370  146.5220 C   0  0  0  0  0  0  0  0  0  0  0  0
  160.2750  205.7510  147.8100 N   0  0  0  0  0  0  0  0  0  0  0  0
  161.7550  205.9750  145.8010 C   0  0  2  0  0  3  0  0  0  0  0  0
  161.2620  205.8590  144.3930 C   0  0  0  0  0  0  0  0  0  0  0  0
  162.7210  204.8400  146.0970 C   0  0  0  0  0  1  0  0  0  0  0  0
  159.4350  205.4640  145.6330 O   0  0  0  0  0  0  0  0  0  0  0  0
  159.8780  205.5290  144.3370 N   0  0  0  0  0  2  0  0  0  0  0  0
  162.0120  206.0650  143.3140 C   0  0  0  0  0  3  0  0  0  0  0  0
  161.4590  205.9420  141.9340 C   0  0  0  0  0  2  0  0  0  0  0  0
  162.3210  207.8620  140.1660 C   0  0  0  0  0  0  0  0  0  0  0  0
  163.4250  207.0670  140.3540 O   0  0  0  0  0  0  0  0  0  0  0  0
  162.2440  206.7950  141.0000 C   0  0  0  0  0  0  0  0  0  0  0  0
  161.1670  209.9820  140.6060 C   0  0  0  0  0  1  0  0  0  0  0  0
  161.6830  209.0480  139.5300 C   0  0  0  0  0  3  0  0  0  0  0  0
  160.5290  208.6030  138.6540 C   0  0  0  0  0  1  0  0  0  0  0  0
  159.7800  203.3000  150.9700 C   0  0  0  0  0  1  0  0  0  0  0  0
  160.5320  202.8040  149.8250 N   0  0  0  0  0  0  0  0  0  0  0  0
  161.4990  203.6260  149.1560 C   0  0  0  0  0  0  0  0  0  0  0  0
  162.1420  203.1670  148.1730 O   0  0  0  0  0  0  0  0  0  0  0  0
  160.2840  201.4410  149.3770 C   0  0  0  0  0  1  0  0  0  0  0  0
  162.2450  206.6540  153.7300 O   0  0  0  0  0  1  0  0  0  0  0  0
  161.2150  207.0470  152.8700 C   0  0  1  0  0  3  0  0  0  0  0  0
  160.8250  208.5110  153.0950 C   0  0  2  0  0  3  0  0  0  0  0  0
  161.9020  209.3680  152.8400 O   0  0  0  0  0  1  0  0  0  0  0  0
  160.3120  208.7280  154.4850 C   0  0  0  0  0  0  0  0  0  0  0  0
  160.2170  207.7860  155.2610 O   0  0  0  0  0  0  0  0  0  0  0  0
  159.9260  210.1200  154.9030 C   0  0  1  0  0  3  0  0  0  0  0  0
  160.6470  212.5330  156.6890 O   0  0  0  0  0  1  0  0  0  0  0  0
  161.0940  211.2580  156.3170 C   0  0  1  0  0  3  0  0  0  0  0  0
  159.9400  210.2730  156.4230 C   0  0  0  0  0  2  0  0  0  0  0  0
  161.1040  211.0780  154.7900 C   0  0  2  0  0  3  0  0  0  0  0  0
  160.7030  212.2370  154.1070 O   0  0  0  0  0  0  0  0  0  0  0  0
  158.4590  213.1590  154.0640 C   0  0  2  0  0  0  0  0  0  0  0  0
  158.9130  212.9490  152.6290 C   0  0  1  0  0  0  0  0  0  0  0  0
  159.9060  213.8270  152.1650 O   0  0  0  0  0  1  0  0  0  0  0  0
  159.0750  214.1800  154.7770 F   0  0  0  0  0  0  0  0  0  0  0  0
  159.3770  211.9780  153.7210 C   0  0  1  0  0  3  0  0  0  0  0  0
  156.7410  212.6670  155.7500 C   0  0  0  0  0  3  0  0  0  0  0  0
  157.0870  212.7240  154.4700 C   0  0  0  0  0  3  0  0  0  0  0  0
  155.4610  212.2470  156.1040 O   0  0  0  0  0  0  0  0  0  0  0  0
  155.5070  210.0990  155.2510 O   0  0  0  0  0  0  0  0  0  0  0  0
  154.3010  210.4300  157.1680 O   0  0  0  0  0  1  0  0  0  0  0  0
  155.1060  210.8990  156.1390 C   0  0  0  0  0  0  0  0  0  0  0  0
  157.9720  212.3260  151.6040 C   0  0  0  0  0  2  0  0  0  0  0  0
  157.5940  213.3410  150.5390 C   0  0  0  0  0  2  0  0  0  0  0  0
  156.6110  214.1870  151.0440 O   0  0  0  0  0  1  0  0  0  0  0  0
  1  8  1  0  0  0  0
  3 26  1  6  0  0  0
  3  7  1  0  0  0  0
  4  2  1  1  0  0  0
  4  1  1  0  0  0  0
  5  4  1  0  0  0  0
  5  3  1  0  0  0  0
  7  8  1  0  0  0  0
  7  6  1  1  0  0  0
  8 30  1  1  0  0  0
  9 10  2  0  0  0  0
 10  5  1  0  0  0  0
 11 13  1  1  0  0  0
 11  9  1  0  0  0  0
 12 11  1  0  0  0  0
 14  9  1  0  0  0  0
 15 12  1  0  0  0  0
 15 14  1  0  0  0  0
 16 12  2  0  0  0  0
 17 16  1  0  0  0  0
 18 19  1  0  0  0  0
 18 20  2  0  0  0  0
 19 20  1  0  0  0  0
 20 17  1  0  0  0  0
 22 18  1  0  0  0  0
 22 21  1  0  0  0  0
 23 22  1  0  0  0  0
 25 24  1  0  0  0  0
 26 25  1  0  0  0  0
 27 26  2  0  0  0  0
 28 25  1  0  0  0  0
 30 31  1  0  0  0  0
 30 29  1  1  0  0  0
 31 32  1  1  0  0  0
 31 33  1  0  0  0  0
 33 34  2  0  0  0  0
 35 33  1  1  0  0  0
 35 38  1  0  0  0  0
 37 38  1  0  0  0  0
 37 36  1  6  0  0  0
 39 40  1  6  0  0  0
 39 35  1  0  0  0  0
 39 37  1  0  0  0  0
 41 47  1  0  0  0  0
 41 44  1  1  0  0  0
 42 43  1  6  0  0  0
 42 45  1  0  0  0  0
 42 41  1  0  0  0  0
 45 41  1  0  0  0  0
 45 40  1  1  0  0  0
 46 48  1  0  0  0  0
 47 46  2  0  0  0  0
 48 51  1  0  0  0  0
 49 51  2  0  0  0  0
 51 50  1  0  0  0  0
 52 42  1  0  0  0  0
 53 54  1  0  0  0  0
 53 52  1  0  0  0  0
M  END
>  <MODEL>
4

>  <REMARK>
 VINA RESULT:      -3.8      1.674      3.274
  Name = 
  16 active torsions:
  status: ('A' for Active; 'I' for Inactive)
    1  A    between atoms: O_1  and  C_31
    2  A    between atoms: O_1  and  C_48
    3  A    between atoms: C_2  and  C_15
    4  A    between atoms: C_2  and  C_45
    5  A    between atoms: C_6  and  C_37
    6  A    between atoms: C_7  and  C_36
    7  A    between atoms: N_11  and  N_41
    8  A    between atoms: C_13  and  C_21
    9  A    between atoms: C_13  and  C_54
   10  A    between atoms: C_14  and  C_43
   11  A    between atoms: C_15  and  C_20
   12  A    between atoms: C_17  and  C_43
   13  A    between atoms: C_23  and  C_26
   14  A    between atoms: O_29  and  C_47
   15  A    between atoms: O_29  and  C_53
   16  A    between atoms: C_45  and  C_52
                            x       y       z     vdW  Elec       q    Type
                         _______ _______ _______ _____ _____    ______ ____

>  <TORSDO>
F 16

$$$$
=
 OpenBabel11072410333D

 54 58  0  0  1  0  0  0  0  0999 V2000
  162.4410  210.6310  150.6450 O   0  0  0  0  0  0  0  0  0  0  0  0
  161.5880  209.5810  148.7520 O   0  0  0  0  0  1  0  0  0  0  0  0
  160.1220  212.0200  149.6690 C   0  0  1  0  0  3  0  0  0  0  0  0
  162.2080  210.7380  149.2530 C   0  0  1  0  0  3  0  0  0  0  0  0
  161.3980  211.9270  148.9560 N   0  0  0  0  0  0  0  0  0  0  0  0
  159.1190  211.6030  151.7780 F   0  0  0  0  0  0  0  0  0  0  0  0
  160.3460  211.7920  151.1630 C   0  0  1  0  0  3  0  0  0  0  0  0
  161.1990  210.5230  151.3220 C   0  0  2  0  0  3  0  0  0  0  0  0
  162.1000  213.3120  147.1170 C   0  0  0  0  0  0  0  0  0  0  0  0
  161.9820  213.0830  148.3930 N   0  0  0  0  0  0  0  0  0  0  0  0
  161.5900  212.4500  146.0010 C   0  0  2  0  0  3  0  0  0  0  0  0
  162.0880  213.2530  144.8400 C   0  0  0  0  0  0  0  0  0  0  0  0
  160.0700  212.4540  146.0060 C   0  0  0  0  0  1  0  0  0  0  0  0
  162.7220  214.4490  146.6280 O   0  0  0  0  0  0  0  0  0  0  0  0
  162.7360  214.4500  145.2580 N   0  0  0  0  0  2  0  0  0  0  0  0
  161.9700  212.8860  143.5670 C   0  0  0  0  0  3  0  0  0  0  0  0
  162.4970  213.7270  142.4530 C   0  0  0  0  0  2  0  0  0  0  0  0
  160.6400  213.1380  140.5140 C   0  0  0  0  0  0  0  0  0  0  0  0
  161.8400  213.0920  139.8470 O   0  0  0  0  0  0  0  0  0  0  0  0
  161.7910  213.3860  141.1880 C   0  0  0  0  0  0  0  0  0  0  0  0
  158.6200  213.5620  139.1880 C   0  0  0  0  0  1  0  0  0  0  0  0
  159.1560  213.0250  140.4990 C   0  0  0  0  0  3  0  0  0  0  0  0
  158.5690  213.8210  141.6480 C   0  0  0  0  0  1  0  0  0  0  0  0
  157.3180  211.9600  148.7400 C   0  0  0  0  0  1  0  0  0  0  0  0
  158.0120  213.2320  148.8990 N   0  0  0  0  0  0  0  0  0  0  0  0
  159.3670  213.2880  149.3660 C   0  0  0  0  0  0  0  0  0  0  0  0
  159.9450  214.4010  149.4850 O   0  0  0  0  0  0  0  0  0  0  0  0
  157.2950  214.4530  148.5600 C   0  0  0  0  0  1  0  0  0  0  0  0
  161.5280  211.3450  153.5530 O   0  0  0  0  0  1  0  0  0  0  0  0
  161.4020  210.1770  152.7960 C   0  0  1  0  0  3  0  0  0  0  0  0
  160.3120  209.2580  153.3590 C   0  0  2  0  0  3  0  0  0  0  0  0
  159.9430  209.6440  154.6530 O   0  0  0  0  0  1  0  0  0  0  0  0
  160.7530  207.8280  153.3530 C   0  0  0  0  0  0  0  0  0  0  0  0
  160.2310  207.0180  154.1100 O   0  0  0  0  0  0  0  0  0  0  0  0
  161.8390  207.4110  152.4000 C   0  0  1  0  0  3  0  0  0  0  0  0
  163.2230  205.0310  151.0020 O   0  0  0  0  0  1  0  0  0  0  0  0
  162.1640  205.3460  151.8640 C   0  0  1  0  0  3  0  0  0  0  0  0
  162.6710  206.2620  152.9670 C   0  0  0  0  0  2  0  0  0  0  0  0
  161.2980  206.4910  151.3140 C   0  0  2  0  0  3  0  0  0  0  0  0
  161.7340  206.9420  150.0570 O   0  0  0  0  0  0  0  0  0  0  0  0
  160.6440  205.4060  148.5280 C   0  0  2  0  0  0  0  0  0  0  0  0
  161.8130  206.0490  147.8020 C   0  0  1  0  0  0  0  0  0  0  0  0
  161.6590  207.4030  147.4660 O   0  0  0  0  0  1  0  0  0  0  0  0
  159.5490  206.2170  148.8020 F   0  0  0  0  0  0  0  0  0  0  0  0
  161.9160  205.7690  149.3060 C   0  0  1  0  0  3  0  0  0  0  0  0
  160.0220  203.2220  149.4640 C   0  0  0  0  0  3  0  0  0  0  0  0
  160.4350  203.9290  148.4210 C   0  0  0  0  0  3  0  0  0  0  0  0
  159.8460  201.8450  149.3430 O   0  0  0  0  0  0  0  0  0  0  0  0
  161.4360  200.2980  148.6950 O   0  0  0  0  0  0  0  0  0  0  0  0
  161.2720  200.7430  150.9350 O   0  0  0  0  0  1  0  0  0  0  0  0
  160.8700  200.9400  149.6200 C   0  0  0  0  0  0  0  0  0  0  0  0
  162.7520  205.2020  146.9490 C   0  0  0  0  0  2  0  0  0  0  0  0
  162.0590  204.7570  145.6730 C   0  0  0  0  0  2  0  0  0  0  0  0
  161.8230  203.3870  145.7350 O   0  0  0  0  0  1  0  0  0  0  0  0
  1  8  1  0  0  0  0
  3 26  1  1  0  0  0
  3  7  1  0  0  0  0
  4  2  1  1  0  0  0
  4  1  1  0  0  0  0
  5  4  1  0  0  0  0
  5  3  1  0  0  0  0
  7  8  1  0  0  0  0
  7  6  1  1  0  0  0
  8 30  1  1  0  0  0
  9 10  2  0  0  0  0
 10  5  1  0  0  0  0
 11 13  1  6  0  0  0
 11  9  1  0  0  0  0
 12 15  1  0  0  0  0
 12 11  1  0  0  0  0
 14  9  1  0  0  0  0
 15 14  1  0  0  0  0
 16 12  2  0  0  0  0
 17 16  1  0  0  0  0
 18 20  2  0  0  0  0
 19 18  1  0  0  0  0
 19 20  1  0  0  0  0
 20 17  1  0  0  0  0
 21 22  1  0  0  0  0
 22 18  1  0  0  0  0
 22 23  1  0  0  0  0
 24 25  1  0  0  0  0
 25 26  1  0  0  0  0
 26 27  2  0  0  0  0
 28 25  1  0  0  0  0
 30 31  1  0  0  0  0
 30 29  1  1  0  0  0
 31 32  1  1  0  0  0
 33 31  1  0  0  0  0
 33 34  2  0  0  0  0
 35 38  1  0  0  0  0
 35 33  1  1  0  0  0
 37 36  1  6  0  0  0
 37 38  1  0  0  0  0
 39 40  1  6  0  0  0
 39 37  1  0  0  0  0
 39 35  1  0  0  0  0
 41 44  1  1  0  0  0
 41 45  1  0  0  0  0
 42 43  1  6  0  0  0
 42 41  1  0  0  0  0
 42 45  1  0  0  0  0
 45 40  1  1  0  0  0
 47 41  1  0  0  0  0
 47 46  2  0  0  0  0
 48 46  1  0  0  0  0
 48 51  1  0  0  0  0
 49 51  2  0  0  0  0
 51 50  1  0  0  0  0
 52 42  1  0  0  0  0
 53 54  1  0  0  0  0
 53 52  1  0  0  0  0
M  END
>  <MODEL>
5

>  <REMARK>
 VINA RESULT:      -2.8      3.639      8.390
  Name = 
  16 active torsions:
  status: ('A' for Active; 'I' for Inactive)
    1  A    between atoms: O_1  and  C_31
    2  A    between atoms: O_1  and  C_48
    3  A    between atoms: C_2  and  C_15
    4  A    between atoms: C_2  and  C_45
    5  A    between atoms: C_6  and  C_37
    6  A    between atoms: C_7  and  C_36
    7  A    between atoms: N_11  and  N_41
    8  A    between atoms: C_13  and  C_21
    9  A    between atoms: C_13  and  C_54
   10  A    between atoms: C_14  and  C_43
   11  A    between atoms: C_15  and  C_20
   12  A    between atoms: C_17  and  C_43
   13  A    between atoms: C_23  and  C_26
   14  A    between atoms: O_29  and  C_47
   15  A    between atoms: O_29  and  C_53
   16  A    between atoms: C_45  and  C_52
                            x       y       z     vdW  Elec       q    Type
                         _______ _______ _______ _____ _____    ______ ____

>  <TORSDO>
F 16

$$$$
=
 OpenBabel11072410333D

 54 58  0  0  1  0  0  0  0  0999 V2000
  160.4300  206.9900  149.6060 O   0  0  0  0  0  0  0  0  0  0  0  0
  162.3660  207.5920  148.4660 O   0  0  0  0  0  1  0  0  0  0  0  0
  161.8790  204.6570  148.7600 C   0  0  1  0  0  3  0  0  0  0  0  0
  161.1050  206.9830  148.3620 C   0  0  1  0  0  3  0  0  0  0  0  0
  161.2340  205.6100  147.8540 N   0  0  0  0  0  0  0  0  0  0  0  0
  162.0220  204.0500  151.0490 F   0  0  0  0  0  0  0  0  0  0  0  0
  161.2320  204.7370  150.1420 C   0  0  1  0  0  3  0  0  0  0  0  0
  161.1660  206.2200  150.5440 C   0  0  2  0  0  3  0  0  0  0  0  0
  160.7020  205.2710  145.5320 C   0  0  0  0  0  0  0  0  0  0  0  0
  160.4220  205.1460  146.7970 N   0  0  0  0  0  0  0  0  0  0  0  0
  161.9500  205.8600  144.9440 C   0  0  2  0  0  3  0  0  0  0  0  0
  161.6050  205.7340  143.4930 C   0  0  0  0  0  0  0  0  0  0  0  0
  163.1360  204.9640  145.2640 C   0  0  0  0  0  1  0  0  0  0  0  0
  159.8400  204.8310  144.5400 O   0  0  0  0  0  0  0  0  0  0  0  0
  160.3500  205.0930  143.2950 N   0  0  0  0  0  2  0  0  0  0  0  0
  162.3630  206.1910  142.4990 C   0  0  0  0  0  3  0  0  0  0  0  0
  161.9600  206.0430  141.0700 C   0  0  0  0  0  2  0  0  0  0  0  0
  161.8500  208.1520  139.3110 C   0  0  0  0  0  0  0  0  0  0  0  0
  161.7870  208.7490  140.5460 O   0  0  0  0  0  0  0  0  0  0  0  0
  161.8810  207.3840  140.4280 C   0  0  0  0  0  0  0  0  0  0  0  0
  160.4620  208.6200  137.3430 C   0  0  0  0  0  1  0  0  0  0  0  0
  161.8540  208.2660  137.8260 C   0  0  0  0  0  3  0  0  0  0  0  0
  162.2810  206.9480  137.2110 C   0  0  0  0  0  1  0  0  0  0  0  0
  160.0920  202.5320  149.7730 C   0  0  0  0  0  1  0  0  0  0  0  0
  161.0640  202.2380  148.7270 N   0  0  0  0  0  0  0  0  0  0  0  0
  161.9290  203.2570  148.2060 C   0  0  0  0  0  0  0  0  0  0  0  0
  162.7660  202.9710  147.3090 O   0  0  0  0  0  0  0  0  0  0  0  0
  161.1430  200.8730  148.2260 C   0  0  0  0  0  1  0  0  0  0  0  0
  160.9200  205.2660  152.7330 O   0  0  0  0  0  1  0  0  0  0  0  0
  160.6040  206.3830  151.9550 C   0  0  1  0  0  3  0  0  0  0  0  0
  161.0430  207.6840  152.6350 C   0  0  2  0  0  3  0  0  0  0  0  0
  162.2440  208.1580  152.0940 O   0  0  0  0  0  1  0  0  0  0  0  0
  161.1810  207.5020  154.1140 C   0  0  0  0  0  0  0  0  0  0  0  0
  161.4980  206.4130  154.5750 O   0  0  0  0  0  0  0  0  0  0  0  0
  160.9300  208.6820  155.0130 C   0  0  1  0  0  3  0  0  0  0  0  0
  161.3870  211.7070  155.4310 O   0  0  0  0  0  1  0  0  0  0  0  0
  161.6230  210.6660  154.5230 C   0  0  1  0  0  3  0  0  0  0  0  0
  162.2100  209.4760  155.2660 C   0  0  0  0  0  2  0  0  0  0  0  0
  160.3480  209.8550  154.2370 C   0  0  2  0  0  3  0  0  0  0  0  0
  159.2260  210.3560  154.9150 O   0  0  0  0  0  0  0  0  0  0  0  0
  158.2060  212.0810  153.5470 C   0  0  2  0  0  0  0  0  0  0  0  0
  157.8900  212.3820  155.0020 C   0  0  1  0  0  0  0  0  0  0  0  0
  156.9730  211.5200  155.6220 O   0  0  0  0  0  1  0  0  0  0  0  0
  157.5720  210.9820  152.9790 F   0  0  0  0  0  0  0  0  0  0  0  0
  159.2310  211.7330  154.6340 C   0  0  1  0  0  3  0  0  0  0  0  0
  158.8220  212.9880  151.3480 C   0  0  0  0  0  3  0  0  0  0  0  0
  158.6670  213.1860  152.6510 C   0  0  0  0  0  3  0  0  0  0  0  0
  159.2650  214.0310  150.5370 O   0  0  0  0  0  0  0  0  0  0  0  0
  158.1050  214.4530  148.5820 O   0  0  0  0  0  1  0  0  0  0  0  0
  160.1540  213.4520  148.3790 O   0  0  0  0  0  0  0  0  0  0  0  0
  159.1350  213.9960  149.1490 C   0  0  0  0  0  0  0  0  0  0  0  0
  158.0180  213.8020  155.5420 C   0  0  0  0  0  2  0  0  0  0  0  0
  158.4850  213.7840  156.9870 C   0  0  0  0  0  2  0  0  0  0  0  0
  159.8570  214.0110  157.0270 O   0  0  0  0  0  1  0  0  0  0  0  0
  1  8  1  0  0  0  0
  3 26  1  6  0  0  0
  3  7  1  0  0  0  0
  4  2  1  1  0  0  0
  4  1  1  0  0  0  0
  5  4  1  0  0  0  0
  5  3  1  0  0  0  0
  7  8  1  0  0  0  0
  7  6  1  1  0  0  0
  8 30  1  1  0  0  0
  9 10  2  0  0  0  0
 10  5  1  0  0  0  0
 11 13  1  6  0  0  0
 11  9  1  0  0  0  0
 12 11  1  0  0  0  0
 14  9  1  0  0  0  0
 15 12  1  0  0  0  0
 15 14  1  0  0  0  0
 16 12  2  0  0  0  0
 17 16  1  0  0  0  0
 18 20  2  0  0  0  0
 18 19  1  0  0  0  0
 20 19  1  0  0  0  0
 20 17  1  0  0  0  0
 21 22  1  0  0  0  0
 22 18  1  0  0  0  0
 23 22  1  0  0  0  0
 25 24  1  0  0  0  0
 26 25  1  0  0  0  0
 27 26  2  0  0  0  0
 28 25  1  0  0  0  0
 30 31  1  0  0  0  0
 30 29  1  1  0  0  0
 31 32  1  6  0  0  0
 31 33  1  0  0  0  0
 33 34  2  0  0  0  0
 35 33  1  6  0  0  0
 35 38  1  0  0  0  0
 37 38  1  0  0  0  0
 37 36  1  1  0  0  0
 39 37  1  0  0  0  0
 39 40  1  1  0  0  0
 39 35  1  0  0  0  0
 41 44  1  6  0  0  0
 41 45  1  0  0  0  0
 41 42  1  0  0  0  0
 42 52  1  0  0  0  0
 42 43  1  1  0  0  0
 45 40  1  1  0  0  0
 45 42  1  0  0  0  0
 46 47  2  0  0  0  0
 47 41  1  0  0  0  0
 48 46  1  0  0  0  0
 49 51  1  0  0  0  0
 50 51  2  0  0  0  0
 51 48  1  0  0  0  0
 52 53  1  0  0  0  0
 53 54  1  0  0  0  0
M  END
>  <MODEL>
6

>  <REMARK>
 VINA RESULT:      -2.8      1.572      2.103
  Name = 
  16 active torsions:
  status: ('A' for Active; 'I' for Inactive)
    1  A    between atoms: O_1  and  C_31
    2  A    between atoms: O_1  and  C_48
    3  A    between atoms: C_2  and  C_15
    4  A    between atoms: C_2  and  C_45
    5  A    between atoms: C_6  and  C_37
    6  A    between atoms: C_7  and  C_36
    7  A    between atoms: N_11  and  N_41
    8  A    between atoms: C_13  and  C_21
    9  A    between atoms: C_13  and  C_54
   10  A    between atoms: C_14  and  C_43
   11  A    between atoms: C_15  and  C_20
   12  A    between atoms: C_17  and  C_43
   13  A    between atoms: C_23  and  C_26
   14  A    between atoms: O_29  and  C_47
   15  A    between atoms: O_29  and  C_53
   16  A    between atoms: C_45  and  C_52
                            x       y       z     vdW  Elec       q    Type
                         _______ _______ _______ _____ _____    ______ ____

>  <TORSDO>
F 16

$$$$
