=
 OpenBabel11072414223D

 26 29  0  0  1  0  0  0  0  0999 V2000
  161.1870  204.9590  145.7170 C   0  0  0  0  0  1  0  0  0  0  0  0
  161.1830  202.0390  147.7820 C   0  0  0  0  0  0  0  0  0  0  0  0
  161.0170  203.9090  146.7570 C   0  0  0  0  0  0  0  0  0  0  0  0
  161.5640  200.6280  148.0640 C   0  0  0  0  0  1  0  0  0  0  0  0
  160.9330  202.9540  148.7360 N   0  0  0  0  0  0  0  0  0  0  0  0
  161.1970  205.2400  148.9710 C   0  0  0  0  0  2  0  0  0  0  0  0
  161.5140  205.3200  151.4380 C   0  0  0  0  0  0  0  0  0  0  0  0
  160.8760  204.1160  148.1080 C   0  0  0  0  0  0  0  0  0  0  0  0
  161.4690  203.1530  150.0640 C   0  0  2  0  0  3  0  0  0  0  0  0
  160.3860  203.3340  152.2460 N   0  0  0  0  0  0  0  0  0  0  0  0
  161.2170  202.5860  146.5400 N   0  0  0  0  0  0  0  0  0  0  0  0
  160.9600  204.6450  152.4530 C   0  0  0  0  0  3  0  0  0  0  0  0
  160.5550  202.6480  151.1460 C   0  0  0  0  0  3  0  0  0  0  0  0
  161.5240  204.6580  150.1310 C   0  0  1  0  0  3  0  0  0  0  0  0
  162.1700  206.9690  151.6990 S   0  0  0  0  0  0  0  0  0  0  0  0
  161.0930  210.2040  156.2560 O   0  0  0  0  0  1  0  0  0  0  0  0
  160.1560  209.2920  152.0740 F   0  0  0  0  0  0  0  0  0  0  0  0
  160.0780  209.5320  155.5640 C   0  0  1  0  0  3  0  0  0  0  0  0
  161.6100  207.0330  153.4050 C   0  0  0  0  0  3  0  0  0  0  0  0
  162.1190  210.1340  153.1300 C   0  0  0  0  0  1  0  0  0  0  0  0
  160.7730  209.4260  153.3030 C   0  0  1  0  0  0  0  0  0  0  0  0
  159.8610  210.1190  154.2300 N   0  0  0  0  0  0  0  0  0  0  0  0
  160.5120  208.0920  155.3430 C   0  0  0  0  0  2  0  0  0  0  0  0
  160.9960  208.0950  153.9440 C   0  0  0  0  0  0  0  0  0  0  0  0
  159.9730  211.5800  154.2150 C   0  0  0  0  0  2  0  0  0  0  0  0
  159.0910  212.1100  153.2740 O   0  0  0  0  0  1  0  0  0  0  0  0
  1  3  1  0  0  0  0
  2  4  1  0  0  0  0
  2  5  1  0  0  0  0
  3  8  2  0  0  0  0
  5  9  1  0  0  0  0
  7 15  1  0  0  0  0
  7 12  2  0  0  0  0
  8  5  1  0  0  0  0
  8  6  1  0  0  0  0
  9 14  1  0  0  0  0
  9 13  1  1  0  0  0
 10 12  1  0  0  0  0
 11  3  1  0  0  0  0
 11  2  2  0  0  0  0
 13 10  2  0  0  0  0
 14  6  1  6  0  0  0
 14  7  1  0  0  0  0
 15 19  1  0  0  0  0
 17 21  1  0  0  0  0
 18 16  1  6  0  0  0
 19 24  2  0  0  0  0
 21 20  1  6  0  0  0
 21 24  1  0  0  0  0
 21 22  1  0  0  0  0
 22 18  1  0  0  0  0
 23 18  1  0  0  0  0
 24 23  1  0  0  0  0
 25 22  1  0  0  0  0
 26 25  1  0  0  0  0
M  END
>  <MODEL>
1

>  <REMARK>
 VINA RESULT:      -7.5      0.000      0.000
  Name = 
  3 active torsions:
  status: ('A' for Active; 'I' for Inactive)
    1  A    between atoms: C_3  and  N_23
    2  A    between atoms: C_10  and  S_19
    3  A    between atoms: C_13  and  S_19
                            x       y       z     vdW  Elec       q    Type
                         _______ _______ _______ _____ _____    ______ ____

>  <TORSDO>
F 3

$$$$
=
 OpenBabel11072414223D

 26 29  0  0  1  0  0  0  0  0999 V2000
  160.9590  203.3570  152.0110 C   0  0  0  0  0  1  0  0  0  0  0  0
  161.2820  205.9680  149.5900 C   0  0  0  0  0  0  0  0  0  0  0  0
  161.2660  204.5720  151.2090 C   0  0  0  0  0  0  0  0  0  0  0  0
  161.0010  206.5670  148.2560 C   0  0  0  0  0  1  0  0  0  0  0  0
  161.5580  206.6880  150.6930 N   0  0  0  0  0  0  0  0  0  0  0  0
  161.1910  206.4720  152.9660 C   0  0  0  0  0  2  0  0  0  0  0  0
  161.0660  208.8890  153.5480 C   0  0  0  0  0  0  0  0  0  0  0  0
  161.5020  205.8330  151.6980 C   0  0  0  0  0  0  0  0  0  0  0  0
  161.1180  207.9900  151.1450 C   0  0  2  0  0  3  0  0  0  0  0  0
  162.3580  209.9840  151.8170 N   0  0  0  0  0  0  0  0  0  0  0  0
  161.1210  204.6490  149.8640 N   0  0  0  0  0  0  0  0  0  0  0  0
  161.7340  209.9670  153.1200 C   0  0  0  0  0  3  0  0  0  0  0  0
  162.1400  209.0670  150.9110 C   0  0  0  0  0  3  0  0  0  0  0  0
  160.9880  207.7510  152.6270 C   0  0  1  0  0  3  0  0  0  0  0  0
  160.3450  208.8620  155.1900 S   0  0  0  0  0  0  0  0  0  0  0  0
  158.8350  214.2370  154.0850 O   0  0  0  0  0  1  0  0  0  0  0  0
  157.6940  210.3560  155.7680 F   0  0  0  0  0  0  0  0  0  0  0  0
  158.7140  213.6780  155.3630 C   0  0  1  0  0  3  0  0  0  0  0  0
  160.6670  210.6080  155.4710 C   0  0  0  0  0  3  0  0  0  0  0  0
  158.2060  211.0520  153.5470 C   0  0  0  0  0  1  0  0  0  0  0  0
  158.2850  211.3720  155.0430 C   0  0  1  0  0  0  0  0  0  0  0  0
  157.6550  212.6550  155.4020 N   0  0  0  0  0  0  0  0  0  0  0  0
  160.0160  212.9740  155.7100 C   0  0  0  0  0  2  0  0  0  0  0  0
  159.7170  211.5520  155.4320 C   0  0  0  0  0  0  0  0  0  0  0  0
  156.4830  213.0030  154.5940 C   0  0  0  0  0  2  0  0  0  0  0  0
  155.4240  213.3560  155.4310 O   0  0  0  0  0  1  0  0  0  0  0  0
  2 11  2  0  0  0  0
  2  5  1  0  0  0  0
  3  8  2  0  0  0  0
  3  1  1  0  0  0  0
  4  2  1  0  0  0  0
  5  9  1  0  0  0  0
  5  8  1  0  0  0  0
  7 15  1  0  0  0  0
  8  6  1  0  0  0  0
  9 13  1  1  0  0  0
  9 14  1  0  0  0  0
 10 12  1  0  0  0  0
 11  3  1  0  0  0  0
 12  7  2  0  0  0  0
 13 10  2  0  0  0  0
 14  6  1  1  0  0  0
 14  7  1  0  0  0  0
 15 19  1  0  0  0  0
 18 16  1  6  0  0  0
 18 22  1  0  0  0  0
 18 23  1  0  0  0  0
 21 20  1  6  0  0  0
 21 22  1  0  0  0  0
 21 24  1  0  0  0  0
 21 17  1  0  0  0  0
 24 19  2  0  0  0  0
 24 23  1  0  0  0  0
 25 22  1  0  0  0  0
 25 26  1  0  0  0  0
M  END
>  <MODEL>
2

>  <REMARK>
 VINA RESULT:      -7.3      2.737      4.734
  Name = 
  3 active torsions:
  status: ('A' for Active; 'I' for Inactive)
    1  A    between atoms: C_3  and  N_23
    2  A    between atoms: C_10  and  S_19
    3  A    between atoms: C_13  and  S_19
                            x       y       z     vdW  Elec       q    Type
                         _______ _______ _______ _____ _____    ______ ____

>  <TORSDO>
F 3

$$$$
=
 OpenBabel11072414223D

 26 29  0  0  1  0  0  0  0  0999 V2000
  160.8340  205.8250  147.5400 C   0  0  0  0  0  1  0  0  0  0  0  0
  161.2140  203.8880  150.5210 C   0  0  0  0  0  0  0  0  0  0  0  0
  160.8290  205.2330  148.9050 C   0  0  0  0  0  0  0  0  0  0  0  0
  161.7180  202.6980  151.2610 C   0  0  0  0  0  1  0  0  0  0  0  0
  160.9810  205.0830  151.0920 N   0  0  0  0  0  0  0  0  0  0  0  0
  161.1010  207.2990  150.4420 C   0  0  0  0  0  2  0  0  0  0  0  0
  161.6200  208.3050  152.6590 C   0  0  0  0  0  0  0  0  0  0  0  0
  160.7890  205.9240  150.0910 C   0  0  0  0  0  0  0  0  0  0  0  0
  161.6130  205.7810  152.1900 C   0  0  2  0  0  3  0  0  0  0  0  0
  160.7100  206.7250  154.2540 N   0  0  0  0  0  0  0  0  0  0  0  0
  161.1030  203.9330  149.1690 N   0  0  0  0  0  0  0  0  0  0  0  0
  161.2040  208.0370  153.9030 C   0  0  0  0  0  3  0  0  0  0  0  0
  160.8330  205.6850  153.4720 C   0  0  0  0  0  3  0  0  0  0  0  0
  161.5660  207.2030  151.6930 C   0  0  1  0  0  3  0  0  0  0  0  0
  162.1770  209.9530  152.2240 S   0  0  0  0  0  0  0  0  0  0  0  0
  159.3110  213.7980  155.2900 O   0  0  0  0  0  1  0  0  0  0  0  0
  159.1270  210.3880  152.5440 F   0  0  0  0  0  0  0  0  0  0  0  0
  159.0520  212.4250  155.3880 C   0  0  1  0  0  3  0  0  0  0  0  0
  161.8140  210.6160  153.8550 C   0  0  0  0  0  3  0  0  0  0  0  0
  159.9420  212.6130  152.2860 C   0  0  0  0  0  1  0  0  0  0  0  0
  159.5150  211.5070  153.2560 C   0  0  1  0  0  0  0  0  0  0  0  0
  158.4230  211.9100  154.1590 N   0  0  0  0  0  0  0  0  0  0  0  0
  160.3750  211.6920  155.5430 C   0  0  0  0  0  2  0  0  0  0  0  0
  160.6490  211.1960  154.1770 C   0  0  0  0  0  0  0  0  0  0  0  0
  157.4570  212.8410  153.5690 C   0  0  0  0  0  2  0  0  0  0  0  0
  156.2480  212.7640  154.2590 O   0  0  0  0  0  1  0  0  0  0  0  0
  1  3  1  0  0  0  0
  2  5  1  0  0  0  0
  2  4  1  0  0  0  0
  3 11  1  0  0  0  0
  3  8  2  0  0  0  0
  5  9  1  0  0  0  0
  7 12  2  0  0  0  0
  8  6  1  0  0  0  0
  8  5  1  0  0  0  0
  9 13  1  1  0  0  0
 11  2  2  0  0  0  0
 12 10  1  0  0  0  0
 13 10  2  0  0  0  0
 14  6  1  1  0  0  0
 14  9  1  0  0  0  0
 14  7  1  0  0  0  0
 15  7  1  0  0  0  0
 15 19  1  0  0  0  0
 17 21  1  0  0  0  0
 18 16  1  6  0  0  0
 18 23  1  0  0  0  0
 19 24  2  0  0  0  0
 21 20  1  6  0  0  0
 21 22  1  0  0  0  0
 21 24  1  0  0  0  0
 22 18  1  0  0  0  0
 24 23  1  0  0  0  0
 25 22  1  0  0  0  0
 25 26  1  0  0  0  0
M  END
>  <MODEL>
3

>  <REMARK>
 VINA RESULT:      -7.3      2.055      3.150
  Name = 
  3 active torsions:
  status: ('A' for Active; 'I' for Inactive)
    1  A    between atoms: C_3  and  N_23
    2  A    between atoms: C_10  and  S_19
    3  A    between atoms: C_13  and  S_19
                            x       y       z     vdW  Elec       q    Type
                         _______ _______ _______ _____ _____    ______ ____

>  <TORSDO>
F 3

$$$$
=
 OpenBabel11072414223D

 26 29  0  0  1  0  0  0  0  0999 V2000
  160.0800  212.1610  153.0040 C   0  0  0  0  0  1  0  0  0  0  0  0
  160.2110  209.2920  155.1330 C   0  0  0  0  0  0  0  0  0  0  0  0
  160.3710  210.8950  153.7270 C   0  0  0  0  0  0  0  0  0  0  0  0
  159.7070  208.4750  156.2710 C   0  0  0  0  0  1  0  0  0  0  0  0
  160.8680  208.7820  154.0760 N   0  0  0  0  0  0  0  0  0  0  0  0
  161.0520  209.2750  151.8240 C   0  0  0  0  0  2  0  0  0  0  0  0
  161.4750  206.9730  150.9780 C   0  0  0  0  0  0  0  0  0  0  0  0
  160.9270  209.7590  153.1890 C   0  0  0  0  0  0  0  0  0  0  0  0
  160.7750  207.5130  153.3870 C   0  0  2  0  0  3  0  0  0  0  0  0
  162.4540  205.8170  152.8680 N   0  0  0  0  0  0  0  0  0  0  0  0
  159.9090  210.6050  154.9670 N   0  0  0  0  0  0  0  0  0  0  0  0
  162.1820  205.9410  151.4540 C   0  0  0  0  0  3  0  0  0  0  0  0
  161.8690  206.5560  153.7730 C   0  0  0  0  0  3  0  0  0  0  0  0
  160.9830  207.9450  151.9590 C   0  0  1  0  0  3  0  0  0  0  0  0
  161.1930  207.1430  149.2150 S   0  0  0  0  0  0  0  0  0  0  0  0
  160.2060  202.8230  145.6430 O   0  0  0  0  0  1  0  0  0  0  0  0
  162.3240  206.5860  146.3850 F   0  0  0  0  0  0  0  0  0  0  0  0
  161.5030  203.2060  146.0070 C   0  0  1  0  0  3  0  0  0  0  0  0
  161.2920  205.3720  148.9260 C   0  0  0  0  0  3  0  0  0  0  0  0
  160.0120  206.0710  146.1280 C   0  0  0  0  0  1  0  0  0  0  0  0
  161.4220  205.5390  146.3970 C   0  0  1  0  0  0  0  0  0  0  0  0
  161.8560  204.5150  145.4310 N   0  0  0  0  0  0  0  0  0  0  0  0
  161.5560  203.3640  147.5180 C   0  0  0  0  0  2  0  0  0  0  0  0
  161.4370  204.8260  147.7100 C   0  0  0  0  0  0  0  0  0  0  0  0
  161.3440  204.7060  144.0710 C   0  0  0  0  0  2  0  0  0  0  0  0
  161.9450  205.8250  143.4960 O   0  0  0  0  0  1  0  0  0  0  0  0
  1  3  1  0  0  0  0
  2  4  1  0  0  0  0
  3 11  1  0  0  0  0
  5  2  1  0  0  0  0
  6  8  1  0  0  0  0
  7 12  2  0  0  0  0
  7 14  1  0  0  0  0
  8  3  2  0  0  0  0
  8  5  1  0  0  0  0
  9 13  1  1  0  0  0
  9  5  1  0  0  0  0
 10 13  2  0  0  0  0
 11  2  2  0  0  0  0
 12 10  1  0  0  0  0
 14  6  1  1  0  0  0
 14  9  1  0  0  0  0
 15  7  1  0  0  0  0
 17 21  1  0  0  0  0
 18 16  1  1  0  0  0
 18 23  1  0  0  0  0
 19 15  1  0  0  0  0
 21 20  1  6  0  0  0
 21 24  1  0  0  0  0
 22 18  1  0  0  0  0
 22 21  1  0  0  0  0
 23 24  1  0  0  0  0
 24 19  2  0  0  0  0
 25 22  1  0  0  0  0
 26 25  1  0  0  0  0
M  END
>  <MODEL>
4

>  <REMARK>
 VINA RESULT:      -6.9      4.106      8.467
  Name = 
  3 active torsions:
  status: ('A' for Active; 'I' for Inactive)
    1  A    between atoms: C_3  and  N_23
    2  A    between atoms: C_10  and  S_19
    3  A    between atoms: C_13  and  S_19
                            x       y       z     vdW  Elec       q    Type
                         _______ _______ _______ _____ _____    ______ ____

>  <TORSDO>
F 3

$$$$
=
 OpenBabel11072414223D

 26 29  0  0  1  0  0  0  0  0999 V2000
  160.9150  202.8020  150.4360 C   0  0  0  0  0  1  0  0  0  0  0  0
  161.1470  205.0960  147.7040 C   0  0  0  0  0  0  0  0  0  0  0  0
  161.2030  203.9000  149.4750 C   0  0  0  0  0  0  0  0  0  0  0  0
  160.7890  205.5460  146.3300 C   0  0  0  0  0  1  0  0  0  0  0  0
  161.5270  205.9280  148.6910 N   0  0  0  0  0  0  0  0  0  0  0  0
  161.3210  205.9940  150.9930 C   0  0  0  0  0  2  0  0  0  0  0  0
  161.3200  208.4660  151.2900 C   0  0  0  0  0  0  0  0  0  0  0  0
  161.5170  205.1990  149.7930 C   0  0  0  0  0  0  0  0  0  0  0  0
  161.1650  207.2900  149.0130 C   0  0  2  0  0  3  0  0  0  0  0  0
  162.5180  209.2960  149.3540 N   0  0  0  0  0  0  0  0  0  0  0  0
  160.9620  203.8260  148.1440 N   0  0  0  0  0  0  0  0  0  0  0  0
  161.9900  209.4580  150.6900 C   0  0  0  0  0  3  0  0  0  0  0  0
  162.2030  208.2890  148.5820 C   0  0  0  0  0  3  0  0  0  0  0  0
  161.1360  207.2320  150.5190 C   0  0  1  0  0  3  0  0  0  0  0  0
  160.7210  208.6620  152.9690 S   0  0  0  0  0  0  0  0  0  0  0  0
  157.8460  213.1310  155.0070 O   0  0  0  0  0  1  0  0  0  0  0  0
  161.4770  210.6850  155.1880 F   0  0  0  0  0  0  0  0  0  0  0  0
  159.1690  213.2380  154.5590 C   0  0  1  0  0  3  0  0  0  0  0  0
  159.9790  210.2620  152.6250 C   0  0  0  0  0  3  0  0  0  0  0  0
  159.1950  210.2070  155.6810 C   0  0  0  0  0  1  0  0  0  0  0  0
  160.1890  211.1480  154.9940 C   0  0  1  0  0  0  0  0  0  0  0  0
  160.0990  212.5410  155.4640 N   0  0  0  0  0  0  0  0  0  0  0  0
  159.2800  212.5550  153.2060 C   0  0  0  0  0  2  0  0  0  0  0  0
  159.8590  211.2350  153.5400 C   0  0  0  0  0  0  0  0  0  0  0  0
  159.7450  212.6830  156.8790 C   0  0  0  0  0  2  0  0  0  0  0  0
  159.7740  214.0310  157.2380 O   0  0  0  0  0  1  0  0  0  0  0  0
  2 11  2  0  0  0  0
  2  5  1  0  0  0  0
  3  8  2  0  0  0  0
  3  1  1  0  0  0  0
  4  2  1  0  0  0  0
  5  9  1  0  0  0  0
  5  8  1  0  0  0  0
  7 15  1  0  0  0  0
  8  6  1  0  0  0  0
  9 13  1  1  0  0  0
  9 14  1  0  0  0  0
 10 12  1  0  0  0  0
 11  3  1  0  0  0  0
 12  7  2  0  0  0  0
 13 10  2  0  0  0  0
 14  6  1  1  0  0  0
 14  7  1  0  0  0  0
 18 16  1  1  0  0  0
 18 22  1  0  0  0  0
 19 15  1  0  0  0  0
 19 24  2  0  0  0  0
 21 17  1  0  0  0  0
 21 22  1  0  0  0  0
 21 20  1  1  0  0  0
 22 25  1  0  0  0  0
 23 24  1  0  0  0  0
 23 18  1  0  0  0  0
 24 21  1  0  0  0  0
 25 26  1  0  0  0  0
M  END
>  <MODEL>
5

>  <REMARK>
 VINA RESULT:      -6.9      2.375      3.972
  Name = 
  3 active torsions:
  status: ('A' for Active; 'I' for Inactive)
    1  A    between atoms: C_3  and  N_23
    2  A    between atoms: C_10  and  S_19
    3  A    between atoms: C_13  and  S_19
                            x       y       z     vdW  Elec       q    Type
                         _______ _______ _______ _____ _____    ______ ____

>  <TORSDO>
F 3

$$$$
=
 OpenBabel11072414223D

 26 29  0  0  1  0  0  0  0  0999 V2000
  160.7590  202.9000  152.4380 C   0  0  0  0  0  1  0  0  0  0  0  0
  161.0290  203.3620  148.9030 C   0  0  0  0  0  0  0  0  0  0  0  0
  161.0750  203.2960  151.0400 C   0  0  0  0  0  0  0  0  0  0  0  0
  160.6530  203.0290  147.5010 C   0  0  0  0  0  1  0  0  0  0  0  0
  161.4810  204.5670  149.2930 N   0  0  0  0  0  0  0  0  0  0  0  0
  161.3480  205.8650  151.2020 C   0  0  0  0  0  2  0  0  0  0  0  0
  161.4860  208.1080  150.1310 C   0  0  0  0  0  0  0  0  0  0  0  0
  161.4660  204.5420  150.6140 C   0  0  0  0  0  0  0  0  0  0  0  0
  161.2010  205.9100  148.8360 C   0  0  2  0  0  3  0  0  0  0  0  0
  162.6670  207.7020  148.0550 N   0  0  0  0  0  0  0  0  0  0  0  0
  160.7910  202.5370  149.9540 N   0  0  0  0  0  0  0  0  0  0  0  0
  162.1890  208.5840  149.0960 C   0  0  0  0  0  3  0  0  0  0  0  0
  162.2770  206.4600  147.9400 C   0  0  0  0  0  3  0  0  0  0  0  0
  161.2150  206.6670  150.1390 C   0  0  1  0  0  3  0  0  0  0  0  0
  160.9490  209.2060  151.4430 S   0  0  0  0  0  0  0  0  0  0  0  0
  161.9050  207.9450  156.9110 O   0  0  0  0  0  1  0  0  0  0  0  0
  159.4270  210.0800  153.9960 F   0  0  0  0  0  0  0  0  0  0  0  0
  160.6520  207.7630  156.3130 C   0  0  1  0  0  3  0  0  0  0  0  0
  161.0600  207.9250  152.6990 C   0  0  0  0  0  3  0  0  0  0  0  0
  161.7070  210.3230  154.6450 C   0  0  0  0  0  1  0  0  0  0  0  0
  160.4590  209.4350  154.6490 C   0  0  1  0  0  0  0  0  0  0  0  0
  160.0150  209.0540  156.0010 N   0  0  0  0  0  0  0  0  0  0  0  0
  160.8450  207.0390  154.9900 C   0  0  0  0  0  2  0  0  0  0  0  0
  160.7820  208.1310  153.9950 C   0  0  0  0  0  0  0  0  0  0  0  0
  160.2440  210.0760  157.0260 C   0  0  0  0  0  2  0  0  0  0  0  0
  159.0800  210.8190  157.2170 O   0  0  0  0  0  1  0  0  0  0  0  0
  2  5  1  0  0  0  0
  2 11  2  0  0  0  0
  3  1  1  0  0  0  0
  4  2  1  0  0  0  0
  5  8  1  0  0  0  0
  7 14  1  0  0  0  0
  7 15  1  0  0  0  0
  8  3  2  0  0  0  0
  8  6  1  0  0  0  0
  9 13  1  6  0  0  0
  9  5  1  0  0  0  0
  9 14  1  0  0  0  0
 10 12  1  0  0  0  0
 11  3  1  0  0  0  0
 12  7  2  0  0  0  0
 13 10  2  0  0  0  0
 14  6  1  1  0  0  0
 15 19  1  0  0  0  0
 17 21  1  0  0  0  0
 18 16  1  6  0  0  0
 19 24  2  0  0  0  0
 21 20  1  1  0  0  0
 21 22  1  0  0  0  0
 22 18  1  0  0  0  0
 22 25  1  0  0  0  0
 23 18  1  0  0  0  0
 24 21  1  0  0  0  0
 24 23  1  0  0  0  0
 25 26  1  0  0  0  0
M  END
>  <MODEL>
6

>  <REMARK>
 VINA RESULT:      -6.9      1.991      3.322
  Name = 
  3 active torsions:
  status: ('A' for Active; 'I' for Inactive)
    1  A    between atoms: C_3  and  N_23
    2  A    between atoms: C_10  and  S_19
    3  A    between atoms: C_13  and  S_19
                            x       y       z     vdW  Elec       q    Type
                         _______ _______ _______ _____ _____    ______ ____

>  <TORSDO>
F 3

$$$$
=
 OpenBabel11072414223D

 26 29  0  0  1  0  0  0  0  0999 V2000
  161.1740  205.5770  146.1640 C   0  0  0  0  0  1  0  0  0  0  0  0
  161.2060  202.9400  148.5780 C   0  0  0  0  0  0  0  0  0  0  0  0
  161.0270  204.6680  147.3320 C   0  0  0  0  0  0  0  0  0  0  0  0
  161.5810  201.5700  149.0240 C   0  0  0  0  0  1  0  0  0  0  0  0
  160.9960  203.9710  149.4170 N   0  0  0  0  0  0  0  0  0  0  0  0
  161.2910  206.2640  149.3540 C   0  0  0  0  0  2  0  0  0  0  0  0
  161.6880  206.6480  151.7810 C   0  0  0  0  0  0  0  0  0  0  0  0
  160.9310  205.0450  148.6500 C   0  0  0  0  0  0  0  0  0  0  0  0
  161.5770  204.3270  150.6920 C   0  0  2  0  0  3  0  0  0  0  0  0
  160.5670  204.7960  152.8660 N   0  0  0  0  0  0  0  0  0  0  0  0
  161.2060  203.3260  147.2770 N   0  0  0  0  0  0  0  0  0  0  0  0
  161.1600  206.1140  152.8890 C   0  0  0  0  0  3  0  0  0  0  0  0
  160.6930  203.9750  151.8570 C   0  0  0  0  0  3  0  0  0  0  0  0
  161.6500  205.8270  150.5670 C   0  0  1  0  0  3  0  0  0  0  0  0
  162.3700  208.3070  151.8120 S   0  0  0  0  0  0  0  0  0  0  0  0
  158.5080  210.4510  155.4010 O   0  0  0  0  0  1  0  0  0  0  0  0
  162.5640  210.7030  153.7650 F   0  0  0  0  0  0  0  0  0  0  0  0
  159.1810  211.2490  154.4680 C   0  0  1  0  0  3  0  0  0  0  0  0
  160.7580  209.0760  152.0100 C   0  0  0  0  0  3  0  0  0  0  0  0
  161.4680  209.0490  155.0840 C   0  0  0  0  0  1  0  0  0  0  0  0
  161.3170  210.2730  154.1760 C   0  0  1  0  0  0  0  0  0  0  0  0
  160.6050  211.3930  154.8150 N   0  0  0  0  0  0  0  0  0  0  0  0
  159.1280  210.5620  153.1130 C   0  0  0  0  0  2  0  0  0  0  0  0
  160.4560  209.9170  153.0090 C   0  0  0  0  0  0  0  0  0  0  0  0
  160.8400  211.5190  156.2570 C   0  0  0  0  0  2  0  0  0  0  0  0
  160.4560  212.7890  156.6860 O   0  0  0  0  0  1  0  0  0  0  0  0
  1  3  1  0  0  0  0
  2  4  1  0  0  0  0
  2  5  1  0  0  0  0
  3  8  2  0  0  0  0
  5  9  1  0  0  0  0
  7 15  1  0  0  0  0
  7 12  2  0  0  0  0
  8  6  1  0  0  0  0
  8  5  1  0  0  0  0
  9 13  1  1  0  0  0
 10 12  1  0  0  0  0
 11  3  1  0  0  0  0
 11  2  2  0  0  0  0
 13 10  2  0  0  0  0
 14  6  1  6  0  0  0
 14  9  1  0  0  0  0
 14  7  1  0  0  0  0
 15 19  1  0  0  0  0
 17 21  1  0  0  0  0
 18 22  1  0  0  0  0
 18 16  1  1  0  0  0
 19 24  2  0  0  0  0
 21 22  1  0  0  0  0
 21 20  1  1  0  0  0
 22 25  1  0  0  0  0
 23 18  1  0  0  0  0
 24 23  1  0  0  0  0
 24 21  1  0  0  0  0
 25 26  1  0  0  0  0
M  END
>  <MODEL>
7

>  <REMARK>
 VINA RESULT:      -6.9      1.534      1.962
  Name = 
  3 active torsions:
  status: ('A' for Active; 'I' for Inactive)
    1  A    between atoms: C_3  and  N_23
    2  A    between atoms: C_10  and  S_19
    3  A    between atoms: C_13  and  S_19
                            x       y       z     vdW  Elec       q    Type
                         _______ _______ _______ _____ _____    ______ ____

>  <TORSDO>
F 3

$$$$
=
 OpenBabel11072414223D

 26 29  0  0  1  0  0  0  0  0999 V2000
  160.8780  202.6050  150.4950 C   0  0  0  0  0  1  0  0  0  0  0  0
  161.1490  205.4620  148.3630 C   0  0  0  0  0  0  0  0  0  0  0  0
  161.1720  203.8970  149.8190 C   0  0  0  0  0  0  0  0  0  0  0  0
  160.8270  206.2060  147.1140 C   0  0  0  0  0  1  0  0  0  0  0  0
  161.4740  206.0540  149.5260 N   0  0  0  0  0  0  0  0  0  0  0  0
  161.1870  205.5940  151.7740 C   0  0  0  0  0  2  0  0  0  0  0  0
  161.1170  207.9330  152.6220 C   0  0  0  0  0  0  0  0  0  0  0  0
  161.4440  205.0940  150.4340 C   0  0  0  0  0  0  0  0  0  0  0  0
  161.0690  207.3020  150.1340 C   0  0  2  0  0  3  0  0  0  0  0  0
  162.3600  209.1990  150.9730 N   0  0  0  0  0  0  0  0  0  0  0  0
  160.9790  204.1230  148.4960 N   0  0  0  0  0  0  0  0  0  0  0  0
  161.7830  209.0450  152.2890 C   0  0  0  0  0  3  0  0  0  0  0  0
  162.0970  208.3890  149.9810 C   0  0  0  0  0  3  0  0  0  0  0  0
  160.9900  206.9040  151.5850 C   0  0  1  0  0  3  0  0  0  0  0  0
  160.4550  207.7330  154.2770 S   0  0  0  0  0  0  0  0  0  0  0  0
  160.0810  213.3030  155.3870 O   0  0  0  0  0  1  0  0  0  0  0  0
  158.5850  209.2680  156.2110 F   0  0  0  0  0  0  0  0  0  0  0  0
  160.2300  212.3500  156.4020 C   0  0  1  0  0  3  0  0  0  0  0  0
  161.2780  209.2070  154.8930 C   0  0  0  0  0  3  0  0  0  0  0  0
  158.5340  210.6280  154.2560 C   0  0  0  0  0  1  0  0  0  0  0  0
  159.1560  210.3860  155.6340 C   0  0  1  0  0  0  0  0  0  0  0  0
  159.0150  211.5310  156.5500 N   0  0  0  0  0  0  0  0  0  0  0  0
  161.3540  211.4010  156.0170 C   0  0  0  0  0  2  0  0  0  0  0  0
  160.6340  210.2230  155.4850 C   0  0  0  0  0  0  0  0  0  0  0  0
  157.7760  212.2960  156.3810 C   0  0  0  0  0  2  0  0  0  0  0  0
  156.7180  211.6170  156.9850 O   0  0  0  0  0  1  0  0  0  0  0  0
  2 11  2  0  0  0  0
  2  5  1  0  0  0  0
  3  8  2  0  0  0  0
  3  1  1  0  0  0  0
  4  2  1  0  0  0  0
  5  9  1  0  0  0  0
  5  8  1  0  0  0  0
  7 15  1  0  0  0  0
  8  6  1  0  0  0  0
  9 13  1  1  0  0  0
  9 14  1  0  0  0  0
 10 12  1  0  0  0  0
 11  3  1  0  0  0  0
 12  7  2  0  0  0  0
 13 10  2  0  0  0  0
 14  6  1  1  0  0  0
 14  7  1  0  0  0  0
 15 19  1  0  0  0  0
 18 16  1  6  0  0  0
 18 22  1  0  0  0  0
 19 24  2  0  0  0  0
 21 20  1  6  0  0  0
 21 17  1  0  0  0  0
 21 22  1  0  0  0  0
 23 18  1  0  0  0  0
 24 21  1  0  0  0  0
 24 23  1  0  0  0  0
 25 22  1  0  0  0  0
 25 26  1  0  0  0  0
M  END
>  <MODEL>
8

>  <REMARK>
 VINA RESULT:      -6.9      2.416      3.828
  Name = 
  3 active torsions:
  status: ('A' for Active; 'I' for Inactive)
    1  A    between atoms: C_3  and  N_23
    2  A    between atoms: C_10  and  S_19
    3  A    between atoms: C_13  and  S_19
                            x       y       z     vdW  Elec       q    Type
                         _______ _______ _______ _____ _____    ______ ____

>  <TORSDO>
F 3

$$$$
=
 OpenBabel11072414223D

 26 29  0  0  1  0  0  0  0  0999 V2000
  159.0110  214.4470  151.5970 C   0  0  0  0  0  1  0  0  0  0  0  0
  157.9770  212.8340  154.6160 C   0  0  0  0  0  0  0  0  0  0  0  0
  158.8600  213.6750  152.8590 C   0  0  0  0  0  0  0  0  0  0  0  0
  156.9630  212.5250  155.6610 C   0  0  0  0  0  1  0  0  0  0  0  0
  158.9990  212.0180  154.2970 N   0  0  0  0  0  0  0  0  0  0  0  0
  160.2000  211.5100  152.3880 C   0  0  0  0  0  2  0  0  0  0  0  0
  160.7920  209.1560  152.9420 C   0  0  0  0  0  0  0  0  0  0  0  0
  159.5150  212.5120  153.1860 C   0  0  0  0  0  0  0  0  0  0  0  0
  159.1320  210.5780  154.2890 C   0  0  2  0  0  3  0  0  0  0  0  0
  160.7430  209.0870  155.3630 N   0  0  0  0  0  0  0  0  0  0  0  0
  157.8750  213.8860  153.7650 N   0  0  0  0  0  0  0  0  0  0  0  0
  161.1380  208.5460  154.0820 C   0  0  0  0  0  3  0  0  0  0  0  0
  159.8700  210.0520  155.4900 C   0  0  0  0  0  3  0  0  0  0  0  0
  159.9850  210.3740  153.0630 C   0  0  1  0  0  3  0  0  0  0  0  0
  161.3370  208.5040  151.3630 S   0  0  0  0  0  0  0  0  0  0  0  0
  159.8960  203.1760  149.9740 O   0  0  0  0  0  1  0  0  0  0  0  0
  162.5240  206.6020  149.2260 F   0  0  0  0  0  0  0  0  0  0  0  0
  161.2140  203.5340  150.2830 C   0  0  1  0  0  3  0  0  0  0  0  0
  161.1780  206.7960  151.8990 C   0  0  0  0  0  3  0  0  0  0  0  0
  160.1780  206.2900  148.9490 C   0  0  0  0  0  1  0  0  0  0  0  0
  161.4720  205.7830  149.5910 C   0  0  1  0  0  0  0  0  0  0  0  0
  161.7960  204.3900  149.2350 N   0  0  0  0  0  0  0  0  0  0  0  0
  161.2080  204.3530  151.5640 C   0  0  0  0  0  2  0  0  0  0  0  0
  161.3040  205.7460  151.0750 C   0  0  0  0  0  0  0  0  0  0  0  0
  161.3960  204.0000  147.8800 C   0  0  0  0  0  2  0  0  0  0  0  0
  162.4150  204.3110  146.9800 O   0  0  0  0  0  1  0  0  0  0  0  0
  1  3  1  0  0  0  0
  2  4  1  0  0  0  0
  3  8  2  0  0  0  0
  3 11  1  0  0  0  0
  5  2  1  0  0  0  0
  6  8  1  0  0  0  0
  7 14  1  0  0  0  0
  7 12  2  0  0  0  0
  8  5  1  0  0  0  0
  9  5  1  0  0  0  0
  9 13  1  1  0  0  0
 10 13  2  0  0  0  0
 11  2  2  0  0  0  0
 12 10  1  0  0  0  0
 14  6  1  1  0  0  0
 14  9  1  0  0  0  0
 15 19  1  0  0  0  0
 15  7  1  0  0  0  0
 17 21  1  0  0  0  0
 18 16  1  6  0  0  0
 18 23  1  0  0  0  0
 21 20  1  6  0  0  0
 21 24  1  0  0  0  0
 22 21  1  0  0  0  0
 22 18  1  0  0  0  0
 24 23  1  0  0  0  0
 24 19  2  0  0  0  0
 25 22  1  0  0  0  0
 26 25  1  0  0  0  0
M  END
>  <MODEL>
9

>  <REMARK>
 VINA RESULT:      -6.6      3.469      8.669
  Name = 
  3 active torsions:
  status: ('A' for Active; 'I' for Inactive)
    1  A    between atoms: C_3  and  N_23
    2  A    between atoms: C_10  and  S_19
    3  A    between atoms: C_13  and  S_19
                            x       y       z     vdW  Elec       q    Type
                         _______ _______ _______ _____ _____    ______ ____

>  <TORSDO>
F 3

$$$$
