=
 OpenBabel11072413033D

 37 42  0  0  1  0  0  0  0  0999 V2000
  160.8410  211.5080  147.5870 O   0  0  0  0  0  0  0  0  0  0  0  0
  163.0830  212.7390  148.1340 O   0  0  0  0  0  1  0  0  0  0  0  0
  161.2070  207.7640  152.6300 C   0  0  0  0  0  0  0  0  0  0  0  0
  161.7590  209.5770  150.8530 C   0  0  0  0  0  0  0  0  0  0  0  0
  160.7500  208.2030  153.9460 C   0  0  0  0  0  3  0  0  0  0  0  0
  161.6620  211.0060  152.6230 N   0  0  0  0  0  0  0  0  0  0  0  0
  161.8320  205.9510  151.1730 N   0  0  0  0  0  2  0  0  0  0  0  0
  161.9390  209.8460  153.1140 C   0  0  0  0  0  0  0  0  0  0  0  0
  161.8280  209.2080  149.3830 C   0  0  2  0  0  3  0  0  0  0  0  0
  162.2110  207.7680  149.1110 C   0  0  0  0  0  2  0  0  0  0  0  0
  161.2630  205.6060  149.8750 C   0  0  2  0  0  3  0  0  0  0  0  0
  161.0540  206.5060  152.2310 C   0  0  0  0  0  3  0  0  0  0  0  0
  162.7220  210.0540  148.7050 O   0  0  0  0  0  0  0  0  0  0  0  0
  161.6090  210.8490  151.2160 C   0  0  0  0  0  0  0  0  0  0  0  0
  160.9710  206.8830  149.0930 C   0  0  2  0  0  3  0  0  0  0  0  0
  162.1580  208.7880  152.0780 C   0  0  1  0  0  3  0  0  0  0  0  0
  161.9570  211.5700  148.6070 P   0  0  2  0  0  0  0  0  0  0  0  0
  161.2000  209.3780  154.2330 N   0  0  0  0  0  0  0  0  0  0  0  0
  161.3150  211.9880  150.2740 C   0  0  1  0  0  3  0  0  0  0  0  0
  159.5860  213.4240  149.4100 O   0  0  0  0  0  0  0  0  0  0  0  0
  158.4950  214.0440  149.9450 N   0  0  0  0  0  2  0  0  0  0  0  0
  159.3030  212.7130  151.5810 C   0  0  0  0  0  2  0  0  0  0  0  0
  158.5870  213.9410  151.3430 N   0  0  0  0  0  2  0  0  0  0  0  0
  159.8170  212.3160  150.2310 C   0  0  2  0  0  3  0  0  0  0  0  0
  160.5960  206.5360  147.6560 C   0  0  0  0  0  2  0  0  0  0  0  0
  161.7800  205.9650  146.8940 C   0  0  0  0  0  2  0  0  0  0  0  0
  161.4120  205.6930  145.5760 O   0  0  0  0  0  1  0  0  0  0  0  0
  160.0050  204.7470  150.0330 C   0  0  0  0  0  2  0  0  0  0  0  0
  160.5090  203.0930  148.3440 O   0  0  0  0  0  0  0  0  0  0  0  0
  160.2550  203.2740  149.7150 C   0  0  1  0  0  3  0  0  0  0  0  0
  160.4860  201.7050  148.0990 C   0  0  2  0  0  3  0  0  0  0  0  0
  161.4550  200.9460  149.0310 C   0  0  0  0  0  2  0  0  0  0  0  0
  162.2470  201.8370  149.7920 O   0  0  0  0  0  0  0  0  0  0  0  0
  160.8920  202.0010  151.8010 C   0  0  0  0  0  1  0  0  0  0  0  0
  161.4100  202.6920  150.5500 C   0  0  2  0  0  3  0  0  0  0  0  0
  160.8450  201.4510  146.6730 C   0  0  0  0  0  3  0  0  0  0  0  0
  160.8740  202.3690  145.8700 O   0  0  0  0  0  0  0  0  0  0  0  0
  2 17  1  0  0  0  0
  3  5  1  0  0  0  0
  4 14  2  0  0  0  0
  5 18  2  0  0  0  0
  6  8  2  0  0  0  0
  7 12  1  0  0  0  0
  8 18  1  0  0  0  0
  9 10  1  1  0  0  0
  9  4  1  0  0  0  0
 11 28  1  1  0  0  0
 11  7  1  0  0  0  0
 12  3  2  0  0  0  0
 13  9  1  0  0  0  0
 14  6  1  0  0  0  0
 15 25  1  6  0  0  0
 15 10  1  0  0  0  0
 15 11  1  0  0  0  0
 16  4  1  6  0  0  0
 16  3  1  0  0  0  0
 16  8  1  0  0  0  0
 17  1  2  6  0  0  0
 17 13  1  0  0  0  0
 17 19  1  0  0  0  0
 19 14  1  1  0  0  0
 20 21  1  0  0  0  0
 20 24  1  0  0  0  0
 21 23  1  0  0  0  0
 23 22  1  0  0  0  0
 24 19  1  0  0  0  0
 24 22  1  1  0  0  0
 26 25  1  0  0  0  0
 27 26  1  0  0  0  0
 29 30  1  0  0  0  0
 30 28  1  6  0  0  0
 30 35  1  0  0  0  0
 31 36  1  6  0  0  0
 31 29  1  0  0  0  0
 31 32  1  0  0  0  0
 32 33  1  0  0  0  0
 33 35  1  0  0  0  0
 35 34  1  1  0  0  0
 37 36  2  0  0  0  0
M  END
>  <MODEL>
1

>  <REMARK>
 VINA RESULT:      -5.1      0.000      0.000
  Name = 
  6 active torsions:
  status: ('A' for Active; 'I' for Inactive)
    1  A    between atoms: C_8  and  C_13
    2  A    between atoms: C_12  and  C_34
    3  A    between atoms: C_17  and  C_26
    4  A    between atoms: C_18  and  C_34
    5  A    between atoms: C_24  and  C_26
    6  A    between atoms: C_33  and  C_37
                            x       y       z     vdW  Elec       q    Type
                         _______ _______ _______ _____ _____    ______ ____

>  <TORSDO>
F 6

$$$$
=
 OpenBabel11072413033D

 37 42  0  0  1  0  0  0  0  0999 V2000
  158.7980  211.7330  151.3330 O   0  0  0  0  0  0  0  0  0  0  0  0
  160.4630  213.4670  152.3620 O   0  0  0  0  0  1  0  0  0  0  0  0
  160.9390  206.9870  154.8640 C   0  0  0  0  0  0  0  0  0  0  0  0
  160.6320  209.3430  153.8160 C   0  0  0  0  0  0  0  0  0  0  0  0
  160.4630  206.7700  156.2280 C   0  0  0  0  0  3  0  0  0  0  0  0
  160.1610  209.9750  155.9520 N   0  0  0  0  0  0  0  0  0  0  0  0
  162.0670  206.1190  152.9210 N   0  0  0  0  0  2  0  0  0  0  0  0
  160.8870  208.9130  156.0450 C   0  0  0  0  0  0  0  0  0  0  0  0
  160.7110  209.5260  152.3120 C   0  0  2  0  0  3  0  0  0  0  0  0
  161.5740  208.5070  151.5970 C   0  0  0  0  0  2  0  0  0  0  0  0
  161.5600  206.0260  151.5570 C   0  0  2  0  0  3  0  0  0  0  0  0
  161.2300  205.9660  154.0650 C   0  0  0  0  0  3  0  0  0  0  0  0
  161.1690  210.8150  151.9950 O   0  0  0  0  0  0  0  0  0  0  0  0
  160.0530  210.2730  154.5720 C   0  0  0  0  0  0  0  0  0  0  0  0
  160.7530  207.2780  151.2280 C   0  0  2  0  0  3  0  0  0  0  0  0
  161.3950  208.4110  154.7280 C   0  0  1  0  0  3  0  0  0  0  0  0
  159.8920  211.8760  152.3680 P   0  0  2  0  0  0  0  0  0  0  0  0
  160.4690  207.8660  156.9090 N   0  0  0  0  0  0  0  0  0  0  0  0
  159.2810  211.4570  154.0470 C   0  0  1  0  0  3  0  0  0  0  0  0
  157.0710  212.3740  153.7740 O   0  0  0  0  0  0  0  0  0  0  0  0
  155.8910  212.2510  154.4460 N   0  0  0  0  0  2  0  0  0  0  0  0
  157.2880  210.7480  155.3900 C   0  0  0  0  0  2  0  0  0  0  0  0
  156.1560  211.5980  155.6620 N   0  0  0  0  0  2  0  0  0  0  0  0
  157.7710  211.1930  154.0430 C   0  0  2  0  0  3  0  0  0  0  0  0
  160.4150  207.3010  149.7410 C   0  0  0  0  0  2  0  0  0  0  0  0
  161.3320  208.2410  148.9760 C   0  0  0  0  0  2  0  0  0  0  0  0
  161.5030  207.7820  147.6700 O   0  0  0  0  0  1  0  0  0  0  0  0
  160.7270  204.7560  151.3610 C   0  0  0  0  0  2  0  0  0  0  0  0
  161.8410  204.8150  149.2160 O   0  0  0  0  0  0  0  0  0  0  0  0
  160.7700  204.2400  149.9240 C   0  0  1  0  0  3  0  0  0  0  0  0
  161.6660  204.4810  147.8590 C   0  0  2  0  0  3  0  0  0  0  0  0
  161.5180  202.9570  147.6610 C   0  0  0  0  0  2  0  0  0  0  0  0
  161.7540  202.2520  148.8640 O   0  0  0  0  0  0  0  0  0  0  0  0
  159.4830  202.0770  149.7070 C   0  0  0  0  0  1  0  0  0  0  0  0
  160.8590  202.7040  149.8660 C   0  0  2  0  0  3  0  0  0  0  0  0
  162.8290  204.9880  147.0730 C   0  0  0  0  0  3  0  0  0  0  0  0
  162.7020  205.2690  145.8930 O   0  0  0  0  0  0  0  0  0  0  0  0
  2 17  1  0  0  0  0
  3  5  1  0  0  0  0
  4 14  2  0  0  0  0
  5 18  2  0  0  0  0
  6  8  2  0  0  0  0
  7 12  1  0  0  0  0
  8 18  1  0  0  0  0
  9 10  1  1  0  0  0
  9  4  1  0  0  0  0
 11 28  1  1  0  0  0
 11  7  1  0  0  0  0
 12  3  2  0  0  0  0
 13  9  1  0  0  0  0
 13 17  1  0  0  0  0
 14  6  1  0  0  0  0
 15 25  1  6  0  0  0
 15 11  1  0  0  0  0
 15 10  1  0  0  0  0
 16  4  1  6  0  0  0
 16  3  1  0  0  0  0
 16  8  1  0  0  0  0
 17  1  2  6  0  0  0
 17 19  1  0  0  0  0
 19 14  1  6  0  0  0
 20 24  1  0  0  0  0
 20 21  1  0  0  0  0
 21 23  1  0  0  0  0
 22 23  1  0  0  0  0
 24 19  1  0  0  0  0
 24 22  1  1  0  0  0
 26 25  1  0  0  0  0
 27 26  1  0  0  0  0
 29 30  1  0  0  0  0
 30 28  1  1  0  0  0
 31 36  1  6  0  0  0
 31 29  1  0  0  0  0
 32 31  1  0  0  0  0
 32 33  1  0  0  0  0
 33 35  1  0  0  0  0
 35 34  1  6  0  0  0
 35 30  1  0  0  0  0
 37 36  2  0  0  0  0
M  END
>  <MODEL>
2

>  <REMARK>
 VINA RESULT:      -4.7      2.575      3.367
  Name = 
  6 active torsions:
  status: ('A' for Active; 'I' for Inactive)
    1  A    between atoms: C_8  and  C_13
    2  A    between atoms: C_12  and  C_34
    3  A    between atoms: C_17  and  C_26
    4  A    between atoms: C_18  and  C_34
    5  A    between atoms: C_24  and  C_26
    6  A    between atoms: C_33  and  C_37
                            x       y       z     vdW  Elec       q    Type
                         _______ _______ _______ _____ _____    ______ ____

>  <TORSDO>
F 6

$$$$
=
 OpenBabel11072413033D

 37 42  0  0  1  0  0  0  0  0999 V2000
  161.2330  212.1570  146.6740 O   0  0  0  0  0  0  0  0  0  0  0  0
  163.0830  213.7280  147.6470 O   0  0  0  0  0  1  0  0  0  0  0  0
  160.7890  208.7580  151.9500 C   0  0  0  0  0  0  0  0  0  0  0  0
  161.5340  210.5430  150.2160 C   0  0  0  0  0  0  0  0  0  0  0  0
  159.9600  209.1890  153.0730 C   0  0  0  0  0  3  0  0  0  0  0  0
  160.8060  212.0280  151.7810 N   0  0  0  0  0  0  0  0  0  0  0  0
  161.9940  206.9870  150.8480 N   0  0  0  0  0  2  0  0  0  0  0  0
  161.0970  210.9460  152.4220 C   0  0  0  0  0  0  0  0  0  0  0  0
  162.0220  210.1170  148.8440 C   0  0  2  0  0  3  0  0  0  0  0  0
  162.6450  208.7380  148.7960 C   0  0  0  0  0  2  0  0  0  0  0  0
  161.8230  206.4990  149.4850 C   0  0  2  0  0  3  0  0  0  0  0  0
  160.9080  207.4730  151.6330 C   0  0  0  0  0  3  0  0  0  0  0  0
  162.9410  211.0510  148.3360 O   0  0  0  0  0  0  0  0  0  0  0  0
  161.1330  211.7950  150.4230 C   0  0  0  0  0  0  0  0  0  0  0  0
  161.5760  207.6790  148.5500 C   0  0  2  0  0  3  0  0  0  0  0  0
  161.7080  209.8820  151.5630 C   0  0  1  0  0  3  0  0  0  0  0  0
  162.0350  212.4320  147.9270 P   0  0  2  0  0  0  0  0  0  0  0  0
  160.1650  210.4300  153.3610 N   0  0  0  0  0  0  0  0  0  0  0  0
  160.9420  212.8320  149.3450 C   0  0  1  0  0  3  0  0  0  0  0  0
  159.3260  213.9220  147.9310 O   0  0  0  0  0  0  0  0  0  0  0  0
  158.0700  214.4190  148.1140 N   0  0  0  0  0  2  0  0  0  0  0  0
  158.5940  213.3660  150.0420 C   0  0  0  0  0  2  0  0  0  0  0  0
  157.8200  214.4520  149.4960 N   0  0  0  0  0  2  0  0  0  0  0  0
  159.4750  212.9340  148.9090 C   0  0  2  0  0  3  0  0  0  0  0  0
  161.6270  207.2110  147.0990 C   0  0  0  0  0  2  0  0  0  0  0  0
  160.2360  206.9600  146.5450 C   0  0  0  0  0  2  0  0  0  0  0  0
  160.3230  206.3160  145.3110 O   0  0  0  0  0  1  0  0  0  0  0  0
  160.6890  205.4730  149.4010 C   0  0  0  0  0  2  0  0  0  0  0  0
  160.3880  203.0970  149.7260 O   0  0  0  0  0  0  0  0  0  0  0  0
  161.1920  204.0640  149.0960 C   0  0  1  0  0  3  0  0  0  0  0  0
  161.0510  201.8610  149.5980 C   0  0  2  0  0  3  0  0  0  0  0  0
  161.3890  201.5450  148.1250 C   0  0  0  0  0  2  0  0  0  0  0  0
  160.8110  202.4910  147.2460 O   0  0  0  0  0  0  0  0  0  0  0  0
  162.6550  204.0580  147.0370 C   0  0  0  0  0  1  0  0  0  0  0  0
  161.2610  203.7920  147.5820 C   0  0  2  0  0  3  0  0  0  0  0  0
  160.1940  200.7810  150.1690 C   0  0  0  0  0  3  0  0  0  0  0  0
  159.0760  200.5790  149.7240 O   0  0  0  0  0  0  0  0  0  0  0  0
  2 17  1  0  0  0  0
  3  5  1  0  0  0  0
  4 14  2  0  0  0  0
  5 18  2  0  0  0  0
  6  8  2  0  0  0  0
  7 12  1  0  0  0  0
  8 18  1  0  0  0  0
  9 10  1  1  0  0  0
  9  4  1  0  0  0  0
 11 28  1  1  0  0  0
 11  7  1  0  0  0  0
 12  3  2  0  0  0  0
 13  9  1  0  0  0  0
 14  6  1  0  0  0  0
 15 25  1  6  0  0  0
 15 10  1  0  0  0  0
 15 11  1  0  0  0  0
 16  4  1  6  0  0  0
 16  3  1  0  0  0  0
 16  8  1  0  0  0  0
 17  1  2  6  0  0  0
 17 13  1  0  0  0  0
 17 19  1  0  0  0  0
 19 14  1  1  0  0  0
 20 21  1  0  0  0  0
 20 24  1  0  0  0  0
 21 23  1  0  0  0  0
 23 22  1  0  0  0  0
 24 19  1  0  0  0  0
 24 22  1  1  0  0  0
 26 25  1  0  0  0  0
 27 26  1  0  0  0  0
 30 28  1  6  0  0  0
 30 29  1  0  0  0  0
 31 29  1  0  0  0  0
 31 36  1  6  0  0  0
 32 31  1  0  0  0  0
 33 35  1  0  0  0  0
 33 32  1  0  0  0  0
 35 34  1  1  0  0  0
 35 30  1  0  0  0  0
 37 36  2  0  0  0  0
M  END
>  <MODEL>
3

>  <REMARK>
 VINA RESULT:      -4.2      1.413      1.988
  Name = 
  6 active torsions:
  status: ('A' for Active; 'I' for Inactive)
    1  A    between atoms: C_8  and  C_13
    2  A    between atoms: C_12  and  C_34
    3  A    between atoms: C_17  and  C_26
    4  A    between atoms: C_18  and  C_34
    5  A    between atoms: C_24  and  C_26
    6  A    between atoms: C_33  and  C_37
                            x       y       z     vdW  Elec       q    Type
                         _______ _______ _______ _____ _____    ______ ____

>  <TORSDO>
F 6

$$$$
=
 OpenBabel11072413033D

 37 42  0  0  1  0  0  0  0  0999 V2000
  159.2220  213.3490  154.8200 O   0  0  0  0  0  0  0  0  0  0  0  0
  160.8040  213.7710  156.8590 O   0  0  0  0  0  1  0  0  0  0  0  0
  160.5570  207.2070  154.5510 C   0  0  0  0  0  0  0  0  0  0  0  0
  160.5350  209.7010  155.2750 C   0  0  0  0  0  0  0  0  0  0  0  0
  159.8710  206.2350  155.3990 C   0  0  0  0  0  3  0  0  0  0  0  0
  159.7840  208.8750  157.2600 N   0  0  0  0  0  0  0  0  0  0  0  0
  161.9150  207.6410  152.6090 N   0  0  0  0  0  2  0  0  0  0  0  0
  160.4310  207.9130  156.6930 C   0  0  0  0  0  0  0  0  0  0  0  0
  160.8480  210.7910  154.2680 C   0  0  2  0  0  3  0  0  0  0  0  0
  161.7530  210.3610  153.1320 C   0  0  0  0  0  2  0  0  0  0  0  0
  161.6140  208.5130  151.4810 C   0  0  2  0  0  3  0  0  0  0  0  0
  160.9100  206.9070  153.3050 C   0  0  0  0  0  3  0  0  0  0  0  0
  161.4150  211.9060  154.9070 O   0  0  0  0  0  0  0  0  0  0  0  0
  159.9000  209.9990  156.4060 C   0  0  0  0  0  0  0  0  0  0  0  0
  160.9330  209.7810  151.9870 C   0  0  2  0  0  3  0  0  0  0  0  0
  161.1030  208.3080  155.4150 C   0  0  1  0  0  3  0  0  0  0  0  0
  160.1550  212.6440  155.7790 P   0  0  2  0  0  0  0  0  0  0  0  0
  159.8340  206.6260  156.6280 N   0  0  0  0  0  0  0  0  0  0  0  0
  159.2790  211.3360  156.7220 C   0  0  1  0  0  3  0  0  0  0  0  0
  157.5480  211.2930  155.0490 O   0  0  0  0  0  0  0  0  0  0  0  0
  156.3880  211.9790  154.8500 N   0  0  0  0  0  2  0  0  0  0  0  0
  157.1350  212.6250  156.8800 C   0  0  0  0  0  2  0  0  0  0  0  0
  156.3750  213.0680  155.7390 N   0  0  0  0  0  2  0  0  0  0  0  0
  157.7740  211.3470  156.4280 C   0  0  2  0  0  3  0  0  0  0  0  0
  160.8230  210.7970  150.8550 C   0  0  0  0  0  2  0  0  0  0  0  0
  162.1330  210.9330  150.0980 C   0  0  0  0  0  2  0  0  0  0  0  0
  161.9130  210.7670  148.7310 O   0  0  0  0  0  1  0  0  0  0  0  0
  160.7530  207.7940  150.4380 C   0  0  0  0  0  2  0  0  0  0  0  0
  160.7530  205.3910  150.6970 O   0  0  0  0  0  0  0  0  0  0  0  0
  161.3510  206.4580  150.0030 C   0  0  1  0  0  3  0  0  0  0  0  0
  161.5160  204.2390  150.4210 C   0  0  2  0  0  3  0  0  0  0  0  0
  161.6660  204.0050  148.9020 C   0  0  0  0  0  2  0  0  0  0  0  0
  160.8700  204.9060  148.1580 O   0  0  0  0  0  0  0  0  0  0  0  0
  162.4890  206.6720  147.7580 C   0  0  0  0  0  1  0  0  0  0  0  0
  161.2250  206.2390  148.4840 C   0  0  2  0  0  3  0  0  0  0  0  0
  160.8700  203.0550  151.0600 C   0  0  0  0  0  3  0  0  0  0  0  0
  161.0430  201.9360  150.6050 O   0  0  0  0  0  0  0  0  0  0  0  0
  3  5  1  0  0  0  0
  4 16  1  0  0  0  0
  4 14  2  0  0  0  0
  5 18  2  0  0  0  0
  7 12  1  0  0  0  0
  8  6  2  0  0  0  0
  9 10  1  6  0  0  0
  9 13  1  0  0  0  0
  9  4  1  0  0  0  0
 11 28  1  6  0  0  0
 11 15  1  0  0  0  0
 11  7  1  0  0  0  0
 12  3  2  0  0  0  0
 13 17  1  0  0  0  0
 14  6  1  0  0  0  0
 15 25  1  6  0  0  0
 15 10  1  0  0  0  0
 16  3  1  6  0  0  0
 16  8  1  0  0  0  0
 17  1  2  6  0  0  0
 17 19  1  0  0  0  0
 17  2  1  0  0  0  0
 18  8  1  0  0  0  0
 19 14  1  6  0  0  0
 20 24  1  0  0  0  0
 21 20  1  0  0  0  0
 21 23  1  0  0  0  0
 23 22  1  0  0  0  0
 24 19  1  0  0  0  0
 24 22  1  6  0  0  0
 26 25  1  0  0  0  0
 27 26  1  0  0  0  0
 30 28  1  1  0  0  0
 30 29  1  0  0  0  0
 31 29  1  0  0  0  0
 31 36  1  1  0  0  0
 32 31  1  0  0  0  0
 33 35  1  0  0  0  0
 33 32  1  0  0  0  0
 35 34  1  6  0  0  0
 35 30  1  0  0  0  0
 37 36  2  0  0  0  0
M  END
>  <MODEL>
4

>  <REMARK>
 VINA RESULT:      -3.9      3.470      5.079
  Name = 
  6 active torsions:
  status: ('A' for Active; 'I' for Inactive)
    1  A    between atoms: C_8  and  C_13
    2  A    between atoms: C_12  and  C_34
    3  A    between atoms: C_17  and  C_26
    4  A    between atoms: C_18  and  C_34
    5  A    between atoms: C_24  and  C_26
    6  A    between atoms: C_33  and  C_37
                            x       y       z     vdW  Elec       q    Type
                         _______ _______ _______ _____ _____    ______ ____

>  <TORSDO>
F 6

$$$$
=
 OpenBabel11072413033D

 37 42  0  0  1  0  0  0  0  0999 V2000
  160.9710  211.3790  152.8240 O   0  0  0  0  0  0  0  0  0  0  0  0
  162.8200  211.0990  154.6520 O   0  0  0  0  0  1  0  0  0  0  0  0
  161.0870  205.2990  151.2140 C   0  0  0  0  0  0  0  0  0  0  0  0
  161.6160  207.5540  152.3890 C   0  0  0  0  0  0  0  0  0  0  0  0
  160.3280  204.2940  151.9560 C   0  0  0  0  0  3  0  0  0  0  0  0
  160.9470  206.4610  154.2710 N   0  0  0  0  0  0  0  0  0  0  0  0
  162.2790  205.9060  149.2110 N   0  0  0  0  0  2  0  0  0  0  0  0
  161.3340  205.5480  153.4460 C   0  0  0  0  0  0  0  0  0  0  0  0
  162.0140  208.7660  151.5690 C   0  0  2  0  0  3  0  0  0  0  0  0
  162.6910  208.4440  150.2540 C   0  0  0  0  0  2  0  0  0  0  0  0
  162.0250  207.0340  148.3230 C   0  0  2  0  0  3  0  0  0  0  0  0
  161.2370  205.2150  149.8970 C   0  0  0  0  0  3  0  0  0  0  0  0
  162.8490  209.6140  152.3160 O   0  0  0  0  0  0  0  0  0  0  0  0
  161.1770  207.7060  153.6370 C   0  0  0  0  0  0  0  0  0  0  0  0
  161.6540  208.2590  149.1520 C   0  0  2  0  0  3  0  0  0  0  0  0
  161.9220  206.0890  152.1800 C   0  0  1  0  0  3  0  0  0  0  0  0
  161.8550  210.3460  153.4870 P   0  0  2  0  0  0  0  0  0  0  0  0
  160.5010  204.4180  153.2280 N   0  0  0  0  0  0  0  0  0  0  0  0
  160.8580  209.0290  154.2860 C   0  0  1  0  0  3  0  0  0  0  0  0
  159.1040  210.2890  153.2220 O   0  0  0  0  0  0  0  0  0  0  0  0
  158.0250  210.9950  153.6650 N   0  0  0  0  0  2  0  0  0  0  0  0
  158.8770  209.9780  155.4920 C   0  0  0  0  0  2  0  0  0  0  0  0
  158.1520  211.1440  155.0570 N   0  0  0  0  0  2  0  0  0  0  0  0
  159.3590  209.3450  154.2220 C   0  0  2  0  0  3  0  0  0  0  0  0
  161.6140  209.4960  148.2600 C   0  0  0  0  0  2  0  0  0  0  0  0
  162.0190  210.7460  149.0210 C   0  0  0  0  0  2  0  0  0  0  0  0
  161.9880  211.8530  148.1720 O   0  0  0  0  0  1  0  0  0  0  0  0
  160.9330  206.7000  147.3010 C   0  0  0  0  0  2  0  0  0  0  0  0
  160.8690  204.2850  147.2130 O   0  0  0  0  0  0  0  0  0  0  0  0
  161.2450  205.4380  146.5000 C   0  0  1  0  0  3  0  0  0  0  0  0
  161.4040  203.1790  146.5220 C   0  0  2  0  0  3  0  0  0  0  0  0
  160.9800  203.1750  145.0380 C   0  0  0  0  0  2  0  0  0  0  0  0
  160.0300  204.1870  144.7670 O   0  0  0  0  0  0  0  0  0  0  0  0
  161.5080  205.9750  144.0460 C   0  0  0  0  0  1  0  0  0  0  0  0
  160.5660  205.4510  145.1180 C   0  0  2  0  0  3  0  0  0  0  0  0
  160.9550  201.9210  147.1860 C   0  0  0  0  0  3  0  0  0  0  0  0
  160.5690  201.9360  148.3430 O   0  0  0  0  0  0  0  0  0  0  0  0
  3  5  1  0  0  0  0
  4 14  2  0  0  0  0
  5 18  2  0  0  0  0
  7 12  1  0  0  0  0
  8  6  2  0  0  0  0
  9 10  1  6  0  0  0
  9 13  1  0  0  0  0
  9  4  1  0  0  0  0
 11 28  1  6  0  0  0
 11 15  1  0  0  0  0
 11  7  1  0  0  0  0
 12  3  2  0  0  0  0
 13 17  1  0  0  0  0
 14  6  1  0  0  0  0
 15 25  1  6  0  0  0
 15 10  1  0  0  0  0
 16  3  1  6  0  0  0
 16  4  1  0  0  0  0
 16  8  1  0  0  0  0
 17  1  2  6  0  0  0
 17 19  1  0  0  0  0
 17  2  1  0  0  0  0
 18  8  1  0  0  0  0
 19 14  1  6  0  0  0
 20 21  1  0  0  0  0
 20 24  1  0  0  0  0
 21 23  1  0  0  0  0
 23 22  1  0  0  0  0
 24 19  1  0  0  0  0
 24 22  1  1  0  0  0
 25 26  1  0  0  0  0
 27 26  1  0  0  0  0
 30 29  1  0  0  0  0
 30 28  1  1  0  0  0
 31 36  1  1  0  0  0
 31 29  1  0  0  0  0
 32 31  1  0  0  0  0
 33 32  1  0  0  0  0
 33 35  1  0  0  0  0
 35 34  1  6  0  0  0
 35 30  1  0  0  0  0
 36 37  2  0  0  0  0
M  END
>  <MODEL>
5

>  <REMARK>
 VINA RESULT:      -3.8      2.494      4.358
  Name = 
  6 active torsions:
  status: ('A' for Active; 'I' for Inactive)
    1  A    between atoms: C_8  and  C_13
    2  A    between atoms: C_12  and  C_34
    3  A    between atoms: C_17  and  C_26
    4  A    between atoms: C_18  and  C_34
    5  A    between atoms: C_24  and  C_26
    6  A    between atoms: C_33  and  C_37
                            x       y       z     vdW  Elec       q    Type
                         _______ _______ _______ _____ _____    ______ ____

>  <TORSDO>
F 6

$$$$
=
 OpenBabel11072413033D

 37 42  0  0  1  0  0  0  0  0999 V2000
  160.9740  206.2760  151.9010 O   0  0  0  0  0  1  0  0  0  0  0  0
  163.5840  206.1910  151.7630 O   0  0  0  0  0  0  0  0  0  0  0  0
  160.6740  212.2620  149.9890 C   0  0  0  0  0  0  0  0  0  0  0  0
  161.5910  209.9350  150.6900 C   0  0  0  0  0  0  0  0  0  0  0  0
  160.7010  212.6170  148.5720 C   0  0  0  0  0  3  0  0  0  0  0  0
  162.4400  209.8940  148.5780 N   0  0  0  0  0  0  0  0  0  0  0  0
  160.1920  212.9080  152.2590 N   0  0  0  0  0  2  0  0  0  0  0  0
  162.2910  211.1400  148.8790 C   0  0  0  0  0  0  0  0  0  0  0  0
  161.2210  209.3440  152.0370 C   0  0  2  0  0  3  0  0  0  0  0  0
  160.9040  210.3650  153.1100 C   0  0  0  0  0  2  0  0  0  0  0  0
  159.2980  212.2540  153.2070 C   0  0  2  0  0  3  0  0  0  0  0  0
  159.9350  212.9440  150.8570 C   0  0  0  0  0  3  0  0  0  0  0  0
  162.2420  208.4970  152.5010 O   0  0  0  0  0  0  0  0  0  0  0  0
  162.0610  209.1510  149.7230 C   0  0  0  0  0  0  0  0  0  0  0  0
  159.4280  210.7410  153.0670 C   0  0  2  0  0  3  0  0  0  0  0  0
  161.8440  211.3700  150.2900 C   0  0  1  0  0  3  0  0  0  0  0  0
  162.1820  207.1050  151.5250 P   0  0  2  0  0  0  0  0  0  0  0  0
  161.6480  212.0010  147.9500 N   0  0  0  0  0  0  0  0  0  0  0  0
  162.1020  207.6450  149.7740 C   0  0  1  0  0  3  0  0  0  0  0  0
  160.9800  205.6250  149.0950 O   0  0  0  0  0  0  0  0  0  0  0  0
  160.3850  205.1970  147.9460 N   0  0  0  0  0  2  0  0  0  0  0  0
  160.9000  207.3670  147.5920 C   0  0  0  0  0  2  0  0  0  0  0  0
  160.7230  206.1020  146.9250 N   0  0  0  0  0  2  0  0  0  0  0  0
  160.9020  207.0210  149.0500 C   0  0  2  0  0  3  0  0  0  0  0  0
  158.6790  210.0490  154.2010 C   0  0  0  0  0  2  0  0  0  0  0  0
  159.4590  210.1100  155.5030 C   0  0  0  0  0  2  0  0  0  0  0  0
  159.5930  208.8300  156.0400 O   0  0  0  0  0  1  0  0  0  0  0  0
  157.8490  212.7110  153.0080 C   0  0  0  0  0  2  0  0  0  0  0  0
  155.9710  213.4250  154.3520 O   0  0  0  0  0  0  0  0  0  0  0  0
  157.3510  213.6000  154.1460 C   0  0  1  0  0  3  0  0  0  0  0  0
  155.5530  214.4400  155.2360 C   0  0  2  0  0  3  0  0  0  0  0  0
  156.3940  214.4500  156.5310 C   0  0  0  0  0  2  0  0  0  0  0  0
  157.2700  213.3420  156.5890 O   0  0  0  0  0  0  0  0  0  0  0  0
  159.2680  214.3280  155.6210 C   0  0  0  0  0  1  0  0  0  0  0  0
  158.1200  213.3450  155.4550 C   0  0  2  0  0  3  0  0  0  0  0  0
  154.1110  214.2440  155.5640 C   0  0  0  0  0  3  0  0  0  0  0  0
  153.7490  214.1500  156.7250 O   0  0  0  0  0  0  0  0  0  0  0  0
  3 16  1  0  0  0  0
  3 12  2  0  0  0  0
  4  9  1  0  0  0  0
  5  3  1  0  0  0  0
  6  8  2  0  0  0  0
  6 14  1  0  0  0  0
  7 11  1  0  0  0  0
  9 13  1  0  0  0  0
  9 10  1  1  0  0  0
 11 28  1  6  0  0  0
 12  7  1  0  0  0  0
 14  4  2  0  0  0  0
 15 10  1  0  0  0  0
 15 11  1  0  0  0  0
 15 25  1  1  0  0  0
 16  8  1  6  0  0  0
 16  4  1  0  0  0  0
 17  2  2  1  0  0  0
 17  1  1  0  0  0  0
 17 13  1  0  0  0  0
 18  5  2  0  0  0  0
 18  8  1  0  0  0  0
 19 14  1  1  0  0  0
 19 17  1  0  0  0  0
 21 20  1  0  0  0  0
 23 22  1  0  0  0  0
 23 21  1  0  0  0  0
 24 22  1  6  0  0  0
 24 20  1  0  0  0  0
 24 19  1  0  0  0  0
 25 26  1  0  0  0  0
 26 27  1  0  0  0  0
 29 31  1  0  0  0  0
 30 28  1  6  0  0  0
 30 29  1  0  0  0  0
 30 35  1  0  0  0  0
 31 36  1  1  0  0  0
 31 32  1  0  0  0  0
 32 33  1  0  0  0  0
 35 34  1  1  0  0  0
 35 33  1  0  0  0  0
 36 37  2  0  0  0  0
M  END
>  <MODEL>
6

>  <REMARK>
 VINA RESULT:      -3.4      4.099      9.223
  Name = 
  6 active torsions:
  status: ('A' for Active; 'I' for Inactive)
    1  A    between atoms: C_8  and  C_13
    2  A    between atoms: C_12  and  C_34
    3  A    between atoms: C_17  and  C_26
    4  A    between atoms: C_18  and  C_34
    5  A    between atoms: C_24  and  C_26
    6  A    between atoms: C_33  and  C_37
                            x       y       z     vdW  Elec       q    Type
                         _______ _______ _______ _____ _____    ______ ____

>  <TORSDO>
F 6

$$$$
=
 OpenBabel11072413033D

 37 42  0  0  1  0  0  0  0  0999 V2000
  155.9030  208.2310  139.4200 O   0  0  0  0  0  1  0  0  0  0  0  0
  154.8770  208.1760  137.0150 O   0  0  0  0  0  0  0  0  0  0  0  0
  159.9260  212.8610  138.0270 C   0  0  0  0  0  0  0  0  0  0  0  0
  158.0690  211.0580  137.8220 C   0  0  0  0  0  0  0  0  0  0  0  0
  159.5250  214.2660  138.0690 C   0  0  0  0  0  3  0  0  0  0  0  0
  156.7330  212.8280  137.3090 N   0  0  0  0  0  0  0  0  0  0  0  0
  161.7020  211.2350  137.9820 N   0  0  0  0  0  2  0  0  0  0  0  0
  157.9350  213.1890  137.0110 C   0  0  0  0  0  0  0  0  0  0  0  0
  158.3630  209.6150  138.1870 C   0  0  2  0  0  3  0  0  0  0  0  0
  159.8110  209.2040  138.0200 C   0  0  0  0  0  2  0  0  0  0  0  0
  161.9330  210.1340  138.9100 C   0  0  2  0  0  3  0  0  0  0  0  0
  161.1470  212.4830  138.3910 C   0  0  0  0  0  3  0  0  0  0  0  0
  157.5530  208.7430  137.4410 O   0  0  0  0  0  0  0  0  0  0  0  0
  156.8110  211.4860  137.7560 C   0  0  0  0  0  0  0  0  0  0  0  0
  160.5990  209.5020  139.2910 C   0  0  2  0  0  3  0  0  0  0  0  0
  158.9500  212.1010  137.1760 C   0  0  1  0  0  3  0  0  0  0  0  0
  155.9800  208.9050  138.0680 P   0  0  2  0  0  0  0  0  0  0  0  0
  158.4040  214.4530  137.4570 N   0  0  0  0  0  0  0  0  0  0  0  0
  155.6040  210.6970  138.1940 C   0  0  1  0  0  3  0  0  0  0  0  0
  153.7760  210.9360  139.7440 O   0  0  0  0  0  0  0  0  0  0  0  0
  153.4050  211.8820  140.6530 N   0  0  0  0  0  2  0  0  0  0  0  0
  155.4390  212.5200  139.9060 C   0  0  0  0  0  2  0  0  0  0  0  0
  154.1940  213.0230  140.4290 N   0  0  0  0  0  2  0  0  0  0  0  0
  155.1610  211.0770  139.6130 C   0  0  2  0  0  3  0  0  0  0  0  0
  160.8390  208.2130  140.0710 C   0  0  0  0  0  2  0  0  0  0  0  0
  161.7790  207.2790  139.3280 C   0  0  0  0  0  2  0  0  0  0  0  0
  162.6400  206.6530  140.2290 O   0  0  0  0  0  1  0  0  0  0  0  0
  162.7020  210.6050  140.1480 C   0  0  0  0  0  2  0  0  0  0  0  0
  161.2340  211.2830  141.9450 O   0  0  0  0  0  0  0  0  0  0  0  0
  162.0060  211.7580  140.8690 C   0  0  1  0  0  3  0  0  0  0  0  0
  160.4470  212.3620  142.3960 C   0  0  2  0  0  3  0  0  0  0  0  0
  161.3100  213.5980  142.7290 C   0  0  0  0  0  2  0  0  0  0  0  0
  162.6910  213.3010  142.6560 O   0  0  0  0  0  0  0  0  0  0  0  0
  163.1460  213.9540  140.3620 C   0  0  0  0  0  1  0  0  0  0  0  0
  163.0080  212.8180  141.3620 C   0  0  2  0  0  3  0  0  0  0  0  0
  159.6750  211.9380  143.6010 C   0  0  0  0  0  3  0  0  0  0  0  0
  158.8630  212.6920  144.1110 O   0  0  0  0  0  0  0  0  0  0  0  0
  3  5  1  0  0  0  0
  3 12  2  0  0  0  0
  4  9  1  0  0  0  0
  6 14  1  0  0  0  0
  7 12  1  0  0  0  0
  7 11  1  0  0  0  0
  8  6  2  0  0  0  0
  8 18  1  0  0  0  0
  9 10  1  6  0  0  0
 10 15  1  0  0  0  0
 11 15  1  0  0  0  0
 11 28  1  1  0  0  0
 13 17  1  0  0  0  0
 13  9  1  0  0  0  0
 14  4  2  0  0  0  0
 15 25  1  6  0  0  0
 16  8  1  1  0  0  0
 16  4  1  0  0  0  0
 16  3  1  0  0  0  0
 17  2  2  6  0  0  0
 17 19  1  0  0  0  0
 17  1  1  0  0  0  0
 18  5  2  0  0  0  0
 19 14  1  1  0  0  0
 19 24  1  0  0  0  0
 20 21  1  0  0  0  0
 22 23  1  0  0  0  0
 23 21  1  0  0  0  0
 24 20  1  0  0  0  0
 24 22  1  6  0  0  0
 26 25  1  0  0  0  0
 26 27  1  0  0  0  0
 29 31  1  0  0  0  0
 30 28  1  1  0  0  0
 30 35  1  0  0  0  0
 30 29  1  0  0  0  0
 31 32  1  0  0  0  0
 31 36  1  1  0  0  0
 33 32  1  0  0  0  0
 35 34  1  6  0  0  0
 35 33  1  0  0  0  0
 36 37  2  0  0  0  0
M  END
>  <MODEL>
7

>  <REMARK>
 VINA RESULT:      -3.3      9.927     12.979
  Name = 
  6 active torsions:
  status: ('A' for Active; 'I' for Inactive)
    1  A    between atoms: C_8  and  C_13
    2  A    between atoms: C_12  and  C_34
    3  A    between atoms: C_17  and  C_26
    4  A    between atoms: C_18  and  C_34
    5  A    between atoms: C_24  and  C_26
    6  A    between atoms: C_33  and  C_37
                            x       y       z     vdW  Elec       q    Type
                         _______ _______ _______ _____ _____    ______ ____

>  <TORSDO>
F 6

$$$$
=
 OpenBabel11072413033D

 37 42  0  0  1  0  0  0  0  0999 V2000
  161.8380  206.8860  156.4220 O   0  0  0  0  0  0  0  0  0  0  0  0
  159.5950  207.9370  157.2610 O   0  0  0  0  0  1  0  0  0  0  0  0
  161.4130  209.5360  150.7330 C   0  0  0  0  0  0  0  0  0  0  0  0
  160.8840  208.8330  153.1760 C   0  0  0  0  0  0  0  0  0  0  0  0
  161.8590  210.9060  150.4890 C   0  0  0  0  0  3  0  0  0  0  0  0
  160.9680  211.0700  153.5910 N   0  0  0  0  0  0  0  0  0  0  0  0
  160.7950  207.3870  149.8350 N   0  0  0  0  0  2  0  0  0  0  0  0
  160.6830  210.9480  152.3380 C   0  0  0  0  0  0  0  0  0  0  0  0
  160.8270  207.3640  153.5520 C   0  0  2  0  0  3  0  0  0  0  0  0
  160.4420  206.4370  152.4180 C   0  0  0  0  0  2  0  0  0  0  0  0
  161.3750  206.0860  150.1450 C   0  0  2  0  0  3  0  0  0  0  0  0
  161.5650  208.5880  149.8140 C   0  0  0  0  0  3  0  0  0  0  0  0
  159.9420  207.1640  154.6250 O   0  0  0  0  0  0  0  0  0  0  0  0
  161.0340  209.7580  154.1210 C   0  0  0  0  0  0  0  0  0  0  0  0
  161.6790  206.0080  151.6380 C   0  0  2  0  0  3  0  0  0  0  0  0
  160.4710  209.5320  151.9020 C   0  0  1  0  0  3  0  0  0  0  0  0
  160.7130  207.8040  156.0000 P   0  0  2  0  0  0  0  0  0  0  0  0
  161.4100  211.7140  151.3890 N   0  0  0  0  0  0  0  0  0  0  0  0
  161.3410  209.4740  155.5690 C   0  0  1  0  0  3  0  0  0  0  0  0
  163.0440  209.8870  157.2210 O   0  0  0  0  0  0  0  0  0  0  0  0
  164.1820  210.6370  157.2600 N   0  0  0  0  0  2  0  0  0  0  0  0
  163.4510  210.7520  155.1270 C   0  0  0  0  0  2  0  0  0  0  0  0
  164.1790  211.4800  156.1360 N   0  0  0  0  0  2  0  0  0  0  0  0
  162.8400  209.6020  155.8670 C   0  0  2  0  0  3  0  0  0  0  0  0
  162.0660  204.5810  152.0140 C   0  0  0  0  0  2  0  0  0  0  0  0
  160.8510  203.6710  152.0710 C   0  0  0  0  0  2  0  0  0  0  0  0
  161.1830  202.4020  151.5940 O   0  0  0  0  0  1  0  0  0  0  0  0
  162.6290  205.8240  149.3060 C   0  0  0  0  0  2  0  0  0  0  0  0
  161.6500  203.7020  148.6880 O   0  0  0  0  0  0  0  0  0  0  0  0
  162.3940  204.7930  148.2040 C   0  0  1  0  0  3  0  0  0  0  0  0
  161.6870  202.7030  147.6950 C   0  0  2  0  0  3  0  0  0  0  0  0
  161.2120  203.2400  146.3280 C   0  0  0  0  0  2  0  0  0  0  0  0
  160.7030  204.5550  146.4360 O   0  0  0  0  0  0  0  0  0  0  0  0
  162.7060  205.8290  145.9220 C   0  0  0  0  0  1  0  0  0  0  0  0
  161.6960  205.4080  146.9780 C   0  0  2  0  0  3  0  0  0  0  0  0
  160.8320  201.5560  148.1190 C   0  0  0  0  0  3  0  0  0  0  0  0
  161.3320  200.5670  148.6300 O   0  0  0  0  0  0  0  0  0  0  0  0
  4  9  1  0  0  0  0
  4 14  2  0  0  0  0
  5  3  1  0  0  0  0
  5 18  2  0  0  0  0
  6 14  1  0  0  0  0
  7 11  1  0  0  0  0
  8  6  2  0  0  0  0
  9 10  1  6  0  0  0
  9 13  1  0  0  0  0
 11 28  1  6  0  0  0
 11 15  1  0  0  0  0
 12  7  1  0  0  0  0
 12  3  2  0  0  0  0
 13 17  1  0  0  0  0
 15 25  1  1  0  0  0
 15 10  1  0  0  0  0
 16  3  1  6  0  0  0
 16  8  1  0  0  0  0
 16  4  1  0  0  0  0
 17  1  2  1  0  0  0
 17  2  1  0  0  0  0
 18  8  1  0  0  0  0
 19 14  1  6  0  0  0
 19 24  1  0  0  0  0
 19 17  1  0  0  0  0
 20 21  1  0  0  0  0
 22 23  1  0  0  0  0
 23 21  1  0  0  0  0
 24 22  1  6  0  0  0
 24 20  1  0  0  0  0
 25 26  1  0  0  0  0
 27 26  1  0  0  0  0
 30 29  1  0  0  0  0
 30 28  1  1  0  0  0
 31 36  1  1  0  0  0
 31 29  1  0  0  0  0
 32 33  1  0  0  0  0
 32 31  1  0  0  0  0
 33 35  1  0  0  0  0
 35 34  1  6  0  0  0
 35 30  1  0  0  0  0
 36 37  2  0  0  0  0
M  END
>  <MODEL>
8

>  <REMARK>
 VINA RESULT:      -2.5      3.536      5.386
  Name = 
  6 active torsions:
  status: ('A' for Active; 'I' for Inactive)
    1  A    between atoms: C_8  and  C_13
    2  A    between atoms: C_12  and  C_34
    3  A    between atoms: C_17  and  C_26
    4  A    between atoms: C_18  and  C_34
    5  A    between atoms: C_24  and  C_26
    6  A    between atoms: C_33  and  C_37
                            x       y       z     vdW  Elec       q    Type
                         _______ _______ _______ _____ _____    ______ ____

>  <TORSDO>
F 6

$$$$
