=
 OpenBabel11072413333D

 36 41  0  0  1  0  0  0  0  0999 V2000
  160.4430  210.7120  151.3470 O   0  0  0  0  0  0  0  0  0  0  0  0
  160.4820  208.9330  154.4900 C   0  0  2  0  0  3  0  0  0  0  0  0
  160.3150  208.4320  151.7220 O   0  0  0  0  0  0  0  0  0  0  0  0
  161.0410  209.9790  153.5030 C   0  0  2  0  0  3  0  0  0  0  0  0
  159.9070  211.5820  152.2790 C   0  0  0  0  0  0  0  0  0  0  0  0
  163.3540  210.1440  151.6340 O   0  0  0  0  0  0  0  0  0  0  0  0
  160.1790  211.2000  153.5070 C   0  0  0  0  0  0  0  0  0  0  0  0
  161.0060  207.7770  150.6730 C   0  0  1  0  0  3  0  0  0  0  0  0
  161.5570  209.9400  156.5760 C   0  0  0  0  0  1  0  0  0  0  0  0
  161.0500  209.6030  151.9990 C   0  0  2  0  0  0  0  0  0  0  0  0
  163.1940  207.1830  151.5170 O   0  0  0  0  0  1  0  0  0  0  0  0
  162.4950  208.1180  150.7480 C   0  0  2  0  0  3  0  0  0  0  0  0
  160.2490  209.5700  155.8840 C   0  0  1  0  0  3  0  0  0  0  0  0
  159.3760  210.7910  155.7750 C   0  0  0  0  0  0  0  0  0  0  0  0
  162.4180  209.3750  151.4880 C   0  0  0  0  0  0  0  0  0  0  0  0
  158.4580  210.9530  156.5630 O   0  0  0  0  0  0  0  0  0  0  0  0
  159.6760  211.8510  154.7540 C   0  0  0  0  0  2  0  0  0  0  0  0
  160.6390  206.4820  154.0920 C   0  0  0  0  0  2  0  0  0  0  0  0
  160.8500  206.6930  155.5690 C   0  0  0  0  0  2  0  0  0  0  0  0
  161.3950  207.7050  154.5740 C   0  0  0  0  0  3  0  0  0  0  0  0
  160.7210  206.2800  150.6650 C   0  0  0  0  0  2  0  0  0  0  0  0
  160.5880  205.8100  149.2970 N   0  0  0  0  0  0  0  0  0  0  0  0
  161.6880  204.4220  147.6030 C   0  0  1  0  0  0  0  0  0  0  0  0
  160.7190  205.1720  146.6740 C   0  0  0  0  0  2  0  0  0  0  0  0
  163.0520  204.3390  146.9470 C   0  0  0  0  0  1  0  0  0  0  0  0
  160.4440  206.9890  148.4370 C   0  0  0  0  0  2  0  0  0  0  0  0
  160.7060  206.6780  146.9510 C   0  0  0  0  0  2  0  0  0  0  0  0
  161.8310  205.1270  148.9560 C   0  0  0  0  0  2  0  0  0  0  0  0
  161.1870  203.0780  147.8290 N   0  0  0  0  0  0  0  0  0  0  0  0
  160.8210  201.8340  147.3310 O   0  0  0  0  0  0  0  0  0  0  0  0
  160.3820  201.7130  149.8520 O   0  0  0  0  0  0  0  0  0  0  0  0
  160.6990  202.0910  148.6940 C   0  0  0  0  0  0  0  0  0  0  0  0
  159.1520  212.7170  151.9640 O   0  0  0  0  0  0  0  0  0  0  0  0
  158.1320  213.4920  149.9290 O   0  0  0  0  0  0  0  0  0  0  0  0
  160.3270  213.9440  150.3870 O   0  0  0  0  0  1  0  0  0  0  0  0
  159.2470  213.4060  150.7510 C   0  0  0  0  0  0  0  0  0  0  0  0
  1  5  1  0  0  0  0
  2 20  1  1  0  0  0
  2 13  1  0  0  0  0
  3 10  1  0  0  0  0
  4  7  1  6  0  0  0
  4  2  1  0  0  0  0
  5  7  2  0  0  0  0
  7 17  1  0  0  0  0
  8 21  1  1  0  0  0
  8 12  1  0  0  0  0
  8  3  1  0  0  0  0
 10  1  1  6  0  0  0
 10  4  1  0  0  0  0
 12 15  1  0  0  0  0
 12 11  1  1  0  0  0
 13  9  1  6  0  0  0
 14 13  1  0  0  0  0
 14 16  2  0  0  0  0
 15  6  2  0  0  0  0
 15 10  1  0  0  0  0
 17 14  1  0  0  0  0
 18 20  1  0  0  0  0
 18 19  1  0  0  0  0
 20 19  1  0  0  0  0
 22 21  1  0  0  0  0
 23 25  1  6  0  0  0
 23 29  1  0  0  0  0
 23 28  1  0  0  0  0
 24 27  1  0  0  0  0
 24 23  1  0  0  0  0
 26 22  1  0  0  0  0
 27 26  1  0  0  0  0
 28 22  1  0  0  0  0
 29 32  1  0  0  0  0
 30 29  1  0  0  0  0
 30 32  1  0  0  0  0
 32 31  2  0  0  0  0
 33  5  1  0  0  0  0
 34 36  2  0  0  0  0
 35 36  1  0  0  0  0
 36 33  1  0  0  0  0
M  END
>  <MODEL>
1

>  <REMARK>
 VINA RESULT:      -5.8      0.000      0.000
  Name = 
  6 active torsions:
  status: ('A' for Active; 'I' for Inactive)
    1  A    between atoms: C_4  and  C_33
    2  A    between atoms: N_7  and  C_10
    3  A    between atoms: N_9  and  C_19
    4  A    between atoms: C_11  and  O_25
    5  A    between atoms: C_16  and  C_19
    6  A    between atoms: O_25  and  C_35
                            x       y       z     vdW  Elec       q    Type
                         _______ _______ _______ _____ _____    ______ ____

>  <TORSDO>
F 6

$$$$
=
 OpenBabel11072413333D

 36 41  0  0  1  0  0  0  0  0999 V2000
  161.8620  210.2270  140.8190 O   0  0  0  0  0  0  0  0  0  0  0  0
  158.9080  212.1610  140.0540 C   0  0  2  0  0  3  0  0  0  0  0  0
  160.6080  211.5740  142.2230 O   0  0  0  0  0  0  0  0  0  0  0  0
  160.3550  211.7020  139.7720 C   0  0  2  0  0  3  0  0  0  0  0  0
  161.2340  209.5620  139.7820 C   0  0  0  0  0  0  0  0  0  0  0  0
  163.0780  212.8560  140.1180 O   0  0  0  0  0  0  0  0  0  0  0  0
  160.3500  210.3290  139.1820 C   0  0  0  0  0  0  0  0  0  0  0  0
  161.4940  212.2000  143.1340 C   0  0  1  0  0  3  0  0  0  0  0  0
  158.4160  212.9550  137.6770 C   0  0  0  0  0  1  0  0  0  0  0  0
  161.2930  211.5200  140.9920 C   0  0  2  0  0  0  0  0  0  0  0  0
  161.8880  214.4450  142.3250 O   0  0  0  0  0  1  0  0  0  0  0  0
  162.4200  213.1530  142.3780 C   0  0  2  0  0  3  0  0  0  0  0  0
  158.0250  211.9890  138.7910 C   0  0  1  0  0  3  0  0  0  0  0  0
  158.0970  210.5760  138.2770 C   0  0  0  0  0  0  0  0  0  0  0  0
  162.3450  212.5560  141.0470 C   0  0  0  0  0  0  0  0  0  0  0  0
  157.0750  209.9960  137.9500 O   0  0  0  0  0  0  0  0  0  0  0  0
  159.4270  209.9020  138.0880 C   0  0  0  0  0  2  0  0  0  0  0  0
  158.2450  213.6220  141.9560 C   0  0  0  0  0  2  0  0  0  0  0  0
  157.4420  214.0750  140.7630 C   0  0  0  0  0  2  0  0  0  0  0  0
  158.8750  213.6010  140.5760 C   0  0  0  0  0  3  0  0  0  0  0  0
  160.7400  212.8610  144.2820 C   0  0  0  0  0  2  0  0  0  0  0  0
  161.5650  212.8640  145.4790 N   0  0  0  0  0  0  0  0  0  0  0  0
  161.4550  212.6190  147.9140 C   0  0  1  0  0  0  0  0  0  0  0  0
  162.8590  213.2370  147.8210 C   0  0  0  0  0  2  0  0  0  0  0  0
  160.6990  213.2550  149.0640 C   0  0  0  0  0  1  0  0  0  0  0  0
  162.3070  214.1280  145.5010 C   0  0  0  0  0  2  0  0  0  0  0  0
  162.8930  214.4510  146.8890 C   0  0  0  0  0  2  0  0  0  0  0  0
  160.6590  212.8290  146.6220 C   0  0  0  0  0  2  0  0  0  0  0  0
  161.5780  211.1920  148.1590 N   0  0  0  0  0  0  0  0  0  0  0  0
  161.4870  209.8840  147.7030 O   0  0  0  0  0  0  0  0  0  0  0  0
  162.1830  209.7000  150.1610 O   0  0  0  0  0  0  0  0  0  0  0  0
  161.8520  210.1260  149.0240 C   0  0  0  0  0  0  0  0  0  0  0  0
  161.4860  208.2330  139.4230 O   0  0  0  0  0  0  0  0  0  0  0  0
  163.2220  206.6180  139.8220 O   0  0  0  0  0  0  0  0  0  0  0  0
  161.6450  207.0620  141.4170 O   0  0  0  0  0  1  0  0  0  0  0  0
  162.0980  207.3000  140.2660 C   0  0  0  0  0  0  0  0  0  0  0  0
  2 20  1  6  0  0  0
  3  8  1  0  0  0  0
  4  7  1  1  0  0  0
  4  2  1  0  0  0  0
  4 10  1  0  0  0  0
  5  1  1  0  0  0  0
  6 15  2  0  0  0  0
  7  5  2  0  0  0  0
  8 21  1  1  0  0  0
 10  1  1  6  0  0  0
 10 15  1  0  0  0  0
 10  3  1  0  0  0  0
 12 11  1  6  0  0  0
 12  8  1  0  0  0  0
 13  9  1  6  0  0  0
 13  2  1  0  0  0  0
 14 13  1  0  0  0  0
 15 12  1  0  0  0  0
 16 14  2  0  0  0  0
 17 14  1  0  0  0  0
 17  7  1  0  0  0  0
 19 18  1  0  0  0  0
 20 19  1  0  0  0  0
 20 18  1  0  0  0  0
 21 22  1  0  0  0  0
 22 26  1  0  0  0  0
 22 28  1  0  0  0  0
 23 29  1  0  0  0  0
 23 25  1  1  0  0  0
 24 23  1  0  0  0  0
 26 27  1  0  0  0  0
 27 24  1  0  0  0  0
 28 23  1  0  0  0  0
 29 32  1  0  0  0  0
 30 29  1  0  0  0  0
 30 32  1  0  0  0  0
 32 31  2  0  0  0  0
 33  5  1  0  0  0  0
 33 36  1  0  0  0  0
 34 36  2  0  0  0  0
 36 35  1  0  0  0  0
M  END
>  <MODEL>
2

>  <REMARK>
 VINA RESULT:      -5.0      8.055     12.375
  Name = 
  6 active torsions:
  status: ('A' for Active; 'I' for Inactive)
    1  A    between atoms: C_4  and  C_33
    2  A    between atoms: N_7  and  C_10
    3  A    between atoms: N_9  and  C_19
    4  A    between atoms: C_11  and  O_25
    5  A    between atoms: C_16  and  C_19
    6  A    between atoms: O_25  and  C_35
                            x       y       z     vdW  Elec       q    Type
                         _______ _______ _______ _____ _____    ______ ____

>  <TORSDO>
F 6

$$$$
=
 OpenBabel11072413333D

 36 41  0  0  1  0  0  0  0  0999 V2000
  160.0790  210.6560  151.7740 O   0  0  0  0  0  0  0  0  0  0  0  0
  160.2770  209.3270  155.1270 C   0  0  2  0  0  3  0  0  0  0  0  0
  160.0440  208.4460  152.4610 O   0  0  0  0  0  0  0  0  0  0  0  0
  160.7680  210.2450  153.9880 C   0  0  2  0  0  3  0  0  0  0  0  0
  159.5420  211.6290  152.5970 C   0  0  0  0  0  0  0  0  0  0  0  0
  163.0170  210.2230  152.0350 O   0  0  0  0  0  0  0  0  0  0  0  0
  159.8640  211.4270  153.8560 C   0  0  0  0  0  0  0  0  0  0  0  0
  160.7260  207.6750  151.4880 C   0  0  1  0  0  3  0  0  0  0  0  0
  161.3770  210.6440  157.0180 C   0  0  0  0  0  1  0  0  0  0  0  0
  160.7450  209.6660  152.5490 C   0  0  2  0  0  0  0  0  0  0  0  0
  162.9580  207.2710  152.3280 O   0  0  0  0  0  1  0  0  0  0  0  0
  162.2030  208.0690  151.4640 C   0  0  2  0  0  3  0  0  0  0  0  0
  160.0630  210.1410  156.4290 C   0  0  1  0  0  3  0  0  0  0  0  0
  159.1440  211.3080  156.1850 C   0  0  0  0  0  0  0  0  0  0  0  0
  162.1040  209.4120  152.0280 C   0  0  0  0  0  0  0  0  0  0  0  0
  158.2450  211.5490  156.9740 O   0  0  0  0  0  0  0  0  0  0  0  0
  159.3760  212.2270  155.0190 C   0  0  0  0  0  2  0  0  0  0  0  0
  160.5070  206.8500  155.0650 C   0  0  0  0  0  2  0  0  0  0  0  0
  160.7580  207.2710  156.4910 C   0  0  0  0  0  2  0  0  0  0  0  0
  161.2340  208.1510  155.3460 C   0  0  0  0  0  3  0  0  0  0  0  0
  160.4940  206.1830  151.6930 C   0  0  0  0  0  2  0  0  0  0  0  0
  161.0060  205.4410  150.5530 N   0  0  0  0  0  0  0  0  0  0  0  0
  160.9530  205.3590  148.1050 C   0  0  1  0  0  0  0  0  0  0  0  0
  161.5240  203.9540  148.3580 C   0  0  0  0  0  2  0  0  0  0  0  0
  159.9010  205.2880  147.0160 C   0  0  0  0  0  1  0  0  0  0  0  0
  160.6460  204.0320  150.7460 C   0  0  0  0  0  2  0  0  0  0  0  0
  160.7530  203.2070  149.4490 C   0  0  0  0  0  2  0  0  0  0  0  0
  160.3180  205.9460  149.3700 C   0  0  0  0  0  2  0  0  0  0  0  0
  162.0270  206.2380  147.6720 N   0  0  0  0  0  0  0  0  0  0  0  0
  163.1320  206.4750  146.8670 O   0  0  0  0  0  0  0  0  0  0  0  0
  162.8630  208.5870  148.2900 O   0  0  0  0  0  0  0  0  0  0  0  0
  162.7190  207.4510  147.7690 C   0  0  0  0  0  0  0  0  0  0  0  0
  158.7370  212.6850  152.1570 O   0  0  0  0  0  0  0  0  0  0  0  0
  157.9410  213.7580  150.1580 O   0  0  0  0  0  0  0  0  0  0  0  0
  160.1590  213.8080  150.7120 O   0  0  0  0  0  1  0  0  0  0  0  0
  158.9920  213.4320  151.0030 C   0  0  0  0  0  0  0  0  0  0  0  0
  1  5  1  0  0  0  0
  2 20  1  1  0  0  0
  2 13  1  0  0  0  0
  3 10  1  0  0  0  0
  4  7  1  6  0  0  0
  4  2  1  0  0  0  0
  5  7  2  0  0  0  0
  7 17  1  0  0  0  0
  8 21  1  1  0  0  0
  8  3  1  0  0  0  0
 10  1  1  6  0  0  0
 10  4  1  0  0  0  0
 12  8  1  0  0  0  0
 12 15  1  0  0  0  0
 12 11  1  1  0  0  0
 13  9  1  6  0  0  0
 14 13  1  0  0  0  0
 14 16  2  0  0  0  0
 15  6  2  0  0  0  0
 15 10  1  0  0  0  0
 17 14  1  0  0  0  0
 18 20  1  0  0  0  0
 18 19  1  0  0  0  0
 20 19  1  0  0  0  0
 22 26  1  0  0  0  0
 22 21  1  0  0  0  0
 23 25  1  6  0  0  0
 23 24  1  0  0  0  0
 23 28  1  0  0  0  0
 24 27  1  0  0  0  0
 27 26  1  0  0  0  0
 28 22  1  0  0  0  0
 29 32  1  0  0  0  0
 29 23  1  0  0  0  0
 30 29  1  0  0  0  0
 30 32  1  0  0  0  0
 32 31  2  0  0  0  0
 33  5  1  0  0  0  0
 34 36  2  0  0  0  0
 35 36  1  0  0  0  0
 36 33  1  0  0  0  0
M  END
>  <MODEL>
3

>  <REMARK>
 VINA RESULT:      -4.1      1.710      2.330
  Name = 
  6 active torsions:
  status: ('A' for Active; 'I' for Inactive)
    1  A    between atoms: C_4  and  C_33
    2  A    between atoms: N_7  and  C_10
    3  A    between atoms: N_9  and  C_19
    4  A    between atoms: C_11  and  O_25
    5  A    between atoms: C_16  and  C_19
    6  A    between atoms: O_25  and  C_35
                            x       y       z     vdW  Elec       q    Type
                         _______ _______ _______ _____ _____    ______ ____

>  <TORSDO>
F 6

$$$$
=
 OpenBabel11072413333D

 36 41  0  0  1  0  0  0  0  0999 V2000
  161.7450  205.7680  147.3330 O   0  0  0  0  0  0  0  0  0  0  0  0
  161.2120  203.0900  149.6970 C   0  0  2  0  0  3  0  0  0  0  0  0
  162.3370  205.6700  149.5680 O   0  0  0  0  0  0  0  0  0  0  0  0
  160.7300  204.0650  148.6020 C   0  0  2  0  0  3  0  0  0  0  0  0
  161.7280  204.6040  146.5860 C   0  0  0  0  0  0  0  0  0  0  0  0
  159.1350  206.5780  148.5200 O   0  0  0  0  0  0  0  0  0  0  0  0
  161.2040  203.6050  147.2620 C   0  0  0  0  0  0  0  0  0  0  0  0
  162.1910  206.9680  150.1160 C   0  0  1  0  0  3  0  0  0  0  0  0
  159.3320  201.3900  149.3810 C   0  0  0  0  0  1  0  0  0  0  0  0
  161.2760  205.5150  148.6530 C   0  0  2  0  0  0  0  0  0  0  0  0
  160.0810  207.0150  151.2990 O   0  0  0  0  0  1  0  0  0  0  0  0
  160.7150  207.3680  150.1040 C   0  0  2  0  0  3  0  0  0  0  0  0
  160.8370  201.6300  149.3300 C   0  0  1  0  0  3  0  0  0  0  0  0
  161.3560  201.2730  147.9630 C   0  0  0  0  0  0  0  0  0  0  0  0
  160.2360  206.4910  149.0390 C   0  0  0  0  0  0  0  0  0  0  0  0
  161.9160  200.2030  147.7870 O   0  0  0  0  0  0  0  0  0  0  0  0
  161.1180  202.1890  146.7960 C   0  0  0  0  0  2  0  0  0  0  0  0
  161.8230  203.7970  152.0030 C   0  0  0  0  0  2  0  0  0  0  0  0
  161.0960  202.4830  152.1340 C   0  0  0  0  0  2  0  0  0  0  0  0
  160.6660  203.4850  151.0730 C   0  0  0  0  0  3  0  0  0  0  0  0
  162.8410  207.0710  151.4910 C   0  0  0  0  0  2  0  0  0  0  0  0
  161.8750  207.5590  152.4600 N   0  0  0  0  0  0  0  0  0  0  0  0
  161.2970  209.5210  153.8090 C   0  0  1  0  0  0  0  0  0  0  0  0
  160.4320  208.4870  154.5480 C   0  0  0  0  0  2  0  0  0  0  0  0
  161.9830  210.4190  154.8200 C   0  0  0  0  0  1  0  0  0  0  0  0
  161.8570  206.6120  153.5800 C   0  0  0  0  0  2  0  0  0  0  0  0
  161.2040  207.1990  154.8460 C   0  0  0  0  0  2  0  0  0  0  0  0
  162.3640  208.8470  152.9400 C   0  0  0  0  0  2  0  0  0  0  0  0
  160.4450  210.3320  152.9560 N   0  0  0  0  0  0  0  0  0  0  0  0
  160.2100  210.9510  151.7360 O   0  0  0  0  0  0  0  0  0  0  0  0
  158.1860  211.5320  153.1940 O   0  0  0  0  0  0  0  0  0  0  0  0
  159.2770  211.0780  152.7600 C   0  0  0  0  0  0  0  0  0  0  0  0
  162.2240  204.4890  145.2830 O   0  0  0  0  0  0  0  0  0  0  0  0
  160.1850  204.2800  144.0260 O   0  0  0  0  0  1  0  0  0  0  0  0
  161.9570  205.4660  143.1980 O   0  0  0  0  0  0  0  0  0  0  0  0
  161.4770  204.7750  144.1360 C   0  0  0  0  0  0  0  0  0  0  0  0
  2 20  1  1  0  0  0
  3  8  1  0  0  0  0
  4  7  1  6  0  0  0
  4 10  1  0  0  0  0
  4  2  1  0  0  0  0
  5  7  2  0  0  0  0
  5  1  1  0  0  0  0
  6 15  2  0  0  0  0
  8 21  1  1  0  0  0
 10  1  1  6  0  0  0
 10 15  1  0  0  0  0
 10  3  1  0  0  0  0
 12  8  1  0  0  0  0
 12 11  1  1  0  0  0
 13  9  1  6  0  0  0
 13  2  1  0  0  0  0
 14 13  1  0  0  0  0
 15 12  1  0  0  0  0
 16 14  2  0  0  0  0
 17  7  1  0  0  0  0
 17 14  1  0  0  0  0
 18 19  1  0  0  0  0
 20 18  1  0  0  0  0
 20 19  1  0  0  0  0
 21 22  1  0  0  0  0
 22 28  1  0  0  0  0
 22 26  1  0  0  0  0
 23 24  1  0  0  0  0
 23 25  1  1  0  0  0
 24 27  1  0  0  0  0
 26 27  1  0  0  0  0
 28 23  1  0  0  0  0
 29 23  1  0  0  0  0
 30 32  1  0  0  0  0
 30 29  1  0  0  0  0
 32 29  1  0  0  0  0
 32 31  2  0  0  0  0
 33  5  1  0  0  0  0
 34 36  1  0  0  0  0
 35 36  2  0  0  0  0
 36 33  1  0  0  0  0
M  END
>  <MODEL>
4

>  <REMARK>
 VINA RESULT:      -3.4      2.499      8.430
  Name = 
  6 active torsions:
  status: ('A' for Active; 'I' for Inactive)
    1  A    between atoms: C_4  and  C_33
    2  A    between atoms: N_7  and  C_10
    3  A    between atoms: N_9  and  C_19
    4  A    between atoms: C_11  and  O_25
    5  A    between atoms: C_16  and  C_19
    6  A    between atoms: O_25  and  C_35
                            x       y       z     vdW  Elec       q    Type
                         _______ _______ _______ _____ _____    ______ ____

>  <TORSDO>
F 6

$$$$
