=
 OpenBabel11072412093D

 50 56  0  0  1  0  0  0  0  0999 V2000
  159.5220  212.4580  144.3070 N   0  0  0  0  0  2  0  0  0  0  0  0
  158.8720  213.3140  146.5890 C   0  0  0  0  0  0  0  0  0  0  0  0
  159.7300  212.4600  145.6180 C   0  0  2  0  0  3  0  0  0  0  0  0
  160.9880  211.8530  146.2450 C   0  0  0  0  0  2  0  0  0  0  0  0
  160.0140  214.2510  150.2850 C   0  0  0  0  0  2  0  0  0  0  0  0
  160.8110  213.1450  148.2780 C   0  0  2  0  0  3  0  0  0  0  0  0
  162.3510  211.3730  148.2340 O   0  0  0  0  0  0  0  0  0  0  0  0
  159.4620  213.5300  148.0080 N   0  0  0  0  0  0  0  0  0  0  0  0
  162.6340  211.2820  149.6530 C   0  0  0  0  0  2  0  0  0  0  0  0
  161.5360  211.9300  150.5570 C   0  0  1  0  0  3  0  0  0  0  0  0
  161.0340  211.8020  147.8180 C   0  0  2  0  0  3  0  0  0  0  0  0
  157.6630  213.5500  146.3860 O   0  0  0  0  0  0  0  0  0  0  0  0
  159.0210  214.4530  149.0920 C   0  0  1  0  0  3  0  0  0  0  0  0
  161.0190  213.1870  149.7730 C   0  0  2  0  0  3  0  0  0  0  0  0
  157.5990  214.1150  149.4730 C   0  0  0  0  0  3  0  0  0  0  0  0
  157.4060  214.2850  151.0090 C   0  0  0  0  0  2  0  0  0  0  0  0
  157.5350  212.8610  150.4000 C   0  0  0  0  0  2  0  0  0  0  0  0
  160.5830  210.9510  150.8200 O   0  0  0  0  0  0  0  0  0  0  0  0
  161.9680  210.5370  152.6250 O   0  0  0  0  0  1  0  0  0  0  0  0
  160.8820  210.0840  151.8500 C   0  0  1  0  0  0  0  0  0  0  0  0
  159.6990  210.0440  152.7130 O   0  0  0  0  0  0  0  0  0  0  0  0
  159.8490  210.8270  153.8790 C   0  0  0  0  0  1  0  0  0  0  0  0
  161.1240  208.6190  151.2410 C   0  0  0  0  0  2  0  0  0  0  0  0
  161.8530  207.5820  152.0500 C   0  0  0  0  0  2  0  0  0  0  0  0
  161.0770  205.9470  151.7020 S   0  0  0  0  0  0  0  0  0  0  0  0
  161.0690  206.0770  148.9860 C   0  0  0  0  0  2  0  0  0  0  0  0
  161.6370  205.2480  150.0230 C   0  0  2  0  0  3  0  0  0  0  0  0
  160.6920  204.6540  149.0420 N   0  0  0  0  0  0  0  0  0  0  0  0
  161.4920  203.9950  147.9730 C   0  0  0  0  0  1  0  0  0  0  0  0
  158.7330  213.5530  143.5680 C   0  0  0  0  0  2  0  0  0  0  0  0
  159.3710  213.7980  142.0510 C   0  0  2  0  0  3  0  0  0  0  0  0
  159.0010  212.7640  141.0970 O   0  0  0  0  0  0  0  0  0  0  0  0
  158.2450  212.9330  139.9590 C   0  0  0  0  0  0  0  0  0  0  0  0
  156.4570  212.6800  138.6950 C   0  0  2  0  0  3  0  0  0  0  0  0
  157.6390  212.4820  137.7980 N   0  0  0  0  0  0  0  0  0  0  0  0
  156.9170  212.8490  140.0380 N   0  0  0  0  0  0  0  0  0  0  0  0
  158.6680  212.7430  138.5430 C   0  0  0  0  0  0  0  0  0  0  0  0
  160.0250  212.9560  137.9840 O   0  0  0  0  0  0  0  0  0  0  0  0
  162.3370  212.3410  138.5350 C   0  0  0  0  0  2  0  0  0  0  0  0
  163.2520  211.1760  138.9700 C   0  0  0  0  0  2  0  0  0  0  0  0
  162.6170  210.1640  139.8450 N   0  0  0  0  0  2  0  0  0  0  0  0
  160.5320  210.6080  138.6220 C   0  0  0  0  0  2  0  0  0  0  0  0
  161.0110  211.9070  137.9060 C   0  0  0  0  0  3  0  0  0  0  0  0
  161.1820  210.4180  140.0070 C   0  0  0  0  0  2  0  0  0  0  0  0
  154.8390  211.8070  138.3270 S   0  0  0  0  0  0  0  0  0  0  0  0
  156.4900  209.4230  137.5640 N   0  0  0  0  0  0  0  0  0  0  0  0
  155.8060  210.3690  137.9100 C   0  0  0  0  0  0  0  0  0  0  0  0
  160.9040  213.3760  142.0490 C   0  0  0  0  0  2  0  0  0  0  0  0
  162.0170  214.0030  142.9030 C   0  0  0  0  0  3  0  0  0  0  0  0
  162.6730  213.2700  143.7080 O   0  0  0  0  0  0  0  0  0  0  0  0
  2  8  1  0  0  0  0
  3  1  1  6  0  0  0
  3  4  1  0  0  0  0
  3  2  1  0  0  0  0
  6  8  1  1  0  0  0
  6 14  1  0  0  0  0
  7  9  1  0  0  0  0
  8 13  1  0  0  0  0
  9 10  1  0  0  0  0
 10 18  1  6  0  0  0
 11  4  1  6  0  0  0
 11  7  1  0  0  0  0
 11  6  1  0  0  0  0
 12  2  2  0  0  0  0
 13 15  1  1  0  0  0
 13  5  1  0  0  0  0
 14  5  1  1  0  0  0
 14 10  1  0  0  0  0
 15 17  1  0  0  0  0
 15 16  1  0  0  0  0
 17 16  1  0  0  0  0
 18 20  1  0  0  0  0
 20 19  1  1  0  0  0
 20 21  1  0  0  0  0
 21 22  1  0  0  0  0
 23 20  1  0  0  0  0
 23 24  1  0  0  0  0
 25 24  1  0  0  0  0
 26 28  1  0  0  0  0
 26 27  1  0  0  0  0
 27 25  1  1  0  0  0
 28 27  1  0  0  0  0
 29 28  1  0  0  0  0
 30  1  1  0  0  0  0
 31 48  1  1  0  0  0
 31 30  1  0  0  0  0
 32 31  1  0  0  0  0
 33 36  2  0  0  0  0
 33 32  1  0  0  0  0
 34 45  1  1  0  0  0
 34 36  1  0  0  0  0
 35 37  2  0  0  0  0
 35 34  1  0  0  0  0
 37 33  1  0  0  0  0
 38 37  1  0  0  0  0
 39 40  1  0  0  0  0
 40 41  1  0  0  0  0
 41 44  1  0  0  0  0
 42 44  1  0  0  0  0
 43 38  1  0  0  0  0
 43 39  1  0  0  0  0
 43 42  1  0  0  0  0
 46 47  3  0  0  0  0
 47 45  1  0  0  0  0
 48 49  1  0  0  0  0
 49 50  2  0  0  0  0
M  END
>  <MODEL>
1

>  <REMARK>
 VINA RESULT:      -3.3      0.000      0.000
  Name = 
  18 active torsions:
  status: ('A' for Active; 'I' for Inactive)
    1  A    between atoms: N_1  and  C_33
    2  A    between atoms: C_8  and  O_34
    3  A    between atoms: C_9  and  S_21
    4  A    between atoms: S_10  and  C_11
    5  A    between atoms: S_10  and  C_26
    6  A    between atoms: C_13  and  C_23
    7  A    between atoms: C_15  and  C_39
    8  A    between atoms: S_21  and  C_47
    9  A    between atoms: C_23  and  C_28
   10  A    between atoms: O_25  and  C_43
   11  A    between atoms: C_27  and  O_44
   12  A    between atoms: C_28  and  C_33
   13  A    between atoms: C_28  and  O_34
   14  A    between atoms: C_32  and  C_43
   15  A    between atoms: C_32  and  C_47
   16  A    between atoms: C_41  and  O_49
   17  A    between atoms: C_43  and  O_44
   18  A    between atoms: C_48  and  O_49
                            x       y       z     vdW  Elec       q    Type
                         _______ _______ _______ _____ _____    ______ ____

>  <TORSDO>
F 18

$$$$
=
 OpenBabel11072412093D

 50 56  0  0  1  0  0  0  0  0999 V2000
  160.8500  212.6420  146.1150 N   0  0  0  0  0  2  0  0  0  0  0  0
  159.6900  212.9600  148.3310 C   0  0  0  0  0  0  0  0  0  0  0  0
  160.7680  212.3390  147.4050 C   0  0  2  0  0  3  0  0  0  0  0  0
  161.8800  211.5850  148.1380 C   0  0  0  0  0  2  0  0  0  0  0  0
  159.9650  213.0030  152.3020 C   0  0  0  0  0  2  0  0  0  0  0  0
  161.2200  212.3770  150.3210 C   0  0  2  0  0  3  0  0  0  0  0  0
  162.7950  210.6400  150.2150 O   0  0  0  0  0  0  0  0  0  0  0  0
  159.9480  212.8350  149.8570 N   0  0  0  0  0  0  0  0  0  0  0  0
  162.7660  210.2200  151.6030 C   0  0  0  0  0  2  0  0  0  0  0  0
  161.4750  210.6590  152.3660 C   0  0  1  0  0  3  0  0  0  0  0  0
  161.5860  211.1730  149.6280 C   0  0  2  0  0  3  0  0  0  0  0  0
  158.5460  213.2550  147.9270 O   0  0  0  0  0  0  0  0  0  0  0  0
  159.2490  213.4900  150.9980 C   0  0  1  0  0  3  0  0  0  0  0  0
  161.0950  212.0710  151.7950 C   0  0  2  0  0  3  0  0  0  0  0  0
  157.7920  213.0950  150.9700 C   0  0  0  0  0  3  0  0  0  0  0  0
  156.9350  214.2630  150.3980 C   0  0  0  0  0  2  0  0  0  0  0  0
  156.9360  213.9830  151.9270 C   0  0  0  0  0  2  0  0  0  0  0  0
  160.5230  209.6600  152.1830 O   0  0  0  0  0  0  0  0  0  0  0  0
  161.9620  208.5110  153.5810 O   0  0  0  0  0  1  0  0  0  0  0  0
  160.7900  208.4570  152.8010 C   0  0  1  0  0  0  0  0  0  0  0  0
  159.6620  208.1930  153.6970 O   0  0  0  0  0  0  0  0  0  0  0  0
  160.0760  207.7900  154.9860 C   0  0  0  0  0  1  0  0  0  0  0  0
  160.8420  207.3030  151.6860 C   0  0  0  0  0  2  0  0  0  0  0  0
  161.6130  206.0390  151.9500 C   0  0  0  0  0  2  0  0  0  0  0  0
  160.9640  204.7340  150.8210 S   0  0  0  0  0  0  0  0  0  0  0  0
  161.8120  206.5160  148.9500 C   0  0  0  0  0  2  0  0  0  0  0  0
  161.1830  205.2170  148.9940 C   0  0  2  0  0  3  0  0  0  0  0  0
  160.4650  206.3600  148.3710 N   0  0  0  0  0  0  0  0  0  0  0  0
  160.6780  206.2910  146.8990 C   0  0  0  0  0  1  0  0  0  0  0  0
  160.2020  213.8900  145.4900 C   0  0  0  0  0  2  0  0  0  0  0  0
  159.4420  213.4920  144.0650 C   0  0  2  0  0  3  0  0  0  0  0  0
  160.1170  214.0120  142.8870 O   0  0  0  0  0  0  0  0  0  0  0  0
  159.8410  213.6920  141.5770 C   0  0  0  0  0  0  0  0  0  0  0  0
  158.5310  213.1570  139.8870 C   0  0  2  0  0  3  0  0  0  0  0  0
  159.7440  212.2870  139.7710 N   0  0  0  0  0  0  0  0  0  0  0  0
  158.6210  213.9230  141.0910 N   0  0  0  0  0  0  0  0  0  0  0  0
  160.5380  212.6990  140.7110 C   0  0  0  0  0  0  0  0  0  0  0  0
  161.9690  212.3140  140.7730 O   0  0  0  0  0  0  0  0  0  0  0  0
  161.3540  209.9740  140.3580 C   0  0  0  0  0  2  0  0  0  0  0  0
  161.5920  208.7630  139.4310 C   0  0  0  0  0  2  0  0  0  0  0  0
  161.8720  209.0950  138.0150 N   0  0  0  0  0  2  0  0  0  0  0  0
  162.9920  211.1170  138.8490 C   0  0  0  0  0  2  0  0  0  0  0  0
  162.4530  211.0380  140.3090 C   0  0  0  0  0  3  0  0  0  0  0  0
  162.0010  210.5420  137.8170 C   0  0  0  0  0  2  0  0  0  0  0  0
  156.8770  212.5560  139.2420 S   0  0  0  0  0  0  0  0  0  0  0  0
  158.1100  209.8600  138.7930 N   0  0  0  0  0  0  0  0  0  0  0  0
  157.6500  210.9730  138.9750 C   0  0  0  0  0  0  0  0  0  0  0  0
  158.1740  214.4290  143.8630 C   0  0  0  0  0  2  0  0  0  0  0  0
  156.9160  214.4530  144.7440 C   0  0  0  0  0  3  0  0  0  0  0  0
  155.7690  214.4530  144.1950 O   0  0  0  0  0  0  0  0  0  0  0  0
  2  8  1  0  0  0  0
  3  1  1  1  0  0  0
  3  4  1  0  0  0  0
  3  2  1  0  0  0  0
  6  8  1  6  0  0  0
  6 14  1  0  0  0  0
  7  9  1  0  0  0  0
  8 13  1  0  0  0  0
  9 10  1  0  0  0  0
 10 18  1  6  0  0  0
 11  4  1  6  0  0  0
 11  7  1  0  0  0  0
 11  6  1  0  0  0  0
 12  2  2  0  0  0  0
 13 15  1  1  0  0  0
 13  5  1  0  0  0  0
 14  5  1  6  0  0  0
 14 10  1  0  0  0  0
 15 17  1  0  0  0  0
 16 15  1  0  0  0  0
 16 17  1  0  0  0  0
 18 20  1  0  0  0  0
 20 19  1  1  0  0  0
 20 21  1  0  0  0  0
 21 22  1  0  0  0  0
 23 24  1  0  0  0  0
 23 20  1  0  0  0  0
 25 24  1  0  0  0  0
 26 27  1  0  0  0  0
 27 25  1  1  0  0  0
 28 26  1  0  0  0  0
 28 27  1  0  0  0  0
 29 28  1  0  0  0  0
 30  1  1  0  0  0  0
 31 48  1  1  0  0  0
 31 30  1  0  0  0  0
 32 31  1  0  0  0  0
 33 32  1  0  0  0  0
 34 45  1  1  0  0  0
 34 36  1  0  0  0  0
 35 34  1  0  0  0  0
 35 37  2  0  0  0  0
 36 33  2  0  0  0  0
 37 38  1  0  0  0  0
 37 33  1  0  0  0  0
 40 39  1  0  0  0  0
 41 40  1  0  0  0  0
 42 43  1  0  0  0  0
 43 39  1  0  0  0  0
 43 38  1  0  0  0  0
 44 41  1  0  0  0  0
 44 42  1  0  0  0  0
 46 47  3  0  0  0  0
 47 45  1  0  0  0  0
 48 49  1  0  0  0  0
 50 49  2  0  0  0  0
M  END
>  <MODEL>
2

>  <REMARK>
 VINA RESULT:      -2.4      1.757      2.566
  Name = 
  18 active torsions:
  status: ('A' for Active; 'I' for Inactive)
    1  A    between atoms: N_1  and  C_33
    2  A    between atoms: C_8  and  O_34
    3  A    between atoms: C_9  and  S_21
    4  A    between atoms: S_10  and  C_11
    5  A    between atoms: S_10  and  C_26
    6  A    between atoms: C_13  and  C_23
    7  A    between atoms: C_15  and  C_39
    8  A    between atoms: S_21  and  C_47
    9  A    between atoms: C_23  and  C_28
   10  A    between atoms: O_25  and  C_43
   11  A    between atoms: C_27  and  O_44
   12  A    between atoms: C_28  and  C_33
   13  A    between atoms: C_28  and  O_34
   14  A    between atoms: C_32  and  C_43
   15  A    between atoms: C_32  and  C_47
   16  A    between atoms: C_41  and  O_49
   17  A    between atoms: C_43  and  O_44
   18  A    between atoms: C_48  and  O_49
                            x       y       z     vdW  Elec       q    Type
                         _______ _______ _______ _____ _____    ______ ____

>  <TORSDO>
F 18

$$$$
=
 OpenBabel11072412093D

 50 56  0  0  1  0  0  0  0  0999 V2000
  162.1760  207.2900  149.4100 N   0  0  0  0  0  2  0  0  0  0  0  0
  161.4710  209.6070  148.7050 C   0  0  0  0  0  0  0  0  0  0  0  0
  161.7040  208.4830  149.7500 C   0  0  2  0  0  3  0  0  0  0  0  0
  161.6160  208.9400  151.2080 C   0  0  0  0  0  2  0  0  0  0  0  0
  161.1100  213.4540  149.6610 C   0  0  0  0  0  2  0  0  0  0  0  0
  161.5840  211.2900  150.6530 C   0  0  2  0  0  3  0  0  0  0  0  0
  161.0750  210.6770  152.8610 O   0  0  0  0  0  0  0  0  0  0  0  0
  161.3030  211.0410  149.2740 N   0  0  0  0  0  0  0  0  0  0  0  0
  160.5240  211.9360  153.3260 C   0  0  0  0  0  2  0  0  0  0  0  0
  160.0460  212.8770  152.1740 C   0  0  1  0  0  3  0  0  0  0  0  0
  160.9080  210.3210  151.4700 C   0  0  2  0  0  3  0  0  0  0  0  0
  161.1210  209.3700  147.5310 O   0  0  0  0  0  0  0  0  0  0  0  0
  161.2830  212.3500  148.5640 C   0  0  1  0  0  3  0  0  0  0  0  0
  161.0590  212.6650  150.9950 C   0  0  2  0  0  3  0  0  0  0  0  0
  160.1420  212.3520  147.5740 C   0  0  0  0  0  3  0  0  0  0  0  0
  160.6980  212.2360  146.1240 C   0  0  0  0  0  2  0  0  0  0  0  0
  160.1860  213.6070  146.6460 C   0  0  0  0  0  2  0  0  0  0  0  0
  158.7220  212.5540  151.8950 O   0  0  0  0  0  0  0  0  0  0  0  0
  158.2940  214.4530  153.1420 O   0  0  0  0  0  1  0  0  0  0  0  0
  157.7700  213.2650  152.5940 C   0  0  1  0  0  0  0  0  0  0  0  0
  156.7340  213.6330  151.6260 O   0  0  0  0  0  0  0  0  0  0  0  0
  157.2420  213.7740  150.3150 C   0  0  0  0  0  1  0  0  0  0  0  0
  157.1190  212.3060  153.7040 C   0  0  0  0  0  2  0  0  0  0  0  0
  157.3110  212.6110  155.1640 C   0  0  0  0  0  2  0  0  0  0  0  0
  157.4620  211.0070  156.0610 S   0  0  0  0  0  0  0  0  0  0  0  0
  159.7430  212.1760  156.9710 C   0  0  0  0  0  2  0  0  0  0  0  0
  159.1220  210.8720  156.9810 C   0  0  2  0  0  3  0  0  0  0  0  0
  160.4340  211.0560  156.3070 N   0  0  0  0  0  0  0  0  0  0  0  0
  161.5020  210.6380  157.2570 C   0  0  0  0  0  1  0  0  0  0  0  0
  162.9130  207.0100  148.0880 C   0  0  0  0  0  2  0  0  0  0  0  0
  162.0540  205.9200  147.1710 C   0  0  2  0  0  3  0  0  0  0  0  0
  162.7630  204.6690  146.9490 O   0  0  0  0  0  0  0  0  0  0  0  0
  162.2260  203.4030  146.9980 C   0  0  0  0  0  0  0  0  0  0  0  0
  161.0010  201.7250  146.2620 C   0  0  2  0  0  3  0  0  0  0  0  0
  160.7520  201.8130  147.7360 N   0  0  0  0  0  0  0  0  0  0  0  0
  161.8420  202.8110  145.8670 N   0  0  0  0  0  0  0  0  0  0  0  0
  161.5650  202.7340  148.1540 C   0  0  0  0  0  0  0  0  0  0  0  0
  161.8620  202.9420  149.5920 O   0  0  0  0  0  0  0  0  0  0  0  0
  161.0100  202.8380  151.8920 C   0  0  0  0  0  2  0  0  0  0  0  0
  160.4310  203.6770  153.0510 C   0  0  0  0  0  2  0  0  0  0  0  0
  160.9400  205.0650  153.1440 N   0  0  0  0  0  2  0  0  0  0  0  0
  161.0910  205.0340  150.6920 C   0  0  0  0  0  2  0  0  0  0  0  0
  160.9030  203.4970  150.5150 C   0  0  0  0  0  3  0  0  0  0  0  0
  161.8050  205.3980  152.0090 C   0  0  0  0  0  2  0  0  0  0  0  0
  159.6670  201.0670  145.1200 S   0  0  0  0  0  0  0  0  0  0  0  0
  161.0170  198.3910  145.1960 N   0  0  0  0  0  0  0  0  0  0  0  0
  160.5060  199.4960  145.1820 C   0  0  0  0  0  0  0  0  0  0  0  0
  162.1330  206.3390  145.6390 C   0  0  0  0  0  2  0  0  0  0  0  0
  161.2250  205.8240  144.5120 C   0  0  0  0  0  3  0  0  0  0  0  0
  159.9690  205.7690  144.6970 O   0  0  0  0  0  0  0  0  0  0  0  0
  2  8  1  0  0  0  0
  2  3  1  0  0  0  0
  3  1  1  6  0  0  0
  3  4  1  0  0  0  0
  6  8  1  6  0  0  0
  6 14  1  0  0  0  0
  6 11  1  0  0  0  0
  7  9  1  0  0  0  0
 10 18  1  6  0  0  0
 10  9  1  0  0  0  0
 11  4  1  1  0  0  0
 11  7  1  0  0  0  0
 12  2  2  0  0  0  0
 13 15  1  6  0  0  0
 13  8  1  0  0  0  0
 13  5  1  0  0  0  0
 14  5  1  6  0  0  0
 14 10  1  0  0  0  0
 16 17  1  0  0  0  0
 16 15  1  0  0  0  0
 17 15  1  0  0  0  0
 18 20  1  0  0  0  0
 20 19  1  1  0  0  0
 20 23  1  0  0  0  0
 21 20  1  0  0  0  0
 22 21  1  0  0  0  0
 23 24  1  0  0  0  0
 24 25  1  0  0  0  0
 26 27  1  0  0  0  0
 27 25  1  6  0  0  0
 28 26  1  0  0  0  0
 28 27  1  0  0  0  0
 28 29  1  0  0  0  0
 30  1  1  0  0  0  0
 31 48  1  6  0  0  0
 31 30  1  0  0  0  0
 32 33  1  0  0  0  0
 32 31  1  0  0  0  0
 33 37  1  0  0  0  0
 34 45  1  6  0  0  0
 34 35  1  0  0  0  0
 35 37  2  0  0  0  0
 36 34  1  0  0  0  0
 36 33  2  0  0  0  0
 37 38  1  0  0  0  0
 38 43  1  0  0  0  0
 39 40  1  0  0  0  0
 40 41  1  0  0  0  0
 42 44  1  0  0  0  0
 43 42  1  0  0  0  0
 43 39  1  0  0  0  0
 44 41  1  0  0  0  0
 45 47  1  0  0  0  0
 47 46  3  0  0  0  0
 49 50  2  0  0  0  0
 49 48  1  0  0  0  0
M  END
>  <MODEL>
3

>  <REMARK>
 VINA RESULT:      -2.4      5.766      9.575
  Name = 
  18 active torsions:
  status: ('A' for Active; 'I' for Inactive)
    1  A    between atoms: N_1  and  C_33
    2  A    between atoms: C_8  and  O_34
    3  A    between atoms: C_9  and  S_21
    4  A    between atoms: S_10  and  C_11
    5  A    between atoms: S_10  and  C_26
    6  A    between atoms: C_13  and  C_23
    7  A    between atoms: C_15  and  C_39
    8  A    between atoms: S_21  and  C_47
    9  A    between atoms: C_23  and  C_28
   10  A    between atoms: O_25  and  C_43
   11  A    between atoms: C_27  and  O_44
   12  A    between atoms: C_28  and  C_33
   13  A    between atoms: C_28  and  O_34
   14  A    between atoms: C_32  and  C_43
   15  A    between atoms: C_32  and  C_47
   16  A    between atoms: C_41  and  O_49
   17  A    between atoms: C_43  and  O_44
   18  A    between atoms: C_48  and  O_49
                            x       y       z     vdW  Elec       q    Type
                         _______ _______ _______ _____ _____    ______ ____

>  <TORSDO>
F 18

$$$$
=
 OpenBabel11072412093D

 50 56  0  0  1  0  0  0  0  0999 V2000
  162.5040  206.9060  150.4570 N   0  0  0  0  0  2  0  0  0  0  0  0
  161.4950  207.0570  152.7630 C   0  0  0  0  0  0  0  0  0  0  0  0
  162.0030  207.6610  151.4270 C   0  0  2  0  0  3  0  0  0  0  0  0
  161.6270  209.1290  151.2080 C   0  0  0  0  0  2  0  0  0  0  0  0
  159.0490  208.9750  155.2510 C   0  0  0  0  0  2  0  0  0  0  0  0
  160.0950  209.1990  153.0730 C   0  0  2  0  0  3  0  0  0  0  0  0
  160.6920  211.2340  152.0650 O   0  0  0  0  0  0  0  0  0  0  0  0
  160.5890  207.9770  153.6250 N   0  0  0  0  0  0  0  0  0  0  0  0
  160.1930  212.1440  153.0780 C   0  0  0  0  0  2  0  0  0  0  0  0
  159.9970  211.4820  154.4780 C   0  0  1  0  0  3  0  0  0  0  0  0
  161.1770  209.9370  152.4810 C   0  0  2  0  0  3  0  0  0  0  0  0
  162.0120  206.0480  153.2840 O   0  0  0  0  0  0  0  0  0  0  0  0
  159.7720  207.6520  154.8280 C   0  0  1  0  0  3  0  0  0  0  0  0
  159.5080  210.0170  154.1990 C   0  0  2  0  0  3  0  0  0  0  0  0
  160.6840  207.1320  155.9130 C   0  0  0  0  0  3  0  0  0  0  0  0
  160.3880  207.8660  157.2540 C   0  0  0  0  0  2  0  0  0  0  0  0
  161.6520  208.2420  156.4320 C   0  0  0  0  0  2  0  0  0  0  0  0
  161.2030  211.5930  155.1640 O   0  0  0  0  0  0  0  0  0  0  0  0
  160.4450  210.9600  157.2550 O   0  0  0  0  0  1  0  0  0  0  0  0
  161.1070  211.9440  156.4940 C   0  0  1  0  0  0  0  0  0  0  0  0
  162.4800  212.0530  156.9930 O   0  0  0  0  0  0  0  0  0  0  0  0
  163.1680  210.8190  156.9640 C   0  0  0  0  0  1  0  0  0  0  0  0
  160.4060  213.3840  156.6000 C   0  0  0  0  0  2  0  0  0  0  0  0
  159.0050  213.4980  157.1340 C   0  0  0  0  0  2  0  0  0  0  0  0
  157.9340  214.1450  155.7800 S   0  0  0  0  0  0  0  0  0  0  0  0
  155.6150  212.7840  156.1830 C   0  0  0  0  0  2  0  0  0  0  0  0
  156.6720  212.8440  155.2010 C   0  0  2  0  0  3  0  0  0  0  0  0
  156.4260  211.5770  155.9380 N   0  0  0  0  0  0  0  0  0  0  0  0
  155.5770  210.7040  155.0810 C   0  0  0  0  0  1  0  0  0  0  0  0
  162.2740  205.3870  150.3540 C   0  0  0  0  0  2  0  0  0  0  0  0
  161.6700  204.9970  148.8540 C   0  0  2  0  0  3  0  0  0  0  0  0
  162.3730  203.8930  148.2200 O   0  0  0  0  0  0  0  0  0  0  0  0
  161.8850  203.0730  147.2290 C   0  0  0  0  0  0  0  0  0  0  0  0
  160.7370  202.6130  145.4040 C   0  0  2  0  0  3  0  0  0  0  0  0
  160.4620  201.4990  146.3660 N   0  0  0  0  0  0  0  0  0  0  0  0
  161.5420  203.6000  146.0530 N   0  0  0  0  0  0  0  0  0  0  0  0
  161.2320  201.7420  147.3820 C   0  0  0  0  0  0  0  0  0  0  0  0
  161.4980  200.7360  148.4380 O   0  0  0  0  0  0  0  0  0  0  0  0
  161.9890  201.5620  150.6970 C   0  0  0  0  0  2  0  0  0  0  0  0
  161.3680  202.1980  151.9590 C   0  0  0  0  0  2  0  0  0  0  0  0
  160.2270  203.1100  151.7130 N   0  0  0  0  0  2  0  0  0  0  0  0
  159.6470  201.6580  149.8180 C   0  0  0  0  0  2  0  0  0  0  0  0
  160.9850  200.8600  149.7800 C   0  0  0  0  0  3  0  0  0  0  0  0
  159.8330  203.1090  150.3010 C   0  0  0  0  0  2  0  0  0  0  0  0
  159.4480  203.0970  144.1310 S   0  0  0  0  0  0  0  0  0  0  0  0
  161.1020  205.5390  143.5920 N   0  0  0  0  0  0  0  0  0  0  0  0
  160.4070  204.5700  143.8420 C   0  0  0  0  0  0  0  0  0  0  0  0
  162.1830  206.0560  147.7860 C   0  0  0  0  0  2  0  0  0  0  0  0
  161.3160  206.7900  146.7510 C   0  0  0  0  0  3  0  0  0  0  0  0
  160.0670  206.5580  146.7060 O   0  0  0  0  0  0  0  0  0  0  0  0
  2 12  2  0  0  0  0
  2  8  1  0  0  0  0
  3  1  1  6  0  0  0
  3  2  1  0  0  0  0
  4  3  1  0  0  0  0
  6  8  1  1  0  0  0
  6 14  1  0  0  0  0
  7 11  1  0  0  0  0
  7  9  1  0  0  0  0
  8 13  1  0  0  0  0
  9 10  1  0  0  0  0
 10 18  1  6  0  0  0
 11  4  1  6  0  0  0
 11  6  1  0  0  0  0
 13  5  1  0  0  0  0
 13 15  1  1  0  0  0
 14 10  1  0  0  0  0
 14  5  1  1  0  0  0
 15 17  1  0  0  0  0
 15 16  1  0  0  0  0
 17 16  1  0  0  0  0
 18 20  1  0  0  0  0
 20 23  1  0  0  0  0
 20 21  1  0  0  0  0
 20 19  1  1  0  0  0
 22 21  1  0  0  0  0
 23 24  1  0  0  0  0
 25 24  1  0  0  0  0
 27 25  1  1  0  0  0
 27 28  1  0  0  0  0
 27 26  1  0  0  0  0
 28 26  1  0  0  0  0
 29 28  1  0  0  0  0
 30  1  1  0  0  0  0
 31 48  1  6  0  0  0
 31 30  1  0  0  0  0
 32 31  1  0  0  0  0
 33 37  1  0  0  0  0
 33 32  1  0  0  0  0
 34 45  1  1  0  0  0
 34 36  1  0  0  0  0
 34 35  1  0  0  0  0
 35 37  2  0  0  0  0
 36 33  2  0  0  0  0
 37 38  1  0  0  0  0
 38 43  1  0  0  0  0
 39 40  1  0  0  0  0
 41 40  1  0  0  0  0
 42 44  1  0  0  0  0
 43 42  1  0  0  0  0
 43 39  1  0  0  0  0
 44 41  1  0  0  0  0
 46 47  3  0  0  0  0
 47 45  1  0  0  0  0
 49 48  1  0  0  0  0
 50 49  2  0  0  0  0
M  END
>  <MODEL>
4

>  <REMARK>
 VINA RESULT:      -2.4      6.675     10.190
  Name = 
  18 active torsions:
  status: ('A' for Active; 'I' for Inactive)
    1  A    between atoms: N_1  and  C_33
    2  A    between atoms: C_8  and  O_34
    3  A    between atoms: C_9  and  S_21
    4  A    between atoms: S_10  and  C_11
    5  A    between atoms: S_10  and  C_26
    6  A    between atoms: C_13  and  C_23
    7  A    between atoms: C_15  and  C_39
    8  A    between atoms: S_21  and  C_47
    9  A    between atoms: C_23  and  C_28
   10  A    between atoms: O_25  and  C_43
   11  A    between atoms: C_27  and  O_44
   12  A    between atoms: C_28  and  C_33
   13  A    between atoms: C_28  and  O_34
   14  A    between atoms: C_32  and  C_43
   15  A    between atoms: C_32  and  C_47
   16  A    between atoms: C_41  and  O_49
   17  A    between atoms: C_43  and  O_44
   18  A    between atoms: C_48  and  O_49
                            x       y       z     vdW  Elec       q    Type
                         _______ _______ _______ _____ _____    ______ ____

>  <TORSDO>
F 18

$$$$
=
 OpenBabel11072412093D

 50 56  0  0  1  0  0  0  0  0999 V2000
  161.1520  210.9880  152.8960 N   0  0  0  0  0  2  0  0  0  0  0  0
  161.1770  208.4960  152.5050 C   0  0  0  0  0  0  0  0  0  0  0  0
  161.3190  209.9750  152.0550 C   0  0  2  0  0  3  0  0  0  0  0  0
  161.9300  210.1610  150.6640 C   0  0  0  0  0  2  0  0  0  0  0  0
  162.6600  205.4240  150.4550 C   0  0  0  0  0  2  0  0  0  0  0  0
  162.5970  207.8490  150.4540 C   0  0  2  0  0  3  0  0  0  0  0  0
  162.7060  209.2020  148.5380 O   0  0  0  0  0  0  0  0  0  0  0  0
  161.7770  207.4320  151.5470 N   0  0  0  0  0  0  0  0  0  0  0  0
  162.8750  208.1660  147.5370 C   0  0  0  0  0  2  0  0  0  0  0  0
  162.4170  206.7500  148.0140 C   0  0  1  0  0  3  0  0  0  0  0  0
  161.9390  208.8980  149.7250 C   0  0  2  0  0  3  0  0  0  0  0  0
  160.3740  208.1380  153.3920 O   0  0  0  0  0  0  0  0  0  0  0  0
  162.0040  205.9760  151.7650 C   0  0  1  0  0  3  0  0  0  0  0  0
  162.7880  206.6660  149.5360 C   0  0  2  0  0  3  0  0  0  0  0  0
  160.6800  205.3130  152.0600 C   0  0  0  0  0  3  0  0  0  0  0  0
  160.8620  204.2310  153.1650 C   0  0  0  0  0  2  0  0  0  0  0  0
  160.6980  203.7980  151.6810 C   0  0  0  0  0  2  0  0  0  0  0  0
  161.0620  206.6300  147.7180 O   0  0  0  0  0  0  0  0  0  0  0  0
  159.4760  206.1770  146.0980 O   0  0  0  0  0  1  0  0  0  0  0  0
  160.7560  205.8770  146.6040 C   0  0  1  0  0  0  0  0  0  0  0  0
  161.7410  206.2340  145.5800 O   0  0  0  0  0  0  0  0  0  0  0  0
  161.3660  205.7960  144.2900 C   0  0  0  0  0  1  0  0  0  0  0  0
  160.9300  204.3230  146.9650 C   0  0  0  0  0  2  0  0  0  0  0  0
  161.7480  203.4330  146.0710 C   0  0  0  0  0  2  0  0  0  0  0  0
  161.1960  201.6950  146.3450 S   0  0  0  0  0  0  0  0  0  0  0  0
  161.1340  202.3030  148.9960 C   0  0  0  0  0  2  0  0  0  0  0  0
  160.4080  201.4740  148.0630 C   0  0  2  0  0  3  0  0  0  0  0  0
  161.1240  200.8440  149.2030 N   0  0  0  0  0  0  0  0  0  0  0  0
  160.1390  200.6120  150.2950 C   0  0  0  0  0  1  0  0  0  0  0  0
  161.2110  210.8430  154.4270 C   0  0  0  0  0  2  0  0  0  0  0  0
  159.8040  210.1610  154.9950 C   0  0  2  0  0  3  0  0  0  0  0  0
  158.7360  211.1280  155.1970 O   0  0  0  0  0  0  0  0  0  0  0  0
  158.3130  212.0800  154.2980 C   0  0  0  0  0  0  0  0  0  0  0  0
  158.1490  213.0110  152.3060 C   0  0  2  0  0  3  0  0  0  0  0  0
  158.3780  214.1290  153.2760 N   0  0  0  0  0  0  0  0  0  0  0  0
  158.2280  211.7660  153.0050 N   0  0  0  0  0  0  0  0  0  0  0  0
  158.3620  213.5620  154.4430 C   0  0  0  0  0  0  0  0  0  0  0  0
  158.2570  214.3370  155.7040 O   0  0  0  0  0  0  0  0  0  0  0  0
  155.8150  214.4450  155.9270 C   0  0  0  0  0  2  0  0  0  0  0  0
  154.5950  213.8230  156.6400 C   0  0  0  0  0  2  0  0  0  0  0  0
  154.7080  212.3770  156.9430 N   0  0  0  0  0  2  0  0  0  0  0  0
  157.1140  212.7650  157.2530 C   0  0  0  0  0  2  0  0  0  0  0  0
  157.1550  214.1890  156.6210 C   0  0  0  0  0  3  0  0  0  0  0  0
  156.0410  211.8620  156.6160 C   0  0  0  0  0  2  0  0  0  0  0  0
  158.7390  213.1670  150.5330 S   0  0  0  0  0  0  0  0  0  0  0  0
  155.9170  213.9390  149.8770 N   0  0  0  0  0  0  0  0  0  0  0  0
  157.0780  213.6530  150.1110 C   0  0  0  0  0  0  0  0  0  0  0  0
  159.9500  209.8640  156.5500 C   0  0  0  0  0  2  0  0  0  0  0  0
  160.2490  208.4980  157.1860 C   0  0  0  0  0  3  0  0  0  0  0  0
  161.0460  207.6990  156.6020 O   0  0  0  0  0  0  0  0  0  0  0  0
  1 30  1  0  0  0  0
  2 12  2  0  0  0  0
  3  2  1  0  0  0  0
  3  1  1  1  0  0  0
  4  3  1  0  0  0  0
  5 13  1  0  0  0  0
  6  8  1  1  0  0  0
  7 11  1  0  0  0  0
  8 13  1  0  0  0  0
  8  2  1  0  0  0  0
  9 10  1  0  0  0  0
  9  7  1  0  0  0  0
 10 18  1  1  0  0  0
 10 14  1  0  0  0  0
 11  6  1  0  0  0  0
 11  4  1  1  0  0  0
 13 15  1  6  0  0  0
 14  6  1  0  0  0  0
 14  5  1  1  0  0  0
 15 16  1  0  0  0  0
 17 15  1  0  0  0  0
 17 16  1  0  0  0  0
 20 19  1  6  0  0  0
 20 23  1  0  0  0  0
 20 18  1  0  0  0  0
 21 20  1  0  0  0  0
 22 21  1  0  0  0  0
 24 25  1  0  0  0  0
 24 23  1  0  0  0  0
 26 28  1  0  0  0  0
 27 25  1  6  0  0  0
 27 26  1  0  0  0  0
 27 28  1  0  0  0  0
 28 29  1  0  0  0  0
 31 30  1  1  0  0  0
 31 32  1  0  0  0  0
 31 48  1  0  0  0  0
 33 37  1  0  0  0  0
 33 32  1  0  0  0  0
 34 45  1  6  0  0  0
 34 36  1  0  0  0  0
 34 35  1  0  0  0  0
 35 37  2  0  0  0  0
 36 33  2  0  0  0  0
 37 38  1  0  0  0  0
 38 43  1  0  0  0  0
 39 43  1  0  0  0  0
 39 40  1  0  0  0  0
 40 41  1  0  0  0  0
 43 42  1  0  0  0  0
 44 41  1  0  0  0  0
 44 42  1  0  0  0  0
 46 47  3  0  0  0  0
 47 45  1  0  0  0  0
 48 49  1  0  0  0  0
 50 49  2  0  0  0  0
M  END
>  <MODEL>
5

>  <REMARK>
 VINA RESULT:      -2.1      6.627     11.588
  Name = 
  18 active torsions:
  status: ('A' for Active; 'I' for Inactive)
    1  A    between atoms: N_1  and  C_33
    2  A    between atoms: C_8  and  O_34
    3  A    between atoms: C_9  and  S_21
    4  A    between atoms: S_10  and  C_11
    5  A    between atoms: S_10  and  C_26
    6  A    between atoms: C_13  and  C_23
    7  A    between atoms: C_15  and  C_39
    8  A    between atoms: S_21  and  C_47
    9  A    between atoms: C_23  and  C_28
   10  A    between atoms: O_25  and  C_43
   11  A    between atoms: C_27  and  O_44
   12  A    between atoms: C_28  and  C_33
   13  A    between atoms: C_28  and  O_34
   14  A    between atoms: C_32  and  C_43
   15  A    between atoms: C_32  and  C_47
   16  A    between atoms: C_41  and  O_49
   17  A    between atoms: C_43  and  O_44
   18  A    between atoms: C_48  and  O_49
                            x       y       z     vdW  Elec       q    Type
                         _______ _______ _______ _____ _____    ______ ____

>  <TORSDO>
F 18

$$$$
=
 OpenBabel11072412093D

 50 56  0  0  1  0  0  0  0  0999 V2000
  160.3220  212.1460  147.0590 N   0  0  0  0  0  2  0  0  0  0  0  0
  160.5750  211.9570  149.5620 C   0  0  0  0  0  0  0  0  0  0  0  0
  160.6630  211.4120  148.1110 C   0  0  2  0  0  3  0  0  0  0  0  0
  161.4230  210.0900  147.9730 C   0  0  0  0  0  2  0  0  0  0  0  0
  162.5140  210.3380  152.6380 C   0  0  0  0  0  2  0  0  0  0  0  0
  162.2760  210.1400  150.2310 C   0  0  2  0  0  3  0  0  0  0  0  0
  162.5180  208.1490  149.0100 O   0  0  0  0  0  0  0  0  0  0  0  0
  161.3610  211.1600  150.6370 N   0  0  0  0  0  0  0  0  0  0  0  0
  162.8800  207.2590  150.0960 C   0  0  0  0  0  2  0  0  0  0  0  0
  162.4720  207.7890  151.5080 C   0  0  1  0  0  3  0  0  0  0  0  0
  161.6360  209.2600  149.2930 C   0  0  2  0  0  3  0  0  0  0  0  0
  159.6990  212.7700  149.9220 O   0  0  0  0  0  0  0  0  0  0  0  0
  161.6660  211.5170  152.0520 C   0  0  1  0  0  3  0  0  0  0  0  0
  162.6620  209.3460  151.4560 C   0  0  2  0  0  3  0  0  0  0  0  0
  160.3680  211.7080  152.7990 C   0  0  0  0  0  3  0  0  0  0  0  0
  160.5940  211.4860  154.3230 C   0  0  0  0  0  2  0  0  0  0  0  0
  159.8950  210.3840  153.4790 C   0  0  0  0  0  2  0  0  0  0  0  0
  161.1750  207.3490  151.7580 O   0  0  0  0  0  0  0  0  0  0  0  0
  162.2380  206.1410  153.4190 O   0  0  0  0  0  1  0  0  0  0  0  0
  161.0550  206.3290  152.6780 C   0  0  1  0  0  0  0  0  0  0  0  0
  159.9990  206.7330  153.6090 O   0  0  0  0  0  0  0  0  0  0  0  0
  160.5100  207.1900  154.8440 C   0  0  0  0  0  1  0  0  0  0  0  0
  160.5850  204.9970  151.9140 C   0  0  0  0  0  2  0  0  0  0  0  0
  161.6080  203.9920  151.4620 C   0  0  0  0  0  2  0  0  0  0  0  0
  160.8700  203.0160  150.0830 S   0  0  0  0  0  0  0  0  0  0  0  0
  161.7380  203.1630  147.5100 C   0  0  0  0  0  2  0  0  0  0  0  0
  160.9610  203.9570  148.4310 C   0  0  2  0  0  3  0  0  0  0  0  0
  162.2300  204.5010  147.8830 N   0  0  0  0  0  0  0  0  0  0  0  0
  161.8940  205.3770  146.7260 C   0  0  0  0  0  1  0  0  0  0  0  0
  160.2060  213.6800  147.0930 C   0  0  0  0  0  2  0  0  0  0  0  0
  160.7310  214.3280  145.6530 C   0  0  2  0  0  3  0  0  0  0  0  0
  160.4770  213.4680  144.5080 O   0  0  0  0  0  0  0  0  0  0  0  0
  159.9060  213.8420  143.3140 C   0  0  0  0  0  0  0  0  0  0  0  0
  158.2310  214.3620  141.9790 C   0  0  2  0  0  3  0  0  0  0  0  0
  159.1400  213.4750  141.1870 N   0  0  0  0  0  0  0  0  0  0  0  0
  158.7210  214.4530  143.3180 N   0  0  0  0  0  0  0  0  0  0  0  0
  160.1640  213.2760  141.9590 C   0  0  0  0  0  0  0  0  0  0  0  0
  161.4360  212.6960  141.4640 O   0  0  0  0  0  0  0  0  0  0  0  0
  162.9970  212.1140  139.6620 C   0  0  0  0  0  2  0  0  0  0  0  0
  163.3330  211.0540  138.5910 C   0  0  0  0  0  2  0  0  0  0  0  0
  163.0030  209.6570  138.9570 N   0  0  0  0  0  2  0  0  0  0  0  0
  161.1000  210.5750  140.2110 C   0  0  0  0  0  2  0  0  0  0  0  0
  161.5550  212.0650  140.1730 C   0  0  0  0  0  3  0  0  0  0  0  0
  162.2860  209.5910  140.2340 C   0  0  0  0  0  2  0  0  0  0  0  0
  156.3910  214.3880  141.6160 S   0  0  0  0  0  0  0  0  0  0  0  0
  157.0130  213.7570  138.7520 N   0  0  0  0  0  0  0  0  0  0  0  0
  156.8040  214.0080  139.9250 C   0  0  0  0  0  0  0  0  0  0  0  0
  162.3070  214.1620  145.5430 C   0  0  0  0  0  2  0  0  0  0  0  0
  163.0800  213.6510  144.3160 C   0  0  0  0  0  3  0  0  0  0  0  0
  163.9290  214.4110  143.7530 O   0  0  0  0  0  0  0  0  0  0  0  0
  1 30  1  0  0  0  0
  2 12  2  0  0  0  0
  2  8  1  0  0  0  0
  3  1  1  6  0  0  0
  3  2  1  0  0  0  0
  4  3  1  0  0  0  0
  6  8  1  1  0  0  0
  6 14  1  0  0  0  0
  7 11  1  0  0  0  0
  7  9  1  0  0  0  0
  8 13  1  0  0  0  0
  9 10  1  0  0  0  0
 10 18  1  6  0  0  0
 11  4  1  6  0  0  0
 11  6  1  0  0  0  0
 13  5  1  0  0  0  0
 13 15  1  1  0  0  0
 14 10  1  0  0  0  0
 14  5  1  1  0  0  0
 15 17  1  0  0  0  0
 15 16  1  0  0  0  0
 17 16  1  0  0  0  0
 18 20  1  0  0  0  0
 20 19  1  1  0  0  0
 20 21  1  0  0  0  0
 21 22  1  0  0  0  0
 23 20  1  0  0  0  0
 24 23  1  0  0  0  0
 25 24  1  0  0  0  0
 26 28  1  0  0  0  0
 26 27  1  0  0  0  0
 27 25  1  1  0  0  0
 28 27  1  0  0  0  0
 29 28  1  0  0  0  0
 31 48  1  1  0  0  0
 31 30  1  0  0  0  0
 32 31  1  0  0  0  0
 33 36  2  0  0  0  0
 33 32  1  0  0  0  0
 34 45  1  1  0  0  0
 34 36  1  0  0  0  0
 35 37  2  0  0  0  0
 35 34  1  0  0  0  0
 37 33  1  0  0  0  0
 38 37  1  0  0  0  0
 39 43  1  0  0  0  0
 40 41  1  0  0  0  0
 40 39  1  0  0  0  0
 41 44  1  0  0  0  0
 42 44  1  0  0  0  0
 43 42  1  0  0  0  0
 43 38  1  0  0  0  0
 46 47  3  0  0  0  0
 47 45  1  0  0  0  0
 49 48  1  0  0  0  0
 50 49  2  0  0  0  0
M  END
>  <MODEL>
6

>  <REMARK>
 VINA RESULT:      -2.0      2.358      3.611
  Name = 
  18 active torsions:
  status: ('A' for Active; 'I' for Inactive)
    1  A    between atoms: N_1  and  C_33
    2  A    between atoms: C_8  and  O_34
    3  A    between atoms: C_9  and  S_21
    4  A    between atoms: S_10  and  C_11
    5  A    between atoms: S_10  and  C_26
    6  A    between atoms: C_13  and  C_23
    7  A    between atoms: C_15  and  C_39
    8  A    between atoms: S_21  and  C_47
    9  A    between atoms: C_23  and  C_28
   10  A    between atoms: O_25  and  C_43
   11  A    between atoms: C_27  and  O_44
   12  A    between atoms: C_28  and  C_33
   13  A    between atoms: C_28  and  O_34
   14  A    between atoms: C_32  and  C_43
   15  A    between atoms: C_32  and  C_47
   16  A    between atoms: C_41  and  O_49
   17  A    between atoms: C_43  and  O_44
   18  A    between atoms: C_48  and  O_49
                            x       y       z     vdW  Elec       q    Type
                         _______ _______ _______ _____ _____    ______ ____

>  <TORSDO>
F 18

$$$$
=
 OpenBabel11072412093D

 50 56  0  0  1  0  0  0  0  0999 V2000
  160.8540  204.7690  152.5070 N   0  0  0  0  0  2  0  0  0  0  0  0
  161.0660  207.2730  152.2910 C   0  0  0  0  0  0  0  0  0  0  0  0
  160.7750  205.9660  153.0750 C   0  0  2  0  0  3  0  0  0  0  0  0
  160.6710  206.1440  154.5920 C   0  0  0  0  0  2  0  0  0  0  0  0
  161.9140  210.7450  154.0430 C   0  0  0  0  0  2  0  0  0  0  0  0
  161.5040  208.4100  154.5610 C   0  0  2  0  0  3  0  0  0  0  0  0
  160.5510  207.6180  156.5560 O   0  0  0  0  0  0  0  0  0  0  0  0
  161.3250  208.5400  153.1500 N   0  0  0  0  0  0  0  0  0  0  0  0
  160.4060  208.8800  157.2560 C   0  0  0  0  0  2  0  0  0  0  0  0
  160.4200  210.1270  156.3150 C   0  0  1  0  0  3  0  0  0  0  0  0
  160.4450  207.6120  155.1140 C   0  0  2  0  0  3  0  0  0  0  0  0
  160.8020  207.4000  151.0770 O   0  0  0  0  0  0  0  0  0  0  0  0
  161.8360  209.8790  152.7410 C   0  0  1  0  0  3  0  0  0  0  0  0
  161.4370  209.7920  155.1680 C   0  0  2  0  0  3  0  0  0  0  0  0
  160.8930  210.4710  151.7210 C   0  0  0  0  0  3  0  0  0  0  0  0
  161.4490  210.2390  150.2850 C   0  0  0  0  0  2  0  0  0  0  0  0
  161.5580  211.6460  150.9360 C   0  0  0  0  0  2  0  0  0  0  0  0
  159.1090  210.3550  155.9080 O   0  0  0  0  0  0  0  0  0  0  0  0
  159.6680  212.5700  156.2660 O   0  0  0  0  0  1  0  0  0  0  0  0
  158.7830  211.6680  155.6430 C   0  0  1  0  0  0  0  0  0  0  0  0
  158.9090  211.8410  154.1930 O   0  0  0  0  0  0  0  0  0  0  0  0
  159.0070  213.1980  153.8150 C   0  0  0  0  0  1  0  0  0  0  0  0
  157.2520  211.9160  156.0580 C   0  0  0  0  0  2  0  0  0  0  0  0
  156.8150  213.2740  156.5340 C   0  0  0  0  0  2  0  0  0  0  0  0
  155.2820  213.7280  155.6170 S   0  0  0  0  0  0  0  0  0  0  0  0
  154.4780  214.3870  153.1040 C   0  0  0  0  0  2  0  0  0  0  0  0
  155.6800  214.4500  153.9010 C   0  0  2  0  0  3  0  0  0  0  0  0
  155.6640  213.6330  152.6610 N   0  0  0  0  0  0  0  0  0  0  0  0
  156.2580  214.4480  151.5640 C   0  0  0  0  0  1  0  0  0  0  0  0
  161.6080  204.4980  151.1930 C   0  0  0  0  0  2  0  0  0  0  0  0
  161.5110  202.8850  150.7970 C   0  0  2  0  0  3  0  0  0  0  0  0
  161.9640  202.5960  149.4450 O   0  0  0  0  0  0  0  0  0  0  0  0
  161.8970  203.4400  148.3610 C   0  0  0  0  0  0  0  0  0  0  0  0
  161.3140  205.2830  147.3000 C   0  0  2  0  0  3  0  0  0  0  0  0
  161.0710  204.1530  146.3480 N   0  0  0  0  0  0  0  0  0  0  0  0
  161.7240  204.7470  148.5610 N   0  0  0  0  0  0  0  0  0  0  0  0
  161.5230  203.1020  146.9590 C   0  0  0  0  0  0  0  0  0  0  0  0
  161.7510  201.8120  146.2640 O   0  0  0  0  0  0  0  0  0  0  0  0
  160.0900  200.5310  144.9890 C   0  0  0  0  0  2  0  0  0  0  0  0
  159.4870  199.1250  144.7780 C   0  0  0  0  0  2  0  0  0  0  0  0
  160.4260  197.9970  144.9740 N   0  0  0  0  0  2  0  0  0  0  0  0
  161.5160  199.3750  146.6920 C   0  0  0  0  0  2  0  0  0  0  0  0
  160.8150  200.7170  146.3240 C   0  0  0  0  0  3  0  0  0  0  0  0
  161.7260  198.4590  145.4700 C   0  0  0  0  0  2  0  0  0  0  0  0
  160.2730  206.8390  147.2000 S   0  0  0  0  0  0  0  0  0  0  0  0
  162.6290  208.3620  148.2550 N   0  0  0  0  0  0  0  0  0  0  0  0
  161.6720  207.7190  147.8640 C   0  0  0  0  0  0  0  0  0  0  0  0
  160.0020  202.5110  150.4670 C   0  0  0  0  0  2  0  0  0  0  0  0
  159.5320  201.4210  149.4910 C   0  0  0  0  0  3  0  0  0  0  0  0
  158.2870  201.2240  149.3280 O   0  0  0  0  0  0  0  0  0  0  0  0
  2  3  1  0  0  0  0
  2  8  1  0  0  0  0
  3  1  1  1  0  0  0
  3  4  1  0  0  0  0
  6  8  1  6  0  0  0
  6 11  1  0  0  0  0
  6 14  1  0  0  0  0
  7  9  1  0  0  0  0
 10 18  1  6  0  0  0
 10  9  1  0  0  0  0
 11  4  1  6  0  0  0
 11  7  1  0  0  0  0
 12  2  2  0  0  0  0
 13 15  1  6  0  0  0
 13  8  1  0  0  0  0
 13  5  1  0  0  0  0
 14  5  1  6  0  0  0
 14 10  1  0  0  0  0
 16 17  1  0  0  0  0
 16 15  1  0  0  0  0
 17 15  1  0  0  0  0
 20 18  1  0  0  0  0
 20 23  1  0  0  0  0
 20 19  1  1  0  0  0
 21 20  1  0  0  0  0
 22 21  1  0  0  0  0
 23 24  1  0  0  0  0
 25 24  1  0  0  0  0
 26 27  1  0  0  0  0
 27 25  1  1  0  0  0
 28 26  1  0  0  0  0
 28 27  1  0  0  0  0
 29 28  1  0  0  0  0
 30  1  1  0  0  0  0
 31 48  1  6  0  0  0
 31 30  1  0  0  0  0
 32 31  1  0  0  0  0
 33 36  2  0  0  0  0
 33 32  1  0  0  0  0
 34 45  1  1  0  0  0
 34 36  1  0  0  0  0
 35 37  2  0  0  0  0
 35 34  1  0  0  0  0
 37 33  1  0  0  0  0
 38 43  1  0  0  0  0
 38 37  1  0  0  0  0
 39 43  1  0  0  0  0
 40 41  1  0  0  0  0
 40 39  1  0  0  0  0
 41 44  1  0  0  0  0
 43 42  1  0  0  0  0
 44 42  1  0  0  0  0
 45 47  1  0  0  0  0
 47 46  3  0  0  0  0
 49 48  1  0  0  0  0
 50 49  2  0  0  0  0
M  END
>  <MODEL>
7

>  <REMARK>
 VINA RESULT:      -1.3      7.286     10.566
  Name = 
  18 active torsions:
  status: ('A' for Active; 'I' for Inactive)
    1  A    between atoms: N_1  and  C_33
    2  A    between atoms: C_8  and  O_34
    3  A    between atoms: C_9  and  S_21
    4  A    between atoms: S_10  and  C_11
    5  A    between atoms: S_10  and  C_26
    6  A    between atoms: C_13  and  C_23
    7  A    between atoms: C_15  and  C_39
    8  A    between atoms: S_21  and  C_47
    9  A    between atoms: C_23  and  C_28
   10  A    between atoms: O_25  and  C_43
   11  A    between atoms: C_27  and  O_44
   12  A    between atoms: C_28  and  C_33
   13  A    between atoms: C_28  and  O_34
   14  A    between atoms: C_32  and  C_43
   15  A    between atoms: C_32  and  C_47
   16  A    between atoms: C_41  and  O_49
   17  A    between atoms: C_43  and  O_44
   18  A    between atoms: C_48  and  O_49
                            x       y       z     vdW  Elec       q    Type
                         _______ _______ _______ _____ _____    ______ ____

>  <TORSDO>
F 18

$$$$
=
 OpenBabel11072412093D

 50 56  0  0  1  0  0  0  0  0999 V2000
  161.9080  209.3170  154.5540 N   0  0  0  0  0  2  0  0  0  0  0  0
  161.7910  208.5740  152.1470 C   0  0  0  0  0  0  0  0  0  0  0  0
  161.6700  208.3490  153.6780 C   0  0  2  0  0  3  0  0  0  0  0  0
  160.9940  207.0340  154.0770 C   0  0  0  0  0  2  0  0  0  0  0  0
  160.1180  206.1860  149.4360 C   0  0  0  0  0  2  0  0  0  0  0  0
  160.2520  206.5310  151.8350 C   0  0  2  0  0  3  0  0  0  0  0  0
  160.0850  204.8370  153.4530 O   0  0  0  0  0  0  0  0  0  0  0  0
  161.1140  207.5060  151.2460 N   0  0  0  0  0  0  0  0  0  0  0  0
  159.8360  203.7090  152.5760 C   0  0  0  0  0  2  0  0  0  0  0  0
  160.2770  203.9510  151.0970 C   0  0  1  0  0  3  0  0  0  0  0  0
  160.9020  205.9250  152.9640 C   0  0  2  0  0  3  0  0  0  0  0  0
  162.6270  209.3540  151.6470 O   0  0  0  0  0  0  0  0  0  0  0  0
  160.8550  207.5250  149.7790 C   0  0  1  0  0  3  0  0  0  0  0  0
  159.9800  205.4640  150.8010 C   0  0  2  0  0  3  0  0  0  0  0  0
  162.1730  207.6490  149.0520 C   0  0  0  0  0  3  0  0  0  0  0  0
  162.2530  209.0250  148.3280 C   0  0  0  0  0  2  0  0  0  0  0  0
  161.9720  207.7360  147.5060 C   0  0  0  0  0  2  0  0  0  0  0  0
  161.6110  203.5680  150.9930 O   0  0  0  0  0  0  0  0  0  0  0  0
  162.8820  201.6420  151.1340 O   0  0  0  0  0  1  0  0  0  0  0  0
  161.8350  202.3120  150.4710 C   0  0  1  0  0  0  0  0  0  0  0  0
  160.6030  201.5490  150.6870 O   0  0  0  0  0  0  0  0  0  0  0  0
  160.4940  200.4370  149.8210 C   0  0  0  0  0  1  0  0  0  0  0  0
  162.0870  202.4450  148.8910 C   0  0  0  0  0  2  0  0  0  0  0  0
  161.1140  203.2120  148.0390 C   0  0  0  0  0  2  0  0  0  0  0  0
  161.1210  202.4580  146.3560 S   0  0  0  0  0  0  0  0  0  0  0  0
  161.6830  205.0250  145.6550 C   0  0  0  0  0  2  0  0  0  0  0  0
  161.5730  203.7330  145.0180 C   0  0  2  0  0  3  0  0  0  0  0  0
  160.6600  204.8320  144.6120 N   0  0  0  0  0  0  0  0  0  0  0  0
  161.2230  205.4710  143.3900 C   0  0  0  0  0  1  0  0  0  0  0  0
  161.9230  210.8120  154.1900 C   0  0  0  0  0  2  0  0  0  0  0  0
  160.3670  211.3930  154.0860 C   0  0  2  0  0  3  0  0  0  0  0  0
  160.3010  212.7930  153.6970 O   0  0  0  0  0  0  0  0  0  0  0  0
  159.4030  213.3570  152.8200 C   0  0  0  0  0  0  0  0  0  0  0  0
  157.4270  214.1110  152.1960 C   0  0  2  0  0  3  0  0  0  0  0  0
  157.9690  213.3360  151.0350 N   0  0  0  0  0  0  0  0  0  0  0  0
  158.3290  213.9860  153.2990 N   0  0  0  0  0  0  0  0  0  0  0  0
  159.1700  213.0000  151.3920 C   0  0  0  0  0  0  0  0  0  0  0  0
  160.1700  212.4750  150.4310 O   0  0  0  0  0  0  0  0  0  0  0  0
  162.0040  212.6630  148.8110 C   0  0  0  0  0  2  0  0  0  0  0  0
  162.3670  213.1060  147.3780 C   0  0  0  0  0  2  0  0  0  0  0  0
  161.2980  212.9260  146.3690 N   0  0  0  0  0  2  0  0  0  0  0  0
  159.6990  213.4030  148.1740 C   0  0  0  0  0  2  0  0  0  0  0  0
  160.7080  213.2680  149.3540 C   0  0  0  0  0  3  0  0  0  0  0  0
  160.0450  212.4810  146.9880 C   0  0  0  0  0  2  0  0  0  0  0  0
  155.5760  214.2310  152.4670 S   0  0  0  0  0  0  0  0  0  0  0  0
  155.9420  212.4190  154.8270 N   0  0  0  0  0  0  0  0  0  0  0  0
  155.7880  213.1190  153.8420 C   0  0  0  0  0  0  0  0  0  0  0  0
  159.8120  211.6800  155.5470 C   0  0  0  0  0  2  0  0  0  0  0  0
  158.6370  210.9590  156.2260 C   0  0  0  0  0  3  0  0  0  0  0  0
  158.1010  211.4740  157.2580 O   0  0  0  0  0  0  0  0  0  0  0  0
  2  3  1  0  0  0  0
  3  4  1  0  0  0  0
  3  1  1  6  0  0  0
  5 13  1  0  0  0  0
  6  8  1  6  0  0  0
  6 11  1  0  0  0  0
  8  2  1  0  0  0  0
  9  7  1  0  0  0  0
 10 18  1  1  0  0  0
 10  9  1  0  0  0  0
 11  7  1  0  0  0  0
 11  4  1  1  0  0  0
 12  2  2  0  0  0  0
 13 15  1  6  0  0  0
 13  8  1  0  0  0  0
 14  5  1  6  0  0  0
 14 10  1  0  0  0  0
 14  6  1  0  0  0  0
 16 15  1  0  0  0  0
 17 16  1  0  0  0  0
 17 15  1  0  0  0  0
 20 21  1  0  0  0  0
 20 18  1  0  0  0  0
 20 19  1  1  0  0  0
 22 21  1  0  0  0  0
 23 20  1  0  0  0  0
 24 23  1  0  0  0  0
 25 24  1  0  0  0  0
 27 26  1  0  0  0  0
 27 25  1  1  0  0  0
 28 27  1  0  0  0  0
 28 26  1  0  0  0  0
 29 28  1  0  0  0  0
 30  1  1  0  0  0  0
 31 30  1  1  0  0  0
 31 48  1  0  0  0  0
 32 31  1  0  0  0  0
 33 36  2  0  0  0  0
 33 32  1  0  0  0  0
 34 45  1  1  0  0  0
 34 36  1  0  0  0  0
 35 37  2  0  0  0  0
 35 34  1  0  0  0  0
 37 33  1  0  0  0  0
 38 37  1  0  0  0  0
 39 43  1  0  0  0  0
 40 39  1  0  0  0  0
 41 44  1  0  0  0  0
 41 40  1  0  0  0  0
 42 43  1  0  0  0  0
 43 38  1  0  0  0  0
 44 42  1  0  0  0  0
 45 47  1  0  0  0  0
 47 46  3  0  0  0  0
 48 49  1  0  0  0  0
 49 50  2  0  0  0  0
M  END
>  <MODEL>
8

>  <REMARK>
 VINA RESULT:      -1.2      5.655     10.123
  Name = 
  18 active torsions:
  status: ('A' for Active; 'I' for Inactive)
    1  A    between atoms: N_1  and  C_33
    2  A    between atoms: C_8  and  O_34
    3  A    between atoms: C_9  and  S_21
    4  A    between atoms: S_10  and  C_11
    5  A    between atoms: S_10  and  C_26
    6  A    between atoms: C_13  and  C_23
    7  A    between atoms: C_15  and  C_39
    8  A    between atoms: S_21  and  C_47
    9  A    between atoms: C_23  and  C_28
   10  A    between atoms: O_25  and  C_43
   11  A    between atoms: C_27  and  O_44
   12  A    between atoms: C_28  and  C_33
   13  A    between atoms: C_28  and  O_34
   14  A    between atoms: C_32  and  C_43
   15  A    between atoms: C_32  and  C_47
   16  A    between atoms: C_41  and  O_49
   17  A    between atoms: C_43  and  O_44
   18  A    between atoms: C_48  and  O_49
                            x       y       z     vdW  Elec       q    Type
                         _______ _______ _______ _____ _____    ______ ____

>  <TORSDO>
F 18

$$$$
=
 OpenBabel11072412093D

 50 56  0  0  1  0  0  0  0  0999 V2000
  161.1940  206.5170  152.5360 N   0  0  0  0  0  2  0  0  0  0  0  0
  161.3710  208.4170  150.8860 C   0  0  0  0  0  0  0  0  0  0  0  0
  160.9210  207.7790  152.2280 C   0  0  2  0  0  3  0  0  0  0  0  0
  160.3970  208.7770  153.2630 C   0  0  0  0  0  2  0  0  0  0  0  0
  161.5840  212.3460  150.2840 C   0  0  0  0  0  2  0  0  0  0  0  0
  161.1280  210.7160  152.0230 C   0  0  2  0  0  3  0  0  0  0  0  0
  159.6920  211.0580  153.8490 O   0  0  0  0  0  0  0  0  0  0  0  0
  161.3400  209.9670  150.8250 N   0  0  0  0  0  0  0  0  0  0  0  0
  159.3170  212.4350  153.5900 C   0  0  0  0  0  2  0  0  0  0  0  0
  159.5460  212.8810  152.1100 C   0  0  1  0  0  3  0  0  0  0  0  0
  159.9860  210.1980  152.7250 C   0  0  2  0  0  3  0  0  0  0  0  0
  161.4470  207.7640  149.8240 O   0  0  0  0  0  0  0  0  0  0  0  0
  161.8970  210.8910  149.7970 C   0  0  1  0  0  3  0  0  0  0  0  0
  160.8500  212.1490  151.6350 C   0  0  2  0  0  3  0  0  0  0  0  0
  161.2510  210.5870  148.4660 C   0  0  0  0  0  3  0  0  0  0  0  0
  162.0300  211.3000  147.3220 C   0  0  0  0  0  2  0  0  0  0  0  0
  160.6680  211.8740  147.8020 C   0  0  0  0  0  2  0  0  0  0  0  0
  158.3900  212.5720  151.3990 O   0  0  0  0  0  0  0  0  0  0  0  0
  158.8380  214.4440  150.1180 O   0  0  0  0  0  1  0  0  0  0  0  0
  157.8470  213.6010  150.6600 C   0  0  1  0  0  0  0  0  0  0  0  0
  157.1280  212.9770  149.5460 O   0  0  0  0  0  0  0  0  0  0  0  0
  156.3880  213.9090  148.7860 C   0  0  0  0  0  1  0  0  0  0  0  0
  156.7910  214.3940  151.5730 C   0  0  0  0  0  2  0  0  0  0  0  0
  156.9430  214.3910  153.0690 C   0  0  0  0  0  2  0  0  0  0  0  0
  155.2570  214.2970  153.8080 S   0  0  0  0  0  0  0  0  0  0  0  0
  155.2880  213.7610  156.4740 C   0  0  0  0  0  2  0  0  0  0  0  0
  155.1840  213.0350  155.2300 C   0  0  2  0  0  3  0  0  0  0  0  0
  156.3320  212.7770  156.1370 N   0  0  0  0  0  0  0  0  0  0  0  0
  156.0120  211.5730  156.9540 C   0  0  0  0  0  1  0  0  0  0  0  0
  162.2890  205.6880  151.8410 C   0  0  0  0  0  2  0  0  0  0  0  0
  161.7050  204.1810  151.4460 C   0  0  2  0  0  3  0  0  0  0  0  0
  160.5490  204.2240  150.5640 O   0  0  0  0  0  0  0  0  0  0  0  0
  160.4600  203.6780  149.3050 C   0  0  0  0  0  0  0  0  0  0  0  0
  160.7070  202.0890  147.7960 C   0  0  2  0  0  3  0  0  0  0  0  0
  161.1310  203.3650  147.1370 N   0  0  0  0  0  0  0  0  0  0  0  0
  160.4080  202.3520  149.1690 N   0  0  0  0  0  0  0  0  0  0  0  0
  160.8730  204.2900  148.0100 C   0  0  0  0  0  0  0  0  0  0  0  0
  160.8630  205.7320  147.6650 O   0  0  0  0  0  0  0  0  0  0  0  0
  162.4750  205.3310  145.8570 C   0  0  0  0  0  2  0  0  0  0  0  0
  162.7140  205.4740  144.3390 C   0  0  0  0  0  2  0  0  0  0  0  0
  161.5060  205.3390  143.4920 N   0  0  0  0  0  2  0  0  0  0  0  0
  160.2570  206.3710  145.3400 C   0  0  0  0  0  2  0  0  0  0  0  0
  161.3760  206.2380  146.4160 C   0  0  0  0  0  3  0  0  0  0  0  0
  160.2900  205.2310  144.3040 C   0  0  0  0  0  2  0  0  0  0  0  0
  161.4650  200.4590  147.2640 S   0  0  0  0  0  0  0  0  0  0  0  0
  159.7280  200.6910  144.8320 N   0  0  0  0  0  0  0  0  0  0  0  0
  160.4540  200.5610  145.8010 C   0  0  0  0  0  0  0  0  0  0  0  0
  160.8650  203.6030  152.6660 C   0  0  0  0  0  2  0  0  0  0  0  0
  160.1090  202.2650  152.6910 C   0  0  0  0  0  3  0  0  0  0  0  0
  160.1820  201.4890  151.6880 O   0  0  0  0  0  0  0  0  0  0  0  0
  2  3  1  0  0  0  0
  3  1  1  1  0  0  0
  3  4  1  0  0  0  0
  6  8  1  6  0  0  0
  6 11  1  0  0  0  0
  8  2  1  0  0  0  0
  9  7  1  0  0  0  0
 10 18  1  6  0  0  0
 10  9  1  0  0  0  0
 11  4  1  1  0  0  0
 11  7  1  0  0  0  0
 12  2  2  0  0  0  0
 13 15  1  6  0  0  0
 13  5  1  0  0  0  0
 13  8  1  0  0  0  0
 14  5  1  6  0  0  0
 14  6  1  0  0  0  0
 14 10  1  0  0  0  0
 16 17  1  0  0  0  0
 16 15  1  0  0  0  0
 17 15  1  0  0  0  0
 20 19  1  6  0  0  0
 20 18  1  0  0  0  0
 20 23  1  0  0  0  0
 21 20  1  0  0  0  0
 22 21  1  0  0  0  0
 23 24  1  0  0  0  0
 24 25  1  0  0  0  0
 27 25  1  6  0  0  0
 27 28  1  0  0  0  0
 27 26  1  0  0  0  0
 28 26  1  0  0  0  0
 28 29  1  0  0  0  0
 30  1  1  0  0  0  0
 31 30  1  1  0  0  0
 31 48  1  0  0  0  0
 32 31  1  0  0  0  0
 33 32  1  0  0  0  0
 34 45  1  1  0  0  0
 34 36  1  0  0  0  0
 35 34  1  0  0  0  0
 35 37  2  0  0  0  0
 36 33  2  0  0  0  0
 37 33  1  0  0  0  0
 38 37  1  0  0  0  0
 39 43  1  0  0  0  0
 40 39  1  0  0  0  0
 41 44  1  0  0  0  0
 41 40  1  0  0  0  0
 42 43  1  0  0  0  0
 43 38  1  0  0  0  0
 44 42  1  0  0  0  0
 46 47  3  0  0  0  0
 47 45  1  0  0  0  0
 48 49  1  0  0  0  0
 50 49  2  0  0  0  0
M  END
>  <MODEL>
9

>  <REMARK>
 VINA RESULT:      -1.2      6.068      9.780
  Name = 
  18 active torsions:
  status: ('A' for Active; 'I' for Inactive)
    1  A    between atoms: N_1  and  C_33
    2  A    between atoms: C_8  and  O_34
    3  A    between atoms: C_9  and  S_21
    4  A    between atoms: S_10  and  C_11
    5  A    between atoms: S_10  and  C_26
    6  A    between atoms: C_13  and  C_23
    7  A    between atoms: C_15  and  C_39
    8  A    between atoms: S_21  and  C_47
    9  A    between atoms: C_23  and  C_28
   10  A    between atoms: O_25  and  C_43
   11  A    between atoms: C_27  and  O_44
   12  A    between atoms: C_28  and  C_33
   13  A    between atoms: C_28  and  O_34
   14  A    between atoms: C_32  and  C_43
   15  A    between atoms: C_32  and  C_47
   16  A    between atoms: C_41  and  O_49
   17  A    between atoms: C_43  and  O_44
   18  A    between atoms: C_48  and  O_49
                            x       y       z     vdW  Elec       q    Type
                         _______ _______ _______ _____ _____    ______ ____

>  <TORSDO>
F 18

$$$$
