=
 OpenBabel11072411343D

 25 26  0  0  1  0  0  0  0  0999 V2000
  160.6260  204.2650  144.9200 C   0  0  0  0  0  0  0  0  0  0  0  0
  161.6800  204.7050  147.1740 C   0  0  2  0  0  3  0  0  0  0  0  0
  159.6380  203.9220  144.2200 O   0  0  0  0  0  0  0  0  0  0  0  0
  162.7170  205.6730  145.0960 C   0  0  0  0  0  2  0  0  0  0  0  0
  161.7090  204.9730  144.3090 N   0  0  0  0  0  2  0  0  0  0  0  0
  162.9860  204.9390  146.4060 C   0  0  0  0  0  2  0  0  0  0  0  0
  160.6940  203.8540  146.3680 C   0  0  2  0  0  3  0  0  0  0  0  0
  161.0740  202.4520  146.4680 N   0  0  0  0  0  2  0  0  0  0  0  0
  161.4160  200.5300  147.7220 O   0  0  0  0  0  0  0  0  0  0  0  0
  161.1380  201.7590  147.7160 C   0  0  0  0  0  0  0  0  0  0  0  0
  160.9000  202.4620  148.9420 N   0  0  0  0  0  2  0  0  0  0  0  0
  160.9210  201.8750  150.2480 C   0  0  0  0  0  0  0  0  0  0  0  0
  161.1450  200.6460  150.4070 O   0  0  0  0  0  0  0  0  0  0  0  0
  160.6700  202.7310  151.4360 C   0  0  0  0  0  1  0  0  0  0  0  0
  161.0240  206.0170  147.6080 C   0  0  0  0  0  2  0  0  0  0  0  0
  161.7360  206.6750  148.7910 C   0  0  1  0  0  3  0  0  0  0  0  0
  162.7040  207.6570  148.3290 N   0  0  0  0  0  2  0  0  0  0  0  0
  162.0970  208.8670  148.3850 O   0  0  0  0  0  1  0  0  0  0  0  0
  160.7750  207.3050  149.6860 N   0  0  0  0  0  2  0  0  0  0  0  0
  161.0720  205.9560  151.6950 C   0  0  0  0  0  2  0  0  0  0  0  0
  161.6470  205.9490  153.1090 C   0  0  0  0  0  2  0  0  0  0  0  0
  161.3200  208.4280  153.2540 C   0  0  0  0  0  2  0  0  0  0  0  0
  161.3510  207.2990  151.0200 C   0  0  0  0  0  3  0  0  0  0  0  0
  161.0410  207.0870  153.9270 C   0  0  0  0  0  2  0  0  0  0  0  0
  160.7460  208.4340  151.8390 C   0  0  0  0  0  2  0  0  0  0  0  0
  1  7  1  0  0  0  0
  2 15  1  6  0  0  0
  3  1  2  0  0  0  0
  4  6  1  0  0  0  0
  5  1  1  0  0  0  0
  5  4  1  0  0  0  0
  6  2  1  0  0  0  0
  7  8  1  6  0  0  0
  7  2  1  0  0  0  0
  8 10  1  0  0  0  0
 10  9  2  0  0  0  0
 10 11  1  0  0  0  0
 11 12  1  0  0  0  0
 12 13  2  0  0  0  0
 12 14  1  0  0  0  0
 16 15  1  6  0  0  0
 16 19  1  0  0  0  0
 17 18  1  0  0  0  0
 17 16  1  0  0  0  0
 19 23  1  0  0  0  0
 20 21  1  0  0  0  0
 21 24  1  0  0  0  0
 22 24  1  0  0  0  0
 23 20  1  0  0  0  0
 23 25  1  0  0  0  0
 25 22  1  0  0  0  0
M  END
>  <MODEL>
1

>  <REMARK>
 VINA RESULT:      -7.6      0.000      0.000
  Name = 
  6 active torsions:
  status: ('A' for Active; 'I' for Inactive)
    1  A    between atoms: C_2  and  C_7
    2  A    between atoms: C_2  and  N_9
    3  A    between atoms: C_2  and  N_23
    4  A    between atoms: N_3  and  C_25
    5  A    between atoms: C_6  and  C_7
    6  A    between atoms: C_20  and  N_23
                            x       y       z     vdW  Elec       q    Type
                         _______ _______ _______ _____ _____    ______ ____

>  <TORSDO>
F 6

$$$$
=
 OpenBabel11072411343D

 25 26  0  0  1  0  0  0  0  0999 V2000
  162.3180  209.3060  150.9390 C   0  0  0  0  0  0  0  0  0  0  0  0
  161.0840  207.1250  151.2610 C   0  0  2  0  0  3  0  0  0  0  0  0
  163.0480  210.2290  151.3860 O   0  0  0  0  0  0  0  0  0  0  0  0
  161.6260  207.9270  148.9380 C   0  0  0  0  0  2  0  0  0  0  0  0
  162.1790  209.1420  149.5240 N   0  0  0  0  0  2  0  0  0  0  0  0
  160.5470  207.3340  149.8400 C   0  0  0  0  0  2  0  0  0  0  0  0
  161.5360  208.4440  151.8950 C   0  0  2  0  0  3  0  0  0  0  0  0
  160.3700  209.1700  152.3790 N   0  0  0  0  0  2  0  0  0  0  0  0
  159.3640  210.6090  153.8950 O   0  0  0  0  0  0  0  0  0  0  0  0
  160.3930  209.9590  153.5700 C   0  0  0  0  0  0  0  0  0  0  0  0
  161.5710  209.9970  154.3850 N   0  0  0  0  0  2  0  0  0  0  0  0
  161.7190  210.7590  155.5880 C   0  0  0  0  0  0  0  0  0  0  0  0
  160.7870  211.4890  156.0150 O   0  0  0  0  0  0  0  0  0  0  0  0
  162.9980  210.6900  156.3410 C   0  0  0  0  0  1  0  0  0  0  0  0
  162.2140  206.0960  151.3030 C   0  0  0  0  0  2  0  0  0  0  0  0
  161.7060  204.6580  151.4270 C   0  0  1  0  0  3  0  0  0  0  0  0
  161.2110  204.4000  152.7700 N   0  0  0  0  0  2  0  0  0  0  0  0
  160.4950  203.2520  152.7130 O   0  0  0  0  0  1  0  0  0  0  0  0
  160.6570  204.3960  150.4510 N   0  0  0  0  0  2  0  0  0  0  0  0
  161.1220  204.2790  148.0600 C   0  0  0  0  0  2  0  0  0  0  0  0
  161.6940  203.4000  146.9500 C   0  0  0  0  0  2  0  0  0  0  0  0
  161.0600  201.3530  148.2450 C   0  0  0  0  0  2  0  0  0  0  0  0
  161.2310  203.5640  149.4060 C   0  0  0  0  0  3  0  0  0  0  0  0
  160.9520  202.0680  146.9010 C   0  0  0  0  0  2  0  0  0  0  0  0
  160.4890  202.2320  149.3550 C   0  0  0  0  0  2  0  0  0  0  0  0
  1  3  2  0  0  0  0
  1  7  1  0  0  0  0
  2 15  1  6  0  0  0
  2  7  1  0  0  0  0
  4  5  1  0  0  0  0
  4  6  1  0  0  0  0
  5  1  1  0  0  0  0
  6  2  1  0  0  0  0
  7  8  1  6  0  0  0
  8 10  1  0  0  0  0
 10  9  2  0  0  0  0
 10 11  1  0  0  0  0
 11 12  1  0  0  0  0
 12 13  2  0  0  0  0
 12 14  1  0  0  0  0
 16 15  1  1  0  0  0
 16 17  1  0  0  0  0
 18 17  1  0  0  0  0
 19 16  1  0  0  0  0
 20 23  1  0  0  0  0
 21 20  1  0  0  0  0
 22 25  1  0  0  0  0
 23 19  1  0  0  0  0
 24 21  1  0  0  0  0
 24 22  1  0  0  0  0
 25 23  1  0  0  0  0
M  END
>  <MODEL>
2

>  <REMARK>
 VINA RESULT:      -7.4      3.186      7.713
  Name = 
  6 active torsions:
  status: ('A' for Active; 'I' for Inactive)
    1  A    between atoms: C_2  and  C_7
    2  A    between atoms: C_2  and  N_9
    3  A    between atoms: C_2  and  N_23
    4  A    between atoms: N_3  and  C_25
    5  A    between atoms: C_6  and  C_7
    6  A    between atoms: C_20  and  N_23
                            x       y       z     vdW  Elec       q    Type
                         _______ _______ _______ _____ _____    ______ ____

>  <TORSDO>
F 6

$$$$
=
 OpenBabel11072411343D

 25 26  0  0  1  0  0  0  0  0999 V2000
  160.8100  206.8660  153.6790 C   0  0  0  0  0  0  0  0  0  0  0  0
  161.5360  207.4380  151.3280 C   0  0  2  0  0  3  0  0  0  0  0  0
  160.0300  207.0240  154.6550 O   0  0  0  0  0  0  0  0  0  0  0  0
  162.3030  205.2890  152.3870 C   0  0  0  0  0  2  0  0  0  0  0  0
  161.6280  205.6940  153.6150 N   0  0  0  0  0  2  0  0  0  0  0  0
  162.7300  206.5090  151.5770 C   0  0  0  0  0  2  0  0  0  0  0  0
  160.9320  207.9490  152.6400 C   0  0  2  0  0  3  0  0  0  0  0  0
  161.7500  209.0400  153.1530 N   0  0  0  0  0  2  0  0  0  0  0  0
  161.9560  211.0880  154.2220 O   0  0  0  0  0  0  0  0  0  0  0  0
  161.1870  210.2120  153.7440 C   0  0  0  0  0  0  0  0  0  0  0  0
  159.7650  210.3890  153.7790 N   0  0  0  0  0  2  0  0  0  0  0  0
  159.0860  211.5100  154.3550 C   0  0  0  0  0  0  0  0  0  0  0  0
  159.7230  212.4450  154.9060 O   0  0  0  0  0  0  0  0  0  0  0  0
  157.6020  211.5660  154.3060 C   0  0  0  0  0  1  0  0  0  0  0  0
  160.4600  206.7750  150.4660 C   0  0  0  0  0  2  0  0  0  0  0  0
  160.8550  206.6750  148.9920 C   0  0  1  0  0  3  0  0  0  0  0  0
  161.3940  207.9400  148.5170 N   0  0  0  0  0  2  0  0  0  0  0  0
  162.6340  207.6850  148.0350 O   0  0  0  0  0  1  0  0  0  0  0  0
  161.8280  205.6110  148.7890 N   0  0  0  0  0  2  0  0  0  0  0  0
  161.0560  203.4510  149.6140 C   0  0  0  0  0  2  0  0  0  0  0  0
  160.3120  202.1730  149.2340 C   0  0  0  0  0  2  0  0  0  0  0  0
  161.0280  202.4660  146.8520 C   0  0  0  0  0  2  0  0  0  0  0  0
  161.0930  204.4110  148.4260 C   0  0  0  0  0  3  0  0  0  0  0  0
  160.9900  201.5070  148.0390 C   0  0  0  0  0  2  0  0  0  0  0  0
  161.7710  203.7440  147.2330 C   0  0  0  0  0  2  0  0  0  0  0  0
  1  3  2  0  0  0  0
  2 15  1  1  0  0  0
  2  6  1  0  0  0  0
  2  7  1  0  0  0  0
  4  5  1  0  0  0  0
  5  1  1  0  0  0  0
  6  4  1  0  0  0  0
  7  8  1  1  0  0  0
  7  1  1  0  0  0  0
  8 10  1  0  0  0  0
 10 11  1  0  0  0  0
 10  9  2  0  0  0  0
 11 12  1  0  0  0  0
 12 13  2  0  0  0  0
 14 12  1  0  0  0  0
 16 15  1  1  0  0  0
 17 16  1  0  0  0  0
 18 17  1  0  0  0  0
 19 16  1  0  0  0  0
 21 20  1  0  0  0  0
 22 25  1  0  0  0  0
 22 24  1  0  0  0  0
 23 19  1  0  0  0  0
 23 20  1  0  0  0  0
 24 21  1  0  0  0  0
 25 23  1  0  0  0  0
M  END
>  <MODEL>
3

>  <REMARK>
 VINA RESULT:      -7.3      3.332      7.805
  Name = 
  6 active torsions:
  status: ('A' for Active; 'I' for Inactive)
    1  A    between atoms: C_2  and  C_7
    2  A    between atoms: C_2  and  N_9
    3  A    between atoms: C_2  and  N_23
    4  A    between atoms: N_3  and  C_25
    5  A    between atoms: C_6  and  C_7
    6  A    between atoms: C_20  and  N_23
                            x       y       z     vdW  Elec       q    Type
                         _______ _______ _______ _____ _____    ______ ____

>  <TORSDO>
F 6

$$$$
=
 OpenBabel11072411343D

 25 26  0  0  1  0  0  0  0  0999 V2000
  161.2260  209.3300  151.3920 C   0  0  0  0  0  0  0  0  0  0  0  0
  161.8460  207.9010  149.4020 C   0  0  2  0  0  3  0  0  0  0  0  0
  160.5730  210.2790  151.9000 O   0  0  0  0  0  0  0  0  0  0  0  0
  162.2950  207.0660  151.7330 C   0  0  0  0  0  2  0  0  0  0  0  0
  161.8100  208.3420  152.2460 N   0  0  0  0  0  2  0  0  0  0  0  0
  162.8670  207.2310  150.3280 C   0  0  0  0  0  2  0  0  0  0  0  0
  161.4570  209.2960  149.9040 C   0  0  2  0  0  3  0  0  0  0  0  0
  162.4990  210.2450  149.5400 N   0  0  0  0  0  2  0  0  0  0  0  0
  163.2140  212.1240  148.3820 O   0  0  0  0  0  0  0  0  0  0  0  0
  162.2850  211.3030  148.6030 C   0  0  0  0  0  0  0  0  0  0  0  0
  161.0310  211.4130  147.9180 N   0  0  0  0  0  2  0  0  0  0  0  0
  160.6940  212.4340  146.9710 C   0  0  0  0  0  0  0  0  0  0  0  0
  161.5100  213.3470  146.6800 O   0  0  0  0  0  0  0  0  0  0  0  0
  159.3560  212.4150  146.3250 C   0  0  0  0  0  1  0  0  0  0  0  0
  160.5990  207.0380  149.2000 C   0  0  0  0  0  2  0  0  0  0  0  0
  160.7220  206.0860  148.0100 C   0  0  1  0  0  3  0  0  0  0  0  0
  161.1120  206.8090  146.8080 N   0  0  0  0  0  2  0  0  0  0  0  0
  162.1910  206.1710  146.2960 O   0  0  0  0  0  1  0  0  0  0  0  0
  161.6860  205.0310  148.2900 N   0  0  0  0  0  2  0  0  0  0  0  0
  161.4080  203.7260  150.3310 C   0  0  0  0  0  2  0  0  0  0  0  0
  160.6710  202.5430  150.9560 C   0  0  0  0  0  2  0  0  0  0  0  0
  160.4840  201.4700  148.7010 C   0  0  0  0  0  2  0  0  0  0  0  0
  160.9580  203.9210  148.8840 C   0  0  0  0  0  3  0  0  0  0  0  0
  160.9330  201.2760  150.1470 C   0  0  0  0  0  2  0  0  0  0  0  0
  161.2200  202.6530  148.0770 C   0  0  0  0  0  2  0  0  0  0  0  0
  1  3  2  0  0  0  0
  1  5  1  0  0  0  0
  2 15  1  1  0  0  0
  2  7  1  0  0  0  0
  2  6  1  0  0  0  0
  4  5  1  0  0  0  0
  6  4  1  0  0  0  0
  7  8  1  1  0  0  0
  7  1  1  0  0  0  0
  9 10  2  0  0  0  0
 10  8  1  0  0  0  0
 11 10  1  0  0  0  0
 12 11  1  0  0  0  0
 13 12  2  0  0  0  0
 14 12  1  0  0  0  0
 16 19  1  0  0  0  0
 16 15  1  1  0  0  0
 17 16  1  0  0  0  0
 18 17  1  0  0  0  0
 19 23  1  0  0  0  0
 20 21  1  0  0  0  0
 22 24  1  0  0  0  0
 23 20  1  0  0  0  0
 24 21  1  0  0  0  0
 25 22  1  0  0  0  0
 25 23  1  0  0  0  0
M  END
>  <MODEL>
4

>  <REMARK>
 VINA RESULT:      -7.1      3.086      7.505
  Name = 
  6 active torsions:
  status: ('A' for Active; 'I' for Inactive)
    1  A    between atoms: C_2  and  C_7
    2  A    between atoms: C_2  and  N_9
    3  A    between atoms: C_2  and  N_23
    4  A    between atoms: N_3  and  C_25
    5  A    between atoms: C_6  and  C_7
    6  A    between atoms: C_20  and  N_23
                            x       y       z     vdW  Elec       q    Type
                         _______ _______ _______ _____ _____    ______ ____

>  <TORSDO>
F 6

$$$$
=
 OpenBabel11072411343D

 25 26  0  0  1  0  0  0  0  0999 V2000
  160.7520  206.8450  153.7050 C   0  0  0  0  0  0  0  0  0  0  0  0
  161.7060  207.5830  151.4840 C   0  0  2  0  0  3  0  0  0  0  0  0
  159.9330  206.9920  154.6490 O   0  0  0  0  0  0  0  0  0  0  0  0
  162.1180  205.2410  152.3080 C   0  0  0  0  0  2  0  0  0  0  0  0
  161.4170  205.5890  153.5390 N   0  0  0  0  0  2  0  0  0  0  0  0
  162.7520  206.4790  151.6800 C   0  0  0  0  0  2  0  0  0  0  0  0
  161.0830  208.0150  152.8150 C   0  0  2  0  0  3  0  0  0  0  0  0
  161.9950  208.9180  153.5030 N   0  0  0  0  0  2  0  0  0  0  0  0
  162.3880  210.7960  154.8070 O   0  0  0  0  0  0  0  0  0  0  0  0
  161.5490  210.0930  154.1820 C   0  0  0  0  0  0  0  0  0  0  0  0
  160.1670  210.4680  154.1390 N   0  0  0  0  0  2  0  0  0  0  0  0
  159.6000  211.6100  154.7900 C   0  0  0  0  0  0  0  0  0  0  0  0
  160.3100  212.3830  155.4850 O   0  0  0  0  0  0  0  0  0  0  0  0
  158.1470  211.8850  154.6460 C   0  0  0  0  0  1  0  0  0  0  0  0
  160.6160  207.1740  150.4910 C   0  0  0  0  0  2  0  0  0  0  0  0
  161.1300  207.0700  149.0540 C   0  0  1  0  0  3  0  0  0  0  0  0
  162.2990  207.9140  148.8620 N   0  0  0  0  0  2  0  0  0  0  0  0
  161.8480  209.1380  148.4990 O   0  0  0  0  0  1  0  0  0  0  0  0
  161.4520  205.6900  148.7200 N   0  0  0  0  0  2  0  0  0  0  0  0
  160.3980  206.1720  146.5750 C   0  0  0  0  0  2  0  0  0  0  0  0
  160.5690  206.0770  145.0600 C   0  0  0  0  0  2  0  0  0  0  0  0
  162.0460  204.0760  145.3530 C   0  0  0  0  0  2  0  0  0  0  0  0
  161.6370  205.6220  147.2800 C   0  0  0  0  0  3  0  0  0  0  0  0
  160.8090  204.6270  144.6500 C   0  0  0  0  0  2  0  0  0  0  0  0
  161.8750  204.1720  146.8680 C   0  0  0  0  0  2  0  0  0  0  0  0
  1  3  2  0  0  0  0
  2 15  1  6  0  0  0
  2  6  1  0  0  0  0
  2  7  1  0  0  0  0
  4  5  1  0  0  0  0
  5  1  1  0  0  0  0
  6  4  1  0  0  0  0
  7  8  1  1  0  0  0
  7  1  1  0  0  0  0
  8 10  1  0  0  0  0
 10  9  2  0  0  0  0
 11 10  1  0  0  0  0
 11 12  1  0  0  0  0
 12 13  2  0  0  0  0
 14 12  1  0  0  0  0
 16 15  1  1  0  0  0
 17 16  1  0  0  0  0
 18 17  1  0  0  0  0
 19 16  1  0  0  0  0
 20 23  1  0  0  0  0
 21 20  1  0  0  0  0
 22 25  1  0  0  0  0
 23 19  1  0  0  0  0
 24 21  1  0  0  0  0
 24 22  1  0  0  0  0
 25 23  1  0  0  0  0
M  END
>  <MODEL>
5

>  <REMARK>
 VINA RESULT:      -7.0      3.397      8.082
  Name = 
  6 active torsions:
  status: ('A' for Active; 'I' for Inactive)
    1  A    between atoms: C_2  and  C_7
    2  A    between atoms: C_2  and  N_9
    3  A    between atoms: C_2  and  N_23
    4  A    between atoms: N_3  and  C_25
    5  A    between atoms: C_6  and  C_7
    6  A    between atoms: C_20  and  N_23
                            x       y       z     vdW  Elec       q    Type
                         _______ _______ _______ _____ _____    ______ ____

>  <TORSDO>
F 6

$$$$
=
 OpenBabel11072411343D

 25 26  0  0  1  0  0  0  0  0999 V2000
  161.3320  211.0670  154.9450 C   0  0  0  0  0  0  0  0  0  0  0  0
  160.7790  209.9470  152.7480 C   0  0  2  0  0  3  0  0  0  0  0  0
  162.0740  211.1950  155.9540 O   0  0  0  0  0  0  0  0  0  0  0  0
  159.7650  212.1810  153.3050 C   0  0  0  0  0  2  0  0  0  0  0  0
  160.4130  212.1110  154.6100 N   0  0  0  0  0  2  0  0  0  0  0  0
  159.4930  210.7820  152.7600 C   0  0  0  0  0  2  0  0  0  0  0  0
  161.3620  209.7840  154.1560 C   0  0  2  0  0  3  0  0  0  0  0  0
  160.6250  208.7480  154.8650 N   0  0  0  0  0  2  0  0  0  0  0  0
  160.0740  206.5180  155.1940 O   0  0  0  0  0  0  0  0  0  0  0  0
  160.6910  207.3680  154.4980 C   0  0  0  0  0  0  0  0  0  0  0  0
  161.4410  206.9640  153.3460 N   0  0  0  0  0  2  0  0  0  0  0  0
  161.5920  205.6160  152.8890 C   0  0  0  0  0  0  0  0  0  0  0  0
  161.0650  204.6550  153.5090 O   0  0  0  0  0  0  0  0  0  0  0  0
  162.3900  205.3470  151.6650 C   0  0  0  0  0  1  0  0  0  0  0  0
  161.8300  210.5220  151.7970 C   0  0  0  0  0  2  0  0  0  0  0  0
  161.6960  209.9880  150.3700 C   0  0  1  0  0  3  0  0  0  0  0  0
  162.2790  210.9190  149.4150 N   0  0  0  0  0  2  0  0  0  0  0  0
  161.4980  212.0250  149.4150 O   0  0  0  0  0  1  0  0  0  0  0  0
  162.3310  208.6840  150.2450 N   0  0  0  0  0  2  0  0  0  0  0  0
  160.7250  206.9470  149.6530 C   0  0  0  0  0  2  0  0  0  0  0  0
  160.0810  206.1990  148.4880 C   0  0  0  0  0  2  0  0  0  0  0  0
  162.1340  206.5850  147.1070 C   0  0  0  0  0  2  0  0  0  0  0  0
  161.7030  207.9980  149.1280 C   0  0  0  0  0  3  0  0  0  0  0  0
  161.1570  205.5370  147.6320 C   0  0  0  0  0  2  0  0  0  0  0  0
  162.7770  207.3340  148.2720 C   0  0  0  0  0  2  0  0  0  0  0  0
  1  3  2  0  0  0  0
  2 15  1  6  0  0  0
  2  6  1  0  0  0  0
  2  7  1  0  0  0  0
  4  5  1  0  0  0  0
  5  1  1  0  0  0  0
  6  4  1  0  0  0  0
  7  8  1  1  0  0  0
  7  1  1  0  0  0  0
 10  8  1  0  0  0  0
 10  9  2  0  0  0  0
 11 10  1  0  0  0  0
 12 11  1  0  0  0  0
 12 13  2  0  0  0  0
 14 12  1  0  0  0  0
 16 15  1  1  0  0  0
 17 16  1  0  0  0  0
 18 17  1  0  0  0  0
 19 16  1  0  0  0  0
 21 20  1  0  0  0  0
 22 24  1  0  0  0  0
 22 25  1  0  0  0  0
 23 20  1  0  0  0  0
 23 19  1  0  0  0  0
 24 21  1  0  0  0  0
 25 23  1  0  0  0  0
M  END
>  <MODEL>
6

>  <REMARK>
 VINA RESULT:      -6.2      4.037      7.634
  Name = 
  6 active torsions:
  status: ('A' for Active; 'I' for Inactive)
    1  A    between atoms: C_2  and  C_7
    2  A    between atoms: C_2  and  N_9
    3  A    between atoms: C_2  and  N_23
    4  A    between atoms: N_3  and  C_25
    5  A    between atoms: C_6  and  C_7
    6  A    between atoms: C_20  and  N_23
                            x       y       z     vdW  Elec       q    Type
                         _______ _______ _______ _____ _____    ______ ____

>  <TORSDO>
F 6

$$$$
=
 OpenBabel11072411343D

 25 26  0  0  1  0  0  0  0  0999 V2000
  160.9160  210.6370  154.3030 C   0  0  0  0  0  0  0  0  0  0  0  0
  160.7210  209.4730  152.0690 C   0  0  2  0  0  3  0  0  0  0  0  0
  160.4260  210.9630  155.4160 O   0  0  0  0  0  0  0  0  0  0  0  0
  162.9920  210.0490  152.9870 C   0  0  0  0  0  2  0  0  0  0  0  0
  162.3330  210.7030  154.1120 N   0  0  0  0  0  2  0  0  0  0  0  0
  162.0980  210.0690  151.7510 C   0  0  0  0  0  2  0  0  0  0  0  0
  160.0010  210.2640  153.1660 C   0  0  2  0  0  3  0  0  0  0  0  0
  159.4140  211.4640  152.5870 N   0  0  0  0  0  2  0  0  0  0  0  0
  157.7810  213.1110  152.5620 O   0  0  0  0  0  0  0  0  0  0  0  0
  158.1990  212.0380  153.0720 C   0  0  0  0  0  0  0  0  0  0  0  0
  157.4630  211.3880  154.1160 N   0  0  0  0  0  2  0  0  0  0  0  0
  156.2460  211.8720  154.6930 C   0  0  0  0  0  0  0  0  0  0  0  0
  155.7290  212.9550  154.3120 O   0  0  0  0  0  0  0  0  0  0  0  0
  155.5820  211.0830  155.7630 C   0  0  0  0  0  1  0  0  0  0  0  0
  160.8080  207.9930  152.4450 C   0  0  0  0  0  2  0  0  0  0  0  0
  161.5310  207.1520  151.3920 C   0  0  1  0  0  3  0  0  0  0  0  0
  162.3440  206.1230  152.0220 N   0  0  0  0  0  2  0  0  0  0  0  0
  161.5480  205.4790  152.9080 O   0  0  0  0  0  1  0  0  0  0  0  0
  160.5780  206.5420  150.4760 N   0  0  0  0  0  2  0  0  0  0  0  0
  161.1910  206.7400  148.1240 C   0  0  0  0  0  2  0  0  0  0  0  0
  161.9620  206.0790  146.9840 C   0  0  0  0  0  2  0  0  0  0  0  0
  161.6010  203.8370  148.0400 C   0  0  0  0  0  2  0  0  0  0  0  0
  161.3390  205.9200  149.4050 C   0  0  0  0  0  3  0  0  0  0  0  0
  161.4530  204.6570  146.7620 C   0  0  0  0  0  2  0  0  0  0  0  0
  160.8310  204.4990  149.1800 C   0  0  0  0  0  2  0  0  0  0  0  0
  1  3  2  0  0  0  0
  2 15  1  1  0  0  0
  2  7  1  0  0  0  0
  4  5  1  0  0  0  0
  5  1  1  0  0  0  0
  6  2  1  0  0  0  0
  6  4  1  0  0  0  0
  7  8  1  6  0  0  0
  7  1  1  0  0  0  0
  8 10  1  0  0  0  0
  9 10  2  0  0  0  0
 10 11  1  0  0  0  0
 11 12  1  0  0  0  0
 12 14  1  0  0  0  0
 13 12  2  0  0  0  0
 16 17  1  0  0  0  0
 16 15  1  1  0  0  0
 17 18  1  0  0  0  0
 19 16  1  0  0  0  0
 20 23  1  0  0  0  0
 21 20  1  0  0  0  0
 22 25  1  0  0  0  0
 23 19  1  0  0  0  0
 24 21  1  0  0  0  0
 24 22  1  0  0  0  0
 25 23  1  0  0  0  0
M  END
>  <MODEL>
7

>  <REMARK>
 VINA RESULT:      -6.2      4.434      8.952
  Name = 
  6 active torsions:
  status: ('A' for Active; 'I' for Inactive)
    1  A    between atoms: C_2  and  C_7
    2  A    between atoms: C_2  and  N_9
    3  A    between atoms: C_2  and  N_23
    4  A    between atoms: N_3  and  C_25
    5  A    between atoms: C_6  and  C_7
    6  A    between atoms: C_20  and  N_23
                            x       y       z     vdW  Elec       q    Type
                         _______ _______ _______ _____ _____    ______ ____

>  <TORSDO>
F 6

$$$$
=
 OpenBabel11072411343D

 25 26  0  0  1  0  0  0  0  0999 V2000
  161.5370  210.9360  154.9560 C   0  0  0  0  0  0  0  0  0  0  0  0
  159.7580  211.2710  153.1930 C   0  0  2  0  0  3  0  0  0  0  0  0
  162.7260  210.6790  155.2790 O   0  0  0  0  0  0  0  0  0  0  0  0
  159.4020  212.1660  155.5170 C   0  0  0  0  0  2  0  0  0  0  0  0
  160.6680  211.5560  155.9080 N   0  0  0  0  0  2  0  0  0  0  0  0
  158.7700  211.4030  154.3570 C   0  0  0  0  0  2  0  0  0  0  0  0
  161.0220  210.5090  153.6060 C   0  0  2  0  0  3  0  0  0  0  0  0
  160.7430  209.0800  153.6090 N   0  0  0  0  0  2  0  0  0  0  0  0
  160.7540  207.0110  152.5600 O   0  0  0  0  0  0  0  0  0  0  0  0
  160.9600  208.2500  152.4670 C   0  0  0  0  0  0  0  0  0  0  0  0
  161.3950  208.8290  151.2290 N   0  0  0  0  0  2  0  0  0  0  0  0
  161.6590  208.1010  150.0250 C   0  0  0  0  0  0  0  0  0  0  0  0
  161.5350  206.8490  149.9800 O   0  0  0  0  0  0  0  0  0  0  0  0
  162.0910  208.8370  148.8090 C   0  0  0  0  0  1  0  0  0  0  0  0
  160.1250  212.6290  152.5920 C   0  0  0  0  0  2  0  0  0  0  0  0
  159.5030  212.8560  151.2130 C   0  0  1  0  0  3  0  0  0  0  0  0
  158.0520  212.7800  151.2820 N   0  0  0  0  0  2  0  0  0  0  0  0
  157.6250  213.9180  151.8790 O   0  0  0  0  0  1  0  0  0  0  0  0
  159.9090  214.1450  150.6700 N   0  0  0  0  0  2  0  0  0  0  0  0
  159.2020  213.8950  148.3500 C   0  0  0  0  0  2  0  0  0  0  0  0
  159.6890  213.6270  146.9280 C   0  0  0  0  0  2  0  0  0  0  0  0
  161.6220  212.3200  147.8370 C   0  0  0  0  0  2  0  0  0  0  0  0
  160.3860  213.9180  149.3160 C   0  0  0  0  0  3  0  0  0  0  0  0
  160.4390  212.2990  146.8720 C   0  0  0  0  0  2  0  0  0  0  0  0
  161.1350  212.5900  149.2580 C   0  0  0  0  0  2  0  0  0  0  0  0
  1  3  2  0  0  0  0
  1  5  1  0  0  0  0
  2 15  1  1  0  0  0
  2  7  1  0  0  0  0
  2  6  1  0  0  0  0
  4  5  1  0  0  0  0
  6  4  1  0  0  0  0
  7  8  1  1  0  0  0
  7  1  1  0  0  0  0
 10  9  2  0  0  0  0
 10  8  1  0  0  0  0
 11 10  1  0  0  0  0
 12 11  1  0  0  0  0
 13 12  2  0  0  0  0
 14 12  1  0  0  0  0
 16 17  1  0  0  0  0
 16 15  1  1  0  0  0
 17 18  1  0  0  0  0
 19 16  1  0  0  0  0
 20 23  1  0  0  0  0
 21 20  1  0  0  0  0
 22 25  1  0  0  0  0
 23 19  1  0  0  0  0
 24 21  1  0  0  0  0
 24 22  1  0  0  0  0
 25 23  1  0  0  0  0
M  END
>  <MODEL>
8

>  <REMARK>
 VINA RESULT:      -5.7      5.076      8.981
  Name = 
  6 active torsions:
  status: ('A' for Active; 'I' for Inactive)
    1  A    between atoms: C_2  and  C_7
    2  A    between atoms: C_2  and  N_9
    3  A    between atoms: C_2  and  N_23
    4  A    between atoms: N_3  and  C_25
    5  A    between atoms: C_6  and  C_7
    6  A    between atoms: C_20  and  N_23
                            x       y       z     vdW  Elec       q    Type
                         _______ _______ _______ _____ _____    ______ ____

>  <TORSDO>
F 6

$$$$
=
 OpenBabel11072411343D

 25 26  0  0  1  0  0  0  0  0999 V2000
  161.0640  207.4900  153.4870 C   0  0  0  0  0  0  0  0  0  0  0  0
  161.3190  206.7550  151.0830 C   0  0  2  0  0  3  0  0  0  0  0  0
  160.4000  208.0520  154.3970 O   0  0  0  0  0  0  0  0  0  0  0  0
  162.7290  205.6910  152.8740 C   0  0  0  0  0  2  0  0  0  0  0  0
  162.1350  206.6100  153.8390 N   0  0  0  0  0  2  0  0  0  0  0  0
  162.7300  206.3010  151.4760 C   0  0  0  0  0  2  0  0  0  0  0  0
  160.7780  207.8180  152.0440 C   0  0  2  0  0  3  0  0  0  0  0  0
  161.3530  209.1120  151.7050 N   0  0  0  0  0  2  0  0  0  0  0  0
  161.3540  211.4270  151.8430 O   0  0  0  0  0  0  0  0  0  0  0  0
  160.7690  210.3470  152.1210 C   0  0  0  0  0  0  0  0  0  0  0  0
  159.5250  210.3510  152.8330 N   0  0  0  0  0  2  0  0  0  0  0  0
  158.8520  211.5200  153.3120 C   0  0  0  0  0  0  0  0  0  0  0  0
  159.3390  212.6690  153.1440 O   0  0  0  0  0  0  0  0  0  0  0  0
  157.5560  211.3740  154.0260 C   0  0  0  0  0  1  0  0  0  0  0  0
  160.3440  205.5810  150.9790 C   0  0  0  0  0  2  0  0  0  0  0  0
  160.9980  204.3120  150.4300 C   0  0  1  0  0  3  0  0  0  0  0  0
  160.7190  203.1740  151.2920 N   0  0  0  0  0  2  0  0  0  0  0  0
  161.0900  202.0630  150.6120 O   0  0  0  0  0  1  0  0  0  0  0  0
  160.5360  204.0370  149.0770 N   0  0  0  0  0  2  0  0  0  0  0  0
  160.8910  205.9580  147.6190 C   0  0  0  0  0  2  0  0  0  0  0  0
  161.8610  206.6010  146.6300 C   0  0  0  0  0  2  0  0  0  0  0  0
  162.7400  204.3370  146.0200 C   0  0  0  0  0  2  0  0  0  0  0  0
  161.4780  204.6550  148.1590 C   0  0  0  0  0  3  0  0  0  0  0  0
  162.1540  205.6390  145.4820 C   0  0  0  0  0  2  0  0  0  0  0  0
  161.7710  203.6950  147.0100 C   0  0  0  0  0  2  0  0  0  0  0  0
  1  5  1  0  0  0  0
  1  3  2  0  0  0  0
  2 15  1  1  0  0  0
  2  6  1  0  0  0  0
  2  7  1  0  0  0  0
  4  5  1  0  0  0  0
  6  4  1  0  0  0  0
  7  8  1  6  0  0  0
  7  1  1  0  0  0  0
  8 10  1  0  0  0  0
  9 10  2  0  0  0  0
 10 11  1  0  0  0  0
 11 12  1  0  0  0  0
 12 14  1  0  0  0  0
 13 12  2  0  0  0  0
 16 15  1  1  0  0  0
 16 17  1  0  0  0  0
 18 17  1  0  0  0  0
 19 16  1  0  0  0  0
 20 23  1  0  0  0  0
 21 20  1  0  0  0  0
 22 25  1  0  0  0  0
 23 19  1  0  0  0  0
 24 22  1  0  0  0  0
 24 21  1  0  0  0  0
 25 23  1  0  0  0  0
M  END
>  <MODEL>
9

>  <REMARK>
 VINA RESULT:      -5.6      2.966      7.929
  Name = 
  6 active torsions:
  status: ('A' for Active; 'I' for Inactive)
    1  A    between atoms: C_2  and  C_7
    2  A    between atoms: C_2  and  N_9
    3  A    between atoms: C_2  and  N_23
    4  A    between atoms: N_3  and  C_25
    5  A    between atoms: C_6  and  C_7
    6  A    between atoms: C_20  and  N_23
                            x       y       z     vdW  Elec       q    Type
                         _______ _______ _______ _____ _____    ______ ____

>  <TORSDO>
F 6

$$$$
