=
 OpenBabel11072415263D

 25 26  0  0  1  0  0  0  0  0999 V2000
  161.7880  203.2100  145.9690 N   0  0  0  0  0  2  0  0  0  0  0  0
  160.7860  202.3330  146.5640 C   0  0  2  0  0  3  0  0  0  0  0  0
  160.8720  202.3390  148.0620 C   0  0  0  0  0  0  0  0  0  0  0  0
  161.0320  201.1470  150.2010 C   0  0  0  0  0  3  0  0  0  0  0  0
  160.9400  203.5500  150.1290 C   0  0  0  0  0  0  0  0  0  0  0  0
  161.0730  202.6680  152.1790 O   0  0  0  0  0  0  0  0  0  0  0  0
  161.0250  204.0930  152.3400 C   0  0  0  0  0  2  0  0  0  0  0  0
  161.0190  202.3890  150.8280 C   0  0  0  0  0  0  0  0  0  0  0  0
  160.9430  204.6170  151.0060 O   0  0  0  0  0  0  0  0  0  0  0  0
  160.8620  203.5730  148.7400 C   0  0  0  0  0  3  0  0  0  0  0  0
  160.9560  201.1290  148.7960 C   0  0  0  0  0  3  0  0  0  0  0  0
  160.8590  200.9210  145.9770 C   0  0  0  0  0  2  0  0  0  0  0  0
  159.9110  200.7280  144.8030 C   0  0  0  0  0  1  0  0  0  0  0  0
  161.0750  204.1970  145.1750 C   0  0  0  0  0  2  0  0  0  0  0  0
  161.7250  205.5610  145.3290 C   0  0  2  0  0  3  0  0  0  0  0  0
  163.0720  205.4030  145.6650 O   0  0  0  0  0  1  0  0  0  0  0  0
  161.0090  206.3270  146.4240 C   0  0  0  0  0  2  0  0  0  0  0  0
  161.9910  206.7430  147.5100 C   0  0  0  0  0  2  0  0  0  0  0  0
  161.2510  207.2920  148.7190 C   0  0  0  0  0  2  0  0  0  0  0  0
  161.9470  208.5240  149.2800 C   0  0  0  0  0  2  0  0  0  0  0  0
  162.3680  208.2880  150.5900 O   0  0  0  0  0  0  0  0  0  0  0  0
  161.1970  207.9900  151.2860 C   0  0  0  0  0  2  0  0  0  0  0  0
  160.8470  209.1430  152.2080 C   0  0  0  0  0  2  0  0  0  0  0  0
  160.7150  207.3580  153.7870 O   0  0  0  0  0  1  0  0  0  0  0  0
  160.9940  208.7190  153.6580 C   0  0  0  0  0  2  0  0  0  0  0  0
  1  2  1  0  0  0  0
  2 12  1  6  0  0  0
  2  3  1  0  0  0  0
  3 10  2  0  0  0  0
  3 11  1  0  0  0  0
  4  8  1  0  0  0  0
  5  8  2  0  0  0  0
  5  9  1  0  0  0  0
  6  7  1  0  0  0  0
  8  6  1  0  0  0  0
  9  7  1  0  0  0  0
 10  5  1  0  0  0  0
 11  4  2  0  0  0  0
 13 12  1  0  0  0  0
 14 15  1  0  0  0  0
 14  1  1  0  0  0  0
 15 16  1  1  0  0  0
 15 17  1  0  0  0  0
 17 18  1  0  0  0  0
 18 19  1  0  0  0  0
 19 20  1  0  0  0  0
 20 21  1  0  0  0  0
 21 22  1  0  0  0  0
 22 23  1  0  0  0  0
 23 25  1  0  0  0  0
 25 24  1  0  0  0  0
M  END
>  <MODEL>
1

>  <REMARK>
 VINA RESULT:      -6.7      0.000      0.000
  Name = 
  13 active torsions:
  status: ('A' for Active; 'I' for Inactive)
    1  A    between atoms: C_1  and  C_12
    2  A    between atoms: C_2  and  C_10
    3  A    between atoms: C_2  and  O_16
    4  A    between atoms: C_4  and  C_13
    5  A    between atoms: C_4  and  C_18
    6  A    between atoms: C_5  and  C_12
    7  A    between atoms: C_7  and  C_11
    8  A    between atoms: C_7  and  O_16
    9  A    between atoms: C_8  and  C_10
   10  A    between atoms: C_8  and  C_13
   11  A    between atoms: C_11  and  C_25
   12  A    between atoms: C_12  and  N_19
   13  A    between atoms: C_18  and  N_19
                            x       y       z     vdW  Elec       q    Type
                         _______ _______ _______ _____ _____    ______ ____

>  <TORSDO>
F 13

$$$$
=
 OpenBabel11072415263D

 25 26  0  0  1  0  0  0  0  0999 V2000
  161.5410  204.5920  150.8810 N   0  0  0  0  0  2  0  0  0  0  0  0
  161.5610  206.0040  150.5180 C   0  0  2  0  0  3  0  0  0  0  0  0
  161.3160  206.8800  151.7100 C   0  0  0  0  0  0  0  0  0  0  0  0
  161.0690  207.1760  154.1340 C   0  0  0  0  0  3  0  0  0  0  0  0
  160.8590  209.0450  152.6330 C   0  0  0  0  0  0  0  0  0  0  0  0
  160.5880  209.5330  154.7980 O   0  0  0  0  0  0  0  0  0  0  0  0
  160.4260  210.7590  154.0710 C   0  0  0  0  0  2  0  0  0  0  0  0
  160.8480  208.5280  153.8890 C   0  0  0  0  0  0  0  0  0  0  0  0
  160.6100  210.4020  152.6930 O   0  0  0  0  0  0  0  0  0  0  0  0
  161.0880  208.2560  151.5100 C   0  0  0  0  0  3  0  0  0  0  0  0
  161.3050  206.3460  153.0230 C   0  0  0  0  0  3  0  0  0  0  0  0
  160.5990  206.2990  149.3640 C   0  0  0  0  0  2  0  0  0  0  0  0
  161.2860  206.9830  148.1920 C   0  0  0  0  0  1  0  0  0  0  0  0
  160.9250  203.8750  149.7760 C   0  0  0  0  0  2  0  0  0  0  0  0
  160.4260  202.5190  150.2450 C   0  0  2  0  0  3  0  0  0  0  0  0
  161.4180  201.8920  151.0040 O   0  0  0  0  0  1  0  0  0  0  0  0
  160.0910  201.6710  149.0340 C   0  0  0  0  0  2  0  0  0  0  0  0
  161.2950  200.8360  148.6220 C   0  0  0  0  0  2  0  0  0  0  0  0
  161.3710  200.7180  147.1080 C   0  0  0  0  0  2  0  0  0  0  0  0
  160.5130  201.7740  146.4270 C   0  0  0  0  0  2  0  0  0  0  0  0
  161.2880  202.5350  145.5500 O   0  0  0  0  0  0  0  0  0  0  0  0
  161.4340  203.7660  146.1900 C   0  0  0  0  0  2  0  0  0  0  0  0
  162.2660  204.6930  145.3240 C   0  0  0  0  0  2  0  0  0  0  0  0
  160.1920  205.8350  145.0250 O   0  0  0  0  0  1  0  0  0  0  0  0
  161.3710  205.4700  144.3760 C   0  0  0  0  0  2  0  0  0  0  0  0
  2 12  1  6  0  0  0
  2  1  1  0  0  0  0
  2  3  1  0  0  0  0
  3 11  1  0  0  0  0
  5  9  1  0  0  0  0
  5  8  2  0  0  0  0
  7  6  1  0  0  0  0
  8  4  1  0  0  0  0
  8  6  1  0  0  0  0
  9  7  1  0  0  0  0
 10  3  2  0  0  0  0
 10  5  1  0  0  0  0
 11  4  2  0  0  0  0
 13 12  1  0  0  0  0
 14 15  1  0  0  0  0
 14  1  1  0  0  0  0
 15 16  1  6  0  0  0
 17 15  1  0  0  0  0
 18 17  1  0  0  0  0
 19 18  1  0  0  0  0
 20 19  1  0  0  0  0
 21 22  1  0  0  0  0
 21 20  1  0  0  0  0
 23 22  1  0  0  0  0
 25 24  1  0  0  0  0
 25 23  1  0  0  0  0
M  END
>  <MODEL>
2

>  <REMARK>
 VINA RESULT:      -6.6      1.940      6.777
  Name = 
  13 active torsions:
  status: ('A' for Active; 'I' for Inactive)
    1  A    between atoms: C_1  and  C_12
    2  A    between atoms: C_2  and  C_10
    3  A    between atoms: C_2  and  O_16
    4  A    between atoms: C_4  and  C_13
    5  A    between atoms: C_4  and  C_18
    6  A    between atoms: C_5  and  C_12
    7  A    between atoms: C_7  and  C_11
    8  A    between atoms: C_7  and  O_16
    9  A    between atoms: C_8  and  C_10
   10  A    between atoms: C_8  and  C_13
   11  A    between atoms: C_11  and  C_25
   12  A    between atoms: C_12  and  N_19
   13  A    between atoms: C_18  and  N_19
                            x       y       z     vdW  Elec       q    Type
                         _______ _______ _______ _____ _____    ______ ____

>  <TORSDO>
F 13

$$$$
=
 OpenBabel11072415263D

 25 26  0  0  1  0  0  0  0  0999 V2000
  161.3320  207.1730  150.2160 N   0  0  0  0  0  2  0  0  0  0  0  0
  160.9630  206.4400  151.4210 C   0  0  2  0  0  3  0  0  0  0  0  0
  160.9660  207.3310  152.6280 C   0  0  0  0  0  0  0  0  0  0  0  0
  160.9960  207.6370  155.0630 C   0  0  0  0  0  3  0  0  0  0  0  0
  160.9280  209.5310  153.5800 C   0  0  0  0  0  0  0  0  0  0  0  0
  160.9390  210.0330  155.7580 O   0  0  0  0  0  0  0  0  0  0  0  0
  160.8950  211.2760  155.0440 C   0  0  0  0  0  2  0  0  0  0  0  0
  160.9590  209.0090  154.8330 C   0  0  0  0  0  0  0  0  0  0  0  0
  160.8920  210.9090  153.6570 O   0  0  0  0  0  0  0  0  0  0  0  0
  160.9290  208.7270  152.4440 C   0  0  0  0  0  3  0  0  0  0  0  0
  160.9990  206.7910  153.9380 C   0  0  0  0  0  3  0  0  0  0  0  0
  161.8340  205.1960  151.6080 C   0  0  0  0  0  2  0  0  0  0  0  0
  161.0150  203.9170  151.6940 C   0  0  0  0  0  1  0  0  0  0  0  0
  160.7070  206.4940  149.0930 C   0  0  0  0  0  2  0  0  0  0  0  0
  161.7380  206.2080  148.0150 C   0  0  2  0  0  3  0  0  0  0  0  0
  162.6150  207.2900  147.9050 O   0  0  0  0  0  1  0  0  0  0  0  0
  161.0230  205.9900  146.6950 C   0  0  0  0  0  2  0  0  0  0  0  0
  162.0290  205.8830  145.5590 C   0  0  0  0  0  2  0  0  0  0  0  0
  162.2820  204.4260  145.2040 C   0  0  0  0  0  2  0  0  0  0  0  0
  161.6180  203.4900  146.2040 C   0  0  0  0  0  2  0  0  0  0  0  0
  160.9710  202.4480  145.5360 O   0  0  0  0  0  0  0  0  0  0  0  0
  160.7700  201.4750  146.5140 C   0  0  0  0  0  2  0  0  0  0  0  0
  161.0070  202.0770  147.8860 C   0  0  0  0  0  2  0  0  0  0  0  0
  159.9930  201.1070  149.8170 O   0  0  0  0  0  1  0  0  0  0  0  0
  161.0670  200.9830  148.9360 C   0  0  0  0  0  2  0  0  0  0  0  0
  1  2  1  0  0  0  0
  2 12  1  1  0  0  0
  2  3  1  0  0  0  0
  3 11  1  0  0  0  0
  5  9  1  0  0  0  0
  5  8  2  0  0  0  0
  7  6  1  0  0  0  0
  8  4  1  0  0  0  0
  8  6  1  0  0  0  0
  9  7  1  0  0  0  0
 10  3  2  0  0  0  0
 10  5  1  0  0  0  0
 11  4  2  0  0  0  0
 12 13  1  0  0  0  0
 14  1  1  0  0  0  0
 15 16  1  6  0  0  0
 15 14  1  0  0  0  0
 17 15  1  0  0  0  0
 18 17  1  0  0  0  0
 19 18  1  0  0  0  0
 19 20  1  0  0  0  0
 21 20  1  0  0  0  0
 21 22  1  0  0  0  0
 22 23  1  0  0  0  0
 23 25  1  0  0  0  0
 25 24  1  0  0  0  0
M  END
>  <MODEL>
3

>  <REMARK>
 VINA RESULT:      -6.4      2.191      6.652
  Name = 
  13 active torsions:
  status: ('A' for Active; 'I' for Inactive)
    1  A    between atoms: C_1  and  C_12
    2  A    between atoms: C_2  and  C_10
    3  A    between atoms: C_2  and  O_16
    4  A    between atoms: C_4  and  C_13
    5  A    between atoms: C_4  and  C_18
    6  A    between atoms: C_5  and  C_12
    7  A    between atoms: C_7  and  C_11
    8  A    between atoms: C_7  and  O_16
    9  A    between atoms: C_8  and  C_10
   10  A    between atoms: C_8  and  C_13
   11  A    between atoms: C_11  and  C_25
   12  A    between atoms: C_12  and  N_19
   13  A    between atoms: C_18  and  N_19
                            x       y       z     vdW  Elec       q    Type
                         _______ _______ _______ _____ _____    ______ ____

>  <TORSDO>
F 13

$$$$
=
 OpenBabel11072415263D

 25 26  0  0  1  0  0  0  0  0999 V2000
  160.6740  205.4680  151.5660 N   0  0  0  0  0  2  0  0  0  0  0  0
  161.3520  206.7460  151.3820 C   0  0  2  0  0  3  0  0  0  0  0  0
  161.0650  207.6870  152.5150 C   0  0  0  0  0  0  0  0  0  0  0  0
  160.5460  209.9350  153.3510 C   0  0  0  0  0  3  0  0  0  0  0  0
  160.7930  208.0810  154.8640 C   0  0  0  0  0  0  0  0  0  0  0  0
  160.3320  210.0410  155.8350 O   0  0  0  0  0  0  0  0  0  0  0  0
  160.4440  209.0710  156.8860 C   0  0  0  0  0  2  0  0  0  0  0  0
  160.5500  209.3970  154.6340 C   0  0  0  0  0  0  0  0  0  0  0  0
  160.7370  207.8330  156.2210 O   0  0  0  0  0  0  0  0  0  0  0  0
  161.0580  207.1860  153.8320 C   0  0  0  0  0  3  0  0  0  0  0  0
  160.8090  209.0610  152.2800 C   0  0  0  0  0  3  0  0  0  0  0  0
  161.0320  207.3570  150.0160 C   0  0  0  0  0  2  0  0  0  0  0  0
  162.2810  207.6230  149.1890 C   0  0  0  0  0  1  0  0  0  0  0  0
  161.6870  204.4290  151.4730 C   0  0  0  0  0  2  0  0  0  0  0  0
  161.0280  203.0650  151.3620 C   0  0  2  0  0  3  0  0  0  0  0  0
  161.9420  202.0720  151.7220 O   0  0  0  0  0  1  0  0  0  0  0  0
  160.5750  202.8520  149.9300 C   0  0  0  0  0  2  0  0  0  0  0  0
  160.8720  201.4270  149.4870 C   0  0  0  0  0  2  0  0  0  0  0  0
  160.9920  201.3510  147.9730 C   0  0  0  0  0  2  0  0  0  0  0  0
  161.3510  202.7050  147.3780 C   0  0  0  0  0  2  0  0  0  0  0  0
  161.1490  202.6960  145.9970 O   0  0  0  0  0  0  0  0  0  0  0  0
  161.6080  203.9410  145.5680 C   0  0  0  0  0  2  0  0  0  0  0  0
  161.4550  204.9530  146.6870 C   0  0  0  0  0  2  0  0  0  0  0  0
  160.4760  206.0820  144.8250 O   0  0  0  0  0  1  0  0  0  0  0  0
  160.6500  206.1480  146.2080 C   0  0  0  0  0  2  0  0  0  0  0  0
  2 12  1  6  0  0  0
  2  1  1  0  0  0  0
  2  3  1  0  0  0  0
  3 10  1  0  0  0  0
  4  8  2  0  0  0  0
  5  9  1  0  0  0  0
  6  7  1  0  0  0  0
  8  5  1  0  0  0  0
  8  6  1  0  0  0  0
  9  7  1  0  0  0  0
 10  5  2  0  0  0  0
 11  3  2  0  0  0  0
 11  4  1  0  0  0  0
 13 12  1  0  0  0  0
 14  1  1  0  0  0  0
 15 14  1  0  0  0  0
 15 16  1  6  0  0  0
 17 15  1  0  0  0  0
 18 17  1  0  0  0  0
 19 18  1  0  0  0  0
 20 19  1  0  0  0  0
 21 20  1  0  0  0  0
 22 21  1  0  0  0  0
 22 23  1  0  0  0  0
 24 25  1  0  0  0  0
 25 23  1  0  0  0  0
M  END
>  <MODEL>
4

>  <REMARK>
 VINA RESULT:      -6.4      2.293      7.153
  Name = 
  13 active torsions:
  status: ('A' for Active; 'I' for Inactive)
    1  A    between atoms: C_1  and  C_12
    2  A    between atoms: C_2  and  C_10
    3  A    between atoms: C_2  and  O_16
    4  A    between atoms: C_4  and  C_13
    5  A    between atoms: C_4  and  C_18
    6  A    between atoms: C_5  and  C_12
    7  A    between atoms: C_7  and  C_11
    8  A    between atoms: C_7  and  O_16
    9  A    between atoms: C_8  and  C_10
   10  A    between atoms: C_8  and  C_13
   11  A    between atoms: C_11  and  C_25
   12  A    between atoms: C_12  and  N_19
   13  A    between atoms: C_18  and  N_19
                            x       y       z     vdW  Elec       q    Type
                         _______ _______ _______ _____ _____    ______ ____

>  <TORSDO>
F 13

$$$$
=
 OpenBabel11072415263D

 25 26  0  0  1  0  0  0  0  0999 V2000
  160.7960  205.1120  151.1510 N   0  0  0  0  0  2  0  0  0  0  0  0
  161.2660  204.1880  150.1250 C   0  0  2  0  0  3  0  0  0  0  0  0
  161.1270  204.7770  148.7520 C   0  0  0  0  0  0  0  0  0  0  0  0
  160.3880  206.5820  147.2630 C   0  0  0  0  0  3  0  0  0  0  0  0
  161.4620  204.6160  146.3840 C   0  0  0  0  0  0  0  0  0  0  0  0
  160.8610  206.1310  144.8540 O   0  0  0  0  0  0  0  0  0  0  0  0
  161.4740  205.0440  144.1460 C   0  0  0  0  0  2  0  0  0  0  0  0
  160.8770  205.8280  146.2000 C   0  0  0  0  0  0  0  0  0  0  0  0
  161.8460  204.1000  145.1620 O   0  0  0  0  0  0  0  0  0  0  0  0
  161.6080  204.0490  147.6460 C   0  0  0  0  0  3  0  0  0  0  0  0
  160.5180  206.0420  148.5550 C   0  0  0  0  0  3  0  0  0  0  0  0
  160.5880  202.8220  150.2490 C   0  0  0  0  0  2  0  0  0  0  0  0
  161.3990  201.8420  151.0840 C   0  0  0  0  0  1  0  0  0  0  0  0
  161.9350  205.4270  151.9980 C   0  0  0  0  0  2  0  0  0  0  0  0
  161.6810  206.7180  152.7570 C   0  0  2  0  0  3  0  0  0  0  0  0
  160.9850  206.4400  153.9360 O   0  0  0  0  0  1  0  0  0  0  0  0
  160.8630  207.6500  151.8850 C   0  0  0  0  0  2  0  0  0  0  0  0
  161.7190  208.8120  151.4030 C   0  0  0  0  0  2  0  0  0  0  0  0
  162.3490  208.4910  150.0560 C   0  0  0  0  0  2  0  0  0  0  0  0
  161.9510  209.5140  149.0020 C   0  0  0  0  0  2  0  0  0  0  0  0
  162.0580  210.8070  149.5170 O   0  0  0  0  0  0  0  0  0  0  0  0
  162.3670  211.6000  148.4130 C   0  0  0  0  0  2  0  0  0  0  0  0
  161.0910  211.9770  147.6850 C   0  0  0  0  0  2  0  0  0  0  0  0
  162.7780  213.0980  146.4200 O   0  0  0  0  0  1  0  0  0  0  0  0
  161.3980  212.9480  146.5590 C   0  0  0  0  0  2  0  0  0  0  0  0
  1 14  1  0  0  0  0
  2 12  1  6  0  0  0
  2  1  1  0  0  0  0
  3  2  1  0  0  0  0
  4 11  2  0  0  0  0
  5 10  1  0  0  0  0
  6  8  1  0  0  0  0
  7  6  1  0  0  0  0
  7  9  1  0  0  0  0
  8  5  2  0  0  0  0
  8  4  1  0  0  0  0
  9  5  1  0  0  0  0
 10  3  2  0  0  0  0
 11  3  1  0  0  0  0
 12 13  1  0  0  0  0
 14 15  1  0  0  0  0
 15 16  1  1  0  0  0
 17 15  1  0  0  0  0
 18 17  1  0  0  0  0
 19 18  1  0  0  0  0
 20 21  1  0  0  0  0
 20 19  1  0  0  0  0
 22 21  1  0  0  0  0
 23 22  1  0  0  0  0
 24 25  1  0  0  0  0
 25 23  1  0  0  0  0
M  END
>  <MODEL>
5

>  <REMARK>
 VINA RESULT:      -6.3      2.573      5.853
  Name = 
  13 active torsions:
  status: ('A' for Active; 'I' for Inactive)
    1  A    between atoms: C_1  and  C_12
    2  A    between atoms: C_2  and  C_10
    3  A    between atoms: C_2  and  O_16
    4  A    between atoms: C_4  and  C_13
    5  A    between atoms: C_4  and  C_18
    6  A    between atoms: C_5  and  C_12
    7  A    between atoms: C_7  and  C_11
    8  A    between atoms: C_7  and  O_16
    9  A    between atoms: C_8  and  C_10
   10  A    between atoms: C_8  and  C_13
   11  A    between atoms: C_11  and  C_25
   12  A    between atoms: C_12  and  N_19
   13  A    between atoms: C_18  and  N_19
                            x       y       z     vdW  Elec       q    Type
                         _______ _______ _______ _____ _____    ______ ____

>  <TORSDO>
F 13

$$$$
=
 OpenBabel11072415263D

 25 26  0  0  1  0  0  0  0  0999 V2000
  162.4120  207.2660  150.9670 N   0  0  0  0  0  2  0  0  0  0  0  0
  161.2150  206.7760  150.2920 C   0  0  2  0  0  3  0  0  0  0  0  0
  161.1270  205.2800  150.3490 C   0  0  0  0  0  0  0  0  0  0  0  0
  161.0610  203.1880  151.6300 C   0  0  0  0  0  3  0  0  0  0  0  0
  160.9590  203.1690  149.2250 C   0  0  0  0  0  0  0  0  0  0  0  0
  160.8950  201.1550  150.1920 O   0  0  0  0  0  0  0  0  0  0  0  0
  160.8280  200.9400  148.7750 C   0  0  0  0  0  2  0  0  0  0  0  0
  160.9730  202.5140  150.4150 C   0  0  0  0  0  0  0  0  0  0  0  0
  160.8680  202.2530  148.1970 O   0  0  0  0  0  0  0  0  0  0  0  0
  161.0360  204.5560  149.1440 C   0  0  0  0  0  3  0  0  0  0  0  0
  161.1400  204.5920  151.5880 C   0  0  0  0  0  3  0  0  0  0  0  0
  161.1190  207.3160  148.8630 C   0  0  0  0  0  2  0  0  0  0  0  0
  162.4770  207.6860  148.2860 C   0  0  0  0  0  1  0  0  0  0  0  0
  162.0360  208.4740  151.6830 C   0  0  0  0  0  2  0  0  0  0  0  0
  160.8540  208.1940  152.5960 C   0  0  2  0  0  3  0  0  0  0  0  0
  160.2090  209.3930  152.9090 O   0  0  0  0  0  1  0  0  0  0  0  0
  161.3570  207.5330  153.8650 C   0  0  0  0  0  2  0  0  0  0  0  0
  160.1990  207.2500  154.8100 C   0  0  0  0  0  2  0  0  0  0  0  0
  160.5880  207.5690  156.2450 C   0  0  0  0  0  2  0  0  0  0  0  0
  161.7880  208.5040  156.2970 C   0  0  0  0  0  2  0  0  0  0  0  0
  161.4550  209.6810  156.9690 O   0  0  0  0  0  0  0  0  0  0  0  0
  161.4130  210.6540  155.9720 C   0  0  0  0  0  2  0  0  0  0  0  0
  160.3920  211.7150  156.3390 C   0  0  0  0  0  2  0  0  0  0  0  0
  158.4940  210.4520  155.6320 O   0  0  0  0  0  1  0  0  0  0  0  0
  159.1960  211.6360  155.4070 C   0  0  0  0  0  2  0  0  0  0  0  0
  1 14  1  0  0  0  0
  2 12  1  6  0  0  0
  2  3  1  0  0  0  0
  2  1  1  0  0  0  0
  3 11  1  0  0  0  0
  5  8  2  0  0  0  0
  6  8  1  0  0  0  0
  7  6  1  0  0  0  0
  8  4  1  0  0  0  0
  9  7  1  0  0  0  0
  9  5  1  0  0  0  0
 10  5  1  0  0  0  0
 10  3  2  0  0  0  0
 11  4  2  0  0  0  0
 13 12  1  0  0  0  0
 14 15  1  0  0  0  0
 15 16  1  1  0  0  0
 15 17  1  0  0  0  0
 17 18  1  0  0  0  0
 18 19  1  0  0  0  0
 19 20  1  0  0  0  0
 20 21  1  0  0  0  0
 22 23  1  0  0  0  0
 22 21  1  0  0  0  0
 25 24  1  0  0  0  0
 25 23  1  0  0  0  0
M  END
>  <MODEL>
6

>  <REMARK>
 VINA RESULT:      -6.3      2.684      5.744
  Name = 
  13 active torsions:
  status: ('A' for Active; 'I' for Inactive)
    1  A    between atoms: C_1  and  C_12
    2  A    between atoms: C_2  and  C_10
    3  A    between atoms: C_2  and  O_16
    4  A    between atoms: C_4  and  C_13
    5  A    between atoms: C_4  and  C_18
    6  A    between atoms: C_5  and  C_12
    7  A    between atoms: C_7  and  C_11
    8  A    between atoms: C_7  and  O_16
    9  A    between atoms: C_8  and  C_10
   10  A    between atoms: C_8  and  C_13
   11  A    between atoms: C_11  and  C_25
   12  A    between atoms: C_12  and  N_19
   13  A    between atoms: C_18  and  N_19
                            x       y       z     vdW  Elec       q    Type
                         _______ _______ _______ _____ _____    ______ ____

>  <TORSDO>
F 13

$$$$
=
 OpenBabel11072415263D

 25 26  0  0  1  0  0  0  0  0999 V2000
  161.3240  207.8890  149.1490 N   0  0  0  0  0  2  0  0  0  0  0  0
  162.1150  208.4610  150.2330 C   0  0  2  0  0  3  0  0  0  0  0  0
  161.6850  207.9250  151.5670 C   0  0  0  0  0  0  0  0  0  0  0  0
  161.2960  206.0420  153.0920 C   0  0  0  0  0  3  0  0  0  0  0  0
  160.8520  208.3040  153.7820 C   0  0  0  0  0  0  0  0  0  0  0  0
  160.4190  206.7420  155.3210 O   0  0  0  0  0  0  0  0  0  0  0  0
  160.0930  208.0090  155.9100 C   0  0  0  0  0  2  0  0  0  0  0  0
  160.8720  206.9710  154.0380 C   0  0  0  0  0  0  0  0  0  0  0  0
  160.3880  208.9790  154.8940 O   0  0  0  0  0  0  0  0  0  0  0  0
  161.2490  208.8280  152.5560 C   0  0  0  0  0  3  0  0  0  0  0  0
  161.7050  206.5340  151.8390 C   0  0  0  0  0  3  0  0  0  0  0  0
  162.1070  209.9900  150.1850 C   0  0  0  0  0  2  0  0  0  0  0  0
  162.0520  210.5290  148.7630 C   0  0  0  0  0  1  0  0  0  0  0  0
  162.2450  207.1840  148.2730 C   0  0  0  0  0  2  0  0  0  0  0  0
  161.4920  206.5760  147.1020 C   0  0  2  0  0  3  0  0  0  0  0  0
  160.2230  206.1710  147.5210 O   0  0  0  0  0  1  0  0  0  0  0  0
  162.2690  205.3820  146.5840 C   0  0  0  0  0  2  0  0  0  0  0  0
  161.6120  204.0860  147.0360 C   0  0  0  0  0  2  0  0  0  0  0  0
  161.2600  203.2180  145.8380 C   0  0  0  0  0  2  0  0  0  0  0  0
  160.8200  201.8280  146.2730 C   0  0  0  0  0  2  0  0  0  0  0  0
  160.4450  201.8380  147.6180 O   0  0  0  0  0  0  0  0  0  0  0  0
  161.2660  200.8820  148.2180 C   0  0  0  0  0  2  0  0  0  0  0  0
  161.0990  200.9430  149.7240 C   0  0  0  0  0  2  0  0  0  0  0  0
  161.1660  203.2060  150.4810 O   0  0  0  0  0  1  0  0  0  0  0  0
  160.3010  202.1740  150.1140 C   0  0  0  0  0  2  0  0  0  0  0  0
  1  2  1  0  0  0  0
  2 12  1  1  0  0  0
  2  3  1  0  0  0  0
  3 11  2  0  0  0  0
  3 10  1  0  0  0  0
  4  8  2  0  0  0  0
  5  8  1  0  0  0  0
  5  9  1  0  0  0  0
  6  7  1  0  0  0  0
  8  6  1  0  0  0  0
  9  7  1  0  0  0  0
 10  5  2  0  0  0  0
 11  4  1  0  0  0  0
 13 12  1  0  0  0  0
 14  1  1  0  0  0  0
 15 16  1  1  0  0  0
 15 14  1  0  0  0  0
 17 18  1  0  0  0  0
 17 15  1  0  0  0  0
 19 20  1  0  0  0  0
 19 18  1  0  0  0  0
 20 21  1  0  0  0  0
 21 22  1  0  0  0  0
 22 23  1  0  0  0  0
 23 25  1  0  0  0  0
 25 24  1  0  0  0  0
M  END
>  <MODEL>
7

>  <REMARK>
 VINA RESULT:      -6.1      2.091      6.376
  Name = 
  13 active torsions:
  status: ('A' for Active; 'I' for Inactive)
    1  A    between atoms: C_1  and  C_12
    2  A    between atoms: C_2  and  C_10
    3  A    between atoms: C_2  and  O_16
    4  A    between atoms: C_4  and  C_13
    5  A    between atoms: C_4  and  C_18
    6  A    between atoms: C_5  and  C_12
    7  A    between atoms: C_7  and  C_11
    8  A    between atoms: C_7  and  O_16
    9  A    between atoms: C_8  and  C_10
   10  A    between atoms: C_8  and  C_13
   11  A    between atoms: C_11  and  C_25
   12  A    between atoms: C_12  and  N_19
   13  A    between atoms: C_18  and  N_19
                            x       y       z     vdW  Elec       q    Type
                         _______ _______ _______ _____ _____    ______ ____

>  <TORSDO>
F 13

$$$$
=
 OpenBabel11072415263D

 25 26  0  0  1  0  0  0  0  0999 V2000
  160.7580  204.6070  151.0050 N   0  0  0  0  0  2  0  0  0  0  0  0
  161.1780  203.7390  149.9100 C   0  0  2  0  0  3  0  0  0  0  0  0
  161.1600  204.4650  148.5980 C   0  0  0  0  0  0  0  0  0  0  0  0
  160.7820  206.5040  147.2850 C   0  0  0  0  0  3  0  0  0  0  0  0
  161.4750  204.4590  146.2220 C   0  0  0  0  0  0  0  0  0  0  0  0
  161.1770  206.1920  144.8410 O   0  0  0  0  0  0  0  0  0  0  0  0
  161.5820  205.0780  144.0310 C   0  0  0  0  0  2  0  0  0  0  0  0
  161.1280  205.7700  146.1540 C   0  0  0  0  0  0  0  0  0  0  0  0
  161.7640  203.9940  144.9540 O   0  0  0  0  0  0  0  0  0  0  0  0
  161.5040  203.7630  147.4260 C   0  0  0  0  0  3  0  0  0  0  0  0
  160.7990  205.8340  148.5220 C   0  0  0  0  0  3  0  0  0  0  0  0
  160.3610  202.4460  149.8770 C   0  0  0  0  0  2  0  0  0  0  0  0
  161.2130  201.2110  150.1270 C   0  0  0  0  0  1  0  0  0  0  0  0
  161.8390  204.6240  151.9760 C   0  0  0  0  0  2  0  0  0  0  0  0
  161.8980  205.9740  152.6700 C   0  0  2  0  0  3  0  0  0  0  0  0
  161.2130  205.9080  153.8860 O   0  0  0  0  0  1  0  0  0  0  0  0
  161.2550  207.0170  151.7750 C   0  0  0  0  0  2  0  0  0  0  0  0
  162.3210  207.7950  151.0180 C   0  0  0  0  0  2  0  0  0  0  0  0
  161.9410  209.2640  150.9170 C   0  0  0  0  0  2  0  0  0  0  0  0
  161.9860  209.9410  152.2800 C   0  0  0  0  0  2  0  0  0  0  0  0
  160.8310  210.6990  152.4810 O   0  0  0  0  0  0  0  0  0  0  0  0
  160.8810  211.0620  153.8270 C   0  0  0  0  0  2  0  0  0  0  0  0
  160.1240  210.0430  154.6570 C   0  0  0  0  0  2  0  0  0  0  0  0
  161.0000  209.1940  156.7080 O   0  0  0  0  0  1  0  0  0  0  0  0
  161.0940  209.0830  155.3210 C   0  0  0  0  0  2  0  0  0  0  0  0
  1 14  1  0  0  0  0
  2 12  1  6  0  0  0
  2  1  1  0  0  0  0
  3  2  1  0  0  0  0
  4 11  2  0  0  0  0
  5 10  1  0  0  0  0
  6  8  1  0  0  0  0
  7  6  1  0  0  0  0
  7  9  1  0  0  0  0
  8  5  2  0  0  0  0
  8  4  1  0  0  0  0
  9  5  1  0  0  0  0
 10  3  2  0  0  0  0
 11  3  1  0  0  0  0
 12 13  1  0  0  0  0
 14 15  1  0  0  0  0
 15 16  1  1  0  0  0
 17 15  1  0  0  0  0
 18 17  1  0  0  0  0
 19 18  1  0  0  0  0
 19 20  1  0  0  0  0
 20 21  1  0  0  0  0
 21 22  1  0  0  0  0
 22 23  1  0  0  0  0
 23 25  1  0  0  0  0
 25 24  1  0  0  0  0
M  END
>  <MODEL>
8

>  <REMARK>
 VINA RESULT:      -6.1      2.250      5.160
  Name = 
  13 active torsions:
  status: ('A' for Active; 'I' for Inactive)
    1  A    between atoms: C_1  and  C_12
    2  A    between atoms: C_2  and  C_10
    3  A    between atoms: C_2  and  O_16
    4  A    between atoms: C_4  and  C_13
    5  A    between atoms: C_4  and  C_18
    6  A    between atoms: C_5  and  C_12
    7  A    between atoms: C_7  and  C_11
    8  A    between atoms: C_7  and  O_16
    9  A    between atoms: C_8  and  C_10
   10  A    between atoms: C_8  and  C_13
   11  A    between atoms: C_11  and  C_25
   12  A    between atoms: C_12  and  N_19
   13  A    between atoms: C_18  and  N_19
                            x       y       z     vdW  Elec       q    Type
                         _______ _______ _______ _____ _____    ______ ____

>  <TORSDO>
F 13

$$$$
=
 OpenBabel11072415263D

 25 26  0  0  1  0  0  0  0  0999 V2000
  161.9510  207.9650  151.5690 N   0  0  0  0  0  2  0  0  0  0  0  0
  161.2270  207.2440  152.6090 C   0  0  2  0  0  3  0  0  0  0  0  0
  160.8880  208.1420  153.7630 C   0  0  0  0  0  0  0  0  0  0  0  0
  160.1890  208.4600  156.0940 C   0  0  0  0  0  3  0  0  0  0  0  0
  160.6210  210.3470  154.6640 C   0  0  0  0  0  0  0  0  0  0  0  0
  159.9860  210.8600  156.7450 O   0  0  0  0  0  0  0  0  0  0  0  0
  160.1910  212.1010  156.0540 C   0  0  0  0  0  2  0  0  0  0  0  0
  160.2570  209.8310  155.8670 C   0  0  0  0  0  0  0  0  0  0  0  0
  160.5980  211.7260  154.7300 O   0  0  0  0  0  0  0  0  0  0  0  0
  160.9440  209.5370  153.5790 C   0  0  0  0  0  3  0  0  0  0  0  0
  160.5090  207.6080  155.0200 C   0  0  0  0  0  3  0  0  0  0  0  0
  161.9800  205.9860  153.0460 C   0  0  0  0  0  2  0  0  0  0  0  0
  161.1300  204.7290  152.9350 C   0  0  0  0  0  1  0  0  0  0  0  0
  161.1920  207.8160  150.3380 C   0  0  0  0  0  2  0  0  0  0  0  0
  161.9830  206.9990  149.3310 C   0  0  2  0  0  3  0  0  0  0  0  0
  162.4630  207.8360  148.3210 O   0  0  0  0  0  1  0  0  0  0  0  0
  161.0760  205.9400  148.7330 C   0  0  0  0  0  2  0  0  0  0  0  0
  160.8700  204.8010  149.7200 C   0  0  0  0  0  2  0  0  0  0  0  0
  160.8460  203.4640  148.9960 C   0  0  0  0  0  2  0  0  0  0  0  0
  161.7350  203.4880  147.7600 C   0  0  0  0  0  2  0  0  0  0  0  0
  161.1660  202.7240  146.7400 O   0  0  0  0  0  0  0  0  0  0  0  0
  161.4180  203.4500  145.5760 C   0  0  0  0  0  2  0  0  0  0  0  0
  162.5460  204.4340  145.8250 C   0  0  0  0  0  2  0  0  0  0  0  0
  161.2600  205.5820  144.1730 O   0  0  0  0  0  1  0  0  0  0  0  0
  162.2460  205.7580  145.1450 C   0  0  0  0  0  2  0  0  0  0  0  0
  1  2  1  0  0  0  0
  2 12  1  1  0  0  0
  2  3  1  0  0  0  0
  3 11  1  0  0  0  0
  5  9  1  0  0  0  0
  5  8  2  0  0  0  0
  7  6  1  0  0  0  0
  8  4  1  0  0  0  0
  8  6  1  0  0  0  0
  9  7  1  0  0  0  0
 10  3  2  0  0  0  0
 10  5  1  0  0  0  0
 11  4  2  0  0  0  0
 13 12  1  0  0  0  0
 14  1  1  0  0  0  0
 15 16  1  6  0  0  0
 15 14  1  0  0  0  0
 17 15  1  0  0  0  0
 17 18  1  0  0  0  0
 19 18  1  0  0  0  0
 20 19  1  0  0  0  0
 21 20  1  0  0  0  0
 22 23  1  0  0  0  0
 22 21  1  0  0  0  0
 24 25  1  0  0  0  0
 25 23  1  0  0  0  0
M  END
>  <MODEL>
9

>  <REMARK>
 VINA RESULT:      -6.1      2.753      7.550
  Name = 
  13 active torsions:
  status: ('A' for Active; 'I' for Inactive)
    1  A    between atoms: C_1  and  C_12
    2  A    between atoms: C_2  and  C_10
    3  A    between atoms: C_2  and  O_16
    4  A    between atoms: C_4  and  C_13
    5  A    between atoms: C_4  and  C_18
    6  A    between atoms: C_5  and  C_12
    7  A    between atoms: C_7  and  C_11
    8  A    between atoms: C_7  and  O_16
    9  A    between atoms: C_8  and  C_10
   10  A    between atoms: C_8  and  C_13
   11  A    between atoms: C_11  and  C_25
   12  A    between atoms: C_12  and  N_19
   13  A    between atoms: C_18  and  N_19
                            x       y       z     vdW  Elec       q    Type
                         _______ _______ _______ _____ _____    ______ ____

>  <TORSDO>
F 13

$$$$
