=
 OpenBabel11072411573D

 60 68  0  0  1  0  0  0  0  0999 V2000
  163.0260  203.9600  153.0620 C   0  0  0  0  0  2  0  0  0  0  0  0
  161.9410  202.5820  147.1620 O   0  0  0  0  0  0  0  0  0  0  0  0
  162.4690  202.8310  152.2150 C   0  0  0  0  0  0  0  0  0  0  0  0
  162.8890  201.7010  152.4870 O   0  0  0  0  0  0  0  0  0  0  0  0
  161.4550  203.6530  148.0300 C   0  0  1  0  0  3  0  0  0  0  0  0
  161.0890  207.8320  146.6990 C   0  0  0  0  0  2  0  0  0  0  0  0
  162.1460  207.3390  147.7880 C   0  0  2  0  0  3  0  0  0  0  0  0
  160.4020  206.6440  145.9110 C   0  0  0  0  0  2  0  0  0  0  0  0
  162.9350  205.4600  152.7880 C   0  0  2  0  0  3  0  0  0  0  0  0
  161.5800  199.5570  145.9520 C   0  0  0  0  0  0  0  0  0  0  0  0
  163.2340  210.8460  150.0060 O   0  0  0  0  0  0  0  0  0  0  0  0
  159.8750  202.2250  149.5980 C   0  0  0  0  0  2  0  0  0  0  0  0
  159.1690  202.2680  144.8090 C   0  0  0  0  0  2  0  0  0  0  0  0
  162.3770  210.3370  151.0170 C   0  0  0  0  0  2  0  0  0  0  0  0
  161.5430  203.0550  151.1020 N   0  0  0  0  0  2  0  0  0  0  0  0
  164.0480  209.2630  148.6310 O   0  0  0  0  0  1  0  0  0  0  0  0
  161.2030  201.9440  150.2120 C   0  0  0  0  0  2  0  0  0  0  0  0
  161.2120  202.1130  146.0520 C   0  0  0  0  0  0  0  0  0  0  0  0
  162.4190  198.3630  145.6160 O   0  0  0  0  0  0  0  0  0  0  0  0
  159.7800  209.2030  152.5820 O   0  0  0  0  0  0  0  0  0  0  0  0
  160.4900  204.3420  144.9950 N   0  0  0  0  0  0  0  0  0  0  0  0
  162.4640  205.9080  147.8060 N   0  0  0  0  0  2  0  0  0  0  0  0
  159.4280  207.6430  150.7160 O   0  0  0  0  0  0  0  0  0  0  0  0
  161.7820  206.0540  151.9040 C   0  0  1  0  0  3  0  0  0  0  0  0
  160.4550  208.4500  151.4510 S   0  0  0  0  0  0  0  0  0  0  0  0
  160.2490  202.9160  145.3190 C   0  0  0  0  0  0  0  0  0  0  0  0
  162.9780  210.0720  148.8810 C   0  0  0  0  0  0  0  0  0  0  0  0
  161.2470  198.3170  146.2500 C   0  0  2  0  0  3  0  0  0  0  0  0
  161.7730  207.5040  152.1750 N   0  0  0  0  0  0  0  0  0  0  0  0
  163.1990  205.7670  151.3440 C   0  0  0  0  0  2  0  0  0  0  0  0
  161.2820  200.8080  145.9350 C   0  0  0  0  0  0  0  0  0  0  0  0
  161.8750  207.8500  149.0860 O   0  0  0  0  0  0  0  0  0  0  0  0
  162.8860  211.0040  147.7800 O   0  0  0  0  0  1  0  0  0  0  0  0
  161.1530  209.7740  150.3330 C   0  0  2  0  0  3  0  0  0  0  0  0
  161.3230  205.0700  147.4130 C   0  0  1  0  0  3  0  0  0  0  0  0
  161.2030  205.3170  145.9050 C   0  0  2  0  0  3  0  0  0  0  0  0
  160.0080  203.3470  148.5760 C   0  0  0  0  0  2  0  0  0  0  0  0
  161.6780  209.2940  149.0180 C   0  0  1  0  0  3  0  0  0  0  0  0
  160.6500  204.9280  143.6170 C   0  0  2  0  0  3  0  0  0  0  0  0
  162.0220  204.6980  143.1950 O   0  0  0  0  0  0  0  0  0  0  0  0
  161.4090  206.3440  141.7770 C   0  0  0  0  0  1  0  0  0  0  0  0
  161.6630  206.0390  143.1970 C   0  0  1  0  0  3  0  0  0  0  0  0
  160.4820  197.6700  145.1990 O   0  0  0  0  0  0  0  0  0  0  0  0
  161.4330  197.5810  144.1370 C   0  0  0  0  0  1  0  0  0  0  0  0
  161.9280  207.8350  153.6060 C   0  0  0  0  0  2  0  0  0  0  0  0
  160.7810  207.4510  154.5270 C   0  0  0  0  0  0  0  0  0  0  0  0
  160.0090  206.5450  154.2350 O   0  0  0  0  0  0  0  0  0  0  0  0
  160.8240  208.0320  155.9380 C   0  0  1  0  0  3  0  0  0  0  0  0
  162.3160  208.0280  156.4610 C   0  0  0  0  0  1  0  0  0  0  0  0
  156.7880  212.8440  155.3030 C   0  0  1  0  0  3  0  0  0  0  0  0
  158.2720  213.0660  154.9700 C   0  0  1  0  0  3  0  0  0  0  0  0
  158.2900  210.8390  155.7300 C   0  0  1  0  0  3  0  0  0  0  0  0
  155.9750  213.2860  154.1480 N   0  0  0  0  0  1  0  0  0  0  0  0
  160.2220  209.4800  155.9140 C   0  0  2  0  0  3  0  0  0  0  0  0
  158.8010  209.4810  155.3850 C   0  0  0  0  0  2  0  0  0  0  0  0
  158.9900  211.7500  154.7980 C   0  0  2  0  0  3  0  0  0  0  0  0
  158.5790  214.1380  153.9060 C   0  0  0  0  0  1  0  0  0  0  0  0
  161.0840  210.4390  155.0780 C   0  0  0  0  0  2  0  0  0  0  0  0
  160.4310  211.8400  155.2160 C   0  0  0  0  0  2  0  0  0  0  0  0
  156.5120  211.0740  155.3850 S   0  0  0  0  0  0  0  0  0  0  0  0
  2  5  1  0  0  0  0
  3  4  2  0  0  0  0
  3  1  1  0  0  0  0
  5 37  1  6  0  0  0
  7  6  1  6  0  0  0
  7 22  1  0  0  0  0
  7 32  1  0  0  0  0
  8  6  1  0  0  0  0
  9 30  1  6  0  0  0
  9  1  1  0  0  0  0
 10 28  1  0  0  0  0
 11 14  1  0  0  0  0
 12 17  1  0  0  0  0
 13 26  2  0  0  0  0
 15  3  1  0  0  0  0
 16 27  1  0  0  0  0
 17 15  1  0  0  0  0
 18  2  1  0  0  0  0
 19 10  1  0  0  0  0
 19 28  1  0  0  0  0
 21 26  1  0  0  0  0
 21 36  1  0  0  0  0
 23 25  2  0  0  0  0
 24 30  1  6  0  0  0
 24 29  1  0  0  0  0
 24  9  1  0  0  0  0
 25 29  1  0  0  0  0
 25 20  2  0  0  0  0
 26 18  1  0  0  0  0
 27 38  1  0  0  0  0
 27 11  1  0  0  0  0
 28 43  1  6  0  0  0
 29 45  1  0  0  0  0
 31 10  2  0  0  0  0
 31 18  2  0  0  0  0
 33 27  1  0  0  0  0
 34 14  1  1  0  0  0
 34 25  1  0  0  0  0
 35 22  1  6  0  0  0
 35  5  1  0  0  0  0
 36  8  1  1  0  0  0
 36 35  1  0  0  0  0
 37 12  1  0  0  0  0
 38 32  1  1  0  0  0
 38 34  1  0  0  0  0
 39 21  1  1  0  0  0
 40 42  1  0  0  0  0
 40 39  1  0  0  0  0
 42 41  1  6  0  0  0
 42 39  1  0  0  0  0
 44 43  1  0  0  0  0
 45 46  1  0  0  0  0
 46 48  1  0  0  0  0
 47 46  2  0  0  0  0
 48 49  1  6  0  0  0
 50 53  1  6  0  0  0
 50 60  1  0  0  0  0
 51 57  1  6  0  0  0
 51 50  1  0  0  0  0
 52 55  1  6  0  0  0
 54 48  1  6  0  0  0
 55 54  1  0  0  0  0
 56 51  1  0  0  0  0
 56 59  1  1  0  0  0
 56 52  1  0  0  0  0
 58 59  1  0  0  0  0
 58 54  1  0  0  0  0
 60 52  1  0  0  0  0
M  END
>  <MODEL>
1

>  <REMARK>
 VINA RESULT:      19.9      0.000      0.000
  Name = 
  6 active torsions:
  status: ('A' for Active; 'I' for Inactive)
    1  A    between atoms: C_1  and  N_33
    2  A    between atoms: O_10  and  C_45
    3  A    between atoms: C_14  and  C_19
    4  A    between atoms: C_14  and  C_28
    5  A    between atoms: C_19  and  C_35
    6  A    between atoms: C_28  and  N_46
                            x       y       z     vdW  Elec       q    Type
                         _______ _______ _______ _____ _____    ______ ____

>  <TORSDO>
F 6

$$$$
=
 OpenBabel11072411573D

 60 68  0  0  1  0  0  0  0  0999 V2000
  160.2650  208.8760  145.3680 C   0  0  0  0  0  2  0  0  0  0  0  0
  160.6640  205.7020  150.6270 O   0  0  0  0  0  0  0  0  0  0  0  0
  160.7530  207.5340  145.8830 C   0  0  0  0  0  0  0  0  0  0  0  0
  160.4090  206.5500  145.2190 O   0  0  0  0  0  0  0  0  0  0  0  0
  161.2150  206.9890  150.2080 C   0  0  1  0  0  3  0  0  0  0  0  0
  161.2690  210.5330  152.8170 C   0  0  0  0  0  2  0  0  0  0  0  0
  160.3720  210.4150  151.5020 C   0  0  2  0  0  3  0  0  0  0  0  0
  161.8950  209.1540  153.2740 C   0  0  0  0  0  2  0  0  0  0  0  0
  160.2700  210.2120  146.1070 C   0  0  2  0  0  3  0  0  0  0  0  0
  160.9790  202.4480  150.8640 C   0  0  0  0  0  0  0  0  0  0  0  0
  159.4430  214.4480  150.3750 O   0  0  0  0  0  0  0  0  0  0  0  0
  163.0260  206.1190  148.4860 C   0  0  0  0  0  2  0  0  0  0  0  0
  163.1350  204.6460  153.0970 C   0  0  0  0  0  2  0  0  0  0  0  0
  160.4350  214.2790  149.3730 C   0  0  0  0  0  2  0  0  0  0  0  0
  161.5270  207.3900  147.1180 N   0  0  0  0  0  2  0  0  0  0  0  0
  158.5220  212.5170  151.0690 O   0  0  0  0  0  1  0  0  0  0  0  0
  161.7930  206.0530  147.6510 C   0  0  0  0  0  2  0  0  0  0  0  0
  161.2670  204.9030  151.6180 C   0  0  0  0  0  0  0  0  0  0  0  0
  160.1480  201.2130  150.6990 O   0  0  0  0  0  0  0  0  0  0  0  0
  163.2430  213.6820  147.8770 O   0  0  0  0  0  0  0  0  0  0  0  0
  161.7760  206.6810  153.4030 N   0  0  0  0  0  0  0  0  0  0  0  0
  160.1080  209.0640  150.9960 N   0  0  0  0  0  2  0  0  0  0  0  0
  163.4170  211.6100  149.1890 O   0  0  0  0  0  0  0  0  0  0  0  0
  161.2840  210.4910  147.2730 C   0  0  1  0  0  3  0  0  0  0  0  0
  162.4600  212.6140  148.6190 S   0  0  0  0  0  0  0  0  0  0  0  0
  162.1040  205.4280  152.6820 C   0  0  0  0  0  0  0  0  0  0  0  0
  159.5850  213.3570  151.2230 C   0  0  0  0  0  0  0  0  0  0  0  0
  161.3900  201.3630  150.2370 C   0  0  2  0  0  3  0  0  0  0  0  0
  161.2750  211.9520  147.4730 N   0  0  0  0  0  0  0  0  0  0  0  0
  159.8200  210.0500  147.5290 C   0  0  0  0  0  2  0  0  0  0  0  0
  161.2290  203.6270  151.3100 C   0  0  0  0  0  0  0  0  0  0  0  0
  160.7820  211.3080  150.4760 O   0  0  0  0  0  0  0  0  0  0  0  0
  159.5090  213.8950  152.5630 O   0  0  0  0  0  1  0  0  0  0  0  0
  161.5840  213.5220  149.9970 C   0  0  2  0  0  3  0  0  0  0  0  0
  161.2210  208.1380  151.2490 C   0  0  1  0  0  3  0  0  0  0  0  0
  161.1460  207.8970  152.7610 C   0  0  2  0  0  3  0  0  0  0  0  0
  162.7280  206.8630  149.7830 C   0  0  0  0  0  2  0  0  0  0  0  0
  160.9190  212.6560  151.0170 C   0  0  1  0  0  3  0  0  0  0  0  0
  161.4270  206.8040  154.8630 C   0  0  2  0  0  3  0  0  0  0  0  0
  159.9940  207.0280  154.9580 O   0  0  0  0  0  0  0  0  0  0  0  0
  160.6730  207.7300  156.9940 C   0  0  0  0  0  1  0  0  0  0  0  0
  160.7510  208.0300  155.5520 C   0  0  1  0  0  3  0  0  0  0  0  0
  162.0420  200.4130  151.1210 O   0  0  0  0  0  0  0  0  0  0  0  0
  162.7350  201.2670  152.0320 C   0  0  0  0  0  1  0  0  0  0  0  0
  161.2860  212.7180  146.2110 C   0  0  0  0  0  2  0  0  0  0  0  0
  160.0100  213.4600  145.8480 C   0  0  0  0  0  0  0  0  0  0  0  0
  159.6480  214.4460  146.4800 O   0  0  0  0  0  0  0  0  0  0  0  0
  159.3820  213.1080  144.5010 C   0  0  1  0  0  3  0  0  0  0  0  0
  158.0530  213.9430  144.3070 C   0  0  0  0  0  1  0  0  0  0  0  0
  161.8930  214.3530  138.8440 C   0  0  1  0  0  3  0  0  0  0  0  0
  162.6820  213.4830  139.8360 C   0  0  1  0  0  3  0  0  0  0  0  0
  160.7910  214.0530  141.1150 C   0  0  1  0  0  3  0  0  0  0  0  0
  161.7970  213.6290  137.5570 N   0  0  0  0  0  1  0  0  0  0  0  0
  160.4200  213.3990  143.3620 C   0  0  2  0  0  3  0  0  0  0  0  0
  159.7490  213.4640  142.0040 C   0  0  0  0  0  2  0  0  0  0  0  0
  161.7880  212.9740  140.9390 C   0  0  2  0  0  3  0  0  0  0  0  0
  163.6380  212.4440  139.2190 C   0  0  0  0  0  1  0  0  0  0  0  0
  161.5400  212.3480  143.3330 C   0  0  0  0  0  2  0  0  0  0  0  0
  162.5350  212.8050  142.2320 C   0  0  0  0  0  2  0  0  0  0  0  0
  160.2000  214.4380  139.4300 S   0  0  0  0  0  0  0  0  0  0  0  0
  1  3  1  0  0  0  0
  2 18  1  0  0  0  0
  3 15  1  0  0  0  0
  4  3  2  0  0  0  0
  5 37  1  1  0  0  0
  5  2  1  0  0  0  0
  5 35  1  0  0  0  0
  6  8  1  0  0  0  0
  7  6  1  1  0  0  0
  9  1  1  6  0  0  0
  9 24  1  0  0  0  0
  9 30  1  0  0  0  0
 10 31  2  0  0  0  0
 11 27  1  0  0  0  0
 12 37  1  0  0  0  0
 14 11  1  0  0  0  0
 15 17  1  0  0  0  0
 16 27  1  0  0  0  0
 17 12  1  0  0  0  0
 18 26  1  0  0  0  0
 19 10  1  0  0  0  0
 20 25  2  0  0  0  0
 22  7  1  0  0  0  0
 24 29  1  0  0  0  0
 24 30  1  1  0  0  0
 25 23  2  0  0  0  0
 25 34  1  0  0  0  0
 26 13  2  0  0  0  0
 26 21  1  0  0  0  0
 27 33  1  0  0  0  0
 28 19  1  0  0  0  0
 28 10  1  0  0  0  0
 28 43  1  1  0  0  0
 29 25  1  0  0  0  0
 31 18  2  0  0  0  0
 32  7  1  0  0  0  0
 34 14  1  6  0  0  0
 34 38  1  0  0  0  0
 35 22  1  6  0  0  0
 35 36  1  0  0  0  0
 36  8  1  1  0  0  0
 36 21  1  0  0  0  0
 38 32  1  6  0  0  0
 38 27  1  0  0  0  0
 39 21  1  6  0  0  0
 39 40  1  0  0  0  0
 39 42  1  0  0  0  0
 40 42  1  0  0  0  0
 42 41  1  1  0  0  0
 43 44  1  0  0  0  0
 45 29  1  0  0  0  0
 46 45  1  0  0  0  0
 46 47  2  0  0  0  0
 48 49  1  6  0  0  0
 48 46  1  0  0  0  0
 50 53  1  6  0  0  0
 50 60  1  0  0  0  0
 50 51  1  0  0  0  0
 51 57  1  6  0  0  0
 51 56  1  0  0  0  0
 52 55  1  1  0  0  0
 54 48  1  1  0  0  0
 55 54  1  0  0  0  0
 56 52  1  0  0  0  0
 56 59  1  1  0  0  0
 58 54  1  0  0  0  0
 59 58  1  0  0  0  0
 60 52  1  0  0  0  0
M  END
>  <MODEL>
2

>  <REMARK>
 VINA RESULT:      21.9      4.539      9.592
  Name = 
  6 active torsions:
  status: ('A' for Active; 'I' for Inactive)
    1  A    between atoms: C_1  and  N_33
    2  A    between atoms: O_10  and  C_45
    3  A    between atoms: C_14  and  C_19
    4  A    between atoms: C_14  and  C_28
    5  A    between atoms: C_19  and  C_35
    6  A    between atoms: C_28  and  N_46
                            x       y       z     vdW  Elec       q    Type
                         _______ _______ _______ _____ _____    ______ ____

>  <TORSDO>
F 6

$$$$
=
 OpenBabel11072411573D

 60 68  0  0  1  0  0  0  0  0999 V2000
  159.9710  209.4490  145.2410 C   0  0  0  0  0  2  0  0  0  0  0  0
  160.4360  205.7130  150.1100 O   0  0  0  0  0  0  0  0  0  0  0  0
  160.4750  208.0640  145.6000 C   0  0  0  0  0  0  0  0  0  0  0  0
  160.1380  207.1560  144.8320 O   0  0  0  0  0  0  0  0  0  0  0  0
  160.9720  207.0450  149.8350 C   0  0  1  0  0  3  0  0  0  0  0  0
  161.0060  210.2760  152.8230 C   0  0  0  0  0  2  0  0  0  0  0  0
  160.1020  210.2950  151.5070 C   0  0  2  0  0  3  0  0  0  0  0  0
  161.6490  208.8620  153.1190 C   0  0  0  0  0  2  0  0  0  0  0  0
  159.9670  210.6950  146.1250 C   0  0  2  0  0  3  0  0  0  0  0  0
  160.7870  202.4560  149.9820 C   0  0  0  0  0  0  0  0  0  0  0  0
  159.1240  214.4190  150.8430 O   0  0  0  0  0  0  0  0  0  0  0  0
  162.7800  206.3920  148.0170 C   0  0  0  0  0  2  0  0  0  0  0  0
  162.9340  204.4160  152.4340 C   0  0  0  0  0  2  0  0  0  0  0  0
  160.1110  214.3730  149.8230 C   0  0  0  0  0  2  0  0  0  0  0  0
  161.2590  207.7910  146.8070 N   0  0  0  0  0  2  0  0  0  0  0  0
  158.2270  212.4130  151.3220 O   0  0  0  0  0  1  0  0  0  0  0  0
  161.5430  206.4070  147.1870 C   0  0  0  0  0  2  0  0  0  0  0  0
  161.0540  204.8150  151.0030 C   0  0  0  0  0  0  0  0  0  0  0  0
  159.9670  201.2390  149.6840 O   0  0  0  0  0  0  0  0  0  0  0  0
  162.9150  213.9780  148.2540 O   0  0  0  0  0  0  0  0  0  0  0  0
  161.5560  206.3890  152.9720 N   0  0  0  0  0  0  0  0  0  0  0  0
  159.8490  209.0060  150.8560 N   0  0  0  0  0  2  0  0  0  0  0  0
  163.1190  211.7750  149.3260 O   0  0  0  0  0  0  0  0  0  0  0  0
  160.9850  210.8530  147.3090 C   0  0  1  0  0  3  0  0  0  0  0  0
  162.1480  212.8250  148.8770 S   0  0  0  0  0  0  0  0  0  0  0  0
  161.8930  205.2280  152.1140 C   0  0  0  0  0  0  0  0  0  0  0  0
  159.2830  213.2420  151.5630 C   0  0  0  0  0  0  0  0  0  0  0  0
  161.2040  201.4530  149.2350 C   0  0  2  0  0  3  0  0  0  0  0  0
  160.9630  212.2820  147.6710 N   0  0  0  0  0  0  0  0  0  0  0  0
  159.5280  210.3700  147.5220 C   0  0  0  0  0  2  0  0  0  0  0  0
  161.0270  203.5820  150.5550 C   0  0  0  0  0  0  0  0  0  0  0  0
  160.4960  211.3020  150.5850 O   0  0  0  0  0  0  0  0  0  0  0  0
  159.2100  213.6250  152.9550 O   0  0  0  0  0  1  0  0  0  0  0  0
  161.2720  213.5640  150.3530 C   0  0  2  0  0  3  0  0  0  0  0  0
  160.9720  208.0710  150.9980 C   0  0  1  0  0  3  0  0  0  0  0  0
  160.9100  207.6620  152.4730 C   0  0  2  0  0  3  0  0  0  0  0  0
  162.4830  206.9830  149.3910 C   0  0  0  0  0  2  0  0  0  0  0  0
  160.6220  212.5820  151.2720 C   0  0  1  0  0  3  0  0  0  0  0  0
  161.2150  206.3440  154.4390 C   0  0  2  0  0  3  0  0  0  0  0  0
  159.7670  206.3800  154.5580 O   0  0  0  0  0  0  0  0  0  0  0  0
  160.3840  206.9870  156.6440 C   0  0  0  0  0  1  0  0  0  0  0  0
  160.4030  207.4140  155.2320 C   0  0  1  0  0  3  0  0  0  0  0  0
  161.8720  200.4170  150.0040 O   0  0  0  0  0  0  0  0  0  0  0  0
  160.9050  200.1100  151.0100 C   0  0  0  0  0  1  0  0  0  0  0  0
  160.9570  213.1840  146.5020 C   0  0  0  0  0  2  0  0  0  0  0  0
  162.2240  213.2250  145.6610 C   0  0  0  0  0  0  0  0  0  0  0  0
  163.2160  212.5790  145.9770 O   0  0  0  0  0  0  0  0  0  0  0  0
  162.0950  213.8530  144.2750 C   0  0  1  0  0  3  0  0  0  0  0  0
  163.5030  214.4090  143.8180 C   0  0  0  0  0  1  0  0  0  0  0  0
  161.4710  210.1160  139.2250 C   0  0  1  0  0  3  0  0  0  0  0  0
  160.2080  210.6210  139.9410 C   0  0  1  0  0  3  0  0  0  0  0  0
  161.9060  211.5080  141.3080 C   0  0  1  0  0  3  0  0  0  0  0  0
  161.3570  210.4370  137.7860 N   0  0  0  0  0  1  0  0  0  0  0  0
  161.5450  212.7770  143.2750 C   0  0  2  0  0  3  0  0  0  0  0  0
  162.3380  212.7650  141.9830 C   0  0  0  0  0  2  0  0  0  0  0  0
  160.5280  211.7840  140.8460 C   0  0  2  0  0  3  0  0  0  0  0  0
  158.9490  210.7810  139.0670 C   0  0  0  0  0  1  0  0  0  0  0  0
  160.0570  212.9990  142.9640 C   0  0  0  0  0  2  0  0  0  0  0  0
  159.6250  211.8230  142.0470 C   0  0  0  0  0  2  0  0  0  0  0  0
  162.8480  211.1150  139.7930 S   0  0  0  0  0  0  0  0  0  0  0  0
  1  3  1  0  0  0  0
  2 18  1  0  0  0  0
  3 15  1  0  0  0  0
  4  3  2  0  0  0  0
  5 37  1  1  0  0  0
  5  2  1  0  0  0  0
  5 35  1  0  0  0  0
  6  8  1  0  0  0  0
  7  6  1  1  0  0  0
  9  1  1  6  0  0  0
  9 24  1  0  0  0  0
  9 30  1  0  0  0  0
 10 31  2  0  0  0  0
 11 27  1  0  0  0  0
 12 37  1  0  0  0  0
 14 11  1  0  0  0  0
 15 17  1  0  0  0  0
 16 27  1  0  0  0  0
 17 12  1  0  0  0  0
 18 26  1  0  0  0  0
 19 10  1  0  0  0  0
 20 25  2  0  0  0  0
 22  7  1  0  0  0  0
 24 30  1  1  0  0  0
 24 29  1  0  0  0  0
 25 23  2  0  0  0  0
 25 34  1  0  0  0  0
 26 13  2  0  0  0  0
 26 21  1  0  0  0  0
 27 33  1  0  0  0  0
 28 19  1  0  0  0  0
 28 10  1  0  0  0  0
 28 43  1  1  0  0  0
 29 25  1  0  0  0  0
 31 18  2  0  0  0  0
 32  7  1  0  0  0  0
 34 14  1  6  0  0  0
 34 38  1  0  0  0  0
 35 22  1  6  0  0  0
 35 36  1  0  0  0  0
 36 21  1  0  0  0  0
 36  8  1  1  0  0  0
 38 32  1  6  0  0  0
 38 27  1  0  0  0  0
 39 21  1  6  0  0  0
 39 40  1  0  0  0  0
 39 42  1  0  0  0  0
 40 42  1  0  0  0  0
 42 41  1  1  0  0  0
 43 44  1  0  0  0  0
 45 29  1  0  0  0  0
 46 47  2  0  0  0  0
 46 45  1  0  0  0  0
 48 49  1  6  0  0  0
 48 46  1  0  0  0  0
 50 53  1  6  0  0  0
 50 60  1  0  0  0  0
 50 51  1  0  0  0  0
 51 57  1  6  0  0  0
 51 56  1  0  0  0  0
 52 55  1  6  0  0  0
 54 48  1  1  0  0  0
 55 54  1  0  0  0  0
 56 52  1  0  0  0  0
 56 59  1  1  0  0  0
 58 54  1  0  0  0  0
 59 58  1  0  0  0  0
 60 52  1  0  0  0  0
M  END
>  <MODEL>
3

>  <REMARK>
 VINA RESULT:      22.1      4.049      9.495
  Name = 
  6 active torsions:
  status: ('A' for Active; 'I' for Inactive)
    1  A    between atoms: C_1  and  N_33
    2  A    between atoms: O_10  and  C_45
    3  A    between atoms: C_14  and  C_19
    4  A    between atoms: C_14  and  C_28
    5  A    between atoms: C_19  and  C_35
    6  A    between atoms: C_28  and  N_46
                            x       y       z     vdW  Elec       q    Type
                         _______ _______ _______ _____ _____    ______ ____

>  <TORSDO>
F 6

$$$$
=
 OpenBabel11072411573D

 60 69  0  0  1  0  0  0  0  0999 V2000
  160.8340  211.9930  151.5890 C   0  0  0  0  0  2  0  0  0  0  0  0
  160.4970  206.6430  148.5640 O   0  0  0  0  0  0  0  0  0  0  0  0
  161.2700  211.3700  150.2760 C   0  0  0  0  0  0  0  0  0  0  0  0
  161.0590  212.0490  149.2650 O   0  0  0  0  0  0  0  0  0  0  0  0
  161.0740  207.0100  149.8560 C   0  0  1  0  0  3  0  0  0  0  0  0
  160.6330  204.5320  153.4660 C   0  0  0  0  0  2  0  0  0  0  0  0
  159.9530  205.9650  153.2870 C   0  0  2  0  0  3  0  0  0  0  0  0
  161.2160  203.9430  152.1180 C   0  0  0  0  0  2  0  0  0  0  0  0
  160.6900  211.3020  152.9430 C   0  0  2  0  0  0  0  0  0  0  0  0
  160.8550  206.2630  145.3280 C   0  0  0  0  0  0  0  0  0  0  0  0
  159.1060  207.3400  157.2610 O   0  0  0  0  0  0  0  0  0  0  0  0
  163.1500  208.4070  148.9970 C   0  0  0  0  0  2  0  0  0  0  0  0
  162.5840  203.7930  147.6470 C   0  0  0  0  0  2  0  0  0  0  0  0
  160.2450  208.1730  157.0950 C   0  0  0  0  0  2  0  0  0  0  0  0
  161.8480  210.0270  150.1870 N   0  0  0  0  0  2  0  0  0  0  0  0
  158.1390  206.7390  155.3210 O   0  0  0  0  0  1  0  0  0  0  0  0
  162.0630  209.4190  148.8730 C   0  0  0  0  0  2  0  0  0  0  0  0
  160.9600  205.5480  147.8090 C   0  0  0  0  0  0  0  0  0  0  0  0
  160.0910  206.5170  144.0650 O   0  0  0  0  0  0  0  0  0  0  0  0
  163.2640  209.2020  156.5450 O   0  0  0  0  0  0  0  0  0  0  0  0
  161.1420  203.7600  149.6470 N   0  0  0  0  0  0  0  0  0  0  0  0
  159.8050  206.4640  151.9160 N   0  0  0  0  0  2  0  0  0  0  0  0
  163.2870  207.8170  154.5130 O   0  0  0  0  0  0  0  0  0  0  0  0
  161.5050  210.0040  153.2820 C   0  0  1  0  0  3  0  0  0  0  0  0
  162.4040  208.5570  155.4730 S   0  0  0  0  0  0  0  0  0  0  0  0
  161.6100  204.3840  148.3860 C   0  0  0  0  0  0  0  0  0  0  0  0
  159.1440  206.4490  156.1960 C   0  0  0  0  0  0  0  0  0  0  0  0
  161.3850  206.7870  144.2400 C   0  0  2  0  0  3  0  0  0  0  0  0
  161.4280  209.8510  154.7470 N   0  0  1  0  0  0  0  0  0  0  0  0
  160.0310  209.9620  152.8040 C   0  0  0  0  0  2  0  0  0  0  0  0
  161.0030  205.8200  146.5260 C   0  0  0  0  0  0  0  0  0  0  0  0
  160.4940  206.9420  154.1650 O   0  0  0  0  0  0  0  0  0  0  0  0
  158.8480  205.1530  156.7650 O   0  0  0  0  0  1  0  0  0  0  0  0
  161.3030  207.3580  156.3900 C   0  0  2  0  0  3  0  0  0  0  0  0
  160.8890  206.0160  151.0310 C   0  0  1  0  0  3  0  0  0  0  0  0
  160.5880  204.5270  150.8260 C   0  0  2  0  0  3  0  0  0  0  0  0
  162.6370  207.1940  149.7640 C   0  0  0  0  0  2  0  0  0  0  0  0
  160.5110  206.4270  155.5300 C   0  0  1  0  0  3  0  0  0  0  0  0
  160.5690  202.3750  149.7960 C   0  0  2  0  0  3  0  0  0  0  0  0
  160.5500  201.7590  148.4800 O   0  0  0  0  0  0  0  0  0  0  0  0
  159.0790  200.4500  149.5850 C   0  0  0  0  0  1  0  0  0  0  0  0
  159.2990  201.8180  149.0800 C   0  0  1  0  0  3  0  0  0  0  0  0
  161.9170  205.7850  143.3330 O   0  0  0  0  0  0  0  0  0  0  0  0
  160.9870  204.7110  143.4820 C   0  0  0  0  0  1  0  0  0  0  0  0
  161.6140  211.1190  155.4800 C   0  0  0  0  0  2  0  0  0  0  0  0
  160.5640  212.1980  155.2620 C   0  0  1  0  0  3  0  0  0  0  0  0
  160.3390  212.6470  154.1450 O   0  0  0  0  0  0  0  0  0  0  0  0
  159.6150  212.4630  156.4290 C   0  0  1  0  0  3  0  0  0  0  0  0
  159.9860  213.8450  157.1020 C   0  0  0  0  0  1  0  0  0  0  0  0
  154.5620  213.2410  152.7260 C   0  0  1  0  0  3  0  0  0  0  0  0
  154.3980  213.3670  154.2490 C   0  0  1  0  0  3  0  0  0  0  0  0
  156.6690  212.7790  154.0710 C   0  0  1  0  0  3  0  0  0  0  0  0
  153.9990  214.4530  152.0910 N   0  0  0  0  0  1  0  0  0  0  0  0
  158.1390  212.4540  155.9000 C   0  0  2  0  0  3  0  0  0  0  0  0
  158.0260  213.1560  154.5610 C   0  0  0  0  0  2  0  0  0  0  0  0
  155.7350  213.5450  154.9240 C   0  0  2  0  0  3  0  0  0  0  0  0
  153.2740  214.3010  154.7380 C   0  0  0  0  0  1  0  0  0  0  0  0
  157.1730  213.1020  156.9040 C   0  0  0  0  0  2  0  0  0  0  0  0
  155.7510  212.9430  156.3020 C   0  0  0  0  0  2  0  0  0  0  0  0
  156.3160  213.3260  152.3640 S   0  0  0  0  0  0  0  0  0  0  0  0
  2  5  1  0  0  0  0
  3  1  1  0  0  0  0
  4  3  2  0  0  0  0
  5 37  1  6  0  0  0
  5 35  1  0  0  0  0
  7  6  1  6  0  0  0
  7 32  1  0  0  0  0
  8  6  1  0  0  0  0
  9  1  1  6  0  0  0
  9 24  1  0  0  0  0
  9 47  1  0  0  0  0
 10 31  2  0  0  0  0
 12 37  1  0  0  0  0
 13 26  2  0  0  0  0
 14 11  1  0  0  0  0
 15  3  1  0  0  0  0
 16 27  1  0  0  0  0
 17 12  1  0  0  0  0
 17 15  1  0  0  0  0
 18 26  1  0  0  0  0
 18  2  1  0  0  0  0
 19 28  1  0  0  0  0
 19 10  1  0  0  0  0
 21 36  1  0  0  0  0
 22  7  1  0  0  0  0
 23 25  2  0  0  0  0
 24 30  1  6  0  0  0
 24 29  1  0  0  0  0
 25 34  1  0  0  0  0
 25 20  2  0  0  0  0
 26 21  1  0  0  0  0
 27 33  1  0  0  0  0
 27 11  1  0  0  0  0
 28 43  1  6  0  0  0
 28 10  1  0  0  0  0
 29 25  1  0  0  0  0
 29 45  1  1  0  0  0
 30  9  1  0  0  0  0
 31 18  2  0  0  0  0
 34 14  1  6  0  0  0
 35 22  1  1  0  0  0
 36 35  1  0  0  0  0
 36  8  1  1  0  0  0
 38 32  1  6  0  0  0
 38 27  1  0  0  0  0
 38 34  1  0  0  0  0
 39 21  1  6  0  0  0
 40 42  1  0  0  0  0
 40 39  1  0  0  0  0
 42 41  1  1  0  0  0
 42 39  1  0  0  0  0
 43 44  1  0  0  0  0
 46 45  1  0  0  0  0
 46 48  1  6  0  0  0
 47 46  1  0  0  0  0
 48 49  1  6  0  0  0
 50 53  1  6  0  0  0
 50 51  1  0  0  0  0
 51 57  1  6  0  0  0
 51 56  1  0  0  0  0
 52 55  1  1  0  0  0
 52 56  1  0  0  0  0
 54 48  1  1  0  0  0
 54 58  1  0  0  0  0
 55 54  1  0  0  0  0
 56 59  1  1  0  0  0
 59 58  1  0  0  0  0
 60 50  1  0  0  0  0
 60 52  1  0  0  0  0
M  END
>  <MODEL>
4

>  <REMARK>
 VINA RESULT:      22.4      2.616      6.315
  Name = 
  6 active torsions:
  status: ('A' for Active; 'I' for Inactive)
    1  A    between atoms: C_1  and  N_33
    2  A    between atoms: O_10  and  C_45
    3  A    between atoms: C_14  and  C_19
    4  A    between atoms: C_14  and  C_28
    5  A    between atoms: C_19  and  C_35
    6  A    between atoms: C_28  and  N_46
                            x       y       z     vdW  Elec       q    Type
                         _______ _______ _______ _____ _____    ______ ____

>  <TORSDO>
F 6

$$$$
=
 OpenBabel11072411573D

 60 68  0  0  1  0  0  0  0  0999 V2000
  162.9030  204.1170  153.0450 C   0  0  0  0  0  2  0  0  0  0  0  0
  161.9120  202.7610  147.1230 O   0  0  0  0  0  0  0  0  0  0  0  0
  162.3690  202.9870  152.1840 C   0  0  0  0  0  0  0  0  0  0  0  0
  162.7970  201.8600  152.4560 O   0  0  0  0  0  0  0  0  0  0  0  0
  161.4030  203.8230  147.9900 C   0  0  1  0  0  3  0  0  0  0  0  0
  161.0140  208.0050  146.6770 C   0  0  0  0  0  2  0  0  0  0  0  0
  162.0600  207.5160  147.7790 C   0  0  2  0  0  3  0  0  0  0  0  0
  160.3490  206.8150  145.8740 C   0  0  0  0  0  2  0  0  0  0  0  0
  162.8000  205.6170  152.7780 C   0  0  2  0  0  3  0  0  0  0  0  0
  161.5970  199.7400  145.8910 C   0  0  0  0  0  0  0  0  0  0  0  0
  163.0840  211.0220  150.0300 O   0  0  0  0  0  0  0  0  0  0  0  0
  159.8160  202.3700  149.5290 C   0  0  0  0  0  2  0  0  0  0  0  0
  159.1750  202.4330  144.7310 C   0  0  0  0  0  2  0  0  0  0  0  0
  162.2190  210.4980  151.0260 C   0  0  0  0  0  2  0  0  0  0  0  0
  161.4560  203.2080  151.0600 N   0  0  0  0  0  2  0  0  0  0  0  0
  163.9320  209.4550  148.6570 O   0  0  0  0  0  1  0  0  0  0  0  0
  161.1390  202.0990  150.1590 C   0  0  0  0  0  2  0  0  0  0  0  0
  161.2030  202.2920  146.0010 C   0  0  0  0  0  0  0  0  0  0  0  0
  162.4520  198.5560  145.5600 O   0  0  0  0  0  0  0  0  0  0  0  0
  159.6120  209.3300  152.5500 O   0  0  0  0  0  0  0  0  0  0  0  0
  160.4720  204.5200  144.9470 N   0  0  0  0  0  0  0  0  0  0  0  0
  162.3930  206.0880  147.7920 N   0  0  0  0  0  2  0  0  0  0  0  0
  159.3000  207.7770  150.6710 O   0  0  0  0  0  0  0  0  0  0  0  0
  161.6540  206.2050  151.8810 C   0  0  1  0  0  3  0  0  0  0  0  0
  160.3100  208.5900  151.4240 S   0  0  0  0  0  0  0  0  0  0  0  0
  160.2410  203.0890  145.2590 C   0  0  0  0  0  0  0  0  0  0  0  0
  162.8510  210.2510  148.8980 C   0  0  0  0  0  0  0  0  0  0  0  0
  161.2720  198.4950  146.1780 C   0  0  2  0  0  3  0  0  0  0  0  0
  161.6270  207.6530  152.1600 N   0  0  0  0  0  0  0  0  0  0  0  0
  163.0810  205.9350  151.3390 C   0  0  0  0  0  2  0  0  0  0  0  0
  161.2870  200.9880  145.8770 C   0  0  0  0  0  0  0  0  0  0  0  0
  161.7670  208.0180  149.0750 O   0  0  0  0  0  0  0  0  0  0  0  0
  162.7640  211.1890  147.8010 O   0  0  0  0  0  1  0  0  0  0  0  0
  161.0100  209.9270  150.3230 C   0  0  2  0  0  3  0  0  0  0  0  0
  161.2660  205.2410  147.3790 C   0  0  1  0  0  3  0  0  0  0  0  0
  161.1640  205.4960  145.8710 C   0  0  2  0  0  3  0  0  0  0  0  0
  159.9520  203.5000  148.5150 C   0  0  0  0  0  2  0  0  0  0  0  0
  161.5570  209.4600  149.0130 C   0  0  1  0  0  3  0  0  0  0  0  0
  160.6460  205.1150  143.5740 C   0  0  2  0  0  3  0  0  0  0  0  0
  161.9150  204.6450  143.0440 O   0  0  0  0  0  0  0  0  0  0  0  0
  161.5310  206.4290  141.7140 C   0  0  0  0  0  1  0  0  0  0  0  0
  161.8200  206.0290  143.1040 C   0  0  1  0  0  3  0  0  0  0  0  0
  160.5280  197.8460  145.1130 O   0  0  0  0  0  0  0  0  0  0  0  0
  161.5620  197.4700  144.2020 C   0  0  0  0  0  1  0  0  0  0  0  0
  161.7590  207.9770  153.5950 C   0  0  0  0  0  2  0  0  0  0  0  0
  162.2020  209.3900  153.9410 C   0  0  0  0  0  0  0  0  0  0  0  0
  162.6600  210.1390  153.0860 O   0  0  0  0  0  0  0  0  0  0  0  0
  161.7700  209.9180  155.3070 C   0  0  1  0  0  3  0  0  0  0  0  0
  163.0500  210.3430  156.1330 C   0  0  0  0  0  1  0  0  0  0  0  0
  156.6600  213.6110  155.6180 C   0  0  1  0  0  3  0  0  0  0  0  0
  157.5130  213.6230  154.3400 C   0  0  1  0  0  3  0  0  0  0  0  0
  158.7440  212.1580  155.7100 C   0  0  1  0  0  3  0  0  0  0  0  0
  155.2510  213.3560  155.2410 N   0  0  0  0  0  1  0  0  0  0  0  0
  160.7860  211.1220  155.1040 C   0  0  2  0  0  3  0  0  0  0  0  0
  159.4240  210.8320  155.7030 C   0  0  0  0  0  2  0  0  0  0  0  0
  158.4290  212.4250  154.2890 C   0  0  2  0  0  3  0  0  0  0  0  0
  156.7720  213.9520  153.0290 C   0  0  0  0  0  1  0  0  0  0  0  0
  160.6290  211.4810  153.6180 C   0  0  0  0  0  2  0  0  0  0  0  0
  159.7120  212.7320  153.5690 C   0  0  0  0  0  2  0  0  0  0  0  0
  157.1310  212.1630  156.5670 S   0  0  0  0  0  0  0  0  0  0  0  0
  2  5  1  0  0  0  0
  3  4  2  0  0  0  0
  3  1  1  0  0  0  0
  5 37  1  6  0  0  0
  7  6  1  6  0  0  0
  7 22  1  0  0  0  0
  7 32  1  0  0  0  0
  8  6  1  0  0  0  0
  9 30  1  6  0  0  0
  9  1  1  0  0  0  0
 10 28  1  0  0  0  0
 11 14  1  0  0  0  0
 12 17  1  0  0  0  0
 13 26  2  0  0  0  0
 15  3  1  0  0  0  0
 16 27  1  0  0  0  0
 17 15  1  0  0  0  0
 18  2  1  0  0  0  0
 19 10  1  0  0  0  0
 19 28  1  0  0  0  0
 21 26  1  0  0  0  0
 21 36  1  0  0  0  0
 23 25  2  0  0  0  0
 24 30  1  6  0  0  0
 24 29  1  0  0  0  0
 24  9  1  0  0  0  0
 25 29  1  0  0  0  0
 25 20  2  0  0  0  0
 26 18  1  0  0  0  0
 27 38  1  0  0  0  0
 27 11  1  0  0  0  0
 28 43  1  6  0  0  0
 29 45  1  0  0  0  0
 31 10  2  0  0  0  0
 31 18  2  0  0  0  0
 33 27  1  0  0  0  0
 34 14  1  1  0  0  0
 34 25  1  0  0  0  0
 35 22  1  6  0  0  0
 35  5  1  0  0  0  0
 36  8  1  1  0  0  0
 36 35  1  0  0  0  0
 37 12  1  0  0  0  0
 38 32  1  1  0  0  0
 38 34  1  0  0  0  0
 39 21  1  1  0  0  0
 40 42  1  0  0  0  0
 40 39  1  0  0  0  0
 42 41  1  6  0  0  0
 42 39  1  0  0  0  0
 44 43  1  0  0  0  0
 45 46  1  0  0  0  0
 46 48  1  0  0  0  0
 47 46  2  0  0  0  0
 48 49  1  1  0  0  0
 50 53  1  6  0  0  0
 50 60  1  0  0  0  0
 51 57  1  6  0  0  0
 51 50  1  0  0  0  0
 52 55  1  6  0  0  0
 52 60  1  0  0  0  0
 54 48  1  6  0  0  0
 54 55  1  0  0  0  0
 56 59  1  6  0  0  0
 56 51  1  0  0  0  0
 56 52  1  0  0  0  0
 58 54  1  0  0  0  0
 59 58  1  0  0  0  0
M  END
>  <MODEL>
5

>  <REMARK>
 VINA RESULT:      22.8      0.825      1.058
  Name = 
  6 active torsions:
  status: ('A' for Active; 'I' for Inactive)
    1  A    between atoms: C_1  and  N_33
    2  A    between atoms: O_10  and  C_45
    3  A    between atoms: C_14  and  C_19
    4  A    between atoms: C_14  and  C_28
    5  A    between atoms: C_19  and  C_35
    6  A    between atoms: C_28  and  N_46
                            x       y       z     vdW  Elec       q    Type
                         _______ _______ _______ _____ _____    ______ ____

>  <TORSDO>
F 6

$$$$
