=
 OpenBabel11072413003D

 37 40  0  0  1  0  0  0  0  0999 V2000
  161.5560  207.8380  150.0350 C   0  0  0  0  0  0  0  0  0  0  0  0
  161.2840  207.7930  151.3690 N   0  0  0  0  0  0  0  0  0  0  0  0
  162.5160  209.0850  148.1260 O   0  0  0  0  0  1  0  0  0  0  0  0
  161.2030  208.9210  152.1160 C   0  0  0  0  0  3  0  0  0  0  0  0
  161.9430  209.0220  149.4030 C   0  0  0  0  0  0  0  0  0  0  0  0
  161.8100  210.1710  150.2140 C   0  0  0  0  0  0  0  0  0  0  0  0
  161.4390  210.1470  151.4970 C   0  0  0  0  0  3  0  0  0  0  0  0
  160.0820  201.8630  148.9540 O   0  0  0  0  0  1  0  0  0  0  0  0
  160.5900  204.4030  152.2110 C   0  0  0  0  0  2  0  0  0  0  0  0
  161.4450  205.2830  149.9660 C   0  0  0  0  0  0  0  0  0  0  0  0
  161.0290  202.9300  152.2580 C   0  0  0  0  0  2  0  0  0  0  0  0
  161.3320  202.1820  150.9500 C   0  0  0  0  0  2  0  0  0  0  0  0
  161.8380  205.4690  147.2290 N   0  0  0  0  0  0  0  0  0  0  0  0
  161.5660  204.2080  147.7320 C   0  0  0  0  0  0  0  0  0  0  0  0
  161.5800  205.3370  151.4850 C   0  0  0  0  0  2  0  0  0  0  0  0
  161.8470  206.6320  147.9730 C   0  0  0  0  0  3  0  0  0  0  0  0
  161.6370  206.5110  149.3300 C   0  0  0  0  0  0  0  0  0  0  0  0
  161.2510  204.0640  149.1820 C   0  0  0  0  0  0  0  0  0  0  0  0
  160.5390  202.8680  149.8560 C   0  0  1  0  0  3  0  0  0  0  0  0
  161.2910  203.1390  146.6200 C   0  0  0  0  0  2  0  0  0  0  0  0
  161.1570  203.6330  145.2320 C   0  0  0  0  0  2  0  0  0  0  0  0
  160.0370  202.9480  144.6650 N   0  0  0  0  0  2  0  0  0  0  0  0
  160.1970  201.6130  145.2290 C   0  0  0  0  0  1  0  0  0  0  0  0
  162.0870  211.4320  149.7100 O   0  0  0  0  0  0  0  0  0  0  0  0
  161.0240  212.3510  149.7080 C   0  0  0  0  0  2  0  0  0  0  0  0
  161.3200  212.9330  147.3920 N   0  0  0  0  0  0  0  0  0  0  0  0
  160.8060  213.2660  144.5950 C   0  0  2  0  0  3  0  0  0  0  0  0
  160.0730  212.4460  146.8340 C   0  0  0  0  0  2  0  0  0  0  0  0
  161.3380  213.3680  148.6920 C   0  0  0  0  0  0  0  0  0  0  0  0
  162.2790  213.1300  145.0020 C   0  0  0  0  0  2  0  0  0  0  0  0
  161.9090  214.4530  149.0110 O   0  0  0  0  0  0  0  0  0  0  0  0
  159.7930  213.4020  145.7230 C   0  0  0  0  0  2  0  0  0  0  0  0
  162.5170  213.0510  146.4990 C   0  0  0  0  0  2  0  0  0  0  0  0
  160.5140  212.1400  143.7550 O   0  0  0  0  0  0  0  0  0  0  0  0
  161.1090  212.5830  142.3190 P   0  0  0  0  0  0  0  0  0  0  0  0
  160.1590  213.2800  141.4310 O   0  0  0  0  0  0  0  0  0  0  0  0
  162.2650  211.7300  141.6730 O   0  0  0  0  0  0  0  0  0  0  0  0
  1  2  1  0  0  0  0
  2  4  2  0  0  0  0
  3  5  1  0  0  0  0
  5  1  2  0  0  0  0
  5  6  1  0  0  0  0
  6  7  2  0  0  0  0
  7  4  1  0  0  0  0
  9 11  1  0  0  0  0
 10 15  1  0  0  0  0
 12 11  1  0  0  0  0
 13 14  2  0  0  0  0
 13 16  1  0  0  0  0
 14 18  1  0  0  0  0
 15  9  1  0  0  0  0
 16 17  2  0  0  0  0
 17 10  1  0  0  0  0
 17  1  1  0  0  0  0
 18 19  1  0  0  0  0
 18 10  2  0  0  0  0
 19  8  1  6  0  0  0
 19 12  1  0  0  0  0
 20 14  1  0  0  0  0
 21 20  1  0  0  0  0
 22 23  1  0  0  0  0
 22 21  1  0  0  0  0
 24  6  1  0  0  0  0
 25 24  1  0  0  0  0
 26 29  1  0  0  0  0
 27 34  1  1  0  0  0
 27 30  1  0  0  0  0
 27 32  1  0  0  0  0
 28 26  1  0  0  0  0
 29 31  2  0  0  0  0
 29 25  1  0  0  0  0
 30 33  1  0  0  0  0
 32 28  1  0  0  0  0
 33 26  1  0  0  0  0
 35 34  1  0  0  0  0
 36 35  2  0  0  0  0
 37 35  2  0  0  0  0
M  END
>  <MODEL>
1

>  <REMARK>
 VINA RESULT:      -8.5      0.000      0.000
  Name = 
  9 active torsions:
  status: ('A' for Active; 'I' for Inactive)
    1  A    between atoms: C_4  and  C_29
    2  A    between atoms: P_9  and  O_31
    3  A    between atoms: C_12  and  O_31
    4  A    between atoms: C_14  and  C_23
    5  A    between atoms: C_17  and  C_36
    6  A    between atoms: N_21  and  C_27
    7  A    between atoms: C_23  and  C_27
    8  A    between atoms: C_28  and  O_32
    9  A    between atoms: O_32  and  C_36
                            x       y       z     vdW  Elec       q    Type
                         _______ _______ _______ _____ _____    ______ ____

>  <TORSDO>
F 9

$$$$
=
 OpenBabel11072413003D

 37 40  0  0  1  0  0  0  0  0999 V2000
  161.4250  206.1130  150.8000 C   0  0  0  0  0  0  0  0  0  0  0  0
  161.6080  205.3890  151.9380 N   0  0  0  0  0  0  0  0  0  0  0  0
  161.2260  208.3360  149.7320 O   0  0  0  0  0  1  0  0  0  0  0  0
  161.3430  205.9090  153.1620 C   0  0  0  0  0  3  0  0  0  0  0  0
  161.1330  207.4790  150.8360 C   0  0  0  0  0  0  0  0  0  0  0  0
  160.8350  207.9640  152.1290 C   0  0  0  0  0  0  0  0  0  0  0  0
  160.9070  207.2300  153.2430 C   0  0  0  0  0  3  0  0  0  0  0  0
  160.6970  201.9760  146.1740 O   0  0  0  0  0  1  0  0  0  0  0  0
  160.1770  202.1560  150.3000 C   0  0  0  0  0  2  0  0  0  0  0  0
  161.5140  204.0730  149.2590 C   0  0  0  0  0  0  0  0  0  0  0  0
  160.6910  200.8850  149.6030 C   0  0  0  0  0  2  0  0  0  0  0  0
  161.3700  200.9890  148.2290 C   0  0  0  0  0  2  0  0  0  0  0  0
  162.5790  205.7450  147.3210 N   0  0  0  0  0  0  0  0  0  0  0  0
  162.2770  204.4530  146.9270 C   0  0  0  0  0  0  0  0  0  0  0  0
  161.2520  203.2420  150.5110 C   0  0  0  0  0  2  0  0  0  0  0  0
  162.3170  206.2730  148.5700 C   0  0  0  0  0  3  0  0  0  0  0  0
  161.7760  205.4210  149.5110 C   0  0  0  0  0  0  0  0  0  0  0  0
  161.6120  203.5400  147.9010 C   0  0  0  0  0  0  0  0  0  0  0  0
  160.8370  202.2430  147.5680 C   0  0  1  0  0  3  0  0  0  0  0  0
  162.3700  204.2350  145.3780 C   0  0  0  0  0  2  0  0  0  0  0  0
  161.7570  205.2700  144.5170 C   0  0  0  0  0  2  0  0  0  0  0  0
  160.3430  205.0660  144.5840 N   0  0  0  0  0  2  0  0  0  0  0  0
  159.9170  206.2320  145.3500 C   0  0  0  0  0  1  0  0  0  0  0  0
  160.4570  209.2830  152.3230 O   0  0  0  0  0  0  0  0  0  0  0  0
  161.2860  210.0550  153.1560 C   0  0  0  0  0  2  0  0  0  0  0  0
  159.7790  211.5050  154.3440 N   0  0  0  0  0  0  0  0  0  0  0  0
  157.4760  213.0820  154.9840 C   0  0  2  0  0  3  0  0  0  0  0  0
  158.7090  211.6290  153.3740 C   0  0  0  0  0  2  0  0  0  0  0  0
  160.5160  210.3480  154.3740 C   0  0  0  0  0  0  0  0  0  0  0  0
  158.7950  213.5090  155.6430 C   0  0  0  0  0  2  0  0  0  0  0  0
  160.7800  209.7690  155.4690 O   0  0  0  0  0  0  0  0  0  0  0  0
  157.4870  211.7660  154.2200 C   0  0  0  0  0  2  0  0  0  0  0  0
  159.9700  212.5930  155.3560 C   0  0  0  0  0  2  0  0  0  0  0  0
  157.0700  214.1750  154.1490 O   0  0  0  0  0  0  0  0  0  0  0  0
  155.4640  214.2030  154.3270 P   0  0  0  0  0  0  0  0  0  0  0  0
  154.9800  214.0330  155.7090 O   0  0  0  0  0  0  0  0  0  0  0  0
  154.5540  213.7120  153.1380 O   0  0  0  0  0  0  0  0  0  0  0  0
  1  5  2  0  0  0  0
  1  2  1  0  0  0  0
  2  4  2  0  0  0  0
  3  5  1  0  0  0  0
  4  7  1  0  0  0  0
  5  6  1  0  0  0  0
  6 24  1  0  0  0  0
  6  7  2  0  0  0  0
  9 15  1  0  0  0  0
 10 17  1  0  0  0  0
 10 15  1  0  0  0  0
 11  9  1  0  0  0  0
 12 11  1  0  0  0  0
 13 16  1  0  0  0  0
 14 13  2  0  0  0  0
 14 18  1  0  0  0  0
 16 17  2  0  0  0  0
 17  1  1  0  0  0  0
 18 10  2  0  0  0  0
 19  8  1  6  0  0  0
 19 18  1  0  0  0  0
 19 12  1  0  0  0  0
 20 14  1  0  0  0  0
 21 22  1  0  0  0  0
 21 20  1  0  0  0  0
 22 23  1  0  0  0  0
 24 25  1  0  0  0  0
 25 29  1  0  0  0  0
 26 29  1  0  0  0  0
 26 33  1  0  0  0  0
 27 34  1  6  0  0  0
 27 30  1  0  0  0  0
 28 32  1  0  0  0  0
 28 26  1  0  0  0  0
 29 31  2  0  0  0  0
 32 27  1  0  0  0  0
 33 30  1  0  0  0  0
 34 35  1  0  0  0  0
 35 36  2  0  0  0  0
 37 35  2  0  0  0  0
M  END
>  <MODEL>
2

>  <REMARK>
 VINA RESULT:      -8.3      4.830      6.401
  Name = 
  9 active torsions:
  status: ('A' for Active; 'I' for Inactive)
    1  A    between atoms: C_4  and  C_29
    2  A    between atoms: P_9  and  O_31
    3  A    between atoms: C_12  and  O_31
    4  A    between atoms: C_14  and  C_23
    5  A    between atoms: C_17  and  C_36
    6  A    between atoms: N_21  and  C_27
    7  A    between atoms: C_23  and  C_27
    8  A    between atoms: C_28  and  O_32
    9  A    between atoms: O_32  and  C_36
                            x       y       z     vdW  Elec       q    Type
                         _______ _______ _______ _____ _____    ______ ____

>  <TORSDO>
F 9

$$$$
=
 OpenBabel11072413003D

 37 40  0  0  1  0  0  0  0  0999 V2000
  161.5910  207.5570  151.9580 C   0  0  0  0  0  0  0  0  0  0  0  0
  162.0280  208.5320  151.1120 N   0  0  0  0  0  0  0  0  0  0  0  0
  160.4550  206.9650  154.0740 O   0  0  0  0  0  1  0  0  0  0  0  0
  162.2570  209.7970  151.5440 C   0  0  0  0  0  3  0  0  0  0  0  0
  161.1830  207.8440  153.2620 C   0  0  0  0  0  0  0  0  0  0  0  0
  161.4720  209.1650  153.6730 C   0  0  0  0  0  0  0  0  0  0  0  0
  162.0020  210.1000  152.8800 C   0  0  0  0  0  3  0  0  0  0  0  0
  162.1420  203.1040  147.6100 O   0  0  0  0  0  1  0  0  0  0  0  0
  161.7480  207.2430  147.7930 C   0  0  0  0  0  2  0  0  0  0  0  0
  161.2780  205.9800  149.9680 C   0  0  0  0  0  0  0  0  0  0  0  0
  161.0660  206.4130  146.6920 C   0  0  0  0  0  2  0  0  0  0  0  0
  160.7720  204.9240  146.9310 C   0  0  0  0  0  2  0  0  0  0  0  0
  161.1940  203.8990  151.7960 N   0  0  0  0  0  0  0  0  0  0  0  0
  161.1990  203.5480  150.4580 C   0  0  0  0  0  0  0  0  0  0  0  0
  161.0050  207.2360  149.1440 C   0  0  0  0  0  2  0  0  0  0  0  0
  161.3060  205.1890  152.2760 C   0  0  0  0  0  3  0  0  0  0  0  0
  161.3580  206.2040  151.3440 C   0  0  0  0  0  0  0  0  0  0  0  0
  161.3410  204.6210  149.4320 C   0  0  0  0  0  0  0  0  0  0  0  0
  161.7720  204.4360  147.9580 C   0  0  1  0  0  3  0  0  0  0  0  0
  161.3990  202.0130  150.2160 C   0  0  0  0  0  2  0  0  0  0  0  0
  160.1760  201.1880  150.0950 C   0  0  0  0  0  2  0  0  0  0  0  0
  159.5530  201.5660  148.8650 N   0  0  0  0  0  2  0  0  0  0  0  0
  160.4010  200.8880  147.8900 C   0  0  0  0  0  1  0  0  0  0  0  0
  161.1920  209.5850  154.9640 O   0  0  0  0  0  0  0  0  0  0  0  0
  160.9900  210.9650  155.1420 C   0  0  0  0  0  2  0  0  0  0  0  0
  159.1550  212.2300  154.2350 N   0  0  0  0  0  0  0  0  0  0  0  0
  157.3880  213.4740  152.3570 C   0  0  2  0  0  3  0  0  0  0  0  0
  159.4470  212.1430  152.8180 C   0  0  0  0  0  2  0  0  0  0  0  0
  159.5410  211.2000  155.0550 C   0  0  0  0  0  0  0  0  0  0  0  0
  157.4710  214.1260  153.7440 C   0  0  0  0  0  2  0  0  0  0  0  0
  158.7490  210.7220  155.9210 O   0  0  0  0  0  0  0  0  0  0  0  0
  158.0960  212.1380  152.1850 C   0  0  0  0  0  2  0  0  0  0  0  0
  158.3440  213.3830  154.7400 C   0  0  0  0  0  2  0  0  0  0  0  0
  157.8660  214.4510  151.4230 O   0  0  0  0  0  0  0  0  0  0  0  0
  157.5480  213.7800  149.9870 P   0  0  0  0  0  0  0  0  0  0  0  0
  158.6970  213.6850  149.0670 O   0  0  0  0  0  0  0  0  0  0  0  0
  156.1000  213.9200  149.3810 O   0  0  0  0  0  0  0  0  0  0  0  0
  1  5  1  0  0  0  0
  2  4  1  0  0  0  0
  2  1  2  0  0  0  0
  4  7  2  0  0  0  0
  5  6  2  0  0  0  0
  5  3  1  0  0  0  0
  6 24  1  0  0  0  0
  7  6  1  0  0  0  0
  9 15  1  0  0  0  0
 10 17  1  0  0  0  0
 11 12  1  0  0  0  0
 11  9  1  0  0  0  0
 12 19  1  0  0  0  0
 13 16  1  0  0  0  0
 14 13  2  0  0  0  0
 15 10  1  0  0  0  0
 17  1  1  0  0  0  0
 17 16  2  0  0  0  0
 18 10  2  0  0  0  0
 18 14  1  0  0  0  0
 19  8  1  6  0  0  0
 19 18  1  0  0  0  0
 20 14  1  0  0  0  0
 21 20  1  0  0  0  0
 22 21  1  0  0  0  0
 23 22  1  0  0  0  0
 24 25  1  0  0  0  0
 26 33  1  0  0  0  0
 26 29  1  0  0  0  0
 27 34  1  6  0  0  0
 27 30  1  0  0  0  0
 28 26  1  0  0  0  0
 29 25  1  0  0  0  0
 29 31  2  0  0  0  0
 30 33  1  0  0  0  0
 32 27  1  0  0  0  0
 32 28  1  0  0  0  0
 35 34  1  0  0  0  0
 36 35  2  0  0  0  0
 37 35  2  0  0  0  0
M  END
>  <MODEL>
3

>  <REMARK>
 VINA RESULT:      -7.1      4.224      5.735
  Name = 
  9 active torsions:
  status: ('A' for Active; 'I' for Inactive)
    1  A    between atoms: C_4  and  C_29
    2  A    between atoms: P_9  and  O_31
    3  A    between atoms: C_12  and  O_31
    4  A    between atoms: C_14  and  C_23
    5  A    between atoms: C_17  and  C_36
    6  A    between atoms: N_21  and  C_27
    7  A    between atoms: C_23  and  C_27
    8  A    between atoms: C_28  and  O_32
    9  A    between atoms: O_32  and  C_36
                            x       y       z     vdW  Elec       q    Type
                         _______ _______ _______ _____ _____    ______ ____

>  <TORSDO>
F 9

$$$$
=
 OpenBabel11072413003D

 37 40  0  0  1  0  0  0  0  0999 V2000
  161.2010  206.5280  151.3930 C   0  0  0  0  0  0  0  0  0  0  0  0
  161.1600  207.7190  150.7340 N   0  0  0  0  0  0  0  0  0  0  0  0
  160.8690  205.2810  153.5040 O   0  0  0  0  0  1  0  0  0  0  0  0
  161.2280  208.9010  151.3960 C   0  0  0  0  0  3  0  0  0  0  0  0
  161.1300  206.4550  152.7860 C   0  0  0  0  0  0  0  0  0  0  0  0
  161.2360  207.7100  153.4290 C   0  0  0  0  0  0  0  0  0  0  0  0
  161.3060  208.8800  152.7880 C   0  0  0  0  0  3  0  0  0  0  0  0
  162.2130  203.0010  146.3360 O   0  0  0  0  0  1  0  0  0  0  0  0
  161.4620  206.9920  147.2480 C   0  0  0  0  0  2  0  0  0  0  0  0
  161.0620  205.3200  149.1420 C   0  0  0  0  0  0  0  0  0  0  0  0
  160.8740  206.3230  145.9930 C   0  0  0  0  0  2  0  0  0  0  0  0
  160.7050  204.7970  145.9500 C   0  0  0  0  0  2  0  0  0  0  0  0
  161.1230  202.9410  150.5630 N   0  0  0  0  0  0  0  0  0  0  0  0
  161.1830  202.8400  149.1840 C   0  0  0  0  0  0  0  0  0  0  0  0
  160.6970  206.6780  148.5500 C   0  0  0  0  0  2  0  0  0  0  0  0
  161.1150  204.1260  151.2710 C   0  0  0  0  0  3  0  0  0  0  0  0
  161.0960  205.2950  150.5380 C   0  0  0  0  0  0  0  0  0  0  0  0
  161.2510  204.0910  148.3740 C   0  0  0  0  0  0  0  0  0  0  0  0
  161.7250  204.2130  146.9060 C   0  0  1  0  0  3  0  0  0  0  0  0
  161.5190  201.3960  148.6770 C   0  0  0  0  0  2  0  0  0  0  0  0
  160.6040  200.8080  147.6740 C   0  0  0  0  0  2  0  0  0  0  0  0
  161.3670  199.8370  146.9510 N   0  0  0  0  0  2  0  0  0  0  0  0
  160.7520  199.9100  145.6300 C   0  0  0  0  0  1  0  0  0  0  0  0
  161.2530  207.8000  154.8120 O   0  0  0  0  0  0  0  0  0  0  0  0
  161.5070  209.0730  155.3510 C   0  0  0  0  0  2  0  0  0  0  0  0
  159.8520  210.6620  156.0760 N   0  0  0  0  0  0  0  0  0  0  0  0
  157.6960  212.5450  156.0180 C   0  0  2  0  0  3  0  0  0  0  0  0
  159.2600  211.0280  154.8040 C   0  0  0  0  0  2  0  0  0  0  0  0
  160.3720  209.4010  156.2260 C   0  0  0  0  0  0  0  0  0  0  0  0
  158.7030  212.7020  157.1660 C   0  0  0  0  0  2  0  0  0  0  0  0
  160.1220  208.7100  157.2580 O   0  0  0  0  0  0  0  0  0  0  0  0
  157.8350  211.3020  155.1500 C   0  0  0  0  0  2  0  0  0  0  0  0
  159.7750  211.6290  157.2170 C   0  0  0  0  0  2  0  0  0  0  0  0
  157.7800  213.7460  155.2390 O   0  0  0  0  0  0  0  0  0  0  0  0
  156.2570  213.9850  154.7560 P   0  0  0  0  0  0  0  0  0  0  0  0
  155.2200  213.6400  155.7470 O   0  0  0  0  0  0  0  0  0  0  0  0
  155.9120  213.8640  153.2230 O   0  0  0  0  0  0  0  0  0  0  0  0
  1  5  1  0  0  0  0
  2  1  2  0  0  0  0
  2  4  1  0  0  0  0
  4  7  2  0  0  0  0
  5  6  2  0  0  0  0
  5  3  1  0  0  0  0
  6 24  1  0  0  0  0
  7  6  1  0  0  0  0
  9 15  1  0  0  0  0
 10 17  1  0  0  0  0
 11  9  1  0  0  0  0
 12 11  1  0  0  0  0
 12 19  1  0  0  0  0
 13 16  1  0  0  0  0
 14 13  2  0  0  0  0
 15 10  1  0  0  0  0
 17 16  2  0  0  0  0
 17  1  1  0  0  0  0
 18 10  2  0  0  0  0
 18 14  1  0  0  0  0
 19  8  1  6  0  0  0
 19 18  1  0  0  0  0
 20 14  1  0  0  0  0
 21 20  1  0  0  0  0
 22 21  1  0  0  0  0
 23 22  1  0  0  0  0
 24 25  1  0  0  0  0
 25 29  1  0  0  0  0
 26 29  1  0  0  0  0
 26 33  1  0  0  0  0
 27 34  1  6  0  0  0
 27 30  1  0  0  0  0
 28 32  1  0  0  0  0
 28 26  1  0  0  0  0
 29 31  2  0  0  0  0
 30 33  1  0  0  0  0
 32 27  1  0  0  0  0
 35 34  1  0  0  0  0
 35 36  2  0  0  0  0
 37 35  2  0  0  0  0
M  END
>  <MODEL>
4

>  <REMARK>
 VINA RESULT:      -7.0      5.218      7.332
  Name = 
  9 active torsions:
  status: ('A' for Active; 'I' for Inactive)
    1  A    between atoms: C_4  and  C_29
    2  A    between atoms: P_9  and  O_31
    3  A    between atoms: C_12  and  O_31
    4  A    between atoms: C_14  and  C_23
    5  A    between atoms: C_17  and  C_36
    6  A    between atoms: N_21  and  C_27
    7  A    between atoms: C_23  and  C_27
    8  A    between atoms: C_28  and  O_32
    9  A    between atoms: O_32  and  C_36
                            x       y       z     vdW  Elec       q    Type
                         _______ _______ _______ _____ _____    ______ ____

>  <TORSDO>
F 9

$$$$
=
 OpenBabel11072413003D

 37 40  0  0  1  0  0  0  0  0999 V2000
  161.7500  207.7160  150.6970 C   0  0  0  0  0  0  0  0  0  0  0  0
  162.1900  208.8880  150.1610 N   0  0  0  0  0  0  0  0  0  0  0  0
  160.4520  206.5670  152.4630 O   0  0  0  0  0  1  0  0  0  0  0  0
  162.2680  210.0220  150.9010 C   0  0  0  0  0  3  0  0  0  0  0  0
  161.1860  207.6560  151.9730 C   0  0  0  0  0  0  0  0  0  0  0  0
  161.3210  208.8530  152.7130 C   0  0  0  0  0  0  0  0  0  0  0  0
  161.8510  209.9800  152.2300 C   0  0  0  0  0  3  0  0  0  0  0  0
  159.9680  202.0440  148.7750 O   0  0  0  0  0  1  0  0  0  0  0  0
  160.9950  203.9450  152.3320 C   0  0  0  0  0  2  0  0  0  0  0  0
  161.5560  205.2170  150.1850 C   0  0  0  0  0  0  0  0  0  0  0  0
  161.3930  202.4860  152.0490 C   0  0  0  0  0  2  0  0  0  0  0  0
  161.4900  201.9890  150.5980 C   0  0  0  0  0  2  0  0  0  0  0  0
  161.5720  205.8980  147.4980 N   0  0  0  0  0  0  0  0  0  0  0  0
  161.3360  204.5680  147.7990 C   0  0  0  0  0  0  0  0  0  0  0  0
  161.9020  204.9920  151.6540 C   0  0  0  0  0  2  0  0  0  0  0  0
  161.7180  206.9060  148.4300 C   0  0  0  0  0  3  0  0  0  0  0  0
  161.6940  206.5400  149.7600 C   0  0  0  0  0  0  0  0  0  0  0  0
  161.2210  204.1630  149.2290 C   0  0  0  0  0  0  0  0  0  0  0  0
  160.5740  202.8650  149.7700 C   0  0  1  0  0  3  0  0  0  0  0  0
  160.8790  203.7210  146.5620 C   0  0  0  0  0  2  0  0  0  0  0  0
  161.6740  203.8610  145.3220 C   0  0  0  0  0  2  0  0  0  0  0  0
  160.7740  204.3350  144.3160 N   0  0  0  0  0  2  0  0  0  0  0  0
  161.2200  205.7140  144.1550 C   0  0  0  0  0  1  0  0  0  0  0  0
  160.8750  208.9320  154.0230 O   0  0  0  0  0  0  0  0  0  0  0  0
  161.3320  210.0290  154.7730 C   0  0  0  0  0  2  0  0  0  0  0  0
  159.6130  211.6840  155.0790 N   0  0  0  0  0  0  0  0  0  0  0  0
  157.3800  213.4000  154.5590 C   0  0  2  0  0  3  0  0  0  0  0  0
  159.0050  211.6830  153.7630 C   0  0  0  0  0  2  0  0  0  0  0  0
  160.1850  210.5280  155.5460 C   0  0  0  0  0  0  0  0  0  0  0  0
  158.3800  213.8900  155.6150 C   0  0  0  0  0  2  0  0  0  0  0  0
  159.9650  210.1200  156.7250 O   0  0  0  0  0  0  0  0  0  0  0  0
  157.5700  211.9800  154.0420 C   0  0  0  0  0  2  0  0  0  0  0  0
  159.4970  212.9110  155.9300 C   0  0  0  0  0  2  0  0  0  0  0  0
  157.4140  214.3590  153.4940 O   0  0  0  0  0  0  0  0  0  0  0  0
  155.8690  214.4530  153.0290 P   0  0  0  0  0  0  0  0  0  0  0  0
  154.8740  214.2400  154.0970 O   0  0  0  0  0  0  0  0  0  0  0  0
  155.4900  214.0630  151.5500 O   0  0  0  0  0  0  0  0  0  0  0  0
  1  5  1  0  0  0  0
  2  1  2  0  0  0  0
  2  4  1  0  0  0  0
  4  7  2  0  0  0  0
  5  3  1  0  0  0  0
  5  6  2  0  0  0  0
  6 24  1  0  0  0  0
  7  6  1  0  0  0  0
 10 15  1  0  0  0  0
 11  9  1  0  0  0  0
 12 11  1  0  0  0  0
 13 14  2  0  0  0  0
 13 16  1  0  0  0  0
 14 18  1  0  0  0  0
 15  9  1  0  0  0  0
 16 17  2  0  0  0  0
 17 10  1  0  0  0  0
 17  1  1  0  0  0  0
 18 19  1  0  0  0  0
 18 10  2  0  0  0  0
 19  8  1  6  0  0  0
 19 12  1  0  0  0  0
 20 14  1  0  0  0  0
 21 20  1  0  0  0  0
 22 21  1  0  0  0  0
 23 22  1  0  0  0  0
 24 25  1  0  0  0  0
 25 29  1  0  0  0  0
 26 29  1  0  0  0  0
 26 33  1  0  0  0  0
 27 34  1  6  0  0  0
 27 30  1  0  0  0  0
 28 32  1  0  0  0  0
 28 26  1  0  0  0  0
 29 31  2  0  0  0  0
 30 33  1  0  0  0  0
 32 27  1  0  0  0  0
 35 34  1  0  0  0  0
 35 36  2  0  0  0  0
 37 35  2  0  0  0  0
M  END
>  <MODEL>
5

>  <REMARK>
 VINA RESULT:      -7.0      4.853      6.143
  Name = 
  9 active torsions:
  status: ('A' for Active; 'I' for Inactive)
    1  A    between atoms: C_4  and  C_29
    2  A    between atoms: P_9  and  O_31
    3  A    between atoms: C_12  and  O_31
    4  A    between atoms: C_14  and  C_23
    5  A    between atoms: C_17  and  C_36
    6  A    between atoms: N_21  and  C_27
    7  A    between atoms: C_23  and  C_27
    8  A    between atoms: C_28  and  O_32
    9  A    between atoms: O_32  and  C_36
                            x       y       z     vdW  Elec       q    Type
                         _______ _______ _______ _____ _____    ______ ____

>  <TORSDO>
F 9

$$$$
=
 OpenBabel11072413003D

 37 40  0  0  1  0  0  0  0  0999 V2000
  160.7560  209.1590  152.4150 C   0  0  0  0  0  0  0  0  0  0  0  0
  161.5960  209.5710  151.4260 N   0  0  0  0  0  0  0  0  0  0  0  0
  160.1590  207.4330  154.0850 O   0  0  0  0  0  1  0  0  0  0  0  0
  162.3630  208.6920  150.7340 C   0  0  0  0  0  3  0  0  0  0  0  0
  160.7680  207.8470  152.8930 C   0  0  0  0  0  0  0  0  0  0  0  0
  161.5570  206.9660  152.1190 C   0  0  0  0  0  0  0  0  0  0  0  0
  162.3030  207.3430  151.0770 C   0  0  0  0  0  3  0  0  0  0  0  0
  159.9950  214.1820  156.0530 O   0  0  0  0  0  1  0  0  0  0  0  0
  162.3570  210.7570  155.9290 C   0  0  0  0  0  2  0  0  0  0  0  0
  160.3450  210.7830  154.3490 C   0  0  0  0  0  0  0  0  0  0  0  0
  161.8310  211.3310  157.2560 C   0  0  0  0  0  2  0  0  0  0  0  0
  160.5770  212.2200  157.2600 C   0  0  0  0  0  2  0  0  0  0  0  0
  158.1910  211.7570  152.9030 N   0  0  0  0  0  0  0  0  0  0  0  0
  158.5140  212.4350  154.0660 C   0  0  0  0  0  0  0  0  0  0  0  0
  161.3220  209.9240  155.1460 C   0  0  0  0  0  2  0  0  0  0  0  0
  158.9040  210.6970  152.3810 C   0  0  0  0  0  3  0  0  0  0  0  0
  159.9780  210.2400  153.1160 C   0  0  0  0  0  0  0  0  0  0  0  0
  159.7220  212.0140  154.8320 C   0  0  0  0  0  0  0  0  0  0  0  0
  160.4810  212.8520  155.8880 C   0  0  1  0  0  3  0  0  0  0  0  0
  157.7430  213.7890  154.2330 C   0  0  0  0  0  2  0  0  0  0  0  0
  156.3960  213.7240  154.8420 C   0  0  0  0  0  2  0  0  0  0  0  0
  156.2740  212.4190  155.4140 N   0  0  0  0  0  2  0  0  0  0  0  0
  156.0300  212.7380  156.8160 C   0  0  0  0  0  1  0  0  0  0  0  0
  161.6180  205.6150  152.4220 O   0  0  0  0  0  0  0  0  0  0  0  0
  160.6280  204.8000  151.8440 C   0  0  0  0  0  2  0  0  0  0  0  0
  160.9550  203.5810  149.7960 N   0  0  0  0  0  0  0  0  0  0  0  0
  161.4870  203.0010  147.0430 C   0  0  2  0  0  3  0  0  0  0  0  0
  161.1830  204.6720  148.8700 C   0  0  0  0  0  2  0  0  0  0  0  0
  161.3260  203.7360  151.1070 C   0  0  0  0  0  0  0  0  0  0  0  0
  160.6080  201.9900  147.7910 C   0  0  0  0  0  2  0  0  0  0  0  0
  161.9580  202.8250  151.7200 O   0  0  0  0  0  0  0  0  0  0  0  0
  162.1380  204.0940  147.8790 C   0  0  0  0  0  2  0  0  0  0  0  0
  160.4270  202.2810  149.2690 C   0  0  0  0  0  2  0  0  0  0  0  0
  160.6720  203.5490  145.9980 O   0  0  0  0  0  0  0  0  0  0  0  0
  161.5670  204.7690  145.4290 P   0  0  0  0  0  0  0  0  0  0  0  0
  160.8090  205.8670  144.8000 O   0  0  0  0  0  0  0  0  0  0  0  0
  163.0320  204.4740  144.9290 O   0  0  0  0  0  0  0  0  0  0  0  0
  1  5  1  0  0  0  0
  1 17  1  0  0  0  0
  2  1  2  0  0  0  0
  4  7  2  0  0  0  0
  4  2  1  0  0  0  0
  5  3  1  0  0  0  0
  6 24  1  0  0  0  0
  6  5  2  0  0  0  0
  7  6  1  0  0  0  0
  9 11  1  0  0  0  0
 10 18  1  0  0  0  0
 10 15  1  0  0  0  0
 11 12  1  0  0  0  0
 13 14  1  0  0  0  0
 14 20  1  0  0  0  0
 14 18  2  0  0  0  0
 15  9  1  0  0  0  0
 16 13  2  0  0  0  0
 16 17  1  0  0  0  0
 17 10  2  0  0  0  0
 18 19  1  0  0  0  0
 19  8  1  1  0  0  0
 19 12  1  0  0  0  0
 20 21  1  0  0  0  0
 21 22  1  0  0  0  0
 22 23  1  0  0  0  0
 25 24  1  0  0  0  0
 26 29  1  0  0  0  0
 27 34  1  6  0  0  0
 27 30  1  0  0  0  0
 27 32  1  0  0  0  0
 28 26  1  0  0  0  0
 29 31  2  0  0  0  0
 29 25  1  0  0  0  0
 30 33  1  0  0  0  0
 32 28  1  0  0  0  0
 33 26  1  0  0  0  0
 35 34  1  0  0  0  0
 36 35  2  0  0  0  0
 37 35  2  0  0  0  0
M  END
>  <MODEL>
6

>  <REMARK>
 VINA RESULT:      -6.9      4.470      9.501
  Name = 
  9 active torsions:
  status: ('A' for Active; 'I' for Inactive)
    1  A    between atoms: C_4  and  C_29
    2  A    between atoms: P_9  and  O_31
    3  A    between atoms: C_12  and  O_31
    4  A    between atoms: C_14  and  C_23
    5  A    between atoms: C_17  and  C_36
    6  A    between atoms: N_21  and  C_27
    7  A    between atoms: C_23  and  C_27
    8  A    between atoms: C_28  and  O_32
    9  A    between atoms: O_32  and  C_36
                            x       y       z     vdW  Elec       q    Type
                         _______ _______ _______ _____ _____    ______ ____

>  <TORSDO>
F 9

$$$$
=
 OpenBabel11072413003D

 37 40  0  0  1  0  0  0  0  0999 V2000
  160.9250  208.9730  152.9700 C   0  0  0  0  0  0  0  0  0  0  0  0
  161.6870  209.3610  151.9100 N   0  0  0  0  0  0  0  0  0  0  0  0
  160.3240  207.2060  154.5940 O   0  0  0  0  0  1  0  0  0  0  0  0
  162.2560  208.4560  151.0750 C   0  0  0  0  0  3  0  0  0  0  0  0
  160.8350  207.6360  153.3620 C   0  0  0  0  0  0  0  0  0  0  0  0
  161.4150  206.7320  152.4440 C   0  0  0  0  0  0  0  0  0  0  0  0
  162.0750  207.1000  151.3420 C   0  0  0  0  0  3  0  0  0  0  0  0
  157.2760  213.8710  154.2900 O   0  0  0  0  0  1  0  0  0  0  0  0
  159.4090  212.3620  151.0500 C   0  0  0  0  0  2  0  0  0  0  0  0
  159.9320  211.3050  153.3200 C   0  0  0  0  0  0  0  0  0  0  0  0
  159.3130  213.8730  151.3240 C   0  0  0  0  0  2  0  0  0  0  0  0
  159.0100  214.3730  152.7450 C   0  0  0  0  0  2  0  0  0  0  0  0
  159.6780  210.6520  156.0020 N   0  0  0  0  0  0  0  0  0  0  0  0
  159.1240  211.8560  155.6020 C   0  0  0  0  0  0  0  0  0  0  0  0
  160.4470  211.6250  151.9200 C   0  0  0  0  0  2  0  0  0  0  0  0
  160.2680  209.7330  155.1570 C   0  0  0  0  0  3  0  0  0  0  0  0
  160.3710  210.0800  153.8260 C   0  0  0  0  0  0  0  0  0  0  0  0
  159.1460  212.2130  154.1550 C   0  0  0  0  0  0  0  0  0  0  0  0
  158.2570  213.2650  153.4510 C   0  0  1  0  0  3  0  0  0  0  0  0
  158.2350  212.5300  156.7030 C   0  0  0  0  0  2  0  0  0  0  0  0
  157.1250  211.7220  157.2560 C   0  0  0  0  0  2  0  0  0  0  0  0
  155.9330  212.1760  156.6100 N   0  0  0  0  0  2  0  0  0  0  0  0
  155.5970  211.0260  155.7790 C   0  0  0  0  0  1  0  0  0  0  0  0
  161.3480  205.3640  152.6550 O   0  0  0  0  0  0  0  0  0  0  0  0
  160.4570  204.6490  151.8360 C   0  0  0  0  0  2  0  0  0  0  0  0
  160.9360  203.5880  149.7300 N   0  0  0  0  0  0  0  0  0  0  0  0
  161.5810  203.2230  146.9640 C   0  0  2  0  0  3  0  0  0  0  0  0
  161.0900  204.7490  148.8760 C   0  0  0  0  0  2  0  0  0  0  0  0
  161.2610  203.6940  151.0590 C   0  0  0  0  0  0  0  0  0  0  0  0
  160.7760  202.0970  147.6270 C   0  0  0  0  0  2  0  0  0  0  0  0
  161.9560  202.8060  151.6350 O   0  0  0  0  0  0  0  0  0  0  0  0
  162.1140  204.3150  147.8810 C   0  0  0  0  0  2  0  0  0  0  0  0
  160.5360  202.2820  149.1140 C   0  0  0  0  0  2  0  0  0  0  0  0
  160.7450  203.7620  145.9310 O   0  0  0  0  0  0  0  0  0  0  0  0
  161.7410  204.7450  145.1220 P   0  0  0  0  0  0  0  0  0  0  0  0
  161.2060  205.2840  143.8580 O   0  0  0  0  0  0  0  0  0  0  0  0
  163.2980  204.5410  145.2610 O   0  0  0  0  0  0  0  0  0  0  0  0
  1  5  1  0  0  0  0
  1 17  1  0  0  0  0
  2  1  2  0  0  0  0
  4  7  2  0  0  0  0
  4  2  1  0  0  0  0
  5  3  1  0  0  0  0
  6 24  1  0  0  0  0
  6  5  2  0  0  0  0
  7  6  1  0  0  0  0
  9 11  1  0  0  0  0
  9 15  1  0  0  0  0
 10 17  2  0  0  0  0
 10 18  1  0  0  0  0
 11 12  1  0  0  0  0
 12 19  1  0  0  0  0
 14 13  1  0  0  0  0
 14 20  1  0  0  0  0
 15 10  1  0  0  0  0
 16 13  2  0  0  0  0
 17 16  1  0  0  0  0
 18 14  2  0  0  0  0
 19 18  1  0  0  0  0
 19  8  1  1  0  0  0
 20 21  1  0  0  0  0
 22 21  1  0  0  0  0
 23 22  1  0  0  0  0
 25 24  1  0  0  0  0
 26 29  1  0  0  0  0
 27 34  1  6  0  0  0
 27 30  1  0  0  0  0
 27 32  1  0  0  0  0
 28 26  1  0  0  0  0
 29 31  2  0  0  0  0
 29 25  1  0  0  0  0
 30 33  1  0  0  0  0
 32 28  1  0  0  0  0
 33 26  1  0  0  0  0
 35 37  2  0  0  0  0
 35 34  1  0  0  0  0
 36 35  2  0  0  0  0
M  END
>  <MODEL>
7

>  <REMARK>
 VINA RESULT:      -6.7      4.295      9.619
  Name = 
  9 active torsions:
  status: ('A' for Active; 'I' for Inactive)
    1  A    between atoms: C_4  and  C_29
    2  A    between atoms: P_9  and  O_31
    3  A    between atoms: C_12  and  O_31
    4  A    between atoms: C_14  and  C_23
    5  A    between atoms: C_17  and  C_36
    6  A    between atoms: N_21  and  C_27
    7  A    between atoms: C_23  and  C_27
    8  A    between atoms: C_28  and  O_32
    9  A    between atoms: O_32  and  C_36
                            x       y       z     vdW  Elec       q    Type
                         _______ _______ _______ _____ _____    ______ ____

>  <TORSDO>
F 9

$$$$
=
 OpenBabel11072413003D

 37 40  0  0  1  0  0  0  0  0999 V2000
  161.0790  208.0420  151.6630 C   0  0  0  0  0  0  0  0  0  0  0  0
  161.1230  207.5480  152.9320 N   0  0  0  0  0  0  0  0  0  0  0  0
  161.2270  210.0060  150.1650 O   0  0  0  0  0  1  0  0  0  0  0  0
  160.8950  208.3380  154.0100 C   0  0  0  0  0  3  0  0  0  0  0  0
  160.9800  209.4120  151.4100 C   0  0  0  0  0  0  0  0  0  0  0  0
  160.7120  210.1860  152.5620 C   0  0  0  0  0  0  0  0  0  0  0  0
  160.6460  209.6930  153.8010 C   0  0  0  0  0  3  0  0  0  0  0  0
  160.4770  202.6910  148.4940 O   0  0  0  0  0  1  0  0  0  0  0  0
  160.4930  203.9800  152.4510 C   0  0  0  0  0  2  0  0  0  0  0  0
  161.3190  205.6750  150.7220 C   0  0  0  0  0  0  0  0  0  0  0  0
  161.1250  202.6410  152.0330 C   0  0  0  0  0  2  0  0  0  0  0  0
  161.5840  202.4340  150.5810 C   0  0  0  0  0  2  0  0  0  0  0  0
  161.8030  206.8430  148.2560 N   0  0  0  0  0  0  0  0  0  0  0  0
  161.6830  205.4650  148.2750 C   0  0  0  0  0  0  0  0  0  0  0  0
  161.3790  205.2120  152.1750 C   0  0  0  0  0  2  0  0  0  0  0  0
  161.6220  207.6690  149.3480 C   0  0  0  0  0  3  0  0  0  0  0  0
  161.3710  207.0610  150.5600 C   0  0  0  0  0  0  0  0  0  0  0  0
  161.3270  204.7910  149.5570 C   0  0  0  0  0  0  0  0  0  0  0  0
  160.7540  203.3630  149.7200 C   0  0  1  0  0  3  0  0  0  0  0  0
  161.6040  204.8250  146.8470 C   0  0  0  0  0  2  0  0  0  0  0  0
  162.0300  205.6700  145.7090 C   0  0  0  0  0  2  0  0  0  0  0  0
  160.8360  206.0580  145.0240 N   0  0  0  0  0  2  0  0  0  0  0  0
  160.4190  204.7930  144.4300 C   0  0  0  0  0  1  0  0  0  0  0  0
  160.5170  211.5550  152.4670 O   0  0  0  0  0  0  0  0  0  0  0  0
  159.1940  212.0080  152.6120 C   0  0  0  0  0  2  0  0  0  0  0  0
  159.0040  213.2360  150.5510 N   0  0  0  0  0  0  0  0  0  0  0  0
  158.0260  214.1400  148.0160 C   0  0  2  0  0  3  0  0  0  0  0  0
  157.8430  212.5940  149.9660 C   0  0  0  0  0  2  0  0  0  0  0  0
  159.1060  213.3020  151.9170 C   0  0  0  0  0  0  0  0  0  0  0  0
  159.5320  214.3070  148.2610 C   0  0  0  0  0  2  0  0  0  0  0  0
  159.4390  214.3780  152.4970 O   0  0  0  0  0  0  0  0  0  0  0  0
  157.1840  213.6950  149.2040 C   0  0  0  0  0  2  0  0  0  0  0  0
  159.9950  213.9040  149.6490 C   0  0  0  0  0  2  0  0  0  0  0  0
  157.8940  213.2400  146.9080 O   0  0  0  0  0  0  0  0  0  0  0  0
  159.2490  213.4890  146.0620 P   0  0  0  0  0  0  0  0  0  0  0  0
  159.1010  214.3510  144.8740 O   0  0  0  0  0  0  0  0  0  0  0  0
  160.3640  212.3760  146.0580 O   0  0  0  0  0  0  0  0  0  0  0  0
  1  2  1  0  0  0  0
  2  4  2  0  0  0  0
  3  5  1  0  0  0  0
  5  1  2  0  0  0  0
  5  6  1  0  0  0  0
  6  7  2  0  0  0  0
  7  4  1  0  0  0  0
 10 15  1  0  0  0  0
 11  9  1  0  0  0  0
 12 11  1  0  0  0  0
 13 14  2  0  0  0  0
 13 16  1  0  0  0  0
 14 18  1  0  0  0  0
 15  9  1  0  0  0  0
 16 17  2  0  0  0  0
 17 10  1  0  0  0  0
 17  1  1  0  0  0  0
 18 19  1  0  0  0  0
 18 10  2  0  0  0  0
 19  8  1  6  0  0  0
 19 12  1  0  0  0  0
 20 14  1  0  0  0  0
 21 20  1  0  0  0  0
 22 21  1  0  0  0  0
 23 22  1  0  0  0  0
 24  6  1  0  0  0  0
 24 25  1  0  0  0  0
 26 29  1  0  0  0  0
 27 34  1  6  0  0  0
 27 30  1  0  0  0  0
 27 32  1  0  0  0  0
 28 26  1  0  0  0  0
 29 31  2  0  0  0  0
 29 25  1  0  0  0  0
 30 33  1  0  0  0  0
 32 28  1  0  0  0  0
 33 26  1  0  0  0  0
 35 34  1  0  0  0  0
 36 35  2  0  0  0  0
 37 35  2  0  0  0  0
M  END
>  <MODEL>
8

>  <REMARK>
 VINA RESULT:      -6.6      2.422      2.906
  Name = 
  9 active torsions:
  status: ('A' for Active; 'I' for Inactive)
    1  A    between atoms: C_4  and  C_29
    2  A    between atoms: P_9  and  O_31
    3  A    between atoms: C_12  and  O_31
    4  A    between atoms: C_14  and  C_23
    5  A    between atoms: C_17  and  C_36
    6  A    between atoms: N_21  and  C_27
    7  A    between atoms: C_23  and  C_27
    8  A    between atoms: C_28  and  O_32
    9  A    between atoms: O_32  and  C_36
                            x       y       z     vdW  Elec       q    Type
                         _______ _______ _______ _____ _____    ______ ____

>  <TORSDO>
F 9

$$$$
=
 OpenBabel11072413003D

 37 40  0  0  1  0  0  0  0  0999 V2000
  160.9010  209.2400  152.7470 C   0  0  0  0  0  0  0  0  0  0  0  0
  160.8710  209.0490  154.0950 N   0  0  0  0  0  0  0  0  0  0  0  0
  160.8240  208.2500  150.4800 O   0  0  0  0  0  1  0  0  0  0  0  0
  161.1850  207.8520  154.6500 C   0  0  0  0  0  3  0  0  0  0  0  0
  161.0770  208.1780  151.8560 C   0  0  0  0  0  0  0  0  0  0  0  0
  161.4320  206.9620  152.4830 C   0  0  0  0  0  0  0  0  0  0  0  0
  161.5110  206.7920  153.8050 C   0  0  0  0  0  3  0  0  0  0  0  0
  159.6740  213.6430  148.4860 O   0  0  0  0  0  1  0  0  0  0  0  0
  162.3300  210.4840  149.0220 C   0  0  0  0  0  2  0  0  0  0  0  0
  161.0030  211.1880  151.0920 C   0  0  0  0  0  0  0  0  0  0  0  0
  162.7630  211.8010  148.3560 C   0  0  0  0  0  2  0  0  0  0  0  0
  161.9810  213.0930  148.6410 C   0  0  0  0  0  2  0  0  0  0  0  0
  159.0660  212.4320  152.6360 N   0  0  0  0  0  0  0  0  0  0  0  0
  159.4080  213.0570  151.4500 C   0  0  0  0  0  0  0  0  0  0  0  0
  162.2780  210.5400  150.5620 C   0  0  0  0  0  2  0  0  0  0  0  0
  159.5570  211.2120  153.0580 C   0  0  0  0  0  3  0  0  0  0  0  0
  160.5110  210.6100  152.2640 C   0  0  0  0  0  0  0  0  0  0  0  0
  160.3730  212.3840  150.5340 C   0  0  0  0  0  0  0  0  0  0  0  0
  160.5760  212.6810  149.0290 C   0  0  1  0  0  3  0  0  0  0  0  0
  158.4580  214.2450  151.0740 C   0  0  0  0  0  2  0  0  0  0  0  0
  157.0030  214.0020  151.1910 C   0  0  0  0  0  2  0  0  0  0  0  0
  156.5270  213.7460  149.8670 N   0  0  0  0  0  2  0  0  0  0  0  0
  155.1210  214.1140  149.9870 C   0  0  0  0  0  1  0  0  0  0  0  0
  161.7090  205.8310  151.7310 O   0  0  0  0  0  0  0  0  0  0  0  0
  160.7720  204.7850  151.8090 C   0  0  0  0  0  2  0  0  0  0  0  0
  160.9180  203.4250  149.8300 N   0  0  0  0  0  0  0  0  0  0  0  0
  161.2780  202.6440  147.0980 C   0  0  2  0  0  3  0  0  0  0  0  0
  161.1760  204.4400  148.8280 C   0  0  0  0  0  2  0  0  0  0  0  0
  161.3600  203.6310  151.1120 C   0  0  0  0  0  0  0  0  0  0  0  0
  160.3690  201.7450  147.9460 C   0  0  0  0  0  2  0  0  0  0  0  0
  161.9570  202.7160  151.7530 O   0  0  0  0  0  0  0  0  0  0  0  0
  162.0410  203.7360  147.8360 C   0  0  0  0  0  2  0  0  0  0  0  0
  160.2790  202.1370  149.4100 C   0  0  0  0  0  2  0  0  0  0  0  0
  160.4540  203.1860  146.0570 O   0  0  0  0  0  0  0  0  0  0  0  0
  161.3850  204.3360  145.4060 P   0  0  0  0  0  0  0  0  0  0  0  0
  160.6580  205.4330  144.7410 O   0  0  0  0  0  0  0  0  0  0  0  0
  162.8230  203.9540  144.8870 O   0  0  0  0  0  0  0  0  0  0  0  0
  1  2  1  0  0  0  0
  2  4  2  0  0  0  0
  3  5  1  0  0  0  0
  5  6  1  0  0  0  0
  5  1  2  0  0  0  0
  6  7  2  0  0  0  0
  7  4  1  0  0  0  0
  9 15  1  0  0  0  0
 10 17  1  0  0  0  0
 11 12  1  0  0  0  0
 11  9  1  0  0  0  0
 12 19  1  0  0  0  0
 13 16  1  0  0  0  0
 14 13  2  0  0  0  0
 15 10  1  0  0  0  0
 17  1  1  0  0  0  0
 17 16  2  0  0  0  0
 18 10  2  0  0  0  0
 18 14  1  0  0  0  0
 19  8  1  1  0  0  0
 19 18  1  0  0  0  0
 20 21  1  0  0  0  0
 20 14  1  0  0  0  0
 22 23  1  0  0  0  0
 22 21  1  0  0  0  0
 24 25  1  0  0  0  0
 24  6  1  0  0  0  0
 26 29  1  0  0  0  0
 27 34  1  6  0  0  0
 27 32  1  0  0  0  0
 27 30  1  0  0  0  0
 28 26  1  0  0  0  0
 29 31  2  0  0  0  0
 29 25  1  0  0  0  0
 30 33  1  0  0  0  0
 32 28  1  0  0  0  0
 33 26  1  0  0  0  0
 35 34  1  0  0  0  0
 36 35  2  0  0  0  0
 37 35  2  0  0  0  0
M  END
>  <MODEL>
9

>  <REMARK>
 VINA RESULT:      -6.3      3.346      8.953
  Name = 
  9 active torsions:
  status: ('A' for Active; 'I' for Inactive)
    1  A    between atoms: C_4  and  C_29
    2  A    between atoms: P_9  and  O_31
    3  A    between atoms: C_12  and  O_31
    4  A    between atoms: C_14  and  C_23
    5  A    between atoms: C_17  and  C_36
    6  A    between atoms: N_21  and  C_27
    7  A    between atoms: C_23  and  C_27
    8  A    between atoms: C_28  and  O_32
    9  A    between atoms: O_32  and  C_36
                            x       y       z     vdW  Elec       q    Type
                         _______ _______ _______ _____ _____    ______ ____

>  <TORSDO>
F 9

$$$$
