=
 OpenBabel11072411503D

 53 58  0  0  1  0  0  0  0  0999 V2000
  161.9100  206.9300  150.6890 C   0  0  2  0  0  3  0  0  0  0  0  0
  161.6040  203.8270  147.1370 C   0  0  0  0  0  2  0  0  0  0  0  0
  162.7080  205.7630  146.0030 C   0  0  0  0  0  1  0  0  0  0  0  0
  161.3300  207.6130  148.3110 C   0  0  0  0  0  2  0  0  0  0  0  0
  160.8380  203.9250  148.4550 C   0  0  0  0  0  2  0  0  0  0  0  0
  161.3420  208.0360  149.7810 C   0  0  2  0  0  3  0  0  0  0  0  0
  160.4320  206.3980  148.1600 C   0  0  2  0  0  3  0  0  0  0  0  0
  161.8860  204.5520  150.9790 O   0  0  0  0  0  0  0  0  0  0  0  0
  161.5500  205.5260  150.2510 C   0  0  0  0  0  0  0  0  0  0  0  0
  161.3940  205.0350  146.2120 C   0  0  2  0  0  3  0  0  0  0  0  0
  160.9270  205.2850  148.9780 N   0  0  0  0  0  0  0  0  0  0  0  0
  160.2950  206.0020  146.6810 C   0  0  0  0  0  2  0  0  0  0  0  0
  161.8230  206.1740  153.0910 C   0  0  0  0  0  3  0  0  0  0  0  0
  160.6410  208.5760  153.8890 C   0  0  0  0  0  3  0  0  0  0  0  0
  161.5020  206.3830  154.4350 C   0  0  0  0  0  3  0  0  0  0  0  0
  160.9120  207.5840  154.8330 C   0  0  0  0  0  3  0  0  0  0  0  0
  160.9530  208.3750  152.5390 C   0  0  0  0  0  0  0  0  0  0  0  0
  161.5520  207.1650  152.1340 C   0  0  0  0  0  0  0  0  0  0  0  0
  160.6460  209.4710  151.5640 C   0  0  0  0  0  2  0  0  0  0  0  0
  160.7910  210.8460  152.2040 C   0  0  0  0  0  2  0  0  0  0  0  0
  159.5010  211.2850  152.8870 C   0  0  2  0  0  3  0  0  0  0  0  0
  158.8260  212.1890  152.0650 O   0  0  0  0  0  1  0  0  0  0  0  0
  159.8040  211.9360  154.2350 C   0  0  2  0  0  3  0  0  0  0  0  0
  160.9710  211.3950  154.7900 O   0  0  0  0  0  1  0  0  0  0  0  0
  159.0620  211.2140  156.5460 C   0  0  0  0  0  1  0  0  0  0  0  0
  157.9390  213.1180  155.4120 C   0  0  0  0  0  1  0  0  0  0  0  0
  158.6290  211.7840  155.2040 C   0  0  0  0  0  3  0  0  0  0  0  0
  162.1740  211.2560  148.2630 C   0  0  0  0  0  3  0  0  0  0  0  0
  162.0750  209.3310  150.0200 C   0  0  0  0  0  3  0  0  0  0  0  0
  162.1350  210.3010  149.1450 C   0  0  0  0  0  0  0  0  0  0  0  0
  161.0520  212.2320  148.1820 C   0  0  0  0  0  2  0  0  0  0  0  0
  160.1980  211.9190  147.0450 N   0  0  0  0  0  2  0  0  0  0  0  0
  160.5110  212.3050  145.7030 C   0  0  0  0  0  0  0  0  0  0  0  0
  161.5770  213.1680  145.4200 C   0  0  0  0  0  3  0  0  0  0  0  0
  161.0690  212.9940  143.0680 C   0  0  0  0  0  0  0  0  0  0  0  0
  161.8560  213.5200  144.1010 C   0  0  0  0  0  3  0  0  0  0  0  0
  160.0330  212.1620  143.3660 N   0  0  0  0  0  0  0  0  0  0  0  0
  159.7440  211.8090  144.6460 C   0  0  0  0  0  3  0  0  0  0  0  0
  161.3140  213.3720  141.6360 C   0  0  1  0  0  3  0  0  0  0  0  0
  162.6560  212.8380  141.1870 C   0  0  1  0  0  3  0  0  0  0  0  0
  160.3520  212.7440  140.7490 N   0  0  0  0  0  0  0  0  0  0  0  0
  162.3460  211.9100  140.0150 C   0  0  0  0  0  3  0  0  0  0  0  0
  160.8990  211.8440  139.8240 N   0  0  0  0  0  0  0  0  0  0  0  0
  154.5230  214.1360  140.6420 Cl  0  0  0  0  0  0  0  0  0  0  0  0
  158.0700  212.3640  139.9070 C   0  0  0  0  0  3  0  0  0  0  0  0
  156.7100  212.6880  139.8820 C   0  0  0  0  0  3  0  0  0  0  0  0
  158.4570  214.1290  141.5150 C   0  0  0  0  0  3  0  0  0  0  0  0
  156.2250  213.7320  140.6720 C   0  0  0  0  0  0  0  0  0  0  0  0
  157.0980  214.4530  141.4890 C   0  0  0  0  0  3  0  0  0  0  0  0
  158.9560  213.0820  140.7260 C   0  0  0  0  0  0  0  0  0  0  0  0
  163.8210  214.2250  139.4120 N   0  0  0  0  0  2  0  0  0  0  0  0
  163.5790  213.9560  140.7900 C   0  0  0  0  0  0  0  0  0  0  0  0
  164.3910  214.4470  141.6680 N   0  0  0  0  0  1  0  0  0  0  0  0
  1 18  1  1  0  0  0
  2  5  1  0  0  0  0
  4  6  1  0  0  0  0
  5 11  1  0  0  0  0
  6 29  1  6  0  0  0
  6  1  1  0  0  0  0
  7 12  1  6  0  0  0
  7  4  1  0  0  0  0
  7 11  1  0  0  0  0
  9  1  1  0  0  0  0
  9  8  2  0  0  0  0
 10  3  1  1  0  0  0
 10 12  1  0  0  0  0
 10  2  1  0  0  0  0
 11  9  1  0  0  0  0
 13 15  1  0  0  0  0
 14 16  1  0  0  0  0
 15 16  2  0  0  0  0
 17 14  2  0  0  0  0
 18 17  1  0  0  0  0
 18 13  2  0  0  0  0
 19 20  1  0  0  0  0
 19 17  1  0  0  0  0
 20 21  1  0  0  0  0
 21 22  1  6  0  0  0
 21 23  1  0  0  0  0
 23 24  1  1  0  0  0
 23 27  1  0  0  0  0
 27 26  1  0  0  0  0
 27 25  1  0  0  0  0
 28 30  2  0  0  0  0
 30 29  2  0  0  0  0
 31 28  1  0  0  0  0
 32 31  1  0  0  0  0
 33 32  1  0  0  0  0
 34 33  1  0  0  0  0
 35 37  2  0  0  0  0
 35 36  1  0  0  0  0
 36 34  2  0  0  0  0
 37 38  1  0  0  0  0
 38 33  2  0  0  0  0
 39 35  1  1  0  0  0
 40 52  1  6  0  0  0
 40 39  1  0  0  0  0
 41 39  1  0  0  0  0
 42 40  1  0  0  0  0
 43 42  2  0  0  0  0
 43 41  1  0  0  0  0
 44 48  1  0  0  0  0
 45 50  1  0  0  0  0
 46 45  2  0  0  0  0
 46 48  1  0  0  0  0
 48 49  2  0  0  0  0
 49 47  1  0  0  0  0
 50 41  1  0  0  0  0
 50 47  2  0  0  0  0
 51 52  2  0  0  0  0
 52 53  1  0  0  0  0
M  END
>  <MODEL>
1

>  <REMARK>
 VINA RESULT:      -7.6      0.000      0.000
  Name = 
  13 active torsions:
  status: ('A' for Active; 'I' for Inactive)
    1  A    between atoms: C_1  and  C_29
    2  A    between atoms: C_2  and  C_10
    3  A    between atoms: C_3  and  N_49
    4  A    between atoms: N_4  and  C_48
    5  A    between atoms: C_5  and  C_27
    6  A    between atoms: C_5  and  C_36
    7  A    between atoms: C_8  and  C_32
    8  A    between atoms: C_9  and  C_40
    9  A    between atoms: C_12  and  C_25
   10  A    between atoms: C_21  and  C_45
   11  A    between atoms: C_21  and  C_51
   12  A    between atoms: C_27  and  C_45
   13  A    between atoms: C_32  and  N_49
                            x       y       z     vdW  Elec       q    Type
                         _______ _______ _______ _____ _____    ______ ____

>  <TORSDO>
F 13

$$$$
=
 OpenBabel11072411503D

 53 58  0  0  1  0  0  0  0  0999 V2000
  158.4600  212.9180  152.6380 C   0  0  2  0  0  3  0  0  0  0  0  0
  159.3290  212.4510  157.2600 C   0  0  0  0  0  2  0  0  0  0  0  0
  161.3070  211.2850  156.2680 C   0  0  0  0  0  1  0  0  0  0  0  0
  159.4250  210.7960  153.6490 C   0  0  0  0  0  2  0  0  0  0  0  0
  158.0330  212.7380  156.5040 C   0  0  0  0  0  2  0  0  0  0  0  0
  158.7580  211.4230  152.4230 C   0  0  2  0  0  3  0  0  0  0  0  0
  158.4750  210.9040  154.8290 C   0  0  2  0  0  3  0  0  0  0  0  0
  157.6960  214.4520  154.3110 O   0  0  0  0  0  0  0  0  0  0  0  0
  158.0520  213.2700  154.0520 C   0  0  0  0  0  0  0  0  0  0  0  0
  159.9510  211.0880  156.9180 C   0  0  2  0  0  3  0  0  0  0  0  0
  158.1640  212.3090  155.1150 N   0  0  0  0  0  0  0  0  0  0  0  0
  159.0520  210.1850  156.0590 C   0  0  0  0  0  2  0  0  0  0  0  0
  156.0980  213.4800  151.9650 C   0  0  0  0  0  3  0  0  0  0  0  0
  156.9370  214.3550  149.4480 C   0  0  0  0  0  3  0  0  0  0  0  0
  155.1630  213.9590  151.0440 C   0  0  0  0  0  3  0  0  0  0  0  0
  155.5820  214.3980  149.7870 C   0  0  0  0  0  3  0  0  0  0  0  0
  157.8810  213.8720  150.3600 C   0  0  0  0  0  0  0  0  0  0  0  0
  157.4610  213.4310  151.6330 C   0  0  0  0  0  0  0  0  0  0  0  0
  159.3230  213.8500  149.9530 C   0  0  0  0  0  2  0  0  0  0  0  0
  159.5220  214.4520  148.5670 C   0  0  0  0  0  2  0  0  0  0  0  0
  160.1910  213.4650  147.6180 C   0  0  2  0  0  3  0  0  0  0  0  0
  161.5720  213.4900  147.8220 O   0  0  0  0  0  1  0  0  0  0  0  0
  159.8740  213.8200  146.1660 C   0  0  2  0  0  3  0  0  0  0  0  0
  158.5400  213.5150  145.8670 O   0  0  0  0  0  1  0  0  0  0  0  0
  160.0650  212.3270  144.1300 C   0  0  0  0  0  1  0  0  0  0  0  0
  161.7580  214.0970  144.5440 C   0  0  0  0  0  1  0  0  0  0  0  0
  160.8190  213.1030  145.1990 C   0  0  0  0  0  3  0  0  0  0  0  0
  162.1540  211.2010  151.0880 C   0  0  0  0  0  3  0  0  0  0  0  0
  159.5460  211.2270  151.1540 C   0  0  0  0  0  3  0  0  0  0  0  0
  160.8530  211.2160  151.1080 C   0  0  0  0  0  0  0  0  0  0  0  0
  162.8820  209.9400  151.4020 C   0  0  0  0  0  2  0  0  0  0  0  0
  161.9490  208.8240  151.4510 N   0  0  0  0  0  2  0  0  0  0  0  0
  161.7600  207.9150  150.3610 C   0  0  0  0  0  0  0  0  0  0  0  0
  160.7730  206.9220  150.4000 C   0  0  0  0  0  3  0  0  0  0  0  0
  161.4390  206.2000  148.1960 C   0  0  0  0  0  0  0  0  0  0  0  0
  160.6140  206.0560  149.3200 C   0  0  0  0  0  3  0  0  0  0  0  0
  162.3960  207.1680  148.1820 N   0  0  0  0  0  0  0  0  0  0  0  0
  162.5690  208.0200  149.2270 C   0  0  0  0  0  3  0  0  0  0  0  0
  161.3230  205.2690  147.0250 C   0  0  1  0  0  3  0  0  0  0  0  0
  162.1690  205.7780  145.8790 C   0  0  1  0  0  3  0  0  0  0  0  0
  161.8680  203.9600  147.3310 N   0  0  0  0  0  0  0  0  0  0  0  0
  163.1740  204.6640  145.5960 C   0  0  0  0  0  3  0  0  0  0  0  0
  162.9790  203.5850  146.5630 N   0  0  0  0  0  0  0  0  0  0  0  0
  159.3720  200.1790  151.2560 Cl  0  0  0  0  0  0  0  0  0  0  0  0
  161.4320  203.2500  149.6480 C   0  0  0  0  0  3  0  0  0  0  0  0
  160.8500  202.3680  150.5640 C   0  0  0  0  0  3  0  0  0  0  0  0
  160.5150  201.9540  147.8230 C   0  0  0  0  0  3  0  0  0  0  0  0
  160.1020  201.2800  150.1100 C   0  0  0  0  0  0  0  0  0  0  0  0
  159.9340  201.0720  148.7390 C   0  0  0  0  0  3  0  0  0  0  0  0
  161.2680  203.0500  148.2680 C   0  0  0  0  0  0  0  0  0  0  0  0
  159.9030  206.1480  144.8010 N   0  0  0  0  0  1  0  0  0  0  0  0
  161.3210  206.0900  144.6760 C   0  0  0  0  0  0  0  0  0  0  0  0
  161.8350  205.9800  143.4960 N   0  0  0  0  0  2  0  0  0  0  0  0
  1 18  1  6  0  0  0
  1  9  1  0  0  0  0
  5  2  1  0  0  0  0
  6 29  1  6  0  0  0
  6  1  1  0  0  0  0
  6  4  1  0  0  0  0
  7  4  1  6  0  0  0
  7 11  1  0  0  0  0
  7 12  1  0  0  0  0
  9  8  2  0  0  0  0
  9 11  1  0  0  0  0
 10  3  1  6  0  0  0
 10  2  1  0  0  0  0
 11  5  1  0  0  0  0
 12 10  1  0  0  0  0
 14 16  2  0  0  0  0
 14 17  1  0  0  0  0
 15 13  2  0  0  0  0
 16 15  1  0  0  0  0
 17 18  2  0  0  0  0
 18 13  1  0  0  0  0
 19 17  1  0  0  0  0
 20 19  1  0  0  0  0
 21 22  1  6  0  0  0
 21 20  1  0  0  0  0
 23 24  1  6  0  0  0
 23 21  1  0  0  0  0
 25 27  1  0  0  0  0
 26 27  1  0  0  0  0
 27 23  1  0  0  0  0
 28 30  2  0  0  0  0
 28 31  1  0  0  0  0
 30 29  2  0  0  0  0
 31 32  1  0  0  0  0
 33 34  1  0  0  0  0
 33 32  1  0  0  0  0
 35 36  1  0  0  0  0
 36 34  2  0  0  0  0
 37 35  2  0  0  0  0
 37 38  1  0  0  0  0
 38 33  2  0  0  0  0
 39 41  1  0  0  0  0
 39 35  1  1  0  0  0
 40 52  1  6  0  0  0
 40 39  1  0  0  0  0
 41 50  1  0  0  0  0
 42 40  1  0  0  0  0
 42 43  2  0  0  0  0
 43 41  1  0  0  0  0
 45 46  1  0  0  0  0
 47 50  1  0  0  0  0
 47 49  2  0  0  0  0
 48 46  2  0  0  0  0
 48 44  1  0  0  0  0
 49 48  1  0  0  0  0
 50 45  2  0  0  0  0
 52 51  1  0  0  0  0
 53 52  2  0  0  0  0
M  END
>  <MODEL>
2

>  <REMARK>
 VINA RESULT:      -6.4      4.529      9.879
  Name = 
  13 active torsions:
  status: ('A' for Active; 'I' for Inactive)
    1  A    between atoms: C_1  and  C_29
    2  A    between atoms: C_2  and  C_10
    3  A    between atoms: C_3  and  N_49
    4  A    between atoms: N_4  and  C_48
    5  A    between atoms: C_5  and  C_27
    6  A    between atoms: C_5  and  C_36
    7  A    between atoms: C_8  and  C_32
    8  A    between atoms: C_9  and  C_40
    9  A    between atoms: C_12  and  C_25
   10  A    between atoms: C_21  and  C_45
   11  A    between atoms: C_21  and  C_51
   12  A    between atoms: C_27  and  C_45
   13  A    between atoms: C_32  and  N_49
                            x       y       z     vdW  Elec       q    Type
                         _______ _______ _______ _____ _____    ______ ____

>  <TORSDO>
F 13

$$$$
=
 OpenBabel11072411503D

 53 58  0  0  1  0  0  0  0  0999 V2000
  159.8240  210.9730  139.2770 C   0  0  2  0  0  3  0  0  0  0  0  0
  161.9960  206.7990  138.8410 C   0  0  0  0  0  2  0  0  0  0  0  0
  161.6450  206.9130  141.3140 C   0  0  0  0  0  1  0  0  0  0  0  0
  161.5710  210.1510  140.9290 C   0  0  0  0  0  2  0  0  0  0  0  0
  161.9450  208.0080  137.9080 C   0  0  0  0  0  2  0  0  0  0  0  0
  160.7770  211.3580  140.4230 C   0  0  2  0  0  3  0  0  0  0  0  0
  162.4230  209.6170  139.7920 C   0  0  2  0  0  3  0  0  0  0  0  0
  159.7120  209.5980  137.3200 O   0  0  0  0  0  0  0  0  0  0  0  0
  160.3740  209.9150  138.3450 C   0  0  0  0  0  0  0  0  0  0  0  0
  162.6540  207.0950  140.1970 C   0  0  2  0  0  3  0  0  0  0  0  0
  161.5800  209.2010  138.6660 N   0  0  0  0  0  0  0  0  0  0  0  0
  163.3280  208.4740  140.2800 C   0  0  0  0  0  2  0  0  0  0  0  0
  160.2800  213.1840  138.1570 C   0  0  0  0  0  3  0  0  0  0  0  0
  157.5960  213.4650  137.4370 C   0  0  0  0  0  3  0  0  0  0  0  0
  159.8620  214.3120  137.4460 C   0  0  0  0  0  3  0  0  0  0  0  0
  158.5200  214.4520  137.0860 C   0  0  0  0  0  3  0  0  0  0  0  0
  158.0030  212.3350  138.1540 C   0  0  0  0  0  0  0  0  0  0  0  0
  159.3580  212.1880  138.5170 C   0  0  0  0  0  0  0  0  0  0  0  0
  156.9750  211.3020  138.5040 C   0  0  0  0  0  2  0  0  0  0  0  0
  155.9550  211.8430  139.4990 C   0  0  0  0  0  2  0  0  0  0  0  0
  154.5770  211.9880  138.8650 C   0  0  2  0  0  3  0  0  0  0  0  0
  153.6800  212.4830  139.8130 O   0  0  0  0  0  1  0  0  0  0  0  0
  154.0850  210.6390  138.3410 C   0  0  2  0  0  3  0  0  0  0  0  0
  152.8400  210.7810  137.7170 O   0  0  0  0  0  1  0  0  0  0  0  0
  152.5780  209.3270  139.8940 C   0  0  0  0  0  1  0  0  0  0  0  0
  154.6700  208.3050  139.0290 C   0  0  0  0  0  1  0  0  0  0  0  0
  154.0100  209.6000  139.4620 C   0  0  0  0  0  3  0  0  0  0  0  0
  161.0370  212.5770  143.8610 C   0  0  0  0  0  3  0  0  0  0  0  0
  160.0170  212.0680  141.5140 C   0  0  0  0  0  3  0  0  0  0  0  0
  160.5160  212.3240  142.6950 C   0  0  0  0  0  0  0  0  0  0  0  0
  161.8810  213.7900  144.0450 C   0  0  0  0  0  2  0  0  0  0  0  0
  162.1000  214.0360  145.4620 N   0  0  0  0  0  2  0  0  0  0  0  0
  161.9200  213.0320  146.4670 C   0  0  0  0  0  0  0  0  0  0  0  0
  162.8470  212.8600  147.5030 C   0  0  0  0  0  3  0  0  0  0  0  0
  161.4930  211.0740  148.3940 C   0  0  0  0  0  0  0  0  0  0  0  0
  162.6400  211.8760  148.4660 C   0  0  0  0  0  3  0  0  0  0  0  0
  160.6080  211.2530  147.3750 N   0  0  0  0  0  0  0  0  0  0  0  0
  160.7950  212.2070  146.4240 C   0  0  0  0  0  3  0  0  0  0  0  0
  161.2460  209.9810  149.3920 C   0  0  1  0  0  3  0  0  0  0  0  0
  162.2580  208.8730  149.2010 C   0  0  1  0  0  3  0  0  0  0  0  0
  161.4610  210.4450  150.7510 N   0  0  0  0  0  0  0  0  0  0  0  0
  163.0020  208.7760  150.5310 C   0  0  0  0  0  3  0  0  0  0  0  0
  162.5070  209.8110  151.4350 N   0  0  0  0  0  0  0  0  0  0  0  0
  157.9120  214.4410  153.4650 Cl  0  0  0  0  0  0  0  0  0  0  0  0
  159.9640  212.3980  150.6590 C   0  0  0  0  0  3  0  0  0  0  0  0
  159.1370  213.3310  151.2910 C   0  0  0  0  0  3  0  0  0  0  0  0
  160.4170  211.3560  152.7940 C   0  0  0  0  0  3  0  0  0  0  0  0
  158.9500  213.2760  152.6740 C   0  0  0  0  0  0  0  0  0  0  0  0
  159.5900  212.2890  153.4260 C   0  0  0  0  0  3  0  0  0  0  0  0
  160.6110  211.4010  151.4060 C   0  0  0  0  0  0  0  0  0  0  0  0
  161.7870  207.0070  147.5490 N   0  0  0  0  0  2  0  0  0  0  0  0
  161.5830  207.5790  148.8380 C   0  0  0  0  0  0  0  0  0  0  0  0
  160.5830  207.1680  149.5460 N   0  0  0  0  0  1  0  0  0  0  0  0
  1 18  1  6  0  0  0
  1  6  1  0  0  0  0
  2 10  1  0  0  0  0
  5 11  1  0  0  0  0
  5  2  1  0  0  0  0
  6  4  1  0  0  0  0
  6 29  1  1  0  0  0
  7 12  1  1  0  0  0
  7  4  1  0  0  0  0
  8  9  2  0  0  0  0
  9 11  1  0  0  0  0
  9  1  1  0  0  0  0
 10 12  1  0  0  0  0
 10  3  1  1  0  0  0
 11  7  1  0  0  0  0
 13 18  1  0  0  0  0
 14 17  1  0  0  0  0
 15 13  2  0  0  0  0
 16 14  2  0  0  0  0
 16 15  1  0  0  0  0
 17 19  1  0  0  0  0
 17 18  2  0  0  0  0
 19 20  1  0  0  0  0
 21 20  1  0  0  0  0
 21 22  1  1  0  0  0
 23 24  1  1  0  0  0
 23 21  1  0  0  0  0
 23 27  1  0  0  0  0
 26 27  1  0  0  0  0
 27 25  1  0  0  0  0
 28 31  1  0  0  0  0
 29 30  2  0  0  0  0
 30 28  2  0  0  0  0
 31 32  1  0  0  0  0
 32 33  1  0  0  0  0
 33 34  1  0  0  0  0
 34 36  2  0  0  0  0
 35 36  1  0  0  0  0
 37 35  2  0  0  0  0
 38 33  2  0  0  0  0
 38 37  1  0  0  0  0
 39 35  1  6  0  0  0
 39 41  1  0  0  0  0
 40 52  1  1  0  0  0
 40 39  1  0  0  0  0
 40 42  1  0  0  0  0
 41 50  1  0  0  0  0
 41 43  1  0  0  0  0
 42 43  2  0  0  0  0
 45 46  2  0  0  0  0
 45 50  1  0  0  0  0
 46 48  1  0  0  0  0
 47 49  1  0  0  0  0
 48 49  2  0  0  0  0
 48 44  1  0  0  0  0
 50 47  2  0  0  0  0
 51 52  2  0  0  0  0
 52 53  1  0  0  0  0
M  END
>  <MODEL>
3

>  <REMARK>
 VINA RESULT:      -6.3      4.764     11.846
  Name = 
  13 active torsions:
  status: ('A' for Active; 'I' for Inactive)
    1  A    between atoms: C_1  and  C_29
    2  A    between atoms: C_2  and  C_10
    3  A    between atoms: C_3  and  N_49
    4  A    between atoms: N_4  and  C_48
    5  A    between atoms: C_5  and  C_27
    6  A    between atoms: C_5  and  C_36
    7  A    between atoms: C_8  and  C_32
    8  A    between atoms: C_9  and  C_40
    9  A    between atoms: C_12  and  C_25
   10  A    between atoms: C_21  and  C_45
   11  A    between atoms: C_21  and  C_51
   12  A    between atoms: C_27  and  C_45
   13  A    between atoms: C_32  and  N_49
                            x       y       z     vdW  Elec       q    Type
                         _______ _______ _______ _____ _____    ______ ____

>  <TORSDO>
F 13

$$$$
=
 OpenBabel11072411503D

 53 58  0  0  1  0  0  0  0  0999 V2000
  158.1850  213.0900  152.5790 C   0  0  2  0  0  3  0  0  0  0  0  0
  157.8410  212.5450  157.2610 C   0  0  0  0  0  2  0  0  0  0  0  0
  160.1420  211.6640  156.8320 C   0  0  0  0  0  1  0  0  0  0  0  0
  159.1040  211.0600  153.7990 C   0  0  0  0  0  2  0  0  0  0  0  0
  156.7680  212.7050  156.1850 C   0  0  0  0  0  2  0  0  0  0  0  0
  158.7150  211.6510  152.4420 C   0  0  2  0  0  3  0  0  0  0  0  0
  157.8680  211.0060  154.6800 C   0  0  2  0  0  3  0  0  0  0  0  0
  156.8160  214.4530  153.9940 O   0  0  0  0  0  0  0  0  0  0  0  0
  157.3740  213.3340  153.8330 C   0  0  0  0  0  0  0  0  0  0  0  0
  158.6990  211.2810  157.0910 C   0  0  2  0  0  3  0  0  0  0  0  0
  157.3180  212.3510  154.8810 N   0  0  0  0  0  0  0  0  0  0  0  0
  158.1820  210.3120  156.0150 C   0  0  0  0  0  2  0  0  0  0  0  0
  156.0300  213.5480  151.3560 C   0  0  0  0  0  3  0  0  0  0  0  0
  157.4070  214.3120  149.0480 C   0  0  0  0  0  3  0  0  0  0  0  0
  155.3220  213.9510  150.2200 C   0  0  0  0  0  3  0  0  0  0  0  0
  156.0110  214.3340  149.0680 C   0  0  0  0  0  3  0  0  0  0  0  0
  158.1260  213.9040  150.1780 C   0  0  0  0  0  0  0  0  0  0  0  0
  157.4340  213.5200  151.3450 C   0  0  0  0  0  0  0  0  0  0  0  0
  159.6230  213.9020  150.1100 C   0  0  0  0  0  2  0  0  0  0  0  0
  160.1200  214.1950  148.7000 C   0  0  0  0  0  2  0  0  0  0  0  0
  160.9400  213.0380  148.1430 C   0  0  2  0  0  3  0  0  0  0  0  0
  162.1490  212.9510  148.8360 O   0  0  0  0  0  1  0  0  0  0  0  0
  161.2090  213.2420  146.6530 C   0  0  2  0  0  3  0  0  0  0  0  0
  162.2400  214.1700  146.4630 O   0  0  0  0  0  1  0  0  0  0  0  0
  160.1990  213.9240  144.4330 C   0  0  0  0  0  1  0  0  0  0  0  0
  158.8440  212.6550  146.0830 C   0  0  0  0  0  1  0  0  0  0  0  0
  159.9440  213.6840  145.9140 C   0  0  0  0  0  3  0  0  0  0  0  0
  162.1700  210.5670  151.9430 C   0  0  0  0  0  3  0  0  0  0  0  0
  159.8320  211.6030  151.4310 C   0  0  0  0  0  3  0  0  0  0  0  0
  161.0090  211.0900  151.6780 C   0  0  0  0  0  0  0  0  0  0  0  0
  162.3640  209.0960  151.8110 C   0  0  0  0  0  2  0  0  0  0  0  0
  161.1920  208.4910  151.1970 N   0  0  0  0  0  2  0  0  0  0  0  0
  161.2190  207.2130  150.5520 C   0  0  0  0  0  0  0  0  0  0  0  0
  160.8940  207.0700  149.1970 C   0  0  0  0  0  3  0  0  0  0  0  0
  161.3150  204.7010  149.3650 C   0  0  0  0  0  0  0  0  0  0  0  0
  160.9340  205.8120  148.6010 C   0  0  0  0  0  3  0  0  0  0  0  0
  161.6200  204.8610  150.6820 N   0  0  0  0  0  0  0  0  0  0  0  0
  161.5840  206.0800  151.2820 C   0  0  0  0  0  3  0  0  0  0  0  0
  161.3410  203.3230  148.7700 C   0  0  1  0  0  3  0  0  0  0  0  0
  160.6550  202.3490  149.7010 C   0  0  1  0  0  3  0  0  0  0  0  0
  160.5720  203.2610  147.5410 N   0  0  0  0  0  0  0  0  0  0  0  0
  159.4970  201.7680  148.8930 C   0  0  0  0  0  3  0  0  0  0  0  0
  159.4580  202.4110  147.5810 N   0  0  0  0  0  0  0  0  0  0  0  0
  162.1740  206.0280  142.4710 Cl  0  0  0  0  0  0  0  0  0  0  0  0
  160.0460  204.0530  145.2690 C   0  0  0  0  0  3  0  0  0  0  0  0
  160.4190  204.6980  144.0870 C   0  0  0  0  0  3  0  0  0  0  0  0
  162.2530  204.4500  146.1780 C   0  0  0  0  0  3  0  0  0  0  0  0
  161.7080  205.2180  143.9500 C   0  0  0  0  0  0  0  0  0  0  0  0
  162.6250  205.0950  144.9950 C   0  0  0  0  0  3  0  0  0  0  0  0
  160.9610  203.9240  146.3270 C   0  0  0  0  0  0  0  0  0  0  0  0
  161.8420  200.1340  149.3570 N   0  0  0  0  0  2  0  0  0  0  0  0
  161.6070  201.2820  150.1670 C   0  0  0  0  0  0  0  0  0  0  0  0
  161.9490  201.2410  151.4130 N   0  0  0  0  0  1  0  0  0  0  0  0
  1 18  1  6  0  0  0
  1  9  1  0  0  0  0
  5  2  1  0  0  0  0
  6 29  1  6  0  0  0
  6  1  1  0  0  0  0
  6  4  1  0  0  0  0
  7  4  1  6  0  0  0
  7 11  1  0  0  0  0
  7 12  1  0  0  0  0
  9  8  2  0  0  0  0
  9 11  1  0  0  0  0
 10  3  1  6  0  0  0
 10  2  1  0  0  0  0
 11  5  1  0  0  0  0
 12 10  1  0  0  0  0
 14 16  2  0  0  0  0
 14 17  1  0  0  0  0
 15 13  2  0  0  0  0
 16 15  1  0  0  0  0
 17 18  2  0  0  0  0
 18 13  1  0  0  0  0
 19 17  1  0  0  0  0
 20 19  1  0  0  0  0
 21 20  1  0  0  0  0
 21 22  1  1  0  0  0
 23 24  1  1  0  0  0
 23 21  1  0  0  0  0
 25 27  1  0  0  0  0
 27 26  1  0  0  0  0
 27 23  1  0  0  0  0
 29 30  2  0  0  0  0
 30 28  2  0  0  0  0
 31 28  1  0  0  0  0
 32 31  1  0  0  0  0
 33 32  1  0  0  0  0
 33 38  1  0  0  0  0
 34 33  2  0  0  0  0
 35 37  1  0  0  0  0
 36 34  1  0  0  0  0
 36 35  2  0  0  0  0
 37 38  2  0  0  0  0
 39 35  1  1  0  0  0
 39 40  1  0  0  0  0
 40 52  1  6  0  0  0
 41 43  1  0  0  0  0
 41 39  1  0  0  0  0
 42 40  1  0  0  0  0
 43 42  2  0  0  0  0
 44 48  1  0  0  0  0
 45 50  1  0  0  0  0
 46 45  2  0  0  0  0
 47 50  2  0  0  0  0
 48 46  1  0  0  0  0
 48 49  2  0  0  0  0
 49 47  1  0  0  0  0
 50 41  1  0  0  0  0
 51 52  2  0  0  0  0
 52 53  1  0  0  0  0
M  END
>  <MODEL>
4

>  <REMARK>
 VINA RESULT:      -5.7      4.838     10.075
  Name = 
  13 active torsions:
  status: ('A' for Active; 'I' for Inactive)
    1  A    between atoms: C_1  and  C_29
    2  A    between atoms: C_2  and  C_10
    3  A    between atoms: C_3  and  N_49
    4  A    between atoms: N_4  and  C_48
    5  A    between atoms: C_5  and  C_27
    6  A    between atoms: C_5  and  C_36
    7  A    between atoms: C_8  and  C_32
    8  A    between atoms: C_9  and  C_40
    9  A    between atoms: C_12  and  C_25
   10  A    between atoms: C_21  and  C_45
   11  A    between atoms: C_21  and  C_51
   12  A    between atoms: C_27  and  C_45
   13  A    between atoms: C_32  and  N_49
                            x       y       z     vdW  Elec       q    Type
                         _______ _______ _______ _____ _____    ______ ____

>  <TORSDO>
F 13

$$$$
