=
 OpenBabel11072411053D

 30 33  0  0  1  0  0  0  0  0999 V2000
  161.9040  208.8370  149.3610 C   0  0  0  0  0  0  0  0  0  0  0  0
  161.2610  207.7490  152.9220 C   0  0  0  0  0  0  0  0  0  0  0  0
  161.3710  210.2400  152.5650 C   0  0  0  0  0  2  0  0  0  0  0  0
  161.3530  209.1020  153.5750 C   0  0  0  0  0  2  0  0  0  0  0  0
  161.2450  205.1530  151.9550 C   0  0  0  0  0  3  0  0  0  0  0  0
  160.9270  206.6690  153.7410 C   0  0  0  0  0  3  0  0  0  0  0  0
  161.9730  208.7260  150.7190 C   0  0  0  0  0  0  0  0  0  0  0  0
  161.9330  205.8250  149.7000 C   0  0  0  0  0  2  0  0  0  0  0  0
  161.5970  207.5300  151.5580 C   0  0  0  0  0  0  0  0  0  0  0  0
  161.6010  206.1930  151.0930 C   0  0  0  0  0  0  0  0  0  0  0  0
  160.9170  205.4070  153.2450 N   0  0  0  0  0  0  0  0  0  0  0  0
  161.4370  207.8160  148.4670 N   0  0  0  0  0  2  0  0  0  0  0  0
  162.4050  209.9410  151.4960 C   0  0  0  0  0  2  0  0  0  0  0  0
  160.9300  206.5050  148.8100 C   0  0  1  0  0  3  0  0  0  0  0  0
  160.7430  205.7290  147.5950 N   0  0  0  0  0  2  0  0  0  0  0  0
  161.8350  204.7670  147.5170 C   0  0  1  0  0  3  0  0  0  0  0  0
  161.3030  203.3660  147.4350 C   0  0  0  0  0  0  0  0  0  0  0  0
  160.9150  202.6540  148.6850 C   0  0  0  0  0  1  0  0  0  0  0  0
  161.1820  202.8070  146.3570 O   0  0  0  0  0  0  0  0  0  0  0  0
  162.2740  205.9280  145.3550 O   0  0  0  0  0  0  0  0  0  0  0  0
  162.7240  205.0760  146.3560 C   0  0  0  0  0  0  0  0  0  0  0  0
  163.8840  204.5910  146.2870 O   0  0  0  0  0  1  0  0  0  0  0  0
  162.3490  210.1020  148.6920 C   0  0  0  0  0  2  0  0  0  0  0  0
  161.1880  210.8410  148.2280 N   0  0  0  0  0  2  0  0  0  0  0  0
  162.0490  212.5970  146.9530 O   0  0  0  0  0  0  0  0  0  0  0  0
  160.7560  213.0640  147.2610 C   0  0  2  0  0  3  0  0  0  0  0  0
  161.5590  212.2490  148.2250 C   0  0  1  0  0  3  0  0  0  0  0  0
  160.0240  212.4780  145.1140 C   0  0  0  0  0  1  0  0  0  0  0  0
  158.4690  212.8860  146.7930 C   0  0  0  0  0  1  0  0  0  0  0  0
  159.7630  212.2820  146.5290 N   0  0  0  0  0  0  0  0  0  0  0  0
  1  7  2  0  0  0  0
  2  4  1  0  0  0  0
  2  6  1  0  0  0  0
  3  4  1  0  0  0  0
  5 11  1  0  0  0  0
  7 13  1  0  0  0  0
  7  9  1  0  0  0  0
  8 10  1  0  0  0  0
  9  2  2  0  0  0  0
 10  9  1  0  0  0  0
 10  5  2  0  0  0  0
 11  6  2  0  0  0  0
 12 14  1  0  0  0  0
 12  1  1  0  0  0  0
 13  3  1  0  0  0  0
 14 15  1  6  0  0  0
 14  8  1  0  0  0  0
 16 21  1  6  0  0  0
 16 15  1  0  0  0  0
 17 16  1  0  0  0  0
 17 18  1  0  0  0  0
 19 17  2  0  0  0  0
 20 21  2  0  0  0  0
 22 21  1  0  0  0  0
 23  1  1  0  0  0  0
 24 23  1  0  0  0  0
 25 26  1  0  0  0  0
 25 27  1  0  0  0  0
 26 30  1  6  0  0  0
 26 27  1  0  0  0  0
 27 24  1  6  0  0  0
 28 30  1  0  0  0  0
 30 29  1  0  0  0  0
M  END
>  <MODEL>
1

>  <REMARK>
 VINA RESULT:      -7.2      0.000      0.000
  Name = 
  8 active torsions:
  status: ('A' for Active; 'I' for Inactive)
    1  A    between atoms: C_1  and  C_8
    2  A    between atoms: N_2  and  CA_4
    3  A    between atoms: N_2  and  C_30
    4  A    between atoms: CA_4  and  CB_7
    5  A    between atoms: CA_4  and  C_22
    6  A    between atoms: C_8  and  N_29
    7  A    between atoms: N_20  and  C_23
    8  A    between atoms: C_26  and  N_29
                            x       y       z     vdW  Elec       q    Type
                         _______ _______ _______ _____ _____    ______ ____

>  <TORSDO>
F 8

$$$$
=
 OpenBabel11072411053D

 30 33  0  0  1  0  0  0  0  0999 V2000
  162.1380  207.5860  149.0450 C   0  0  0  0  0  0  0  0  0  0  0  0
  161.3510  203.9780  148.2420 C   0  0  0  0  0  0  0  0  0  0  0  0
  162.3750  205.2980  146.3570 C   0  0  0  0  0  2  0  0  0  0  0  0
  161.6660  204.0170  146.7710 C   0  0  0  0  0  2  0  0  0  0  0  0
  160.5370  203.7390  150.8790 C   0  0  0  0  0  3  0  0  0  0  0  0
  160.9910  202.7430  148.7840 C   0  0  0  0  0  3  0  0  0  0  0  0
  161.6890  206.4620  148.4150 C   0  0  0  0  0  0  0  0  0  0  0  0
  160.7820  206.1350  151.3350 C   0  0  0  0  0  2  0  0  0  0  0  0
  161.3120  205.1470  149.0500 C   0  0  0  0  0  0  0  0  0  0  0  0
  160.8730  205.0020  150.3880 C   0  0  0  0  0  0  0  0  0  0  0  0
  160.6030  202.6470  150.0790 N   0  0  0  0  0  0  0  0  0  0  0  0
  162.3510  207.7170  150.4580 N   0  0  0  0  0  2  0  0  0  0  0  0
  161.6170  206.4890  146.9120 C   0  0  0  0  0  2  0  0  0  0  0  0
  162.1650  206.7060  151.4770 C   0  0  1  0  0  3  0  0  0  0  0  0
  162.3150  207.3140  152.7890 N   0  0  0  0  0  2  0  0  0  0  0  0
  161.0500  207.9570  153.1210 C   0  0  1  0  0  3  0  0  0  0  0  0
  160.7280  207.7750  154.5750 C   0  0  0  0  0  0  0  0  0  0  0  0
  161.1250  208.8280  155.5520 C   0  0  0  0  0  1  0  0  0  0  0  0
  160.1420  206.7780  154.9650 O   0  0  0  0  0  0  0  0  0  0  0  0
  162.2990  210.0810  152.7440 O   0  0  0  0  0  1  0  0  0  0  0  0
  161.0860  209.4050  152.7530 C   0  0  0  0  0  0  0  0  0  0  0  0
  160.0320  210.0120  152.4270 O   0  0  0  0  0  0  0  0  0  0  0  0
  162.4400  208.8180  148.2480 C   0  0  0  0  0  2  0  0  0  0  0  0
  161.4940  209.8640  148.5930 N   0  0  0  0  0  2  0  0  0  0  0  0
  162.9840  211.5970  148.1140 O   0  0  0  0  0  0  0  0  0  0  0  0
  161.8640  212.2990  148.6030 C   0  0  2  0  0  3  0  0  0  0  0  0
  162.2690  210.9650  149.1480 C   0  0  1  0  0  3  0  0  0  0  0  0
  161.2740  212.7630  146.3830 C   0  0  0  0  0  1  0  0  0  0  0  0
  159.7380  213.1330  148.0880 C   0  0  0  0  0  1  0  0  0  0  0  0
  160.7740  212.2210  147.6340 N   0  0  0  0  0  0  0  0  0  0  0  0
  1 12  1  0  0  0  0
  2  6  2  0  0  0  0
  2  9  1  0  0  0  0
  3  4  1  0  0  0  0
  3 13  1  0  0  0  0
  4  2  1  0  0  0  0
  6 11  1  0  0  0  0
  7  1  2  0  0  0  0
  7  9  1  0  0  0  0
  8 14  1  0  0  0  0
  9 10  2  0  0  0  0
 10  5  1  0  0  0  0
 10  8  1  0  0  0  0
 11  5  2  0  0  0  0
 12 14  1  0  0  0  0
 13  7  1  0  0  0  0
 14 15  1  1  0  0  0
 15 16  1  0  0  0  0
 16 21  1  1  0  0  0
 16 17  1  0  0  0  0
 17 19  2  0  0  0  0
 17 18  1  0  0  0  0
 20 21  1  0  0  0  0
 22 21  2  0  0  0  0
 23 24  1  0  0  0  0
 23  1  1  0  0  0  0
 25 26  1  0  0  0  0
 25 27  1  0  0  0  0
 26 30  1  6  0  0  0
 26 27  1  0  0  0  0
 27 24  1  6  0  0  0
 28 30  1  0  0  0  0
 30 29  1  0  0  0  0
M  END
>  <MODEL>
2

>  <REMARK>
 VINA RESULT:      -7.2      2.817      5.387
  Name = 
  8 active torsions:
  status: ('A' for Active; 'I' for Inactive)
    1  A    between atoms: C_1  and  C_8
    2  A    between atoms: N_2  and  CA_4
    3  A    between atoms: N_2  and  C_30
    4  A    between atoms: CA_4  and  CB_7
    5  A    between atoms: CA_4  and  C_22
    6  A    between atoms: C_8  and  N_29
    7  A    between atoms: N_20  and  C_23
    8  A    between atoms: C_26  and  N_29
                            x       y       z     vdW  Elec       q    Type
                         _______ _______ _______ _____ _____    ______ ____

>  <TORSDO>
F 8

$$$$
=
 OpenBabel11072411053D

 30 33  0  0  1  0  0  0  0  0999 V2000
  161.9010  209.8500  150.2600 C   0  0  0  0  0  0  0  0  0  0  0  0
  160.8610  208.0530  153.4180 C   0  0  0  0  0  0  0  0  0  0  0  0
  160.1280  210.4580  153.2600 C   0  0  0  0  0  2  0  0  0  0  0  0
  160.2850  209.2350  154.1510 C   0  0  0  0  0  2  0  0  0  0  0  0
  162.0390  205.7960  152.3280 C   0  0  0  0  0  3  0  0  0  0  0  0
  160.7610  206.8080  154.0390 C   0  0  0  0  0  3  0  0  0  0  0  0
  161.6740  209.5520  151.5720 C   0  0  0  0  0  0  0  0  0  0  0  0
  162.9560  207.0120  150.4070 C   0  0  0  0  0  2  0  0  0  0  0  0
  161.5740  208.1820  152.1950 C   0  0  0  0  0  0  0  0  0  0  0  0
  162.1840  207.0190  151.6690 C   0  0  0  0  0  0  0  0  0  0  0  0
  161.3370  205.7140  153.4850 N   0  0  0  0  0  0  0  0  0  0  0  0
  162.0760  208.8880  149.2090 N   0  0  0  0  0  2  0  0  0  0  0  0
  161.4250  210.7010  152.5130 C   0  0  0  0  0  2  0  0  0  0  0  0
  162.0220  207.4460  149.3130 C   0  0  1  0  0  3  0  0  0  0  0  0
  162.4360  206.8570  148.0490 N   0  0  0  0  0  2  0  0  0  0  0  0
  161.3090  206.0920  147.5330 C   0  0  1  0  0  3  0  0  0  0  0  0
  161.3800  205.9860  146.0380 C   0  0  0  0  0  0  0  0  0  0  0  0
  160.1210  205.9920  145.2410 C   0  0  0  0  0  1  0  0  0  0  0  0
  162.4560  205.8990  145.4690 O   0  0  0  0  0  0  0  0  0  0  0  0
  161.9610  203.6860  147.5960 O   0  0  0  0  0  0  0  0  0  0  0  0
  161.2590  204.7390  148.1680 C   0  0  0  0  0  0  0  0  0  0  0  0
  160.6080  204.5510  149.2300 O   0  0  0  0  0  1  0  0  0  0  0  0
  161.9970  211.2800  149.8250 C   0  0  0  0  0  2  0  0  0  0  0  0
  161.9190  211.3540  148.3760 N   0  0  0  0  0  2  0  0  0  0  0  0
  162.3220  212.8320  146.6150 O   0  0  0  0  0  0  0  0  0  0  0  0
  161.1100  213.3230  147.1390 C   0  0  2  0  0  3  0  0  0  0  0  0
  162.1770  212.7400  148.0110 C   0  0  1  0  0  3  0  0  0  0  0  0
  159.9260  212.3020  145.3950 C   0  0  0  0  0  1  0  0  0  0  0  0
  158.7980  213.0020  147.3030 C   0  0  0  0  0  1  0  0  0  0  0  0
  160.0300  212.3880  146.8410 N   0  0  0  0  0  0  0  0  0  0  0  0
  1  7  2  0  0  0  0
  2  6  1  0  0  0  0
  2  4  1  0  0  0  0
  3  4  1  0  0  0  0
  5 11  1  0  0  0  0
  7  9  1  0  0  0  0
  7 13  1  0  0  0  0
  8 10  1  0  0  0  0
  9  2  2  0  0  0  0
 10  9  1  0  0  0  0
 10  5  2  0  0  0  0
 11  6  2  0  0  0  0
 12 14  1  0  0  0  0
 12  1  1  0  0  0  0
 13  3  1  0  0  0  0
 14 15  1  6  0  0  0
 14  8  1  0  0  0  0
 16 17  1  6  0  0  0
 16 15  1  0  0  0  0
 16 21  1  0  0  0  0
 18 17  1  0  0  0  0
 19 17  2  0  0  0  0
 20 21  2  0  0  0  0
 21 22  1  0  0  0  0
 23  1  1  0  0  0  0
 24 23  1  0  0  0  0
 25 26  1  0  0  0  0
 25 27  1  0  0  0  0
 26 30  1  6  0  0  0
 26 27  1  0  0  0  0
 27 24  1  6  0  0  0
 28 30  1  0  0  0  0
 30 29  1  0  0  0  0
M  END
>  <MODEL>
3

>  <REMARK>
 VINA RESULT:      -7.2      1.328      1.936
  Name = 
  8 active torsions:
  status: ('A' for Active; 'I' for Inactive)
    1  A    between atoms: C_1  and  C_8
    2  A    between atoms: N_2  and  CA_4
    3  A    between atoms: N_2  and  C_30
    4  A    between atoms: CA_4  and  CB_7
    5  A    between atoms: CA_4  and  C_22
    6  A    between atoms: C_8  and  N_29
    7  A    between atoms: N_20  and  C_23
    8  A    between atoms: C_26  and  N_29
                            x       y       z     vdW  Elec       q    Type
                         _______ _______ _______ _____ _____    ______ ____

>  <TORSDO>
F 8

$$$$
=
 OpenBabel11072411053D

 30 33  0  0  1  0  0  0  0  0999 V2000
  161.8320  208.9450  149.6480 C   0  0  0  0  0  0  0  0  0  0  0  0
  161.3720  205.2030  149.9130 C   0  0  0  0  0  0  0  0  0  0  0  0
  162.1010  206.0370  147.6510 C   0  0  0  0  0  2  0  0  0  0  0  0
  161.5660  204.8650  148.4600 C   0  0  0  0  0  2  0  0  0  0  0  0
  160.7920  205.6280  152.5890 C   0  0  0  0  0  3  0  0  0  0  0  0
  161.1860  204.1390  150.7960 C   0  0  0  0  0  3  0  0  0  0  0  0
  161.4570  207.6600  149.3870 C   0  0  0  0  0  0  0  0  0  0  0  0
  160.8170  208.0690  152.3670 C   0  0  0  0  0  2  0  0  0  0  0  0
  161.2700  206.5420  150.3830 C   0  0  0  0  0  0  0  0  0  0  0  0
  160.9530  206.7330  151.7490 C   0  0  0  0  0  0  0  0  0  0  0  0
  160.9120  204.3680  152.1030 N   0  0  0  0  0  0  0  0  0  0  0  0
  162.1370  209.4740  150.9470 N   0  0  0  0  0  2  0  0  0  0  0  0
  161.2660  207.2690  147.9460 C   0  0  0  0  0  2  0  0  0  0  0  0
  162.1380  208.7680  152.2100 C   0  0  1  0  0  3  0  0  0  0  0  0
  162.3230  209.7210  153.2920 N   0  0  0  0  0  2  0  0  0  0  0  0
  161.0690  209.7950  154.0300 C   0  0  1  0  0  3  0  0  0  0  0  0
  161.2640  209.3610  155.4530 C   0  0  0  0  0  0  0  0  0  0  0  0
  160.2990  208.4070  156.0690 C   0  0  0  0  0  1  0  0  0  0  0  0
  162.2040  209.7780  156.1090 O   0  0  0  0  0  0  0  0  0  0  0  0
  160.0270  211.7830  155.1150 O   0  0  0  0  0  1  0  0  0  0  0  0
  160.5000  211.1750  153.9590 C   0  0  0  0  0  0  0  0  0  0  0  0
  160.4670  211.8020  152.8670 O   0  0  0  0  0  0  0  0  0  0  0  0
  161.9390  209.9330  148.5270 C   0  0  0  0  0  2  0  0  0  0  0  0
  162.2100  211.2540  149.0660 N   0  0  0  0  0  2  0  0  0  0  0  0
  161.1530  212.1140  147.1710 O   0  0  0  0  0  0  0  0  0  0  0  0
  161.3400  213.2710  147.9540 C   0  0  2  0  0  3  0  0  0  0  0  0
  162.3370  212.1550  147.9300 C   0  0  1  0  0  3  0  0  0  0  0  0
  159.0930  213.3160  148.6120 C   0  0  0  0  0  1  0  0  0  0  0  0
  160.6870  214.4460  149.8700 C   0  0  0  0  0  1  0  0  0  0  0  0
  160.4530  213.2290  149.1120 N   0  0  0  0  0  0  0  0  0  0  0  0
  1 12  1  0  0  0  0
  2  9  2  0  0  0  0
  2  6  1  0  0  0  0
  3 13  1  0  0  0  0
  3  4  1  0  0  0  0
  4  2  1  0  0  0  0
  6 11  2  0  0  0  0
  7  1  2  0  0  0  0
  7  9  1  0  0  0  0
  9 10  1  0  0  0  0
 10  8  1  0  0  0  0
 10  5  2  0  0  0  0
 11  5  1  0  0  0  0
 12 14  1  0  0  0  0
 13  7  1  0  0  0  0
 14  8  1  0  0  0  0
 14 15  1  1  0  0  0
 16 15  1  6  0  0  0
 16 17  1  0  0  0  0
 17 18  1  0  0  0  0
 17 19  2  0  0  0  0
 21 16  1  0  0  0  0
 21 20  1  0  0  0  0
 22 21  2  0  0  0  0
 23 24  1  0  0  0  0
 23  1  1  0  0  0  0
 25 27  1  0  0  0  0
 25 26  1  0  0  0  0
 26 30  1  1  0  0  0
 27 26  1  0  0  0  0
 27 24  1  1  0  0  0
 28 30  1  0  0  0  0
 30 29  1  0  0  0  0
M  END
>  <MODEL>
4

>  <REMARK>
 VINA RESULT:      -6.4      3.096      5.849
  Name = 
  8 active torsions:
  status: ('A' for Active; 'I' for Inactive)
    1  A    between atoms: C_1  and  C_8
    2  A    between atoms: N_2  and  CA_4
    3  A    between atoms: N_2  and  C_30
    4  A    between atoms: CA_4  and  CB_7
    5  A    between atoms: CA_4  and  C_22
    6  A    between atoms: C_8  and  N_29
    7  A    between atoms: N_20  and  C_23
    8  A    between atoms: C_26  and  N_29
                            x       y       z     vdW  Elec       q    Type
                         _______ _______ _______ _____ _____    ______ ____

>  <TORSDO>
F 8

$$$$
=
 OpenBabel11072411053D

 30 33  0  0  1  0  0  0  0  0999 V2000
  162.0460  209.0070  151.1980 C   0  0  0  0  0  0  0  0  0  0  0  0
  161.1970  205.4740  150.1590 C   0  0  0  0  0  0  0  0  0  0  0  0
  160.8970  205.9730  152.6100 C   0  0  0  0  0  2  0  0  0  0  0  0
  160.9650  204.9010  151.5320 C   0  0  0  0  0  2  0  0  0  0  0  0
  161.7630  206.2730  147.5680 C   0  0  0  0  0  3  0  0  0  0  0  0
  160.9690  204.6300  149.0710 C   0  0  0  0  0  3  0  0  0  0  0  0
  161.9740  207.6450  151.1580 C   0  0  0  0  0  0  0  0  0  0  0  0
  162.5780  208.4790  148.2610 C   0  0  0  0  0  2  0  0  0  0  0  0
  161.7240  206.7770  149.9500 C   0  0  0  0  0  0  0  0  0  0  0  0
  162.0240  207.1550  148.6190 C   0  0  0  0  0  0  0  0  0  0  0  0
  161.2450  205.0440  147.8100 N   0  0  0  0  0  0  0  0  0  0  0  0
  161.8790  209.8800  150.0720 N   0  0  0  0  0  2  0  0  0  0  0  0
  162.0860  206.9040  152.4640 C   0  0  0  0  0  2  0  0  0  0  0  0
  161.5810  209.5120  148.7040 C   0  0  1  0  0  3  0  0  0  0  0  0
  161.6810  210.6890  147.8570 N   0  0  0  0  0  2  0  0  0  0  0  0
  161.9560  211.8290  148.7220 C   0  0  1  0  0  3  0  0  0  0  0  0
  163.0490  212.6810  148.1460 C   0  0  0  0  0  0  0  0  0  0  0  0
  162.7960  214.1270  147.8940 C   0  0  0  0  0  1  0  0  0  0  0  0
  164.1410  212.2020  147.8860 O   0  0  0  0  0  0  0  0  0  0  0  0
  160.4520  213.1490  150.2080 O   0  0  0  0  0  1  0  0  0  0  0  0
  160.7120  212.6260  148.9480 C   0  0  0  0  0  0  0  0  0  0  0  0
  159.9110  212.8500  148.0030 O   0  0  0  0  0  0  0  0  0  0  0  0
  162.3310  209.7010  152.4950 C   0  0  0  0  0  2  0  0  0  0  0  0
  161.3070  210.6990  152.7480 N   0  0  0  0  0  2  0  0  0  0  0  0
  160.6530  209.2930  154.4940 O   0  0  0  0  0  0  0  0  0  0  0  0
  159.9220  210.4660  154.7710 C   0  0  2  0  0  3  0  0  0  0  0  0
  160.1890  210.0050  153.3720 C   0  0  1  0  0  3  0  0  0  0  0  0
  161.6040  210.9760  156.3190 C   0  0  0  0  0  1  0  0  0  0  0  0
  160.0100  212.5780  155.7760 C   0  0  0  0  0  1  0  0  0  0  0  0
  160.8310  211.5180  155.2160 N   0  0  0  0  0  0  0  0  0  0  0  0
  1 23  1  0  0  0  0
  2  4  1  0  0  0  0
  4  3  1  0  0  0  0
  5 11  2  0  0  0  0
  5 10  1  0  0  0  0
  6  2  2  0  0  0  0
  7  1  2  0  0  0  0
  7 13  1  0  0  0  0
  8 10  1  0  0  0  0
  8 14  1  0  0  0  0
  9  2  1  0  0  0  0
  9  7  1  0  0  0  0
 10  9  2  0  0  0  0
 11  6  1  0  0  0  0
 12  1  1  0  0  0  0
 13  3  1  0  0  0  0
 14 15  1  6  0  0  0
 14 12  1  0  0  0  0
 16 15  1  6  0  0  0
 16 21  1  0  0  0  0
 17 16  1  0  0  0  0
 18 17  1  0  0  0  0
 19 17  2  0  0  0  0
 21 20  1  0  0  0  0
 22 21  2  0  0  0  0
 23 24  1  0  0  0  0
 25 26  1  0  0  0  0
 26 30  1  6  0  0  0
 27 24  1  6  0  0  0
 27 25  1  0  0  0  0
 27 26  1  0  0  0  0
 30 29  1  0  0  0  0
 30 28  1  0  0  0  0
M  END
>  <MODEL>
5

>  <REMARK>
 VINA RESULT:      -5.8      3.251      6.608
  Name = 
  8 active torsions:
  status: ('A' for Active; 'I' for Inactive)
    1  A    between atoms: C_1  and  C_8
    2  A    between atoms: N_2  and  CA_4
    3  A    between atoms: N_2  and  C_30
    4  A    between atoms: CA_4  and  CB_7
    5  A    between atoms: CA_4  and  C_22
    6  A    between atoms: C_8  and  N_29
    7  A    between atoms: N_20  and  C_23
    8  A    between atoms: C_26  and  N_29
                            x       y       z     vdW  Elec       q    Type
                         _______ _______ _______ _____ _____    ______ ____

>  <TORSDO>
F 8

$$$$
=
 OpenBabel11072411053D

 30 33  0  0  1  0  0  0  0  0999 V2000
  161.2550  207.5920  149.5380 C   0  0  0  0  0  0  0  0  0  0  0  0
  161.2510  206.2420  153.0680 C   0  0  0  0  0  0  0  0  0  0  0  0
  161.4480  204.5040  151.2550 C   0  0  0  0  0  2  0  0  0  0  0  0
  161.2010  204.7760  152.7320 C   0  0  0  0  0  2  0  0  0  0  0  0
  161.1470  208.8820  153.9040 C   0  0  0  0  0  3  0  0  0  0  0  0
  161.3490  206.5830  154.4180 C   0  0  0  0  0  3  0  0  0  0  0  0
  160.9750  206.8430  150.6430 C   0  0  0  0  0  0  0  0  0  0  0  0
  160.8710  209.7530  151.6290 C   0  0  0  0  0  2  0  0  0  0  0  0
  161.1000  207.2600  152.0880 C   0  0  0  0  0  0  0  0  0  0  0  0
  161.0290  208.5990  152.5410 C   0  0  0  0  0  0  0  0  0  0  0  0
  161.3050  207.8820  154.8050 N   0  0  0  0  0  0  0  0  0  0  0  0
  161.7430  208.9420  149.5530 N   0  0  0  0  0  2  0  0  0  0  0  0
  160.5580  205.4120  150.4270 C   0  0  0  0  0  2  0  0  0  0  0  0
  162.0580  209.7560  150.7070 C   0  0  1  0  0  3  0  0  0  0  0  0
  162.3430  211.1140  150.2740 N   0  0  0  0  0  2  0  0  0  0  0  0
  161.2140  211.5630  149.4700 C   0  0  1  0  0  3  0  0  0  0  0  0
  160.6270  212.8220  150.0360 C   0  0  0  0  0  0  0  0  0  0  0  0
  161.0120  214.1380  149.4530 C   0  0  0  0  0  1  0  0  0  0  0  0
  159.8360  212.7790  150.9650 O   0  0  0  0  0  0  0  0  0  0  0  0
  160.6590  211.8220  147.0530 O   0  0  0  0  0  0  0  0  0  0  0  0
  161.6270  211.7530  148.0460 C   0  0  0  0  0  0  0  0  0  0  0  0
  162.8430  211.8740  147.7400 O   0  0  0  0  0  1  0  0  0  0  0  0
  161.0440  207.0150  148.1720 C   0  0  0  0  0  2  0  0  0  0  0  0
  162.3300  206.7710  147.5430 N   0  0  0  0  0  2  0  0  0  0  0  0
  161.2050  204.7450  147.2630 O   0  0  0  0  0  0  0  0  0  0  0  0
  162.0090  204.7970  146.1080 C   0  0  2  0  0  3  0  0  0  0  0  0
  162.4750  205.3270  147.4270 C   0  0  1  0  0  3  0  0  0  0  0  0
  160.0620  205.7720  145.2430 C   0  0  0  0  0  1  0  0  0  0  0  0
  161.9060  205.4540  143.8640 C   0  0  0  0  0  1  0  0  0  0  0  0
  161.5130  205.8350  145.2090 N   0  0  0  0  0  0  0  0  0  0  0  0
  1 12  1  0  0  0  0
  1  7  2  0  0  0  0
  2  6  1  0  0  0  0
  3  4  1  0  0  0  0
  4  2  1  0  0  0  0
  5 11  1  0  0  0  0
  6 11  2  0  0  0  0
  7  9  1  0  0  0  0
  8 10  1  0  0  0  0
  9 10  1  0  0  0  0
  9  2  2  0  0  0  0
 10  5  2  0  0  0  0
 12 14  1  0  0  0  0
 13  7  1  0  0  0  0
 13  3  1  0  0  0  0
 14 15  1  6  0  0  0
 14  8  1  0  0  0  0
 16 21  1  6  0  0  0
 16 17  1  0  0  0  0
 16 15  1  0  0  0  0
 17 19  2  0  0  0  0
 18 17  1  0  0  0  0
 20 21  2  0  0  0  0
 22 21  1  0  0  0  0
 23  1  1  0  0  0  0
 24 23  1  0  0  0  0
 25 27  1  0  0  0  0
 26 30  1  6  0  0  0
 26 25  1  0  0  0  0
 26 27  1  0  0  0  0
 27 24  1  6  0  0  0
 29 30  1  0  0  0  0
 30 28  1  0  0  0  0
M  END
>  <MODEL>
6

>  <REMARK>
 VINA RESULT:      -5.7      2.028      6.132
  Name = 
  8 active torsions:
  status: ('A' for Active; 'I' for Inactive)
    1  A    between atoms: C_1  and  C_8
    2  A    between atoms: N_2  and  CA_4
    3  A    between atoms: N_2  and  C_30
    4  A    between atoms: CA_4  and  CB_7
    5  A    between atoms: CA_4  and  C_22
    6  A    between atoms: C_8  and  N_29
    7  A    between atoms: N_20  and  C_23
    8  A    between atoms: C_26  and  N_29
                            x       y       z     vdW  Elec       q    Type
                         _______ _______ _______ _____ _____    ______ ____

>  <TORSDO>
F 8

$$$$
=
 OpenBabel11072411053D

 30 33  0  0  1  0  0  0  0  0999 V2000
  161.0330  205.2610  150.0740 C   0  0  0  0  0  0  0  0  0  0  0  0
  161.7660  208.2800  152.2250 C   0  0  0  0  0  0  0  0  0  0  0  0
  161.4680  206.1160  153.4800 C   0  0  0  0  0  2  0  0  0  0  0  0
  161.5740  207.6310  153.5700 C   0  0  0  0  0  2  0  0  0  0  0  0
  161.9730  209.7110  149.8620 C   0  0  0  0  0  3  0  0  0  0  0  0
  162.1820  209.6120  152.2150 C   0  0  0  0  0  3  0  0  0  0  0  0
  160.9760  206.1940  151.0680 C   0  0  0  0  0  0  0  0  0  0  0  0
  161.2310  207.8300  148.4770 C   0  0  0  0  0  2  0  0  0  0  0  0
  161.4430  207.6270  151.0050 C   0  0  0  0  0  0  0  0  0  0  0  0
  161.5380  208.3850  149.8130 C   0  0  0  0  0  0  0  0  0  0  0  0
  162.2850  210.2920  151.0460 N   0  0  0  0  0  0  0  0  0  0  0  0
  161.5720  205.4770  148.7620 N   0  0  0  0  0  2  0  0  0  0  0  0
  160.4560  205.7510  152.4100 C   0  0  0  0  0  2  0  0  0  0  0  0
  162.1770  206.6860  148.2430 C   0  0  1  0  0  3  0  0  0  0  0  0
  162.4180  206.5290  146.8180 N   0  0  0  0  0  2  0  0  0  0  0  0
  161.6010  205.4140  146.3560 C   0  0  1  0  0  3  0  0  0  0  0  0
  160.6990  205.8440  145.2380 C   0  0  0  0  0  0  0  0  0  0  0  0
  161.2060  205.8280  143.8370 C   0  0  0  0  0  1  0  0  0  0  0  0
  159.5540  206.2030  145.4630 O   0  0  0  0  0  0  0  0  0  0  0  0
  163.8460  204.3690  146.0650 O   0  0  0  0  0  1  0  0  0  0  0  0
  162.4670  204.2680  145.9410 C   0  0  0  0  0  0  0  0  0  0  0  0
  161.9560  203.2030  145.5020 O   0  0  0  0  0  0  0  0  0  0  0  0
  160.4920  203.8840  150.3120 C   0  0  0  0  0  2  0  0  0  0  0  0
  161.4640  202.8980  149.8740 N   0  0  0  0  0  2  0  0  0  0  0  0
  159.7500  201.3160  149.7720 O   0  0  0  0  0  0  0  0  0  0  0  0
  160.8470  200.5940  149.2630 C   0  0  2  0  0  3  0  0  0  0  0  0
  160.9970  201.6050  150.3550 C   0  0  1  0  0  3  0  0  0  0  0  0
  159.9950  201.6500  147.3530 C   0  0  0  0  0  1  0  0  0  0  0  0
  161.5810  199.9660  147.1300 C   0  0  0  0  0  1  0  0  0  0  0  0
  161.2060  201.1090  147.9440 N   0  0  0  0  0  0  0  0  0  0  0  0
  1 23  1  0  0  0  0
  1  7  2  0  0  0  0
  2  4  1  0  0  0  0
  3  4  1  0  0  0  0
  5 11  1  0  0  0  0
  6  2  1  0  0  0  0
  7 13  1  0  0  0  0
  8 10  1  0  0  0  0
  9  7  1  0  0  0  0
  9  2  2  0  0  0  0
 10  5  2  0  0  0  0
 10  9  1  0  0  0  0
 11  6  2  0  0  0  0
 12  1  1  0  0  0  0
 13  3  1  0  0  0  0
 14 15  1  6  0  0  0
 14  8  1  0  0  0  0
 14 12  1  0  0  0  0
 16 17  1  6  0  0  0
 16 15  1  0  0  0  0
 17 19  2  0  0  0  0
 18 17  1  0  0  0  0
 21 20  1  0  0  0  0
 21 16  1  0  0  0  0
 22 21  2  0  0  0  0
 24 23  1  0  0  0  0
 25 27  1  0  0  0  0
 26 30  1  6  0  0  0
 26 25  1  0  0  0  0
 26 27  1  0  0  0  0
 27 24  1  6  0  0  0
 28 30  1  0  0  0  0
 29 30  1  0  0  0  0
M  END
>  <MODEL>
7

>  <REMARK>
 VINA RESULT:      -5.5      2.834      6.296
  Name = 
  8 active torsions:
  status: ('A' for Active; 'I' for Inactive)
    1  A    between atoms: C_1  and  C_8
    2  A    between atoms: N_2  and  CA_4
    3  A    between atoms: N_2  and  C_30
    4  A    between atoms: CA_4  and  CB_7
    5  A    between atoms: CA_4  and  C_22
    6  A    between atoms: C_8  and  N_29
    7  A    between atoms: N_20  and  C_23
    8  A    between atoms: C_26  and  N_29
                            x       y       z     vdW  Elec       q    Type
                         _______ _______ _______ _____ _____    ______ ____

>  <TORSDO>
F 8

$$$$
=
 OpenBabel11072411053D

 30 33  0  0  1  0  0  0  0  0999 V2000
  161.2650  206.2980  152.1510 C   0  0  0  0  0  0  0  0  0  0  0  0
  161.1950  204.4470  148.8560 C   0  0  0  0  0  0  0  0  0  0  0  0
  160.4210  203.1170  150.8510 C   0  0  0  0  0  2  0  0  0  0  0  0
  160.8420  203.0850  149.3890 C   0  0  0  0  0  2  0  0  0  0  0  0
  162.0360  206.8160  147.6930 C   0  0  0  0  0  3  0  0  0  0  0  0
  161.2920  204.5830  147.4710 C   0  0  0  0  0  3  0  0  0  0  0  0
  161.4280  205.3380  151.1950 C   0  0  0  0  0  0  0  0  0  0  0  0
  162.3500  207.9440  149.8470 C   0  0  0  0  0  2  0  0  0  0  0  0
  161.5260  205.5400  149.7030 C   0  0  0  0  0  0  0  0  0  0  0  0
  161.9730  206.7330  149.0860 C   0  0  0  0  0  0  0  0  0  0  0  0
  161.6970  205.7540  146.9210 N   0  0  0  0  0  0  0  0  0  0  0  0
  161.1420  207.7060  151.9000 N   0  0  0  0  0  2  0  0  0  0  0  0
  161.4470  203.9020  151.6470 C   0  0  0  0  0  2  0  0  0  0  0  0
  161.1360  208.3790  150.6190 C   0  0  1  0  0  3  0  0  0  0  0  0
  161.1760  209.8170  150.8310 N   0  0  0  0  0  2  0  0  0  0  0  0
  160.8750  210.0600  152.2360 C   0  0  1  0  0  3  0  0  0  0  0  0
  162.1330  210.3260  153.0090 C   0  0  0  0  0  0  0  0  0  0  0  0
  163.4220  210.4940  152.2800 C   0  0  0  0  0  1  0  0  0  0  0  0
  162.1110  210.4090  154.2270 O   0  0  0  0  0  0  0  0  0  0  0  0
  158.6520  210.9550  152.9210 O   0  0  0  0  0  1  0  0  0  0  0  0
  159.9070  211.1900  152.3750 C   0  0  0  0  0  0  0  0  0  0  0  0
  160.2250  212.3580  152.0250 O   0  0  0  0  0  0  0  0  0  0  0  0
  161.2160  205.9110  153.5970 C   0  0  0  0  0  2  0  0  0  0  0  0
  160.9130  207.0800  154.4030 N   0  0  0  0  0  2  0  0  0  0  0  0
  160.6940  206.7380  156.7020 O   0  0  0  0  0  0  0  0  0  0  0  0
  159.7110  207.7170  156.4560 C   0  0  2  0  0  3  0  0  0  0  0  0
  160.0250  206.6370  155.4690 C   0  0  1  0  0  3  0  0  0  0  0  0
  161.2210  209.3170  157.2610 C   0  0  0  0  0  1  0  0  0  0  0  0
  159.3080  210.0000  156.1310 C   0  0  0  0  0  1  0  0  0  0  0  0
  160.3530  208.9900  156.1440 N   0  0  0  0  0  0  0  0  0  0  0  0
  1 23  1  0  0  0  0
  2  4  1  0  0  0  0
  2  9  1  0  0  0  0
  3 13  1  0  0  0  0
  4  3  1  0  0  0  0
  5 10  1  0  0  0  0
  6  2  2  0  0  0  0
  7 13  1  0  0  0  0
  7  1  2  0  0  0  0
  8 14  1  0  0  0  0
  9  7  1  0  0  0  0
 10  9  2  0  0  0  0
 10  8  1  0  0  0  0
 11  6  1  0  0  0  0
 11  5  2  0  0  0  0
 12  1  1  0  0  0  0
 14 15  1  1  0  0  0
 14 12  1  0  0  0  0
 16 15  1  6  0  0  0
 16 21  1  0  0  0  0
 16 17  1  0  0  0  0
 17 19  2  0  0  0  0
 18 17  1  0  0  0  0
 21 20  1  0  0  0  0
 22 21  2  0  0  0  0
 23 24  1  0  0  0  0
 26 30  1  6  0  0  0
 26 25  1  0  0  0  0
 27 24  1  6  0  0  0
 27 26  1  0  0  0  0
 27 25  1  0  0  0  0
 29 30  1  0  0  0  0
 30 28  1  0  0  0  0
M  END
>  <MODEL>
8

>  <REMARK>
 VINA RESULT:      -5.3      4.238      7.683
  Name = 
  8 active torsions:
  status: ('A' for Active; 'I' for Inactive)
    1  A    between atoms: C_1  and  C_8
    2  A    between atoms: N_2  and  CA_4
    3  A    between atoms: N_2  and  C_30
    4  A    between atoms: CA_4  and  CB_7
    5  A    between atoms: CA_4  and  C_22
    6  A    between atoms: C_8  and  N_29
    7  A    between atoms: N_20  and  C_23
    8  A    between atoms: C_26  and  N_29
                            x       y       z     vdW  Elec       q    Type
                         _______ _______ _______ _____ _____    ______ ____

>  <TORSDO>
F 8

$$$$
=
 OpenBabel11072411053D

 30 33  0  0  1  0  0  0  0  0999 V2000
  161.3530  206.1080  152.6050 C   0  0  0  0  0  0  0  0  0  0  0  0
  161.7340  208.4760  149.6850 C   0  0  0  0  0  0  0  0  0  0  0  0
  162.4770  209.3900  151.9120 C   0  0  0  0  0  2  0  0  0  0  0  0
  162.1450  209.6990  150.4590 C   0  0  0  0  0  2  0  0  0  0  0  0
  160.8090  206.4050  148.0940 C   0  0  0  0  0  3  0  0  0  0  0  0
  161.7100  208.5820  148.2940 C   0  0  0  0  0  3  0  0  0  0  0  0
  161.3090  207.2240  151.8220 C   0  0  0  0  0  0  0  0  0  0  0  0
  160.2980  204.9580  150.0060 C   0  0  0  0  0  2  0  0  0  0  0  0
  161.2840  207.2840  150.3150 C   0  0  0  0  0  0  0  0  0  0  0  0
  160.7970  206.2480  149.4820 C   0  0  0  0  0  0  0  0  0  0  0  0
  161.2610  207.5530  147.5330 N   0  0  0  0  0  0  0  0  0  0  0  0
  161.3980  204.7570  152.1230 N   0  0  0  0  0  2  0  0  0  0  0  0
  161.3580  208.5610  152.5130 C   0  0  0  0  0  2  0  0  0  0  0  0
  161.4340  204.3100  150.7460 C   0  0  1  0  0  3  0  0  0  0  0  0
  161.2870  202.8650  150.7070 N   0  0  0  0  0  2  0  0  0  0  0  0
  160.4490  202.5410  149.5600 C   0  0  1  0  0  3  0  0  0  0  0  0
  161.2910  202.2200  148.3600 C   0  0  0  0  0  0  0  0  0  0  0  0
  161.5890  200.7980  148.0320 C   0  0  0  0  0  1  0  0  0  0  0  0
  161.7300  203.1100  147.6500 O   0  0  0  0  0  0  0  0  0  0  0  0
  158.3600  201.2420  149.1520 O   0  0  0  0  0  0  0  0  0  0  0  0
  159.5250  201.4120  149.8880 C   0  0  0  0  0  0  0  0  0  0  0  0
  159.8040  200.6000  150.8100 O   0  0  0  0  0  1  0  0  0  0  0  0
  161.3440  206.2420  154.0970 C   0  0  0  0  0  2  0  0  0  0  0  0
  160.2520  207.1100  154.5010 N   0  0  0  0  0  2  0  0  0  0  0  0
  161.4010  207.8280  156.4020 O   0  0  0  0  0  0  0  0  0  0  0  0
  160.1840  208.5310  156.5100 C   0  0  2  0  0  3  0  0  0  0  0  0
  160.2560  207.1430  155.9560 C   0  0  1  0  0  3  0  0  0  0  0  0
  161.2490  210.4500  155.6910 C   0  0  0  0  0  1  0  0  0  0  0  0
  158.9270  210.3500  155.7440 C   0  0  0  0  0  1  0  0  0  0  0  0
  160.1190  209.5620  155.4800 N   0  0  0  0  0  0  0  0  0  0  0  0
  1 23  1  0  0  0  0
  2  9  1  0  0  0  0
  2  4  1  0  0  0  0
  3 13  1  0  0  0  0
  4  3  1  0  0  0  0
  5 10  1  0  0  0  0
  6  2  2  0  0  0  0
  7 13  1  0  0  0  0
  7  1  2  0  0  0  0
  8 14  1  0  0  0  0
  9  7  1  0  0  0  0
 10  8  1  0  0  0  0
 10  9  2  0  0  0  0
 11  5  2  0  0  0  0
 11  6  1  0  0  0  0
 12  1  1  0  0  0  0
 14 15  1  1  0  0  0
 14 12  1  0  0  0  0
 16 17  1  6  0  0  0
 16 21  1  0  0  0  0
 16 15  1  0  0  0  0
 18 17  1  0  0  0  0
 19 17  2  0  0  0  0
 20 21  2  0  0  0  0
 21 22  1  0  0  0  0
 23 24  1  0  0  0  0
 25 26  1  0  0  0  0
 26 30  1  6  0  0  0
 27 24  1  6  0  0  0
 27 25  1  0  0  0  0
 27 26  1  0  0  0  0
 30 28  1  0  0  0  0
 30 29  1  0  0  0  0
M  END
>  <MODEL>
9

>  <REMARK>
 VINA RESULT:      -5.3      3.065      5.929
  Name = 
  8 active torsions:
  status: ('A' for Active; 'I' for Inactive)
    1  A    between atoms: C_1  and  C_8
    2  A    between atoms: N_2  and  CA_4
    3  A    between atoms: N_2  and  C_30
    4  A    between atoms: CA_4  and  CB_7
    5  A    between atoms: CA_4  and  C_22
    6  A    between atoms: C_8  and  N_29
    7  A    between atoms: N_20  and  C_23
    8  A    between atoms: C_26  and  N_29
                            x       y       z     vdW  Elec       q    Type
                         _______ _______ _______ _____ _____    ______ ____

>  <TORSDO>
F 8

$$$$
