=
 OpenBabel11072411353D

 25 27  0  0  1  0  0  0  0  0999 V2000
  161.8450  203.8080  151.6480 C   0  0  0  0  0  2  0  0  0  0  0  0
  160.4550  205.4480  150.5030 C   0  0  1  0  0  3  0  0  0  0  0  0
  161.9350  205.1110  152.4280 C   0  0  0  0  0  2  0  0  0  0  0  0
  160.6490  203.9520  150.7180 C   0  0  1  0  0  3  0  0  0  0  0  0
  160.8430  206.0130  151.8670 C   0  0  1  0  0  3  0  0  0  0  0  0
  162.3510  209.4120  150.9180 C   0  0  0  0  0  2  0  0  0  0  0  0
  160.9190  209.7410  152.9090 C   0  0  0  0  0  2  0  0  0  0  0  0
  162.2910  210.0320  152.3100 C   0  0  0  0  0  2  0  0  0  0  0  0
  160.6170  208.2720  152.8670 C   0  0  0  0  0  3  0  0  0  0  0  0
  162.0560  208.0150  150.9910 O   0  0  0  0  0  0  0  0  0  0  0  0
  161.1430  207.4860  151.9150 C   0  0  0  0  0  0  0  0  0  0  0  0
  161.3500  205.9810  149.3710 C   0  0  0  0  0  2  0  0  0  0  0  0
  160.5190  206.5150  148.2120 C   0  0  0  0  0  2  0  0  0  0  0  0
  160.7140  205.6830  144.5850 C   0  0  0  0  0  3  0  0  0  0  0  0
  162.2080  205.2600  146.8580 C   0  0  0  0  0  3  0  0  0  0  0  0
  161.8750  204.9800  144.5150 N   0  0  0  0  0  0  0  0  0  0  0  0
  160.2910  206.1780  145.7780 N   0  0  0  0  0  0  0  0  0  0  0  0
  161.0160  205.9850  146.9100 C   0  0  0  0  0  0  0  0  0  0  0  0
  162.6250  204.7600  145.6260 C   0  0  0  0  0  3  0  0  0  0  0  0
  160.8000  203.1400  149.4360 C   0  0  0  0  0  2  0  0  0  0  0  0
  160.8050  201.6570  149.7470 C   0  0  0  0  0  2  0  0  0  0  0  0
  161.1790  200.8800  148.4990 C   0  0  0  0  0  2  0  0  0  0  0  0
  161.1440  201.7880  147.2780 C   0  0  0  0  0  2  0  0  0  0  0  0
  160.6780  201.0500  146.0630 C   0  0  0  0  0  3  0  0  0  0  0  0
  160.0560  201.6900  145.0750 C   0  0  0  0  0  2  0  0  0  0  0  0
  1  3  1  0  0  0  0
  2 12  1  6  0  0  0
  2  4  1  0  0  0  0
  2  5  1  0  0  0  0
  4 20  1  6  0  0  0
  4  1  1  0  0  0  0
  5 11  1  6  0  0  0
  5  3  1  0  0  0  0
  6 10  1  0  0  0  0
  6  8  1  0  0  0  0
  8  7  1  0  0  0  0
  9  7  1  0  0  0  0
 10 11  1  0  0  0  0
 11  9  2  0  0  0  0
 13 12  1  0  0  0  0
 14 17  1  0  0  0  0
 15 18  1  0  0  0  0
 16 14  2  0  0  0  0
 16 19  1  0  0  0  0
 17 18  2  0  0  0  0
 18 13  1  0  0  0  0
 19 15  2  0  0  0  0
 20 21  1  0  0  0  0
 22 21  1  0  0  0  0
 23 22  1  0  0  0  0
 24 23  1  0  0  0  0
 25 24  2  0  0  0  0
M  END
>  <MODEL>
1

>  <REMARK>
 VINA RESULT:      -8.6      0.000      0.000
  Name = 
  9 active torsions:
  status: ('A' for Active; 'I' for Inactive)
    1  A    between atoms: C_1  and  C_14
    2  A    between atoms: C_7  and  C_14
    3  A    between atoms: C_7  and  C_19
    4  A    between atoms: C_8  and  C_10
    5  A    between atoms: C_8  and  C_15
    6  A    between atoms: C_10  and  C_13
    7  A    between atoms: C_17  and  C_20
    8  A    between atoms: C_19  and  C_20
    9  A    between atoms: C_21  and  C_25
                            x       y       z     vdW  Elec       q    Type
                         _______ _______ _______ _____ _____    ______ ____

>  <TORSDO>
F 9

$$$$
=
 OpenBabel11072411353D

 25 27  0  0  1  0  0  0  0  0999 V2000
  161.8140  203.7820  151.6970 C   0  0  0  0  0  2  0  0  0  0  0  0
  160.4740  205.4890  150.5900 C   0  0  1  0  0  3  0  0  0  0  0  0
  161.9550  205.0670  152.4990 C   0  0  0  0  0  2  0  0  0  0  0  0
  160.6180  203.9830  150.7780 C   0  0  1  0  0  3  0  0  0  0  0  0
  160.8910  206.0160  151.9610 C   0  0  1  0  0  3  0  0  0  0  0  0
  160.9100  209.6570  153.1710 C   0  0  0  0  0  2  0  0  0  0  0  0
  162.4440  209.4880  151.2370 C   0  0  0  0  0  2  0  0  0  0  0  0
  161.2940  210.2900  151.8380 C   0  0  0  0  0  2  0  0  0  0  0  0
  162.0960  208.0300  151.1590 C   0  0  0  0  0  3  0  0  0  0  0  0
  160.5930  208.2760  152.9840 O   0  0  0  0  0  0  0  0  0  0  0  0
  161.2420  207.4770  152.0330 C   0  0  0  0  0  0  0  0  0  0  0  0
  161.3800  206.0110  149.4620 C   0  0  0  0  0  2  0  0  0  0  0  0
  160.5590  206.5770  148.3110 C   0  0  0  0  0  2  0  0  0  0  0  0
  160.6540  205.6800  144.6950 C   0  0  0  0  0  3  0  0  0  0  0  0
  162.2180  205.3120  146.9300 C   0  0  0  0  0  3  0  0  0  0  0  0
  161.8180  204.9870  144.6020 N   0  0  0  0  0  0  0  0  0  0  0  0
  160.2620  206.1940  145.8910 N   0  0  0  0  0  0  0  0  0  0  0  0
  161.0220  206.0280  147.0040 C   0  0  0  0  0  0  0  0  0  0  0  0
  162.6040  204.7940  145.6940 C   0  0  0  0  0  3  0  0  0  0  0  0
  160.7310  203.1900  149.4810 C   0  0  0  0  0  2  0  0  0  0  0  0
  160.9360  201.7180  149.7780 C   0  0  0  0  0  2  0  0  0  0  0  0
  160.9890  200.9420  148.4760 C   0  0  0  0  0  2  0  0  0  0  0  0
  160.9690  201.8940  147.2900 C   0  0  0  0  0  2  0  0  0  0  0  0
  160.7820  201.1560  146.0020 C   0  0  0  0  0  3  0  0  0  0  0  0
  160.0010  201.6490  145.0420 C   0  0  0  0  0  2  0  0  0  0  0  0
  1  3  1  0  0  0  0
  2 12  1  6  0  0  0
  2  4  1  0  0  0  0
  2  5  1  0  0  0  0
  4 20  1  6  0  0  0
  4  1  1  0  0  0  0
  5 11  1  6  0  0  0
  5  3  1  0  0  0  0
  7  8  1  0  0  0  0
  8  6  1  0  0  0  0
  9  7  1  0  0  0  0
  9 11  2  0  0  0  0
 10  6  1  0  0  0  0
 11 10  1  0  0  0  0
 13 12  1  0  0  0  0
 14 17  1  0  0  0  0
 15 18  1  0  0  0  0
 16 14  2  0  0  0  0
 16 19  1  0  0  0  0
 17 18  2  0  0  0  0
 18 13  1  0  0  0  0
 19 15  2  0  0  0  0
 20 21  1  0  0  0  0
 22 21  1  0  0  0  0
 23 22  1  0  0  0  0
 24 23  1  0  0  0  0
 25 24  2  0  0  0  0
M  END
>  <MODEL>
2

>  <REMARK>
 VINA RESULT:      -8.4      0.624      1.006
  Name = 
  9 active torsions:
  status: ('A' for Active; 'I' for Inactive)
    1  A    between atoms: C_1  and  C_14
    2  A    between atoms: C_7  and  C_14
    3  A    between atoms: C_7  and  C_19
    4  A    between atoms: C_8  and  C_10
    5  A    between atoms: C_8  and  C_15
    6  A    between atoms: C_10  and  C_13
    7  A    between atoms: C_17  and  C_20
    8  A    between atoms: C_19  and  C_20
    9  A    between atoms: C_21  and  C_25
                            x       y       z     vdW  Elec       q    Type
                         _______ _______ _______ _____ _____    ______ ____

>  <TORSDO>
F 9

$$$$
=
 OpenBabel11072411353D

 25 27  0  0  1  0  0  0  0  0999 V2000
  162.3020  207.2820  150.8050 C   0  0  0  0  0  2  0  0  0  0  0  0
  160.7030  205.7740  149.7540 C   0  0  1  0  0  3  0  0  0  0  0  0
  162.3100  207.5720  149.3120 C   0  0  0  0  0  2  0  0  0  0  0  0
  161.0500  206.4590  151.0710 C   0  0  1  0  0  3  0  0  0  0  0  0
  161.1100  206.8340  148.7340 C   0  0  1  0  0  3  0  0  0  0  0  0
  160.2260  206.0250  145.0890 C   0  0  0  0  0  2  0  0  0  0  0  0
  162.5880  205.3860  145.4610 C   0  0  0  0  0  2  0  0  0  0  0  0
  161.2520  204.9140  144.8950 C   0  0  0  0  0  2  0  0  0  0  0  0
  162.4320  205.8530  146.8790 C   0  0  0  0  0  3  0  0  0  0  0  0
  160.1520  206.3890  146.4690 O   0  0  0  0  0  0  0  0  0  0  0  0
  161.2710  206.3630  147.3150 C   0  0  0  0  0  0  0  0  0  0  0  0
  161.4830  204.4590  149.5750 C   0  0  0  0  0  2  0  0  0  0  0  0
  160.5660  203.2500  149.7020 C   0  0  0  0  0  2  0  0  0  0  0  0
  160.8410  201.7210  146.3150 C   0  0  0  0  0  3  0  0  0  0  0  0
  161.2480  200.9700  148.9320 C   0  0  0  0  0  3  0  0  0  0  0  0
  161.2550  200.4590  146.6030 N   0  0  0  0  0  0  0  0  0  0  0  0
  160.6290  202.6130  147.3180 N   0  0  0  0  0  0  0  0  0  0  0  0
  160.8300  202.2640  148.6160 C   0  0  0  0  0  0  0  0  0  0  0  0
  161.4610  200.0700  147.8890 C   0  0  0  0  0  3  0  0  0  0  0  0
  161.2080  205.5140  152.2570 C   0  0  0  0  0  2  0  0  0  0  0  0
  161.7570  206.2590  153.4580 C   0  0  0  0  0  2  0  0  0  0  0  0
  160.6080  206.8500  154.2520 C   0  0  0  0  0  2  0  0  0  0  0  0
  160.9540  208.2550  154.7210 C   0  0  0  0  0  2  0  0  0  0  0  0
  161.2620  209.1560  153.5670 C   0  0  0  0  0  3  0  0  0  0  0  0
  160.2830  209.7200  152.8620 C   0  0  0  0  0  2  0  0  0  0  0  0
  1  4  1  0  0  0  0
  2 12  1  6  0  0  0
  2  4  1  0  0  0  0
  3  1  1  0  0  0  0
  4 20  1  1  0  0  0
  5 11  1  6  0  0  0
  5  3  1  0  0  0  0
  5  2  1  0  0  0  0
  6 10  1  0  0  0  0
  7  9  1  0  0  0  0
  8  6  1  0  0  0  0
  8  7  1  0  0  0  0
  9 11  2  0  0  0  0
 10 11  1  0  0  0  0
 12 13  1  0  0  0  0
 14 16  2  0  0  0  0
 14 17  1  0  0  0  0
 16 19  1  0  0  0  0
 17 18  2  0  0  0  0
 18 15  1  0  0  0  0
 18 13  1  0  0  0  0
 19 15  2  0  0  0  0
 20 21  1  0  0  0  0
 21 22  1  0  0  0  0
 22 23  1  0  0  0  0
 24 23  1  0  0  0  0
 25 24  2  0  0  0  0
M  END
>  <MODEL>
3

>  <REMARK>
 VINA RESULT:      -8.3      1.953      6.187
  Name = 
  9 active torsions:
  status: ('A' for Active; 'I' for Inactive)
    1  A    between atoms: C_1  and  C_14
    2  A    between atoms: C_7  and  C_14
    3  A    between atoms: C_7  and  C_19
    4  A    between atoms: C_8  and  C_10
    5  A    between atoms: C_8  and  C_15
    6  A    between atoms: C_10  and  C_13
    7  A    between atoms: C_17  and  C_20
    8  A    between atoms: C_19  and  C_20
    9  A    between atoms: C_21  and  C_25
                            x       y       z     vdW  Elec       q    Type
                         _______ _______ _______ _____ _____    ______ ____

>  <TORSDO>
F 9

$$$$
=
 OpenBabel11072411353D

 25 27  0  0  1  0  0  0  0  0999 V2000
  162.3130  208.6110  150.1620 C   0  0  0  0  0  2  0  0  0  0  0  0
  160.7480  206.8040  149.6870 C   0  0  1  0  0  3  0  0  0  0  0  0
  162.3770  208.3290  148.6680 C   0  0  0  0  0  2  0  0  0  0  0  0
  161.0500  207.9310  150.6690 C   0  0  1  0  0  3  0  0  0  0  0  0
  161.1950  207.4180  148.3620 C   0  0  1  0  0  3  0  0  0  0  0  0
  162.9500  204.9140  146.0440 C   0  0  0  0  0  2  0  0  0  0  0  0
  160.6480  205.2500  145.2010 C   0  0  0  0  0  2  0  0  0  0  0  0
  162.1200  205.2050  144.8000 C   0  0  0  0  0  2  0  0  0  0  0  0
  160.4320  206.2100  146.3340 C   0  0  0  0  0  3  0  0  0  0  0  0
  162.6750  205.8860  147.0560 O   0  0  0  0  0  0  0  0  0  0  0  0
  161.4060  206.4580  147.2230 C   0  0  0  0  0  0  0  0  0  0  0  0
  161.5290  205.5250  150.0330 C   0  0  0  0  0  2  0  0  0  0  0  0
  160.6100  204.4530  150.6040 C   0  0  0  0  0  2  0  0  0  0  0  0
  161.0090  200.8120  149.9210 C   0  0  0  0  0  3  0  0  0  0  0  0
  160.9050  203.1570  148.4850 C   0  0  0  0  0  3  0  0  0  0  0  0
  161.1300  200.7860  148.5690 N   0  0  0  0  0  0  0  0  0  0  0  0
  160.8350  201.9960  150.5660 N   0  0  0  0  0  0  0  0  0  0  0  0
  160.7750  203.1640  149.8740 C   0  0  0  0  0  0  0  0  0  0  0  0
  161.0820  201.9330  147.8420 C   0  0  0  0  0  3  0  0  0  0  0  0
  161.1610  207.4910  152.1250 C   0  0  0  0  0  2  0  0  0  0  0  0
  160.8760  208.6560  153.0520 C   0  0  0  0  0  2  0  0  0  0  0  0
  161.1810  208.2500  154.4810 C   0  0  0  0  0  2  0  0  0  0  0  0
  160.4480  206.9660  154.8370 C   0  0  0  0  0  2  0  0  0  0  0  0
  159.8530  207.0390  156.2070 C   0  0  0  0  0  3  0  0  0  0  0  0
  160.3970  207.8100  157.1460 C   0  0  0  0  0  2  0  0  0  0  0  0
  1  4  1  0  0  0  0
  2 12  1  1  0  0  0
  2  4  1  0  0  0  0
  3  1  1  0  0  0  0
  4 20  1  1  0  0  0
  5 11  1  6  0  0  0
  5  3  1  0  0  0  0
  5  2  1  0  0  0  0
  6 10  1  0  0  0  0
  7  9  1  0  0  0  0
  8  7  1  0  0  0  0
  8  6  1  0  0  0  0
  9 11  2  0  0  0  0
 10 11  1  0  0  0  0
 12 13  1  0  0  0  0
 14 17  1  0  0  0  0
 15 18  1  0  0  0  0
 16 14  2  0  0  0  0
 18 17  2  0  0  0  0
 18 13  1  0  0  0  0
 19 15  2  0  0  0  0
 19 16  1  0  0  0  0
 20 21  1  0  0  0  0
 21 22  1  0  0  0  0
 22 23  1  0  0  0  0
 23 24  1  0  0  0  0
 24 25  2  0  0  0  0
M  END
>  <MODEL>
4

>  <REMARK>
 VINA RESULT:      -8.2      2.485      6.753
  Name = 
  9 active torsions:
  status: ('A' for Active; 'I' for Inactive)
    1  A    between atoms: C_1  and  C_14
    2  A    between atoms: C_7  and  C_14
    3  A    between atoms: C_7  and  C_19
    4  A    between atoms: C_8  and  C_10
    5  A    between atoms: C_8  and  C_15
    6  A    between atoms: C_10  and  C_13
    7  A    between atoms: C_17  and  C_20
    8  A    between atoms: C_19  and  C_20
    9  A    between atoms: C_21  and  C_25
                            x       y       z     vdW  Elec       q    Type
                         _______ _______ _______ _____ _____    ______ ____

>  <TORSDO>
F 9

$$$$
=
 OpenBabel11072411353D

 25 27  0  0  1  0  0  0  0  0999 V2000
  161.0000  206.0120  152.7640 C   0  0  0  0  0  2  0  0  0  0  0  0
  161.8730  205.9100  150.4910 C   0  0  1  0  0  3  0  0  0  0  0  0
  160.8830  204.5700  152.2910 C   0  0  0  0  0  2  0  0  0  0  0  0
  161.9450  206.7020  151.7920 C   0  0  1  0  0  3  0  0  0  0  0  0
  161.6940  204.4830  151.0040 C   0  0  1  0  0  3  0  0  0  0  0  0
  159.8480  201.4380  149.5760 C   0  0  0  0  0  2  0  0  0  0  0  0
  161.0630  202.5330  147.7190 C   0  0  0  0  0  2  0  0  0  0  0  0
  160.7830  201.1950  148.3960 C   0  0  0  0  0  2  0  0  0  0  0  0
  161.5600  203.5410  148.7130 C   0  0  0  0  0  3  0  0  0  0  0  0
  160.4170  202.4050  150.4610 O   0  0  0  0  0  0  0  0  0  0  0  0
  161.2000  203.4740  150.0040 C   0  0  0  0  0  0  0  0  0  0  0  0
  160.6960  206.3680  149.6120 C   0  0  0  0  0  2  0  0  0  0  0  0
  161.1670  207.2850  148.4910 C   0  0  0  0  0  2  0  0  0  0  0  0
  162.7260  205.3220  145.7330 C   0  0  0  0  0  3  0  0  0  0  0  0
  160.2640  206.3980  146.3330 C   0  0  0  0  0  3  0  0  0  0  0  0
  161.6920  205.1800  144.8640 N   0  0  0  0  0  0  0  0  0  0  0  0
  162.5450  205.9950  146.9000 N   0  0  0  0  0  0  0  0  0  0  0  0
  161.3360  206.5280  147.2170 C   0  0  0  0  0  0  0  0  0  0  0  0
  160.4700  205.7040  145.1420 C   0  0  0  0  0  3  0  0  0  0  0  0
  161.6550  208.1920  151.6450 C   0  0  0  0  0  2  0  0  0  0  0  0
  160.5950  208.6240  152.6390 C   0  0  0  0  0  2  0  0  0  0  0  0
  161.1980  209.6070  153.6240 C   0  0  0  0  0  2  0  0  0  0  0  0
  161.3110  208.9770  155.0030 C   0  0  0  0  0  2  0  0  0  0  0  0
  159.9910  208.4530  155.4740 C   0  0  0  0  0  3  0  0  0  0  0  0
  159.9110  207.2970  156.1290 C   0  0  0  0  0  2  0  0  0  0  0  0
  2 12  1  6  0  0  0
  2  5  1  0  0  0  0
  2  4  1  0  0  0  0
  3  1  1  0  0  0  0
  4 20  1  6  0  0  0
  4  1  1  0  0  0  0
  5 11  1  6  0  0  0
  5  3  1  0  0  0  0
  6 10  1  0  0  0  0
  7  8  1  0  0  0  0
  7  9  1  0  0  0  0
  8  6  1  0  0  0  0
  9 11  2  0  0  0  0
 11 10  1  0  0  0  0
 13 12  1  0  0  0  0
 14 17  1  0  0  0  0
 15 18  1  0  0  0  0
 16 19  1  0  0  0  0
 16 14  2  0  0  0  0
 17 18  2  0  0  0  0
 18 13  1  0  0  0  0
 19 15  2  0  0  0  0
 20 21  1  0  0  0  0
 21 22  1  0  0  0  0
 22 23  1  0  0  0  0
 23 24  1  0  0  0  0
 24 25  2  0  0  0  0
M  END
>  <MODEL>
5

>  <REMARK>
 VINA RESULT:      -7.9      1.799      6.294
  Name = 
  9 active torsions:
  status: ('A' for Active; 'I' for Inactive)
    1  A    between atoms: C_1  and  C_14
    2  A    between atoms: C_7  and  C_14
    3  A    between atoms: C_7  and  C_19
    4  A    between atoms: C_8  and  C_10
    5  A    between atoms: C_8  and  C_15
    6  A    between atoms: C_10  and  C_13
    7  A    between atoms: C_17  and  C_20
    8  A    between atoms: C_19  and  C_20
    9  A    between atoms: C_21  and  C_25
                            x       y       z     vdW  Elec       q    Type
                         _______ _______ _______ _____ _____    ______ ____

>  <TORSDO>
F 9

$$$$
=
 OpenBabel11072411353D

 25 27  0  0  1  0  0  0  0  0999 V2000
  161.7670  208.4290  148.1690 C   0  0  0  0  0  2  0  0  0  0  0  0
  162.0180  206.3810  149.4660 C   0  0  1  0  0  3  0  0  0  0  0  0
  161.9310  208.8270  149.6290 C   0  0  0  0  0  2  0  0  0  0  0  0
  162.2040  206.9740  148.0740 C   0  0  1  0  0  3  0  0  0  0  0  0
  162.3740  207.5660  150.3610 C   0  0  1  0  0  3  0  0  0  0  0  0
  161.9730  206.1850  153.9180 C   0  0  0  0  0  2  0  0  0  0  0  0
  160.7170  208.3120  153.7800 C   0  0  0  0  0  2  0  0  0  0  0  0
  160.6390  206.8550  154.2240 C   0  0  0  0  0  2  0  0  0  0  0  0
  161.1520  208.4120  152.3460 C   0  0  0  0  0  3  0  0  0  0  0  0
  162.2890  206.3320  152.5310 O   0  0  0  0  0  0  0  0  0  0  0  0
  161.9340  207.4710  151.7960 C   0  0  0  0  0  0  0  0  0  0  0  0
  160.5760  205.8930  149.6880 C   0  0  0  0  0  2  0  0  0  0  0  0
  160.5130  204.8280  150.7740 C   0  0  0  0  0  2  0  0  0  0  0  0
  161.0930  201.1550  150.5250 C   0  0  0  0  0  3  0  0  0  0  0  0
  160.8190  203.2970  148.8180 C   0  0  0  0  0  3  0  0  0  0  0  0
  161.1780  200.9690  149.1820 N   0  0  0  0  0  0  0  0  0  0  0  0
  160.8720  202.3990  151.0270 N   0  0  0  0  0  0  0  0  0  0  0  0
  160.7290  203.4680  150.2010 C   0  0  0  0  0  0  0  0  0  0  0  0
  161.0460  202.0130  148.3240 C   0  0  0  0  0  3  0  0  0  0  0  0
  161.4900  206.2170  146.9600 C   0  0  0  0  0  2  0  0  0  0  0  0
  162.4810  205.3930  146.1620 C   0  0  0  0  0  2  0  0  0  0  0  0
  161.9580  205.2030  144.7510 C   0  0  0  0  0  2  0  0  0  0  0  0
  160.6660  204.3990  144.7670 C   0  0  0  0  0  2  0  0  0  0  0  0
  160.9160  202.9720  145.1400 C   0  0  0  0  0  3  0  0  0  0  0  0
  160.0030  202.0340  144.8960 C   0  0  0  0  0  2  0  0  0  0  0  0
  1  3  1  0  0  0  0
  2 12  1  6  0  0  0
  2  5  1  0  0  0  0
  3  5  1  0  0  0  0
  4 20  1  6  0  0  0
  4  1  1  0  0  0  0
  4  2  1  0  0  0  0
  5 11  1  1  0  0  0
  6  8  1  0  0  0  0
  7  8  1  0  0  0  0
  9  7  1  0  0  0  0
 10  6  1  0  0  0  0
 11  9  2  0  0  0  0
 11 10  1  0  0  0  0
 12 13  1  0  0  0  0
 14 17  1  0  0  0  0
 15 18  1  0  0  0  0
 16 14  2  0  0  0  0
 18 13  1  0  0  0  0
 18 17  2  0  0  0  0
 19 15  2  0  0  0  0
 19 16  1  0  0  0  0
 21 20  1  0  0  0  0
 22 23  1  0  0  0  0
 22 21  1  0  0  0  0
 23 24  1  0  0  0  0
 25 24  2  0  0  0  0
M  END
>  <MODEL>
6

>  <REMARK>
 VINA RESULT:      -7.5      2.196      4.091
  Name = 
  9 active torsions:
  status: ('A' for Active; 'I' for Inactive)
    1  A    between atoms: C_1  and  C_14
    2  A    between atoms: C_7  and  C_14
    3  A    between atoms: C_7  and  C_19
    4  A    between atoms: C_8  and  C_10
    5  A    between atoms: C_8  and  C_15
    6  A    between atoms: C_10  and  C_13
    7  A    between atoms: C_17  and  C_20
    8  A    between atoms: C_19  and  C_20
    9  A    between atoms: C_21  and  C_25
                            x       y       z     vdW  Elec       q    Type
                         _______ _______ _______ _____ _____    ______ ____

>  <TORSDO>
F 9

$$$$
=
 OpenBabel11072411353D

 25 27  0  0  1  0  0  0  0  0999 V2000
  161.1680  206.2890  152.8530 C   0  0  0  0  0  2  0  0  0  0  0  0
  162.0260  205.9760  150.5940 C   0  0  1  0  0  3  0  0  0  0  0  0
  161.1110  204.8000  152.5410 C   0  0  0  0  0  2  0  0  0  0  0  0
  162.0750  206.9080  151.7990 C   0  0  1  0  0  3  0  0  0  0  0  0
  161.9140  204.6080  151.2620 C   0  0  1  0  0  3  0  0  0  0  0  0
  161.2050  202.5780  148.0840 C   0  0  0  0  0  2  0  0  0  0  0  0
  160.4430  201.2460  150.0250 C   0  0  0  0  0  2  0  0  0  0  0  0
  160.0470  201.7610  148.6440 C   0  0  0  0  0  2  0  0  0  0  0  0
  160.8960  202.3740  150.9060 C   0  0  0  0  0  3  0  0  0  0  0  0
  161.5520  203.6250  148.9930 O   0  0  0  0  0  0  0  0  0  0  0  0
  161.4570  203.4750  150.3840 C   0  0  0  0  0  0  0  0  0  0  0  0
  160.8240  206.2840  149.6850 C   0  0  0  0  0  2  0  0  0  0  0  0
  161.2250  207.1840  148.5230 C   0  0  0  0  0  2  0  0  0  0  0  0
  162.7110  205.1330  145.7900 C   0  0  0  0  0  3  0  0  0  0  0  0
  160.2800  206.2760  146.3920 C   0  0  0  0  0  3  0  0  0  0  0  0
  161.6650  204.9970  144.9330 N   0  0  0  0  0  0  0  0  0  0  0  0
  162.5570  205.8320  146.9450 N   0  0  0  0  0  0  0  0  0  0  0  0
  161.3640  206.3990  147.2630 C   0  0  0  0  0  0  0  0  0  0  0  0
  160.4580  205.5540  145.2120 C   0  0  0  0  0  3  0  0  0  0  0  0
  161.7180  208.3590  151.4950 C   0  0  0  0  0  2  0  0  0  0  0  0
  160.8250  208.9230  152.5810 C   0  0  0  0  0  2  0  0  0  0  0  0
  161.2830  210.3250  152.9350 C   0  0  0  0  0  2  0  0  0  0  0  0
  160.3390  210.9530  153.9490 C   0  0  0  0  0  2  0  0  0  0  0  0
  159.7150  212.2020  153.4120 C   0  0  0  0  0  3  0  0  0  0  0  0
  158.8630  212.1530  152.3900 C   0  0  0  0  0  2  0  0  0  0  0  0
  2 12  1  6  0  0  0
  2  5  1  0  0  0  0
  2  4  1  0  0  0  0
  3  1  1  0  0  0  0
  4 20  1  6  0  0  0
  4  1  1  0  0  0  0
  5 11  1  6  0  0  0
  5  3  1  0  0  0  0
  6  8  1  0  0  0  0
  6 10  1  0  0  0  0
  7  9  1  0  0  0  0
  8  7  1  0  0  0  0
 10 11  1  0  0  0  0
 11  9  2  0  0  0  0
 13 12  1  0  0  0  0
 14 17  1  0  0  0  0
 15 18  1  0  0  0  0
 16 19  1  0  0  0  0
 16 14  2  0  0  0  0
 17 18  2  0  0  0  0
 18 13  1  0  0  0  0
 19 15  2  0  0  0  0
 20 21  1  0  0  0  0
 21 22  1  0  0  0  0
 22 23  1  0  0  0  0
 24 23  1  0  0  0  0
 25 24  2  0  0  0  0
M  END
>  <MODEL>
7

>  <REMARK>
 VINA RESULT:      -7.3      1.665      6.423
  Name = 
  9 active torsions:
  status: ('A' for Active; 'I' for Inactive)
    1  A    between atoms: C_1  and  C_14
    2  A    between atoms: C_7  and  C_14
    3  A    between atoms: C_7  and  C_19
    4  A    between atoms: C_8  and  C_10
    5  A    between atoms: C_8  and  C_15
    6  A    between atoms: C_10  and  C_13
    7  A    between atoms: C_17  and  C_20
    8  A    between atoms: C_19  and  C_20
    9  A    between atoms: C_21  and  C_25
                            x       y       z     vdW  Elec       q    Type
                         _______ _______ _______ _____ _____    ______ ____

>  <TORSDO>
F 9

$$$$
=
 OpenBabel11072411353D

 25 27  0  0  1  0  0  0  0  0999 V2000
  160.8050  206.2540  152.5920 C   0  0  0  0  0  2  0  0  0  0  0  0
  161.7290  205.8840  150.3680 C   0  0  1  0  0  3  0  0  0  0  0  0
  160.8610  204.7510  152.3620 C   0  0  0  0  0  2  0  0  0  0  0  0
  161.6870  206.8800  151.5210 C   0  0  1  0  0  3  0  0  0  0  0  0
  161.7020  204.5490  151.1080 C   0  0  1  0  0  3  0  0  0  0  0  0
  161.2130  202.3040  148.0350 C   0  0  0  0  0  2  0  0  0  0  0  0
  160.4900  201.0320  150.0310 C   0  0  0  0  0  2  0  0  0  0  0  0
  160.0970  201.4420  148.6150 C   0  0  0  0  0  2  0  0  0  0  0  0
  160.8430  202.2350  150.8570 C   0  0  0  0  0  3  0  0  0  0  0  0
  161.4650  203.4210  148.8910 O   0  0  0  0  0  0  0  0  0  0  0  0
  161.3440  203.3410  150.2860 C   0  0  0  0  0  0  0  0  0  0  0  0
  160.5270  206.0560  149.4240 C   0  0  0  0  0  2  0  0  0  0  0  0
  160.8580  206.9940  148.2710 C   0  0  0  0  0  2  0  0  0  0  0  0
  162.7720  204.8930  145.8610 C   0  0  0  0  0  3  0  0  0  0  0  0
  160.3520  206.2000  145.9530 C   0  0  0  0  0  3  0  0  0  0  0  0
  161.9370  204.8520  144.7900 N   0  0  0  0  0  0  0  0  0  0  0  0
  162.4130  205.5790  146.9780 N   0  0  0  0  0  0  0  0  0  0  0  0
  161.2210  206.2260  147.0450 C   0  0  0  0  0  0  0  0  0  0  0  0
  160.7380  205.4910  144.8170 C   0  0  0  0  0  3  0  0  0  0  0  0
  161.2340  208.2830  151.1320 C   0  0  0  0  0  2  0  0  0  0  0  0
  162.3380  209.2870  151.3950 C   0  0  0  0  0  2  0  0  0  0  0  0
  161.9220  210.6460  150.8660 C   0  0  0  0  0  2  0  0  0  0  0  0
  162.0270  210.6810  149.3490 C   0  0  0  0  0  2  0  0  0  0  0  0
  161.6790  212.0320  148.8090 C   0  0  0  0  0  3  0  0  0  0  0  0
  161.7030  212.2680  147.4980 C   0  0  0  0  0  2  0  0  0  0  0  0
  2 12  1  6  0  0  0
  2  5  1  0  0  0  0
  2  4  1  0  0  0  0
  3  1  1  0  0  0  0
  4 20  1  6  0  0  0
  4  1  1  0  0  0  0
  5 11  1  6  0  0  0
  5  3  1  0  0  0  0
  6  8  1  0  0  0  0
  6 10  1  0  0  0  0
  7  9  1  0  0  0  0
  8  7  1  0  0  0  0
 10 11  1  0  0  0  0
 11  9  2  0  0  0  0
 13 12  1  0  0  0  0
 14 17  1  0  0  0  0
 15 18  1  0  0  0  0
 16 19  1  0  0  0  0
 16 14  2  0  0  0  0
 17 18  2  0  0  0  0
 18 13  1  0  0  0  0
 19 15  2  0  0  0  0
 20 21  1  0  0  0  0
 22 21  1  0  0  0  0
 23 22  1  0  0  0  0
 24 23  1  0  0  0  0
 25 24  2  0  0  0  0
M  END
>  <MODEL>
8

>  <REMARK>
 VINA RESULT:      -7.1      1.840      5.999
  Name = 
  9 active torsions:
  status: ('A' for Active; 'I' for Inactive)
    1  A    between atoms: C_1  and  C_14
    2  A    between atoms: C_7  and  C_14
    3  A    between atoms: C_7  and  C_19
    4  A    between atoms: C_8  and  C_10
    5  A    between atoms: C_8  and  C_15
    6  A    between atoms: C_10  and  C_13
    7  A    between atoms: C_17  and  C_20
    8  A    between atoms: C_19  and  C_20
    9  A    between atoms: C_21  and  C_25
                            x       y       z     vdW  Elec       q    Type
                         _______ _______ _______ _____ _____    ______ ____

>  <TORSDO>
F 9

$$$$
=
 OpenBabel11072411353D

 25 27  0  0  1  0  0  0  0  0999 V2000
  161.6780  208.9280  150.0420 C   0  0  0  0  0  2  0  0  0  0  0  0
  162.1630  207.1250  151.6070 C   0  0  1  0  0  3  0  0  0  0  0  0
  161.3450  209.4310  151.4390 C   0  0  0  0  0  2  0  0  0  0  0  0
  162.5200  207.6750  150.2310 C   0  0  1  0  0  3  0  0  0  0  0  0
  161.9280  208.4060  152.4040 C   0  0  1  0  0  3  0  0  0  0  0  0
  159.7500  209.3110  155.4310 C   0  0  0  0  0  2  0  0  0  0  0  0
  160.4510  206.9500  155.6740 C   0  0  0  0  0  2  0  0  0  0  0  0
  160.3450  208.2910  156.3950 C   0  0  0  0  0  2  0  0  0  0  0  0
  161.1970  207.0970  154.3800 C   0  0  0  0  0  3  0  0  0  0  0  0
  160.5370  209.3770  154.2390 O   0  0  0  0  0  0  0  0  0  0  0  0
  161.1830  208.2540  153.7020 C   0  0  0  0  0  0  0  0  0  0  0  0
  160.9130  206.2300  151.5550 C   0  0  0  0  0  2  0  0  0  0  0  0
  161.1740  204.8770  152.2020 C   0  0  0  0  0  2  0  0  0  0  0  0
  161.1410  201.4690  150.6950 C   0  0  0  0  0  3  0  0  0  0  0  0
  160.8320  204.0720  149.8580 C   0  0  0  0  0  3  0  0  0  0  0  0
  160.9120  201.7380  149.3830 N   0  0  0  0  0  0  0  0  0  0  0  0
  161.2160  202.4850  151.5950 N   0  0  0  0  0  0  0  0  0  0  0  0
  161.0610  203.7760  151.2020 C   0  0  0  0  0  0  0  0  0  0  0  0
  160.7580  203.0160  148.9510 C   0  0  0  0  0  3  0  0  0  0  0  0
  162.3590  206.6790  149.0870 C   0  0  0  0  0  2  0  0  0  0  0  0
  161.6550  207.3310  147.9140 C   0  0  0  0  0  2  0  0  0  0  0  0
  160.6810  206.3440  147.2980 C   0  0  0  0  0  2  0  0  0  0  0  0
  161.1610  205.9150  145.9200 C   0  0  0  0  0  2  0  0  0  0  0  0
  161.9610  204.6530  145.9890 C   0  0  0  0  0  3  0  0  0  0  0  0
  163.2920  204.6890  145.9800 C   0  0  0  0  0  2  0  0  0  0  0  0
  1  4  1  0  0  0  0
  1  3  1  0  0  0  0
  2 12  1  6  0  0  0
  2  5  1  0  0  0  0
  3  5  1  0  0  0  0
  4 20  1  6  0  0  0
  4  2  1  0  0  0  0
  5 11  1  1  0  0  0
  6  8  1  0  0  0  0
  7  8  1  0  0  0  0
  9  7  1  0  0  0  0
 10  6  1  0  0  0  0
 11 10  1  0  0  0  0
 11  9  2  0  0  0  0
 12 13  1  0  0  0  0
 14 17  1  0  0  0  0
 15 18  1  0  0  0  0
 16 14  2  0  0  0  0
 18 17  2  0  0  0  0
 18 13  1  0  0  0  0
 19 16  1  0  0  0  0
 19 15  2  0  0  0  0
 21 20  1  0  0  0  0
 22 21  1  0  0  0  0
 23 24  1  0  0  0  0
 23 22  1  0  0  0  0
 25 24  2  0  0  0  0
M  END
>  <MODEL>
9

>  <REMARK>
 VINA RESULT:      -6.8      2.450      4.570
  Name = 
  9 active torsions:
  status: ('A' for Active; 'I' for Inactive)
    1  A    between atoms: C_1  and  C_14
    2  A    between atoms: C_7  and  C_14
    3  A    between atoms: C_7  and  C_19
    4  A    between atoms: C_8  and  C_10
    5  A    between atoms: C_8  and  C_15
    6  A    between atoms: C_10  and  C_13
    7  A    between atoms: C_17  and  C_20
    8  A    between atoms: C_19  and  C_20
    9  A    between atoms: C_21  and  C_25
                            x       y       z     vdW  Elec       q    Type
                         _______ _______ _______ _____ _____    ______ ____

>  <TORSDO>
F 9

$$$$
