=
 OpenBabel11072410263D

 68 76  0  0  1  0  0  0  0  0999 V2000
  161.4450  208.6920  152.5920 C   0  0  2  0  0  3  0  0  0  0  0  0
  162.9300  208.9780  150.7290 O   0  0  0  0  0  0  0  0  0  0  0  0
  161.6370  208.5520  151.0870 C   0  0  2  0  0  3  0  0  0  0  0  0
  161.8810  209.8870  150.4970 C   0  0  0  0  0  2  0  0  0  0  0  0
  160.1030  207.1450  153.8030 O   0  0  0  0  0  0  0  0  0  0  0  0
  161.1760  207.3680  153.2600 C   0  0  0  0  0  0  0  0  0  0  0  0
  162.4910  206.1480  153.3470 S   0  0  0  0  0  0  0  0  0  0  0  0
  161.8220  205.0770  152.0170 C   0  0  2  0  0  3  0  0  0  0  0  0
  162.1070  205.7190  148.4810 C   0  0  0  0  0  2  0  0  0  0  0  0
  159.8530  206.5020  149.1860 C   0  0  0  0  0  2  0  0  0  0  0  0
  160.6540  205.3400  148.6270 C   0  0  2  0  0  3  0  0  0  0  0  0
  160.3680  205.4200  150.1160 C   0  0  1  0  0  3  0  0  0  0  0  0
  161.5820  205.8800  150.8060 N   0  0  0  0  0  0  0  0  0  0  0  0
  162.6750  205.6260  149.8710 C   0  0  0  0  0  2  0  0  0  0  0  0
  160.5380  204.4300  152.5390 C   0  0  0  0  0  2  0  0  0  0  0  0
  159.8270  203.6540  151.4370 C   0  0  0  0  0  2  0  0  0  0  0  0
  160.4350  202.4070  151.2710 O   0  0  0  0  0  0  0  0  0  0  0  0
  160.3440  202.1310  149.9050 C   0  0  0  0  0  2  0  0  0  0  0  0
  161.8990  200.3970  150.4780 O   0  0  0  0  0  1  0  0  0  0  0  0
  161.5070  201.2600  149.4470 C   0  0  1  0  0  3  0  0  0  0  0  0
  161.0920  200.4630  148.2100 C   0  0  2  0  0  3  0  0  0  0  0  0
  162.2250  200.0720  147.4910 O   0  0  0  0  0  1  0  0  0  0  0  0
  160.1360  201.2610  147.3200 C   0  0  1  0  0  3  0  0  0  0  0  0
  159.4820  202.2320  148.0770 O   0  0  0  0  0  1  0  0  0  0  0  0
  160.7080  201.4930  145.0020 O   0  0  0  0  0  0  0  0  0  0  0  0
  160.8400  201.9320  146.1800 C   0  0  0  0  0  0  0  0  0  0  0  0
  161.7410  203.0120  146.4520 N   0  0  0  0  0  2  0  0  0  0  0  0
  162.4440  203.7410  145.4030 C   0  0  2  0  0  3  0  0  0  0  0  0
  163.9160  203.9230  145.7580 C   0  0  0  0  0  1  0  0  0  0  0  0
  161.7950  205.0690  145.1490 C   0  0  0  0  0  0  0  0  0  0  0  0
  162.5680  206.1490  145.0710 C   0  0  0  0  0  2  0  0  0  0  0  0
  159.9430  206.5340  144.7200 O   0  0  0  0  0  0  0  0  0  0  0  0
  159.3920  205.8320  145.8190 C   0  0  0  0  0  2  0  0  0  0  0  0
  159.7770  204.4080  143.8510 O   0  0  0  0  0  1  0  0  0  0  0  0
  160.3230  205.1890  144.8650 C   0  0  2  0  0  0  0  0  0  0  0  0
  160.3040  209.6760  152.8530 C   0  0  0  0  0  2  0  0  0  0  0  0
  160.7840  211.1210  152.8820 C   0  0  0  0  0  2  0  0  0  0  0  0
  160.2610  211.8950  151.6830 C   0  0  0  0  0  2  0  0  0  0  0  0
  158.9140  212.9720  153.5040 C   0  0  0  0  0  0  0  0  0  0  0  0
  158.9280  211.9120  154.2030 O   0  0  0  0  0  0  0  0  0  0  0  0
  159.3150  212.9100  152.1230 N   0  0  0  0  0  0  0  0  0  0  0  0
  159.1550  214.4530  155.4800 C   0  0  0  0  0  2  0  0  0  0  0  0
  156.8080  214.3180  155.7820 C   0  0  0  0  0  0  0  0  0  0  0  0
  155.9790  214.4170  153.5210 C   0  0  0  0  0  3  0  0  0  0  0  0
  154.4340  214.4060  155.4110 C   0  0  0  0  0  3  0  0  0  0  0  0
  158.4870  214.2880  154.1040 C   0  0  2  0  0  3  0  0  0  0  0  0
  158.0620  214.2920  156.5590 C   0  0  0  0  0  2  0  0  0  0  0  0
  157.0340  214.3320  154.4270 C   0  0  0  0  0  0  0  0  0  0  0  0
  155.5130  214.3450  156.3050 C   0  0  0  0  0  3  0  0  0  0  0  0
  154.6680  214.4520  154.0230 C   0  0  0  0  0  3  0  0  0  0  0  0
  158.6130  213.6950  151.1110 C   0  0  0  0  0  2  0  0  0  0  0  0
  161.9180  213.2750  145.4590 C   0  0  0  0  0  2  0  0  0  0  0  0
  161.9350  212.0290  148.1810 O   0  0  0  0  0  0  0  0  0  0  0  0
  161.1480  213.3030  148.0560 S   0  0  0  0  0  0  0  0  0  0  0  0
  160.1770  213.2630  143.6440 N   0  0  0  0  0  0  0  0  0  0  0  0
  159.6020  212.2110  144.4840 C   0  0  0  0  0  2  0  0  0  0  0  0
  158.9580  214.3860  148.7190 C   0  0  1  0  0  3  0  0  0  0  0  0
  159.7010  213.1470  148.9950 N   0  0  2  0  0  0  0  0  0  0  0  0
  160.7070  213.5620  146.3370 C   0  0  2  0  0  3  0  0  0  0  0  0
  157.4970  214.0010  148.4740 C   0  0  0  0  0  2  0  0  0  0  0  0
  161.9900  214.4530  148.5330 O   0  0  0  0  0  0  0  0  0  0  0  0
  161.5990  213.4560  143.9670 C   0  0  0  0  0  2  0  0  0  0  0  0
  159.5830  214.1790  150.0380 C   0  0  2  0  0  3  0  0  0  0  0  0
  157.3820  213.0380  147.2880 C   0  0  0  0  0  2  0  0  0  0  0  0
  159.4830  212.7050  145.9280 C   0  0  1  0  0  3  0  0  0  0  0  0
  158.1810  213.5040  146.0640 C   0  0  0  0  0  2  0  0  0  0  0  0
  161.2840  211.9600  141.9970 N   0  0  0  0  0  1  0  0  0  0  0  0
  160.1240  212.7850  142.2700 C   0  0  0  0  0  2  0  0  0  0  0  0
  1 36  1  6  0  0  0
  1  6  1  0  0  0  0
  2  3  1  0  0  0  0
  3  1  1  1  0  0  0
  4  2  1  0  0  0  0
  4  3  1  0  0  0  0
  6  7  1  0  0  0  0
  6  5  2  0  0  0  0
  8 15  1  1  0  0  0
  8  7  1  0  0  0  0
  9 14  1  0  0  0  0
 11  9  1  1  0  0  0
 11 10  1  0  0  0  0
 11 12  1  0  0  0  0
 12 10  1  6  0  0  0
 12 13  1  0  0  0  0
 13  8  1  0  0  0  0
 14 13  1  0  0  0  0
 16 15  1  0  0  0  0
 17 16  1  0  0  0  0
 18 17  1  0  0  0  0
 20 18  1  0  0  0  0
 20 19  1  1  0  0  0
 21 22  1  6  0  0  0
 21 20  1  0  0  0  0
 23 24  1  1  0  0  0
 23 21  1  0  0  0  0
 25 26  2  0  0  0  0
 26 27  1  0  0  0  0
 26 23  1  0  0  0  0
 28 29  1  1  0  0  0
 28 27  1  0  0  0  0
 30 28  1  0  0  0  0
 31 30  2  0  0  0  0
 32 35  1  0  0  0  0
 32 33  1  0  0  0  0
 35 34  1  6  0  0  0
 35 30  1  0  0  0  0
 35 33  1  0  0  0  0
 36 37  1  0  0  0  0
 38 41  1  0  0  0  0
 38 37  1  0  0  0  0
 39 40  2  0  0  0  0
 41 39  1  0  0  0  0
 42 47  1  0  0  0  0
 43 49  1  0  0  0  0
 43 47  1  0  0  0  0
 44 50  2  0  0  0  0
 44 48  1  0  0  0  0
 45 49  2  0  0  0  0
 46 39  1  1  0  0  0
 46 48  1  0  0  0  0
 46 42  1  0  0  0  0
 48 43  2  0  0  0  0
 50 45  1  0  0  0  0
 51 41  1  0  0  0  0
 54 53  2  0  0  0  0
 54 61  2  0  0  0  0
 55 62  1  0  0  0  0
 55 56  1  0  0  0  0
 57 60  1  1  0  0  0
 57 58  1  0  0  0  0
 57 63  1  0  0  0  0
 58 54  1  6  0  0  0
 58 63  1  0  0  0  0
 59 52  1  6  0  0  0
 59 54  1  0  0  0  0
 62 52  1  0  0  0  0
 63 51  1  1  0  0  0
 64 60  1  0  0  0  0
 65 56  1  6  0  0  0
 65 66  1  0  0  0  0
 65 59  1  0  0  0  0
 66 64  1  0  0  0  0
 67 68  1  0  0  0  0
 68 55  1  0  0  0  0
M  END
>  <MODEL>
1

>  <REMARK>
 VINA RESULT:      -1.8      0.000      0.000
  Name = 
  24 active torsions:
  status: ('A' for Active; 'I' for Inactive)
    1  A    between atoms: C_1  and  C_28
    2  A    between atoms: C_3  and  O_16
    3  A    between atoms: C_3  and  C_24
    4  A    between atoms: C_4  and  O_16
    5  A    between atoms: C_4  and  C_63
    6  A    between atoms: C_5  and  C_26
    7  A    between atoms: C_5  and  C_55
    8  A    between atoms: C_5  and  C_61
    9  A    between atoms: C_10  and  N_35
   10  A    between atoms: C_10  and  C_52
   11  A    between atoms: N_14  and  C_65
   12  A    between atoms: C_21  and  C_33
   13  A    between atoms: C_21  and  N_60
   14  A    between atoms: C_24  and  C_57
   15  A    between atoms: C_26  and  S_51
   16  A    between atoms: C_29  and  C_48
   17  A    between atoms: C_29  and  C_63
   18  A    between atoms: C_33  and  C_54
   19  A    between atoms: N_35  and  C_58
   20  A    between atoms: C_40  and  C_48
   21  A    between atoms: S_51  and  C_57
   22  A    between atoms: N_56  and  C_57
   23  A    between atoms: C_58  and  C_66
   24  A    between atoms: C_61  and  C_66
                            x       y       z     vdW  Elec       q    Type
                         _______ _______ _______ _____ _____    ______ ____

>  <TORSDO>
F 24

$$$$
=
 OpenBabel11072410263D

 68 76  0  0  1  0  0  0  0  0999 V2000
  160.6270  208.1780  153.6300 C   0  0  2  0  0  3  0  0  0  0  0  0
  161.3990  207.1210  155.6410 O   0  0  0  0  0  0  0  0  0  0  0  0
  160.9460  208.3440  155.1100 C   0  0  2  0  0  3  0  0  0  0  0  0
  160.0600  207.4650  155.9050 C   0  0  0  0  0  2  0  0  0  0  0  0
  162.4490  208.8680  152.2630 O   0  0  0  0  0  0  0  0  0  0  0  0
  161.8630  207.9390  152.8010 C   0  0  0  0  0  0  0  0  0  0  0  0
  162.4150  206.2540  152.5190 S   0  0  0  0  0  0  0  0  0  0  0  0
  162.0330  206.2440  150.7250 C   0  0  2  0  0  3  0  0  0  0  0  0
  162.5710  208.4350  147.9140 C   0  0  0  0  0  2  0  0  0  0  0  0
  162.0840  209.8780  149.8820 C   0  0  0  0  0  2  0  0  0  0  0  0
  161.4920  209.1540  148.6860 C   0  0  2  0  0  3  0  0  0  0  0  0
  161.4760  208.4990  150.0550 C   0  0  1  0  0  3  0  0  0  0  0  0
  162.5350  207.4800  150.1030 N   0  0  0  0  0  0  0  0  0  0  0  0
  162.8510  207.1880  148.7080 C   0  0  0  0  0  2  0  0  0  0  0  0
  160.5180  206.0990  150.5710 C   0  0  0  0  0  2  0  0  0  0  0  0
  160.0990  206.2360  149.1120 C   0  0  0  0  0  2  0  0  0  0  0  0
  161.2290  206.1840  148.2910 O   0  0  0  0  0  0  0  0  0  0  0  0
  161.0270  205.0850  147.4540 C   0  0  0  0  0  2  0  0  0  0  0  0
  159.9070  206.7970  146.2020 O   0  0  0  0  0  1  0  0  0  0  0  0
  160.4820  205.5250  146.1010 C   0  0  1  0  0  3  0  0  0  0  0  0
  161.6130  205.5290  145.0720 C   0  0  2  0  0  3  0  0  0  0  0  0
  161.2570  206.3150  143.9720 O   0  0  0  0  0  1  0  0  0  0  0  0
  161.9760  204.1100  144.6260 C   0  0  1  0  0  3  0  0  0  0  0  0
  163.2960  203.8280  144.9720 O   0  0  0  0  0  1  0  0  0  0  0  0
  159.9880  202.7690  144.6890 O   0  0  0  0  0  0  0  0  0  0  0  0
  161.0850  203.0720  145.2380 C   0  0  0  0  0  0  0  0  0  0  0  0
  161.4430  202.5000  146.5020 N   0  0  0  0  0  2  0  0  0  0  0  0
  160.6520  201.4630  147.1550 C   0  0  2  0  0  3  0  0  0  0  0  0
  160.4880  201.7580  148.6430 C   0  0  0  0  0  1  0  0  0  0  0  0
  161.2700  200.1120  146.9500 C   0  0  0  0  0  0  0  0  0  0  0  0
  161.8680  199.5250  147.9830 C   0  0  0  0  0  2  0  0  0  0  0  0
  160.9960  197.9830  145.8770 O   0  0  0  0  0  0  0  0  0  0  0  0
  162.1540  198.4100  145.1820 C   0  0  0  0  0  2  0  0  0  0  0  0
  160.1820  199.8080  144.7320 O   0  0  0  0  0  1  0  0  0  0  0  0
  161.1260  199.3640  145.6530 C   0  0  2  0  0  0  0  0  0  0  0  0
  159.8800  209.4210  153.1460 C   0  0  0  0  0  2  0  0  0  0  0  0
  160.2940  210.6750  153.9040 C   0  0  0  0  0  2  0  0  0  0  0  0
  160.3440  211.8810  152.9800 C   0  0  0  0  0  2  0  0  0  0  0  0
  158.7920  213.0230  154.5860 C   0  0  0  0  0  0  0  0  0  0  0  0
  159.0300  212.1690  155.4940 O   0  0  0  0  0  0  0  0  0  0  0  0
  159.2010  212.7470  153.2340 N   0  0  0  0  0  0  0  0  0  0  0  0
  157.9600  214.4530  156.4350 C   0  0  0  0  0  2  0  0  0  0  0  0
  155.7910  214.2890  155.4960 C   0  0  0  0  0  0  0  0  0  0  0  0
  156.2280  214.4400  153.1300 C   0  0  0  0  0  3  0  0  0  0  0  0
  153.9360  214.3640  153.9680 C   0  0  0  0  0  3  0  0  0  0  0  0
  158.0910  214.3180  154.9080 C   0  0  2  0  0  3  0  0  0  0  0  0
  156.4740  214.2540  156.8030 C   0  0  0  0  0  2  0  0  0  0  0  0
  156.6750  214.3410  154.4460 C   0  0  0  0  0  0  0  0  0  0  0  0
  154.4100  214.2890  155.2850 C   0  0  0  0  0  3  0  0  0  0  0  0
  154.8430  214.4490  152.8940 C   0  0  0  0  0  3  0  0  0  0  0  0
  158.3500  213.1260  152.1100 C   0  0  0  0  0  2  0  0  0  0  0  0
  161.0030  213.7220  146.1390 C   0  0  0  0  0  2  0  0  0  0  0  0
  161.3830  212.0990  148.6250 O   0  0  0  0  0  0  0  0  0  0  0  0
  160.5340  213.3290  148.7770 S   0  0  0  0  0  0  0  0  0  0  0  0
  159.0690  213.8710  144.5380 N   0  0  0  0  0  0  0  0  0  0  0  0
  158.6380  212.6770  145.2670 C   0  0  0  0  0  2  0  0  0  0  0  0
  158.3910  214.1750  149.8250 C   0  0  1  0  0  3  0  0  0  0  0  0
  159.2110  212.9540  149.8310 N   0  0  2  0  0  0  0  0  0  0  0  0
  159.8890  213.8080  147.1740 C   0  0  2  0  0  3  0  0  0  0  0  0
  156.9290  213.7450  149.6820 C   0  0  0  0  0  2  0  0  0  0  0  0
  161.3760  214.4460  149.3290 O   0  0  0  0  0  0  0  0  0  0  0  0
  160.5090  214.0980  144.7330 C   0  0  0  0  0  2  0  0  0  0  0  0
  159.1700  213.8160  151.0240 C   0  0  2  0  0  3  0  0  0  0  0  0
  156.7190  212.9590  148.3840 C   0  0  0  0  0  2  0  0  0  0  0  0
  158.6630  212.9490  146.7730 C   0  0  1  0  0  3  0  0  0  0  0  0
  157.3540  213.6430  147.1660 C   0  0  0  0  0  2  0  0  0  0  0  0
  160.1260  213.1300  142.5460 N   0  0  0  0  0  1  0  0  0  0  0  0
  158.8790  213.5950  143.1220 C   0  0  0  0  0  2  0  0  0  0  0  0
  1 36  1  6  0  0  0
  2  4  1  0  0  0  0
  3  1  1  6  0  0  0
  3  2  1  0  0  0  0
  3  4  1  0  0  0  0
  5  6  2  0  0  0  0
  6  1  1  0  0  0  0
  7  6  1  0  0  0  0
  8 15  1  1  0  0  0
  8  7  1  0  0  0  0
  9 14  1  0  0  0  0
 11  9  1  6  0  0  0
 11 10  1  0  0  0  0
 11 12  1  0  0  0  0
 12 10  1  1  0  0  0
 12 13  1  0  0  0  0
 13  8  1  0  0  0  0
 14 13  1  0  0  0  0
 16 15  1  0  0  0  0
 17 16  1  0  0  0  0
 18 17  1  0  0  0  0
 20 19  1  1  0  0  0
 20 18  1  0  0  0  0
 21 22  1  6  0  0  0
 21 20  1  0  0  0  0
 23 24  1  1  0  0  0
 23 21  1  0  0  0  0
 23 26  1  0  0  0  0
 25 26  2  0  0  0  0
 26 27  1  0  0  0  0
 27 28  1  0  0  0  0
 28 29  1  1  0  0  0
 30 28  1  0  0  0  0
 30 31  2  0  0  0  0
 33 35  1  0  0  0  0
 33 32  1  0  0  0  0
 35 34  1  6  0  0  0
 35 32  1  0  0  0  0
 35 30  1  0  0  0  0
 36 37  1  0  0  0  0
 38 41  1  0  0  0  0
 38 37  1  0  0  0  0
 39 40  2  0  0  0  0
 41 39  1  0  0  0  0
 42 47  1  0  0  0  0
 43 47  1  0  0  0  0
 44 48  1  0  0  0  0
 45 49  2  0  0  0  0
 46 39  1  1  0  0  0
 46 42  1  0  0  0  0
 48 46  1  0  0  0  0
 48 43  2  0  0  0  0
 49 43  1  0  0  0  0
 50 44  2  0  0  0  0
 50 45  1  0  0  0  0
 51 41  1  0  0  0  0
 53 54  2  0  0  0  0
 54 61  2  0  0  0  0
 55 62  1  0  0  0  0
 55 56  1  0  0  0  0
 57 60  1  1  0  0  0
 57 58  1  0  0  0  0
 57 63  1  0  0  0  0
 58 54  1  6  0  0  0
 58 63  1  0  0  0  0
 59 52  1  6  0  0  0
 59 54  1  0  0  0  0
 62 52  1  0  0  0  0
 63 51  1  1  0  0  0
 64 60  1  0  0  0  0
 65 56  1  6  0  0  0
 65 66  1  0  0  0  0
 65 59  1  0  0  0  0
 66 64  1  0  0  0  0
 67 68  1  0  0  0  0
 68 55  1  0  0  0  0
M  END
>  <MODEL>
2

>  <REMARK>
 VINA RESULT:      -1.4      1.592      3.461
  Name = 
  24 active torsions:
  status: ('A' for Active; 'I' for Inactive)
    1  A    between atoms: C_1  and  C_28
    2  A    between atoms: C_3  and  O_16
    3  A    between atoms: C_3  and  C_24
    4  A    between atoms: C_4  and  O_16
    5  A    between atoms: C_4  and  C_63
    6  A    between atoms: C_5  and  C_26
    7  A    between atoms: C_5  and  C_55
    8  A    between atoms: C_5  and  C_61
    9  A    between atoms: C_10  and  N_35
   10  A    between atoms: C_10  and  C_52
   11  A    between atoms: N_14  and  C_65
   12  A    between atoms: C_21  and  C_33
   13  A    between atoms: C_21  and  N_60
   14  A    between atoms: C_24  and  C_57
   15  A    between atoms: C_26  and  S_51
   16  A    between atoms: C_29  and  C_48
   17  A    between atoms: C_29  and  C_63
   18  A    between atoms: C_33  and  C_54
   19  A    between atoms: N_35  and  C_58
   20  A    between atoms: C_40  and  C_48
   21  A    between atoms: S_51  and  C_57
   22  A    between atoms: N_56  and  C_57
   23  A    between atoms: C_58  and  C_66
   24  A    between atoms: C_61  and  C_66
                            x       y       z     vdW  Elec       q    Type
                         _______ _______ _______ _____ _____    ______ ____

>  <TORSDO>
F 24

$$$$
=
 OpenBabel11072410263D

 68 76  0  0  1  0  0  0  0  0999 V2000
  161.1580  210.3730  149.1220 C   0  0  2  0  0  3  0  0  0  0  0  0
  163.2750  209.2430  149.1800 O   0  0  0  0  0  0  0  0  0  0  0  0
  161.9910  209.2070  148.6040 C   0  0  2  0  0  3  0  0  0  0  0  0
  163.1610  209.7300  147.8650 C   0  0  0  0  0  2  0  0  0  0  0  0
  160.6680  211.4640  147.0640 O   0  0  0  0  0  0  0  0  0  0  0  0
  161.1690  211.5480  148.1760 C   0  0  0  0  0  0  0  0  0  0  0  0
  162.0250  213.0510  148.6580 S   0  0  0  0  0  0  0  0  0  0  0  0
  160.9860  214.1740  147.6460 C   0  0  2  0  0  3  0  0  0  0  0  0
  157.5990  213.3890  148.5960 C   0  0  0  0  0  2  0  0  0  0  0  0
  158.6820  214.4530  150.5670 C   0  0  0  0  0  2  0  0  0  0  0  0
  158.3610  213.1410  149.8740 C   0  0  2  0  0  3  0  0  0  0  0  0
  159.7130  213.8000  149.6670 C   0  0  1  0  0  3  0  0  0  0  0  0
  159.7230  214.4530  148.3500 N   0  0  0  0  0  0  0  0  0  0  0  0
  158.6400  213.8230  147.6000 C   0  0  0  0  0  2  0  0  0  0  0  0
  160.7510  213.4990  146.2930 C   0  0  0  0  0  2  0  0  0  0  0  0
  161.0620  214.4510  145.1430 C   0  0  0  0  0  2  0  0  0  0  0  0
  160.8460  213.8030  143.9240 O   0  0  0  0  0  0  0  0  0  0  0  0
  159.4760  213.9240  143.6800 C   0  0  0  0  0  2  0  0  0  0  0  0
  159.9230  214.3220  141.3570 O   0  0  0  0  0  1  0  0  0  0  0  0
  159.1470  213.5590  142.2380 C   0  0  1  0  0  3  0  0  0  0  0  0
  159.3980  212.0680  142.0180 C   0  0  2  0  0  3  0  0  0  0  0  0
  160.0780  211.5300  143.1150 O   0  0  0  0  0  1  0  0  0  0  0  0
  160.1750  211.8110  140.7240 C   0  0  1  0  0  3  0  0  0  0  0  0
  161.0810  210.7690  140.9140 O   0  0  0  0  0  1  0  0  0  0  0  0
  159.7270  210.8290  138.5820 O   0  0  0  0  0  0  0  0  0  0  0  0
  159.2750  211.4640  139.5760 C   0  0  0  0  0  0  0  0  0  0  0  0
  157.9260  211.9460  139.5750 N   0  0  0  0  0  2  0  0  0  0  0  0
  156.9730  211.6310  138.5150 C   0  0  2  0  0  3  0  0  0  0  0  0
  156.7150  212.8500  137.6360 C   0  0  0  0  0  1  0  0  0  0  0  0
  155.6890  211.1130  139.0910 C   0  0  0  0  0  0  0  0  0  0  0  0
  154.8820  211.9690  139.7130 C   0  0  0  0  0  2  0  0  0  0  0  0
  156.2550  208.9270  138.2790 O   0  0  0  0  0  0  0  0  0  0  0  0
  155.0750  209.1220  137.5220 C   0  0  0  0  0  2  0  0  0  0  0  0
  154.6670  209.0100  139.9440 O   0  0  0  0  0  1  0  0  0  0  0  0
  155.2410  209.6940  138.8760 C   0  0  2  0  0  0  0  0  0  0  0  0
  161.6830  210.7780  150.4990 C   0  0  0  0  0  2  0  0  0  0  0  0
  160.9220  210.0970  151.6290 C   0  0  0  0  0  2  0  0  0  0  0  0
  161.3220  208.6350  151.7530 C   0  0  0  0  0  2  0  0  0  0  0  0
  161.8710  208.9530  154.1800 C   0  0  0  0  0  0  0  0  0  0  0  0
  162.9210  209.6090  153.9030 O   0  0  0  0  0  0  0  0  0  0  0  0
  161.2110  208.2070  153.1390 N   0  0  0  0  0  0  0  0  0  0  0  0
  160.0850  208.0160  155.6250 C   0  0  0  0  0  2  0  0  0  0  0  0
  159.3690  210.2320  156.0600 C   0  0  0  0  0  0  0  0  0  0  0  0
  161.4510  211.4260  156.2790 C   0  0  0  0  0  3  0  0  0  0  0  0
  159.3250  212.5510  156.6960 C   0  0  0  0  0  3  0  0  0  0  0  0
  161.3070  208.9490  155.5780 C   0  0  2  0  0  3  0  0  0  0  0  0
  158.8230  208.8940  155.7630 C   0  0  0  0  0  2  0  0  0  0  0  0
  160.7400  210.2670  155.9760 C   0  0  0  0  0  0  0  0  0  0  0  0
  158.6310  211.3660  156.4090 C   0  0  0  0  0  3  0  0  0  0  0  0
  160.7310  212.5780  156.6400 C   0  0  0  0  0  3  0  0  0  0  0  0
  160.6300  206.8980  153.4210 C   0  0  0  0  0  2  0  0  0  0  0  0
  161.7400  201.5310  149.8140 C   0  0  0  0  0  2  0  0  0  0  0  0
  160.4300  202.2820  152.3990 O   0  0  0  0  0  0  0  0  0  0  0  0
  161.3440  203.3180  151.8100 S   0  0  0  0  0  0  0  0  0  0  0  0
  161.2120  202.1750  147.4420 N   0  0  0  0  0  0  0  0  0  0  0  0
  159.9770  202.6590  148.0630 C   0  0  0  0  0  2  0  0  0  0  0  0
  161.5340  205.8000  151.3480 C   0  0  1  0  0  3  0  0  0  0  0  0
  160.6280  204.8780  152.0490 N   0  0  2  0  0  0  0  0  0  0  0  0
  161.5260  203.0200  150.0510 C   0  0  2  0  0  3  0  0  0  0  0  0
  160.6680  206.7720  150.5440 C   0  0  0  0  0  2  0  0  0  0  0  0
  162.6900  203.2250  152.4740 O   0  0  0  0  0  0  0  0  0  0  0  0
  161.8810  201.2040  148.3190 C   0  0  0  0  0  2  0  0  0  0  0  0
  161.4890  205.7880  152.8210 C   0  0  2  0  0  3  0  0  0  0  0  0
  159.7960  206.0160  149.5360 C   0  0  0  0  0  2  0  0  0  0  0  0
  160.3130  203.5610  149.2530 C   0  0  1  0  0  3  0  0  0  0  0  0
  160.5860  204.9760  148.7300 C   0  0  0  0  0  2  0  0  0  0  0  0
  160.7190  202.3790  145.1280 N   0  0  0  0  0  1  0  0  0  0  0  0
  160.8250  201.4530  146.2390 C   0  0  0  0  0  2  0  0  0  0  0  0
  1 36  1  1  0  0  0
  3  1  1  1  0  0  0
  3  2  1  0  0  0  0
  4  3  1  0  0  0  0
  4  2  1  0  0  0  0
  5  6  2  0  0  0  0
  6  7  1  0  0  0  0
  6  1  1  0  0  0  0
  8 15  1  6  0  0  0
  8 13  1  0  0  0  0
  8  7  1  0  0  0  0
 11  9  1  6  0  0  0
 11 10  1  0  0  0  0
 12 11  1  0  0  0  0
 12 10  1  1  0  0  0
 13 12  1  0  0  0  0
 14 13  1  0  0  0  0
 14  9  1  0  0  0  0
 16 15  1  0  0  0  0
 17 16  1  0  0  0  0
 18 17  1  0  0  0  0
 20 19  1  6  0  0  0
 20 18  1  0  0  0  0
 21 20  1  0  0  0  0
 21 22  1  1  0  0  0
 23 24  1  1  0  0  0
 23 21  1  0  0  0  0
 25 26  2  0  0  0  0
 26 23  1  0  0  0  0
 27 26  1  0  0  0  0
 28 29  1  1  0  0  0
 28 30  1  0  0  0  0
 28 27  1  0  0  0  0
 30 31  2  0  0  0  0
 32 35  1  0  0  0  0
 33 32  1  0  0  0  0
 33 35  1  0  0  0  0
 35 30  1  0  0  0  0
 35 34  1  1  0  0  0
 36 37  1  0  0  0  0
 37 38  1  0  0  0  0
 38 41  1  0  0  0  0
 40 39  2  0  0  0  0
 41 51  1  0  0  0  0
 41 39  1  0  0  0  0
 42 47  1  0  0  0  0
 43 49  1  0  0  0  0
 44 50  2  0  0  0  0
 46 39  1  6  0  0  0
 46 42  1  0  0  0  0
 46 48  1  0  0  0  0
 47 43  1  0  0  0  0
 48 43  2  0  0  0  0
 48 44  1  0  0  0  0
 49 45  2  0  0  0  0
 50 45  1  0  0  0  0
 54 53  2  0  0  0  0
 54 61  2  0  0  0  0
 55 56  1  0  0  0  0
 55 62  1  0  0  0  0
 57 60  1  6  0  0  0
 57 58  1  0  0  0  0
 57 63  1  0  0  0  0
 58 54  1  1  0  0  0
 58 63  1  0  0  0  0
 59 52  1  1  0  0  0
 59 54  1  0  0  0  0
 62 52  1  0  0  0  0
 63 51  1  6  0  0  0
 64 60  1  0  0  0  0
 65 56  1  6  0  0  0
 65 59  1  0  0  0  0
 66 65  1  0  0  0  0
 66 64  1  0  0  0  0
 67 68  1  0  0  0  0
 68 55  1  0  0  0  0
M  END
>  <MODEL>
3

>  <REMARK>
 VINA RESULT:      -0.7      3.377      9.488
  Name = 
  24 active torsions:
  status: ('A' for Active; 'I' for Inactive)
    1  A    between atoms: C_1  and  C_28
    2  A    between atoms: C_3  and  O_16
    3  A    between atoms: C_3  and  C_24
    4  A    between atoms: C_4  and  O_16
    5  A    between atoms: C_4  and  C_63
    6  A    between atoms: C_5  and  C_26
    7  A    between atoms: C_5  and  C_55
    8  A    between atoms: C_5  and  C_61
    9  A    between atoms: C_10  and  N_35
   10  A    between atoms: C_10  and  C_52
   11  A    between atoms: N_14  and  C_65
   12  A    between atoms: C_21  and  C_33
   13  A    between atoms: C_21  and  N_60
   14  A    between atoms: C_24  and  C_57
   15  A    between atoms: C_26  and  S_51
   16  A    between atoms: C_29  and  C_48
   17  A    between atoms: C_29  and  C_63
   18  A    between atoms: C_33  and  C_54
   19  A    between atoms: N_35  and  C_58
   20  A    between atoms: C_40  and  C_48
   21  A    between atoms: S_51  and  C_57
   22  A    between atoms: N_56  and  C_57
   23  A    between atoms: C_58  and  C_66
   24  A    between atoms: C_61  and  C_66
                            x       y       z     vdW  Elec       q    Type
                         _______ _______ _______ _____ _____    ______ ____

>  <TORSDO>
F 24

$$$$
=
 OpenBabel11072410263D

 68 76  0  0  1  0  0  0  0  0999 V2000
  161.4410  210.5440  149.2040 C   0  0  2  0  0  3  0  0  0  0  0  0
  162.5420  209.2450  147.5140 O   0  0  0  0  0  0  0  0  0  0  0  0
  162.2230  209.2760  148.8840 C   0  0  2  0  0  3  0  0  0  0  0  0
  161.4530  208.4540  147.9240 C   0  0  0  0  0  2  0  0  0  0  0  0
  161.1230  211.3580  146.9910 O   0  0  0  0  0  0  0  0  0  0  0  0
  161.5570  211.5780  148.1130 C   0  0  0  0  0  0  0  0  0  0  0  0
  162.4390  213.1060  148.4450 S   0  0  0  0  0  0  0  0  0  0  0  0
  161.5870  214.0840  147.1490 C   0  0  2  0  0  3  0  0  0  0  0  0
  158.0220  213.5960  147.3670 C   0  0  0  0  0  2  0  0  0  0  0  0
  158.7780  214.4520  149.5770 C   0  0  0  0  0  2  0  0  0  0  0  0
  158.4890  213.2130  148.7500 C   0  0  2  0  0  3  0  0  0  0  0  0
  159.9070  213.7430  148.8540 C   0  0  1  0  0  3  0  0  0  0  0  0
  160.2380  214.4530  147.6100 N   0  0  0  0  0  0  0  0  0  0  0  0
  159.2760  213.9710  146.6240 C   0  0  0  0  0  2  0  0  0  0  0  0
  161.5450  213.2360  145.8760 C   0  0  0  0  0  2  0  0  0  0  0  0
  161.4520  214.1140  144.6340 C   0  0  0  0  0  2  0  0  0  0  0  0
  161.3300  213.3100  143.4970 O   0  0  0  0  0  0  0  0  0  0  0  0
  160.1330  213.7020  142.8950 C   0  0  0  0  0  2  0  0  0  0  0  0
  159.2310  211.6860  141.9600 O   0  0  0  0  0  1  0  0  0  0  0  0
  159.8670  212.8900  141.6340 C   0  0  1  0  0  3  0  0  0  0  0  0
  159.0040  213.7080  140.6720 C   0  0  2  0  0  3  0  0  0  0  0  0
  157.6550  213.5840  141.0160 O   0  0  0  0  0  1  0  0  0  0  0  0
  159.2310  213.2910  139.2170 C   0  0  1  0  0  3  0  0  0  0  0  0
  159.2840  214.4210  138.4030 O   0  0  0  0  0  1  0  0  0  0  0  0
  161.4540  212.9870  138.3690 O   0  0  0  0  0  0  0  0  0  0  0  0
  160.4950  212.5060  139.0360 C   0  0  0  0  0  0  0  0  0  0  0  0
  160.5650  211.1670  139.5420 N   0  0  0  0  0  2  0  0  0  0  0  0
  161.7640  210.3430  139.4390 C   0  0  2  0  0  3  0  0  0  0  0  0
  163.0000  211.2060  139.2050 C   0  0  0  0  0  1  0  0  0  0  0  0
  161.6180  209.3240  138.3470 C   0  0  0  0  0  0  0  0  0  0  0  0
  161.2390  209.7370  137.1410 C   0  0  0  0  0  2  0  0  0  0  0  0
  161.2160  207.2870  139.5510 O   0  0  0  0  0  0  0  0  0  0  0  0
  162.6010  207.4070  139.8180 C   0  0  0  0  0  2  0  0  0  0  0  0
  162.0990  207.0580  137.4360 O   0  0  0  0  0  1  0  0  0  0  0  0
  162.0030  207.8850  138.5520 C   0  0  2  0  0  0  0  0  0  0  0  0
  161.9340  211.1030  150.5380 C   0  0  0  0  0  2  0  0  0  0  0  0
  161.2030  210.4910  151.7260 C   0  0  0  0  0  2  0  0  0  0  0  0
  161.6550  209.0600  151.9680 C   0  0  0  0  0  2  0  0  0  0  0  0
  161.7190  209.3220  154.4610 C   0  0  0  0  0  0  0  0  0  0  0  0
  162.8400  209.9140  154.4160 O   0  0  0  0  0  0  0  0  0  0  0  0
  161.2400  208.6270  153.2940 N   0  0  0  0  0  0  0  0  0  0  0  0
  159.6450  208.4520  155.5100 C   0  0  0  0  0  2  0  0  0  0  0  0
  158.9350  210.6930  155.8050 C   0  0  0  0  0  0  0  0  0  0  0  0
  160.9720  211.8110  156.4480 C   0  0  0  0  0  3  0  0  0  0  0  0
  158.8470  213.0130  156.4330 C   0  0  0  0  0  3  0  0  0  0  0  0
  160.8840  209.3400  155.7170 C   0  0  2  0  0  3  0  0  0  0  0  0
  158.4130  209.3760  155.3960 C   0  0  0  0  0  2  0  0  0  0  0  0
  160.2950  210.6790  156.0010 C   0  0  0  0  0  0  0  0  0  0  0  0
  158.1840  211.8530  156.0060 C   0  0  0  0  0  3  0  0  0  0  0  0
  160.2350  212.9880  156.6630 C   0  0  0  0  0  3  0  0  0  0  0  0
  160.5380  207.3540  153.4250 C   0  0  0  0  0  2  0  0  0  0  0  0
  161.6890  201.7850  150.1510 C   0  0  0  0  0  2  0  0  0  0  0  0
  160.3330  202.6880  152.6630 O   0  0  0  0  0  0  0  0  0  0  0  0
  161.2630  203.6850  152.0340 S   0  0  0  0  0  0  0  0  0  0  0  0
  161.2090  202.2960  147.7360 N   0  0  0  0  0  0  0  0  0  0  0  0
  159.9660  202.8200  148.3050 C   0  0  0  0  0  2  0  0  0  0  0  0
  161.4770  206.1360  151.4350 C   0  0  1  0  0  3  0  0  0  0  0  0
  160.5520  205.2590  152.1700 N   0  0  2  0  0  0  0  0  0  0  0  0
  161.4780  203.2860  150.2990 C   0  0  2  0  0  3  0  0  0  0  0  0
  160.6310  207.0650  150.5610 C   0  0  0  0  0  2  0  0  0  0  0  0
  162.5960  203.6240  152.7280 O   0  0  0  0  0  0  0  0  0  0  0  0
  161.8560  201.3730  148.6800 C   0  0  0  0  0  2  0  0  0  0  0  0
  161.4030  206.2080  152.9060 C   0  0  2  0  0  3  0  0  0  0  0  0
  159.7750  206.2560  149.5800 C   0  0  0  0  0  2  0  0  0  0  0  0
  160.2840  203.7870  149.4480 C   0  0  1  0  0  3  0  0  0  0  0  0
  160.5740  205.1690  148.8510 C   0  0  0  0  0  2  0  0  0  0  0  0
  160.9250  202.3330  145.3790 N   0  0  0  0  0  1  0  0  0  0  0  0
  160.8420  201.5080  146.5690 C   0  0  0  0  0  2  0  0  0  0  0  0
  1 36  1  1  0  0  0
  2  4  1  0  0  0  0
  2  3  1  0  0  0  0
  3  1  1  6  0  0  0
  4  3  1  0  0  0  0
  5  6  2  0  0  0  0
  6  7  1  0  0  0  0
  6  1  1  0  0  0  0
  8 15  1  6  0  0  0
  8 13  1  0  0  0  0
  8  7  1  0  0  0  0
 11  9  1  6  0  0  0
 11 12  1  0  0  0  0
 11 10  1  0  0  0  0
 12 10  1  1  0  0  0
 13 12  1  0  0  0  0
 14  9  1  0  0  0  0
 14 13  1  0  0  0  0
 16 15  1  0  0  0  0
 17 16  1  0  0  0  0
 18 17  1  0  0  0  0
 20 19  1  1  0  0  0
 20 18  1  0  0  0  0
 21 22  1  1  0  0  0
 21 20  1  0  0  0  0
 23 24  1  6  0  0  0
 23 21  1  0  0  0  0
 25 26  2  0  0  0  0
 26 23  1  0  0  0  0
 26 27  1  0  0  0  0
 28 29  1  6  0  0  0
 28 27  1  0  0  0  0
 30 35  1  0  0  0  0
 30 28  1  0  0  0  0
 31 30  2  0  0  0  0
 32 33  1  0  0  0  0
 35 34  1  6  0  0  0
 35 32  1  0  0  0  0
 35 33  1  0  0  0  0
 36 37  1  0  0  0  0
 37 38  1  0  0  0  0
 38 41  1  0  0  0  0
 40 39  2  0  0  0  0
 41 51  1  0  0  0  0
 41 39  1  0  0  0  0
 42 46  1  0  0  0  0
 43 48  2  0  0  0  0
 43 49  1  0  0  0  0
 44 50  2  0  0  0  0
 45 50  1  0  0  0  0
 46 39  1  6  0  0  0
 46 48  1  0  0  0  0
 47 42  1  0  0  0  0
 47 43  1  0  0  0  0
 48 44  1  0  0  0  0
 49 45  2  0  0  0  0
 54 53  2  0  0  0  0
 54 61  2  0  0  0  0
 55 56  1  0  0  0  0
 55 62  1  0  0  0  0
 57 60  1  6  0  0  0
 57 58  1  0  0  0  0
 57 63  1  0  0  0  0
 58 54  1  1  0  0  0
 58 63  1  0  0  0  0
 59 52  1  1  0  0  0
 59 54  1  0  0  0  0
 62 52  1  0  0  0  0
 63 51  1  6  0  0  0
 64 60  1  0  0  0  0
 65 56  1  6  0  0  0
 65 59  1  0  0  0  0
 66 65  1  0  0  0  0
 66 64  1  0  0  0  0
 67 68  1  0  0  0  0
 68 55  1  0  0  0  0
M  END
>  <MODEL>
4

>  <REMARK>
 VINA RESULT:      -0.7      3.442      9.340
  Name = 
  24 active torsions:
  status: ('A' for Active; 'I' for Inactive)
    1  A    between atoms: C_1  and  C_28
    2  A    between atoms: C_3  and  O_16
    3  A    between atoms: C_3  and  C_24
    4  A    between atoms: C_4  and  O_16
    5  A    between atoms: C_4  and  C_63
    6  A    between atoms: C_5  and  C_26
    7  A    between atoms: C_5  and  C_55
    8  A    between atoms: C_5  and  C_61
    9  A    between atoms: C_10  and  N_35
   10  A    between atoms: C_10  and  C_52
   11  A    between atoms: N_14  and  C_65
   12  A    between atoms: C_21  and  C_33
   13  A    between atoms: C_21  and  N_60
   14  A    between atoms: C_24  and  C_57
   15  A    between atoms: C_26  and  S_51
   16  A    between atoms: C_29  and  C_48
   17  A    between atoms: C_29  and  C_63
   18  A    between atoms: C_33  and  C_54
   19  A    between atoms: N_35  and  C_58
   20  A    between atoms: C_40  and  C_48
   21  A    between atoms: S_51  and  C_57
   22  A    between atoms: N_56  and  C_57
   23  A    between atoms: C_58  and  C_66
   24  A    between atoms: C_61  and  C_66
                            x       y       z     vdW  Elec       q    Type
                         _______ _______ _______ _____ _____    ______ ____

>  <TORSDO>
F 24

$$$$
=
 OpenBabel11072410263D

 68 76  0  0  1  0  0  0  0  0999 V2000
  160.8440  204.8630  150.5250 C   0  0  2  0  0  3  0  0  0  0  0  0
  161.1840  202.8350  151.7610 O   0  0  0  0  0  0  0  0  0  0  0  0
  161.7750  204.0690  151.4310 C   0  0  2  0  0  3  0  0  0  0  0  0
  161.1170  203.8450  152.7370 C   0  0  0  0  0  2  0  0  0  0  0  0
  162.5170  204.7530  148.8370 O   0  0  0  0  0  0  0  0  0  0  0  0
  161.3330  204.9090  149.1000 C   0  0  0  0  0  0  0  0  0  0  0  0
  160.1730  205.3030  147.7880 S   0  0  0  0  0  0  0  0  0  0  0  0
  160.8530  204.0970  146.5850 C   0  0  2  0  0  3  0  0  0  0  0  0
  161.6430  200.7990  147.8080 C   0  0  0  0  0  2  0  0  0  0  0  0
  159.4540  201.4410  148.8020 C   0  0  0  0  0  2  0  0  0  0  0  0
  160.9600  201.4320  148.9950 C   0  0  2  0  0  3  0  0  0  0  0  0
  160.2720  202.6690  148.4480 C   0  0  1  0  0  3  0  0  0  0  0  0
  160.4940  202.7290  146.9960 N   0  0  0  0  0  0  0  0  0  0  0  0
  161.6450  201.8660  146.7460 C   0  0  0  0  0  2  0  0  0  0  0  0
  162.3690  204.2990  146.5290 C   0  0  0  0  0  2  0  0  0  0  0  0
  162.8310  204.5920  145.1060 C   0  0  0  0  0  2  0  0  0  0  0  0
  162.1180  205.6800  144.5950 O   0  0  0  0  0  0  0  0  0  0  0  0
  162.9110  206.1880  143.5640 C   0  0  0  0  0  2  0  0  0  0  0  0
  160.8760  206.0300  142.3040 O   0  0  0  0  0  1  0  0  0  0  0  0
  162.2690  205.9300  142.2060 C   0  0  1  0  0  3  0  0  0  0  0  0
  162.8080  206.9340  141.1880 C   0  0  2  0  0  3  0  0  0  0  0  0
  162.0530  208.1100  141.2290 O   0  0  0  0  0  1  0  0  0  0  0  0
  162.8200  206.3510  139.7720 C   0  0  1  0  0  3  0  0  0  0  0  0
  162.1090  205.1520  139.7470 O   0  0  0  0  0  1  0  0  0  0  0  0
  162.6160  207.2590  137.5610 O   0  0  0  0  0  0  0  0  0  0  0  0
  162.2250  207.2850  138.7620 C   0  0  0  0  0  0  0  0  0  0  0  0
  161.2820  208.2730  139.1940 N   0  0  0  0  0  2  0  0  0  0  0  0
  160.6300  209.2020  138.2770 C   0  0  2  0  0  3  0  0  0  0  0  0
  161.6540  210.1120  137.6050 C   0  0  0  0  0  1  0  0  0  0  0  0
  159.5900  210.0140  138.9900 C   0  0  0  0  0  0  0  0  0  0  0  0
  158.3200  209.6270  138.9100 C   0  0  0  0  0  2  0  0  0  0  0  0
  158.8240  211.9110  140.2430 O   0  0  0  0  0  0  0  0  0  0  0  0
  159.7910  212.5730  139.4490 C   0  0  0  0  0  2  0  0  0  0  0  0
  160.7650  210.9210  140.9880 O   0  0  0  0  0  1  0  0  0  0  0  0
  159.9590  211.1680  139.8800 C   0  0  2  0  0  0  0  0  0  0  0  0
  160.6900  206.2740  151.0930 C   0  0  0  0  0  2  0  0  0  0  0  0
  161.8800  206.6830  151.9500 C   0  0  0  0  0  2  0  0  0  0  0  0
  162.4570  208.0110  151.4870 C   0  0  0  0  0  2  0  0  0  0  0  0
  161.4690  208.7190  153.6810 C   0  0  0  0  0  0  0  0  0  0  0  0
  160.7270  207.6910  153.7310 O   0  0  0  0  0  0  0  0  0  0  0  0
  162.1260  209.0560  152.4450 N   0  0  0  0  0  0  0  0  0  0  0  0
  161.7110  208.6920  156.1500 C   0  0  0  0  0  2  0  0  0  0  0  0
  159.8170  210.1080  156.2840 C   0  0  0  0  0  0  0  0  0  0  0  0
  160.1570  211.6190  154.4370 C   0  0  0  0  0  3  0  0  0  0  0  0
  158.2910  211.9420  155.9780 C   0  0  0  0  0  3  0  0  0  0  0  0
  161.6720  209.5850  154.8990 C   0  0  2  0  0  3  0  0  0  0  0  0
  160.4060  208.9270  156.9410 C   0  0  0  0  0  2  0  0  0  0  0  0
  160.5180  210.4880  155.1660 C   0  0  0  0  0  0  0  0  0  0  0  0
  158.6890  210.8140  156.7100 C   0  0  0  0  0  3  0  0  0  0  0  0
  159.0300  212.3490  154.8510 C   0  0  0  0  0  3  0  0  0  0  0  0
  162.2530  210.4500  152.0290 C   0  0  0  0  0  2  0  0  0  0  0  0
  158.6810  214.2250  148.0240 C   0  0  0  0  0  2  0  0  0  0  0  0
  160.1510  214.4500  150.6220 O   0  0  0  0  0  0  0  0  0  0  0  0
  159.8820  213.0500  150.1480 S   0  0  0  0  0  0  0  0  0  0  0  0
  159.4970  213.7250  145.6980 N   0  0  0  0  0  0  0  0  0  0  0  0
  160.7990  213.9730  146.3210 C   0  0  0  0  0  2  0  0  0  0  0  0
  160.9550  210.7710  149.8990 C   0  0  1  0  0  3  0  0  0  0  0  0
  161.2730  212.0770  150.4940 N   0  0  2  0  0  0  0  0  0  0  0  0
  159.6030  213.0660  148.3770 C   0  0  2  0  0  3  0  0  0  0  0  0
  162.2020  210.2900  149.1530 C   0  0  0  0  0  2  0  0  0  0  0  0
  158.6570  212.5210  150.8410 O   0  0  0  0  0  0  0  0  0  0  0  0
  158.4210  214.3090  146.5110 C   0  0  0  0  0  2  0  0  0  0  0  0
  160.9660  210.9310  151.3640 C   0  0  2  0  0  3  0  0  0  0  0  0
  162.5990  211.2890  148.0610 C   0  0  0  0  0  2  0  0  0  0  0  0
  160.9370  213.1290  147.5910 C   0  0  1  0  0  3  0  0  0  0  0  0
  161.4100  211.7260  147.1950 C   0  0  0  0  0  2  0  0  0  0  0  0
  160.0260  213.5790  143.3880 N   0  0  0  0  0  1  0  0  0  0  0  0
  159.4930  214.4370  144.4280 C   0  0  0  0  0  2  0  0  0  0  0  0
  1 36  1  1  0  0  0
  2  4  1  0  0  0  0
  3  1  1  6  0  0  0
  3  2  1  0  0  0  0
  3  4  1  0  0  0  0
  5  6  2  0  0  0  0
  6  1  1  0  0  0  0
  7  6  1  0  0  0  0
  8 15  1  1  0  0  0
  8 13  1  0  0  0  0
  8  7  1  0  0  0  0
 10 11  1  0  0  0  0
 11  9  1  6  0  0  0
 12 10  1  6  0  0  0
 12 11  1  0  0  0  0
 13 12  1  0  0  0  0
 14 13  1  0  0  0  0
 14  9  1  0  0  0  0
 16 15  1  0  0  0  0
 17 16  1  0  0  0  0
 18 17  1  0  0  0  0
 20 19  1  1  0  0  0
 20 18  1  0  0  0  0
 21 22  1  6  0  0  0
 21 20  1  0  0  0  0
 23 24  1  1  0  0  0
 23 21  1  0  0  0  0
 25 26  2  0  0  0  0
 26 27  1  0  0  0  0
 26 23  1  0  0  0  0
 28 29  1  1  0  0  0
 28 30  1  0  0  0  0
 28 27  1  0  0  0  0
 30 35  1  0  0  0  0
 31 30  2  0  0  0  0
 33 35  1  0  0  0  0
 33 32  1  0  0  0  0
 35 32  1  0  0  0  0
 35 34  1  1  0  0  0
 36 37  1  0  0  0  0
 38 37  1  0  0  0  0
 38 41  1  0  0  0  0
 39 40  2  0  0  0  0
 41 39  1  0  0  0  0
 42 47  1  0  0  0  0
 43 49  1  0  0  0  0
 43 47  1  0  0  0  0
 44 50  2  0  0  0  0
 44 48  1  0  0  0  0
 45 49  2  0  0  0  0
 46 39  1  6  0  0  0
 46 48  1  0  0  0  0
 46 42  1  0  0  0  0
 48 43  2  0  0  0  0
 50 45  1  0  0  0  0
 51 41  1  0  0  0  0
 54 53  2  0  0  0  0
 54 61  2  0  0  0  0
 55 56  1  0  0  0  0
 55 62  1  0  0  0  0
 57 60  1  1  0  0  0
 57 58  1  0  0  0  0
 57 63  1  0  0  0  0
 58 54  1  6  0  0  0
 58 63  1  0  0  0  0
 59 52  1  1  0  0  0
 59 54  1  0  0  0  0
 62 52  1  0  0  0  0
 63 51  1  1  0  0  0
 64 60  1  0  0  0  0
 65 56  1  6  0  0  0
 65 59  1  0  0  0  0
 66 65  1  0  0  0  0
 66 64  1  0  0  0  0
 67 68  1  0  0  0  0
 68 55  1  0  0  0  0
M  END
>  <MODEL>
5

>  <REMARK>
 VINA RESULT:       0.1      3.132      6.200
  Name = 
  24 active torsions:
  status: ('A' for Active; 'I' for Inactive)
    1  A    between atoms: C_1  and  C_28
    2  A    between atoms: C_3  and  O_16
    3  A    between atoms: C_3  and  C_24
    4  A    between atoms: C_4  and  O_16
    5  A    between atoms: C_4  and  C_63
    6  A    between atoms: C_5  and  C_26
    7  A    between atoms: C_5  and  C_55
    8  A    between atoms: C_5  and  C_61
    9  A    between atoms: C_10  and  N_35
   10  A    between atoms: C_10  and  C_52
   11  A    between atoms: N_14  and  C_65
   12  A    between atoms: C_21  and  C_33
   13  A    between atoms: C_21  and  N_60
   14  A    between atoms: C_24  and  C_57
   15  A    between atoms: C_26  and  S_51
   16  A    between atoms: C_29  and  C_48
   17  A    between atoms: C_29  and  C_63
   18  A    between atoms: C_33  and  C_54
   19  A    between atoms: N_35  and  C_58
   20  A    between atoms: C_40  and  C_48
   21  A    between atoms: S_51  and  C_57
   22  A    between atoms: N_56  and  C_57
   23  A    between atoms: C_58  and  C_66
   24  A    between atoms: C_61  and  C_66
                            x       y       z     vdW  Elec       q    Type
                         _______ _______ _______ _____ _____    ______ ____

>  <TORSDO>
F 24

$$$$
=
 OpenBabel11072410263D

 68 76  0  0  1  0  0  0  0  0999 V2000
  161.1870  208.1870  148.9940 C   0  0  2  0  0  3  0  0  0  0  0  0
  160.0280  206.8220  150.5920 O   0  0  0  0  0  0  0  0  0  0  0  0
  161.1890  207.5940  150.3980 C   0  0  2  0  0  3  0  0  0  0  0  0
  160.0270  208.1140  151.1510 C   0  0  0  0  0  2  0  0  0  0  0  0
  162.7130  207.3360  147.3790 O   0  0  0  0  0  0  0  0  0  0  0  0
  161.6430  207.1950  147.9540 C   0  0  0  0  0  0  0  0  0  0  0  0
  160.5480  205.8520  147.4850 S   0  0  0  0  0  0  0  0  0  0  0  0
  161.8850  204.6330  147.1850 C   0  0  2  0  0  3  0  0  0  0  0  0
  160.3730  203.2480  144.2200 C   0  0  0  0  0  2  0  0  0  0  0  0
  161.7890  205.1600  143.4920 C   0  0  0  0  0  2  0  0  0  0  0  0
  160.3970  204.7250  143.9140 C   0  0  2  0  0  3  0  0  0  0  0  0
  161.3460  205.3290  144.9330 C   0  0  1  0  0  3  0  0  0  0  0  0
  161.8970  204.2490  145.7630 N   0  0  0  0  0  0  0  0  0  0  0  0
  160.9800  203.1260  145.5920 C   0  0  0  0  0  2  0  0  0  0  0  0
  161.6370  203.4330  148.1010 C   0  0  0  0  0  2  0  0  0  0  0  0
  160.8970  203.8520  149.3660 C   0  0  0  0  0  2  0  0  0  0  0  0
  160.3010  202.7340  149.9540 O   0  0  0  0  0  0  0  0  0  0  0  0
  160.9620  202.5600  151.1710 C   0  0  0  0  0  2  0  0  0  0  0  0
  160.4570  202.9900  153.4770 O   0  0  0  0  0  1  0  0  0  0  0  0
  160.4780  203.5710  152.2030 C   0  0  1  0  0  3  0  0  0  0  0  0
  161.3950  204.7940  152.1880 C   0  0  2  0  0  3  0  0  0  0  0  0
  162.6570  204.4410  151.7020 O   0  0  0  0  0  1  0  0  0  0  0  0
  161.5090  205.4310  153.5760 C   0  0  1  0  0  3  0  0  0  0  0  0
  162.5910  204.8810  154.2620 O   0  0  0  0  0  1  0  0  0  0  0  0
  162.7540  207.4140  153.0540 O   0  0  0  0  0  0  0  0  0  0  0  0
  161.6860  206.9180  153.5110 C   0  0  0  0  0  0  0  0  0  0  0  0
  160.6720  207.7670  154.0620 N   0  0  0  0  0  2  0  0  0  0  0  0
  160.7460  209.2240  154.0150 C   0  0  2  0  0  3  0  0  0  0  0  0
  162.1940  209.6980  154.0740 C   0  0  0  0  0  1  0  0  0  0  0  0
  159.9450  209.8340  155.1270 C   0  0  0  0  0  0  0  0  0  0  0  0
  158.6490  209.5450  155.2070 C   0  0  0  0  0  2  0  0  0  0  0  0
  159.6440  211.4660  156.8600 O   0  0  0  0  0  0  0  0  0  0  0  0
  160.6580  212.1340  156.1310 C   0  0  0  0  0  2  0  0  0  0  0  0
  161.4140  210.0170  157.1280 O   0  0  0  0  0  1  0  0  0  0  0  0
  160.5890  210.6570  156.2070 C   0  0  2  0  0  0  0  0  0  0  0  0
  162.0730  209.4320  148.9850 C   0  0  0  0  0  2  0  0  0  0  0  0
  161.3480  210.6510  148.4310 C   0  0  0  0  0  2  0  0  0  0  0  0
  162.3130  211.5840  147.7170 C   0  0  0  0  0  2  0  0  0  0  0  0
  162.1000  212.9380  145.6170 C   0  0  0  0  0  0  0  0  0  0  0  0
  163.3550  212.9370  145.4350 O   0  0  0  0  0  0  0  0  0  0  0  0
  161.5720  212.5260  146.8920 N   0  0  0  0  0  0  0  0  0  0  0  0
  159.7800  212.7250  144.7620 C   0  0  0  0  0  2  0  0  0  0  0  0
  160.6740  211.8520  142.7490 C   0  0  0  0  0  0  0  0  0  0  0  0
  162.6250  213.2250  142.4010 C   0  0  0  0  0  3  0  0  0  0  0  0
  161.9500  211.5780  140.7290 C   0  0  0  0  0  3  0  0  0  0  0  0
  161.1590  213.3610  144.5170 C   0  0  2  0  0  3  0  0  0  0  0  0
  159.5700  211.6240  143.7000 C   0  0  0  0  0  2  0  0  0  0  0  0
  161.5470  212.8210  143.1840 C   0  0  0  0  0  0  0  0  0  0  0  0
  160.8570  211.2050  141.5250 C   0  0  0  0  0  3  0  0  0  0  0  0
  162.8250  212.5930  141.1620 C   0  0  0  0  0  3  0  0  0  0  0  0
  160.4250  213.2150  147.4770 C   0  0  0  0  0  2  0  0  0  0  0  0
  157.6460  213.1460  153.4200 C   0  0  0  0  0  2  0  0  0  0  0  0
  159.9630  214.4310  152.0270 O   0  0  0  0  0  0  0  0  0  0  0  0
  159.3520  213.2550  151.3200 S   0  0  0  0  0  0  0  0  0  0  0  0
  155.1690  213.3260  153.0220 N   0  0  0  0  0  0  0  0  0  0  0  0
  155.5910  214.4530  152.1880 C   0  0  0  0  0  2  0  0  0  0  0  0
  158.6110  212.4450  149.0390 C   0  0  1  0  0  3  0  0  0  0  0  0
  159.3200  213.5950  149.6210 N   0  0  2  0  0  0  0  0  0  0  0  0
  157.6730  213.0180  151.9020 C   0  0  2  0  0  3  0  0  0  0  0  0
  157.6060  212.9920  148.0220 C   0  0  0  0  0  2  0  0  0  0  0  0
  160.1630  212.0240  151.6170 O   0  0  0  0  0  0  0  0  0  0  0  0
  156.2260  212.9760  153.9830 C   0  0  0  0  0  2  0  0  0  0  0  0
  160.0620  212.6020  148.8260 C   0  0  2  0  0  3  0  0  0  0  0  0
  156.6110  213.9400  148.7000 C   0  0  0  0  0  2  0  0  0  0  0  0
  156.6900  214.0030  151.2220 C   0  0  1  0  0  3  0  0  0  0  0  0
  156.0290  213.3620  149.9960 C   0  0  0  0  0  2  0  0  0  0  0  0
  154.4970  214.3840  155.0390 N   0  0  0  0  0  1  0  0  0  0  0  0
  154.0300  213.7820  153.8060 C   0  0  0  0  0  2  0  0  0  0  0  0
  1 36  1  1  0  0  0
  2  4  1  0  0  0  0
  3  1  1  6  0  0  0
  3  2  1  0  0  0  0
  3  4  1  0  0  0  0
  5  6  2  0  0  0  0
  6  1  1  0  0  0  0
  7  6  1  0  0  0  0
  8  7  1  0  0  0  0
  8 15  1  1  0  0  0
  9 14  1  0  0  0  0
 11 10  1  6  0  0  0
 11  9  1  0  0  0  0
 11 12  1  0  0  0  0
 12 10  1  6  0  0  0
 12 13  1  0  0  0  0
 13  8  1  0  0  0  0
 14 13  1  0  0  0  0
 15 16  1  0  0  0  0
 16 17  1  0  0  0  0
 17 18  1  0  0  0  0
 18 20  1  0  0  0  0
 20 19  1  1  0  0  0
 21 22  1  1  0  0  0
 21 20  1  0  0  0  0
 21 23  1  0  0  0  0
 23 24  1  6  0  0  0
 25 26  2  0  0  0  0
 26 23  1  0  0  0  0
 26 27  1  0  0  0  0
 28 27  1  0  0  0  0
 28 29  1  1  0  0  0
 28 30  1  0  0  0  0
 30 31  2  0  0  0  0
 30 35  1  0  0  0  0
 33 35  1  0  0  0  0
 33 32  1  0  0  0  0
 35 32  1  0  0  0  0
 35 34  1  1  0  0  0
 37 36  1  0  0  0  0
 38 37  1  0  0  0  0
 39 41  1  0  0  0  0
 40 39  2  0  0  0  0
 41 51  1  0  0  0  0
 41 38  1  0  0  0  0
 43 48  1  0  0  0  0
 43 47  1  0  0  0  0
 44 48  2  0  0  0  0
 45 50  2  0  0  0  0
 45 49  1  0  0  0  0
 46 42  1  0  0  0  0
 46 39  1  1  0  0  0
 47 42  1  0  0  0  0
 48 46  1  0  0  0  0
 49 43  2  0  0  0  0
 50 44  1  0  0  0  0
 52 62  1  0  0  0  0
 54 61  2  0  0  0  0
 54 59  1  0  0  0  0
 54 53  2  0  0  0  0
 55 68  1  0  0  0  0
 55 62  1  0  0  0  0
 56 55  1  0  0  0  0
 57 60  1  6  0  0  0
 57 58  1  0  0  0  0
 58 54  1  1  0  0  0
 59 52  1  1  0  0  0
 60 64  1  0  0  0  0
 63 51  1  6  0  0  0
 63 57  1  0  0  0  0
 63 58  1  0  0  0  0
 64 66  1  0  0  0  0
 65 66  1  6  0  0  0
 65 59  1  0  0  0  0
 65 56  1  0  0  0  0
 68 67  1  0  0  0  0
M  END
>  <MODEL>
6

>  <REMARK>
 VINA RESULT:       0.4      2.478      8.517
  Name = 
  24 active torsions:
  status: ('A' for Active; 'I' for Inactive)
    1  A    between atoms: C_1  and  C_28
    2  A    between atoms: C_3  and  O_16
    3  A    between atoms: C_3  and  C_24
    4  A    between atoms: C_4  and  O_16
    5  A    between atoms: C_4  and  C_63
    6  A    between atoms: C_5  and  C_26
    7  A    between atoms: C_5  and  C_55
    8  A    between atoms: C_5  and  C_61
    9  A    between atoms: C_10  and  N_35
   10  A    between atoms: C_10  and  C_52
   11  A    between atoms: N_14  and  C_65
   12  A    between atoms: C_21  and  C_33
   13  A    between atoms: C_21  and  N_60
   14  A    between atoms: C_24  and  C_57
   15  A    between atoms: C_26  and  S_51
   16  A    between atoms: C_29  and  C_48
   17  A    between atoms: C_29  and  C_63
   18  A    between atoms: C_33  and  C_54
   19  A    between atoms: N_35  and  C_58
   20  A    between atoms: C_40  and  C_48
   21  A    between atoms: S_51  and  C_57
   22  A    between atoms: N_56  and  C_57
   23  A    between atoms: C_58  and  C_66
   24  A    between atoms: C_61  and  C_66
                            x       y       z     vdW  Elec       q    Type
                         _______ _______ _______ _____ _____    ______ ____

>  <TORSDO>
F 24

$$$$
