=
 OpenBabel11072410443D

 38 41  0  0  1  0  0  0  0  0999 V2000
  160.9450  210.3570  156.5120 N   0  0  0  0  0  1  0  0  0  0  0  0
  161.5530  208.9380  151.9960 C   0  0  1  0  0  3  0  0  0  0  0  0
  159.4590  210.1230  152.8460 C   0  0  0  0  0  2  0  0  0  0  0  0
  161.5680  208.2230  155.5640 C   0  0  0  0  0  2  0  0  0  0  0  0
  160.9850  210.1490  152.7810 C   0  0  1  0  0  0  0  0  0  0  0  0
  160.0570  212.2420  151.8690 C   0  0  1  0  0  3  0  0  0  0  0  0
  160.8680  207.0650  154.8370 C   0  0  0  0  0  2  0  0  0  0  0  0
  160.8920  209.5580  155.3030 C   0  0  2  0  0  3  0  0  0  0  0  0
  159.0150  211.5620  152.7340 C   0  0  0  0  0  2  0  0  0  0  0  0
  161.6720  207.6310  152.8020 C   0  0  1  0  0  3  0  0  0  0  0  0
  160.4920  207.3720  153.5140 O   0  0  0  0  0  0  0  0  0  0  0  0
  161.6150  210.3050  154.1810 C   0  0  0  0  0  2  0  0  0  0  0  0
  161.3270  211.4170  152.0080 C   0  0  0  0  0  2  0  0  0  0  0  0
  161.1060  205.6640  151.4230 C   0  0  0  0  0  3  0  0  0  0  0  0
  162.0390  206.4740  151.9240 C   0  0  0  0  0  3  0  0  0  0  0  0
  161.4500  204.4910  150.5440 C   0  0  2  0  0  3  0  0  0  0  0  0
  160.6300  205.9500  148.6860 C   0  0  0  0  0  3  0  0  0  0  0  0
  160.9280  205.3490  146.3590 C   0  0  0  0  0  3  0  0  0  0  0  0
  161.7420  203.8800  148.1000 C   0  0  0  0  0  3  0  0  0  0  0  0
  161.5700  204.1690  146.7440 C   0  0  0  0  0  3  0  0  0  0  0  0
  160.4580  206.2400  147.3300 C   0  0  0  0  0  3  0  0  0  0  0  0
  161.2710  204.7700  149.0790 C   0  0  0  0  0  0  0  0  0  0  0  0
  160.4020  202.3690  150.1340 O   0  0  0  0  0  0  0  0  0  0  0  0
  160.7910  203.2170  150.9800 C   0  0  0  0  0  0  0  0  0  0  0  0
  160.6070  202.9720  152.3340 O   0  0  0  0  0  1  0  0  0  0  0  0
  161.7880  208.8830  149.7880 C   0  0  0  0  0  1  0  0  0  0  0  0
  160.8400  208.7350  150.8050 O   0  0  0  0  0  0  0  0  0  0  0  0
  159.6350  212.2300  150.5080 O   0  0  0  0  0  0  0  0  0  0  0  0
  162.4090  212.8360  148.1150 C   0  0  0  0  0  0  0  0  0  0  0  0
  160.6240  214.3970  147.6530 C   0  0  0  0  0  3  0  0  0  0  0  0
  163.6740  212.3270  147.8400 O   0  0  0  0  0  1  0  0  0  0  0  0
  161.6590  212.2940  149.1580 C   0  0  0  0  0  3  0  0  0  0  0  0
  161.8880  213.8870  147.3570 C   0  0  0  0  0  0  0  0  0  0  0  0
  159.8610  213.8710  148.7020 C   0  0  0  0  0  0  0  0  0  0  0  0
  160.3830  212.7970  149.4670 C   0  0  0  0  0  0  0  0  0  0  0  0
  162.6250  214.4350  146.3130 O   0  0  0  0  0  1  0  0  0  0  0  0
  158.6050  214.4520  148.9330 O   0  0  0  0  0  0  0  0  0  0  0  0
  157.4600  214.2520  148.1180 C   0  0  0  0  0  1  0  0  0  0  0  0
  2 27  1  6  0  0  0
  2  5  1  0  0  0  0
  2 10  1  0  0  0  0
  5 13  1  6  0  0  0
  5  3  1  0  0  0  0
  5 12  1  0  0  0  0
  6 28  1  6  0  0  0
  6 13  1  0  0  0  0
  6  9  1  0  0  0  0
  7  4  1  0  0  0  0
  8  4  1  0  0  0  0
  8  1  1  1  0  0  0
  9  3  1  0  0  0  0
 10 15  1  6  0  0  0
 10 11  1  0  0  0  0
 11  7  1  0  0  0  0
 12  8  1  0  0  0  0
 14 15  2  0  0  0  0
 16 24  1  0  0  0  0
 16 14  1  1  0  0  0
 17 22  1  0  0  0  0
 18 20  2  0  0  0  0
 18 21  1  0  0  0  0
 19 22  2  0  0  0  0
 20 19  1  0  0  0  0
 21 17  2  0  0  0  0
 22 16  1  0  0  0  0
 23 24  2  0  0  0  0
 24 25  1  0  0  0  0
 26 27  1  0  0  0  0
 29 32  1  0  0  0  0
 30 34  2  0  0  0  0
 31 29  1  0  0  0  0
 32 35  2  0  0  0  0
 33 30  1  0  0  0  0
 33 29  2  0  0  0  0
 34 37  1  0  0  0  0
 34 35  1  0  0  0  0
 35 28  1  0  0  0  0
 36 33  1  0  0  0  0
 38 37  1  0  0  0  0
M  END
>  <MODEL>
1

>  <REMARK>
 VINA RESULT:      -7.5      0.000      0.000
  Name = 
  8 active torsions:
  status: ('A' for Active; 'I' for Inactive)
    1  A    between atoms: C_4  and  C_18
    2  A    between atoms: C_4  and  C_23
    3  A    between atoms: C_4  and  C_37
    4  A    between atoms: C_6  and  O_28
    5  A    between atoms: O_8  and  C_25
    6  A    between atoms: C_19  and  O_32
    7  A    between atoms: C_20  and  C_31
    8  A    between atoms: C_26  and  O_32
                            x       y       z     vdW  Elec       q    Type
                         _______ _______ _______ _____ _____    ______ ____

>  <TORSDO>
F 8

$$$$
=
 OpenBabel11072410443D

 38 41  0  0  1  0  0  0  0  0999 V2000
  160.6690  207.4810  154.5170 N   0  0  0  0  0  1  0  0  0  0  0  0
  161.4310  208.8050  149.9950 C   0  0  1  0  0  3  0  0  0  0  0  0
  162.6570  206.8830  151.1410 C   0  0  0  0  0  2  0  0  0  0  0  0
  161.1750  209.6300  153.5300 C   0  0  0  0  0  2  0  0  0  0  0  0
  161.2970  207.5070  150.8330 C   0  0  1  0  0  0  0  0  0  0  0  0
  161.3660  205.1780  150.0330 C   0  0  1  0  0  3  0  0  0  0  0  0
  162.4060  210.3410  152.9510 C   0  0  0  0  0  2  0  0  0  0  0  0
  161.2450  208.1230  153.3500 C   0  0  2  0  0  3  0  0  0  0  0  0
  162.4520  205.3880  151.0680 C   0  0  0  0  0  2  0  0  0  0  0  0
  161.7610  210.0750  150.8010 C   0  0  1  0  0  3  0  0  0  0  0  0
  162.8130  209.8400  151.6980 O   0  0  0  0  0  0  0  0  0  0  0  0
  160.4540  207.7020  152.1100 C   0  0  0  0  0  2  0  0  0  0  0  0
  160.5670  206.4710  149.9860 C   0  0  0  0  0  2  0  0  0  0  0  0
  161.1170  211.7950  149.1510 C   0  0  0  0  0  3  0  0  0  0  0  0
  162.0650  211.2350  149.9030 C   0  0  0  0  0  3  0  0  0  0  0  0
  161.4000  212.9570  148.2370 C   0  0  2  0  0  3  0  0  0  0  0  0
  159.2940  212.6520  146.9230 C   0  0  0  0  0  3  0  0  0  0  0  0
  159.2710  212.7300  144.5030 C   0  0  0  0  0  3  0  0  0  0  0  0
  161.3520  213.0250  145.7020 C   0  0  0  0  0  3  0  0  0  0  0  0
  160.6520  212.9520  144.4950 C   0  0  0  0  0  3  0  0  0  0  0  0
  158.5920  212.5800  145.7160 C   0  0  0  0  0  3  0  0  0  0  0  0
  160.6760  212.8740  146.9230 C   0  0  0  0  0  0  0  0  0  0  0  0
  163.3180  214.4030  148.2300 O   0  0  0  0  0  1  0  0  0  0  0  0
  162.8640  213.2380  148.0790 C   0  0  0  0  0  0  0  0  0  0  0  0
  163.7280  212.2000  147.7610 O   0  0  0  0  0  0  0  0  0  0  0  0
  161.5500  208.2100  147.8590 C   0  0  0  0  0  1  0  0  0  0  0  0
  162.3350  208.6270  148.9370 O   0  0  0  0  0  0  0  0  0  0  0  0
  161.9550  204.9420  148.7570 O   0  0  0  0  0  0  0  0  0  0  0  0
  161.0140  201.5190  147.6690 C   0  0  0  0  0  0  0  0  0  0  0  0
  161.0340  202.9740  145.7410 C   0  0  0  0  0  3  0  0  0  0  0  0
  160.8290  200.2630  148.2360 O   0  0  0  0  0  1  0  0  0  0  0  0
  161.3880  202.5930  148.4770 C   0  0  0  0  0  3  0  0  0  0  0  0
  160.8310  201.7120  146.2980 C   0  0  0  0  0  0  0  0  0  0  0  0
  161.4190  204.0600  146.5350 C   0  0  0  0  0  0  0  0  0  0  0  0
  161.5940  203.8710  147.9300 C   0  0  0  0  0  0  0  0  0  0  0  0
  160.4560  200.6510  145.4810 O   0  0  0  0  0  1  0  0  0  0  0  0
  161.6070  205.2910  145.8880 O   0  0  0  0  0  0  0  0  0  0  0  0
  160.7400  205.8260  144.9000 C   0  0  0  0  0  1  0  0  0  0  0  0
  2 27  1  6  0  0  0
  2 10  1  0  0  0  0
  2  5  1  0  0  0  0
  5 13  1  6  0  0  0
  5  3  1  0  0  0  0
  5 12  1  0  0  0  0
  6 28  1  6  0  0  0
  6  9  1  0  0  0  0
  7  4  1  0  0  0  0
  8  4  1  0  0  0  0
  8  1  1  1  0  0  0
  9  3  1  0  0  0  0
 10 15  1  6  0  0  0
 10 11  1  0  0  0  0
 11  7  1  0  0  0  0
 12  8  1  0  0  0  0
 13  6  1  0  0  0  0
 14 15  2  0  0  0  0
 16 14  1  6  0  0  0
 18 21  1  0  0  0  0
 19 22  2  0  0  0  0
 20 18  2  0  0  0  0
 20 19  1  0  0  0  0
 21 17  2  0  0  0  0
 22 17  1  0  0  0  0
 22 16  1  0  0  0  0
 24 23  1  0  0  0  0
 24 16  1  0  0  0  0
 25 24  2  0  0  0  0
 26 27  1  0  0  0  0
 29 31  1  0  0  0  0
 29 32  1  0  0  0  0
 30 33  1  0  0  0  0
 30 34  2  0  0  0  0
 33 29  2  0  0  0  0
 34 35  1  0  0  0  0
 35 32  2  0  0  0  0
 35 28  1  0  0  0  0
 36 33  1  0  0  0  0
 37 34  1  0  0  0  0
 38 37  1  0  0  0  0
M  END
>  <MODEL>
2

>  <REMARK>
 VINA RESULT:      -7.4      2.245      8.107
  Name = 
  8 active torsions:
  status: ('A' for Active; 'I' for Inactive)
    1  A    between atoms: C_4  and  C_18
    2  A    between atoms: C_4  and  C_23
    3  A    between atoms: C_4  and  C_37
    4  A    between atoms: C_6  and  O_28
    5  A    between atoms: O_8  and  C_25
    6  A    between atoms: C_19  and  O_32
    7  A    between atoms: C_20  and  C_31
    8  A    between atoms: C_26  and  O_32
                            x       y       z     vdW  Elec       q    Type
                         _______ _______ _______ _____ _____    ______ ____

>  <TORSDO>
F 8

$$$$
=
 OpenBabel11072410443D

 38 41  0  0  1  0  0  0  0  0999 V2000
  160.5700  207.4560  154.5570 N   0  0  0  0  0  1  0  0  0  0  0  0
  161.4700  208.6650  150.0290 C   0  0  1  0  0  3  0  0  0  0  0  0
  162.7070  206.8190  151.2820 C   0  0  0  0  0  2  0  0  0  0  0  0
  161.0480  209.5880  153.5220 C   0  0  0  0  0  2  0  0  0  0  0  0
  161.3420  207.3890  150.9020 C   0  0  1  0  0  0  0  0  0  0  0  0
  161.5150  205.0390  150.1800 C   0  0  1  0  0  3  0  0  0  0  0  0
  162.2790  210.3210  152.9690 C   0  0  0  0  0  2  0  0  0  0  0  0
  161.1720  208.0800  153.3940 C   0  0  2  0  0  3  0  0  0  0  0  0
  162.5520  205.3170  151.2490 C   0  0  0  0  0  2  0  0  0  0  0  0
  161.7270  209.9690  150.8050 C   0  0  1  0  0  3  0  0  0  0  0  0
  162.7500  209.7950  151.7500 O   0  0  0  0  0  0  0  0  0  0  0  0
  160.4440  207.5960  152.1380 C   0  0  0  0  0  2  0  0  0  0  0  0
  160.6800  206.3050  150.0600 C   0  0  0  0  0  2  0  0  0  0  0  0
  161.0620  211.7370  149.2160 C   0  0  0  0  0  3  0  0  0  0  0  0
  162.0320  211.1100  149.8830 C   0  0  0  0  0  3  0  0  0  0  0  0
  161.3430  212.8820  148.2800 C   0  0  2  0  0  3  0  0  0  0  0  0
  161.1900  212.9000  145.7840 C   0  0  0  0  0  3  0  0  0  0  0  0
  159.0690  212.7290  144.6300 C   0  0  0  0  0  3  0  0  0  0  0  0
  159.1330  212.7130  147.0480 C   0  0  0  0  0  3  0  0  0  0  0  0
  158.4040  212.6620  145.8580 C   0  0  0  0  0  3  0  0  0  0  0  0
  160.4620  212.8480  144.5930 C   0  0  0  0  0  3  0  0  0  0  0  0
  160.5320  212.8340  147.0170 C   0  0  0  0  0  0  0  0  0  0  0  0
  163.3220  214.2330  148.1160 O   0  0  0  0  0  1  0  0  0  0  0  0
  162.8060  213.0870  148.0260 C   0  0  0  0  0  0  0  0  0  0  0  0
  163.6000  212.0010  147.6850 O   0  0  0  0  0  0  0  0  0  0  0  0
  161.6780  208.1260  147.8840 C   0  0  0  0  0  1  0  0  0  0  0  0
  162.4200  208.4830  149.0130 O   0  0  0  0  0  0  0  0  0  0  0  0
  162.1620  204.7840  148.9360 O   0  0  0  0  0  0  0  0  0  0  0  0
  160.9250  203.6120  145.6370 C   0  0  0  0  0  0  0  0  0  0  0  0
  160.7520  201.8000  147.2250 C   0  0  0  0  0  3  0  0  0  0  0  0
  160.7490  204.1180  144.3540 O   0  0  0  0  0  1  0  0  0  0  0  0
  161.4460  204.4330  146.6370 C   0  0  0  0  0  3  0  0  0  0  0  0
  160.5820  202.2900  145.9300 C   0  0  0  0  0  0  0  0  0  0  0  0
  161.2630  202.6120  148.2430 C   0  0  0  0  0  0  0  0  0  0  0  0
  161.6230  203.9520  147.9460 C   0  0  0  0  0  0  0  0  0  0  0  0
  160.0650  201.4610  144.9420 O   0  0  0  0  0  1  0  0  0  0  0  0
  161.3910  202.0370  149.5170 O   0  0  0  0  0  0  0  0  0  0  0  0
  160.4770  201.1090  150.0800 C   0  0  0  0  0  1  0  0  0  0  0  0
  2 27  1  6  0  0  0
  2 10  1  0  0  0  0
  2  5  1  0  0  0  0
  5 13  1  6  0  0  0
  5  3  1  0  0  0  0
  5 12  1  0  0  0  0
  6 28  1  6  0  0  0
  6  9  1  0  0  0  0
  7  4  1  0  0  0  0
  8  4  1  0  0  0  0
  8  1  1  1  0  0  0
  9  3  1  0  0  0  0
 10 15  1  6  0  0  0
 10 11  1  0  0  0  0
 11  7  1  0  0  0  0
 12  8  1  0  0  0  0
 13  6  1  0  0  0  0
 14 15  2  0  0  0  0
 16 14  1  6  0  0  0
 17 22  1  0  0  0  0
 18 20  2  0  0  0  0
 20 19  1  0  0  0  0
 21 18  1  0  0  0  0
 21 17  2  0  0  0  0
 22 19  2  0  0  0  0
 22 16  1  0  0  0  0
 24 23  1  0  0  0  0
 24 16  1  0  0  0  0
 25 24  2  0  0  0  0
 26 27  1  0  0  0  0
 29 33  2  0  0  0  0
 29 32  1  0  0  0  0
 30 34  2  0  0  0  0
 31 29  1  0  0  0  0
 32 35  2  0  0  0  0
 33 30  1  0  0  0  0
 34 37  1  0  0  0  0
 35 34  1  0  0  0  0
 35 28  1  0  0  0  0
 36 33  1  0  0  0  0
 37 38  1  0  0  0  0
M  END
>  <MODEL>
3

>  <REMARK>
 VINA RESULT:      -7.2      2.257      8.176
  Name = 
  8 active torsions:
  status: ('A' for Active; 'I' for Inactive)
    1  A    between atoms: C_4  and  C_18
    2  A    between atoms: C_4  and  C_23
    3  A    between atoms: C_4  and  C_37
    4  A    between atoms: C_6  and  O_28
    5  A    between atoms: O_8  and  C_25
    6  A    between atoms: C_19  and  O_32
    7  A    between atoms: C_20  and  C_31
    8  A    between atoms: C_26  and  O_32
                            x       y       z     vdW  Elec       q    Type
                         _______ _______ _______ _____ _____    ______ ____

>  <TORSDO>
F 8

$$$$
=
 OpenBabel11072410443D

 38 41  0  0  1  0  0  0  0  0999 V2000
  161.0460  207.2020  157.2610 N   0  0  0  0  0  1  0  0  0  0  0  0
  161.3290  209.5330  153.1050 C   0  0  1  0  0  3  0  0  0  0  0  0
  159.3890  209.7770  154.7450 C   0  0  0  0  0  2  0  0  0  0  0  0
  161.4320  206.4300  155.0030 C   0  0  0  0  0  2  0  0  0  0  0  0
  160.9070  209.7970  154.5740 C   0  0  1  0  0  0  0  0  0  0  0  0
  160.1340  211.9140  155.5690 C   0  0  1  0  0  3  0  0  0  0  0  0
  160.6000  206.1980  153.7330 C   0  0  0  0  0  2  0  0  0  0  0  0
  160.8690  207.5480  155.8630 C   0  0  2  0  0  3  0  0  0  0  0  0
  159.0730  210.8500  155.7590 C   0  0  0  0  0  2  0  0  0  0  0  0
  161.3640  208.0510  152.6880 C   0  0  1  0  0  3  0  0  0  0  0  0
  160.1970  207.3880  153.0960 O   0  0  0  0  0  0  0  0  0  0  0  0
  161.6080  208.8570  155.5770 C   0  0  0  0  0  2  0  0  0  0  0  0
  161.3290  211.2140  154.9400 C   0  0  0  0  0  2  0  0  0  0  0  0
  160.7310  207.2130  150.4540 C   0  0  0  0  0  3  0  0  0  0  0  0
  161.5870  207.8970  151.2150 C   0  0  0  0  0  3  0  0  0  0  0  0
  160.9360  207.0400  148.9730 C   0  0  2  0  0  3  0  0  0  0  0  0
  161.4320  205.3170  147.2300 C   0  0  0  0  0  3  0  0  0  0  0  0
  161.3840  202.9460  147.7220 C   0  0  0  0  0  3  0  0  0  0  0  0
  160.8840  204.5520  149.4610 C   0  0  0  0  0  3  0  0  0  0  0  0
  161.0340  203.2260  149.0460 C   0  0  0  0  0  3  0  0  0  0  0  0
  161.5830  203.9910  146.8130 C   0  0  0  0  0  3  0  0  0  0  0  0
  161.0810  205.6050  148.5530 C   0  0  0  0  0  0  0  0  0  0  0  0
  161.7720  209.1110  148.0890 O   0  0  0  0  0  0  0  0  0  0  0  0
  162.0170  207.9210  148.4220 C   0  0  0  0  0  0  0  0  0  0  0  0
  163.3020  207.4170  148.2770 O   0  0  0  0  0  1  0  0  0  0  0  0
  161.4720  210.9090  151.3680 C   0  0  0  0  0  1  0  0  0  0  0  0
  160.5510  210.2910  152.2170 O   0  0  0  0  0  0  0  0  0  0  0  0
  159.6560  212.9180  154.6770 O   0  0  0  0  0  0  0  0  0  0  0  0
  156.2300  214.0400  155.5700 C   0  0  0  0  0  0  0  0  0  0  0  0
  156.2990  213.5460  153.2060 C   0  0  0  0  0  3  0  0  0  0  0  0
  155.5340  214.4530  156.7000 O   0  0  0  0  0  1  0  0  0  0  0  0
  157.5750  213.6880  155.6780 C   0  0  0  0  0  3  0  0  0  0  0  0
  155.5920  213.9750  154.3290 C   0  0  0  0  0  0  0  0  0  0  0  0
  157.6470  213.1780  153.2990 C   0  0  0  0  0  0  0  0  0  0  0  0
  158.3010  213.2540  154.5550 C   0  0  0  0  0  0  0  0  0  0  0  0
  154.2520  214.3260  154.2070 O   0  0  0  0  0  1  0  0  0  0  0  0
  158.2750  212.7520  152.1190 O   0  0  0  0  0  0  0  0  0  0  0  0
  158.5780  213.5910  151.0150 C   0  0  0  0  0  1  0  0  0  0  0  0
  2 27  1  6  0  0  0
  2  5  1  0  0  0  0
  3  9  1  0  0  0  0
  4  8  1  0  0  0  0
  5  3  1  1  0  0  0
  5 13  1  0  0  0  0
  5 12  1  0  0  0  0
  6 28  1  6  0  0  0
  6  9  1  0  0  0  0
  7  4  1  0  0  0  0
  8  1  1  1  0  0  0
 10 15  1  6  0  0  0
 10 11  1  0  0  0  0
 10  2  1  0  0  0  0
 11  7  1  0  0  0  0
 12  8  1  0  0  0  0
 13  6  1  0  0  0  0
 14 15  2  0  0  0  0
 16 14  1  1  0  0  0
 17 22  1  0  0  0  0
 18 20  2  0  0  0  0
 20 19  1  0  0  0  0
 21 17  2  0  0  0  0
 21 18  1  0  0  0  0
 22 16  1  0  0  0  0
 22 19  2  0  0  0  0
 23 24  2  0  0  0  0
 24 16  1  0  0  0  0
 25 24  1  0  0  0  0
 26 27  1  0  0  0  0
 29 32  1  0  0  0  0
 29 31  1  0  0  0  0
 30 34  2  0  0  0  0
 30 33  1  0  0  0  0
 33 29  2  0  0  0  0
 34 35  1  0  0  0  0
 35 28  1  0  0  0  0
 35 32  2  0  0  0  0
 36 33  1  0  0  0  0
 37 34  1  0  0  0  0
 38 37  1  0  0  0  0
M  END
>  <MODEL>
4

>  <REMARK>
 VINA RESULT:      -7.1      2.755      4.921
  Name = 
  8 active torsions:
  status: ('A' for Active; 'I' for Inactive)
    1  A    between atoms: C_4  and  C_18
    2  A    between atoms: C_4  and  C_23
    3  A    between atoms: C_4  and  C_37
    4  A    between atoms: C_6  and  O_28
    5  A    between atoms: O_8  and  C_25
    6  A    between atoms: C_19  and  O_32
    7  A    between atoms: C_20  and  C_31
    8  A    between atoms: C_26  and  O_32
                            x       y       z     vdW  Elec       q    Type
                         _______ _______ _______ _____ _____    ______ ____

>  <TORSDO>
F 8

$$$$
=
 OpenBabel11072410443D

 38 41  0  0  1  0  0  0  0  0999 V2000
  160.8430  207.3110  155.9790 N   0  0  0  0  0  1  0  0  0  0  0  0
  161.0270  208.8810  151.4750 C   0  0  1  0  0  3  0  0  0  0  0  0
  162.6080  207.1240  152.4350 C   0  0  0  0  0  2  0  0  0  0  0  0
  160.9500  209.5420  155.0520 C   0  0  0  0  0  2  0  0  0  0  0  0
  161.1520  207.5500  152.2620 C   0  0  1  0  0  0  0  0  0  0  0  0
  161.4890  205.2840  151.3560 C   0  0  1  0  0  3  0  0  0  0  0  0
  162.0130  210.4460  154.4120 C   0  0  0  0  0  2  0  0  0  0  0  0
  161.2210  208.0690  154.8000 C   0  0  2  0  0  3  0  0  0  0  0  0
  162.6160  205.6180  152.3120 C   0  0  0  0  0  2  0  0  0  0  0  0
  161.2360  210.1590  152.3090 C   0  0  1  0  0  3  0  0  0  0  0  0
  162.3820  210.0510  153.1100 O   0  0  0  0  0  0  0  0  0  0  0  0
  160.3990  207.5770  153.6080 C   0  0  0  0  0  2  0  0  0  0  0  0
  160.5120  206.4470  151.4280 C   0  0  0  0  0  2  0  0  0  0  0  0
  160.1890  211.9070  150.9160 C   0  0  0  0  0  3  0  0  0  0  0  0
  161.2950  211.3800  151.4430 C   0  0  0  0  0  3  0  0  0  0  0  0
  160.2230  213.1300  150.0380 C   0  0  2  0  0  3  0  0  0  0  0  0
  158.6040  213.7880  148.2500 C   0  0  0  0  0  3  0  0  0  0  0  0
  156.3310  214.4500  148.7600 C   0  0  0  0  0  3  0  0  0  0  0  0
  157.8410  213.8360  150.5480 C   0  0  0  0  0  3  0  0  0  0  0  0
  156.5810  214.2610  150.1220 C   0  0  0  0  0  3  0  0  0  0  0  0
  157.3430  214.2130  147.8230 C   0  0  0  0  0  3  0  0  0  0  0  0
  158.8610  213.5970  149.6120 C   0  0  0  0  0  0  0  0  0  0  0  0
  162.0770  213.8700  148.7020 O   0  0  0  0  0  1  0  0  0  0  0  0
  161.1820  213.0040  148.8930 C   0  0  0  0  0  0  0  0  0  0  0  0
  161.0790  211.9210  148.0310 O   0  0  0  0  0  0  0  0  0  0  0  0
  161.1350  208.1730  149.3730 C   0  0  0  0  0  1  0  0  0  0  0  0
  161.8570  208.8730  150.3430 O   0  0  0  0  0  0  0  0  0  0  0  0
  161.9980  205.1800  150.0290 O   0  0  0  0  0  0  0  0  0  0  0  0
  160.5910  202.0040  148.7190 C   0  0  0  0  0  0  0  0  0  0  0  0
  161.3530  203.3460  146.8600 C   0  0  0  0  0  3  0  0  0  0  0  0
  160.0150  200.8400  149.2150 O   0  0  0  0  0  1  0  0  0  0  0  0
  161.0040  203.0010  149.6020 C   0  0  0  0  0  3  0  0  0  0  0  0
  160.7610  202.1790  147.3430 C   0  0  0  0  0  0  0  0  0  0  0  0
  161.7830  204.3520  147.7330 C   0  0  0  0  0  0  0  0  0  0  0  0
  161.6020  204.1820  149.1290 C   0  0  0  0  0  0  0  0  0  0  0  0
  160.3510  201.1950  146.4520 O   0  0  0  0  0  1  0  0  0  0  0  0
  162.3750  205.4870  147.1580 O   0  0  0  0  0  0  0  0  0  0  0  0
  162.2010  205.8950  145.8100 C   0  0  0  0  0  1  0  0  0  0  0  0
  2 27  1  6  0  0  0
  2  5  1  0  0  0  0
  2 10  1  0  0  0  0
  5 13  1  6  0  0  0
  5  3  1  0  0  0  0
  5 12  1  0  0  0  0
  6 28  1  6  0  0  0
  6 13  1  0  0  0  0
  6  9  1  0  0  0  0
  7  4  1  0  0  0  0
  8  4  1  0  0  0  0
  8  1  1  1  0  0  0
  9  3  1  0  0  0  0
 10 15  1  6  0  0  0
 10 11  1  0  0  0  0
 11  7  1  0  0  0  0
 12  8  1  0  0  0  0
 14 15  2  0  0  0  0
 16 14  1  6  0  0  0
 17 22  1  0  0  0  0
 18 20  2  0  0  0  0
 20 19  1  0  0  0  0
 21 17  2  0  0  0  0
 21 18  1  0  0  0  0
 22 16  1  0  0  0  0
 22 19  2  0  0  0  0
 23 24  1  0  0  0  0
 24 16  1  0  0  0  0
 25 24  2  0  0  0  0
 26 27  1  0  0  0  0
 29 31  1  0  0  0  0
 29 32  1  0  0  0  0
 30 33  1  0  0  0  0
 30 34  2  0  0  0  0
 33 29  2  0  0  0  0
 34 35  1  0  0  0  0
 35 32  2  0  0  0  0
 35 28  1  0  0  0  0
 36 33  1  0  0  0  0
 37 34  1  0  0  0  0
 38 37  1  0  0  0  0
M  END
>  <MODEL>
5

>  <REMARK>
 VINA RESULT:      -6.0      1.831      8.106
  Name = 
  8 active torsions:
  status: ('A' for Active; 'I' for Inactive)
    1  A    between atoms: C_4  and  C_18
    2  A    between atoms: C_4  and  C_23
    3  A    between atoms: C_4  and  C_37
    4  A    between atoms: C_6  and  O_28
    5  A    between atoms: O_8  and  C_25
    6  A    between atoms: C_19  and  O_32
    7  A    between atoms: C_20  and  C_31
    8  A    between atoms: C_26  and  O_32
                            x       y       z     vdW  Elec       q    Type
                         _______ _______ _______ _____ _____    ______ ____

>  <TORSDO>
F 8

$$$$
=
 OpenBabel11072410443D

 38 41  0  0  1  0  0  0  0  0999 V2000
  161.3450  205.9090  154.8340 N   0  0  0  0  0  1  0  0  0  0  0  0
  161.9040  207.5770  150.3980 C   0  0  1  0  0  3  0  0  0  0  0  0
  160.1500  208.4460  152.0340 C   0  0  0  0  0  2  0  0  0  0  0  0
  161.4390  204.7920  152.6920 C   0  0  0  0  0  2  0  0  0  0  0  0
  161.6260  208.1100  151.8270 C   0  0  1  0  0  0  0  0  0  0  0  0
  161.3780  210.4540  152.5460 C   0  0  1  0  0  3  0  0  0  0  0  0
  160.5110  204.5900  151.4850 C   0  0  0  0  0  2  0  0  0  0  0  0
  161.1740  206.1060  153.4070 C   0  0  2  0  0  3  0  0  0  0  0  0
  160.1240  209.6820  152.9030 C   0  0  0  0  0  2  0  0  0  0  0  0
  161.5990  206.0830  150.1830 C   0  0  1  0  0  3  0  0  0  0  0  0
  160.3400  205.7500  150.7030 O   0  0  0  0  0  0  0  0  0  0  0  0
  162.1600  207.1740  152.9310 C   0  0  0  0  0  2  0  0  0  0  0  0
  162.3600  209.4350  151.9890 C   0  0  0  0  0  2  0  0  0  0  0  0
  161.1330  204.5890  148.2740 C   0  0  0  0  0  3  0  0  0  0  0  0
  161.7060  205.7000  148.7390 C   0  0  0  0  0  3  0  0  0  0  0  0
  161.2310  204.1800  146.8290 C   0  0  2  0  0  3  0  0  0  0  0  0
  161.4560  201.8260  147.6420 C   0  0  0  0  0  3  0  0  0  0  0  0
  160.8110  199.9320  146.2780 C   0  0  0  0  0  3  0  0  0  0  0  0
  160.5710  202.1800  145.4160 C   0  0  0  0  0  3  0  0  0  0  0  0
  160.4360  200.8000  145.2480 C   0  0  0  0  0  3  0  0  0  0  0  0
  161.3210  200.4450  147.4750 C   0  0  0  0  0  3  0  0  0  0  0  0
  161.0830  202.7010  146.6150 C   0  0  0  0  0  0  0  0  0  0  0  0
  163.5590  204.7570  146.6970 O   0  0  0  0  0  1  0  0  0  0  0  0
  162.4310  204.7530  146.1360 C   0  0  0  0  0  0  0  0  0  0  0  0
  162.2950  205.2870  144.8630 O   0  0  0  0  0  0  0  0  0  0  0  0
  162.2960  208.9900  148.7290 C   0  0  0  0  0  1  0  0  0  0  0  0
  161.2610  208.3690  149.4340 O   0  0  0  0  0  0  0  0  0  0  0  0
  161.0790  211.4170  151.5390 O   0  0  0  0  0  0  0  0  0  0  0  0
  157.8460  212.8890  152.6210 C   0  0  0  0  0  0  0  0  0  0  0  0
  158.3940  213.7340  150.4250 C   0  0  0  0  0  3  0  0  0  0  0  0
  156.9930  212.8290  153.7170 O   0  0  0  0  0  1  0  0  0  0  0  0
  159.0210  212.1360  152.6190 C   0  0  0  0  0  3  0  0  0  0  0  0
  157.5350  213.6950  151.5230 C   0  0  0  0  0  0  0  0  0  0  0  0
  159.5710  212.9780  150.4020 C   0  0  0  0  0  0  0  0  0  0  0  0
  159.8960  212.1680  151.5200 C   0  0  0  0  0  0  0  0  0  0  0  0
  156.3690  214.4520  151.5140 O   0  0  0  0  0  1  0  0  0  0  0  0
  160.3700  213.0740  149.2520 O   0  0  0  0  0  0  0  0  0  0  0  0
  161.2420  214.1550  148.9610 C   0  0  0  0  0  1  0  0  0  0  0  0
  2 27  1  6  0  0  0
  2  5  1  0  0  0  0
  3  9  1  0  0  0  0
  4  8  1  0  0  0  0
  5 13  1  1  0  0  0
  5  3  1  0  0  0  0
  5 12  1  0  0  0  0
  6 28  1  6  0  0  0
  6  9  1  0  0  0  0
  7  4  1  0  0  0  0
  8  1  1  1  0  0  0
 10 15  1  6  0  0  0
 10  2  1  0  0  0  0
 10 11  1  0  0  0  0
 11  7  1  0  0  0  0
 12  8  1  0  0  0  0
 13  6  1  0  0  0  0
 14 15  2  0  0  0  0
 16 14  1  1  0  0  0
 18 21  2  0  0  0  0
 19 22  1  0  0  0  0
 20 19  2  0  0  0  0
 20 18  1  0  0  0  0
 21 17  1  0  0  0  0
 22 16  1  0  0  0  0
 22 17  2  0  0  0  0
 24 23  1  0  0  0  0
 24 16  1  0  0  0  0
 25 24  2  0  0  0  0
 26 27  1  0  0  0  0
 29 31  1  0  0  0  0
 30 33  1  0  0  0  0
 32 29  1  0  0  0  0
 33 29  2  0  0  0  0
 34 30  2  0  0  0  0
 34 35  1  0  0  0  0
 35 28  1  0  0  0  0
 35 32  2  0  0  0  0
 36 33  1  0  0  0  0
 37 34  1  0  0  0  0
 38 37  1  0  0  0  0
M  END
>  <MODEL>
6

>  <REMARK>
 VINA RESULT:      -5.9      2.506      4.301
  Name = 
  8 active torsions:
  status: ('A' for Active; 'I' for Inactive)
    1  A    between atoms: C_4  and  C_18
    2  A    between atoms: C_4  and  C_23
    3  A    between atoms: C_4  and  C_37
    4  A    between atoms: C_6  and  O_28
    5  A    between atoms: O_8  and  C_25
    6  A    between atoms: C_19  and  O_32
    7  A    between atoms: C_20  and  C_31
    8  A    between atoms: C_26  and  O_32
                            x       y       z     vdW  Elec       q    Type
                         _______ _______ _______ _____ _____    ______ ____

>  <TORSDO>
F 8

$$$$
=
 OpenBabel11072410443D

 38 41  0  0  1  0  0  0  0  0999 V2000
  161.2940  205.8000  154.9570 N   0  0  0  0  0  1  0  0  0  0  0  0
  161.8210  207.7210  150.6200 C   0  0  1  0  0  3  0  0  0  0  0  0
  160.0830  208.4970  152.3180 C   0  0  0  0  0  2  0  0  0  0  0  0
  161.3670  204.8090  152.7530 C   0  0  0  0  0  2  0  0  0  0  0  0
  161.5560  208.1710  152.0800 C   0  0  1  0  0  0  0  0  0  0  0  0
  161.3200  210.4700  152.9350 C   0  0  1  0  0  3  0  0  0  0  0  0
  160.4290  204.6790  151.5440 C   0  0  0  0  0  2  0  0  0  0  0  0
  161.1120  206.0790  153.5450 C   0  0  2  0  0  3  0  0  0  0  0  0
  160.0670  209.6810  153.2570 C   0  0  0  0  0  2  0  0  0  0  0  0
  161.5100  206.2430  150.3220 C   0  0  1  0  0  3  0  0  0  0  0  0
  160.2540  205.8820  150.8320 O   0  0  0  0  0  0  0  0  0  0  0  0
  162.0970  207.1710  153.1230 C   0  0  0  0  0  2  0  0  0  0  0  0
  162.2950  209.4830  152.3120 C   0  0  0  0  0  2  0  0  0  0  0  0
  160.9930  204.8830  148.3270 C   0  0  0  0  0  3  0  0  0  0  0  0
  161.6050  205.9430  148.8570 C   0  0  0  0  0  3  0  0  0  0  0  0
  161.0780  204.5580  146.8600 C   0  0  2  0  0  3  0  0  0  0  0  0
  161.2740  202.1620  147.5480 C   0  0  0  0  0  3  0  0  0  0  0  0
  160.6520  200.3490  146.0680 C   0  0  0  0  0  3  0  0  0  0  0  0
  160.4410  202.6420  145.3250 C   0  0  0  0  0  3  0  0  0  0  0  0
  160.3040  201.2740  145.0790 C   0  0  0  0  0  3  0  0  0  0  0  0
  161.1370  200.7930  147.3030 C   0  0  0  0  0  3  0  0  0  0  0  0
  160.9290  203.0940  146.5620 C   0  0  0  0  0  0  0  0  0  0  0  0
  162.1380  206.1350  145.3910 O   0  0  0  0  0  0  0  0  0  0  0  0
  162.2710  205.1710  146.1900 C   0  0  0  0  0  0  0  0  0  0  0  0
  163.5370  204.6670  146.4540 O   0  0  0  0  0  1  0  0  0  0  0  0
  162.2020  209.2450  149.0500 C   0  0  0  0  0  1  0  0  0  0  0  0
  161.1720  208.5690  149.7090 O   0  0  0  0  0  0  0  0  0  0  0  0
  161.0160  211.4900  151.9880 O   0  0  0  0  0  0  0  0  0  0  0  0
  157.8450  212.9570  150.7310 C   0  0  0  0  0  0  0  0  0  0  0  0
  158.0380  213.4230  153.0940 C   0  0  0  0  0  3  0  0  0  0  0  0
  157.1520  213.0600  149.5310 O   0  0  0  0  0  1  0  0  0  0  0  0
  159.0670  212.2880  150.7680 C   0  0  0  0  0  3  0  0  0  0  0  0
  157.3260  213.5220  151.8990 C   0  0  0  0  0  0  0  0  0  0  0  0
  159.2720  212.7630  153.1470 C   0  0  0  0  0  0  0  0  0  0  0  0
  159.7960  212.1790  151.9650 C   0  0  0  0  0  0  0  0  0  0  0  0
  156.1060  214.1900  151.8770 O   0  0  0  0  0  1  0  0  0  0  0  0
  159.9210  212.7200  154.3900 O   0  0  0  0  0  0  0  0  0  0  0  0
  159.7480  213.6750  155.4260 C   0  0  0  0  0  1  0  0  0  0  0  0
  2 27  1  6  0  0  0
  2  5  1  0  0  0  0
  3  9  1  0  0  0  0
  4  8  1  0  0  0  0
  5 13  1  1  0  0  0
  5  3  1  0  0  0  0
  5 12  1  0  0  0  0
  6 28  1  6  0  0  0
  6  9  1  0  0  0  0
  7  4  1  0  0  0  0
  8  1  1  1  0  0  0
 10 15  1  6  0  0  0
 10  2  1  0  0  0  0
 10 11  1  0  0  0  0
 11  7  1  0  0  0  0
 12  8  1  0  0  0  0
 13  6  1  0  0  0  0
 14 15  2  0  0  0  0
 16 14  1  1  0  0  0
 18 21  2  0  0  0  0
 19 22  1  0  0  0  0
 20 19  2  0  0  0  0
 20 18  1  0  0  0  0
 21 17  1  0  0  0  0
 22 16  1  0  0  0  0
 22 17  2  0  0  0  0
 23 24  2  0  0  0  0
 24 25  1  0  0  0  0
 24 16  1  0  0  0  0
 26 27  1  0  0  0  0
 29 32  2  0  0  0  0
 29 33  1  0  0  0  0
 30 34  1  0  0  0  0
 31 29  1  0  0  0  0
 32 35  1  0  0  0  0
 33 30  2  0  0  0  0
 34 37  1  0  0  0  0
 35 28  1  0  0  0  0
 35 34  2  0  0  0  0
 36 33  1  0  0  0  0
 37 38  1  0  0  0  0
M  END
>  <MODEL>
7

>  <REMARK>
 VINA RESULT:      -5.0      2.581      4.435
  Name = 
  8 active torsions:
  status: ('A' for Active; 'I' for Inactive)
    1  A    between atoms: C_4  and  C_18
    2  A    between atoms: C_4  and  C_23
    3  A    between atoms: C_4  and  C_37
    4  A    between atoms: C_6  and  O_28
    5  A    between atoms: O_8  and  C_25
    6  A    between atoms: C_19  and  O_32
    7  A    between atoms: C_20  and  C_31
    8  A    between atoms: C_26  and  O_32
                            x       y       z     vdW  Elec       q    Type
                         _______ _______ _______ _____ _____    ______ ____

>  <TORSDO>
F 8

$$$$
=
 OpenBabel11072410443D

 38 41  0  0  1  0  0  0  0  0999 V2000
  162.5430  211.4700  148.4660 N   0  0  0  0  0  1  0  0  0  0  0  0
  161.5550  208.6180  152.1630 C   0  0  1  0  0  3  0  0  0  0  0  0
  160.6720  208.2410  149.7990 C   0  0  0  0  0  2  0  0  0  0  0  0
  161.6820  211.9360  150.6760 C   0  0  0  0  0  2  0  0  0  0  0  0
  161.9070  208.5090  150.6560 C   0  0  1  0  0  0  0  0  0  0  0  0
  162.2250  206.4640  149.3200 C   0  0  1  0  0  3  0  0  0  0  0  0
  160.3470  211.7850  151.4200 C   0  0  0  0  0  2  0  0  0  0  0  0
  161.8640  210.8770  149.6030 C   0  0  2  0  0  3  0  0  0  0  0  0
  161.1230  207.3010  148.7060 C   0  0  0  0  0  2  0  0  0  0  0  0
  161.0210  209.9890  152.6150 C   0  0  1  0  0  3  0  0  0  0  0  0
  160.0260  210.4510  151.7410 O   0  0  0  0  0  0  0  0  0  0  0  0
  162.7100  209.7210  150.1400 C   0  0  0  0  0  2  0  0  0  0  0  0
  162.7960  207.2860  150.4650 C   0  0  0  0  0  2  0  0  0  0  0  0
  159.3440  210.4750  154.3610 C   0  0  0  0  0  3  0  0  0  0  0  0
  160.5230  209.9480  154.0280 C   0  0  0  0  0  3  0  0  0  0  0  0
  158.8260  210.4520  155.7740 C   0  0  2  0  0  3  0  0  0  0  0  0
  158.3510  212.9030  155.6390 C   0  0  0  0  0  3  0  0  0  0  0  0
  156.4220  213.8960  156.7150 C   0  0  0  0  0  3  0  0  0  0  0  0
  156.8170  211.5160  156.8990 C   0  0  0  0  0  3  0  0  0  0  0  0
  156.0420  212.6390  157.1970 C   0  0  0  0  0  3  0  0  0  0  0  0
  157.5760  214.0280  155.9360 C   0  0  0  0  0  3  0  0  0  0  0  0
  157.9780  211.6430  156.1180 C   0  0  0  0  0  0  0  0  0  0  0  0
  160.6290  211.1170  157.2140 O   0  0  0  0  0  0  0  0  0  0  0  0
  159.8960  210.1850  156.7880 C   0  0  0  0  0  0  0  0  0  0  0  0
  160.0840  208.8930  157.2610 O   0  0  0  0  0  1  0  0  0  0  0  0
  161.4590  206.7590  153.3750 C   0  0  0  0  0  1  0  0  0  0  0  0
  160.6900  207.5830  152.5500 O   0  0  0  0  0  0  0  0  0  0  0  0
  161.6790  205.2540  149.8390 O   0  0  0  0  0  0  0  0  0  0  0  0
  161.3400  203.0750  146.8510 C   0  0  0  0  0  0  0  0  0  0  0  0
  160.5810  201.8580  148.7950 C   0  0  0  0  0  3  0  0  0  0  0  0
  161.5750  203.1450  145.4820 O   0  0  0  0  0  1  0  0  0  0  0  0
  161.6190  204.1790  147.6560 C   0  0  0  0  0  3  0  0  0  0  0  0
  160.8250  201.9100  147.4230 C   0  0  0  0  0  0  0  0  0  0  0  0
  160.8460  202.9600  149.6170 C   0  0  0  0  0  0  0  0  0  0  0  0
  161.3790  204.1410  149.0410 C   0  0  0  0  0  0  0  0  0  0  0  0
  160.5450  200.8010  146.6310 O   0  0  0  0  0  1  0  0  0  0  0  0
  160.5620  202.8210  150.9840 O   0  0  0  0  0  0  0  0  0  0  0  0
  161.5180  202.9490  152.0250 C   0  0  0  0  0  1  0  0  0  0  0  0
  2 27  1  6  0  0  0
  2 10  1  0  0  0  0
  4  7  1  0  0  0  0
  5  3  1  6  0  0  0
  5  2  1  0  0  0  0
  6 28  1  1  0  0  0
  6 13  1  0  0  0  0
  7 11  1  0  0  0  0
  8  1  1  6  0  0  0
  8 12  1  0  0  0  0
  8  4  1  0  0  0  0
  9  6  1  0  0  0  0
  9  3  1  0  0  0  0
 10 15  1  1  0  0  0
 11 10  1  0  0  0  0
 12  5  1  0  0  0  0
 13  5  1  0  0  0  0
 15 14  2  0  0  0  0
 16 14  1  6  0  0  0
 16 22  1  0  0  0  0
 16 24  1  0  0  0  0
 17 21  2  0  0  0  0
 17 22  1  0  0  0  0
 18 20  2  0  0  0  0
 19 20  1  0  0  0  0
 21 18  1  0  0  0  0
 22 19  2  0  0  0  0
 24 23  2  0  0  0  0
 24 25  1  0  0  0  0
 27 26  1  0  0  0  0
 29 33  2  0  0  0  0
 29 32  1  0  0  0  0
 30 34  2  0  0  0  0
 31 29  1  0  0  0  0
 32 35  2  0  0  0  0
 33 30  1  0  0  0  0
 34 37  1  0  0  0  0
 35 34  1  0  0  0  0
 35 28  1  0  0  0  0
 36 33  1  0  0  0  0
 37 38  1  0  0  0  0
M  END
>  <MODEL>
8

>  <REMARK>
 VINA RESULT:      -4.9      2.982      8.865
  Name = 
  8 active torsions:
  status: ('A' for Active; 'I' for Inactive)
    1  A    between atoms: C_4  and  C_18
    2  A    between atoms: C_4  and  C_23
    3  A    between atoms: C_4  and  C_37
    4  A    between atoms: C_6  and  O_28
    5  A    between atoms: O_8  and  C_25
    6  A    between atoms: C_19  and  O_32
    7  A    between atoms: C_20  and  C_31
    8  A    between atoms: C_26  and  O_32
                            x       y       z     vdW  Elec       q    Type
                         _______ _______ _______ _____ _____    ______ ____

>  <TORSDO>
F 8

$$$$
