=
 OpenBabel11072412223D

 27 28  0  0  1  0  0  0  0  0999 V2000
  161.7130  205.4560  147.6930 C   0  0  2  0  0  3  0  0  0  0  0  0
  160.6760  200.8410  149.2550 C   0  0  0  0  0  3  0  0  0  0  0  0
  160.7990  201.3350  146.9070 C   0  0  0  0  0  0  0  0  0  0  0  0
  160.8890  201.7720  148.1350 C   0  0  0  0  0  0  0  0  0  0  0  0
  161.0670  202.6830  150.8330 C   0  0  0  0  0  3  0  0  0  0  0  0
  161.2020  203.1860  148.4410 C   0  0  0  0  0  0  0  0  0  0  0  0
  161.2740  203.5820  149.8660 C   0  0  0  0  0  3  0  0  0  0  0  0
  160.7140  200.9220  145.7430 O   0  0  0  0  0  0  0  0  0  0  0  0
  161.3950  204.0450  147.4820 N   0  0  0  0  0  0  0  0  0  0  0  0
  160.7600  201.2710  150.5190 C   0  0  0  0  0  3  0  0  0  0  0  0
  159.6450  206.5260  148.2990 O   0  0  0  0  0  1  0  0  0  0  0  0
  160.8440  206.0330  148.8170 C   0  0  2  0  0  3  0  0  0  0  0  0
  161.5750  207.1620  149.5300 C   0  0  0  0  0  2  0  0  0  0  0  0
  161.0770  207.2930  150.8950 N   0  0  0  0  0  0  0  0  0  0  0  0
  162.2510  209.4140  150.7090 O   0  0  0  0  0  1  0  0  0  0  0  0
  161.5980  208.5100  151.5570 C   0  0  2  0  0  0  0  0  0  0  0  0
  162.2690  207.2380  151.7710 C   0  0  0  0  0  2  0  0  0  0  0  0
  160.6110  208.2270  153.7430 F   0  0  0  0  0  0  0  0  0  0  0  0
  160.6790  209.0680  152.6440 C   0  0  1  0  0  3  0  0  0  0  0  0
  161.1200  210.4290  153.0680 C   0  0  0  0  0  0  0  0  0  0  0  0
  160.4250  211.5870  152.6140 N   0  0  0  0  0  1  0  0  0  0  0  0
  162.0970  210.5530  153.8520 O   0  0  0  0  0  0  0  0  0  0  0  0
  161.5840  206.2220  146.3640 C   0  0  2  0  0  3  0  0  0  0  0  0
  160.2560  206.2810  145.9350 O   0  0  0  0  0  1  0  0  0  0  0  0
  162.5080  205.7080  145.2590 C   0  0  0  0  0  3  0  0  0  0  0  0
  161.7520  205.1050  144.2560 O   0  0  0  0  0  1  0  0  0  0  0  0
  163.4280  204.7870  145.7650 O   0  0  0  0  0  1  0  0  0  0  0  0
  1  9  1  6  0  0  0
  1 12  1  0  0  0  0
  2 10  2  0  0  0  0
  3  4  2  0  0  0  0
  4  6  1  0  0  0  0
  4  2  1  0  0  0  0
  6  7  1  0  0  0  0
  7  5  2  0  0  0  0
  8  3  2  0  0  0  0
  9  6  2  0  0  0  0
 10  5  1  0  0  0  0
 12 11  1  6  0  0  0
 12 13  1  0  0  0  0
 13 14  1  0  0  0  0
 14 16  1  0  0  0  0
 14 17  1  0  0  0  0
 16 15  1  6  0  0  0
 16 17  1  0  0  0  0
 16 19  1  0  0  0  0
 19 20  1  0  0  0  0
 19 18  1  1  0  0  0
 20 22  2  0  0  0  0
 21 20  1  0  0  0  0
 23 24  1  6  0  0  0
 23  1  1  0  0  0  0
 25 27  1  0  0  0  0
 25 23  1  0  0  0  0
 26 25  1  0  0  0  0
M  END
>  <MODEL>
1

>  <REMARK>
 VINA RESULT:      -7.7      0.000      0.000
  Name = 
  8 active torsions:
  status: ('A' for Active; 'I' for Inactive)
    1  A    between atoms: C_1  and  C_26
    2  A    between atoms: C_5  and  C_8
    3  A    between atoms: C_5  and  C_11
    4  A    between atoms: C_7  and  C_11
    5  A    between atoms: C_7  and  C_14
    6  A    between atoms: C_8  and  N_10
    7  A    between atoms: C_11  and  N_24
    8  A    between atoms: C_20  and  C_26
                            x       y       z     vdW  Elec       q    Type
                         _______ _______ _______ _____ _____    ______ ____

>  <TORSDO>
F 8

$$$$
=
 OpenBabel11072412223D

 27 28  0  0  1  0  0  0  0  0999 V2000
  161.2000  208.1240  151.6820 C   0  0  2  0  0  3  0  0  0  0  0  0
  159.8770  211.0260  155.5090 C   0  0  0  0  0  3  0  0  0  0  0  0
  161.4370  209.2270  155.8260 C   0  0  0  0  0  0  0  0  0  0  0  0
  160.6670  209.8910  155.0050 C   0  0  0  0  0  0  0  0  0  0  0  0
  158.9650  211.3650  153.2530 C   0  0  0  0  0  3  0  0  0  0  0  0
  160.5620  209.5370  153.5720 C   0  0  0  0  0  0  0  0  0  0  0  0
  159.6550  210.3480  152.7280 C   0  0  0  0  0  3  0  0  0  0  0  0
  162.1670  208.5970  156.6010 O   0  0  0  0  0  0  0  0  0  0  0  0
  161.2400  208.5390  153.0840 N   0  0  0  0  0  0  0  0  0  0  0  0
  159.0800  211.7160  154.6850 C   0  0  0  0  0  3  0  0  0  0  0  0
  162.6470  206.2080  151.5360 O   0  0  0  0  0  1  0  0  0  0  0  0
  161.3070  206.5970  151.5790 C   0  0  2  0  0  3  0  0  0  0  0  0
  160.6080  206.0970  150.3230 C   0  0  0  0  0  2  0  0  0  0  0  0
  161.5510  205.3610  149.4880 N   0  0  0  0  0  0  0  0  0  0  0  0
  160.0370  206.1490  147.7550 O   0  0  0  0  0  1  0  0  0  0  0  0
  161.1100  205.3080  148.0750 C   0  0  2  0  0  0  0  0  0  0  0  0
  160.8060  204.1960  148.9610 C   0  0  0  0  0  2  0  0  0  0  0  0
  163.1100  204.1350  147.3960 F   0  0  0  0  0  0  0  0  0  0  0  0
  162.2560  205.1780  147.0720 C   0  0  1  0  0  3  0  0  0  0  0  0
  161.7330  204.9980  145.6860 C   0  0  0  0  0  0  0  0  0  0  0  0
  161.2010  203.7420  145.2740 N   0  0  0  0  0  1  0  0  0  0  0  0
  161.7380  205.9680  144.8850 O   0  0  0  0  0  0  0  0  0  0  0  0
  162.2840  208.8710  150.8870 C   0  0  2  0  0  3  0  0  0  0  0  0
  162.8040  209.9440  151.6150 O   0  0  0  0  0  1  0  0  0  0  0  0
  161.8420  209.3040  149.4890 C   0  0  0  0  0  3  0  0  0  0  0  0
  162.4790  208.5190  148.5290 O   0  0  0  0  0  1  0  0  0  0  0  0
  162.1420  210.6490  149.2640 O   0  0  0  0  0  1  0  0  0  0  0  0
  1  9  1  1  0  0  0
  3  8  2  0  0  0  0
  4  2  1  0  0  0  0
  4  3  2  0  0  0  0
  5 10  1  0  0  0  0
  6  4  1  0  0  0  0
  7  5  2  0  0  0  0
  7  6  1  0  0  0  0
  9  6  2  0  0  0  0
 10  2  2  0  0  0  0
 12 11  1  6  0  0  0
 12  1  1  0  0  0  0
 13 12  1  0  0  0  0
 14 13  1  0  0  0  0
 16 15  1  6  0  0  0
 16 17  1  0  0  0  0
 16 14  1  0  0  0  0
 17 14  1  0  0  0  0
 19 18  1  1  0  0  0
 19 16  1  0  0  0  0
 20 19  1  0  0  0  0
 21 20  1  0  0  0  0
 22 20  2  0  0  0  0
 23 24  1  1  0  0  0
 23  1  1  0  0  0  0
 25 23  1  0  0  0  0
 26 25  1  0  0  0  0
 27 25  1  0  0  0  0
M  END
>  <MODEL>
2

>  <REMARK>
 VINA RESULT:      -7.6      2.659      7.930
  Name = 
  8 active torsions:
  status: ('A' for Active; 'I' for Inactive)
    1  A    between atoms: C_1  and  C_26
    2  A    between atoms: C_5  and  C_8
    3  A    between atoms: C_5  and  C_11
    4  A    between atoms: C_7  and  C_11
    5  A    between atoms: C_7  and  C_14
    6  A    between atoms: C_8  and  N_10
    7  A    between atoms: C_11  and  N_24
    8  A    between atoms: C_20  and  C_26
                            x       y       z     vdW  Elec       q    Type
                         _______ _______ _______ _____ _____    ______ ____

>  <TORSDO>
F 8

$$$$
=
 OpenBabel11072412223D

 27 28  0  0  1  0  0  0  0  0999 V2000
  161.8870  205.9430  149.9190 C   0  0  2  0  0  3  0  0  0  0  0  0
  160.8860  202.1240  146.8810 C   0  0  0  0  0  3  0  0  0  0  0  0
  160.3090  202.0130  149.2110 C   0  0  0  0  0  0  0  0  0  0  0  0
  160.8360  202.7020  148.2330 C   0  0  0  0  0  0  0  0  0  0  0  0
  161.9840  204.1670  146.0710 C   0  0  0  0  0  3  0  0  0  0  0  0
  161.3890  204.0590  148.4430 C   0  0  0  0  0  0  0  0  0  0  0  0
  161.9700  204.7540  147.2720 C   0  0  0  0  0  3  0  0  0  0  0  0
  159.8100  201.3610  150.1370 O   0  0  0  0  0  0  0  0  0  0  0  0
  161.3680  204.6090  149.6230 N   0  0  0  0  0  0  0  0  0  0  0  0
  161.4240  202.8130  145.8690 C   0  0  0  0  0  3  0  0  0  0  0  0
  162.2490  204.8200  152.0150 O   0  0  0  0  0  1  0  0  0  0  0  0
  162.1750  206.0800  151.4190 C   0  0  2  0  0  3  0  0  0  0  0  0
  161.0790  206.8850  152.1010 C   0  0  0  0  0  2  0  0  0  0  0  0
  161.6030  208.1790  152.5240 N   0  0  0  0  0  0  0  0  0  0  0  0
  160.2560  207.6520  154.4790 O   0  0  0  0  0  1  0  0  0  0  0  0
  161.0040  208.6250  153.8030 C   0  0  2  0  0  0  0  0  0  0  0  0
  160.4450  209.1010  152.5480 C   0  0  0  0  0  2  0  0  0  0  0  0
  161.9200  210.8380  154.1160 F   0  0  0  0  0  0  0  0  0  0  0  0
  161.9050  209.5480  154.6230 C   0  0  1  0  0  3  0  0  0  0  0  0
  161.4860  209.5670  156.0550 C   0  0  0  0  0  0  0  0  0  0  0  0
  162.2060  208.8130  157.0270 N   0  0  0  0  0  1  0  0  0  0  0  0
  160.5070  210.2720  156.4110 O   0  0  0  0  0  0  0  0  0  0  0  0
  160.9170  207.0100  149.3810 C   0  0  2  0  0  3  0  0  0  0  0  0
  159.8660  206.4300  148.6650 O   0  0  0  0  0  1  0  0  0  0  0  0
  161.5970  208.1200  148.5780 C   0  0  0  0  0  3  0  0  0  0  0  0
  162.7920  207.6460  148.0400 O   0  0  0  0  0  1  0  0  0  0  0  0
  161.8570  209.2320  149.3820 O   0  0  0  0  0  1  0  0  0  0  0  0
  1  9  1  1  0  0  0
  1 12  1  0  0  0  0
  2  4  1  0  0  0  0
  3  8  2  0  0  0  0
  4  6  1  0  0  0  0
  4  3  2  0  0  0  0
  5  7  2  0  0  0  0
  6  9  2  0  0  0  0
  7  6  1  0  0  0  0
 10  5  1  0  0  0  0
 10  2  2  0  0  0  0
 12 11  1  1  0  0  0
 12 13  1  0  0  0  0
 13 14  1  0  0  0  0
 14 17  1  0  0  0  0
 14 16  1  0  0  0  0
 16 15  1  1  0  0  0
 16 19  1  0  0  0  0
 17 16  1  0  0  0  0
 19 18  1  6  0  0  0
 19 20  1  0  0  0  0
 20 22  2  0  0  0  0
 20 21  1  0  0  0  0
 23 24  1  6  0  0  0
 23  1  1  0  0  0  0
 25 23  1  0  0  0  0
 25 27  1  0  0  0  0
 26 25  1  0  0  0  0
M  END
>  <MODEL>
3

>  <REMARK>
 VINA RESULT:      -7.4      2.422      3.534
  Name = 
  8 active torsions:
  status: ('A' for Active; 'I' for Inactive)
    1  A    between atoms: C_1  and  C_26
    2  A    between atoms: C_5  and  C_8
    3  A    between atoms: C_5  and  C_11
    4  A    between atoms: C_7  and  C_11
    5  A    between atoms: C_7  and  C_14
    6  A    between atoms: C_8  and  N_10
    7  A    between atoms: C_11  and  N_24
    8  A    between atoms: C_20  and  C_26
                            x       y       z     vdW  Elec       q    Type
                         _______ _______ _______ _____ _____    ______ ____

>  <TORSDO>
F 8

$$$$
=
 OpenBabel11072412223D

 27 28  0  0  1  0  0  0  0  0999 V2000
  160.9640  209.3930  154.5340 C   0  0  2  0  0  3  0  0  0  0  0  0
  157.7280  212.8890  153.0770 C   0  0  0  0  0  3  0  0  0  0  0  0
  157.1850  211.4030  154.8850 C   0  0  0  0  0  0  0  0  0  0  0  0
  158.0520  211.7740  153.9800 C   0  0  0  0  0  0  0  0  0  0  0  0
  159.9110  212.6120  151.9850 C   0  0  0  0  0  3  0  0  0  0  0  0
  159.3630  211.1020  153.8320 C   0  0  0  0  0  0  0  0  0  0  0  0
  160.2720  211.5930  152.7710 C   0  0  0  0  0  3  0  0  0  0  0  0
  156.3650  211.0510  155.7420 O   0  0  0  0  0  0  0  0  0  0  0  0
  159.6910  210.1090  154.6070 N   0  0  0  0  0  0  0  0  0  0  0  0
  158.6020  213.2810  152.1420 C   0  0  0  0  0  3  0  0  0  0  0  0
  161.1770  207.0010  154.3980 O   0  0  0  0  0  1  0  0  0  0  0  0
  160.8150  208.1350  153.6690 C   0  0  2  0  0  3  0  0  0  0  0  0
  161.6990  208.2300  152.4340 C   0  0  0  0  0  2  0  0  0  0  0  0
  160.9390  207.8470  151.2490 N   0  0  0  0  0  0  0  0  0  0  0  0
  162.4230  205.9250  151.3930 O   0  0  0  0  0  1  0  0  0  0  0  0
  161.4750  206.6150  150.6260 C   0  0  2  0  0  0  0  0  0  0  0  0
  161.8890  207.9120  150.1160 C   0  0  0  0  0  2  0  0  0  0  0  0
  160.0150  206.4550  148.7080 F   0  0  0  0  0  0  0  0  0  0  0  0
  160.4320  205.8030  149.8580 C   0  0  1  0  0  3  0  0  0  0  0  0
  160.9580  204.4490  149.5150 C   0  0  0  0  0  0  0  0  0  0  0  0
  160.7040  203.3390  150.3710 N   0  0  0  0  0  1  0  0  0  0  0  0
  161.6080  204.2820  148.4500 O   0  0  0  0  0  0  0  0  0  0  0  0
  161.4800  209.1040  155.9550 C   0  0  2  0  0  3  0  0  0  0  0  0
  160.4270  208.9130  156.8520 O   0  0  0  0  0  1  0  0  0  0  0  0
  162.4790  210.1380  156.4750 C   0  0  0  0  0  3  0  0  0  0  0  0
  161.8130  211.0890  157.2460 O   0  0  0  0  0  1  0  0  0  0  0  0
  163.1380  210.7730  155.4200 O   0  0  0  0  0  1  0  0  0  0  0  0
  1  9  1  1  0  0  0
  1 23  1  0  0  0  0
  2  4  1  0  0  0  0
  3  8  2  0  0  0  0
  4  3  2  0  0  0  0
  5 10  1  0  0  0  0
  5  7  2  0  0  0  0
  6  4  1  0  0  0  0
  6  9  2  0  0  0  0
  7  6  1  0  0  0  0
 10  2  2  0  0  0  0
 12 11  1  1  0  0  0
 12  1  1  0  0  0  0
 13 12  1  0  0  0  0
 14 13  1  0  0  0  0
 16 14  1  0  0  0  0
 16 15  1  1  0  0  0
 17 16  1  0  0  0  0
 17 14  1  0  0  0  0
 19 18  1  6  0  0  0
 19 16  1  0  0  0  0
 20 19  1  0  0  0  0
 20 21  1  0  0  0  0
 22 20  2  0  0  0  0
 23 25  1  0  0  0  0
 23 24  1  1  0  0  0
 25 26  1  0  0  0  0
 27 25  1  0  0  0  0
M  END
>  <MODEL>
4

>  <REMARK>
 VINA RESULT:      -7.3      3.105      9.283
  Name = 
  8 active torsions:
  status: ('A' for Active; 'I' for Inactive)
    1  A    between atoms: C_1  and  C_26
    2  A    between atoms: C_5  and  C_8
    3  A    between atoms: C_5  and  C_11
    4  A    between atoms: C_7  and  C_11
    5  A    between atoms: C_7  and  C_14
    6  A    between atoms: C_8  and  N_10
    7  A    between atoms: C_11  and  N_24
    8  A    between atoms: C_20  and  C_26
                            x       y       z     vdW  Elec       q    Type
                         _______ _______ _______ _____ _____    ______ ____

>  <TORSDO>
F 8

$$$$
=
 OpenBabel11072412223D

 27 28  0  0  1  0  0  0  0  0999 V2000
  161.0930  206.6550  150.5270 C   0  0  2  0  0  3  0  0  0  0  0  0
  161.3020  202.5170  147.7600 C   0  0  0  0  0  3  0  0  0  0  0  0
  162.3870  204.5320  147.0260 C   0  0  0  0  0  0  0  0  0  0  0  0
  161.6680  203.9310  147.9380 C   0  0  0  0  0  0  0  0  0  0  0  0
  160.0930  202.5830  149.8980 C   0  0  0  0  0  3  0  0  0  0  0  0
  161.2060  204.6340  149.1560 C   0  0  0  0  0  0  0  0  0  0  0  0
  160.3900  203.8670  150.1250 C   0  0  0  0  0  3  0  0  0  0  0  0
  163.0680  205.1010  146.1640 O   0  0  0  0  0  0  0  0  0  0  0  0
  161.5030  205.8860  149.3530 N   0  0  0  0  0  0  0  0  0  0  0  0
  160.5640  201.8870  148.6810 C   0  0  0  0  0  3  0  0  0  0  0  0
  161.8710  208.4130  149.0820 O   0  0  0  0  0  1  0  0  0  0  0  0
  161.0790  208.1530  150.2020 C   0  0  2  0  0  3  0  0  0  0  0  0
  161.6080  208.9600  151.3790 C   0  0  0  0  0  2  0  0  0  0  0  0
  160.5110  209.3150  152.2720 N   0  0  0  0  0  0  0  0  0  0  0  0
  161.0820  211.5360  151.4620 O   0  0  0  0  0  1  0  0  0  0  0  0
  160.3460  210.7820  152.3860 C   0  0  2  0  0  0  0  0  0  0  0  0
  161.1210  210.0700  153.3890 C   0  0  0  0  0  2  0  0  0  0  0  0
  158.5930  210.9780  154.0360 F   0  0  0  0  0  0  0  0  0  0  0  0
  158.9190  211.2240  152.7110 C   0  0  1  0  0  3  0  0  0  0  0  0
  158.7240  212.6690  152.3970 C   0  0  0  0  0  0  0  0  0  0  0  0
  158.0600  213.0640  151.2000 N   0  0  0  0  0  1  0  0  0  0  0  0
  159.1270  213.5450  153.2060 O   0  0  0  0  0  0  0  0  0  0  0  0
  161.9910  206.2950  151.7250 C   0  0  2  0  0  3  0  0  0  0  0  0
  162.9360  205.3260  151.3810 O   0  0  0  0  0  1  0  0  0  0  0  0
  161.2180  205.9030  152.9850 C   0  0  0  0  0  3  0  0  0  0  0  0
  161.7330  206.5880  154.0850 O   0  0  0  0  0  1  0  0  0  0  0  0
  161.2990  204.5280  153.2140 O   0  0  0  0  0  1  0  0  0  0  0  0
  1  9  1  6  0  0  0
  1 23  1  0  0  0  0
  2  4  1  0  0  0  0
  2 10  2  0  0  0  0
  3  4  2  0  0  0  0
  4  6  1  0  0  0  0
  5  7  2  0  0  0  0
  6  9  2  0  0  0  0
  6  7  1  0  0  0  0
  8  3  2  0  0  0  0
 10  5  1  0  0  0  0
 12 11  1  6  0  0  0
 12  1  1  0  0  0  0
 12 13  1  0  0  0  0
 13 14  1  0  0  0  0
 14 16  1  0  0  0  0
 14 17  1  0  0  0  0
 16 15  1  6  0  0  0
 16 19  1  0  0  0  0
 16 17  1  0  0  0  0
 19 18  1  1  0  0  0
 20 19  1  0  0  0  0
 20 22  2  0  0  0  0
 21 20  1  0  0  0  0
 23 24  1  6  0  0  0
 23 25  1  0  0  0  0
 25 27  1  0  0  0  0
 25 26  1  0  0  0  0
M  END
>  <MODEL>
5

>  <REMARK>
 VINA RESULT:      -7.2      2.434      4.184
  Name = 
  8 active torsions:
  status: ('A' for Active; 'I' for Inactive)
    1  A    between atoms: C_1  and  C_26
    2  A    between atoms: C_5  and  C_8
    3  A    between atoms: C_5  and  C_11
    4  A    between atoms: C_7  and  C_11
    5  A    between atoms: C_7  and  C_14
    6  A    between atoms: C_8  and  N_10
    7  A    between atoms: C_11  and  N_24
    8  A    between atoms: C_20  and  C_26
                            x       y       z     vdW  Elec       q    Type
                         _______ _______ _______ _____ _____    ______ ____

>  <TORSDO>
F 8

$$$$
=
 OpenBabel11072412223D

 27 28  0  0  1  0  0  0  0  0999 V2000
  162.0290  206.3130  149.2190 C   0  0  2  0  0  3  0  0  0  0  0  0
  160.5580  201.5910  149.8210 C   0  0  0  0  0  3  0  0  0  0  0  0
  160.5980  203.1040  151.6870 C   0  0  0  0  0  0  0  0  0  0  0  0
  160.8120  202.9150  150.4110 C   0  0  0  0  0  0  0  0  0  0  0  0
  161.2720  202.4550  147.6340 C   0  0  0  0  0  3  0  0  0  0  0  0
  161.3050  203.9990  149.5330 C   0  0  0  0  0  0  0  0  0  0  0  0
  161.5220  203.6810  148.1030 C   0  0  0  0  0  3  0  0  0  0  0  0
  160.3970  203.2840  152.8950 O   0  0  0  0  0  0  0  0  0  0  0  0
  161.5460  205.1850  150.0130 N   0  0  0  0  0  0  0  0  0  0  0  0
  160.7740  201.3790  148.5170 C   0  0  0  0  0  3  0  0  0  0  0  0
  162.8640  206.8300  151.4150 O   0  0  0  0  0  1  0  0  0  0  0  0
  162.7250  207.3390  150.1220 C   0  0  2  0  0  3  0  0  0  0  0  0
  161.9190  208.6290  150.1830 C   0  0  0  0  0  2  0  0  0  0  0  0
  162.3340  209.4190  151.3370 N   0  0  0  0  0  0  0  0  0  0  0  0
  160.2040  208.6010  152.1770 O   0  0  0  0  0  1  0  0  0  0  0  0
  161.2760  209.4810  152.3710 C   0  0  2  0  0  0  0  0  0  0  0  0
  161.3960  210.5620  151.4070 C   0  0  0  0  0  2  0  0  0  0  0  0
  161.9560  211.0190  154.1050 F   0  0  0  0  0  0  0  0  0  0  0  0
  161.8070  209.6780  153.7920 C   0  0  1  0  0  3  0  0  0  0  0  0
  160.9160  209.0160  154.7890 C   0  0  0  0  0  0  0  0  0  0  0  0
  159.8260  209.7280  155.3670 N   0  0  0  0  0  1  0  0  0  0  0  0
  161.1140  207.8140  155.1030 O   0  0  0  0  0  0  0  0  0  0  0  0
  160.8700  206.9050  148.3970 C   0  0  2  0  0  3  0  0  0  0  0  0
  159.6590  206.2790  148.6990 O   0  0  0  0  0  1  0  0  0  0  0  0
  161.1280  206.9320  146.8900 C   0  0  0  0  0  3  0  0  0  0  0  0
  160.1500  206.1870  146.2330 O   0  0  0  0  0  1  0  0  0  0  0  0
  162.3880  206.4130  146.5880 O   0  0  0  0  0  1  0  0  0  0  0  0
  1  9  1  1  0  0  0
  1 12  1  0  0  0  0
  2  4  1  0  0  0  0
  3  8  2  0  0  0  0
  4  3  2  0  0  0  0
  5  7  2  0  0  0  0
  5 10  1  0  0  0  0
  6  9  2  0  0  0  0
  6  4  1  0  0  0  0
  7  6  1  0  0  0  0
 10  2  2  0  0  0  0
 12 13  1  0  0  0  0
 12 11  1  1  0  0  0
 13 14  1  0  0  0  0
 14 17  1  0  0  0  0
 14 16  1  0  0  0  0
 16 15  1  6  0  0  0
 16 19  1  0  0  0  0
 17 16  1  0  0  0  0
 19 18  1  1  0  0  0
 19 20  1  0  0  0  0
 20 22  2  0  0  0  0
 20 21  1  0  0  0  0
 23 24  1  6  0  0  0
 23  1  1  0  0  0  0
 25 23  1  0  0  0  0
 26 25  1  0  0  0  0
 27 25  1  0  0  0  0
M  END
>  <MODEL>
6

>  <REMARK>
 VINA RESULT:      -7.1      2.061      3.028
  Name = 
  8 active torsions:
  status: ('A' for Active; 'I' for Inactive)
    1  A    between atoms: C_1  and  C_26
    2  A    between atoms: C_5  and  C_8
    3  A    between atoms: C_5  and  C_11
    4  A    between atoms: C_7  and  C_11
    5  A    between atoms: C_7  and  C_14
    6  A    between atoms: C_8  and  N_10
    7  A    between atoms: C_11  and  N_24
    8  A    between atoms: C_20  and  C_26
                            x       y       z     vdW  Elec       q    Type
                         _______ _______ _______ _____ _____    ______ ____

>  <TORSDO>
F 8

$$$$
=
 OpenBabel11072412223D

 27 28  0  0  1  0  0  0  0  0999 V2000
  161.1450  208.4570  151.9560 C   0  0  2  0  0  3  0  0  0  0  0  0
  160.0570  212.0120  155.2720 C   0  0  0  0  0  3  0  0  0  0  0  0
  161.8320  210.4500  155.6970 C   0  0  0  0  0  0  0  0  0  0  0  0
  160.8880  210.8590  154.8910 C   0  0  0  0  0  0  0  0  0  0  0  0
  158.8110  211.7820  153.1670 C   0  0  0  0  0  3  0  0  0  0  0  0
  160.6250  210.1950  153.5940 C   0  0  0  0  0  0  0  0  0  0  0  0
  159.5280  210.7310  152.7570 C   0  0  0  0  0  3  0  0  0  0  0  0
  162.7260  210.0610  156.4590 O   0  0  0  0  0  0  0  0  0  0  0  0
  161.3340  209.1700  153.2180 N   0  0  0  0  0  0  0  0  0  0  0  0
  159.0840  212.4440  154.4610 C   0  0  0  0  0  3  0  0  0  0  0  0
  161.7170  206.6180  153.3970 O   0  0  0  0  0  1  0  0  0  0  0  0
  161.0670  206.9460  152.2060 C   0  0  2  0  0  3  0  0  0  0  0  0
  161.7180  206.1820  151.0610 C   0  0  0  0  0  2  0  0  0  0  0  0
  161.6450  204.7480  151.3170 N   0  0  0  0  0  0  0  0  0  0  0  0
  160.8410  204.7710  149.0220 O   0  0  0  0  0  1  0  0  0  0  0  0
  161.0190  204.0190  150.1900 C   0  0  2  0  0  0  0  0  0  0  0  0
  160.2050  204.4080  151.3300 C   0  0  0  0  0  2  0  0  0  0  0  0
  161.4370  201.8980  151.2690 F   0  0  0  0  0  0  0  0  0  0  0  0
  161.4810  202.5670  150.0560 C   0  0  1  0  0  3  0  0  0  0  0  0
  160.6630  201.8400  149.0420 C   0  0  0  0  0  0  0  0  0  0  0  0
  159.3800  201.3240  149.3850 N   0  0  0  0  0  1  0  0  0  0  0  0
  161.0970  201.7040  147.8690 O   0  0  0  0  0  0  0  0  0  0  0  0
  162.2510  208.8580  150.9620 C   0  0  2  0  0  3  0  0  0  0  0  0
  163.0390  209.8950  151.4670 O   0  0  0  0  0  1  0  0  0  0  0  0
  161.7370  209.1780  149.5580 C   0  0  0  0  0  3  0  0  0  0  0  0
  162.3910  208.3750  148.6240 O   0  0  0  0  0  1  0  0  0  0  0  0
  161.9460  210.5220  149.2430 O   0  0  0  0  0  1  0  0  0  0  0  0
  1 12  1  0  0  0  0
  1  9  1  1  0  0  0
  3  8  2  0  0  0  0
  4  2  1  0  0  0  0
  4  3  2  0  0  0  0
  5 10  1  0  0  0  0
  6  4  1  0  0  0  0
  7  5  2  0  0  0  0
  7  6  1  0  0  0  0
  9  6  2  0  0  0  0
 10  2  2  0  0  0  0
 12 11  1  1  0  0  0
 13 14  1  0  0  0  0
 13 12  1  0  0  0  0
 14 17  1  0  0  0  0
 16 15  1  6  0  0  0
 16 14  1  0  0  0  0
 16 17  1  0  0  0  0
 19 16  1  0  0  0  0
 19 18  1  1  0  0  0
 20 21  1  0  0  0  0
 20 19  1  0  0  0  0
 22 20  2  0  0  0  0
 23 24  1  1  0  0  0
 23  1  1  0  0  0  0
 25 23  1  0  0  0  0
 26 25  1  0  0  0  0
 27 25  1  0  0  0  0
M  END
>  <MODEL>
7

>  <REMARK>
 VINA RESULT:      -7.1      2.922      8.247
  Name = 
  8 active torsions:
  status: ('A' for Active; 'I' for Inactive)
    1  A    between atoms: C_1  and  C_26
    2  A    between atoms: C_5  and  C_8
    3  A    between atoms: C_5  and  C_11
    4  A    between atoms: C_7  and  C_11
    5  A    between atoms: C_7  and  C_14
    6  A    between atoms: C_8  and  N_10
    7  A    between atoms: C_11  and  N_24
    8  A    between atoms: C_20  and  C_26
                            x       y       z     vdW  Elec       q    Type
                         _______ _______ _______ _____ _____    ______ ____

>  <TORSDO>
F 8

$$$$
=
 OpenBabel11072412223D

 27 28  0  0  1  0  0  0  0  0999 V2000
  161.5540  207.8370  152.1360 C   0  0  2  0  0  3  0  0  0  0  0  0
  160.8260  208.4950  157.0210 C   0  0  0  0  0  3  0  0  0  0  0  0
  162.1620  210.0490  155.7660 C   0  0  0  0  0  0  0  0  0  0  0  0
  161.4370  208.9610  155.7660 C   0  0  0  0  0  0  0  0  0  0  0  0
  159.8540  206.5880  155.8140 C   0  0  0  0  0  3  0  0  0  0  0  0
  161.2080  208.1750  154.5320 C   0  0  0  0  0  0  0  0  0  0  0  0
  160.3770  206.9550  154.6390 C   0  0  0  0  0  3  0  0  0  0  0  0
  162.8490  211.0780  155.7650 O   0  0  0  0  0  0  0  0  0  0  0  0
  161.7320  208.5490  153.4010 N   0  0  0  0  0  0  0  0  0  0  0  0
  160.0840  207.3820  157.0400 C   0  0  0  0  0  3  0  0  0  0  0  0
  163.2700  206.1670  151.9130 O   0  0  0  0  0  1  0  0  0  0  0  0
  161.9430  206.3620  152.2980 C   0  0  2  0  0  3  0  0  0  0  0  0
  161.0460  205.4770  151.4450 C   0  0  0  0  0  2  0  0  0  0  0  0
  161.7250  204.2200  151.1490 N   0  0  0  0  0  0  0  0  0  0  0  0
  159.5640  203.7370  150.1420 O   0  0  0  0  0  1  0  0  0  0  0  0
  160.8090  203.2300  150.5390 C   0  0  2  0  0  0  0  0  0  0  0  0
  161.0530  203.1900  151.9710 C   0  0  0  0  0  2  0  0  0  0  0  0
  161.1500  200.9150  149.9400 F   0  0  0  0  0  0  0  0  0  0  0  0
  161.5040  202.2180  149.6280 C   0  0  1  0  0  3  0  0  0  0  0  0
  161.2060  202.4990  148.1930 C   0  0  0  0  0  0  0  0  0  0  0  0
  161.5910  203.7380  147.6060 N   0  0  0  0  0  1  0  0  0  0  0  0
  160.6330  201.6260  147.4920 O   0  0  0  0  0  0  0  0  0  0  0  0
  162.3300  208.5570  151.0200 C   0  0  2  0  0  3  0  0  0  0  0  0
  162.5360  209.9040  151.3280 O   0  0  0  0  0  1  0  0  0  0  0  0
  161.7180  208.3880  149.6280 C   0  0  0  0  0  3  0  0  0  0  0  0
  162.3430  207.3340  148.9650 O   0  0  0  0  0  1  0  0  0  0  0  0
  161.8540  209.5570  148.8770 O   0  0  0  0  0  1  0  0  0  0  0  0
  1 12  1  0  0  0  0
  1  9  1  1  0  0  0
  2 10  2  0  0  0  0
  4  3  2  0  0  0  0
  4  2  1  0  0  0  0
  5 10  1  0  0  0  0
  6  7  1  0  0  0  0
  6  4  1  0  0  0  0
  7  5  2  0  0  0  0
  8  3  2  0  0  0  0
  9  6  2  0  0  0  0
 12 11  1  6  0  0  0
 13 12  1  0  0  0  0
 14 13  1  0  0  0  0
 14 17  1  0  0  0  0
 16 15  1  6  0  0  0
 16 14  1  0  0  0  0
 16 17  1  0  0  0  0
 19 18  1  1  0  0  0
 19 16  1  0  0  0  0
 20 19  1  0  0  0  0
 21 20  1  0  0  0  0
 22 20  2  0  0  0  0
 23 24  1  1  0  0  0
 23  1  1  0  0  0  0
 25 23  1  0  0  0  0
 26 25  1  0  0  0  0
 27 25  1  0  0  0  0
M  END
>  <MODEL>
8

>  <REMARK>
 VINA RESULT:      -6.9      2.966      7.754
  Name = 
  8 active torsions:
  status: ('A' for Active; 'I' for Inactive)
    1  A    between atoms: C_1  and  C_26
    2  A    between atoms: C_5  and  C_8
    3  A    between atoms: C_5  and  C_11
    4  A    between atoms: C_7  and  C_11
    5  A    between atoms: C_7  and  C_14
    6  A    between atoms: C_8  and  N_10
    7  A    between atoms: C_11  and  N_24
    8  A    between atoms: C_20  and  C_26
                            x       y       z     vdW  Elec       q    Type
                         _______ _______ _______ _____ _____    ______ ____

>  <TORSDO>
F 8

$$$$
=
 OpenBabel11072412223D

 27 28  0  0  1  0  0  0  0  0999 V2000
  161.1760  206.6810  151.0090 C   0  0  2  0  0  3  0  0  0  0  0  0
  161.2010  202.7870  147.9010 C   0  0  0  0  0  3  0  0  0  0  0  0
  162.1890  204.8770  147.2460 C   0  0  0  0  0  0  0  0  0  0  0  0
  161.5610  204.1900  148.1630 C   0  0  0  0  0  0  0  0  0  0  0  0
  160.1840  202.6530  150.1330 C   0  0  0  0  0  3  0  0  0  0  0  0
  161.1970  204.7810  149.4710 C   0  0  0  0  0  0  0  0  0  0  0  0
  160.4810  203.9200  150.4390 C   0  0  0  0  0  3  0  0  0  0  0  0
  162.7830  205.5290  146.3770 O   0  0  0  0  0  0  0  0  0  0  0  0
  161.4930  206.0190  149.7440 N   0  0  0  0  0  0  0  0  0  0  0  0
  160.5560  202.0690  148.8270 C   0  0  0  0  0  3  0  0  0  0  0  0
  161.4750  208.5370  149.5080 O   0  0  0  0  0  1  0  0  0  0  0  0
  161.0850  208.1980  150.8050 C   0  0  2  0  0  3  0  0  0  0  0  0
  161.9830  208.9240  151.7960 C   0  0  0  0  0  2  0  0  0  0  0  0
  161.3430  210.1600  152.2340 N   0  0  0  0  0  0  0  0  0  0  0  0
  161.4480  209.0050  154.3710 O   0  0  0  0  0  1  0  0  0  0  0  0
  160.9420  210.0990  153.6580 C   0  0  2  0  0  0  0  0  0  0  0  0
  159.9650  209.7900  152.6260 C   0  0  0  0  0  2  0  0  0  0  0  0
  159.7320  212.1500  154.0600 F   0  0  0  0  0  0  0  0  0  0  0  0
  160.8980  211.4610  154.3510 C   0  0  1  0  0  3  0  0  0  0  0  0
  161.0490  211.3120  155.8280 C   0  0  0  0  0  0  0  0  0  0  0  0
  159.9010  211.2000  156.6620 N   0  0  0  0  0  1  0  0  0  0  0  0
  162.1990  211.2600  156.3360 O   0  0  0  0  0  0  0  0  0  0  0  0
  162.1970  206.2670  152.0830 C   0  0  2  0  0  3  0  0  0  0  0  0
  163.1860  205.4330  151.5540 O   0  0  0  0  0  1  0  0  0  0  0  0
  161.5680  205.6610  153.3380 C   0  0  0  0  0  3  0  0  0  0  0  0
  161.1800  204.3470  153.0830 O   0  0  0  0  0  1  0  0  0  0  0  0
  160.4570  206.4020  153.7480 O   0  0  0  0  0  1  0  0  0  0  0  0
  1  9  1  6  0  0  0
  1 23  1  0  0  0  0
  2  4  1  0  0  0  0
  2 10  2  0  0  0  0
  3  4  2  0  0  0  0
  4  6  1  0  0  0  0
  5  7  2  0  0  0  0
  6  9  2  0  0  0  0
  6  7  1  0  0  0  0
  8  3  2  0  0  0  0
 10  5  1  0  0  0  0
 12 11  1  6  0  0  0
 12  1  1  0  0  0  0
 12 13  1  0  0  0  0
 13 14  1  0  0  0  0
 14 17  1  0  0  0  0
 14 16  1  0  0  0  0
 16 19  1  0  0  0  0
 16 15  1  1  0  0  0
 17 16  1  0  0  0  0
 19 18  1  1  0  0  0
 19 20  1  0  0  0  0
 20 22  2  0  0  0  0
 20 21  1  0  0  0  0
 23 24  1  6  0  0  0
 23 25  1  0  0  0  0
 25 27  1  0  0  0  0
 26 25  1  0  0  0  0
M  END
>  <MODEL>
9

>  <REMARK>
 VINA RESULT:      -6.9      2.358      4.325
  Name = 
  8 active torsions:
  status: ('A' for Active; 'I' for Inactive)
    1  A    between atoms: C_1  and  C_26
    2  A    between atoms: C_5  and  C_8
    3  A    between atoms: C_5  and  C_11
    4  A    between atoms: C_7  and  C_11
    5  A    between atoms: C_7  and  C_14
    6  A    between atoms: C_8  and  N_10
    7  A    between atoms: C_11  and  N_24
    8  A    between atoms: C_20  and  C_26
                            x       y       z     vdW  Elec       q    Type
                         _______ _______ _______ _____ _____    ______ ____

>  <TORSDO>
F 8

$$$$
