=
 OpenBabel11072411453D

 49 58  0  0  1  0  0  0  0  0999 V2000
  161.3880  211.3460  148.2460 C   0  0  1  0  0  3  0  0  0  0  0  0
  162.1840  209.2410  153.2220 C   0  0  1  0  0  3  0  0  0  0  0  0
  163.6190  205.6130  151.5380 O   0  0  0  0  0  0  0  0  0  0  0  0
  159.4850  204.6760  153.0470 O   0  0  0  0  0  1  0  0  0  0  0  0
  161.4450  209.8620  148.5720 C   0  0  0  0  0  2  0  0  0  0  0  0
  160.1750  213.1860  150.9870 N   0  0  2  0  0  0  0  0  0  0  0  0
  159.9250  206.3940  154.6220 C   0  0  0  0  0  2  0  0  0  0  0  0
  158.4420  211.5470  153.2610 C   0  0  0  0  0  2  0  0  0  0  0  0
  160.7120  208.2530  156.1950 N   0  0  0  0  0  0  0  0  0  0  0  0
  158.1670  212.6120  152.2220 C   0  0  0  0  0  0  0  0  0  0  0  0
  161.9830  207.9660  154.0680 C   0  0  2  0  0  3  0  0  0  0  0  0
  160.7270  213.2930  149.6380 C   0  0  0  0  0  2  0  0  0  0  0  0
  157.8700  211.0870  155.7630 C   0  0  2  0  0  3  0  0  0  0  0  0
  159.9990  209.2580  152.3010 O   0  0  0  0  0  0  0  0  0  0  0  0
  159.9400  207.4570  157.0560 N   0  0  0  0  0  1  0  0  0  0  0  0
  156.8920  212.9100  154.7130 C   0  0  0  0  0  0  0  0  0  0  0  0
  161.1880  209.4570  152.1090 C   0  0  0  0  0  0  0  0  0  0  0  0
  157.7250  211.8010  154.5040 N   0  0  0  0  0  0  0  0  0  0  0  0
  160.7530  209.6390  149.7630 O   0  0  0  0  0  0  0  0  0  0  0  0
  157.4750  209.6520  155.6040 C   0  0  0  0  0  3  0  0  0  0  0  0
  156.6720  213.8130  153.7610 C   0  0  0  0  0  3  0  0  0  0  0  0
  157.3420  213.6460  152.4600 C   0  0  0  0  0  3  0  0  0  0  0  0
  161.0800  212.3350  151.7500 C   0  0  0  0  0  2  0  0  0  0  0  0
  163.0400  206.7950  152.0110 C   0  0  2  0  0  3  0  0  0  0  0  0
  162.6500  206.6880  153.4860 C   0  0  2  0  0  3  0  0  0  0  0  0
  161.9390  211.5320  150.7890 C   0  0  2  0  0  3  0  0  0  0  0  0
  156.3760  212.9670  156.0260 N   0  0  0  0  0  0  0  0  0  0  0  0
  162.2190  205.5940  151.6860 C   0  0  2  0  0  0  0  0  0  0  0  0
  160.6290  207.7550  154.7970 C   0  0  1  0  0  0  0  0  0  0  0  0
  156.9080  211.8040  156.7380 C   0  0  0  0  0  3  0  0  0  0  0  0
  158.3580  208.6840  155.3360 C   0  0  0  0  0  3  0  0  0  0  0  0
  158.8780  212.5230  150.9080 C   0  0  0  0  0  2  0  0  0  0  0  0
  160.2200  205.8480  153.2440 C   0  0  1  0  0  3  0  0  0  0  0  0
  161.7900  212.2270  149.4370 C   0  0  1  0  0  3  0  0  0  0  0  0
  161.6460  210.0060  150.7820 C   0  0  1  0  0  3  0  0  0  0  0  0
  159.8460  208.9410  155.1960 C   0  0  1  0  0  3  0  0  0  0  0  0
  161.7140  205.5320  153.1300 C   0  0  2  0  0  3  0  0  0  0  0  0
  160.6430  205.6990  148.1870 C   0  0  0  0  0  1  0  0  0  0  0  0
  161.3800  205.9730  150.5000 C   0  0  0  0  0  3  0  0  0  0  0  0
  161.4890  205.3120  149.3520 C   0  0  0  0  0  3  0  0  0  0  0  0
  162.4830  210.4690  154.0350 C   0  0  0  0  0  0  0  0  0  0  0  0
  163.6320  210.8240  154.2420 O   0  0  0  0  0  0  0  0  0  0  0  0
  161.3520  211.2300  154.6510 C   0  0  0  0  0  1  0  0  0  0  0  0
  162.2250  211.6160  147.1620 O   0  0  0  0  0  0  0  0  0  0  0  0
  162.0440  212.9770  146.8940 C   0  0  0  0  0  2  0  0  0  0  0  0
  162.1600  213.2790  145.4080 C   0  0  2  0  0  0  0  0  0  0  0  0
  163.3230  212.9810  144.7290 F   0  0  0  0  0  0  0  0  0  0  0  0
  161.2690  214.2780  144.7960 C   0  0  0  0  0  2  0  0  0  0  0  0
  161.0250  212.8890  144.6830 O   0  0  0  0  0  0  0  0  0  0  0  0
  1 44  1  6  0  0  0
  1  5  1  0  0  0  0
  1 34  1  0  0  0  0
  2 41  1  1  0  0  0
  2 11  1  0  0  0  0
  3 28  1  0  0  0  0
  3 24  1  0  0  0  0
  4 33  1  0  0  0  0
  5 19  1  0  0  0  0
  6 12  1  6  0  0  0
  6 23  1  0  0  0  0
  7 29  1  0  0  0  0
  8 18  1  0  0  0  0
  9 15  1  0  0  0  0
 10 22  2  0  0  0  0
 10  8  1  0  0  0  0
 11 29  1  0  0  0  0
 13 30  1  0  0  0  0
 16 27  1  0  0  0  0
 17 14  2  0  0  0  0
 17  2  1  0  0  0  0
 18 16  1  0  0  0  0
 18 13  1  0  0  0  0
 19 35  1  0  0  0  0
 20 13  1  0  0  0  0
 21 16  2  0  0  0  0
 22 21  1  0  0  0  0
 24 25  1  0  0  0  0
 25 11  1  0  0  0  0
 26 23  1  0  0  0  0
 27 30  2  0  0  0  0
 28 24  1  0  0  0  0
 28 37  1  0  0  0  0
 29 36  1  0  0  0  0
 29  9  1  0  0  0  0
 31 20  2  0  0  0  0
 32  6  1  0  0  0  0
 32 10  1  0  0  0  0
 33  7  1  0  0  0  0
 34 12  1  0  0  0  0
 34 26  1  0  0  0  0
 35 26  1  0  0  0  0
 35 17  1  0  0  0  0
 36 31  1  0  0  0  0
 36  9  1  0  0  0  0
 37 33  1  0  0  0  0
 37 25  1  0  0  0  0
 38 40  1  0  0  0  0
 39 28  1  0  0  0  0
 40 39  2  0  0  0  0
 41 42  2  0  0  0  0
 41 43  1  0  0  0  0
 45 44  1  0  0  0  0
 46 45  1  0  0  0  0
 47 46  1  0  0  0  0
 48 46  1  0  0  0  0
 49 48  1  0  0  0  0
 49 46  1  0  0  0  0
M  END
>  <MODEL>
1

>  <REMARK>
 VINA RESULT:       6.1      0.000      0.000
  Name = 
  5 active torsions:
  status: ('A' for Active; 'I' for Inactive)
    1  A    between atoms: C_1  and  C_47
    2  A    between atoms: C_2  and  O_34
    3  A    between atoms: C_3  and  C_25
    4  A    between atoms: C_11  and  C_37
    5  A    between atoms: O_34  and  C_47
                            x       y       z     vdW  Elec       q    Type
                         _______ _______ _______ _____ _____    ______ ____

>  <TORSDO>
F 5

$$$$
=
 OpenBabel11072411453D

 49 58  0  0  1  0  0  0  0  0999 V2000
  160.9130  212.4660  147.4500 C   0  0  1  0  0  3  0  0  0  0  0  0
  162.6130  209.3630  151.6100 C   0  0  1  0  0  3  0  0  0  0  0  0
  163.5770  206.1940  148.9480 O   0  0  0  0  0  0  0  0  0  0  0  0
  159.7970  204.9050  151.0210 O   0  0  0  0  0  1  0  0  0  0  0  0
  160.9880  210.9470  147.4380 C   0  0  0  0  0  2  0  0  0  0  0  0
  160.3220  213.6670  150.7020 N   0  0  2  0  0  0  0  0  0  0  0  0
  160.5910  206.2560  152.8020 C   0  0  0  0  0  2  0  0  0  0  0  0
  159.0240  211.5600  152.8800 C   0  0  0  0  0  2  0  0  0  0  0  0
  161.7300  207.7490  154.5410 N   0  0  0  0  0  0  0  0  0  0  0  0
  158.5820  212.8190  152.1640 C   0  0  0  0  0  0  0  0  0  0  0  0
  162.5460  207.9350  152.1920 C   0  0  2  0  0  3  0  0  0  0  0  0
  160.5990  214.0650  149.3230 C   0  0  0  0  0  2  0  0  0  0  0  0
  158.9450  210.5730  155.2910 C   0  0  2  0  0  3  0  0  0  0  0  0
  160.2910  209.5480  151.1680 O   0  0  0  0  0  0  0  0  0  0  0  0
  161.1200  206.7790  155.3520 N   0  0  0  0  0  1  0  0  0  0  0  0
  157.8340  212.5650  154.8650 C   0  0  0  0  0  0  0  0  0  0  0  0
  161.4240  209.7980  150.7900 C   0  0  0  0  0  0  0  0  0  0  0  0
  158.5750  211.5360  154.2660 N   0  0  0  0  0  0  0  0  0  0  0  0
  160.5390  210.4680  148.6690 O   0  0  0  0  0  0  0  0  0  0  0  0
  158.4840  209.1990  154.9170 C   0  0  0  0  0  3  0  0  0  0  0  0
  157.4580  213.6470  154.1890 C   0  0  0  0  0  3  0  0  0  0  0  0
  157.8510  213.7680  152.7740 C   0  0  0  0  0  3  0  0  0  0  0  0
  161.3340  212.6850  151.0720 C   0  0  0  0  0  2  0  0  0  0  0  0
  163.1390  207.2410  149.7660 C   0  0  2  0  0  3  0  0  0  0  0  0
  163.0450  206.8190  151.2320 C   0  0  2  0  0  3  0  0  0  0  0  0
  161.9610  212.1150  149.8130 C   0  0  2  0  0  3  0  0  0  0  0  0
  157.5900  212.3350  156.2370 N   0  0  0  0  0  0  0  0  0  0  0  0
  162.2340  206.1260  149.3660 C   0  0  2  0  0  0  0  0  0  0  0  0
  161.3570  207.5580  153.1160 C   0  0  1  0  0  0  0  0  0  0  0  0
  158.2180  211.0550  156.5680 C   0  0  0  0  0  3  0  0  0  0  0  0
  159.2670  208.3220  154.2800 C   0  0  0  0  0  3  0  0  0  0  0  0
  159.0160  213.0190  150.7460 C   0  0  0  0  0  2  0  0  0  0  0  0
  160.5910  206.0190  151.3100 C   0  0  1  0  0  3  0  0  0  0  0  0
  161.5690  213.0790  148.6950 C   0  0  1  0  0  3  0  0  0  0  0  0
  161.6270  210.6220  149.5440 C   0  0  1  0  0  3  0  0  0  0  0  0
  160.7040  208.6220  153.9030 C   0  0  1  0  0  3  0  0  0  0  0  0
  162.0230  205.7530  150.8350 C   0  0  2  0  0  3  0  0  0  0  0  0
  159.8470  206.8100  146.4380 C   0  0  0  0  0  1  0  0  0  0  0  0
  161.1890  206.7370  148.4780 C   0  0  0  0  0  3  0  0  0  0  0  0
  160.8930  206.1920  147.3030 C   0  0  0  0  0  3  0  0  0  0  0  0
  163.1040  210.3950  152.5870 C   0  0  0  0  0  0  0  0  0  0  0  0
  164.2370  210.8420  152.5150 O   0  0  0  0  0  0  0  0  0  0  0  0
  162.2070  210.8310  153.7020 C   0  0  0  0  0  1  0  0  0  0  0  0
  161.5270  212.9700  146.3020 O   0  0  0  0  0  0  0  0  0  0  0  0
  160.6700  212.6230  145.2510 C   0  0  0  0  0  2  0  0  0  0  0  0
  161.2260  213.0570  143.9040 C   0  0  2  0  0  0  0  0  0  0  0  0
  161.6710  212.1150  143.0010 F   0  0  0  0  0  0  0  0  0  0  0  0
  161.7200  214.4320  143.7290 C   0  0  0  0  0  2  0  0  0  0  0  0
  160.4390  214.0360  143.2810 O   0  0  0  0  0  0  0  0  0  0  0  0
  1 44  1  6  0  0  0
  1 34  1  0  0  0  0
  2 11  1  0  0  0  0
  2 41  1  1  0  0  0
  3 28  1  0  0  0  0
  3 24  1  0  0  0  0
  4 33  1  0  0  0  0
  5  1  1  0  0  0  0
  5 19  1  0  0  0  0
  6 12  1  6  0  0  0
  6 32  1  0  0  0  0
  6 23  1  0  0  0  0
  7 29  1  0  0  0  0
  8 18  1  0  0  0  0
  9 15  1  0  0  0  0
 10 22  2  0  0  0  0
 10  8  1  0  0  0  0
 11 29  1  0  0  0  0
 13 30  1  0  0  0  0
 16 27  1  0  0  0  0
 17 14  2  0  0  0  0
 17  2  1  0  0  0  0
 18 16  1  0  0  0  0
 18 13  1  0  0  0  0
 19 35  1  0  0  0  0
 20 13  1  0  0  0  0
 21 16  2  0  0  0  0
 22 21  1  0  0  0  0
 24 25  1  0  0  0  0
 25 11  1  0  0  0  0
 26 23  1  0  0  0  0
 27 30  2  0  0  0  0
 28 24  1  0  0  0  0
 28 37  1  0  0  0  0
 29 36  1  0  0  0  0
 29  9  1  0  0  0  0
 31 20  2  0  0  0  0
 32 10  1  0  0  0  0
 33  7  1  0  0  0  0
 34 12  1  0  0  0  0
 34 26  1  0  0  0  0
 35 26  1  0  0  0  0
 35 17  1  0  0  0  0
 36 31  1  0  0  0  0
 36  9  1  0  0  0  0
 37 25  1  0  0  0  0
 37 33  1  0  0  0  0
 38 40  1  0  0  0  0
 39 28  1  0  0  0  0
 40 39  2  0  0  0  0
 41 43  1  0  0  0  0
 42 41  2  0  0  0  0
 45 44  1  0  0  0  0
 46 45  1  0  0  0  0
 47 46  1  0  0  0  0
 48 46  1  0  0  0  0
 49 48  1  0  0  0  0
 49 46  1  0  0  0  0
M  END
>  <MODEL>
2

>  <REMARK>
 VINA RESULT:       8.9      1.346      1.672
  Name = 
  5 active torsions:
  status: ('A' for Active; 'I' for Inactive)
    1  A    between atoms: C_1  and  C_47
    2  A    between atoms: C_2  and  O_34
    3  A    between atoms: C_3  and  C_25
    4  A    between atoms: C_11  and  C_37
    5  A    between atoms: O_34  and  C_47
                            x       y       z     vdW  Elec       q    Type
                         _______ _______ _______ _____ _____    ______ ____

>  <TORSDO>
F 5

$$$$
