=
 OpenBabel11072411453D

 53 58  0  0  1  0  0  0  0  0999 V2000
  161.3750  207.7300  153.4000 C   0  0  0  0  0  0  0  0  0  0  0  0
  161.4750  209.2030  153.2580 C   0  0  0  0  0  0  0  0  0  0  0  0
  161.5690  209.9700  154.4260 C   0  0  0  0  0  3  0  0  0  0  0  0
  161.3210  207.2320  154.7470 C   0  0  0  0  0  3  0  0  0  0  0  0
  161.5530  209.3830  155.6650 C   0  0  0  0  0  3  0  0  0  0  0  0
  161.4460  208.0640  155.8120 N   0  0  0  0  0  0  0  0  0  0  0  0
  159.9500  210.4480  151.9440 O   0  0  0  0  0  0  0  0  0  0  0  0
  162.1250  210.3600  151.0920 N   0  0  0  0  0  2  0  0  0  0  0  0
  161.1530  210.0430  152.1140 C   0  0  0  0  0  0  0  0  0  0  0  0
  161.8330  210.6750  149.6880 C   0  0  0  0  0  2  0  0  0  0  0  0
  161.6750  212.4410  149.4410 S   0  0  0  0  0  0  0  0  0  0  0  0
  162.7130  212.1750  147.9580 C   0  0  0  0  0  2  0  0  0  0  0  0
  162.4860  214.4520  147.4800 O   0  0  0  0  0  1  0  0  0  0  0  0
  162.2920  213.1930  146.9480 C   0  0  2  0  0  3  0  0  0  0  0  0
  161.0210  212.9780  146.0770 C   0  0  0  0  0  2  0  0  0  0  0  0
  160.5770  213.9660  145.0570 C   0  0  2  0  0  3  0  0  0  0  0  0
  159.3020  213.5920  144.7000 O   0  0  0  0  0  1  0  0  0  0  0  0
  161.5200  213.8300  143.9590 C   0  0  0  0  0  2  0  0  0  0  0  0
  162.2080  213.6050  141.5970 C   0  0  0  0  0  2  0  0  0  0  0  0
  161.0860  213.2780  142.6370 C   0  0  1  0  0  3  0  0  0  0  0  0
  162.0860  212.1690  142.1780 C   0  0  1  0  0  3  0  0  0  0  0  0
  161.4470  211.3180  141.0800 C   0  0  0  0  0  2  0  0  0  0  0  0
  160.9310  212.1920  139.8860 C   0  0  0  0  0  2  0  0  0  0  0  0
  160.1650  209.8190  139.1970 C   0  0  0  0  0  2  0  0  0  0  0  0
  157.9830  212.3840  139.8340 C   0  0  0  0  0  1  0  0  0  0  0  0
  158.6500  209.9570  139.1040 C   0  0  0  0  0  2  0  0  0  0  0  0
  160.2730  211.3110  138.7510 C   0  0  2  0  0  0  0  0  0  0  0  0
  160.8360  211.3540  137.3310 C   0  0  0  0  0  1  0  0  0  0  0  0
  158.7190  211.4570  138.7900 C   0  0  2  0  0  3  0  0  0  0  0  0
  161.2800  206.7230  152.2880 C   0  0  0  0  0  0  0  0  0  0  0  0
  160.9150  205.5020  152.5940 N   0  0  0  0  0  0  0  0  0  0  0  0
  161.6910  207.2480  150.8670 C   0  0  0  0  0  2  0  0  0  0  0  0
  160.8280  207.3200  149.7170 C   0  0  0  0  0  2  0  0  0  0  0  0
  160.4330  206.7280  147.3110 C   0  0  0  0  0  2  0  0  0  0  0  0
  161.3480  205.5930  146.9760 N   0  0  2  0  0  0  0  0  0  0  0  0
  161.4350  207.3660  148.2750 C   0  0  2  0  0  3  0  0  0  0  0  0
  162.3660  206.2560  147.8160 C   0  0  0  0  0  2  0  0  0  0  0  0
  162.9060  206.0570  145.1050 O   0  0  0  0  0  1  0  0  0  0  0  0
  160.6940  205.5880  144.6530 O   0  0  0  0  0  0  0  0  0  0  0  0
  161.3650  204.4020  144.7290 C   0  0  1  0  0  3  0  0  0  0  0  0
  161.6980  205.5980  145.5760 C   0  0  2  0  0  0  0  0  0  0  0  0
  160.3460  203.3320  144.9840 C   0  0  0  0  0  2  0  0  0  0  0  0
  160.9780  202.1000  145.2290 O   0  0  0  0  0  0  0  0  0  0  0  0
  159.8630  201.2200  145.1230 C   0  0  0  0  0  1  0  0  0  0  0  0
  160.7380  204.3890  151.6950 N   0  0  0  0  0  2  0  0  0  0  0  0
  161.3680  203.7750  149.4960 C   0  0  0  0  0  3  0  0  0  0  0  0
  162.1540  202.3880  151.5930 C   0  0  0  0  0  3  0  0  0  0  0  0
  158.6540  201.0060  148.5220 Cl  0  0  0  0  0  0  0  0  0  0  0  0
  159.9360  201.7170  149.4860 C   0  0  0  0  0  0  0  0  0  0  0  0
  161.7920  203.7520  150.9500 C   0  0  2  0  0  3  0  0  0  0  0  0
  160.4940  202.9800  148.8910 C   0  0  0  0  0  3  0  0  0  0  0  0
  161.5020  201.2400  151.4530 C   0  0  0  0  0  3  0  0  0  0  0  0
  160.3800  201.0130  150.5200 C   0  0  0  0  0  3  0  0  0  0  0  0
  1  4  1  0  0  0  0
  2  1  2  0  0  0  0
  2  3  1  0  0  0  0
  3  5  2  0  0  0  0
  4  6  2  0  0  0  0
  5  6  1  0  0  0  0
  7  9  2  0  0  0  0
  8  9  1  0  0  0  0
  9  2  1  0  0  0  0
 10  8  1  0  0  0  0
 11 10  1  0  0  0  0
 12 11  1  0  0  0  0
 14 13  1  1  0  0  0
 14 12  1  0  0  0  0
 15 14  1  0  0  0  0
 16 17  1  6  0  0  0
 16 15  1  0  0  0  0
 18 16  1  0  0  0  0
 19 21  1  0  0  0  0
 19 20  1  0  0  0  0
 20 18  1  1  0  0  0
 21 22  1  6  0  0  0
 21 20  1  0  0  0  0
 23 22  1  0  0  0  0
 26 24  1  0  0  0  0
 27 28  1  6  0  0  0
 27 29  1  0  0  0  0
 27 24  1  0  0  0  0
 27 23  1  0  0  0  0
 29 26  1  0  0  0  0
 29 25  1  1  0  0  0
 30 31  2  0  0  0  0
 30  1  1  0  0  0  0
 32 30  1  0  0  0  0
 33 32  1  0  0  0  0
 34 36  1  0  0  0  0
 35 34  1  6  0  0  0
 35 37  1  0  0  0  0
 36 33  1  1  0  0  0
 37 36  1  0  0  0  0
 39 40  1  0  0  0  0
 39 41  1  0  0  0  0
 40 42  1  1  0  0  0
 40 41  1  0  0  0  0
 41 38  1  6  0  0  0
 41 35  1  0  0  0  0
 42 43  1  0  0  0  0
 44 43  1  0  0  0  0
 45 31  1  0  0  0  0
 46 50  1  0  0  0  0
 48 49  1  0  0  0  0
 49 53  2  0  0  0  0
 50 47  1  0  0  0  0
 50 45  1  1  0  0  0
 51 49  1  0  0  0  0
 51 46  2  0  0  0  0
 52 47  2  0  0  0  0
 53 52  1  0  0  0  0
M  END
>  <MODEL>
1

>  <REMARK>
 VINA RESULT:      -5.6      0.000      0.000
  Name = 
  20 active torsions:
  status: ('A' for Active; 'I' for Inactive)
    1  A    between atoms: C_1  and  C_8
    2  A    between atoms: C_2  and  O_10
    3  A    between atoms: C_2  and  C_30
    4  A    between atoms: C_4  and  C_46
    5  A    between atoms: C_6  and  C_11
    6  A    between atoms: C_6  and  C_40
    7  A    between atoms: C_7  and  C_20
    8  A    between atoms: C_7  and  C_37
    9  A    between atoms: C_8  and  C_21
   10  A    between atoms: C_11  and  C_22
   11  A    between atoms: S_12  and  C_23
   12  A    between atoms: S_12  and  C_27
   13  A    between atoms: N_18  and  C_28
   14  A    between atoms: N_18  and  N_49
   15  A    between atoms: C_20  and  C_50
   16  A    between atoms: C_22  and  C_42
   17  A    between atoms: C_23  and  N_41
   18  A    between atoms: N_24  and  C_44
   19  A    between atoms: C_27  and  C_40
   20  A    between atoms: C_33  and  C_51
                            x       y       z     vdW  Elec       q    Type
                         _______ _______ _______ _____ _____    ______ ____

>  <TORSDO>
F 20

$$$$
=
 OpenBabel11072411453D

 53 58  0  0  1  0  0  0  0  0999 V2000
  161.1560  205.0180  150.3040 C   0  0  0  0  0  0  0  0  0  0  0  0
  161.2290  205.3190  151.7550 C   0  0  0  0  0  0  0  0  0  0  0  0
  161.1920  204.2440  152.6510 C   0  0  0  0  0  3  0  0  0  0  0  0
  160.9890  203.6320  149.9590 C   0  0  0  0  0  3  0  0  0  0  0  0
  161.0750  202.9520  152.2070 C   0  0  0  0  0  3  0  0  0  0  0  0
  160.9910  202.6640  150.9100 N   0  0  0  0  0  0  0  0  0  0  0  0
  160.3290  207.5050  151.8670 O   0  0  0  0  0  0  0  0  0  0  0  0
  161.5720  206.8650  153.7410 N   0  0  0  0  0  2  0  0  0  0  0  0
  160.9940  206.5760  152.4480 C   0  0  0  0  0  0  0  0  0  0  0  0
  161.8940  208.1970  154.2670 C   0  0  0  0  0  2  0  0  0  0  0  0
  160.4070  209.1390  154.5970 S   0  0  0  0  0  0  0  0  0  0  0  0
  161.5080  210.6000  154.5840 C   0  0  0  0  0  2  0  0  0  0  0  0
  162.5210  209.5880  156.4320 O   0  0  0  0  0  1  0  0  0  0  0  0
  161.9970  210.7850  155.9840 C   0  0  2  0  0  3  0  0  0  0  0  0
  161.1930  211.6340  157.0080 C   0  0  0  0  0  2  0  0  0  0  0  0
  160.1530  212.6130  156.5910 C   0  0  2  0  0  3  0  0  0  0  0  0
  160.4520  213.7840  157.2470 O   0  0  0  0  0  1  0  0  0  0  0  0
  158.8920  212.0400  157.0320 C   0  0  0  0  0  2  0  0  0  0  0  0
  156.4540  212.4430  157.0340 C   0  0  0  0  0  2  0  0  0  0  0  0
  157.6850  212.0620  156.1460 C   0  0  1  0  0  3  0  0  0  0  0  0
  157.0940  213.5080  156.1020 C   0  0  1  0  0  3  0  0  0  0  0  0
  156.1540  213.6450  154.9030 C   0  0  0  0  0  2  0  0  0  0  0  0
  156.6390  212.7980  153.6780 C   0  0  0  0  0  2  0  0  0  0  0  0
  158.2910  212.6740  151.6900 C   0  0  0  0  0  2  0  0  0  0  0  0
  155.2850  214.3120  151.5320 C   0  0  0  0  0  1  0  0  0  0  0  0
  157.6100  213.5200  150.6210 C   0  0  0  0  0  2  0  0  0  0  0  0
  157.6420  213.6060  152.7620 C   0  0  2  0  0  0  0  0  0  0  0  0
  158.7430  214.4530  153.4000 C   0  0  0  0  0  1  0  0  0  0  0  0
  156.8570  214.3720  151.6510 C   0  0  2  0  0  3  0  0  0  0  0  0
  161.1930  206.0100  149.1760 C   0  0  0  0  0  0  0  0  0  0  0  0
  160.5580  205.7060  148.0700 N   0  0  0  0  0  0  0  0  0  0  0  0
  162.0510  207.2980  149.4390 C   0  0  0  0  0  2  0  0  0  0  0  0
  161.5390  208.5750  149.8620 C   0  0  0  0  0  2  0  0  0  0  0  0
  161.4160  211.0770  149.7140 C   0  0  0  0  0  2  0  0  0  0  0  0
  161.5850  211.4460  148.2740 N   0  0  2  0  0  0  0  0  0  0  0  0
  162.3640  209.8810  149.6090 C   0  0  2  0  0  3  0  0  0  0  0  0
  162.5870  210.3640  148.1860 C   0  0  0  0  0  2  0  0  0  0  0  0
  163.5270  212.9840  148.2150 O   0  0  0  0  0  1  0  0  0  0  0  0
  161.3960  213.8490  148.3840 O   0  0  0  0  0  0  0  0  0  0  0  0
  161.6730  213.6770  147.0580 C   0  0  1  0  0  3  0  0  0  0  0  0
  162.1730  212.7560  148.1360 C   0  0  2  0  0  0  0  0  0  0  0  0
  160.3620  213.6400  146.3320 C   0  0  0  0  0  2  0  0  0  0  0  0
  160.5010  214.1720  145.0380 O   0  0  0  0  0  0  0  0  0  0  0  0
  161.7050  213.5310  144.6300 C   0  0  0  0  0  1  0  0  0  0  0  0
  160.4440  206.5080  146.8780 N   0  0  0  0  0  2  0  0  0  0  0  0
  160.4490  205.6180  144.6820 C   0  0  0  0  0  3  0  0  0  0  0  0
  162.6630  205.8150  146.0960 C   0  0  0  0  0  3  0  0  0  0  0  0
  160.2490  201.6740  145.3100 Cl  0  0  0  0  0  0  0  0  0  0  0  0
  160.9350  203.2830  145.4560 C   0  0  0  0  0  0  0  0  0  0  0  0
  161.2700  206.3740  145.7070 C   0  0  2  0  0  3  0  0  0  0  0  0
  160.2120  204.3120  144.6340 C   0  0  0  0  0  3  0  0  0  0  0  0
  162.9780  204.5480  146.3370 C   0  0  0  0  0  3  0  0  0  0  0  0
  162.0770  203.3980  146.1250 C   0  0  0  0  0  3  0  0  0  0  0  0
  1  2  1  0  0  0  0
  2  9  1  0  0  0  0
  2  3  2  0  0  0  0
  4  1  2  0  0  0  0
  4  6  1  0  0  0  0
  5  3  1  0  0  0  0
  6  5  2  0  0  0  0
  7  9  2  0  0  0  0
  8 10  1  0  0  0  0
  9  8  1  0  0  0  0
 10 11  1  0  0  0  0
 12 11  1  0  0  0  0
 12 14  1  0  0  0  0
 14 13  1  1  0  0  0
 14 15  1  0  0  0  0
 16 15  1  0  0  0  0
 16 18  1  0  0  0  0
 16 17  1  1  0  0  0
 20 18  1  1  0  0  0
 20 19  1  0  0  0  0
 21 22  1  6  0  0  0
 21 20  1  0  0  0  0
 21 19  1  0  0  0  0
 23 22  1  0  0  0  0
 24 27  1  0  0  0  0
 26 29  1  0  0  0  0
 26 24  1  0  0  0  0
 27 28  1  1  0  0  0
 27 23  1  0  0  0  0
 29 25  1  1  0  0  0
 29 27  1  0  0  0  0
 30 32  1  0  0  0  0
 30  1  1  0  0  0  0
 31 30  2  0  0  0  0
 32 33  1  0  0  0  0
 35 37  1  1  0  0  0
 35 34  1  0  0  0  0
 36 34  1  0  0  0  0
 36 33  1  6  0  0  0
 37 36  1  0  0  0  0
 40 42  1  6  0  0  0
 40 41  1  0  0  0  0
 40 39  1  0  0  0  0
 41 38  1  1  0  0  0
 41 35  1  0  0  0  0
 41 39  1  0  0  0  0
 43 42  1  0  0  0  0
 44 43  1  0  0  0  0
 45 31  1  0  0  0  0
 46 50  1  0  0  0  0
 47 52  2  0  0  0  0
 48 49  1  0  0  0  0
 49 53  2  0  0  0  0
 50 47  1  0  0  0  0
 50 45  1  1  0  0  0
 51 46  2  0  0  0  0
 51 49  1  0  0  0  0
 53 52  1  0  0  0  0
M  END
>  <MODEL>
2

>  <REMARK>
 VINA RESULT:      -5.3      3.590      9.186
  Name = 
  20 active torsions:
  status: ('A' for Active; 'I' for Inactive)
    1  A    between atoms: C_1  and  C_8
    2  A    between atoms: C_2  and  O_10
    3  A    between atoms: C_2  and  C_30
    4  A    between atoms: C_4  and  C_46
    5  A    between atoms: C_6  and  C_11
    6  A    between atoms: C_6  and  C_40
    7  A    between atoms: C_7  and  C_20
    8  A    between atoms: C_7  and  C_37
    9  A    between atoms: C_8  and  C_21
   10  A    between atoms: C_11  and  C_22
   11  A    between atoms: S_12  and  C_23
   12  A    between atoms: S_12  and  C_27
   13  A    between atoms: N_18  and  C_28
   14  A    between atoms: N_18  and  N_49
   15  A    between atoms: C_20  and  C_50
   16  A    between atoms: C_22  and  C_42
   17  A    between atoms: C_23  and  N_41
   18  A    between atoms: N_24  and  C_44
   19  A    between atoms: C_27  and  C_40
   20  A    between atoms: C_33  and  C_51
                            x       y       z     vdW  Elec       q    Type
                         _______ _______ _______ _____ _____    ______ ____

>  <TORSDO>
F 20

$$$$
=
 OpenBabel11072411453D

 53 58  0  0  1  0  0  0  0  0999 V2000
  161.0820  205.3180  147.6130 C   0  0  0  0  0  0  0  0  0  0  0  0
  161.4230  206.7460  147.4010 C   0  0  0  0  0  0  0  0  0  0  0  0
  161.2940  207.2650  146.1070 C   0  0  0  0  0  3  0  0  0  0  0  0
  160.7060  204.5810  146.4370 C   0  0  0  0  0  3  0  0  0  0  0  0
  160.8820  206.4790  145.0620 C   0  0  0  0  0  3  0  0  0  0  0  0
  160.5880  205.1910  145.2310 N   0  0  0  0  0  0  0  0  0  0  0  0
  163.3790  207.3010  148.6110 O   0  0  0  0  0  0  0  0  0  0  0  0
  161.6550  208.8720  148.7700 N   0  0  0  0  0  2  0  0  0  0  0  0
  162.2010  207.6420  148.2420 C   0  0  0  0  0  0  0  0  0  0  0  0
  162.0690  209.5400  150.0110 C   0  0  0  0  0  2  0  0  0  0  0  0
  161.5320  211.2480  150.0340 S   0  0  0  0  0  0  0  0  0  0  0  0
  162.4220  211.3940  148.4420 C   0  0  0  0  0  2  0  0  0  0  0  0
  161.8510  213.6600  148.4220 O   0  0  0  0  0  1  0  0  0  0  0  0
  161.7670  212.4990  147.6800 C   0  0  2  0  0  3  0  0  0  0  0  0
  160.4490  212.2560  146.8910 C   0  0  0  0  0  2  0  0  0  0  0  0
  160.0690  213.0660  145.7020 C   0  0  2  0  0  3  0  0  0  0  0  0
  159.2080  212.2810  144.9700 O   0  0  0  0  0  1  0  0  0  0  0  0
  161.3170  213.3180  145.0000 C   0  0  0  0  0  2  0  0  0  0  0  0
  162.7850  213.9310  143.1100 C   0  0  0  0  0  2  0  0  0  0  0  0
  161.3450  213.4710  143.5110 C   0  0  1  0  0  3  0  0  0  0  0  0
  162.3580  212.4530  142.8980 C   0  0  1  0  0  3  0  0  0  0  0  0
  162.0920  212.2960  141.4000 C   0  0  0  0  0  2  0  0  0  0  0  0
  161.2610  211.0050  141.0850 C   0  0  0  0  0  2  0  0  0  0  0  0
  161.7790  208.8660  139.7250 C   0  0  0  0  0  2  0  0  0  0  0  0
  158.8800  210.6600  139.3700 C   0  0  0  0  0  1  0  0  0  0  0  0
  160.5760  208.7460  138.7960 C   0  0  0  0  0  2  0  0  0  0  0  0
  161.6050  210.4160  139.6590 C   0  0  2  0  0  0  0  0  0  0  0  0
  162.7640  211.0010  138.8530 C   0  0  0  0  0  1  0  0  0  0  0  0
  160.3010  210.2550  138.8160 C   0  0  2  0  0  3  0  0  0  0  0  0
  161.1340  204.5630  148.9120 C   0  0  0  0  0  0  0  0  0  0  0  0
  161.5560  203.3220  148.8850 N   0  0  0  0  0  0  0  0  0  0  0  0
  160.6150  205.3480  150.1680 C   0  0  0  0  0  2  0  0  0  0  0  0
  161.4190  205.7740  151.2830 C   0  0  0  0  0  2  0  0  0  0  0  0
  160.6650  207.5970  152.8340 C   0  0  0  0  0  2  0  0  0  0  0  0
  161.6080  207.6110  153.9950 N   0  0  2  0  0  0  0  0  0  0  0  0
  160.7550  206.0790  152.6670 C   0  0  2  0  0  3  0  0  0  0  0  0
  161.6170  206.1360  153.9170 C   0  0  0  0  0  2  0  0  0  0  0  0
  160.8740  207.3640  156.3490 O   0  0  0  0  0  1  0  0  0  0  0  0
  160.0260  209.0840  155.0690 O   0  0  0  0  0  0  0  0  0  0  0  0
  161.1930  209.5160  155.6270 C   0  0  1  0  0  3  0  0  0  0  0  0
  160.9600  208.0980  155.1900 C   0  0  2  0  0  0  0  0  0  0  0  0
  161.6720  210.6790  154.8120 C   0  0  0  0  0  2  0  0  0  0  0  0
  160.6000  211.5310  154.4920 O   0  0  0  0  0  0  0  0  0  0  0  0
  160.4360  212.2070  155.7340 C   0  0  0  0  0  1  0  0  0  0  0  0
  161.7060  202.4240  150.0030 N   0  0  0  0  0  2  0  0  0  0  0  0
  161.8400  200.3290  148.9050 C   0  0  0  0  0  3  0  0  0  0  0  0
  159.6540  201.0900  150.1620 C   0  0  0  0  0  3  0  0  0  0  0  0
  160.2020  201.0780  145.3360 Cl  0  0  0  0  0  0  0  0  0  0  0  0
  160.2470  200.9970  147.0880 C   0  0  0  0  0  0  0  0  0  0  0  0
  161.2010  201.0780  150.0570 C   0  0  2  0  0  3  0  0  0  0  0  0
  161.5080  200.3760  147.6210 C   0  0  0  0  0  3  0  0  0  0  0  0
  158.7860  201.2660  149.1720 C   0  0  0  0  0  3  0  0  0  0  0  0
  159.1390  201.3310  147.7400 C   0  0  0  0  0  3  0  0  0  0  0  0
  1 30  1  0  0  0  0
  2  1  1  0  0  0  0
  2  9  1  0  0  0  0
  3  2  2  0  0  0  0
  4  1  2  0  0  0  0
  5  6  2  0  0  0  0
  5  3  1  0  0  0  0
  6  4  1  0  0  0  0
  8 10  1  0  0  0  0
  9  7  2  0  0  0  0
  9  8  1  0  0  0  0
 10 11  1  0  0  0  0
 12 11  1  0  0  0  0
 14 13  1  1  0  0  0
 14 12  1  0  0  0  0
 15 14  1  0  0  0  0
 16 17  1  6  0  0  0
 16 15  1  0  0  0  0
 18 16  1  0  0  0  0
 19 20  1  0  0  0  0
 20 18  1  1  0  0  0
 21 22  1  6  0  0  0
 21 19  1  0  0  0  0
 21 20  1  0  0  0  0
 23 22  1  0  0  0  0
 26 29  1  0  0  0  0
 26 24  1  0  0  0  0
 27 28  1  6  0  0  0
 27 24  1  0  0  0  0
 27 23  1  0  0  0  0
 29 25  1  1  0  0  0
 29 27  1  0  0  0  0
 30 32  1  0  0  0  0
 31 30  2  0  0  0  0
 31 45  1  0  0  0  0
 32 33  1  0  0  0  0
 35 34  1  6  0  0  0
 35 41  1  0  0  0  0
 36 33  1  6  0  0  0
 36 34  1  0  0  0  0
 36 37  1  0  0  0  0
 37 35  1  0  0  0  0
 39 41  1  0  0  0  0
 39 40  1  0  0  0  0
 40 42  1  6  0  0  0
 41 40  1  0  0  0  0
 41 38  1  1  0  0  0
 43 42  1  0  0  0  0
 43 44  1  0  0  0  0
 46 50  1  0  0  0  0
 48 49  1  0  0  0  0
 49 51  1  0  0  0  0
 49 53  2  0  0  0  0
 50 45  1  6  0  0  0
 50 47  1  0  0  0  0
 51 46  2  0  0  0  0
 52 47  2  0  0  0  0
 53 52  1  0  0  0  0
M  END
>  <MODEL>
3

>  <REMARK>
 VINA RESULT:      -4.7      2.014      6.023
  Name = 
  20 active torsions:
  status: ('A' for Active; 'I' for Inactive)
    1  A    between atoms: C_1  and  C_8
    2  A    between atoms: C_2  and  O_10
    3  A    between atoms: C_2  and  C_30
    4  A    between atoms: C_4  and  C_46
    5  A    between atoms: C_6  and  C_11
    6  A    between atoms: C_6  and  C_40
    7  A    between atoms: C_7  and  C_20
    8  A    between atoms: C_7  and  C_37
    9  A    between atoms: C_8  and  C_21
   10  A    between atoms: C_11  and  C_22
   11  A    between atoms: S_12  and  C_23
   12  A    between atoms: S_12  and  C_27
   13  A    between atoms: N_18  and  C_28
   14  A    between atoms: N_18  and  N_49
   15  A    between atoms: C_20  and  C_50
   16  A    between atoms: C_22  and  C_42
   17  A    between atoms: C_23  and  N_41
   18  A    between atoms: N_24  and  C_44
   19  A    between atoms: C_27  and  C_40
   20  A    between atoms: C_33  and  C_51
                            x       y       z     vdW  Elec       q    Type
                         _______ _______ _______ _____ _____    ______ ____

>  <TORSDO>
F 20

$$$$
=
 OpenBabel11072411453D

 53 58  0  0  1  0  0  0  0  0999 V2000
  161.0010  205.1770  149.6150 C   0  0  0  0  0  0  0  0  0  0  0  0
  161.1730  204.6800  148.2280 C   0  0  0  0  0  0  0  0  0  0  0  0
  161.1390  203.2960  148.0180 C   0  0  0  0  0  3  0  0  0  0  0  0
  160.8770  204.1680  150.6320 C   0  0  0  0  0  3  0  0  0  0  0  0
  160.9690  202.4220  149.0610 C   0  0  0  0  0  3  0  0  0  0  0  0
  160.8320  202.8490  150.3150 N   0  0  0  0  0  0  0  0  0  0  0  0
  162.6260  206.2510  147.2170 O   0  0  0  0  0  0  0  0  0  0  0  0
  161.1820  205.1620  145.7340 N   0  0  0  0  0  2  0  0  0  0  0  0
  161.7120  205.3660  147.0640 C   0  0  0  0  0  0  0  0  0  0  0  0
  161.2130  206.1330  144.6330 C   0  0  0  0  0  2  0  0  0  0  0  0
  161.2510  205.3070  143.0450 S   0  0  0  0  0  0  0  0  0  0  0  0
  161.8460  206.9100  142.3930 C   0  0  0  0  0  2  0  0  0  0  0  0
  162.7810  205.7560  140.5880 O   0  0  0  0  0  1  0  0  0  0  0  0
  161.9060  206.7770  140.9060 C   0  0  2  0  0  3  0  0  0  0  0  0
  161.9170  208.0320  139.9890 C   0  0  0  0  0  2  0  0  0  0  0  0
  161.2850  208.0430  138.6430 C   0  0  2  0  0  3  0  0  0  0  0  0
  161.8970  207.0380  137.9300 O   0  0  0  0  0  1  0  0  0  0  0  0
  161.5710  209.3590  138.0980 C   0  0  0  0  0  2  0  0  0  0  0  0
  162.9940  211.3720  137.9220 C   0  0  0  0  0  2  0  0  0  0  0  0
  162.2870  210.3910  138.9140 C   0  0  1  0  0  3  0  0  0  0  0  0
  161.6780  211.8010  138.6270 C   0  0  1  0  0  3  0  0  0  0  0  0
  162.0860  212.7750  139.7340 C   0  0  0  0  0  2  0  0  0  0  0  0
  161.9870  212.1220  141.1550 C   0  0  0  0  0  2  0  0  0  0  0  0
  160.1430  211.7410  142.9290 C   0  0  0  0  0  2  0  0  0  0  0  0
  163.0580  213.4190  143.5840 C   0  0  0  0  0  1  0  0  0  0  0  0
  160.6790  212.4780  144.1500 C   0  0  0  0  0  2  0  0  0  0  0  0
  160.8680  212.8000  142.0400 C   0  0  2  0  0  0  0  0  0  0  0  0
  159.8100  213.6870  141.3830 C   0  0  0  0  0  1  0  0  0  0  0  0
  161.5060  213.4560  143.3040 C   0  0  2  0  0  3  0  0  0  0  0  0
  160.9900  206.6120  150.0630 C   0  0  0  0  0  0  0  0  0  0  0  0
  160.5880  206.8710  151.2840 N   0  0  0  0  0  0  0  0  0  0  0  0
  161.4170  207.6600  148.9750 C   0  0  0  0  0  2  0  0  0  0  0  0
  162.2570  208.8070  149.2000 C   0  0  0  0  0  2  0  0  0  0  0  0
  162.8910  211.2160  148.8990 C   0  0  0  0  0  2  0  0  0  0  0  0
  161.6290  212.0180  148.9540 N   0  0  2  0  0  0  0  0  0  0  0  0
  162.2090  210.0270  148.2210 C   0  0  2  0  0  3  0  0  0  0  0  0
  160.9830  210.9240  148.2000 C   0  0  0  0  0  2  0  0  0  0  0  0
  162.4260  213.2970  146.9860 O   0  0  0  0  0  1  0  0  0  0  0  0
  161.5900  214.4270  148.8140 O   0  0  0  0  0  0  0  0  0  0  0  0
  160.5390  214.1100  148.0040 C   0  0  1  0  0  3  0  0  0  0  0  0
  161.7450  213.2300  148.1790 C   0  0  2  0  0  0  0  0  0  0  0  0
  159.2980  214.1720  148.8420 C   0  0  0  0  0  2  0  0  0  0  0  0
  158.1650  214.3580  148.0310 O   0  0  0  0  0  0  0  0  0  0  0  0
  158.0300  213.0520  147.4820 C   0  0  0  0  0  1  0  0  0  0  0  0
  160.5160  208.1600  151.9260 N   0  0  0  0  0  2  0  0  0  0  0  0
  161.1710  208.3860  154.1920 C   0  0  0  0  0  3  0  0  0  0  0  0
  161.7730  210.2150  152.3930 C   0  0  0  0  0  3  0  0  0  0  0  0
  158.2830  210.6770  155.7390 Cl  0  0  0  0  0  0  0  0  0  0  0  0
  159.5830  210.2760  154.6310 C   0  0  0  0  0  0  0  0  0  0  0  0
  161.5420  208.7260  152.7620 C   0  0  2  0  0  3  0  0  0  0  0  0
  160.2590  208.9740  154.9560 C   0  0  0  0  0  3  0  0  0  0  0  0
  161.0380  211.2550  152.7670 C   0  0  0  0  0  3  0  0  0  0  0  0
  159.9350  211.2020  153.7470 C   0  0  0  0  0  3  0  0  0  0  0  0
  1 30  1  0  0  0  0
  1  4  1  0  0  0  0
  2  1  2  0  0  0  0
  3  2  1  0  0  0  0
  3  5  2  0  0  0  0
  5  6  1  0  0  0  0
  6  4  2  0  0  0  0
  8  9  1  0  0  0  0
  9  7  2  0  0  0  0
  9  2  1  0  0  0  0
 10  8  1  0  0  0  0
 11 10  1  0  0  0  0
 12 11  1  0  0  0  0
 14 13  1  1  0  0  0
 14 12  1  0  0  0  0
 15 14  1  0  0  0  0
 16 17  1  6  0  0  0
 16 15  1  0  0  0  0
 18 16  1  0  0  0  0
 19 21  1  0  0  0  0
 19 20  1  0  0  0  0
 20 18  1  6  0  0  0
 21 20  1  0  0  0  0
 21 22  1  1  0  0  0
 22 23  1  0  0  0  0
 23 27  1  0  0  0  0
 24 26  1  0  0  0  0
 27 28  1  6  0  0  0
 27 24  1  0  0  0  0
 27 29  1  0  0  0  0
 29 25  1  6  0  0  0
 29 26  1  0  0  0  0
 30 31  2  0  0  0  0
 31 45  1  0  0  0  0
 32 33  1  0  0  0  0
 32 30  1  0  0  0  0
 34 35  1  0  0  0  0
 35 37  1  6  0  0  0
 36 34  1  0  0  0  0
 36 33  1  1  0  0  0
 37 36  1  0  0  0  0
 40 41  1  0  0  0  0
 40 39  1  0  0  0  0
 40 42  1  1  0  0  0
 41 38  1  6  0  0  0
 41 39  1  0  0  0  0
 41 35  1  0  0  0  0
 43 42  1  0  0  0  0
 44 43  1  0  0  0  0
 46 51  2  0  0  0  0
 47 50  1  0  0  0  0
 47 52  2  0  0  0  0
 49 51  1  0  0  0  0
 49 48  1  0  0  0  0
 50 45  1  6  0  0  0
 50 46  1  0  0  0  0
 52 53  1  0  0  0  0
 53 49  2  0  0  0  0
M  END
>  <MODEL>
4

>  <REMARK>
 VINA RESULT:      -4.4      3.046      7.487
  Name = 
  20 active torsions:
  status: ('A' for Active; 'I' for Inactive)
    1  A    between atoms: C_1  and  C_8
    2  A    between atoms: C_2  and  O_10
    3  A    between atoms: C_2  and  C_30
    4  A    between atoms: C_4  and  C_46
    5  A    between atoms: C_6  and  C_11
    6  A    between atoms: C_6  and  C_40
    7  A    between atoms: C_7  and  C_20
    8  A    between atoms: C_7  and  C_37
    9  A    between atoms: C_8  and  C_21
   10  A    between atoms: C_11  and  C_22
   11  A    between atoms: S_12  and  C_23
   12  A    between atoms: S_12  and  C_27
   13  A    between atoms: N_18  and  C_28
   14  A    between atoms: N_18  and  N_49
   15  A    between atoms: C_20  and  C_50
   16  A    between atoms: C_22  and  C_42
   17  A    between atoms: C_23  and  N_41
   18  A    between atoms: N_24  and  C_44
   19  A    between atoms: C_27  and  C_40
   20  A    between atoms: C_33  and  C_51
                            x       y       z     vdW  Elec       q    Type
                         _______ _______ _______ _____ _____    ______ ____

>  <TORSDO>
F 20

$$$$
=
 OpenBabel11072411453D

 53 58  0  0  1  0  0  0  0  0999 V2000
  161.6090  205.4380  148.3890 C   0  0  0  0  0  0  0  0  0  0  0  0
  161.4240  206.8940  148.1670 C   0  0  0  0  0  0  0  0  0  0  0  0
  161.5800  207.3840  146.8650 C   0  0  0  0  0  3  0  0  0  0  0  0
  161.9970  204.6730  147.2350 C   0  0  0  0  0  3  0  0  0  0  0  0
  161.9090  206.5520  145.8260 C   0  0  0  0  0  3  0  0  0  0  0  0
  162.0960  205.2460  146.0090 N   0  0  0  0  0  0  0  0  0  0  0  0
  160.6640  207.9300  150.1540 O   0  0  0  0  0  0  0  0  0  0  0  0
  162.2180  209.1810  148.9350 N   0  0  0  0  0  2  0  0  0  0  0  0
  161.4360  207.9810  149.1330 C   0  0  0  0  0  0  0  0  0  0  0  0
  161.9110  210.5130  149.4730 C   0  0  0  0  0  2  0  0  0  0  0  0
  162.6220  211.8010  148.4530 S   0  0  0  0  0  0  0  0  0  0  0  0
  161.0350  211.7480  147.5430 C   0  0  0  0  0  2  0  0  0  0  0  0
  159.7190  213.6620  147.2790 O   0  0  0  0  0  1  0  0  0  0  0  0
  160.8890  213.0650  146.8520 C   0  0  2  0  0  3  0  0  0  0  0  0
  161.2620  213.2290  145.3520 C   0  0  0  0  0  2  0  0  0  0  0  0
  160.2530  213.1310  144.2630 C   0  0  2  0  0  3  0  0  0  0  0  0
  159.7290  211.8610  144.3470 O   0  0  0  0  0  1  0  0  0  0  0  0
  160.9980  213.3400  143.0330 C   0  0  0  0  0  2  0  0  0  0  0  0
  161.1550  213.0510  140.5840 C   0  0  0  0  0  2  0  0  0  0  0  0
  161.0050  212.3050  141.9510 C   0  0  1  0  0  3  0  0  0  0  0  0
  162.3800  212.3290  141.2110 C   0  0  1  0  0  3  0  0  0  0  0  0
  162.5630  211.0340  140.4190 C   0  0  0  0  0  2  0  0  0  0  0  0
  161.2290  210.2190  140.3110 C   0  0  0  0  0  2  0  0  0  0  0  0
  161.8740  210.5400  137.8260 C   0  0  0  0  0  2  0  0  0  0  0  0
  161.6500  207.4660  139.3240 C   0  0  0  0  0  1  0  0  0  0  0  0
  162.0150  209.1100  137.3170 C   0  0  0  0  0  2  0  0  0  0  0  0
  160.7770  210.0230  138.8090 C   0  0  2  0  0  0  0  0  0  0  0  0
  159.4210  210.5550  138.3460 C   0  0  0  0  0  1  0  0  0  0  0  0
  161.0360  208.5520  138.3580 C   0  0  2  0  0  3  0  0  0  0  0  0
  161.4760  204.7030  149.6920 C   0  0  0  0  0  0  0  0  0  0  0  0
  160.8330  203.5600  149.6900 N   0  0  0  0  0  0  0  0  0  0  0  0
  162.0890  205.4290  150.9410 C   0  0  0  0  0  2  0  0  0  0  0  0
  161.4370  205.6050  152.2130 C   0  0  0  0  0  2  0  0  0  0  0  0
  160.9740  206.7310  154.4070 C   0  0  0  0  0  2  0  0  0  0  0  0
  160.4150  208.0850  154.1020 N   0  0  2  0  0  0  0  0  0  0  0  0
  161.8960  206.7420  153.1860 C   0  0  2  0  0  3  0  0  0  0  0  0
  161.3790  208.1560  152.9850 C   0  0  0  0  0  2  0  0  0  0  0  0
  161.8850  208.9890  155.8810 O   0  0  0  0  0  1  0  0  0  0  0  0
  159.6860  209.6730  155.7660 O   0  0  0  0  0  0  0  0  0  0  0  0
  160.4170  210.4830  154.9470 C   0  0  1  0  0  3  0  0  0  0  0  0
  160.7180  209.0250  155.1540 C   0  0  2  0  0  0  0  0  0  0  0  0
  159.4640  211.1120  153.9770 C   0  0  0  0  0  2  0  0  0  0  0  0
  160.0660  212.2080  153.3350 O   0  0  0  0  0  0  0  0  0  0  0  0
  158.9260  212.7960  152.7160 C   0  0  0  0  0  1  0  0  0  0  0  0
  160.6050  202.6820  150.8100 N   0  0  0  0  0  2  0  0  0  0  0  0
  161.4940  200.7210  149.8220 C   0  0  0  0  0  3  0  0  0  0  0  0
  158.9230  200.9570  150.3470 C   0  0  0  0  0  3  0  0  0  0  0  0
  160.8810  201.3240  145.9170 Cl  0  0  0  0  0  0  0  0  0  0  0  0
  160.4150  201.1560  147.6010 C   0  0  0  0  0  0  0  0  0  0  0  0
  160.3970  201.2600  150.7180 C   0  0  2  0  0  3  0  0  0  0  0  0
  161.5580  200.7710  148.4970 C   0  0  0  0  0  3  0  0  0  0  0  0
  158.3740  201.0100  149.1390 C   0  0  0  0  0  3  0  0  0  0  0  0
  159.1190  201.2250  147.8820 C   0  0  0  0  0  3  0  0  0  0  0  0
  1 30  1  0  0  0  0
  2  1  1  0  0  0  0
  2  9  1  0  0  0  0
  3  2  2  0  0  0  0
  4  1  2  0  0  0  0
  5  6  2  0  0  0  0
  5  3  1  0  0  0  0
  6  4  1  0  0  0  0
  8  9  1  0  0  0  0
  8 10  1  0  0  0  0
  9  7  2  0  0  0  0
 11 10  1  0  0  0  0
 12 11  1  0  0  0  0
 14 13  1  6  0  0  0
 14 12  1  0  0  0  0
 15 14  1  0  0  0  0
 16 17  1  6  0  0  0
 16 15  1  0  0  0  0
 18 16  1  0  0  0  0
 19 21  1  0  0  0  0
 19 20  1  0  0  0  0
 20 18  1  1  0  0  0
 21 22  1  6  0  0  0
 21 20  1  0  0  0  0
 23 22  1  0  0  0  0
 24 27  1  0  0  0  0
 26 24  1  0  0  0  0
 26 29  1  0  0  0  0
 27 28  1  6  0  0  0
 27 23  1  0  0  0  0
 29 27  1  0  0  0  0
 29 25  1  1  0  0  0
 30 32  1  0  0  0  0
 31 30  2  0  0  0  0
 31 45  1  0  0  0  0
 32 33  1  0  0  0  0
 35 37  1  6  0  0  0
 35 34  1  0  0  0  0
 35 41  1  0  0  0  0
 36 33  1  6  0  0  0
 36 34  1  0  0  0  0
 37 36  1  0  0  0  0
 40 42  1  6  0  0  0
 40 41  1  0  0  0  0
 40 39  1  0  0  0  0
 41 39  1  0  0  0  0
 41 38  1  1  0  0  0
 43 42  1  0  0  0  0
 44 43  1  0  0  0  0
 46 50  1  0  0  0  0
 47 50  1  0  0  0  0
 48 49  1  0  0  0  0
 49 53  2  0  0  0  0
 49 51  1  0  0  0  0
 50 45  1  6  0  0  0
 51 46  2  0  0  0  0
 52 47  2  0  0  0  0
 53 52  1  0  0  0  0
M  END
>  <MODEL>
5

>  <REMARK>
 VINA RESULT:      -4.3      2.262      5.889
  Name = 
  20 active torsions:
  status: ('A' for Active; 'I' for Inactive)
    1  A    between atoms: C_1  and  C_8
    2  A    between atoms: C_2  and  O_10
    3  A    between atoms: C_2  and  C_30
    4  A    between atoms: C_4  and  C_46
    5  A    between atoms: C_6  and  C_11
    6  A    between atoms: C_6  and  C_40
    7  A    between atoms: C_7  and  C_20
    8  A    between atoms: C_7  and  C_37
    9  A    between atoms: C_8  and  C_21
   10  A    between atoms: C_11  and  C_22
   11  A    between atoms: S_12  and  C_23
   12  A    between atoms: S_12  and  C_27
   13  A    between atoms: N_18  and  C_28
   14  A    between atoms: N_18  and  N_49
   15  A    between atoms: C_20  and  C_50
   16  A    between atoms: C_22  and  C_42
   17  A    between atoms: C_23  and  N_41
   18  A    between atoms: N_24  and  C_44
   19  A    between atoms: C_27  and  C_40
   20  A    between atoms: C_33  and  C_51
                            x       y       z     vdW  Elec       q    Type
                         _______ _______ _______ _____ _____    ______ ____

>  <TORSDO>
F 20

$$$$
=
 OpenBabel11072411453D

 53 58  0  0  1  0  0  0  0  0999 V2000
  161.3380  208.0100  152.9580 C   0  0  0  0  0  0  0  0  0  0  0  0
  161.3910  209.4910  153.0150 C   0  0  0  0  0  0  0  0  0  0  0  0
  161.4040  210.0990  154.2760 C   0  0  0  0  0  3  0  0  0  0  0  0
  161.2400  207.3370  154.2250 C   0  0  0  0  0  3  0  0  0  0  0  0
  161.3520  209.3540  155.4260 C   0  0  0  0  0  3  0  0  0  0  0  0
  161.2860  208.0240  155.3940 N   0  0  0  0  0  0  0  0  0  0  0  0
  160.0350  211.1810  152.0640 O   0  0  0  0  0  0  0  0  0  0  0  0
  161.8980  210.5890  150.7810 N   0  0  0  0  0  2  0  0  0  0  0  0
  161.0930  210.4650  151.9760 C   0  0  0  0  0  0  0  0  0  0  0  0
  161.4350  211.0680  149.4720 C   0  0  0  0  0  2  0  0  0  0  0  0
  161.5560  212.8510  149.3580 S   0  0  0  0  0  0  0  0  0  0  0  0
  162.2950  212.5450  147.7120 C   0  0  0  0  0  2  0  0  0  0  0  0
  160.9550  214.4430  147.4510 O   0  0  0  0  0  1  0  0  0  0  0  0
  161.5810  213.4340  146.7460 C   0  0  2  0  0  3  0  0  0  0  0  0
  160.8190  212.8440  145.5260 C   0  0  0  0  0  2  0  0  0  0  0  0
  159.7970  213.6190  144.7720 C   0  0  2  0  0  3  0  0  0  0  0  0
  158.9450  212.6880  144.2250 O   0  0  0  0  0  1  0  0  0  0  0  0
  160.5430  214.3470  143.7590 C   0  0  0  0  0  2  0  0  0  0  0  0
  162.4090  214.1830  142.1470 C   0  0  0  0  0  2  0  0  0  0  0  0
  160.9680  213.6790  142.4870 C   0  0  1  0  0  3  0  0  0  0  0  0
  162.2080  212.7710  142.7620 C   0  0  1  0  0  3  0  0  0  0  0  0
  162.3860  211.7770  141.6130 C   0  0  0  0  0  2  0  0  0  0  0  0
  161.9120  212.3730  140.2440 C   0  0  0  0  0  2  0  0  0  0  0  0
  159.4810  211.4940  140.1340 C   0  0  0  0  0  2  0  0  0  0  0  0
  160.8520  213.5220  137.7360 C   0  0  0  0  0  1  0  0  0  0  0  0
  158.9760  212.0350  138.8020 C   0  0  0  0  0  2  0  0  0  0  0  0
  160.9040  211.4100  139.4980 C   0  0  2  0  0  0  0  0  0  0  0  0
  161.2620  209.9370  139.3010 C   0  0  0  0  0  1  0  0  0  0  0  0
  160.3830  212.0860  138.1910 C   0  0  2  0  0  3  0  0  0  0  0  0
  161.3310  207.1570  151.7210 C   0  0  0  0  0  0  0  0  0  0  0  0
  161.6710  207.7170  150.5850 N   0  0  0  0  0  0  0  0  0  0  0  0
  160.8540  205.6750  151.9270 C   0  0  0  0  0  2  0  0  0  0  0  0
  161.6880  204.5740  152.3300 C   0  0  0  0  0  2  0  0  0  0  0  0
  161.7770  202.7290  150.6310 C   0  0  0  0  0  2  0  0  0  0  0  0
  160.4000  202.5820  150.0630 N   0  0  2  0  0  0  0  0  0  0  0  0
  161.2570  203.1010  152.0210 C   0  0  2  0  0  3  0  0  0  0  0  0
  159.8860  202.8300  151.4260 C   0  0  0  0  0  2  0  0  0  0  0  0
  159.0970  200.4740  150.0560 O   0  0  0  0  0  1  0  0  0  0  0  0
  161.2070  200.5100  149.1250 O   0  0  0  0  0  0  0  0  0  0  0  0
  160.3200  200.8950  148.1630 C   0  0  1  0  0  3  0  0  0  0  0  0
  160.1590  201.2300  149.6190 C   0  0  2  0  0  0  0  0  0  0  0  0
  161.0950  201.6330  147.1130 C   0  0  0  0  0  2  0  0  0  0  0  0
  161.0400  200.9480  145.8870 O   0  0  0  0  0  0  0  0  0  0  0  0
  159.8750  201.5370  145.3210 C   0  0  0  0  0  1  0  0  0  0  0  0
  161.7530  207.0910  149.2900 N   0  0  0  0  0  2  0  0  0  0  0  0
  161.2730  204.8460  148.7040 C   0  0  0  0  0  3  0  0  0  0  0  0
  160.2520  206.8700  147.3620 C   0  0  0  0  0  3  0  0  0  0  0  0
  163.9160  204.0880  145.8010 Cl  0  0  0  0  0  0  0  0  0  0  0  0
  162.5970  204.9470  146.5770 C   0  0  0  0  0  0  0  0  0  0  0  0
  160.7330  206.2620  148.7050 C   0  0  2  0  0  3  0  0  0  0  0  0
  162.1520  204.3120  147.8650 C   0  0  0  0  0  3  0  0  0  0  0  0
  160.8550  206.7810  146.1820 C   0  0  0  0  0  3  0  0  0  0  0  0
  162.0360  205.9410  145.8980 C   0  0  0  0  0  3  0  0  0  0  0  0
  1  2  2  0  0  0  0
  1  4  1  0  0  0  0
  2  3  1  0  0  0  0
  3  5  2  0  0  0  0
  4  6  2  0  0  0  0
  6  5  1  0  0  0  0
  8  9  1  0  0  0  0
  9  7  2  0  0  0  0
  9  2  1  0  0  0  0
 10  8  1  0  0  0  0
 11 10  1  0  0  0  0
 12 11  1  0  0  0  0
 14 13  1  1  0  0  0
 14 12  1  0  0  0  0
 15 14  1  0  0  0  0
 16 17  1  6  0  0  0
 16 15  1  0  0  0  0
 18 16  1  0  0  0  0
 19 20  1  0  0  0  0
 19 21  1  0  0  0  0
 20 21  1  0  0  0  0
 20 18  1  1  0  0  0
 21 22  1  6  0  0  0
 23 22  1  0  0  0  0
 26 24  1  0  0  0  0
 27 28  1  6  0  0  0
 27 24  1  0  0  0  0
 27 23  1  0  0  0  0
 29 25  1  1  0  0  0
 29 26  1  0  0  0  0
 29 27  1  0  0  0  0
 30 32  1  0  0  0  0
 30  1  1  0  0  0  0
 31 30  2  0  0  0  0
 32 33  1  0  0  0  0
 34 36  1  0  0  0  0
 35 34  1  1  0  0  0
 35 37  1  0  0  0  0
 36 33  1  6  0  0  0
 37 36  1  0  0  0  0
 39 41  1  0  0  0  0
 40 42  1  6  0  0  0
 40 39  1  0  0  0  0
 40 41  1  0  0  0  0
 41 38  1  1  0  0  0
 41 35  1  0  0  0  0
 43 42  1  0  0  0  0
 44 43  1  0  0  0  0
 45 31  1  0  0  0  0
 46 50  1  0  0  0  0
 47 50  1  0  0  0  0
 48 49  1  0  0  0  0
 49 51  1  0  0  0  0
 50 45  1  6  0  0  0
 51 46  2  0  0  0  0
 52 47  2  0  0  0  0
 53 52  1  0  0  0  0
 53 49  2  0  0  0  0
M  END
>  <MODEL>
6

>  <REMARK>
 VINA RESULT:      -4.1      1.820      3.448
  Name = 
  20 active torsions:
  status: ('A' for Active; 'I' for Inactive)
    1  A    between atoms: C_1  and  C_8
    2  A    between atoms: C_2  and  O_10
    3  A    between atoms: C_2  and  C_30
    4  A    between atoms: C_4  and  C_46
    5  A    between atoms: C_6  and  C_11
    6  A    between atoms: C_6  and  C_40
    7  A    between atoms: C_7  and  C_20
    8  A    between atoms: C_7  and  C_37
    9  A    between atoms: C_8  and  C_21
   10  A    between atoms: C_11  and  C_22
   11  A    between atoms: S_12  and  C_23
   12  A    between atoms: S_12  and  C_27
   13  A    between atoms: N_18  and  C_28
   14  A    between atoms: N_18  and  N_49
   15  A    between atoms: C_20  and  C_50
   16  A    between atoms: C_22  and  C_42
   17  A    between atoms: C_23  and  N_41
   18  A    between atoms: N_24  and  C_44
   19  A    between atoms: C_27  and  C_40
   20  A    between atoms: C_33  and  C_51
                            x       y       z     vdW  Elec       q    Type
                         _______ _______ _______ _____ _____    ______ ____

>  <TORSDO>
F 20

$$$$
=
 OpenBabel11072411453D

 53 58  0  0  1  0  0  0  0  0999 V2000
  161.4320  210.2190  155.7870 C   0  0  0  0  0  0  0  0  0  0  0  0
  162.3240  210.5410  154.6450 C   0  0  0  0  0  0  0  0  0  0  0  0
  163.6300  210.9560  154.9300 C   0  0  0  0  0  3  0  0  0  0  0  0
  161.9890  210.4310  157.0960 C   0  0  0  0  0  3  0  0  0  0  0  0
  164.0710  211.0800  156.2220 C   0  0  0  0  0  3  0  0  0  0  0  0
  163.2800  210.8140  157.2600 N   0  0  0  0  0  0  0  0  0  0  0  0
  160.8880  211.4400  152.9930 O   0  0  0  0  0  0  0  0  0  0  0  0
  162.7820  210.3550  152.1540 N   0  0  0  0  0  2  0  0  0  0  0  0
  161.9810  210.8270  153.2610 C   0  0  0  0  0  0  0  0  0  0  0  0
  162.3000  210.0720  150.7960 C   0  0  0  0  0  2  0  0  0  0  0  0
  161.3370  211.4380  150.1550 S   0  0  0  0  0  0  0  0  0  0  0  0
  162.5140  211.4160  148.7540 C   0  0  0  0  0  2  0  0  0  0  0  0
  161.7290  213.6180  148.7270 O   0  0  0  0  0  1  0  0  0  0  0  0
  162.2050  212.6110  147.9110 C   0  0  2  0  0  3  0  0  0  0  0  0
  161.5380  212.4550  146.5150 C   0  0  0  0  0  2  0  0  0  0  0  0
  160.3680  213.2710  146.0930 C   0  0  2  0  0  3  0  0  0  0  0  0
  159.2580  212.5030  146.3560 O   0  0  0  0  0  1  0  0  0  0  0  0
  160.5570  213.5000  144.6700 C   0  0  0  0  0  2  0  0  0  0  0  0
  159.3730  213.4110  142.5030 C   0  0  0  0  0  2  0  0  0  0  0  0
  159.9910  212.5540  143.6570 C   0  0  1  0  0  3  0  0  0  0  0  0
  160.7510  212.7200  142.3030 C   0  0  1  0  0  3  0  0  0  0  0  0
  160.4920  211.5040  141.4120 C   0  0  0  0  0  2  0  0  0  0  0  0
  160.5620  211.8680  139.8890 C   0  0  0  0  0  2  0  0  0  0  0  0
  162.1850  209.8590  140.0520 C   0  0  0  0  0  2  0  0  0  0  0  0
  159.0760  209.6490  138.6250 C   0  0  0  0  0  1  0  0  0  0  0  0
  161.4330  208.7470  139.3310 C   0  0  0  0  0  2  0  0  0  0  0  0
  161.4940  210.8750  139.0880 C   0  0  2  0  0  0  0  0  0  0  0  0
  162.5480  211.4270  138.1280 C   0  0  0  0  0  1  0  0  0  0  0  0
  160.6430  209.7290  138.4570 C   0  0  2  0  0  3  0  0  0  0  0  0
  160.0080  209.7450  155.7110 C   0  0  0  0  0  0  0  0  0  0  0  0
  159.0610  210.5870  156.0480 N   0  0  0  0  0  0  0  0  0  0  0  0
  159.8190  208.2480  155.2800 C   0  0  0  0  0  2  0  0  0  0  0  0
  160.8460  207.2390  155.2770 C   0  0  0  0  0  2  0  0  0  0  0  0
  161.9680  205.8220  153.5370 C   0  0  0  0  0  2  0  0  0  0  0  0
  161.2370  206.0370  152.2500 N   0  0  2  0  0  0  0  0  0  0  0  0
  160.7000  205.9640  154.3810 C   0  0  2  0  0  3  0  0  0  0  0  0
  159.9900  206.0650  153.0420 C   0  0  0  0  0  2  0  0  0  0  0  0
  160.9860  203.6100  151.8160 O   0  0  0  0  0  1  0  0  0  0  0  0
  162.1660  204.9150  150.3260 O   0  0  0  0  0  0  0  0  0  0  0  0
  160.8480  204.9690  149.9750 C   0  0  1  0  0  3  0  0  0  0  0  0
  161.3240  204.8750  151.3980 C   0  0  2  0  0  0  0  0  0  0  0  0
  160.6630  206.1930  149.1300 C   0  0  0  0  0  2  0  0  0  0  0  0
  161.8380  206.4790  148.4140 O   0  0  0  0  0  0  0  0  0  0  0  0
  161.5630  207.8150  148.0030 C   0  0  0  0  0  1  0  0  0  0  0  0
  157.6380  210.3570  156.0320 N   0  0  0  0  0  2  0  0  0  0  0  0
  156.0320  211.7200  154.9480 C   0  0  0  0  0  3  0  0  0  0  0  0
  157.2230  212.4920  157.1680 C   0  0  0  0  0  3  0  0  0  0  0  0
  158.2820  214.1760  152.7370 Cl  0  0  0  0  0  0  0  0  0  0  0  0
  157.7280  213.4180  154.2190 C   0  0  0  0  0  0  0  0  0  0  0  0
  156.6350  211.3560  156.2900 C   0  0  2  0  0  3  0  0  0  0  0  0
  156.5450  212.5120  154.0140 C   0  0  0  0  0  3  0  0  0  0  0  0
  157.9810  213.5040  156.7640 C   0  0  0  0  0  3  0  0  0  0  0  0
  158.2810  213.8260  155.3540 C   0  0  0  0  0  3  0  0  0  0  0  0
  1  4  1  0  0  0  0
  2  3  1  0  0  0  0
  2  1  2  0  0  0  0
  3  5  2  0  0  0  0
  4  6  2  0  0  0  0
  5  6  1  0  0  0  0
  7  9  2  0  0  0  0
  8  9  1  0  0  0  0
  9  2  1  0  0  0  0
 10  8  1  0  0  0  0
 11 10  1  0  0  0  0
 12 11  1  0  0  0  0
 14 13  1  1  0  0  0
 14 12  1  0  0  0  0
 15 14  1  0  0  0  0
 16 17  1  6  0  0  0
 16 15  1  0  0  0  0
 18 16  1  0  0  0  0
 19 20  1  0  0  0  0
 20 18  1  1  0  0  0
 21 22  1  6  0  0  0
 21 19  1  0  0  0  0
 21 20  1  0  0  0  0
 23 22  1  0  0  0  0
 26 24  1  0  0  0  0
 27 28  1  6  0  0  0
 27 23  1  0  0  0  0
 27 24  1  0  0  0  0
 29 25  1  1  0  0  0
 29 27  1  0  0  0  0
 29 26  1  0  0  0  0
 30  1  1  0  0  0  0
 30 31  2  0  0  0  0
 32 30  1  0  0  0  0
 33 32  1  0  0  0  0
 34 36  1  0  0  0  0
 35 37  1  1  0  0  0
 35 34  1  0  0  0  0
 36 33  1  1  0  0  0
 37 36  1  0  0  0  0
 39 41  1  0  0  0  0
 40 42  1  1  0  0  0
 40 39  1  0  0  0  0
 40 41  1  0  0  0  0
 41 38  1  1  0  0  0
 41 35  1  0  0  0  0
 43 42  1  0  0  0  0
 44 43  1  0  0  0  0
 45 31  1  0  0  0  0
 46 50  1  0  0  0  0
 48 49  1  0  0  0  0
 49 53  2  0  0  0  0
 50 45  1  6  0  0  0
 50 47  1  0  0  0  0
 51 49  1  0  0  0  0
 51 46  2  0  0  0  0
 52 47  2  0  0  0  0
 53 52  1  0  0  0  0
M  END
>  <MODEL>
7

>  <REMARK>
 VINA RESULT:      -3.2      3.400      6.122
  Name = 
  20 active torsions:
  status: ('A' for Active; 'I' for Inactive)
    1  A    between atoms: C_1  and  C_8
    2  A    between atoms: C_2  and  O_10
    3  A    between atoms: C_2  and  C_30
    4  A    between atoms: C_4  and  C_46
    5  A    between atoms: C_6  and  C_11
    6  A    between atoms: C_6  and  C_40
    7  A    between atoms: C_7  and  C_20
    8  A    between atoms: C_7  and  C_37
    9  A    between atoms: C_8  and  C_21
   10  A    between atoms: C_11  and  C_22
   11  A    between atoms: S_12  and  C_23
   12  A    between atoms: S_12  and  C_27
   13  A    between atoms: N_18  and  C_28
   14  A    between atoms: N_18  and  N_49
   15  A    between atoms: C_20  and  C_50
   16  A    between atoms: C_22  and  C_42
   17  A    between atoms: C_23  and  N_41
   18  A    between atoms: N_24  and  C_44
   19  A    between atoms: C_27  and  C_40
   20  A    between atoms: C_33  and  C_51
                            x       y       z     vdW  Elec       q    Type
                         _______ _______ _______ _____ _____    ______ ____

>  <TORSDO>
F 20

$$$$
=
 OpenBabel11072411453D

 53 58  0  0  1  0  0  0  0  0999 V2000
  161.7430  209.5520  149.0920 C   0  0  0  0  0  0  0  0  0  0  0  0
  161.7940  208.7990  150.3690 C   0  0  0  0  0  0  0  0  0  0  0  0
  161.5630  207.4180  150.3270 C   0  0  0  0  0  3  0  0  0  0  0  0
  161.3930  208.7860  147.9260 C   0  0  0  0  0  3  0  0  0  0  0  0
  161.2810  206.7800  149.1460 C   0  0  0  0  0  3  0  0  0  0  0  0
  161.2130  207.4430  147.9930 N   0  0  0  0  0  0  0  0  0  0  0  0
  162.7020  209.9350  152.2360 O   0  0  0  0  0  0  0  0  0  0  0  0
  160.5880  209.0030  152.5950 N   0  0  0  0  0  2  0  0  0  0  0  0
  161.7120  209.2940  151.7340 C   0  0  0  0  0  0  0  0  0  0  0  0
  160.6170  208.9310  154.0620 C   0  0  0  0  0  2  0  0  0  0  0  0
  160.8030  207.2410  154.6230 S   0  0  0  0  0  0  0  0  0  0  0  0
  161.8490  207.0210  153.1370 C   0  0  0  0  0  2  0  0  0  0  0  0
  163.5360  205.5540  152.4560 O   0  0  0  0  0  1  0  0  0  0  0  0
  162.3560  205.6160  153.1700 C   0  0  2  0  0  3  0  0  0  0  0  0
  161.3830  204.4100  153.0390 C   0  0  0  0  0  2  0  0  0  0  0  0
  160.6950  204.0750  151.7640 C   0  0  2  0  0  3  0  0  0  0  0  0
  159.3470  204.1380  152.0340 O   0  0  0  0  0  1  0  0  0  0  0  0
  161.1300  202.7270  151.4390 C   0  0  0  0  0  2  0  0  0  0  0  0
  160.9640  200.8890  149.7960 C   0  0  0  0  0  2  0  0  0  0  0  0
  161.4780  202.3470  150.0330 C   0  0  1  0  0  3  0  0  0  0  0  0
  160.1680  202.0920  149.2200 C   0  0  1  0  0  3  0  0  0  0  0  0
  160.4750  202.1280  147.7220 C   0  0  0  0  0  2  0  0  0  0  0  0
  161.2080  203.4490  147.3050 C   0  0  0  0  0  2  0  0  0  0  0  0
  160.3810  205.0450  145.4430 C   0  0  0  0  0  2  0  0  0  0  0  0
  163.6960  204.5770  146.1790 C   0  0  0  0  0  1  0  0  0  0  0  0
  161.6780  205.5590  144.8270 C   0  0  0  0  0  2  0  0  0  0  0  0
  161.1230  203.7050  145.7480 C   0  0  2  0  0  0  0  0  0  0  0  0
  160.5630  202.6200  144.8270 C   0  0  0  0  0  1  0  0  0  0  0  0
  162.4660  204.3060  145.2280 C   0  0  2  0  0  3  0  0  0  0  0  0
  161.9720  211.0250  148.9060 C   0  0  0  0  0  0  0  0  0  0  0  0
  162.5670  211.4200  147.8060 N   0  0  0  0  0  0  0  0  0  0  0  0
  161.5110  211.9340  150.1000 C   0  0  0  0  0  2  0  0  0  0  0  0
  160.2860  211.7890  150.8410 C   0  0  0  0  0  2  0  0  0  0  0  0
  159.8010  212.6930  153.1310 C   0  0  0  0  0  2  0  0  0  0  0  0
  158.3160  212.6600  153.3160 N   0  0  2  0  0  0  0  0  0  0  0  0
  159.6940  213.0000  151.6360 C   0  0  2  0  0  3  0  0  0  0  0  0
  158.1990  213.0650  151.9010 C   0  0  0  0  0  2  0  0  0  0  0  0
  156.7530  214.4530  154.0130 O   0  0  0  0  0  1  0  0  0  0  0  0
  158.7960  214.2540  155.0630 O   0  0  0  0  0  0  0  0  0  0  0  0
  157.9160  213.4320  155.7050 C   0  0  1  0  0  3  0  0  0  0  0  0
  157.8790  213.6920  154.2250 C   0  0  2  0  0  0  0  0  0  0  0  0
  158.7220  212.4160  156.4560 C   0  0  0  0  0  2  0  0  0  0  0  0
  158.0440  211.1860  156.5030 O   0  0  0  0  0  0  0  0  0  0  0  0
  156.7780  211.6140  156.9920 C   0  0  0  0  0  1  0  0  0  0  0  0
  162.8680  212.7740  147.4120 N   0  0  0  0  0  2  0  0  0  0  0  0
  161.2380  214.4520  147.0380 C   0  0  0  0  0  3  0  0  0  0  0  0
  161.6430  212.5110  145.3030 C   0  0  0  0  0  3  0  0  0  0  0  0
  157.8710  212.7450  148.3540 Cl  0  0  0  0  0  0  0  0  0  0  0  0
  159.3110  212.8800  147.3610 C   0  0  0  0  0  0  0  0  0  0  0  0
  162.2010  213.4970  146.3610 C   0  0  2  0  0  3  0  0  0  0  0  0
  160.0520  214.1730  147.5640 C   0  0  0  0  0  3  0  0  0  0  0  0
  160.5240  211.8010  145.3830 C   0  0  0  0  0  3  0  0  0  0  0  0
  159.5100  211.9380  146.4470 C   0  0  0  0  0  3  0  0  0  0  0  0
  1  2  1  0  0  0  0
  2  9  1  0  0  0  0
  3  2  2  0  0  0  0
  4  6  1  0  0  0  0
  4  1  2  0  0  0  0
  5  3  1  0  0  0  0
  6  5  2  0  0  0  0
  8 10  1  0  0  0  0
  9  7  2  0  0  0  0
  9  8  1  0  0  0  0
 10 11  1  0  0  0  0
 12 14  1  0  0  0  0
 12 11  1  0  0  0  0
 14 13  1  6  0  0  0
 15 14  1  0  0  0  0
 16 17  1  1  0  0  0
 16 15  1  0  0  0  0
 18 16  1  0  0  0  0
 19 20  1  0  0  0  0
 20 18  1  1  0  0  0
 21 22  1  6  0  0  0
 21 19  1  0  0  0  0
 21 20  1  0  0  0  0
 23 22  1  0  0  0  0
 24 27  1  0  0  0  0
 26 29  1  0  0  0  0
 26 24  1  0  0  0  0
 27 28  1  6  0  0  0
 27 23  1  0  0  0  0
 29 27  1  0  0  0  0
 29 25  1  1  0  0  0
 30  1  1  0  0  0  0
 30 32  1  0  0  0  0
 31 30  2  0  0  0  0
 32 33  1  0  0  0  0
 34 35  1  0  0  0  0
 35 37  1  6  0  0  0
 35 41  1  0  0  0  0
 36 33  1  6  0  0  0
 36 37  1  0  0  0  0
 36 34  1  0  0  0  0
 39 40  1  0  0  0  0
 40 42  1  6  0  0  0
 41 38  1  6  0  0  0
 41 39  1  0  0  0  0
 41 40  1  0  0  0  0
 42 43  1  0  0  0  0
 43 44  1  0  0  0  0
 45 31  1  0  0  0  0
 46 51  2  0  0  0  0
 47 52  2  0  0  0  0
 47 50  1  0  0  0  0
 49 51  1  0  0  0  0
 49 48  1  0  0  0  0
 50 46  1  0  0  0  0
 50 45  1  1  0  0  0
 52 53  1  0  0  0  0
 53 49  2  0  0  0  0
M  END
>  <MODEL>
8

>  <REMARK>
 VINA RESULT:      -3.0      4.265     10.275
  Name = 
  20 active torsions:
  status: ('A' for Active; 'I' for Inactive)
    1  A    between atoms: C_1  and  C_8
    2  A    between atoms: C_2  and  O_10
    3  A    between atoms: C_2  and  C_30
    4  A    between atoms: C_4  and  C_46
    5  A    between atoms: C_6  and  C_11
    6  A    between atoms: C_6  and  C_40
    7  A    between atoms: C_7  and  C_20
    8  A    between atoms: C_7  and  C_37
    9  A    between atoms: C_8  and  C_21
   10  A    between atoms: C_11  and  C_22
   11  A    between atoms: S_12  and  C_23
   12  A    between atoms: S_12  and  C_27
   13  A    between atoms: N_18  and  C_28
   14  A    between atoms: N_18  and  N_49
   15  A    between atoms: C_20  and  C_50
   16  A    between atoms: C_22  and  C_42
   17  A    between atoms: C_23  and  N_41
   18  A    between atoms: N_24  and  C_44
   19  A    between atoms: C_27  and  C_40
   20  A    between atoms: C_33  and  C_51
                            x       y       z     vdW  Elec       q    Type
                         _______ _______ _______ _____ _____    ______ ____

>  <TORSDO>
F 20

$$$$
=
 OpenBabel11072411453D

 53 58  0  0  1  0  0  0  0  0999 V2000
  161.0830  203.7860  148.1630 C   0  0  0  0  0  0  0  0  0  0  0  0
  161.2700  203.6040  146.7030 C   0  0  0  0  0  0  0  0  0  0  0  0
  161.1290  202.3130  146.1800 C   0  0  0  0  0  3  0  0  0  0  0  0
  160.8320  202.5880  148.9180 C   0  0  0  0  0  3  0  0  0  0  0  0
  160.8430  201.2440  146.9900 C   0  0  0  0  0  3  0  0  0  0  0  0
  160.6890  201.3860  148.3050 N   0  0  0  0  0  0  0  0  0  0  0  0
  162.9980  205.0870  146.0590 O   0  0  0  0  0  0  0  0  0  0  0  0
  161.3200  204.7900  144.4580 N   0  0  0  0  0  2  0  0  0  0  0  0
  161.9140  204.4840  145.7400 C   0  0  0  0  0  0  0  0  0  0  0  0
  161.5280  206.0170  143.6780 C   0  0  0  0  0  2  0  0  0  0  0  0
  162.3220  205.6620  142.1130 S   0  0  0  0  0  0  0  0  0  0  0  0
  161.5670  207.2290  141.5460 C   0  0  0  0  0  2  0  0  0  0  0  0
  163.1320  206.8230  139.8570 O   0  0  0  0  0  1  0  0  0  0  0  0
  161.8800  207.3570  140.0900 C   0  0  2  0  0  3  0  0  0  0  0  0
  161.4970  208.6390  139.2980 C   0  0  0  0  0  2  0  0  0  0  0  0
  161.0500  208.5970  137.8790 C   0  0  2  0  0  3  0  0  0  0  0  0
  162.1160  209.0450  137.1340 O   0  0  0  0  0  1  0  0  0  0  0  0
  159.9130  209.5000  137.8120 C   0  0  0  0  0  2  0  0  0  0  0  0
  158.4530  210.9540  139.1760 C   0  0  0  0  0  2  0  0  0  0  0  0
  158.8450  209.4720  138.8620 C   0  0  1  0  0  3  0  0  0  0  0  0
  157.5270  210.0800  138.2850 C   0  0  1  0  0  3  0  0  0  0  0  0
  156.3430  209.6780  139.1660 C   0  0  0  0  0  2  0  0  0  0  0  0
  155.2700  210.8150  139.2600 C   0  0  0  0  0  2  0  0  0  0  0  0
  153.5080  209.0190  139.8650 C   0  0  0  0  0  2  0  0  0  0  0  0
  153.1820  212.3260  140.7070 C   0  0  0  0  0  1  0  0  0  0  0  0
  152.4080  209.8280  140.5440 C   0  0  0  0  0  2  0  0  0  0  0  0
  153.8110  210.2740  138.9860 C   0  0  2  0  0  0  0  0  0  0  0  0
  153.3630  209.9820  137.5540 C   0  0  0  0  0  1  0  0  0  0  0  0
  152.7670  211.1130  139.7870 C   0  0  2  0  0  3  0  0  0  0  0  0
  161.1730  205.0760  148.9280 C   0  0  0  0  0  0  0  0  0  0  0  0
  160.8010  205.0730  150.1850 N   0  0  0  0  0  0  0  0  0  0  0  0
  161.6610  206.3170  148.1000 C   0  0  0  0  0  2  0  0  0  0  0  0
  162.2920  207.4920  148.6420 C   0  0  0  0  0  2  0  0  0  0  0  0
  163.2030  209.8280  148.5500 C   0  0  0  0  0  2  0  0  0  0  0  0
  162.0850  210.7560  148.9060 N   0  0  2  0  0  0  0  0  0  0  0  0
  162.2740  208.8390  147.8450 C   0  0  2  0  0  3  0  0  0  0  0  0
  161.1940  209.8680  148.1330 C   0  0  0  0  0  2  0  0  0  0  0  0
  163.0760  212.2530  147.1970 O   0  0  0  0  0  1  0  0  0  0  0  0
  161.9870  213.1650  149.0130 O   0  0  0  0  0  0  0  0  0  0  0  0
  161.0530  212.9170  148.0490 C   0  0  1  0  0  3  0  0  0  0  0  0
  162.2560  212.0460  148.2820 C   0  0  2  0  0  0  0  0  0  0  0  0
  159.7170  212.8660  148.7270 C   0  0  0  0  0  2  0  0  0  0  0  0
  159.5990  213.9090  149.6610 O   0  0  0  0  0  0  0  0  0  0  0  0
  159.5040  213.1590  150.8670 C   0  0  0  0  0  1  0  0  0  0  0  0
  160.8230  206.1800  151.1080 N   0  0  0  0  0  2  0  0  0  0  0  0
  162.0280  205.9280  153.1320 C   0  0  0  0  0  3  0  0  0  0  0  0
  162.0160  208.2060  151.8090 C   0  0  0  0  0  3  0  0  0  0  0  0
  159.4950  207.3590  155.8730 Cl  0  0  0  0  0  0  0  0  0  0  0  0
  160.4850  207.4210  154.4270 C   0  0  0  0  0  0  0  0  0  0  0  0
  161.9900  206.6560  151.8030 C   0  0  2  0  0  3  0  0  0  0  0  0
  161.3090  206.1810  154.2180 C   0  0  0  0  0  3  0  0  0  0  0  0
  161.3350  209.0150  152.6130 C   0  0  0  0  0  3  0  0  0  0  0  0
  160.5310  208.5750  153.7700 C   0  0  0  0  0  3  0  0  0  0  0  0
  1  4  1  0  0  0  0
  1 30  1  0  0  0  0
  2  1  2  0  0  0  0
  3  2  1  0  0  0  0
  3  5  2  0  0  0  0
  5  6  1  0  0  0  0
  6  4  2  0  0  0  0
  8  9  1  0  0  0  0
  9  7  2  0  0  0  0
  9  2  1  0  0  0  0
 10  8  1  0  0  0  0
 11 10  1  0  0  0  0
 12 11  1  0  0  0  0
 14 13  1  1  0  0  0
 14 12  1  0  0  0  0
 15 14  1  0  0  0  0
 16 17  1  6  0  0  0
 16 15  1  0  0  0  0
 18 16  1  0  0  0  0
 20 18  1  6  0  0  0
 20 19  1  0  0  0  0
 21 20  1  0  0  0  0
 21 22  1  1  0  0  0
 21 19  1  0  0  0  0
 22 23  1  0  0  0  0
 24 26  1  0  0  0  0
 27 28  1  6  0  0  0
 27 23  1  0  0  0  0
 27 29  1  0  0  0  0
 27 24  1  0  0  0  0
 29 26  1  0  0  0  0
 29 25  1  1  0  0  0
 30 31  2  0  0  0  0
 31 45  1  0  0  0  0
 32 33  1  0  0  0  0
 32 30  1  0  0  0  0
 34 35  1  0  0  0  0
 35 37  1  6  0  0  0
 36 37  1  0  0  0  0
 36 34  1  0  0  0  0
 36 33  1  1  0  0  0
 40 41  1  0  0  0  0
 40 42  1  1  0  0  0
 40 39  1  0  0  0  0
 41 38  1  6  0  0  0
 41 35  1  0  0  0  0
 41 39  1  0  0  0  0
 42 43  1  0  0  0  0
 43 44  1  0  0  0  0
 46 51  2  0  0  0  0
 47 52  2  0  0  0  0
 49 48  1  0  0  0  0
 50 45  1  1  0  0  0
 50 47  1  0  0  0  0
 50 46  1  0  0  0  0
 51 49  1  0  0  0  0
 52 53  1  0  0  0  0
 53 49  2  0  0  0  0
M  END
>  <MODEL>
9

>  <REMARK>
 VINA RESULT:      -2.9      3.488      7.615
  Name = 
  20 active torsions:
  status: ('A' for Active; 'I' for Inactive)
    1  A    between atoms: C_1  and  C_8
    2  A    between atoms: C_2  and  O_10
    3  A    between atoms: C_2  and  C_30
    4  A    between atoms: C_4  and  C_46
    5  A    between atoms: C_6  and  C_11
    6  A    between atoms: C_6  and  C_40
    7  A    between atoms: C_7  and  C_20
    8  A    between atoms: C_7  and  C_37
    9  A    between atoms: C_8  and  C_21
   10  A    between atoms: C_11  and  C_22
   11  A    between atoms: S_12  and  C_23
   12  A    between atoms: S_12  and  C_27
   13  A    between atoms: N_18  and  C_28
   14  A    between atoms: N_18  and  N_49
   15  A    between atoms: C_20  and  C_50
   16  A    between atoms: C_22  and  C_42
   17  A    between atoms: C_23  and  N_41
   18  A    between atoms: N_24  and  C_44
   19  A    between atoms: C_27  and  C_40
   20  A    between atoms: C_33  and  C_51
                            x       y       z     vdW  Elec       q    Type
                         _______ _______ _______ _____ _____    ______ ____

>  <TORSDO>
F 20

$$$$
