=
 OpenBabel11072414353D

 36 38  0  0  1  0  0  0  0  0999 V2000
  161.6680  208.0740  150.2150 C   0  0  0  0  0  0  0  0  0  0  0  0
  161.7150  206.8860  149.4320 N   0  0  0  0  0  0  0  0  0  0  0  0
  162.0180  211.4040  147.4110 O   0  0  0  0  0  0  0  0  0  0  0  0
  161.7020  210.5760  149.5780 N   0  0  0  0  0  2  0  0  0  0  0  0
  161.7500  207.3010  148.2030 C   0  0  0  0  0  0  0  0  0  0  0  0
  161.6480  208.1070  151.5660 C   0  0  0  0  0  0  0  0  0  0  0  0
  161.8170  211.6400  148.6300 C   0  0  0  0  0  0  0  0  0  0  0  0
  161.7290  208.7210  148.0540 N   0  0  0  0  0  0  0  0  0  0  0  0
  161.6780  209.1810  149.2580 C   0  0  0  0  0  0  0  0  0  0  0  0
  161.4760  209.3790  152.2970 C   0  0  0  0  0  0  0  0  0  0  0  0
  162.4870  210.0370  152.6680 O   0  0  0  0  0  0  0  0  0  0  0  0
  160.1900  209.8740  152.5210 O   0  0  0  0  0  0  0  0  0  0  0  0
  159.9570  211.0080  153.3430 C   0  0  0  0  0  1  0  0  0  0  0  0
  162.7980  206.1200  152.1960 O   0  0  0  0  0  0  0  0  0  0  0  0
  161.7930  206.8630  152.3690 C   0  0  0  0  0  0  0  0  0  0  0  0
  160.9230  206.8930  154.5810 O   0  0  0  0  0  1  0  0  0  0  0  0
  160.8280  206.4960  153.3070 O   0  0  0  0  0  0  0  0  0  0  0  0
  161.7640  206.3700  147.0310 C   0  0  2  0  0  3  0  0  0  0  0  0
  160.4520  206.0010  146.7150 O   0  0  0  0  0  0  0  0  0  0  0  0
  160.3110  206.3030  145.3590 C   0  0  0  0  0  1  0  0  0  0  0  0
  163.4500  204.8450  146.2350 O   0  0  0  0  0  1  0  0  0  0  0  0
  162.6160  205.1280  147.3200 C   0  0  2  0  0  3  0  0  0  0  0  0
  161.5190  203.0500  145.3970 O   0  0  0  0  0  0  0  0  0  0  0  0
  160.1330  201.6860  149.6630 O   0  0  0  0  0  0  0  0  0  0  0  0
  161.3820  203.5620  148.8380 C   0  0  0  0  0  3  0  0  0  0  0  0
  161.2970  202.9710  146.6330 C   0  0  0  0  0  0  0  0  0  0  0  0
  160.6260  202.3190  148.6940 C   0  0  0  0  0  0  0  0  0  0  0  0
  161.7550  203.9380  147.6230 C   0  0  0  0  0  0  0  0  0  0  0  0
  160.5240  201.8770  147.2750 C   0  0  0  0  0  2  0  0  0  0  0  0
  161.7370  213.0510  149.1010 C   0  0  0  0  0  2  0  0  0  0  0  0
  159.3950  213.5490  148.3620 C   0  0  0  0  0  3  0  0  0  0  0  0
  157.6700  214.1030  149.9700 C   0  0  0  0  0  3  0  0  0  0  0  0
  158.5970  213.9760  151.0080 C   0  0  0  0  0  3  0  0  0  0  0  0
  159.9230  213.6350  150.7250 C   0  0  0  0  0  3  0  0  0  0  0  0
  158.0690  213.8890  148.6460 C   0  0  0  0  0  3  0  0  0  0  0  0
  160.3250  213.4240  149.4010 C   0  0  0  0  0  0  0  0  0  0  0  0
  1  6  2  0  0  0  0
  2  1  1  0  0  0  0
  3  7  2  0  0  0  0
  5  2  2  0  0  0  0
  6 10  1  0  0  0  0
  6 15  1  0  0  0  0
  7 30  1  0  0  0  0
  7  4  1  0  0  0  0
  8  5  1  0  0  0  0
  8  9  2  0  0  0  0
  9  4  1  0  0  0  0
  9  1  1  0  0  0  0
 10 12  1  0  0  0  0
 10 11  2  0  0  0  0
 12 13  1  0  0  0  0
 14 15  2  0  0  0  0
 15 17  1  0  0  0  0
 17 16  1  0  0  0  0
 18 19  1  1  0  0  0
 18 22  1  0  0  0  0
 18  5  1  0  0  0  0
 20 19  1  0  0  0  0
 22 21  1  6  0  0  0
 22 28  1  0  0  0  0
 23 26  2  0  0  0  0
 26 29  1  0  0  0  0
 26 28  1  0  0  0  0
 27 25  1  0  0  0  0
 27 24  2  0  0  0  0
 28 25  2  0  0  0  0
 29 27  1  0  0  0  0
 30 36  1  0  0  0  0
 31 35  2  0  0  0  0
 31 36  1  0  0  0  0
 32 33  2  0  0  0  0
 34 33  1  0  0  0  0
 35 32  1  0  0  0  0
 36 34  2  0  0  0  0
M  END
>  <MODEL>
1

>  <REMARK>
 VINA RESULT:      -7.5      0.000      0.000
  Name = 
  10 active torsions:
  status: ('A' for Active; 'I' for Inactive)
    1  A    between atoms: C_3  and  O_8
    2  A    between atoms: C_3  and  C_25
    3  A    between atoms: O_11  and  C_15
    4  A    between atoms: C_15  and  C_22
    5  A    between atoms: C_15  and  C_30
    6  A    between atoms: C_20  and  C_29
    7  A    between atoms: C_20  and  C_32
    8  A    between atoms: C_25  and  C_35
    9  A    between atoms: O_27  and  C_35
   10  A    between atoms: C_28  and  C_30
                            x       y       z     vdW  Elec       q    Type
                         _______ _______ _______ _____ _____    ______ ____

>  <TORSDO>
F 10

$$$$
=
 OpenBabel11072414353D

 36 38  0  0  1  0  0  0  0  0999 V2000
  161.4820  208.3940  151.1600 C   0  0  0  0  0  0  0  0  0  0  0  0
  161.6940  207.0970  150.6160 N   0  0  0  0  0  0  0  0  0  0  0  0
  162.3530  211.2270  147.9530 O   0  0  0  0  0  0  0  0  0  0  0  0
  161.6200  210.7560  150.1260 N   0  0  0  0  0  2  0  0  0  0  0  0
  161.9690  207.3040  149.3640 C   0  0  0  0  0  0  0  0  0  0  0  0
  161.1930  208.6490  152.4560 C   0  0  0  0  0  0  0  0  0  0  0  0
  161.9110  211.6530  149.0510 C   0  0  0  0  0  0  0  0  0  0  0  0
  161.9650  208.6780  148.9740 N   0  0  0  0  0  0  0  0  0  0  0  0
  161.6720  209.3270  150.0500 C   0  0  0  0  0  0  0  0  0  0  0  0
  160.8680  210.0160  152.9120 C   0  0  0  0  0  0  0  0  0  0  0  0
  159.7170  210.4940  152.7100 O   0  0  0  0  0  0  0  0  0  0  0  0
  161.8230  210.7490  153.6190 O   0  0  0  0  0  0  0  0  0  0  0  0
  161.8220  210.8090  155.0370 C   0  0  0  0  0  1  0  0  0  0  0  0
  160.4920  207.6880  154.5180 O   0  0  0  0  0  0  0  0  0  0  0  0
  161.1870  207.5620  153.4720 C   0  0  0  0  0  0  0  0  0  0  0  0
  161.3960  205.1950  153.4330 O   0  0  0  0  0  1  0  0  0  0  0  0
  161.9470  206.4070  153.2940 O   0  0  0  0  0  0  0  0  0  0  0  0
  162.2240  206.1930  148.3930 C   0  0  2  0  0  3  0  0  0  0  0  0
  162.7310  206.7250  147.2020 O   0  0  0  0  0  0  0  0  0  0  0  0
  162.3530  205.8140  146.2140 C   0  0  0  0  0  1  0  0  0  0  0  0
  159.8160  206.1600  148.4140 O   0  0  0  0  0  1  0  0  0  0  0  0
  160.9460  205.3910  148.1220 C   0  0  2  0  0  3  0  0  0  0  0  0
  161.1180  202.5250  147.1350 O   0  0  0  0  0  0  0  0  0  0  0  0
  160.9450  202.2460  151.8110 O   0  0  0  0  0  0  0  0  0  0  0  0
  160.8800  204.0660  150.2480 C   0  0  0  0  0  3  0  0  0  0  0  0
  161.0370  202.7830  148.3640 C   0  0  0  0  0  0  0  0  0  0  0  0
  160.9490  202.6540  150.6210 C   0  0  0  0  0  0  0  0  0  0  0  0
  160.9190  204.1240  148.9240 C   0  0  0  0  0  0  0  0  0  0  0  0
  161.0460  201.7570  149.4360 C   0  0  0  0  0  2  0  0  0  0  0  0
  161.7270  213.1170  149.2510 C   0  0  0  0  0  2  0  0  0  0  0  0
  159.7820  213.7660  150.6920 C   0  0  0  0  0  3  0  0  0  0  0  0
  157.5760  214.0810  149.7430 C   0  0  0  0  0  3  0  0  0  0  0  0
  158.0760  213.7640  148.4760 C   0  0  0  0  0  3  0  0  0  0  0  0
  159.4280  213.4480  148.3160 C   0  0  0  0  0  3  0  0  0  0  0  0
  158.4290  214.0820  150.8510 C   0  0  0  0  0  3  0  0  0  0  0  0
  160.2830  213.4450  149.4250 C   0  0  0  0  0  0  0  0  0  0  0  0
  1  6  2  0  0  0  0
  2  1  1  0  0  0  0
  3  7  2  0  0  0  0
  5  2  2  0  0  0  0
  6 10  1  0  0  0  0
  6 15  1  0  0  0  0
  7 30  1  0  0  0  0
  7  4  1  0  0  0  0
  8  5  1  0  0  0  0
  8  9  2  0  0  0  0
  9  4  1  0  0  0  0
  9  1  1  0  0  0  0
 10 12  1  0  0  0  0
 11 10  2  0  0  0  0
 12 13  1  0  0  0  0
 15 14  2  0  0  0  0
 17 16  1  0  0  0  0
 17 15  1  0  0  0  0
 18 19  1  6  0  0  0
 18  5  1  0  0  0  0
 20 19  1  0  0  0  0
 22 18  1  0  0  0  0
 22 21  1  1  0  0  0
 22 28  1  0  0  0  0
 23 26  2  0  0  0  0
 25 27  1  0  0  0  0
 26 28  1  0  0  0  0
 26 29  1  0  0  0  0
 27 24  2  0  0  0  0
 28 25  2  0  0  0  0
 29 27  1  0  0  0  0
 30 36  1  0  0  0  0
 31 35  1  0  0  0  0
 32 35  2  0  0  0  0
 33 32  1  0  0  0  0
 34 33  2  0  0  0  0
 34 36  1  0  0  0  0
 36 31  2  0  0  0  0
M  END
>  <MODEL>
2

>  <REMARK>
 VINA RESULT:      -7.4      1.227      1.933
  Name = 
  10 active torsions:
  status: ('A' for Active; 'I' for Inactive)
    1  A    between atoms: C_3  and  O_8
    2  A    between atoms: C_3  and  C_25
    3  A    between atoms: O_11  and  C_15
    4  A    between atoms: C_15  and  C_22
    5  A    between atoms: C_15  and  C_30
    6  A    between atoms: C_20  and  C_29
    7  A    between atoms: C_20  and  C_32
    8  A    between atoms: C_25  and  C_35
    9  A    between atoms: O_27  and  C_35
   10  A    between atoms: C_28  and  C_30
                            x       y       z     vdW  Elec       q    Type
                         _______ _______ _______ _____ _____    ______ ____

>  <TORSDO>
F 10

$$$$
=
 OpenBabel11072414353D

 36 38  0  0  1  0  0  0  0  0999 V2000
  161.0740  208.2200  152.7090 C   0  0  0  0  0  0  0  0  0  0  0  0
  160.9350  206.8140  152.5410 N   0  0  0  0  0  0  0  0  0  0  0  0
  162.0880  209.8310  148.7790 O   0  0  0  0  0  0  0  0  0  0  0  0
  161.5670  210.1290  151.0410 N   0  0  0  0  0  2  0  0  0  0  0  0
  161.0790  206.6170  151.2660 C   0  0  0  0  0  0  0  0  0  0  0  0
  161.0200  208.8630  153.8970 C   0  0  0  0  0  0  0  0  0  0  0  0
  161.8960  210.6200  149.7400 C   0  0  0  0  0  0  0  0  0  0  0  0
  161.3130  207.8030  150.5040 N   0  0  0  0  0  0  0  0  0  0  0  0
  161.3080  208.7590  151.3700 C   0  0  0  0  0  0  0  0  0  0  0  0
  161.0530  210.3380  153.9690 C   0  0  0  0  0  0  0  0  0  0  0  0
  162.1340  210.9350  154.2320 O   0  0  0  0  0  0  0  0  0  0  0  0
  159.8950  211.0660  153.6870 O   0  0  0  0  0  0  0  0  0  0  0  0
  158.7930  211.0970  154.5810 C   0  0  0  0  0  1  0  0  0  0  0  0
  161.9030  208.0890  155.9670 O   0  0  0  0  0  0  0  0  0  0  0  0
  160.9200  208.1120  155.1760 C   0  0  0  0  0  0  0  0  0  0  0  0
  159.6210  206.8570  156.7210 O   0  0  0  0  0  1  0  0  0  0  0  0
  159.7580  207.4200  155.5150 O   0  0  0  0  0  0  0  0  0  0  0  0
  160.9640  205.2650  150.6330 C   0  0  2  0  0  3  0  0  0  0  0  0
  161.9160  204.4070  151.1940 O   0  0  0  0  0  0  0  0  0  0  0  0
  161.2140  203.6700  152.1510 C   0  0  0  0  0  1  0  0  0  0  0  0
  160.1550  206.1560  148.5470 O   0  0  0  0  0  1  0  0  0  0  0  0
  161.1440  205.3480  149.1130 C   0  0  2  0  0  3  0  0  0  0  0  0
  161.8370  204.5570  146.2650 O   0  0  0  0  0  0  0  0  0  0  0  0
  160.7810  200.5560  148.4680 O   0  0  0  0  0  0  0  0  0  0  0  0
  160.8160  202.8640  149.1300 C   0  0  0  0  0  3  0  0  0  0  0  0
  161.4870  203.6930  147.1100 C   0  0  0  0  0  0  0  0  0  0  0  0
  160.9720  201.7650  148.1770 C   0  0  0  0  0  0  0  0  0  0  0  0
  161.1070  203.9850  148.4870 C   0  0  0  0  0  0  0  0  0  0  0  0
  161.4030  202.2370  146.8320 C   0  0  0  0  0  2  0  0  0  0  0  0
  162.0520  212.0860  149.5290 C   0  0  0  0  0  2  0  0  0  0  0  0
  160.4540  212.4060  147.6250 C   0  0  0  0  0  3  0  0  0  0  0  0
  161.2330  213.1390  145.4510 C   0  0  0  0  0  3  0  0  0  0  0  0
  162.5440  213.1810  145.9360 C   0  0  0  0  0  3  0  0  0  0  0  0
  162.8110  212.8360  147.2640 C   0  0  0  0  0  3  0  0  0  0  0  0
  160.1880  212.7520  146.2960 C   0  0  0  0  0  3  0  0  0  0  0  0
  161.7670  212.4440  148.1090 C   0  0  0  0  0  0  0  0  0  0  0  0
  1  6  2  0  0  0  0
  2  1  1  0  0  0  0
  3  7  2  0  0  0  0
  4  9  1  0  0  0  0
  5  2  2  0  0  0  0
  6 10  1  0  0  0  0
  6 15  1  0  0  0  0
  7  4  1  0  0  0  0
  8  5  1  0  0  0  0
  8  9  2  0  0  0  0
  9  1  1  0  0  0  0
 10 11  2  0  0  0  0
 12 10  1  0  0  0  0
 12 13  1  0  0  0  0
 15 17  1  0  0  0  0
 15 14  2  0  0  0  0
 17 16  1  0  0  0  0
 18 19  1  1  0  0  0
 18  5  1  0  0  0  0
 19 20  1  0  0  0  0
 22 21  1  6  0  0  0
 22 18  1  0  0  0  0
 23 26  2  0  0  0  0
 26 28  1  0  0  0  0
 27 24  2  0  0  0  0
 27 25  1  0  0  0  0
 28 22  1  0  0  0  0
 28 25  2  0  0  0  0
 29 26  1  0  0  0  0
 29 27  1  0  0  0  0
 30  7  1  0  0  0  0
 31 36  1  0  0  0  0
 32 33  2  0  0  0  0
 32 35  1  0  0  0  0
 33 34  1  0  0  0  0
 34 36  2  0  0  0  0
 35 31  2  0  0  0  0
 36 30  1  0  0  0  0
M  END
>  <MODEL>
3

>  <REMARK>
 VINA RESULT:      -7.2      2.021      3.138
  Name = 
  10 active torsions:
  status: ('A' for Active; 'I' for Inactive)
    1  A    between atoms: C_3  and  O_8
    2  A    between atoms: C_3  and  C_25
    3  A    between atoms: O_11  and  C_15
    4  A    between atoms: C_15  and  C_22
    5  A    between atoms: C_15  and  C_30
    6  A    between atoms: C_20  and  C_29
    7  A    between atoms: C_20  and  C_32
    8  A    between atoms: C_25  and  C_35
    9  A    between atoms: O_27  and  C_35
   10  A    between atoms: C_28  and  C_30
                            x       y       z     vdW  Elec       q    Type
                         _______ _______ _______ _____ _____    ______ ____

>  <TORSDO>
F 10

$$$$
=
 OpenBabel11072414353D

 36 38  0  0  1  0  0  0  0  0999 V2000
  161.4720  209.0330  151.2710 C   0  0  0  0  0  0  0  0  0  0  0  0
  161.7910  208.5490  149.9720 N   0  0  0  0  0  0  0  0  0  0  0  0
  160.7710  205.5080  153.7530 O   0  0  0  0  0  0  0  0  0  0  0  0
  160.9720  207.8270  153.5000 N   0  0  0  0  0  2  0  0  0  0  0  0
  161.8270  207.2570  150.0990 C   0  0  0  0  0  0  0  0  0  0  0  0
  161.3060  210.3350  151.5900 C   0  0  0  0  0  0  0  0  0  0  0  0
  160.7520  206.6500  154.2810 C   0  0  0  0  0  0  0  0  0  0  0  0
  161.5550  206.7820  151.4180 N   0  0  0  0  0  0  0  0  0  0  0  0
  161.3440  207.8460  152.1170 C   0  0  0  0  0  0  0  0  0  0  0  0
  161.0950  210.7600  152.9890 C   0  0  0  0  0  0  0  0  0  0  0  0
  162.0740  210.8260  153.7840 O   0  0  0  0  0  0  0  0  0  0  0  0
  159.8190  211.1410  153.4070 O   0  0  0  0  0  0  0  0  0  0  0  0
  159.5240  212.4750  153.7890 C   0  0  0  0  0  1  0  0  0  0  0  0
  160.4760  212.3200  150.5690 O   0  0  0  0  0  0  0  0  0  0  0  0
  161.3330  211.3940  150.5450 C   0  0  0  0  0  0  0  0  0  0  0  0
  161.9160  211.3740  148.2400 O   0  0  0  0  0  1  0  0  0  0  0  0
  162.2860  211.3750  149.5270 O   0  0  0  0  0  0  0  0  0  0  0  0
  162.1740  206.3380  148.9690 C   0  0  2  0  0  3  0  0  0  0  0  0
  162.8060  207.0670  147.9550 O   0  0  0  0  0  0  0  0  0  0  0  0
  162.2640  206.5730  146.7670 C   0  0  0  0  0  1  0  0  0  0  0  0
  159.7690  206.2200  148.9460 O   0  0  0  0  0  1  0  0  0  0  0  0
  160.9250  205.6340  148.4250 C   0  0  2  0  0  3  0  0  0  0  0  0
  161.3800  203.2900  146.5500 O   0  0  0  0  0  0  0  0  0  0  0  0
  160.9230  201.4220  150.8250 O   0  0  0  0  0  0  0  0  0  0  0  0
  160.8220  203.6610  149.9660 C   0  0  0  0  0  3  0  0  0  0  0  0
  161.2000  203.1090  147.7820 C   0  0  0  0  0  0  0  0  0  0  0  0
  160.9740  202.2120  149.8460 C   0  0  0  0  0  0  0  0  0  0  0  0
  160.9430  204.1700  148.7480 C   0  0  0  0  0  0  0  0  0  0  0  0
  161.2170  201.7800  148.4420 C   0  0  0  0  0  2  0  0  0  0  0  0
  160.4570  206.7820  155.7350 C   0  0  0  0  0  2  0  0  0  0  0  0
  159.8400  209.1540  156.2580 C   0  0  0  0  0  3  0  0  0  0  0  0
  161.4760  210.7020  157.1500 C   0  0  0  0  0  3  0  0  0  0  0  0
  162.4460  209.6960  157.1150 C   0  0  0  0  0  3  0  0  0  0  0  0
  162.1150  208.4190  156.6510 C   0  0  0  0  0  3  0  0  0  0  0  0
  160.1720  210.4310  156.7230 C   0  0  0  0  0  3  0  0  0  0  0  0
  160.8110  208.1480  156.2190 C   0  0  0  0  0  0  0  0  0  0  0  0
  1  6  2  0  0  0  0
  1  9  1  0  0  0  0
  2  5  2  0  0  0  0
  2  1  1  0  0  0  0
  3  7  2  0  0  0  0
  4  7  1  0  0  0  0
  5  8  1  0  0  0  0
  6 10  1  0  0  0  0
  7 30  1  0  0  0  0
  8  9  2  0  0  0  0
  9  4  1  0  0  0  0
 10 12  1  0  0  0  0
 10 11  2  0  0  0  0
 12 13  1  0  0  0  0
 15 14  2  0  0  0  0
 15  6  1  0  0  0  0
 16 17  1  0  0  0  0
 17 15  1  0  0  0  0
 18 19  1  6  0  0  0
 18  5  1  0  0  0  0
 20 19  1  0  0  0  0
 22 28  1  0  0  0  0
 22 21  1  1  0  0  0
 22 18  1  0  0  0  0
 23 26  2  0  0  0  0
 26 29  1  0  0  0  0
 26 28  1  0  0  0  0
 27 25  1  0  0  0  0
 27 24  2  0  0  0  0
 28 25  2  0  0  0  0
 29 27  1  0  0  0  0
 30 36  1  0  0  0  0
 31 35  1  0  0  0  0
 33 32  1  0  0  0  0
 34 33  2  0  0  0  0
 35 32  2  0  0  0  0
 36 31  2  0  0  0  0
 36 34  1  0  0  0  0
M  END
>  <MODEL>
4

>  <REMARK>
 VINA RESULT:      -6.9      2.377      5.200
  Name = 
  10 active torsions:
  status: ('A' for Active; 'I' for Inactive)
    1  A    between atoms: C_3  and  O_8
    2  A    between atoms: C_3  and  C_25
    3  A    between atoms: O_11  and  C_15
    4  A    between atoms: C_15  and  C_22
    5  A    between atoms: C_15  and  C_30
    6  A    between atoms: C_20  and  C_29
    7  A    between atoms: C_20  and  C_32
    8  A    between atoms: C_25  and  C_35
    9  A    between atoms: O_27  and  C_35
   10  A    between atoms: C_28  and  C_30
                            x       y       z     vdW  Elec       q    Type
                         _______ _______ _______ _____ _____    ______ ____

>  <TORSDO>
F 10

$$$$
=
 OpenBabel11072414353D

 36 38  0  0  1  0  0  0  0  0999 V2000
  161.8310  208.6920  149.8650 C   0  0  0  0  0  0  0  0  0  0  0  0
  161.8670  208.3130  148.4950 N   0  0  0  0  0  0  0  0  0  0  0  0
  160.9790  205.0500  152.1200 O   0  0  0  0  0  0  0  0  0  0  0  0
  161.4990  207.3310  152.0350 N   0  0  0  0  0  2  0  0  0  0  0  0
  161.7210  207.0240  148.5030 C   0  0  0  0  0  0  0  0  0  0  0  0
  161.9220  209.9630  150.3180 C   0  0  0  0  0  0  0  0  0  0  0  0
  161.2210  206.1180  152.7390 C   0  0  0  0  0  0  0  0  0  0  0  0
  161.5840  206.4500  149.8040 N   0  0  0  0  0  0  0  0  0  0  0  0
  161.6520  207.4490  150.6160 C   0  0  0  0  0  0  0  0  0  0  0  0
  161.9980  210.2560  151.7630 C   0  0  0  0  0  0  0  0  0  0  0  0
  163.1210  210.3270  152.3360 O   0  0  0  0  0  0  0  0  0  0  0  0
  160.8250  210.5110  152.4760 O   0  0  0  0  0  0  0  0  0  0  0  0
  160.3140  211.8260  152.6310 C   0  0  0  0  0  1  0  0  0  0  0  0
  161.1890  212.1010  149.5700 O   0  0  0  0  0  0  0  0  0  0  0  0
  161.9530  211.1140  149.3770 C   0  0  0  0  0  0  0  0  0  0  0  0
  163.4110  212.2460  147.8800 O   0  0  0  0  0  1  0  0  0  0  0  0
  162.8060  211.1200  148.2740 O   0  0  0  0  0  0  0  0  0  0  0  0
  161.7420  206.1950  147.2560 C   0  0  2  0  0  3  0  0  0  0  0  0
  160.4290  205.8900  146.8800 O   0  0  0  0  0  0  0  0  0  0  0  0
  160.3400  206.2810  145.5420 C   0  0  0  0  0  1  0  0  0  0  0  0
  163.4190  204.7060  146.3800 O   0  0  0  0  0  1  0  0  0  0  0  0
  162.5550  204.9110  147.4590 C   0  0  2  0  0  3  0  0  0  0  0  0
  161.4680  203.0510  145.3190 O   0  0  0  0  0  0  0  0  0  0  0  0
  159.9230  201.3300  149.3960 O   0  0  0  0  0  0  0  0  0  0  0  0
  161.2390  203.2430  148.7870 C   0  0  0  0  0  3  0  0  0  0  0  0
  161.2070  202.8620  146.5350 C   0  0  0  0  0  0  0  0  0  0  0  0
  160.4590  202.0390  148.5050 C   0  0  0  0  0  0  0  0  0  0  0  0
  161.6580  203.7210  147.6240 C   0  0  0  0  0  0  0  0  0  0  0  0
  160.3900  201.7350  147.0500 C   0  0  0  0  0  2  0  0  0  0  0  0
  161.1760  206.1310  154.2280 C   0  0  0  0  0  2  0  0  0  0  0  0
  159.5730  207.9320  154.9110 C   0  0  0  0  0  3  0  0  0  0  0  0
  160.3710  210.0790  155.7000 C   0  0  0  0  0  3  0  0  0  0  0  0
  161.6910  209.6530  155.5240 C   0  0  0  0  0  3  0  0  0  0  0  0
  161.9530  208.3670  155.0420 C   0  0  0  0  0  3  0  0  0  0  0  0
  159.3120  209.2180  155.3940 C   0  0  0  0  0  3  0  0  0  0  0  0
  160.8950  207.5060  154.7320 C   0  0  0  0  0  0  0  0  0  0  0  0
  1  6  2  0  0  0  0
  1  9  1  0  0  0  0
  2  5  2  0  0  0  0
  2  1  1  0  0  0  0
  3  7  2  0  0  0  0
  4  7  1  0  0  0  0
  5  8  1  0  0  0  0
  6 10  1  0  0  0  0
  7 30  1  0  0  0  0
  8  9  2  0  0  0  0
  9  4  1  0  0  0  0
 10 11  2  0  0  0  0
 10 12  1  0  0  0  0
 12 13  1  0  0  0  0
 15 14  2  0  0  0  0
 15  6  1  0  0  0  0
 16 17  1  0  0  0  0
 17 15  1  0  0  0  0
 18 19  1  1  0  0  0
 18 22  1  0  0  0  0
 18  5  1  0  0  0  0
 20 19  1  0  0  0  0
 22 21  1  6  0  0  0
 22 28  1  0  0  0  0
 23 26  2  0  0  0  0
 26 29  1  0  0  0  0
 26 28  1  0  0  0  0
 27 25  1  0  0  0  0
 27 24  2  0  0  0  0
 28 25  2  0  0  0  0
 29 27  1  0  0  0  0
 30 36  1  0  0  0  0
 31 35  1  0  0  0  0
 33 32  1  0  0  0  0
 34 33  2  0  0  0  0
 35 32  2  0  0  0  0
 36 31  2  0  0  0  0
 36 34  1  0  0  0  0
M  END
>  <MODEL>
5

>  <REMARK>
 VINA RESULT:      -6.8      1.831      4.698
  Name = 
  10 active torsions:
  status: ('A' for Active; 'I' for Inactive)
    1  A    between atoms: C_3  and  O_8
    2  A    between atoms: C_3  and  C_25
    3  A    between atoms: O_11  and  C_15
    4  A    between atoms: C_15  and  C_22
    5  A    between atoms: C_15  and  C_30
    6  A    between atoms: C_20  and  C_29
    7  A    between atoms: C_20  and  C_32
    8  A    between atoms: C_25  and  C_35
    9  A    between atoms: O_27  and  C_35
   10  A    between atoms: C_28  and  C_30
                            x       y       z     vdW  Elec       q    Type
                         _______ _______ _______ _____ _____    ______ ____

>  <TORSDO>
F 10

$$$$
=
 OpenBabel11072414353D

 36 38  0  0  1  0  0  0  0  0999 V2000
  161.1390  207.9100  151.7320 C   0  0  0  0  0  0  0  0  0  0  0  0
  161.0960  206.5580  151.2930 N   0  0  0  0  0  0  0  0  0  0  0  0
  162.2850  210.2920  148.2560 O   0  0  0  0  0  0  0  0  0  0  0  0
  161.6130  210.1250  150.4920 N   0  0  0  0  0  2  0  0  0  0  0  0
  161.3270  206.6170  150.0170 C   0  0  0  0  0  0  0  0  0  0  0  0
  160.9760  208.3110  153.0130 C   0  0  0  0  0  0  0  0  0  0  0  0
  161.9880  210.8720  149.3320 C   0  0  0  0  0  0  0  0  0  0  0  0
  161.5330  207.9360  149.5100 N   0  0  0  0  0  0  0  0  0  0  0  0
  161.4180  208.7070  150.5380 C   0  0  0  0  0  0  0  0  0  0  0  0
  160.9150  209.7440  153.3640 C   0  0  0  0  0  0  0  0  0  0  0  0
  159.8570  210.4020  153.1580 O   0  0  0  0  0  0  0  0  0  0  0  0
  162.0140  210.3490  153.9760 O   0  0  0  0  0  0  0  0  0  0  0  0
  161.9330  210.9010  155.2820 C   0  0  0  0  0  1  0  0  0  0  0  0
  161.1280  206.1110  153.9110 O   0  0  0  0  0  0  0  0  0  0  0  0
  160.8460  207.3240  154.1180 C   0  0  0  0  0  0  0  0  0  0  0  0
  159.5650  206.9440  156.0840 O   0  0  0  0  0  1  0  0  0  0  0  0
  160.4060  207.7140  155.3820 O   0  0  0  0  0  0  0  0  0  0  0  0
  161.3320  205.4070  149.1350 C   0  0  2  0  0  3  0  0  0  0  0  0
  160.5050  205.6350  148.0290 O   0  0  0  0  0  0  0  0  0  0  0  0
  161.3600  206.1190  147.0370 C   0  0  0  0  0  1  0  0  0  0  0  0
  161.6440  203.9840  151.0530 O   0  0  0  0  0  1  0  0  0  0  0  0
  160.8720  204.1610  149.9010 C   0  0  2  0  0  3  0  0  0  0  0  0
  161.1140  201.2610  150.7660 O   0  0  0  0  0  0  0  0  0  0  0  0
  160.8330  201.1690  146.0870 O   0  0  0  0  0  0  0  0  0  0  0  0
  160.8610  202.9280  147.7200 C   0  0  0  0  0  3  0  0  0  0  0  0
  161.0390  201.5700  149.5480 C   0  0  0  0  0  0  0  0  0  0  0  0
  160.9080  201.5310  147.2900 C   0  0  0  0  0  0  0  0  0  0  0  0
  160.9520  202.9350  149.0420 C   0  0  0  0  0  0  0  0  0  0  0  0
  161.0310  200.5880  148.4350 C   0  0  0  0  0  2  0  0  0  0  0  0
  162.0670  212.3570  149.4130 C   0  0  0  0  0  2  0  0  0  0  0  0
  160.2680  213.0520  147.8130 C   0  0  0  0  0  3  0  0  0  0  0  0
  158.2290  214.0960  148.6030 C   0  0  0  0  0  3  0  0  0  0  0  0
  158.6950  214.0090  149.9180 C   0  0  0  0  0  3  0  0  0  0  0  0
  159.9470  213.4450  150.1820 C   0  0  0  0  0  3  0  0  0  0  0  0
  159.0150  213.6170  147.5500 C   0  0  0  0  0  3  0  0  0  0  0  0
  160.7360  212.9680  149.1290 C   0  0  0  0  0  0  0  0  0  0  0  0
  1  6  2  0  0  0  0
  2  1  1  0  0  0  0
  3  7  2  0  0  0  0
  4  9  1  0  0  0  0
  5  2  2  0  0  0  0
  6 10  1  0  0  0  0
  6 15  1  0  0  0  0
  7 30  1  0  0  0  0
  7  4  1  0  0  0  0
  8  5  1  0  0  0  0
  8  9  2  0  0  0  0
  9  1  1  0  0  0  0
 10 12  1  0  0  0  0
 11 10  2  0  0  0  0
 12 13  1  0  0  0  0
 14 15  2  0  0  0  0
 15 17  1  0  0  0  0
 17 16  1  0  0  0  0
 18 19  1  6  0  0  0
 18 22  1  0  0  0  0
 18  5  1  0  0  0  0
 20 19  1  0  0  0  0
 22 21  1  1  0  0  0
 24 27  2  0  0  0  0
 25 28  2  0  0  0  0
 26 23  2  0  0  0  0
 27 25  1  0  0  0  0
 27 29  1  0  0  0  0
 28 26  1  0  0  0  0
 28 22  1  0  0  0  0
 29 26  1  0  0  0  0
 31 36  1  0  0  0  0
 32 33  2  0  0  0  0
 33 34  1  0  0  0  0
 35 31  2  0  0  0  0
 35 32  1  0  0  0  0
 36 30  1  0  0  0  0
 36 34  2  0  0  0  0
M  END
>  <MODEL>
6

>  <REMARK>
 VINA RESULT:      -6.2      1.394      2.294
  Name = 
  10 active torsions:
  status: ('A' for Active; 'I' for Inactive)
    1  A    between atoms: C_3  and  O_8
    2  A    between atoms: C_3  and  C_25
    3  A    between atoms: O_11  and  C_15
    4  A    between atoms: C_15  and  C_22
    5  A    between atoms: C_15  and  C_30
    6  A    between atoms: C_20  and  C_29
    7  A    between atoms: C_20  and  C_32
    8  A    between atoms: C_25  and  C_35
    9  A    between atoms: O_27  and  C_35
   10  A    between atoms: C_28  and  C_30
                            x       y       z     vdW  Elec       q    Type
                         _______ _______ _______ _____ _____    ______ ____

>  <TORSDO>
F 10

$$$$
=
 OpenBabel11072414353D

 36 38  0  0  1  0  0  0  0  0999 V2000
  161.5440  207.7030  150.9360 C   0  0  0  0  0  0  0  0  0  0  0  0
  161.3780  207.5420  152.3390 N   0  0  0  0  0  0  0  0  0  0  0  0
  161.6060  212.0060  150.1930 O   0  0  0  0  0  0  0  0  0  0  0  0
  161.7960  209.7960  149.4440 N   0  0  0  0  0  2  0  0  0  0  0  0
  161.4070  208.7490  152.8160 C   0  0  0  0  0  0  0  0  0  0  0  0
  161.5470  206.6920  150.0380 C   0  0  0  0  0  0  0  0  0  0  0  0
  161.8140  211.2110  149.2410 C   0  0  0  0  0  0  0  0  0  0  0  0
  161.5870  209.7720  151.8360 N   0  0  0  0  0  0  0  0  0  0  0  0
  161.6700  209.1430  150.7120 C   0  0  0  0  0  0  0  0  0  0  0  0
  161.8470  206.9350  148.6130 C   0  0  0  0  0  0  0  0  0  0  0  0
  163.0440  207.0640  148.2310 O   0  0  0  0  0  0  0  0  0  0  0  0
  160.8040  206.9630  147.6860 O   0  0  0  0  0  0  0  0  0  0  0  0
  160.8410  206.1960  146.4920 C   0  0  0  0  0  1  0  0  0  0  0  0
  161.8080  204.8160  151.4810 O   0  0  0  0  0  0  0  0  0  0  0  0
  161.2530  205.2940  150.4520 C   0  0  0  0  0  0  0  0  0  0  0  0
  160.8450  203.5150  148.9290 O   0  0  0  0  0  1  0  0  0  0  0  0
  160.3810  204.4940  149.7150 O   0  0  0  0  0  0  0  0  0  0  0  0
  161.3080  209.0470  154.2800 C   0  0  2  0  0  3  0  0  0  0  0  0
  160.1650  208.4330  154.8030 O   0  0  0  0  0  0  0  0  0  0  0  0
  160.6420  207.5750  155.7960 C   0  0  0  0  0  1  0  0  0  0  0  0
  162.1910  210.9080  155.5280 O   0  0  0  0  0  1  0  0  0  0  0  0
  161.2710  210.5590  154.5370 C   0  0  2  0  0  3  0  0  0  0  0  0
  158.8910  211.1780  152.7560 O   0  0  0  0  0  0  0  0  0  0  0  0
  157.3570  211.7180  157.1530 O   0  0  0  0  0  0  0  0  0  0  0  0
  159.4790  211.1450  156.1870 C   0  0  0  0  0  3  0  0  0  0  0  0
  158.8000  211.2550  154.0090 C   0  0  0  0  0  0  0  0  0  0  0  0
  158.0660  211.5190  156.1320 C   0  0  0  0  0  0  0  0  0  0  0  0
  159.8970  211.0070  154.9370 C   0  0  0  0  0  0  0  0  0  0  0  0
  157.5580  211.6170  154.7360 C   0  0  0  0  0  2  0  0  0  0  0  0
  162.0420  211.7500  147.8710 C   0  0  0  0  0  2  0  0  0  0  0  0
  160.1110  212.1230  146.3180 C   0  0  0  0  0  3  0  0  0  0  0  0
  158.6430  214.0310  146.5870 C   0  0  0  0  0  3  0  0  0  0  0  0
  159.3930  214.4520  147.6890 C   0  0  0  0  0  3  0  0  0  0  0  0
  160.5020  213.7100  148.1060 C   0  0  0  0  0  3  0  0  0  0  0  0
  159.0010  212.8660  145.9020 C   0  0  0  0  0  3  0  0  0  0  0  0
  160.8650  212.5460  147.4190 C   0  0  0  0  0  0  0  0  0  0  0  0
  1  2  1  0  0  0  0
  2  5  2  0  0  0  0
  4  9  1  0  0  0  0
  5 18  1  0  0  0  0
  6 15  1  0  0  0  0
  6  1  2  0  0  0  0
  7  4  1  0  0  0  0
  7  3  2  0  0  0  0
  8  5  1  0  0  0  0
  9  1  1  0  0  0  0
  9  8  2  0  0  0  0
 10  6  1  0  0  0  0
 11 10  2  0  0  0  0
 12 10  1  0  0  0  0
 13 12  1  0  0  0  0
 15 14  2  0  0  0  0
 16 17  1  0  0  0  0
 17 15  1  0  0  0  0
 18 22  1  0  0  0  0
 18 19  1  6  0  0  0
 19 20  1  0  0  0  0
 22 28  1  0  0  0  0
 22 21  1  1  0  0  0
 23 26  2  0  0  0  0
 26 29  1  0  0  0  0
 26 28  1  0  0  0  0
 27 25  1  0  0  0  0
 27 24  2  0  0  0  0
 28 25  2  0  0  0  0
 29 27  1  0  0  0  0
 30  7  1  0  0  0  0
 31 36  1  0  0  0  0
 32 33  2  0  0  0  0
 33 34  1  0  0  0  0
 35 31  2  0  0  0  0
 35 32  1  0  0  0  0
 36 30  1  0  0  0  0
 36 34  2  0  0  0  0
M  END
>  <MODEL>
7

>  <REMARK>
 VINA RESULT:      -6.1      2.285      6.954
  Name = 
  10 active torsions:
  status: ('A' for Active; 'I' for Inactive)
    1  A    between atoms: C_3  and  O_8
    2  A    between atoms: C_3  and  C_25
    3  A    between atoms: O_11  and  C_15
    4  A    between atoms: C_15  and  C_22
    5  A    between atoms: C_15  and  C_30
    6  A    between atoms: C_20  and  C_29
    7  A    between atoms: C_20  and  C_32
    8  A    between atoms: C_25  and  C_35
    9  A    between atoms: O_27  and  C_35
   10  A    between atoms: C_28  and  C_30
                            x       y       z     vdW  Elec       q    Type
                         _______ _______ _______ _____ _____    ______ ____

>  <TORSDO>
F 10

$$$$
=
 OpenBabel11072414353D

 36 38  0  0  1  0  0  0  0  0999 V2000
  160.8620  209.1120  153.1090 C   0  0  0  0  0  0  0  0  0  0  0  0
  161.3930  207.8930  152.6020 N   0  0  0  0  0  0  0  0  0  0  0  0
  161.1610  212.0210  149.8650 O   0  0  0  0  0  0  0  0  0  0  0  0
  160.4800  211.4250  152.0240 N   0  0  0  0  0  2  0  0  0  0  0  0
  161.6570  208.1400  151.3560 C   0  0  0  0  0  0  0  0  0  0  0  0
  160.4750  209.3120  154.3880 C   0  0  0  0  0  0  0  0  0  0  0  0
  160.5920  212.3480  150.9380 C   0  0  0  0  0  0  0  0  0  0  0  0
  161.3450  209.4690  150.9340 N   0  0  0  0  0  0  0  0  0  0  0  0
  160.8690  210.0470  151.9840 C   0  0  0  0  0  0  0  0  0  0  0  0
  159.8220  210.5710  154.8020 C   0  0  0  0  0  0  0  0  0  0  0  0
  160.5180  211.5360  155.2250 O   0  0  0  0  0  0  0  0  0  0  0  0
  158.4390  210.7050  154.6650 O   0  0  0  0  0  0  0  0  0  0  0  0
  157.6170  211.1280  155.7420 C   0  0  0  0  0  1  0  0  0  0  0  0
  159.7660  207.4450  155.6850 O   0  0  0  0  0  0  0  0  0  0  0  0
  160.6870  208.2710  155.4290 C   0  0  0  0  0  0  0  0  0  0  0  0
  162.4010  209.2800  156.7300 O   0  0  0  0  0  1  0  0  0  0  0  0
  161.8850  208.1960  156.1380 O   0  0  0  0  0  0  0  0  0  0  0  0
  162.2010  207.1060  150.4200 C   0  0  2  0  0  3  0  0  0  0  0  0
  163.0830  207.7130  149.5190 O   0  0  0  0  0  0  0  0  0  0  0  0
  162.5450  207.4480  148.2570 C   0  0  0  0  0  1  0  0  0  0  0  0
  159.8350  206.9520  149.9970 O   0  0  0  0  0  1  0  0  0  0  0  0
  161.0710  206.3920  149.6670 C   0  0  2  0  0  3  0  0  0  0  0  0
  161.2300  204.0620  147.7270 O   0  0  0  0  0  0  0  0  0  0  0  0
  161.1420  202.1450  152.0050 O   0  0  0  0  0  0  0  0  0  0  0  0
  161.0460  204.4000  151.1870 C   0  0  0  0  0  3  0  0  0  0  0  0
  161.1710  203.8680  148.9690 C   0  0  0  0  0  0  0  0  0  0  0  0
  161.1240  202.9480  151.0360 C   0  0  0  0  0  0  0  0  0  0  0  0
  161.0610  204.9230  149.9700 C   0  0  0  0  0  0  0  0  0  0  0  0
  161.2000  202.5290  149.6090 C   0  0  0  0  0  2  0  0  0  0  0  0
  160.0620  213.7310  151.0970 C   0  0  0  0  0  2  0  0  0  0  0  0
  157.6120  213.9970  151.5520 C   0  0  0  0  0  3  0  0  0  0  0  0
  155.9980  213.9720  149.7450 C   0  0  0  0  0  3  0  0  0  0  0  0
  157.0320  213.7860  148.8240 C   0  0  0  0  0  3  0  0  0  0  0  0
  158.3560  213.7050  149.2640 C   0  0  0  0  0  3  0  0  0  0  0  0
  156.2870  214.0780  151.1090 C   0  0  0  0  0  3  0  0  0  0  0  0
  158.6480  213.8070  150.6300 C   0  0  0  0  0  0  0  0  0  0  0  0
  1  6  2  0  0  0  0
  2  1  1  0  0  0  0
  3  7  2  0  0  0  0
  5  2  2  0  0  0  0
  6 10  1  0  0  0  0
  6 15  1  0  0  0  0
  7 30  1  0  0  0  0
  7  4  1  0  0  0  0
  8  5  1  0  0  0  0
  8  9  2  0  0  0  0
  9  4  1  0  0  0  0
  9  1  1  0  0  0  0
 10 11  2  0  0  0  0
 12 10  1  0  0  0  0
 12 13  1  0  0  0  0
 15 14  2  0  0  0  0
 15 17  1  0  0  0  0
 17 16  1  0  0  0  0
 18 19  1  6  0  0  0
 18  5  1  0  0  0  0
 20 19  1  0  0  0  0
 22 28  1  0  0  0  0
 22 21  1  1  0  0  0
 22 18  1  0  0  0  0
 23 26  2  0  0  0  0
 26 29  1  0  0  0  0
 26 28  1  0  0  0  0
 27 25  1  0  0  0  0
 27 24  2  0  0  0  0
 28 25  2  0  0  0  0
 29 27  1  0  0  0  0
 32 35  2  0  0  0  0
 33 34  2  0  0  0  0
 33 32  1  0  0  0  0
 34 36  1  0  0  0  0
 35 31  1  0  0  0  0
 36 30  1  0  0  0  0
 36 31  2  0  0  0  0
M  END
>  <MODEL>
8

>  <REMARK>
 VINA RESULT:      -6.1      2.164      3.190
  Name = 
  10 active torsions:
  status: ('A' for Active; 'I' for Inactive)
    1  A    between atoms: C_3  and  O_8
    2  A    between atoms: C_3  and  C_25
    3  A    between atoms: O_11  and  C_15
    4  A    between atoms: C_15  and  C_22
    5  A    between atoms: C_15  and  C_30
    6  A    between atoms: C_20  and  C_29
    7  A    between atoms: C_20  and  C_32
    8  A    between atoms: C_25  and  C_35
    9  A    between atoms: O_27  and  C_35
   10  A    between atoms: C_28  and  C_30
                            x       y       z     vdW  Elec       q    Type
                         _______ _______ _______ _____ _____    ______ ____

>  <TORSDO>
F 10

$$$$
=
 OpenBabel11072414353D

 36 38  0  0  1  0  0  0  0  0999 V2000
  161.0580  207.7680  151.9450 C   0  0  0  0  0  0  0  0  0  0  0  0
  160.8300  206.4140  151.5750 N   0  0  0  0  0  0  0  0  0  0  0  0
  162.0540  209.8950  148.2630 O   0  0  0  0  0  0  0  0  0  0  0  0
  161.6170  209.8770  150.5630 N   0  0  0  0  0  2  0  0  0  0  0  0
  160.9260  206.4040  150.2800 C   0  0  0  0  0  0  0  0  0  0  0  0
  161.0770  208.2270  153.2160 C   0  0  0  0  0  0  0  0  0  0  0  0
  161.9370  210.5390  149.3380 C   0  0  0  0  0  0  0  0  0  0  0  0
  161.2080  207.6760  149.6950 N   0  0  0  0  0  0  0  0  0  0  0  0
  161.2850  208.4900  150.6930 C   0  0  0  0  0  0  0  0  0  0  0  0
  161.2000  209.6700  153.5060 C   0  0  0  0  0  0  0  0  0  0  0  0
  162.3330  210.1730  153.7490 O   0  0  0  0  0  0  0  0  0  0  0  0
  160.0660  210.4820  153.4510 O   0  0  0  0  0  0  0  0  0  0  0  0
  160.1580  211.8980  153.4340 C   0  0  0  0  0  1  0  0  0  0  0  0
  161.2010  206.0680  154.2110 O   0  0  0  0  0  0  0  0  0  0  0  0
  160.9690  207.2980  154.3730 C   0  0  0  0  0  0  0  0  0  0  0  0
  159.6640  207.1320  156.3530 O   0  0  0  0  0  1  0  0  0  0  0  0
  160.6020  207.7620  155.6360 O   0  0  0  0  0  0  0  0  0  0  0  0
  160.7120  205.1710  149.4580 C   0  0  2  0  0  3  0  0  0  0  0  0
  160.3680  204.1070  150.2990 O   0  0  0  0  0  0  0  0  0  0  0  0
  161.5810  203.6680  150.8350 C   0  0  0  0  0  1  0  0  0  0  0  0
  162.8040  205.9380  148.5440 O   0  0  0  0  0  1  0  0  0  0  0  0
  161.9620  204.8270  148.6390 C   0  0  2  0  0  3  0  0  0  0  0  0
  161.1730  202.0290  147.7640 O   0  0  0  0  0  0  0  0  0  0  0  0
  160.8330  204.6990  143.9260 O   0  0  0  0  0  0  0  0  0  0  0  0
  161.4960  205.1190  146.1950 C   0  0  0  0  0  3  0  0  0  0  0  0
  161.2000  202.9810  146.9420 C   0  0  0  0  0  0  0  0  0  0  0  0
  161.0420  204.2730  145.0920 C   0  0  0  0  0  0  0  0  0  0  0  0
  161.5960  204.3470  147.2670 C   0  0  0  0  0  0  0  0  0  0  0  0
  160.8360  202.8590  145.5080 C   0  0  0  0  0  2  0  0  0  0  0  0
  162.1750  212.0100  149.3420 C   0  0  0  0  0  2  0  0  0  0  0  0
  160.4220  212.9660  147.8280 C   0  0  0  0  0  3  0  0  0  0  0  0
  160.9860  213.7600  145.6100 C   0  0  0  0  0  3  0  0  0  0  0  0
  162.3220  213.4100  145.8240 C   0  0  0  0  0  3  0  0  0  0  0  0
  162.7090  212.8370  147.0400 C   0  0  0  0  0  3  0  0  0  0  0  0
  160.0360  213.5400  146.6120 C   0  0  0  0  0  3  0  0  0  0  0  0
  161.7580  212.6110  148.0420 C   0  0  0  0  0  0  0  0  0  0  0  0
  1  6  2  0  0  0  0
  2  1  1  0  0  0  0
  3  7  2  0  0  0  0
  4  9  1  0  0  0  0
  5  2  2  0  0  0  0
  6 10  1  0  0  0  0
  6 15  1  0  0  0  0
  7 30  1  0  0  0  0
  7  4  1  0  0  0  0
  8  5  1  0  0  0  0
  8  9  2  0  0  0  0
  9  1  1  0  0  0  0
 10 11  2  0  0  0  0
 12 10  1  0  0  0  0
 13 12  1  0  0  0  0
 14 15  2  0  0  0  0
 15 17  1  0  0  0  0
 17 16  1  0  0  0  0
 18  5  1  0  0  0  0
 18 19  1  1  0  0  0
 19 20  1  0  0  0  0
 22 21  1  6  0  0  0
 22 18  1  0  0  0  0
 24 27  2  0  0  0  0
 25 28  2  0  0  0  0
 26 28  1  0  0  0  0
 26 23  2  0  0  0  0
 27 29  1  0  0  0  0
 27 25  1  0  0  0  0
 28 22  1  0  0  0  0
 29 26  1  0  0  0  0
 31 36  1  0  0  0  0
 32 33  2  0  0  0  0
 32 35  1  0  0  0  0
 33 34  1  0  0  0  0
 34 36  2  0  0  0  0
 35 31  2  0  0  0  0
 36 30  1  0  0  0  0
M  END
>  <MODEL>
9

>  <REMARK>
 VINA RESULT:      -6.0      1.853      2.986
  Name = 
  10 active torsions:
  status: ('A' for Active; 'I' for Inactive)
    1  A    between atoms: C_3  and  O_8
    2  A    between atoms: C_3  and  C_25
    3  A    between atoms: O_11  and  C_15
    4  A    between atoms: C_15  and  C_22
    5  A    between atoms: C_15  and  C_30
    6  A    between atoms: C_20  and  C_29
    7  A    between atoms: C_20  and  C_32
    8  A    between atoms: C_25  and  C_35
    9  A    between atoms: O_27  and  C_35
   10  A    between atoms: C_28  and  C_30
                            x       y       z     vdW  Elec       q    Type
                         _______ _______ _______ _____ _____    ______ ____

>  <TORSDO>
F 10

$$$$
