=
 OpenBabel11072412283D

 33 37  0  0  1  0  0  0  0  0999 V2000
  161.1320  205.7440  150.0390 C   0  0  0  0  0  0  0  0  0  0  0  0
  161.1700  205.6050  153.5090 C   0  0  0  0  0  3  0  0  0  0  0  0
  161.7940  207.1280  151.7000 C   0  0  1  0  0  3  0  0  0  0  0  0
  161.6990  208.2610  152.6230 C   0  0  0  0  0  3  0  0  0  0  0  0
  161.9390  205.7360  152.2210 C   0  0  2  0  0  3  0  0  0  0  0  0
  161.1030  203.5900  151.1300 O   0  0  0  0  0  1  0  0  0  0  0  0
  161.3070  207.9910  153.8730 C   0  0  0  0  0  3  0  0  0  0  0  0
  161.3750  207.1270  150.4420 C   0  0  0  0  0  0  0  0  0  0  0  0
  161.3690  204.9540  151.0850 C   0  0  1  0  0  3  0  0  0  0  0  0
  160.9470  206.6470  154.2620 N   0  0  0  0  0  0  0  0  0  0  0  0
  160.9710  208.3030  149.7360 N   0  0  0  0  0  2  0  0  0  0  0  0
  161.7960  208.9680  148.7370 C   0  0  2  0  0  3  0  0  0  0  0  0
  162.8460  208.1300  148.3510 O   0  0  0  0  0  1  0  0  0  0  0  0
  162.3220  210.2990  149.2790 C   0  0  2  0  0  3  0  0  0  0  0  0
  161.5610  210.7190  150.4450 N   0  0  0  0  0  1  0  0  0  0  0  0
  162.3850  211.4200  148.2370 C   0  0  0  0  0  2  0  0  0  0  0  0
  160.2770  212.2520  147.4390 C   0  0  0  0  0  2  0  0  0  0  0  0
  160.1210  212.7750  143.6220 C   0  0  0  0  0  2  0  0  0  0  0  0
  161.3350  212.4150  148.4490 N   0  0  0  0  0  0  0  0  0  0  0  0
  160.7660  212.5830  146.0270 C   0  0  2  0  0  3  0  0  0  0  0  0
  161.3050  214.0130  145.9990 C   0  0  1  0  0  3  0  0  0  0  0  0
  159.6270  212.4310  145.0250 C   0  0  0  0  0  2  0  0  0  0  0  0
  161.9130  213.7670  148.4040 C   0  0  0  0  0  2  0  0  0  0  0  0
  162.4290  214.1450  147.0100 C   0  0  0  0  0  2  0  0  0  0  0  0
  161.8100  214.3510  144.6000 C   0  0  0  0  0  2  0  0  0  0  0  0
  160.6780  214.1970  143.5860 C   0  0  0  0  0  2  0  0  0  0  0  0
  160.4870  205.3500  148.8200 N   0  0  0  0  0  2  0  0  0  0  0  0
  162.8890  204.6500  145.8990 C   0  0  0  0  0  2  0  0  0  0  0  0
  162.1780  204.3850  147.2260 C   0  0  0  0  0  2  0  0  0  0  0  0
  160.5020  206.0760  146.5240 C   0  0  0  0  0  3  0  0  0  0  0  0
  161.0680  205.3650  147.5110 C   0  0  0  0  0  0  0  0  0  0  0  0
  161.8590  204.8660  144.8020 C   0  0  0  0  0  2  0  0  0  0  0  0
  161.0550  206.1190  145.1270 C   0  0  0  0  0  2  0  0  0  0  0  0
  1  8  2  0  0  0  0
  1  9  1  0  0  0  0
  2 10  2  0  0  0  0
  3  5  1  0  0  0  0
  3  4  1  1  0  0  0
  4  7  2  0  0  0  0
  5  2  1  1  0  0  0
  7 10  1  0  0  0  0
  8  3  1  0  0  0  0
  9  6  1  1  0  0  0
  9  5  1  0  0  0  0
 11  8  1  0  0  0  0
 12 13  1  1  0  0  0
 12 14  1  0  0  0  0
 12 11  1  0  0  0  0
 14 15  1  1  0  0  0
 16 19  1  0  0  0  0
 16 14  1  0  0  0  0
 17 19  1  0  0  0  0
 18 22  1  0  0  0  0
 20 22  1  6  0  0  0
 20 17  1  0  0  0  0
 21 25  1  6  0  0  0
 21 20  1  0  0  0  0
 21 24  1  0  0  0  0
 23 19  1  0  0  0  0
 24 23  1  0  0  0  0
 26 18  1  0  0  0  0
 26 25  1  0  0  0  0
 27  1  1  0  0  0  0
 28 29  1  0  0  0  0
 29 31  1  0  0  0  0
 30 31  2  0  0  0  0
 31 27  1  0  0  0  0
 32 33  1  0  0  0  0
 32 28  1  0  0  0  0
 33 30  1  0  0  0  0
M  END
>  <MODEL>
1

>  <REMARK>
 VINA RESULT:      -7.8      0.000      0.000
  Name = 
  7 active torsions:
  status: ('A' for Active; 'I' for Inactive)
    1  A    between atoms: C_1  and  N_24
    2  A    between atoms: C_4  and  C_7
    3  A    between atoms: C_4  and  N_21
    4  A    between atoms: C_7  and  C_9
    5  A    between atoms: C_9  and  N_15
    6  A    between atoms: C_20  and  N_24
    7  A    between atoms: N_21  and  C_22
                            x       y       z     vdW  Elec       q    Type
                         _______ _______ _______ _____ _____    ______ ____

>  <TORSDO>
F 7

$$$$
=
 OpenBabel11072412283D

 33 37  0  0  1  0  0  0  0  0999 V2000
  160.2300  211.2250  153.8400 C   0  0  0  0  0  0  0  0  0  0  0  0
  161.2340  209.9030  156.8900 C   0  0  0  0  0  3  0  0  0  0  0  0
  160.2460  209.1670  154.7770 C   0  0  1  0  0  3  0  0  0  0  0  0
  160.7310  207.8070  155.0250 C   0  0  0  0  0  3  0  0  0  0  0  0
  160.1270  210.1460  155.8990 C   0  0  2  0  0  3  0  0  0  0  0  0
  160.3730  212.6790  155.7620 O   0  0  0  0  0  1  0  0  0  0  0  0
  161.4540  207.6170  156.1330 C   0  0  0  0  0  3  0  0  0  0  0  0
  160.2610  209.7840  153.6040 C   0  0  0  0  0  0  0  0  0  0  0  0
  160.2440  211.4350  155.1550 C   0  0  1  0  0  3  0  0  0  0  0  0
  161.7790  208.7220  157.0050 N   0  0  0  0  0  0  0  0  0  0  0  0
  160.5470  209.1300  152.3640 N   0  0  0  0  0  2  0  0  0  0  0  0
  161.8920  208.7790  151.9290 C   0  0  2  0  0  3  0  0  0  0  0  0
  162.3670  209.7350  151.0270 O   0  0  0  0  0  1  0  0  0  0  0  0
  161.9030  207.3810  151.3070 C   0  0  2  0  0  3  0  0  0  0  0  0
  162.8290  206.5090  152.0120 N   0  0  0  0  0  1  0  0  0  0  0  0
  162.1810  207.3660  149.8010 C   0  0  0  0  0  2  0  0  0  0  0  0
  160.2090  206.0200  149.5310 C   0  0  0  0  0  2  0  0  0  0  0  0
  160.8690  202.2210  149.5390 C   0  0  0  0  0  2  0  0  0  0  0  0
  160.9540  207.1840  149.0260 N   0  0  0  0  0  0  0  0  0  0  0  0
  160.9520  204.7050  149.2870 C   0  0  2  0  0  3  0  0  0  0  0  0
  161.2260  204.5460  147.7910 C   0  0  1  0  0  3  0  0  0  0  0  0
  160.1250  203.5290  149.7970 C   0  0  0  0  0  2  0  0  0  0  0  0
  161.2830  207.0310  147.6010 C   0  0  0  0  0  2  0  0  0  0  0  0
  162.0400  205.7310  147.3030 C   0  0  0  0  0  2  0  0  0  0  0  0
  161.9800  203.2450  147.5360 C   0  0  0  0  0  2  0  0  0  0  0  0
  161.1630  202.0600  148.0480 C   0  0  0  0  0  2  0  0  0  0  0  0
  160.4310  212.2230  152.8290 N   0  0  0  0  0  2  0  0  0  0  0  0
  158.6070  214.2270  150.1000 C   0  0  0  0  0  2  0  0  0  0  0  0
  159.6350  213.2530  150.6750 C   0  0  0  0  0  2  0  0  0  0  0  0
  158.2070  213.1390  152.7040 C   0  0  0  0  0  3  0  0  0  0  0  0
  159.4060  212.9420  152.1330 C   0  0  0  0  0  0  0  0  0  0  0  0
  157.2080  213.7890  150.5020 C   0  0  0  0  0  2  0  0  0  0  0  0
  157.0870  213.8700  152.0190 C   0  0  0  0  0  2  0  0  0  0  0  0
  1  9  1  0  0  0  0
  2 10  2  0  0  0  0
  3  4  1  1  0  0  0
  3  5  1  0  0  0  0
  4  7  2  0  0  0  0
  5  2  1  1  0  0  0
  7 10  1  0  0  0  0
  8  1  2  0  0  0  0
  8  3  1  0  0  0  0
  9  6  1  1  0  0  0
  9  5  1  0  0  0  0
 11  8  1  0  0  0  0
 12 13  1  6  0  0  0
 12 11  1  0  0  0  0
 14 12  1  0  0  0  0
 14 15  1  1  0  0  0
 16 14  1  0  0  0  0
 18 22  1  0  0  0  0
 19 17  1  0  0  0  0
 19 16  1  0  0  0  0
 20 17  1  6  0  0  0
 20 22  1  0  0  0  0
 21 24  1  1  0  0  0
 21 20  1  0  0  0  0
 23 19  1  0  0  0  0
 24 23  1  0  0  0  0
 25 21  1  0  0  0  0
 25 26  1  0  0  0  0
 26 18  1  0  0  0  0
 27  1  1  0  0  0  0
 28 32  1  0  0  0  0
 28 29  1  0  0  0  0
 29 31  1  0  0  0  0
 31 30  2  0  0  0  0
 31 27  1  0  0  0  0
 32 33  1  0  0  0  0
 33 30  1  0  0  0  0
M  END
>  <MODEL>
2

>  <REMARK>
 VINA RESULT:      -7.5      3.553      7.861
  Name = 
  7 active torsions:
  status: ('A' for Active; 'I' for Inactive)
    1  A    between atoms: C_1  and  N_24
    2  A    between atoms: C_4  and  C_7
    3  A    between atoms: C_4  and  N_21
    4  A    between atoms: C_7  and  C_9
    5  A    between atoms: C_9  and  N_15
    6  A    between atoms: C_20  and  N_24
    7  A    between atoms: N_21  and  C_22
                            x       y       z     vdW  Elec       q    Type
                         _______ _______ _______ _____ _____    ______ ____

>  <TORSDO>
F 7

$$$$
=
 OpenBabel11072412283D

 33 37  0  0  1  0  0  0  0  0999 V2000
  159.7030  212.0120  153.0420 C   0  0  0  0  0  0  0  0  0  0  0  0
  159.0270  211.7030  156.4350 C   0  0  0  0  0  3  0  0  0  0  0  0
  159.6930  210.3140  154.5350 C   0  0  1  0  0  3  0  0  0  0  0  0
  160.2670  209.3310  155.4570 C   0  0  0  0  0  3  0  0  0  0  0  0
  158.6940  211.3130  155.0190 C   0  0  2  0  0  3  0  0  0  0  0  0
  158.3150  213.6670  154.1210 O   0  0  0  0  0  1  0  0  0  0  0  0
  160.2230  209.6270  156.7590 C   0  0  0  0  0  3  0  0  0  0  0  0
  160.2330  210.6950  153.3860 C   0  0  0  0  0  0  0  0  0  0  0  0
  158.8890  212.4060  154.0210 C   0  0  1  0  0  3  0  0  0  0  0  0
  159.6810  210.8860  157.2160 N   0  0  0  0  0  0  0  0  0  0  0  0
  161.3470  210.0390  152.7730 N   0  0  0  0  0  2  0  0  0  0  0  0
  161.2350  208.8030  152.0100 C   0  0  2  0  0  3  0  0  0  0  0  0
  161.3720  207.7030  152.8610 O   0  0  0  0  0  1  0  0  0  0  0  0
  162.2780  208.7700  150.8920 C   0  0  2  0  0  3  0  0  0  0  0  0
  162.1790  209.9570  150.0570 N   0  0  0  0  0  1  0  0  0  0  0  0
  162.2430  207.4990  150.0380 C   0  0  0  0  0  2  0  0  0  0  0  0
  160.2780  206.1180  149.9480 C   0  0  0  0  0  2  0  0  0  0  0  0
  161.0070  202.3360  149.7620 C   0  0  0  0  0  2  0  0  0  0  0  0
  160.9400  207.3130  149.3990 N   0  0  0  0  0  0  0  0  0  0  0  0
  161.0140  204.8280  149.5810 C   0  0  2  0  0  3  0  0  0  0  0  0
  161.1210  204.7180  148.0600 C   0  0  1  0  0  3  0  0  0  0  0  0
  160.2720  203.6190  150.1430 C   0  0  0  0  0  2  0  0  0  0  0  0
  161.1090  207.2090  147.9420 C   0  0  0  0  0  2  0  0  0  0  0  0
  161.8520  205.9350  147.5200 C   0  0  0  0  0  2  0  0  0  0  0  0
  161.8660  203.4430  147.6810 C   0  0  0  0  0  2  0  0  0  0  0  0
  161.1340  202.2250  148.2430 C   0  0  0  0  0  2  0  0  0  0  0  0
  160.1940  212.8380  151.9770 N   0  0  0  0  0  2  0  0  0  0  0  0
  157.4370  213.3130  149.3380 C   0  0  0  0  0  2  0  0  0  0  0  0
  158.0610  213.3230  150.7330 C   0  0  0  0  0  2  0  0  0  0  0  0
  160.2740  213.2720  149.6100 C   0  0  0  0  0  3  0  0  0  0  0  0
  159.5480  213.0730  150.7210 C   0  0  0  0  0  0  0  0  0  0  0  0
  158.2740  214.1680  148.3990 C   0  0  0  0  0  2  0  0  0  0  0  0
  159.6560  213.5390  148.2660 C   0  0  0  0  0  2  0  0  0  0  0  0
  1  8  2  0  0  0  0
  1  9  1  0  0  0  0
  2 10  2  0  0  0  0
  3  5  1  0  0  0  0
  3  4  1  1  0  0  0
  4  7  2  0  0  0  0
  5  2  1  1  0  0  0
  7 10  1  0  0  0  0
  8  3  1  0  0  0  0
  9  6  1  1  0  0  0
  9  5  1  0  0  0  0
 11  8  1  0  0  0  0
 12 11  1  0  0  0  0
 12 13  1  1  0  0  0
 14 15  1  6  0  0  0
 14 12  1  0  0  0  0
 16 14  1  0  0  0  0
 18 22  1  0  0  0  0
 19 17  1  0  0  0  0
 19 16  1  0  0  0  0
 20 17  1  6  0  0  0
 20 22  1  0  0  0  0
 21 24  1  1  0  0  0
 21 20  1  0  0  0  0
 23 19  1  0  0  0  0
 24 23  1  0  0  0  0
 25 21  1  0  0  0  0
 25 26  1  0  0  0  0
 26 18  1  0  0  0  0
 27  1  1  0  0  0  0
 28 29  1  0  0  0  0
 30 31  2  0  0  0  0
 31 29  1  0  0  0  0
 31 27  1  0  0  0  0
 32 28  1  0  0  0  0
 33 32  1  0  0  0  0
 33 30  1  0  0  0  0
M  END
>  <MODEL>
3

>  <REMARK>
 VINA RESULT:      -7.5      3.315      7.790
  Name = 
  7 active torsions:
  status: ('A' for Active; 'I' for Inactive)
    1  A    between atoms: C_1  and  N_24
    2  A    between atoms: C_4  and  C_7
    3  A    between atoms: C_4  and  N_21
    4  A    between atoms: C_7  and  C_9
    5  A    between atoms: C_9  and  N_15
    6  A    between atoms: C_20  and  N_24
    7  A    between atoms: N_21  and  C_22
                            x       y       z     vdW  Elec       q    Type
                         _______ _______ _______ _____ _____    ______ ____

>  <TORSDO>
F 7

$$$$
=
 OpenBabel11072412283D

 33 37  0  0  1  0  0  0  0  0999 V2000
  161.2440  205.5330  151.6410 C   0  0  0  0  0  0  0  0  0  0  0  0
  161.0710  202.7200  149.6120 C   0  0  0  0  0  3  0  0  0  0  0  0
  160.9110  205.1550  149.4370 C   0  0  1  0  0  3  0  0  0  0  0  0
  161.2660  205.0740  148.0180 C   0  0  0  0  0  3  0  0  0  0  0  0
  160.3990  203.9510  150.1590 C   0  0  2  0  0  3  0  0  0  0  0  0
  160.6890  203.4010  152.6300 O   0  0  0  0  0  1  0  0  0  0  0  0
  161.5380  203.8600  147.5320 C   0  0  0  0  0  3  0  0  0  0  0  0
  161.3510  206.0710  150.2880 C   0  0  0  0  0  0  0  0  0  0  0  0
  160.7820  204.2860  151.5620 C   0  0  1  0  0  3  0  0  0  0  0  0
  161.5320  202.6980  148.3910 N   0  0  0  0  0  0  0  0  0  0  0  0
  162.0640  207.2470  149.8930 N   0  0  0  0  0  2  0  0  0  0  0  0
  161.4260  208.4170  149.3050 C   0  0  2  0  0  3  0  0  0  0  0  0
  161.1890  208.1990  147.9450 O   0  0  0  0  0  1  0  0  0  0  0  0
  162.2900  209.6610  149.5220 C   0  0  2  0  0  3  0  0  0  0  0  0
  161.9060  210.3500  150.7440 N   0  0  0  0  0  1  0  0  0  0  0  0
  162.3060  210.6280  148.3350 C   0  0  0  0  0  2  0  0  0  0  0  0
  160.5620  212.2810  148.3430 C   0  0  0  0  0  2  0  0  0  0  0  0
  158.7890  212.7330  144.9490 C   0  0  0  0  0  2  0  0  0  0  0  0
  161.9490  211.9880  148.7390 N   0  0  0  0  0  0  0  0  0  0  0  0
  160.3910  212.3330  146.8240 C   0  0  2  0  0  3  0  0  0  0  0  0
  161.3380  213.3820  146.2410 C   0  0  1  0  0  3  0  0  0  0  0  0
  158.9470  212.6720  146.4670 C   0  0  0  0  0  2  0  0  0  0  0  0
  162.8900  212.9490  148.1440 C   0  0  0  0  0  2  0  0  0  0  0  0
  162.7660  213.0310  146.6170 C   0  0  0  0  0  2  0  0  0  0  0  0
  161.1880  213.4330  144.7240 C   0  0  0  0  0  2  0  0  0  0  0  0
  159.7440  213.7670  144.3540 C   0  0  0  0  0  2  0  0  0  0  0  0
  161.8020  206.1470  152.8110 N   0  0  0  0  0  2  0  0  0  0  0  0
  159.8450  207.6410  155.7660 C   0  0  0  0  0  2  0  0  0  0  0  0
  160.7450  206.6420  155.0410 C   0  0  0  0  0  2  0  0  0  0  0  0
  161.0940  208.3930  153.3170 C   0  0  0  0  0  3  0  0  0  0  0  0
  161.1490  207.0970  153.6620 C   0  0  0  0  0  0  0  0  0  0  0  0
  160.4320  209.0390  155.6440 C   0  0  0  0  0  2  0  0  0  0  0  0
  160.4380  209.4400  154.1730 C   0  0  0  0  0  2  0  0  0  0  0  0
  1 27  1  0  0  0  0
  3  4  1  6  0  0  0
  3  5  1  0  0  0  0
  3  8  1  0  0  0  0
  5  2  1  6  0  0  0
  5  9  1  0  0  0  0
  7  4  2  0  0  0  0
  7 10  1  0  0  0  0
  8  1  2  0  0  0  0
  9  1  1  0  0  0  0
  9  6  1  6  0  0  0
 10  2  2  0  0  0  0
 11  8  1  0  0  0  0
 12 13  1  6  0  0  0
 12 14  1  0  0  0  0
 12 11  1  0  0  0  0
 14 15  1  1  0  0  0
 16 19  1  0  0  0  0
 16 14  1  0  0  0  0
 17 19  1  0  0  0  0
 18 22  1  0  0  0  0
 20 22  1  1  0  0  0
 20 17  1  0  0  0  0
 21 25  1  6  0  0  0
 21 24  1  0  0  0  0
 21 20  1  0  0  0  0
 23 19  1  0  0  0  0
 24 23  1  0  0  0  0
 26 25  1  0  0  0  0
 26 18  1  0  0  0  0
 27 31  1  0  0  0  0
 29 28  1  0  0  0  0
 30 31  2  0  0  0  0
 30 33  1  0  0  0  0
 31 29  1  0  0  0  0
 32 28  1  0  0  0  0
 33 32  1  0  0  0  0
M  END
>  <MODEL>
4

>  <REMARK>
 VINA RESULT:      -7.4      1.442      4.727
  Name = 
  7 active torsions:
  status: ('A' for Active; 'I' for Inactive)
    1  A    between atoms: C_1  and  N_24
    2  A    between atoms: C_4  and  C_7
    3  A    between atoms: C_4  and  N_21
    4  A    between atoms: C_7  and  C_9
    5  A    between atoms: C_9  and  N_15
    6  A    between atoms: C_20  and  N_24
    7  A    between atoms: N_21  and  C_22
                            x       y       z     vdW  Elec       q    Type
                         _______ _______ _______ _____ _____    ______ ____

>  <TORSDO>
F 7

$$$$
=
 OpenBabel11072412283D

 33 37  0  0  1  0  0  0  0  0999 V2000
  159.8740  211.2090  152.8480 C   0  0  0  0  0  0  0  0  0  0  0  0
  158.1870  213.3480  150.6940 C   0  0  0  0  0  3  0  0  0  0  0  0
  160.4570  212.5410  151.1170 C   0  0  1  0  0  3  0  0  0  0  0  0
  160.8290  212.8690  149.7380 C   0  0  0  0  0  3  0  0  0  0  0  0
  159.2500  213.1590  151.7430 C   0  0  2  0  0  3  0  0  0  0  0  0
  157.7530  212.1360  153.5340 O   0  0  0  0  0  1  0  0  0  0  0  0
  159.8620  213.3500  148.9500 C   0  0  0  0  0  3  0  0  0  0  0  0
  160.8350  211.4550  151.7750 C   0  0  0  0  0  0  0  0  0  0  0  0
  158.9180  212.1330  152.7750 C   0  0  1  0  0  3  0  0  0  0  0  0
  158.5080  213.4840  149.4350 N   0  0  0  0  0  0  0  0  0  0  0  0
  161.8420  210.5520  151.3110 N   0  0  0  0  0  2  0  0  0  0  0  0
  161.5840  209.1580  150.9770 C   0  0  2  0  0  3  0  0  0  0  0  0
  161.9380  208.3360  152.0510 O   0  0  0  0  0  1  0  0  0  0  0  0
  162.3410  208.7640  149.7070 C   0  0  2  0  0  3  0  0  0  0  0  0
  161.9730  209.6270  148.5970 N   0  0  0  0  0  1  0  0  0  0  0  0
  162.1950  207.2890  149.3220 C   0  0  0  0  0  2  0  0  0  0  0  0
  160.3180  205.9400  149.9790 C   0  0  0  0  0  2  0  0  0  0  0  0
  161.1820  202.2430  150.6530 C   0  0  0  0  0  2  0  0  0  0  0  0
  160.8070  206.9430  149.0200 N   0  0  0  0  0  0  0  0  0  0  0  0
  161.0330  204.5960  149.8280 C   0  0  2  0  0  3  0  0  0  0  0  0
  160.8580  204.0850  148.3970 C   0  0  1  0  0  3  0  0  0  0  0  0
  160.4700  203.5830  150.8190 C   0  0  0  0  0  2  0  0  0  0  0  0
  160.7040  206.4550  147.6360 C   0  0  0  0  0  2  0  0  0  0  0  0
  161.4150  205.1120  147.4270 C   0  0  0  0  0  2  0  0  0  0  0  0
  161.5790  202.7520  148.2280 C   0  0  0  0  0  2  0  0  0  0  0  0
  161.0270  201.7310  149.2210 C   0  0  0  0  0  2  0  0  0  0  0  0
  159.8330  210.0210  153.6510 N   0  0  0  0  0  0  0  0  0  0  0  0
  161.0300  208.3720  156.9120 C   0  0  0  0  0  2  0  0  0  0  0  0
  160.4900  208.4270  155.4840 C   0  0  0  0  0  2  0  0  0  0  0  0
  161.3240  210.7630  155.3900 C   0  0  0  0  0  2  0  0  0  0  0  0
  160.5170  209.8130  154.8910 C   0  0  0  0  0  0  0  0  0  0  0  0
  162.3450  209.1310  156.9900 C   0  0  0  0  0  2  0  0  0  0  0  0
  162.0820  210.5990  156.6770 C   0  0  0  0  0  2  0  0  0  0  0  0
  1 27  1  0  0  0  0
  3  4  1  6  0  0  0
  3  5  1  0  0  0  0
  3  8  1  0  0  0  0
  5  2  1  6  0  0  0
  5  9  1  0  0  0  0
  7 10  1  0  0  0  0
  7  4  2  0  0  0  0
  8  1  2  0  0  0  0
  9  1  1  0  0  0  0
  9  6  1  6  0  0  0
 10  2  2  0  0  0  0
 11  8  1  0  0  0  0
 12 11  1  0  0  0  0
 12 13  1  1  0  0  0
 14 15  1  6  0  0  0
 14 12  1  0  0  0  0
 16 14  1  0  0  0  0
 18 22  1  0  0  0  0
 19 16  1  0  0  0  0
 19 17  1  0  0  0  0
 20 17  1  6  0  0  0
 20 22  1  0  0  0  0
 21 24  1  6  0  0  0
 21 20  1  0  0  0  0
 23 19  1  0  0  0  0
 24 23  1  0  0  0  0
 25 21  1  0  0  0  0
 25 26  1  0  0  0  0
 26 18  1  0  0  0  0
 27 31  2  0  0  0  0
 28 32  1  0  0  0  0
 29 28  1  0  0  0  0
 30 33  1  0  0  0  0
 31 30  1  0  0  0  0
 31 29  1  0  0  0  0
 33 32  1  0  0  0  0
M  END
>  <MODEL>
5

>  <REMARK>
 VINA RESULT:      -7.3      3.047      8.478
  Name = 
  7 active torsions:
  status: ('A' for Active; 'I' for Inactive)
    1  A    between atoms: C_1  and  N_24
    2  A    between atoms: C_4  and  C_7
    3  A    between atoms: C_4  and  N_21
    4  A    between atoms: C_7  and  C_9
    5  A    between atoms: C_9  and  N_15
    6  A    between atoms: C_20  and  N_24
    7  A    between atoms: N_21  and  C_22
                            x       y       z     vdW  Elec       q    Type
                         _______ _______ _______ _____ _____    ______ ____

>  <TORSDO>
F 7

$$$$
=
 OpenBabel11072412283D

 33 37  0  0  1  0  0  0  0  0999 V2000
  160.0970  212.3900  151.3640 C   0  0  0  0  0  0  0  0  0  0  0  0
  158.9150  212.6720  154.6160 C   0  0  0  0  0  3  0  0  0  0  0  0
  159.7360  210.9580  153.0760 C   0  0  1  0  0  3  0  0  0  0  0  0
  160.0900  210.1070  154.2140 C   0  0  0  0  0  3  0  0  0  0  0  0
  158.7610  212.0770  153.2420 C   0  0  2  0  0  3  0  0  0  0  0  0
  158.7050  214.2730  151.9500 O   0  0  0  0  0  1  0  0  0  0  0  0
  159.8820  210.6120  155.4340 C   0  0  0  0  0  3  0  0  0  0  0  0
  160.4650  211.1180  151.9810 C   0  0  0  0  0  0  0  0  0  0  0  0
  159.1850  212.9820  152.1320 C   0  0  1  0  0  3  0  0  0  0  0  0
  159.3810  211.9570  155.6040 N   0  0  0  0  0  0  0  0  0  0  0  0
  161.6000  210.3100  151.6550 N   0  0  0  0  0  2  0  0  0  0  0  0
  161.5040  208.9220  151.2240 C   0  0  2  0  0  3  0  0  0  0  0  0
  161.9280  208.0740  152.2510 O   0  0  0  0  0  1  0  0  0  0  0  0
  162.3240  208.7010  149.9510 C   0  0  2  0  0  3  0  0  0  0  0  0
  162.0010  209.7020  148.9470 N   0  0  0  0  0  1  0  0  0  0  0  0
  162.2100  207.2890  149.3690 C   0  0  0  0  0  2  0  0  0  0  0  0
  160.3200  205.9400  149.9890 C   0  0  0  0  0  2  0  0  0  0  0  0
  161.1650  202.2370  150.6530 C   0  0  0  0  0  2  0  0  0  0  0  0
  160.8250  206.9480  149.0430 N   0  0  0  0  0  0  0  0  0  0  0  0
  161.0340  204.5960  149.8400 C   0  0  2  0  0  3  0  0  0  0  0  0
  160.8800  204.0940  148.4040 C   0  0  1  0  0  3  0  0  0  0  0  0
  160.4540  203.5780  150.8170 C   0  0  0  0  0  2  0  0  0  0  0  0
  160.7420  206.4680  147.6560 C   0  0  0  0  0  2  0  0  0  0  0  0
  161.4540  205.1250  147.4490 C   0  0  0  0  0  2  0  0  0  0  0  0
  161.6010  202.7610  148.2380 C   0  0  0  0  0  2  0  0  0  0  0  0
  161.0310  201.7350  149.2160 C   0  0  0  0  0  2  0  0  0  0  0  0
  160.8020  213.0040  150.2750 N   0  0  0  0  0  2  0  0  0  0  0  0
  158.5610  213.0800  147.1510 C   0  0  0  0  0  2  0  0  0  0  0  0
  158.9440  213.3280  148.6090 C   0  0  0  0  0  2  0  0  0  0  0  0
  161.3040  212.9800  147.9200 C   0  0  0  0  0  3  0  0  0  0  0  0
  160.3910  213.0230  148.9040 C   0  0  0  0  0  0  0  0  0  0  0  0
  159.6000  213.7090  146.2360 C   0  0  0  0  0  2  0  0  0  0  0  0
  160.9370  213.0130  146.4630 C   0  0  0  0  0  2  0  0  0  0  0  0
  1  8  2  0  0  0  0
  1  9  1  0  0  0  0
  2 10  2  0  0  0  0
  3  5  1  0  0  0  0
  3  4  1  1  0  0  0
  4  7  2  0  0  0  0
  5  2  1  1  0  0  0
  7 10  1  0  0  0  0
  8  3  1  0  0  0  0
  9  6  1  1  0  0  0
  9  5  1  0  0  0  0
 11  8  1  0  0  0  0
 12 11  1  0  0  0  0
 12 13  1  1  0  0  0
 14 15  1  6  0  0  0
 14 12  1  0  0  0  0
 16 14  1  0  0  0  0
 18 22  1  0  0  0  0
 19 16  1  0  0  0  0
 19 17  1  0  0  0  0
 20 17  1  6  0  0  0
 20 22  1  0  0  0  0
 21 24  1  6  0  0  0
 21 20  1  0  0  0  0
 23 19  1  0  0  0  0
 24 23  1  0  0  0  0
 25 21  1  0  0  0  0
 25 26  1  0  0  0  0
 26 18  1  0  0  0  0
 27  1  1  0  0  0  0
 28 29  1  0  0  0  0
 29 31  1  0  0  0  0
 30 31  2  0  0  0  0
 31 27  1  0  0  0  0
 32 33  1  0  0  0  0
 32 28  1  0  0  0  0
 33 30  1  0  0  0  0
M  END
>  <MODEL>
6

>  <REMARK>
 VINA RESULT:      -7.3      3.055      7.765
  Name = 
  7 active torsions:
  status: ('A' for Active; 'I' for Inactive)
    1  A    between atoms: C_1  and  N_24
    2  A    between atoms: C_4  and  C_7
    3  A    between atoms: C_4  and  N_21
    4  A    between atoms: C_7  and  C_9
    5  A    between atoms: C_9  and  N_15
    6  A    between atoms: C_20  and  N_24
    7  A    between atoms: N_21  and  C_22
                            x       y       z     vdW  Elec       q    Type
                         _______ _______ _______ _____ _____    ______ ____

>  <TORSDO>
F 7

$$$$
=
 OpenBabel11072412283D

 33 37  0  0  1  0  0  0  0  0999 V2000
  158.3200  212.9830  152.9310 C   0  0  0  0  0  0  0  0  0  0  0  0
  156.4790  212.9020  155.8740 C   0  0  0  0  0  3  0  0  0  0  0  0
  158.2410  211.6360  154.7440 C   0  0  1  0  0  3  0  0  0  0  0  0
  158.6720  211.0900  156.0340 C   0  0  0  0  0  3  0  0  0  0  0  0
  156.8760  212.2240  154.5900 C   0  0  2  0  0  3  0  0  0  0  0  0
  156.1800  214.0990  153.0110 O   0  0  0  0  0  1  0  0  0  0  0  0
  158.0230  211.5200  157.1200 C   0  0  0  0  0  3  0  0  0  0  0  0
  159.0470  212.0370  153.7730 C   0  0  0  0  0  0  0  0  0  0  0  0
  157.1060  213.1590  153.4490 C   0  0  1  0  0  3  0  0  0  0  0  0
  156.9840  212.5190  157.0160 N   0  0  0  0  0  0  0  0  0  0  0  0
  160.4560  211.7880  153.7530 N   0  0  0  0  0  2  0  0  0  0  0  0
  161.0740  210.7040  153.0020 C   0  0  2  0  0  3  0  0  0  0  0  0
  160.8330  210.8730  151.6360 O   0  0  0  0  0  1  0  0  0  0  0  0
  160.5520  209.3520  153.4920 C   0  0  2  0  0  3  0  0  0  0  0  0
  161.2500  208.9330  154.6970 N   0  0  0  0  0  1  0  0  0  0  0  0
  160.5850  208.2460  152.4320 C   0  0  0  0  0  2  0  0  0  0  0  0
  162.3290  207.7980  150.8410 C   0  0  0  0  0  2  0  0  0  0  0  0
  161.1230  206.0770  147.6080 C   0  0  0  0  0  2  0  0  0  0  0  0
  161.9320  207.7060  152.2550 N   0  0  0  0  0  0  0  0  0  0  0  0
  161.4890  206.8890  149.9420 C   0  0  2  0  0  3  0  0  0  0  0  0
  161.6050  205.4440  150.4280 C   0  0  1  0  0  3  0  0  0  0  0  0
  161.9590  206.9960  148.4950 C   0  0  0  0  0  2  0  0  0  0  0  0
  161.9790  206.3160  152.7340 C   0  0  0  0  0  2  0  0  0  0  0  0
  161.1420  205.3630  151.8720 C   0  0  0  0  0  2  0  0  0  0  0  0
  160.7590  204.5290  149.5490 C   0  0  0  0  0  2  0  0  0  0  0  0
  161.2190  204.6320  148.0960 C   0  0  0  0  0  2  0  0  0  0  0  0
  158.9140  213.7820  151.8980 N   0  0  0  0  0  2  0  0  0  0  0  0
  157.4560  212.9570  148.4360 C   0  0  0  0  0  2  0  0  0  0  0  0
  157.4440  213.4510  149.8810 C   0  0  0  0  0  2  0  0  0  0  0  0
  159.9150  213.6220  149.7130 C   0  0  0  0  0  3  0  0  0  0  0  0
  158.8220  213.5470  150.4880 C   0  0  0  0  0  0  0  0  0  0  0  0
  158.5080  213.7170  147.6440 C   0  0  0  0  0  2  0  0  0  0  0  0
  159.8810  213.4020  148.2270 C   0  0  0  0  0  2  0  0  0  0  0  0
  1  9  1  0  0  0  0
  1  8  2  0  0  0  0
  2 10  2  0  0  0  0
  3  4  1  1  0  0  0
  4  7  2  0  0  0  0
  5  3  1  0  0  0  0
  5  2  1  1  0  0  0
  8  3  1  0  0  0  0
  9  6  1  1  0  0  0
  9  5  1  0  0  0  0
 10  7  1  0  0  0  0
 11  8  1  0  0  0  0
 12 13  1  6  0  0  0
 12 14  1  0  0  0  0
 12 11  1  0  0  0  0
 14 15  1  1  0  0  0
 16 14  1  0  0  0  0
 17 19  1  0  0  0  0
 18 26  1  0  0  0  0
 18 22  1  0  0  0  0
 19 16  1  0  0  0  0
 19 23  1  0  0  0  0
 20 22  1  6  0  0  0
 20 21  1  0  0  0  0
 20 17  1  0  0  0  0
 21 25  1  6  0  0  0
 21 24  1  0  0  0  0
 24 23  1  0  0  0  0
 26 25  1  0  0  0  0
 27  1  1  0  0  0  0
 28 29  1  0  0  0  0
 29 31  1  0  0  0  0
 30 31  2  0  0  0  0
 31 27  1  0  0  0  0
 32 33  1  0  0  0  0
 32 28  1  0  0  0  0
 33 30  1  0  0  0  0
M  END
>  <MODEL>
7

>  <REMARK>
 VINA RESULT:      -7.2      4.140      8.063
  Name = 
  7 active torsions:
  status: ('A' for Active; 'I' for Inactive)
    1  A    between atoms: C_1  and  N_24
    2  A    between atoms: C_4  and  C_7
    3  A    between atoms: C_4  and  N_21
    4  A    between atoms: C_7  and  C_9
    5  A    between atoms: C_9  and  N_15
    6  A    between atoms: C_20  and  N_24
    7  A    between atoms: N_21  and  C_22
                            x       y       z     vdW  Elec       q    Type
                         _______ _______ _______ _____ _____    ______ ____

>  <TORSDO>
F 7

$$$$
=
 OpenBabel11072412283D

 33 37  0  0  1  0  0  0  0  0999 V2000
  161.3770  206.0920  151.8100 C   0  0  0  0  0  0  0  0  0  0  0  0
  161.0410  203.4380  149.5970 C   0  0  0  0  0  3  0  0  0  0  0  0
  161.0380  205.8840  149.5850 C   0  0  1  0  0  3  0  0  0  0  0  0
  161.3980  205.8760  148.1650 C   0  0  0  0  0  3  0  0  0  0  0  0
  160.4450  204.6700  150.2220 C   0  0  2  0  0  3  0  0  0  0  0  0
  160.6810  203.9390  152.6530 O   0  0  0  0  0  1  0  0  0  0  0  0
  161.5960  204.6810  147.5990 C   0  0  0  0  0  3  0  0  0  0  0  0
  161.5290  206.7110  150.4960 C   0  0  0  0  0  0  0  0  0  0  0  0
  160.8380  204.8860  151.6470 C   0  0  1  0  0  3  0  0  0  0  0  0
  161.5090  203.4670  148.3780 N   0  0  0  0  0  0  0  0  0  0  0  0
  162.3180  207.8630  150.1830 N   0  0  0  0  0  2  0  0  0  0  0  0
  161.8350  208.9770  149.3790 C   0  0  2  0  0  3  0  0  0  0  0  0
  162.3370  208.8790  148.0780 O   0  0  0  0  0  1  0  0  0  0  0  0
  162.2250  210.3090  150.0230 C   0  0  2  0  0  3  0  0  0  0  0  0
  162.7010  210.1060  151.3820 N   0  0  0  0  0  1  0  0  0  0  0  0
  161.1220  211.3710  149.9850 C   0  0  0  0  0  2  0  0  0  0  0  0
  160.5240  213.6280  149.4200 C   0  0  0  0  0  2  0  0  0  0  0  0
  157.0710  213.9800  147.7400 C   0  0  0  0  0  2  0  0  0  0  0  0
  161.5860  212.6110  149.3650 N   0  0  0  0  0  0  0  0  0  0  0  0
  159.3200  213.2560  148.5530 C   0  0  2  0  0  3  0  0  0  0  0  0
  159.7780  213.0500  147.1090 C   0  0  1  0  0  3  0  0  0  0  0  0
  158.2630  214.3540  148.6170 C   0  0  0  0  0  2  0  0  0  0  0  0
  162.0060  212.3500  147.9800 C   0  0  0  0  0  2  0  0  0  0  0  0
  160.8350  211.9620  147.0690 C   0  0  0  0  0  2  0  0  0  0  0  0
  158.5880  212.6640  146.2360 C   0  0  0  0  0  2  0  0  0  0  0  0
  157.5210  213.7550  146.2960 C   0  0  0  0  0  2  0  0  0  0  0  0
  161.9650  206.5910  153.0210 N   0  0  0  0  0  2  0  0  0  0  0  0
  160.6470  209.4490  155.2310 C   0  0  0  0  0  2  0  0  0  0  0  0
  161.1670  208.7870  153.9560 C   0  0  0  0  0  2  0  0  0  0  0  0
  160.5900  206.6080  154.9980 C   0  0  0  0  0  3  0  0  0  0  0  0
  161.2810  207.2870  154.0690 C   0  0  0  0  0  0  0  0  0  0  0  0
  159.4230  208.6990  155.7330 C   0  0  0  0  0  2  0  0  0  0  0  0
  159.8380  207.2820  156.1120 C   0  0  0  0  0  2  0  0  0  0  0  0
  1 27  1  0  0  0  0
  3  4  1  6  0  0  0
  3  5  1  0  0  0  0
  3  8  1  0  0  0  0
  5  2  1  6  0  0  0
  5  9  1  0  0  0  0
  7  4  2  0  0  0  0
  7 10  1  0  0  0  0
  8  1  2  0  0  0  0
  9  1  1  0  0  0  0
  9  6  1  6  0  0  0
 10  2  2  0  0  0  0
 11  8  1  0  0  0  0
 12 13  1  6  0  0  0
 12 14  1  0  0  0  0
 12 11  1  0  0  0  0
 14 15  1  1  0  0  0
 16 14  1  0  0  0  0
 18 22  1  0  0  0  0
 19 17  1  0  0  0  0
 19 16  1  0  0  0  0
 20 22  1  6  0  0  0
 20 17  1  0  0  0  0
 21 25  1  6  0  0  0
 21 20  1  0  0  0  0
 23 19  1  0  0  0  0
 24 21  1  0  0  0  0
 24 23  1  0  0  0  0
 25 26  1  0  0  0  0
 26 18  1  0  0  0  0
 27 31  1  0  0  0  0
 28 32  1  0  0  0  0
 29 31  1  0  0  0  0
 29 28  1  0  0  0  0
 30 33  1  0  0  0  0
 31 30  2  0  0  0  0
 32 33  1  0  0  0  0
M  END
>  <MODEL>
8

>  <REMARK>
 VINA RESULT:      -6.8      1.776      5.126
  Name = 
  7 active torsions:
  status: ('A' for Active; 'I' for Inactive)
    1  A    between atoms: C_1  and  N_24
    2  A    between atoms: C_4  and  C_7
    3  A    between atoms: C_4  and  N_21
    4  A    between atoms: C_7  and  C_9
    5  A    between atoms: C_9  and  N_15
    6  A    between atoms: C_20  and  N_24
    7  A    between atoms: N_21  and  C_22
                            x       y       z     vdW  Elec       q    Type
                         _______ _______ _______ _____ _____    ______ ____

>  <TORSDO>
F 7

$$$$
=
 OpenBabel11072412283D

 33 37  0  0  1  0  0  0  0  0999 V2000
  161.3280  207.1880  150.2630 C   0  0  0  0  0  0  0  0  0  0  0  0
  160.8610  206.9540  153.6970 C   0  0  0  0  0  3  0  0  0  0  0  0
  161.9440  208.4140  152.0600 C   0  0  1  0  0  3  0  0  0  0  0  0
  161.8850  209.5240  153.0140 C   0  0  0  0  0  3  0  0  0  0  0  0
  161.8130  207.0030  152.5310 C   0  0  2  0  0  3  0  0  0  0  0  0
  160.8360  205.0350  151.2400 O   0  0  0  0  0  1  0  0  0  0  0  0
  161.2890  209.2830  154.1860 C   0  0  0  0  0  3  0  0  0  0  0  0
  161.7090  208.5080  150.7590 C   0  0  0  0  0  0  0  0  0  0  0  0
  161.3000  206.3440  151.2940 C   0  0  1  0  0  3  0  0  0  0  0  0
  160.6870  207.9990  154.4610 N   0  0  0  0  0  0  0  0  0  0  0  0
  161.5810  209.7500  150.0600 N   0  0  0  0  0  2  0  0  0  0  0  0
  161.8620  209.9080  148.6400 C   0  0  2  0  0  3  0  0  0  0  0  0
  163.0800  209.3010  148.3230 O   0  0  0  0  0  1  0  0  0  0  0  0
  161.8690  211.3900  148.2600 C   0  0  2  0  0  3  0  0  0  0  0  0
  161.5830  212.2220  149.4180 N   0  0  0  0  0  1  0  0  0  0  0  0
  160.9400  211.7430  147.0940 C   0  0  0  0  0  2  0  0  0  0  0  0
  159.9900  213.4860  145.7400 C   0  0  0  0  0  2  0  0  0  0  0  0
  159.7140  212.6120  141.9940 C   0  0  0  0  0  2  0  0  0  0  0  0
  160.9720  213.1740  146.7900 N   0  0  0  0  0  0  0  0  0  0  0  0
  160.3590  212.8560  144.3950 C   0  0  2  0  0  3  0  0  0  0  0  0
  161.7500  213.3320  143.9750 C   0  0  1  0  0  3  0  0  0  0  0  0
  159.3310  213.2360  143.3340 C   0  0  0  0  0  2  0  0  0  0  0  0
  162.3300  213.5690  146.3880 C   0  0  0  0  0  2  0  0  0  0  0  0
  162.7540  212.9540  145.0490 C   0  0  0  0  0  2  0  0  0  0  0  0
  162.1360  212.6990  142.6430 C   0  0  0  0  0  2  0  0  0  0  0  0
  161.1100  213.0680  141.5730 C   0  0  0  0  0  2  0  0  0  0  0  0
  160.8090  206.9260  148.9520 N   0  0  0  0  0  2  0  0  0  0  0  0
  161.7850  203.5820  147.3230 C   0  0  0  0  0  2  0  0  0  0  0  0
  160.9900  204.5230  148.2270 C   0  0  0  0  0  2  0  0  0  0  0  0
  161.9010  206.3940  146.8720 C   0  0  0  0  0  3  0  0  0  0  0  0
  161.3250  205.9770  148.0110 C   0  0  0  0  0  0  0  0  0  0  0  0
  161.7470  204.0950  145.8920 C   0  0  0  0  0  2  0  0  0  0  0  0
  162.4460  205.4480  145.8390 C   0  0  0  0  0  2  0  0  0  0  0  0
  1  8  2  0  0  0  0
  1  9  1  0  0  0  0
  2 10  2  0  0  0  0
  3  5  1  0  0  0  0
  3  4  1  1  0  0  0
  4  7  2  0  0  0  0
  5  2  1  1  0  0  0
  7 10  1  0  0  0  0
  8  3  1  0  0  0  0
  9  6  1  1  0  0  0
  9  5  1  0  0  0  0
 11  8  1  0  0  0  0
 12 13  1  1  0  0  0
 12 11  1  0  0  0  0
 14 12  1  0  0  0  0
 14 15  1  1  0  0  0
 16 14  1  0  0  0  0
 17 19  1  0  0  0  0
 18 22  1  0  0  0  0
 19 16  1  0  0  0  0
 20 22  1  6  0  0  0
 20 17  1  0  0  0  0
 21 25  1  6  0  0  0
 21 20  1  0  0  0  0
 21 24  1  0  0  0  0
 23 19  1  0  0  0  0
 24 23  1  0  0  0  0
 26 18  1  0  0  0  0
 26 25  1  0  0  0  0
 27  1  1  0  0  0  0
 28 29  1  0  0  0  0
 30 31  2  0  0  0  0
 31 29  1  0  0  0  0
 31 27  1  0  0  0  0
 32 28  1  0  0  0  0
 33 32  1  0  0  0  0
 33 30  1  0  0  0  0
M  END
>  <MODEL>
9

>  <REMARK>
 VINA RESULT:      -6.5      1.272      1.691
  Name = 
  7 active torsions:
  status: ('A' for Active; 'I' for Inactive)
    1  A    between atoms: C_1  and  N_24
    2  A    between atoms: C_4  and  C_7
    3  A    between atoms: C_4  and  N_21
    4  A    between atoms: C_7  and  C_9
    5  A    between atoms: C_9  and  N_15
    6  A    between atoms: C_20  and  N_24
    7  A    between atoms: N_21  and  C_22
                            x       y       z     vdW  Elec       q    Type
                         _______ _______ _______ _____ _____    ______ ____

>  <TORSDO>
F 7

$$$$
