=
 OpenBabel11072414053D

 62 72  0  0  1  0  0  0  0  0999 V2000
  162.6650  205.7170  147.2250 C   0  0  0  0  0  2  0  0  0  0  0  0
  161.9400  209.3090  150.0030 C   0  0  0  0  0  2  0  0  0  0  0  0
  161.9470  207.0080  146.8610 C   0  0  2  0  0  3  0  0  0  0  0  0
  161.4170  207.7700  148.0700 C   0  0  1  0  0  3  0  0  0  0  0  0
  160.8550  206.8490  149.1720 C   0  0  2  0  0  3  0  0  0  0  0  0
  161.2620  205.6590  146.6720 C   0  0  2  0  0  0  0  0  0  0  0  0
  162.9650  206.9870  150.6300 C   0  0  0  0  0  2  0  0  0  0  0  0
  161.8740  206.0870  150.0500 C   0  0  0  0  0  2  0  0  0  0  0  0
  162.3480  208.8810  148.5880 C   0  0  0  0  0  2  0  0  0  0  0  0
  160.3530  205.0610  147.7620 C   0  0  0  0  0  2  0  0  0  0  0  0
  159.8130  206.0210  148.6770 O   0  0  0  0  0  0  0  0  0  0  0  0
  162.4460  208.3520  151.0850 C   0  0  2  0  0  3  0  0  0  0  0  0
  159.7450  210.1660  151.9920 C   0  0  0  0  0  2  0  0  0  0  0  0
  161.3690  207.9020  156.7120 C   0  0  1  0  0  3  0  0  0  0  0  0
  159.4380  207.4790  156.3610 C   0  0  0  0  0  2  0  0  0  0  0  0
  161.8440  207.4190  153.3610 C   0  0  0  0  0  3  0  0  0  0  0  0
  160.6970  207.0360  155.6530 C   0  0  1  0  0  3  0  0  0  0  0  0
  159.5080  212.5900  151.6270 C   0  0  2  0  0  3  0  0  0  0  0  0
  161.5960  208.3150  152.3320 C   0  0  0  0  0  0  0  0  0  0  0  0
  160.8790  211.3010  156.1650 C   0  0  0  0  0  0  0  0  0  0  0  0
  159.9700  208.5260  153.8070 O   0  0  0  0  0  0  0  0  0  0  0  0
  160.1760  210.9370  154.9010 C   0  0  0  0  0  2  0  0  0  0  0  0
  160.8120  207.6250  154.2690 C   0  0  0  0  0  0  0  0  0  0  0  0
  160.1860  212.0300  153.8260 C   0  0  1  0  0  3  0  0  0  0  0  0
  160.6220  212.3850  156.7190 O   0  0  0  0  0  0  0  0  0  0  0  0
  162.1750  209.1000  156.1850 C   0  0  0  0  0  2  0  0  0  0  0  0
  158.6760  213.2710  152.6950 C   0  0  0  0  0  2  0  0  0  0  0  0
  161.7920  210.3750  156.7850 N   0  0  0  0  0  2  0  0  0  0  0  0
  160.4260  209.0100  152.6820 C   0  0  0  0  0  0  0  0  0  0  0  0
  160.1400  208.2970  157.2610 O   0  0  0  0  0  0  0  0  0  0  0  0
  160.3310  211.5590  152.3540 C   0  0  1  0  0  3  0  0  0  0  0  0
  160.3730  213.6410  150.9320 C   0  0  0  0  0  1  0  0  0  0  0  0
  159.0170  212.7910  153.9680 O   0  0  0  0  0  0  0  0  0  0  0  0
  161.1250  205.1840  145.2130 C   0  0  0  0  0  2  0  0  0  0  0  0
  161.2310  206.0930  142.8780 C   0  0  2  0  0  3  0  0  0  0  0  0
  161.9450  206.0000  144.1780 C   0  0  2  0  0  3  0  0  0  0  0  0
  162.2810  205.1750  143.0750 O   0  0  0  0  0  0  0  0  0  0  0  0
  161.6890  207.3930  142.1740 C   0  0  0  0  0  2  0  0  0  0  0  0
  161.7580  207.2030  140.6560 C   0  0  0  0  0  2  0  0  0  0  0  0
  161.3770  207.9750  138.2380 C   0  0  1  0  0  3  0  0  0  0  0  0
  161.0090  208.2320  139.7260 C   0  0  2  0  0  3  0  0  0  0  0  0
  160.9920  210.3740  138.5080 C   0  0  2  0  0  0  0  0  0  0  0  0
  161.7700  211.5380  138.3610 O   0  0  0  0  0  0  0  0  0  0  0  0
  162.9820  211.1540  137.7610 C   0  0  0  0  0  2  0  0  0  0  0  0
  162.7690  209.8470  137.0140 C   0  0  0  0  0  2  0  0  0  0  0  0
  161.4160  209.3410  137.4950 C   0  0  1  0  0  3  0  0  0  0  0  0
  159.5140  210.7230  138.2130 C   0  0  0  0  0  1  0  0  0  0  0  0
  161.2040  209.7480  139.9270 C   0  0  1  0  0  3  0  0  0  0  0  0
  160.1420  211.8570  140.6150 O   0  0  0  0  0  0  0  0  0  0  0  0
  160.9880  211.5210  141.6780 C   0  0  2  0  0  3  0  0  0  0  0  0
  160.2590  210.4650  140.9250 C   0  0  2  0  0  3  0  0  0  0  0  0
  160.0550  210.7840  143.7760 F   0  0  0  0  0  0  0  0  0  0  0  0
  160.3880  211.8840  143.0220 C   0  0  0  0  0  0  0  0  0  0  0  0
  159.2260  212.5600  142.7590 F   0  0  0  0  0  0  0  0  0  0  0  0
  162.6870  212.3790  143.5120 F   0  0  0  0  0  0  0  0  0  0  0  0
  161.2480  214.0900  143.2280 F   0  0  0  0  0  0  0  0  0  0  0  0
  161.3850  212.8000  143.7570 C   0  0  0  0  0  0  0  0  0  0  0  0
  161.1790  212.9160  145.2920 C   0  0  0  0  0  2  0  0  0  0  0  0
  160.4430  214.1400  145.7630 C   0  0  0  0  0  3  0  0  0  0  0  0
  159.3720  213.9970  146.3510 O   0  0  0  0  0  0  0  0  0  0  0  0
  162.6620  207.1260  137.9760 C   0  0  0  0  0  2  0  0  0  0  0  0
  162.3550  205.7520  138.0540 O   0  0  0  0  0  1  0  0  0  0  0  0
  2 12  1  0  0  0  0
  3  1  1  1  0  0  0
  3  4  1  0  0  0  0
  4  9  1  1  0  0  0
  4  5  1  0  0  0  0
  5  8  1  6  0  0  0
  6 34  1  6  0  0  0
  6  3  1  0  0  0  0
  6  1  1  0  0  0  0
  6 10  1  0  0  0  0
  7 12  1  0  0  0  0
  8  7  1  0  0  0  0
  9  2  1  0  0  0  0
 10 11  1  0  0  0  0
 11  5  1  0  0  0  0
 12 19  1  1  0  0  0
 13 29  1  0  0  0  0
 14 26  1  6  0  0  0
 14 30  1  0  0  0  0
 15 30  1  0  0  0  0
 16 23  2  0  0  0  0
 17 15  1  1  0  0  0
 17 14  1  0  0  0  0
 18 32  1  1  0  0  0
 18 31  1  0  0  0  0
 18 27  1  0  0  0  0
 19 29  2  0  0  0  0
 19 16  1  0  0  0  0
 20 25  2  0  0  0  0
 20 28  1  0  0  0  0
 21 23  1  0  0  0  0
 22 20  1  0  0  0  0
 23 17  1  0  0  0  0
 24 33  1  0  0  0  0
 24 22  1  1  0  0  0
 26 28  1  0  0  0  0
 27 33  1  0  0  0  0
 29 21  1  0  0  0  0
 31 13  1  1  0  0  0
 31 24  1  0  0  0  0
 35 38  1  6  0  0  0
 35 37  1  0  0  0  0
 35 36  1  0  0  0  0
 36 34  1  1  0  0  0
 37 36  1  0  0  0  0
 39 38  1  0  0  0  0
 40 61  1  1  0  0  0
 40 41  1  0  0  0  0
 41 48  1  0  0  0  0
 41 39  1  1  0  0  0
 42 47  1  6  0  0  0
 42 48  1  0  0  0  0
 43 42  1  0  0  0  0
 44 43  1  0  0  0  0
 45 44  1  0  0  0  0
 46 45  1  1  0  0  0
 46 40  1  0  0  0  0
 46 42  1  0  0  0  0
 48 51  1  1  0  0  0
 49 50  1  0  0  0  0
 50 53  1  1  0  0  0
 51 49  1  6  0  0  0
 51 50  1  0  0  0  0
 53 57  1  0  0  0  0
 53 52  1  0  0  0  0
 54 53  1  0  0  0  0
 55 57  1  0  0  0  0
 56 57  1  0  0  0  0
 57 58  1  0  0  0  0
 58 59  1  0  0  0  0
 59 60  2  0  0  0  0
 61 62  1  0  0  0  0
M  END
>  <MODEL>
1

>  <REMARK>
 VINA RESULT:      -2.2      0.000      0.000
  Name = 
  12 active torsions:
  status: ('A' for Active; 'I' for Inactive)
    1  A    between atoms: C_6  and  C_7
    2  A    between atoms: C_7  and  C_37
    3  A    between atoms: C_8  and  C_17
    4  A    between atoms: C_10  and  C_37
    5  A    between atoms: C_13  and  C_20
    6  A    between atoms: C_13  and  C_22
    7  A    between atoms: C_28  and  C_55
    8  A    between atoms: C_38  and  C_56
    9  A    between atoms: C_39  and  C_41
   10  A    between atoms: C_39  and  C_56
   11  A    between atoms: C_41  and  C_49
   12  A    between atoms: C_59  and  C_62
                            x       y       z     vdW  Elec       q    Type
                         _______ _______ _______ _____ _____    ______ ____

>  <TORSDO>
F 12

$$$$
=
 OpenBabel11072414053D

 62 72  0  0  1  0  0  0  0  0999 V2000
  160.8580  204.8860  147.9100 C   0  0  0  0  0  2  0  0  0  0  0  0
  163.0620  207.5280  150.9610 C   0  0  0  0  0  2  0  0  0  0  0  0
  162.3440  205.2120  147.9130 C   0  0  2  0  0  3  0  0  0  0  0  0
  162.6870  206.4730  148.6970 C   0  0  1  0  0  3  0  0  0  0  0  0
  161.6430  207.5960  148.5320 C   0  0  2  0  0  3  0  0  0  0  0  0
  161.4900  205.5000  146.6850 C   0  0  2  0  0  0  0  0  0  0  0  0
  160.4870  207.1120  150.7740 C   0  0  0  0  0  2  0  0  0  0  0  0
  160.3060  207.4410  149.2920 C   0  0  0  0  0  2  0  0  0  0  0  0
  163.1270  206.2270  150.1520 C   0  0  0  0  0  2  0  0  0  0  0  0
  160.8400  206.8790  146.4640 C   0  0  0  0  0  2  0  0  0  0  0  0
  161.4730  207.9530  147.1680 O   0  0  0  0  0  0  0  0  0  0  0  0
  161.6440  207.8710  151.4250 C   0  0  2  0  0  3  0  0  0  0  0  0
  162.3530  209.9220  154.0150 C   0  0  0  0  0  2  0  0  0  0  0  0
  158.7130  212.8040  151.1000 C   0  0  1  0  0  3  0  0  0  0  0  0
  160.3860  213.8770  151.3890 C   0  0  0  0  0  2  0  0  0  0  0  0
  160.7870  210.1240  150.6480 C   0  0  0  0  0  3  0  0  0  0  0  0
  160.1330  212.6300  150.5730 C   0  0  1  0  0  3  0  0  0  0  0  0
  162.0660  209.3220  156.3860 C   0  0  2  0  0  3  0  0  0  0  0  0
  161.3930  209.3470  151.6230 C   0  0  0  0  0  0  0  0  0  0  0  0
  158.4430  212.0390  154.4820 C   0  0  0  0  0  0  0  0  0  0  0  0
  161.4460  211.4410  152.3110 O   0  0  0  0  0  0  0  0  0  0  0  0
  159.8780  211.6340  154.4460 C   0  0  0  0  0  2  0  0  0  0  0  0
  160.8190  211.4190  151.1530 C   0  0  0  0  0  0  0  0  0  0  0  0
  160.2830  210.6170  155.5190 C   0  0  1  0  0  3  0  0  0  0  0  0
  157.9340  212.3970  155.5590 O   0  0  0  0  0  0  0  0  0  0  0  0
  158.1770  211.6570  151.9710 C   0  0  0  0  0  2  0  0  0  0  0  0
  161.7180  210.5110  157.2590 C   0  0  0  0  0  2  0  0  0  0  0  0
  157.6680  212.0910  153.2680 N   0  0  0  0  0  2  0  0  0  0  0  0
  161.7540  210.2210  152.6620 C   0  0  0  0  0  0  0  0  0  0  0  0
  159.0680  213.9230  151.8680 O   0  0  0  0  0  0  0  0  0  0  0  0
  161.3110  209.5320  155.1000 C   0  0  1  0  0  3  0  0  0  0  0  0
  161.6450  208.0420  157.1060 C   0  0  0  0  0  1  0  0  0  0  0  0
  160.7650  211.3250  156.6300 O   0  0  0  0  0  0  0  0  0  0  0  0
  161.7110  204.5550  145.4870 C   0  0  0  0  0  2  0  0  0  0  0  0
  161.7990  206.1740  143.5750 C   0  0  2  0  0  3  0  0  0  0  0  0
  161.0640  205.0210  144.1560 C   0  0  2  0  0  3  0  0  0  0  0  0
  160.5990  206.3530  144.2890 O   0  0  0  0  0  0  0  0  0  0  0  0
  161.5920  206.1490  142.0420 C   0  0  0  0  0  2  0  0  0  0  0  0
  162.0430  207.4650  141.4020 C   0  0  0  0  0  2  0  0  0  0  0  0
  161.2840  207.4430  138.9500 C   0  0  1  0  0  3  0  0  0  0  0  0
  161.1140  208.1460  140.3260 C   0  0  2  0  0  3  0  0  0  0  0  0
  160.8060  209.8030  138.5300 C   0  0  2  0  0  0  0  0  0  0  0  0
  161.4880  210.8720  137.9180 O   0  0  0  0  0  0  0  0  0  0  0  0
  162.6240  210.3340  137.2880 C   0  0  0  0  0  2  0  0  0  0  0  0
  162.3820  208.8570  137.0180 C   0  0  0  0  0  2  0  0  0  0  0  0
  161.1410  208.5110  137.8280 C   0  0  1  0  0  3  0  0  0  0  0  0
  159.2840  210.0290  138.3690 C   0  0  0  0  0  1  0  0  0  0  0  0
  161.2500  209.6510  140.0220 C   0  0  1  0  0  3  0  0  0  0  0  0
  160.5870  211.9820  140.4410 O   0  0  0  0  0  0  0  0  0  0  0  0
  161.2990  211.6050  141.5840 C   0  0  2  0  0  3  0  0  0  0  0  0
  160.4150  210.6330  140.8840 C   0  0  2  0  0  3  0  0  0  0  0  0
  160.0800  211.2880  143.6410 F   0  0  0  0  0  0  0  0  0  0  0  0
  160.7160  212.2110  142.8460 C   0  0  0  0  0  0  0  0  0  0  0  0
  159.7700  213.1150  142.4410 F   0  0  0  0  0  0  0  0  0  0  0  0
  163.0800  212.3830  143.2370 F   0  0  0  0  0  0  0  0  0  0  0  0
  161.8490  214.2700  143.1970 F   0  0  0  0  0  0  0  0  0  0  0  0
  161.8530  212.9280  143.5990 C   0  0  0  0  0  0  0  0  0  0  0  0
  161.7390  212.9180  145.1480 C   0  0  0  0  0  2  0  0  0  0  0  0
  160.5430  213.6280  145.7210 C   0  0  0  0  0  3  0  0  0  0  0  0
  160.6730  214.2460  146.7770 O   0  0  0  0  0  0  0  0  0  0  0  0
  162.5650  206.5680  138.7690 C   0  0  0  0  0  2  0  0  0  0  0  0
  162.4390  205.7620  137.6190 O   0  0  0  0  0  1  0  0  0  0  0  0
  2 12  1  0  0  0  0
  3  1  1  1  0  0  0
  3  4  1  0  0  0  0
  4  9  1  1  0  0  0
  5  4  1  0  0  0  0
  5  8  1  6  0  0  0
  6 34  1  6  0  0  0
  6  1  1  0  0  0  0
  6  3  1  0  0  0  0
  7 12  1  0  0  0  0
  8  7  1  0  0  0  0
  9  2  1  0  0  0  0
 10  6  1  0  0  0  0
 10 11  1  0  0  0  0
 11  5  1  0  0  0  0
 12 19  1  6  0  0  0
 14 30  1  0  0  0  0
 14 26  1  1  0  0  0
 15 30  1  0  0  0  0
 16 23  2  0  0  0  0
 16 19  1  0  0  0  0
 17 14  1  0  0  0  0
 17 23  1  0  0  0  0
 17 15  1  1  0  0  0
 18 32  1  1  0  0  0
 18 27  1  0  0  0  0
 19 29  2  0  0  0  0
 20 25  2  0  0  0  0
 21 29  1  0  0  0  0
 22 20  1  0  0  0  0
 23 21  1  0  0  0  0
 24 22  1  6  0  0  0
 24 33  1  0  0  0  0
 26 28  1  0  0  0  0
 28 20  1  0  0  0  0
 29 13  1  0  0  0  0
 31 13  1  6  0  0  0
 31 24  1  0  0  0  0
 31 18  1  0  0  0  0
 33 27  1  0  0  0  0
 35 38  1  6  0  0  0
 35 36  1  0  0  0  0
 35 37  1  0  0  0  0
 36 37  1  0  0  0  0
 36 34  1  1  0  0  0
 39 38  1  0  0  0  0
 40 61  1  1  0  0  0
 40 41  1  0  0  0  0
 41 39  1  1  0  0  0
 42 47  1  6  0  0  0
 42 48  1  0  0  0  0
 43 42  1  0  0  0  0
 44 43  1  0  0  0  0
 45 44  1  0  0  0  0
 46 45  1  1  0  0  0
 46 42  1  0  0  0  0
 46 40  1  0  0  0  0
 48 41  1  0  0  0  0
 48 51  1  1  0  0  0
 49 50  1  0  0  0  0
 50 53  1  1  0  0  0
 51 49  1  6  0  0  0
 51 50  1  0  0  0  0
 53 57  1  0  0  0  0
 53 52  1  0  0  0  0
 54 53  1  0  0  0  0
 55 57  1  0  0  0  0
 56 57  1  0  0  0  0
 57 58  1  0  0  0  0
 58 59  1  0  0  0  0
 59 60  2  0  0  0  0
 62 61  1  0  0  0  0
M  END
>  <MODEL>
2

>  <REMARK>
 VINA RESULT:       0.7      1.465      3.277
  Name = 
  12 active torsions:
  status: ('A' for Active; 'I' for Inactive)
    1  A    between atoms: C_6  and  C_7
    2  A    between atoms: C_7  and  C_37
    3  A    between atoms: C_8  and  C_17
    4  A    between atoms: C_10  and  C_37
    5  A    between atoms: C_13  and  C_20
    6  A    between atoms: C_13  and  C_22
    7  A    between atoms: C_28  and  C_55
    8  A    between atoms: C_38  and  C_56
    9  A    between atoms: C_39  and  C_41
   10  A    between atoms: C_39  and  C_56
   11  A    between atoms: C_41  and  C_49
   12  A    between atoms: C_59  and  C_62
                            x       y       z     vdW  Elec       q    Type
                         _______ _______ _______ _____ _____    ______ ____

>  <TORSDO>
F 12

$$$$
