=
 OpenBabel11072414103D

 28 31  0  0  1  0  0  0  0  0999 V2000
  161.4380  207.1740  151.5990 C   0  0  1  0  0  3  0  0  0  0  0  0
  161.2490  207.6840  153.9530 O   0  0  0  0  0  0  0  0  0  0  0  0
  160.5980  207.8270  152.7010 C   0  0  1  0  0  3  0  0  0  0  0  0
  160.3180  209.3060  152.4300 C   0  0  0  0  0  2  0  0  0  0  0  0
  162.2850  210.4910  154.9920 C   0  0  0  0  0  3  0  0  0  0  0  0
  160.6550  209.8740  153.7270 C   0  0  2  0  0  3  0  0  0  0  0  0
  161.9790  209.3350  155.4810 N   0  0  0  0  0  0  0  0  0  0  0  0
  161.5090  210.8300  153.8510 N   0  0  0  0  0  2  0  0  0  0  0  0
  160.8690  208.8090  154.7030 C   0  0  2  0  0  3  0  0  0  0  0  0
  160.8220  203.6500  150.2690 C   0  0  0  0  0  0  0  0  0  0  0  0
  161.2400  205.6900  151.5320 C   0  0  0  0  0  0  0  0  0  0  0  0
  160.8460  202.9180  151.4610 C   0  0  0  0  0  3  0  0  0  0  0  0
  161.2620  204.9460  152.7160 C   0  0  0  0  0  3  0  0  0  0  0  0
  161.0670  203.5630  152.6810 C   0  0  0  0  0  3  0  0  0  0  0  0
  161.0170  205.0400  150.3100 C   0  0  0  0  0  3  0  0  0  0  0  0
  160.5950  202.9760  149.0650 O   0  0  0  0  0  0  0  0  0  0  0  0
  160.4660  201.5610  148.9790 C   0  0  0  0  0  2  0  0  0  0  0  0
  161.4650  201.0480  148.1710 F   0  0  0  0  0  0  0  0  0  0  0  0
  161.2020  207.7980  150.3010 N   0  0  0  0  0  2  0  0  0  0  0  0
  162.5000  208.1200  149.7320 C   0  0  0  0  0  2  0  0  0  0  0  0
  162.5770  207.6130  148.3060 C   0  0  0  0  0  2  0  0  0  0  0  0
  161.1740  207.4290  147.7610 C   0  0  0  0  0  2  0  0  0  0  0  0
  162.4380  205.4740  146.8980 C   0  0  0  0  0  2  0  0  0  0  0  0
  160.5630  205.0710  144.7860 C   0  0  0  0  0  3  0  0  0  0  0  0
  160.4590  206.3090  145.6410 C   0  0  0  0  0  2  0  0  0  0  0  0
  161.0570  206.1000  147.0350 C   0  0  2  0  0  3  0  0  0  0  0  0
  161.4360  204.0860  145.0490 C   0  0  0  0  0  3  0  0  0  0  0  0
  162.3040  204.0830  146.2820 C   0  0  0  0  0  2  0  0  0  0  0  0
  1 19  1  6  0  0  0
  3  1  1  6  0  0  0
  3  2  1  0  0  0  0
  4  3  1  0  0  0  0
  5  7  2  0  0  0  0
  6  4  1  6  0  0  0
  6  8  1  0  0  0  0
  6  9  1  0  0  0  0
  8  5  1  0  0  0  0
  9  2  1  6  0  0  0
  9  7  1  0  0  0  0
 10 15  2  0  0  0  0
 10 12  1  0  0  0  0
 11  1  1  0  0  0  0
 11 13  2  0  0  0  0
 12 14  2  0  0  0  0
 14 13  1  0  0  0  0
 15 11  1  0  0  0  0
 16 10  1  0  0  0  0
 17 16  1  0  0  0  0
 18 17  1  0  0  0  0
 20 19  1  0  0  0  0
 21 20  1  0  0  0  0
 22 21  1  0  0  0  0
 23 26  1  0  0  0  0
 24 27  2  0  0  0  0
 24 25  1  0  0  0  0
 25 26  1  0  0  0  0
 26 22  1  6  0  0  0
 27 28  1  0  0  0  0
 28 23  1  0  0  0  0
M  END
>  <MODEL>
1

>  <REMARK>
 VINA RESULT:      -8.3      0.000      0.000
  Name = 
  9 active torsions:
  status: ('A' for Active; 'I' for Inactive)
    1  A    between atoms: C_3  and  O_21
    2  A    between atoms: C_5  and  C_8
    3  A    between atoms: C_6  and  O_21
    4  A    between atoms: C_8  and  C_9
    5  A    between atoms: C_8  and  N_26
    6  A    between atoms: C_13  and  C_18
    7  A    between atoms: C_18  and  C_27
    8  A    between atoms: C_25  and  N_26
    9  A    between atoms: C_25  and  C_27
                            x       y       z     vdW  Elec       q    Type
                         _______ _______ _______ _____ _____    ______ ____

>  <TORSDO>
F 9

$$$$
=
 OpenBabel11072414103D

 28 31  0  0  1  0  0  0  0  0999 V2000
  160.5560  205.9770  149.1170 C   0  0  1  0  0  3  0  0  0  0  0  0
  162.0900  204.9140  147.5820 O   0  0  0  0  0  0  0  0  0  0  0  0
  161.5260  206.1640  147.9450 C   0  0  1  0  0  3  0  0  0  0  0  0
  160.8590  206.8040  146.7260 C   0  0  0  0  0  2  0  0  0  0  0  0
  161.0170  203.9940  144.7470 C   0  0  0  0  0  3  0  0  0  0  0  0
  161.3290  205.9110  145.6770 C   0  0  2  0  0  3  0  0  0  0  0  0
  162.0320  203.7660  145.5150 N   0  0  0  0  0  0  0  0  0  0  0  0
  160.5160  205.3180  144.8720 N   0  0  0  0  0  2  0  0  0  0  0  0
  162.3480  205.0070  146.2040 C   0  0  2  0  0  3  0  0  0  0  0  0
  160.9540  202.2570  149.8730 C   0  0  0  0  0  0  0  0  0  0  0  0
  160.7810  204.6870  149.8450 C   0  0  0  0  0  0  0  0  0  0  0  0
  161.1770  202.2980  151.2530 C   0  0  0  0  0  3  0  0  0  0  0  0
  161.0050  204.7140  151.2250 C   0  0  0  0  0  3  0  0  0  0  0  0
  161.2040  203.5230  151.9270 C   0  0  0  0  0  3  0  0  0  0  0  0
  160.7530  203.4570  149.1710 C   0  0  0  0  0  3  0  0  0  0  0  0
  160.9290  201.0170  149.2270 O   0  0  0  0  0  0  0  0  0  0  0  0
  161.1000  200.8690  147.8220 C   0  0  0  0  0  2  0  0  0  0  0  0
  161.6610  199.6360  147.5460 F   0  0  0  0  0  0  0  0  0  0  0  0
  160.5910  207.1140  150.0310 N   0  0  0  0  0  2  0  0  0  0  0  0
  161.9320  207.6710  149.9790 C   0  0  0  0  0  2  0  0  0  0  0  0
  162.3530  208.1300  151.3610 C   0  0  0  0  0  2  0  0  0  0  0  0
  161.4190  209.2280  151.8330 C   0  0  0  0  0  2  0  0  0  0  0  0
  160.9460  209.7750  154.2090 C   0  0  0  0  0  2  0  0  0  0  0  0
  160.6230  207.0210  154.8790 C   0  0  0  0  0  3  0  0  0  0  0  0
  161.1340  207.3940  153.5100 C   0  0  0  0  0  2  0  0  0  0  0  0
  160.6730  208.7890  153.0800 C   0  0  2  0  0  3  0  0  0  0  0  0
  160.2000  207.9380  155.7630 C   0  0  0  0  0  3  0  0  0  0  0  0
  160.0970  209.4030  155.4220 C   0  0  0  0  0  2  0  0  0  0  0  0
  1 11  1  0  0  0  0
  1 19  1  1  0  0  0
  2  3  1  0  0  0  0
  3  1  1  1  0  0  0
  4  3  1  0  0  0  0
  5  8  1  0  0  0  0
  5  7  2  0  0  0  0
  6  9  1  0  0  0  0
  6  4  1  1  0  0  0
  8  6  1  0  0  0  0
  9  7  1  6  0  0  0
  9  2  1  0  0  0  0
 10 12  1  0  0  0  0
 11 13  2  0  0  0  0
 12 14  2  0  0  0  0
 13 14  1  0  0  0  0
 15 11  1  0  0  0  0
 15 10  2  0  0  0  0
 16 10  1  0  0  0  0
 17 16  1  0  0  0  0
 18 17  1  0  0  0  0
 20 19  1  0  0  0  0
 20 21  1  0  0  0  0
 21 22  1  0  0  0  0
 23 28  1  0  0  0  0
 24 27  2  0  0  0  0
 25 24  1  0  0  0  0
 26 22  1  6  0  0  0
 26 25  1  0  0  0  0
 26 23  1  0  0  0  0
 28 27  1  0  0  0  0
M  END
>  <MODEL>
2

>  <REMARK>
 VINA RESULT:      -8.2      2.300      6.740
  Name = 
  9 active torsions:
  status: ('A' for Active; 'I' for Inactive)
    1  A    between atoms: C_3  and  O_21
    2  A    between atoms: C_5  and  C_8
    3  A    between atoms: C_6  and  O_21
    4  A    between atoms: C_8  and  C_9
    5  A    between atoms: C_8  and  N_26
    6  A    between atoms: C_13  and  C_18
    7  A    between atoms: C_18  and  C_27
    8  A    between atoms: C_25  and  N_26
    9  A    between atoms: C_25  and  C_27
                            x       y       z     vdW  Elec       q    Type
                         _______ _______ _______ _____ _____    ______ ____

>  <TORSDO>
F 9

$$$$
=
 OpenBabel11072414103D

 28 31  0  0  1  0  0  0  0  0999 V2000
  160.7520  205.0600  149.4540 C   0  0  1  0  0  3  0  0  0  0  0  0
  162.3100  205.0110  147.6070 O   0  0  0  0  0  0  0  0  0  0  0  0
  161.5210  205.8750  148.4090 C   0  0  1  0  0  3  0  0  0  0  0  0
  160.5980  206.7080  147.5170 C   0  0  0  0  0  2  0  0  0  0  0  0
  161.1710  204.8870  144.6550 C   0  0  0  0  0  3  0  0  0  0  0  0
  161.1410  206.3790  146.2070 C   0  0  2  0  0  3  0  0  0  0  0  0
  162.2880  204.6700  145.2670 N   0  0  0  0  0  0  0  0  0  0  0  0
  160.4000  205.9160  145.2600 N   0  0  0  0  0  2  0  0  0  0  0  0
  162.3890  205.6340  146.3510 C   0  0  2  0  0  3  0  0  0  0  0  0
  160.9760  201.6530  147.7480 C   0  0  0  0  0  0  0  0  0  0  0  0
  160.8750  203.5840  149.2300 C   0  0  0  0  0  0  0  0  0  0  0  0
  161.0750  200.8140  148.8630 C   0  0  0  0  0  3  0  0  0  0  0  0
  160.9740  202.7340  150.3360 C   0  0  0  0  0  3  0  0  0  0  0  0
  161.0760  201.3520  150.1530 C   0  0  0  0  0  3  0  0  0  0  0  0
  160.8730  203.0410  147.9370 C   0  0  0  0  0  3  0  0  0  0  0  0
  160.9740  201.0850  146.4710 O   0  0  0  0  0  0  0  0  0  0  0  0
  160.2410  201.6300  145.3790 C   0  0  0  0  0  2  0  0  0  0  0  0
  159.8860  200.6210  144.5030 F   0  0  0  0  0  0  0  0  0  0  0  0
  161.1410  205.4240  150.8120 N   0  0  0  0  0  2  0  0  0  0  0  0
  161.9820  206.6060  150.7210 C   0  0  0  0  0  2  0  0  0  0  0  0
  161.7240  207.5140  151.9070 C   0  0  0  0  0  2  0  0  0  0  0  0
  161.0220  206.7290  152.9990 C   0  0  0  0  0  2  0  0  0  0  0  0
  160.1350  206.8540  155.3150 C   0  0  0  0  0  2  0  0  0  0  0  0
  160.6220  209.6610  155.4530 C   0  0  0  0  0  3  0  0  0  0  0  0
  160.7950  208.9440  154.1370 C   0  0  0  0  0  2  0  0  0  0  0  0
  161.1210  207.4600  154.3260 C   0  0  2  0  0  3  0  0  0  0  0  0
  160.3590  209.0110  156.5970 C   0  0  0  0  0  3  0  0  0  0  0  0
  160.3240  207.5060  156.6830 C   0  0  0  0  0  2  0  0  0  0  0  0
  1 19  1  1  0  0  0
  2  3  1  0  0  0  0
  3  1  1  1  0  0  0
  4  3  1  0  0  0  0
  5  8  1  0  0  0  0
  5  7  2  0  0  0  0
  6  9  1  0  0  0  0
  6  4  1  1  0  0  0
  8  6  1  0  0  0  0
  9  7  1  6  0  0  0
  9  2  1  0  0  0  0
 10 15  2  0  0  0  0
 10 12  1  0  0  0  0
 11  1  1  0  0  0  0
 11 13  2  0  0  0  0
 12 14  2  0  0  0  0
 14 13  1  0  0  0  0
 15 11  1  0  0  0  0
 16 10  1  0  0  0  0
 17 16  1  0  0  0  0
 18 17  1  0  0  0  0
 20 19  1  0  0  0  0
 20 21  1  0  0  0  0
 21 22  1  0  0  0  0
 23 28  1  0  0  0  0
 24 27  2  0  0  0  0
 25 26  1  0  0  0  0
 25 24  1  0  0  0  0
 26 22  1  6  0  0  0
 26 23  1  0  0  0  0
 27 28  1  0  0  0  0
M  END
>  <MODEL>
3

>  <REMARK>
 VINA RESULT:      -8.1      2.645      7.100
  Name = 
  9 active torsions:
  status: ('A' for Active; 'I' for Inactive)
    1  A    between atoms: C_3  and  O_21
    2  A    between atoms: C_5  and  C_8
    3  A    between atoms: C_6  and  O_21
    4  A    between atoms: C_8  and  C_9
    5  A    between atoms: C_8  and  N_26
    6  A    between atoms: C_13  and  C_18
    7  A    between atoms: C_18  and  C_27
    8  A    between atoms: C_25  and  N_26
    9  A    between atoms: C_25  and  C_27
                            x       y       z     vdW  Elec       q    Type
                         _______ _______ _______ _____ _____    ______ ____

>  <TORSDO>
F 9

$$$$
=
 OpenBabel11072414103D

 28 31  0  0  1  0  0  0  0  0999 V2000
  161.0680  207.7210  152.4830 C   0  0  1  0  0  3  0  0  0  0  0  0
  160.3240  209.9710  152.9550 O   0  0  0  0  0  0  0  0  0  0  0  0
  161.2990  208.9990  153.2960 C   0  0  1  0  0  3  0  0  0  0  0  0
  161.2750  208.7490  154.8050 C   0  0  0  0  0  2  0  0  0  0  0  0
  158.3350  210.4430  155.3750 C   0  0  0  0  0  3  0  0  0  0  0  0
  160.3940  209.8260  155.2300 C   0  0  2  0  0  3  0  0  0  0  0  0
  158.7380  211.0730  154.3210 N   0  0  0  0  0  0  0  0  0  0  0  0
  159.3370  209.6040  155.9340 N   0  0  0  0  0  2  0  0  0  0  0  0
  160.1390  210.7370  154.1180 C   0  0  2  0  0  3  0  0  0  0  0  0
  160.9280  207.2730  148.6960 C   0  0  0  0  0  0  0  0  0  0  0  0
  161.2770  207.9310  151.0150 C   0  0  0  0  0  0  0  0  0  0  0  0
  161.7220  208.3470  148.2810 C   0  0  0  0  0  3  0  0  0  0  0  0
  162.0700  209.0010  150.5860 C   0  0  0  0  0  3  0  0  0  0  0  0
  162.2900  209.2100  149.2230 C   0  0  0  0  0  3  0  0  0  0  0  0
  160.7100  207.0670  150.0680 C   0  0  0  0  0  3  0  0  0  0  0  0
  160.3760  206.4250  147.7300 O   0  0  0  0  0  0  0  0  0  0  0  0
  160.9050  206.2990  146.4150 C   0  0  0  0  0  2  0  0  0  0  0  0
  159.8710  206.2320  145.4980 F   0  0  0  0  0  0  0  0  0  0  0  0
  161.8760  206.6130  152.9800 N   0  0  0  0  0  2  0  0  0  0  0  0
  161.0530  205.4160  152.9230 C   0  0  0  0  0  2  0  0  0  0  0  0
  161.6920  204.3960  152.0010 C   0  0  0  0  0  2  0  0  0  0  0  0
  160.8350  203.1450  151.9630 C   0  0  0  0  0  2  0  0  0  0  0  0
  161.1690  201.3220  150.3110 C   0  0  0  0  0  2  0  0  0  0  0  0
  161.2680  203.1740  148.1440 C   0  0  0  0  0  3  0  0  0  0  0  0
  161.2570  203.6930  149.5590 C   0  0  0  0  0  2  0  0  0  0  0  0
  160.5890  202.7130  150.5290 C   0  0  2  0  0  3  0  0  0  0  0  0
  161.1160  201.8720  147.8530 C   0  0  0  0  0  3  0  0  0  0  0  0
  160.8110  200.8380  148.9070 C   0  0  0  0  0  2  0  0  0  0  0  0
  1 19  1  1  0  0  0
  2  3  1  0  0  0  0
  3  1  1  6  0  0  0
  3  4  1  0  0  0  0
  5  8  1  0  0  0  0
  6  4  1  6  0  0  0
  6  8  1  0  0  0  0
  7  5  2  0  0  0  0
  9  2  1  6  0  0  0
  9  7  1  0  0  0  0
  9  6  1  0  0  0  0
 10 15  1  0  0  0  0
 11  1  1  0  0  0  0
 12 10  2  0  0  0  0
 12 14  1  0  0  0  0
 13 11  1  0  0  0  0
 14 13  2  0  0  0  0
 15 11  2  0  0  0  0
 16 10  1  0  0  0  0
 17 16  1  0  0  0  0
 18 17  1  0  0  0  0
 20 19  1  0  0  0  0
 21 20  1  0  0  0  0
 22 21  1  0  0  0  0
 23 26  1  0  0  0  0
 24 25  1  0  0  0  0
 25 26  1  0  0  0  0
 26 22  1  1  0  0  0
 27 24  2  0  0  0  0
 27 28  1  0  0  0  0
 28 23  1  0  0  0  0
M  END
>  <MODEL>
4

>  <REMARK>
 VINA RESULT:      -7.8      2.089      4.192
  Name = 
  9 active torsions:
  status: ('A' for Active; 'I' for Inactive)
    1  A    between atoms: C_3  and  O_21
    2  A    between atoms: C_5  and  C_8
    3  A    between atoms: C_6  and  O_21
    4  A    between atoms: C_8  and  C_9
    5  A    between atoms: C_8  and  N_26
    6  A    between atoms: C_13  and  C_18
    7  A    between atoms: C_18  and  C_27
    8  A    between atoms: C_25  and  N_26
    9  A    between atoms: C_25  and  C_27
                            x       y       z     vdW  Elec       q    Type
                         _______ _______ _______ _____ _____    ______ ____

>  <TORSDO>
F 9

$$$$
=
 OpenBabel11072414103D

 28 31  0  0  1  0  0  0  0  0999 V2000
  162.3440  207.5060  151.0380 C   0  0  1  0  0  3  0  0  0  0  0  0
  160.6110  208.2510  152.5480 O   0  0  0  0  0  0  0  0  0  0  0  0
  161.4030  208.6460  151.4390 C   0  0  1  0  0  3  0  0  0  0  0  0
  162.1520  209.9380  151.7730 C   0  0  0  0  0  2  0  0  0  0  0  0
  161.4420  209.8740  155.1380 C   0  0  0  0  0  3  0  0  0  0  0  0
  161.5050  210.2930  153.0270 C   0  0  2  0  0  3  0  0  0  0  0  0
  160.4180  209.2210  154.6960 N   0  0  0  0  0  0  0  0  0  0  0  0
  162.1800  210.5100  154.1030 N   0  0  0  0  0  2  0  0  0  0  0  0
  160.3490  209.4330  153.2590 C   0  0  2  0  0  3  0  0  0  0  0  0
  160.8820  203.9860  150.8390 C   0  0  0  0  0  0  0  0  0  0  0  0
  161.8100  206.1610  151.4250 C   0  0  0  0  0  0  0  0  0  0  0  0
  160.7910  203.6690  152.1980 C   0  0  0  0  0  3  0  0  0  0  0  0
  161.7130  205.8310  152.7800 C   0  0  0  0  0  3  0  0  0  0  0  0
  161.2060  204.5880  153.1660 C   0  0  0  0  0  3  0  0  0  0  0  0
  161.3920  205.2380  150.4560 C   0  0  0  0  0  3  0  0  0  0  0  0
  160.4550  203.0480  149.8940 O   0  0  0  0  0  0  0  0  0  0  0  0
  160.5310  201.6430  150.1060 C   0  0  0  0  0  2  0  0  0  0  0  0
  160.8420  201.0060  148.9180 F   0  0  0  0  0  0  0  0  0  0  0  0
  162.6750  207.5550  149.6170 N   0  0  0  0  0  2  0  0  0  0  0  0
  161.4770  207.9710  148.9070 C   0  0  0  0  0  2  0  0  0  0  0  0
  161.4770  207.3830  147.5100 C   0  0  0  0  0  2  0  0  0  0  0  0
  162.5720  206.3390  147.4030 C   0  0  0  0  0  2  0  0  0  0  0  0
  160.9640  205.7340  145.6110 C   0  0  0  0  0  2  0  0  0  0  0  0
  161.2740  202.9480  146.1400 C   0  0  0  0  0  3  0  0  0  0  0  0
  161.8990  203.9520  147.0750 C   0  0  0  0  0  2  0  0  0  0  0  0
  162.1990  205.2820  146.3790 C   0  0  2  0  0  3  0  0  0  0  0  0
  160.6710  203.3080  144.9960 C   0  0  0  0  0  3  0  0  0  0  0  0
  160.6650  204.7310  144.4980 C   0  0  0  0  0  2  0  0  0  0  0  0
  1 19  1  6  0  0  0
  1 11  1  0  0  0  0
  3  1  1  1  0  0  0
  3  4  1  0  0  0  0
  3  2  1  0  0  0  0
  6  4  1  6  0  0  0
  6  9  1  0  0  0  0
  6  8  1  0  0  0  0
  7  5  2  0  0  0  0
  8  5  1  0  0  0  0
  9  2  1  6  0  0  0
  9  7  1  0  0  0  0
 10 12  1  0  0  0  0
 11 13  2  0  0  0  0
 12 14  2  0  0  0  0
 13 14  1  0  0  0  0
 15 10  2  0  0  0  0
 15 11  1  0  0  0  0
 16 17  1  0  0  0  0
 16 10  1  0  0  0  0
 18 17  1  0  0  0  0
 20 19  1  0  0  0  0
 21 20  1  0  0  0  0
 22 21  1  0  0  0  0
 23 26  1  0  0  0  0
 24 25  1  0  0  0  0
 26 25  1  0  0  0  0
 26 22  1  1  0  0  0
 27 24  2  0  0  0  0
 28 27  1  0  0  0  0
 28 23  1  0  0  0  0
M  END
>  <MODEL>
5

>  <REMARK>
 VINA RESULT:      -7.6      1.101      1.552
  Name = 
  9 active torsions:
  status: ('A' for Active; 'I' for Inactive)
    1  A    between atoms: C_3  and  O_21
    2  A    between atoms: C_5  and  C_8
    3  A    between atoms: C_6  and  O_21
    4  A    between atoms: C_8  and  C_9
    5  A    between atoms: C_8  and  N_26
    6  A    between atoms: C_13  and  C_18
    7  A    between atoms: C_18  and  C_27
    8  A    between atoms: C_25  and  N_26
    9  A    between atoms: C_25  and  C_27
                            x       y       z     vdW  Elec       q    Type
                         _______ _______ _______ _____ _____    ______ ____

>  <TORSDO>
F 9

$$$$
=
 OpenBabel11072414103D

 28 31  0  0  1  0  0  0  0  0999 V2000
  160.9340  206.8490  153.6490 C   0  0  1  0  0  3  0  0  0  0  0  0
  161.9760  208.2400  155.3280 O   0  0  0  0  0  0  0  0  0  0  0  0
  161.0630  207.1700  155.1420 C   0  0  1  0  0  3  0  0  0  0  0  0
  159.7200  207.5170  155.7870 C   0  0  0  0  0  2  0  0  0  0  0  0
  160.4540  210.8370  156.3130 C   0  0  0  0  0  3  0  0  0  0  0  0
  160.0890  208.7240  156.5130 C   0  0  2  0  0  3  0  0  0  0  0  0
  161.6510  210.3520  156.3420 N   0  0  0  0  0  0  0  0  0  0  0  0
  159.4500  209.8330  156.3580 N   0  0  0  0  0  2  0  0  0  0  0  0
  161.5370  208.9090  156.4820 C   0  0  2  0  0  3  0  0  0  0  0  0
  160.8160  210.3860  152.2200 C   0  0  0  0  0  0  0  0  0  0  0  0
  161.1870  208.0450  152.7830 C   0  0  0  0  0  0  0  0  0  0  0  0
  161.6650  210.2450  151.1170 C   0  0  0  0  0  3  0  0  0  0  0  0
  162.0330  207.9190  151.6770 C   0  0  0  0  0  3  0  0  0  0  0  0
  162.2730  209.0160  150.8470 C   0  0  0  0  0  3  0  0  0  0  0  0
  160.5770  209.2790  153.0510 C   0  0  0  0  0  3  0  0  0  0  0  0
  160.2200  211.6270  152.4630 O   0  0  0  0  0  0  0  0  0  0  0  0
  158.8130  211.8370  152.4070 C   0  0  0  0  0  2  0  0  0  0  0  0
  158.2580  211.6270  153.6560 F   0  0  0  0  0  0  0  0  0  0  0  0
  161.7850  205.7270  153.2640 N   0  0  0  0  0  2  0  0  0  0  0  0
  160.9110  204.6460  152.8410 C   0  0  0  0  0  2  0  0  0  0  0  0
  161.5150  203.9330  151.6480 C   0  0  0  0  0  2  0  0  0  0  0  0
  160.5930  204.0830  150.4520 C   0  0  0  0  0  2  0  0  0  0  0  0
  160.4430  206.0750  148.9770 C   0  0  0  0  0  2  0  0  0  0  0  0
  161.8940  204.7660  146.8990 C   0  0  0  0  0  3  0  0  0  0  0  0
  161.4570  203.9750  148.1070 C   0  0  0  0  0  2  0  0  0  0  0  0
  161.2840  204.8600  149.3450 C   0  0  2  0  0  3  0  0  0  0  0  0
  161.7300  206.0950  146.8110 C   0  0  0  0  0  3  0  0  0  0  0  0
  161.1980  206.9220  147.9540 C   0  0  0  0  0  2  0  0  0  0  0  0
  1 19  1  6  0  0  0
  3  1  1  6  0  0  0
  3  2  1  0  0  0  0
  3  4  1  0  0  0  0
  5  7  2  0  0  0  0
  5  8  1  0  0  0  0
  6  4  1  6  0  0  0
  7  9  1  0  0  0  0
  8  6  1  0  0  0  0
  9  2  1  6  0  0  0
  9  6  1  0  0  0  0
 10 16  1  0  0  0  0
 10 15  1  0  0  0  0
 11 15  2  0  0  0  0
 11  1  1  0  0  0  0
 12 10  2  0  0  0  0
 13 11  1  0  0  0  0
 14 12  1  0  0  0  0
 14 13  2  0  0  0  0
 17 16  1  0  0  0  0
 17 18  1  0  0  0  0
 20 19  1  0  0  0  0
 21 20  1  0  0  0  0
 22 21  1  0  0  0  0
 23 26  1  0  0  0  0
 24 25  1  0  0  0  0
 25 26  1  0  0  0  0
 26 22  1  1  0  0  0
 27 24  2  0  0  0  0
 27 28  1  0  0  0  0
 28 23  1  0  0  0  0
M  END
>  <MODEL>
6

>  <REMARK>
 VINA RESULT:      -7.6      3.228      5.130
  Name = 
  9 active torsions:
  status: ('A' for Active; 'I' for Inactive)
    1  A    between atoms: C_3  and  O_21
    2  A    between atoms: C_5  and  C_8
    3  A    between atoms: C_6  and  O_21
    4  A    between atoms: C_8  and  C_9
    5  A    between atoms: C_8  and  N_26
    6  A    between atoms: C_13  and  C_18
    7  A    between atoms: C_18  and  C_27
    8  A    between atoms: C_25  and  N_26
    9  A    between atoms: C_25  and  C_27
                            x       y       z     vdW  Elec       q    Type
                         _______ _______ _______ _____ _____    ______ ____

>  <TORSDO>
F 9

$$$$
=
 OpenBabel11072414103D

 28 31  0  0  1  0  0  0  0  0999 V2000
  160.9200  208.3510  152.6130 C   0  0  1  0  0  3  0  0  0  0  0  0
  160.0250  209.1280  154.7180 O   0  0  0  0  0  0  0  0  0  0  0  0
  160.6670  209.5540  153.5270 C   0  0  1  0  0  3  0  0  0  0  0  0
  161.9510  210.3110  153.8730 C   0  0  0  0  0  2  0  0  0  0  0  0
  161.9790  209.4110  157.1940 C   0  0  0  0  0  3  0  0  0  0  0  0
  161.7900  210.4430  155.3140 C   0  0  2  0  0  3  0  0  0  0  0  0
  160.7080  209.3470  156.9710 N   0  0  0  0  0  0  0  0  0  0  0  0
  162.6940  210.0420  156.1400 N   0  0  0  0  0  2  0  0  0  0  0  0
  160.4480  210.0260  155.7120 C   0  0  2  0  0  3  0  0  0  0  0  0
  161.9560  210.4680  149.6100 C   0  0  0  0  0  0  0  0  0  0  0  0
  161.3390  208.7590  151.2330 C   0  0  0  0  0  0  0  0  0  0  0  0
  162.0910  209.4770  148.6320 C   0  0  0  0  0  3  0  0  0  0  0  0
  161.4780  207.7790  150.2450 C   0  0  0  0  0  3  0  0  0  0  0  0
  161.8550  208.1360  148.9490 C   0  0  0  0  0  3  0  0  0  0  0  0
  161.5760  210.1030  150.9120 C   0  0  0  0  0  3  0  0  0  0  0  0
  162.1960  211.8010  149.2630 O   0  0  0  0  0  0  0  0  0  0  0  0
  162.4020  212.2280  147.9210 C   0  0  0  0  0  2  0  0  0  0  0  0
  163.7540  212.2340  147.6330 F   0  0  0  0  0  0  0  0  0  0  0  0
  161.8750  207.4180  153.2020 N   0  0  0  0  0  2  0  0  0  0  0  0
  161.1930  206.1450  153.3660 C   0  0  0  0  0  2  0  0  0  0  0  0
  161.8670  205.0870  152.5160 C   0  0  0  0  0  2  0  0  0  0  0  0
  160.8130  204.1730  151.9200 C   0  0  0  0  0  2  0  0  0  0  0  0
  160.8190  204.5600  149.4670 C   0  0  0  0  0  2  0  0  0  0  0  0
  160.9060  201.7600  148.9290 C   0  0  0  0  0  3  0  0  0  0  0  0
  160.6930  202.2340  150.3450 C   0  0  0  0  0  2  0  0  0  0  0  0
  161.2790  203.6290  150.5820 C   0  0  2  0  0  3  0  0  0  0  0  0
  161.1750  202.6030  147.9200 C   0  0  0  0  0  3  0  0  0  0  0  0
  161.3940  204.0790  148.1370 C   0  0  0  0  0  2  0  0  0  0  0  0
  1 19  1  1  0  0  0
  3  1  1  6  0  0  0
  3  4  1  0  0  0  0
  3  2  1  0  0  0  0
  6  4  1  6  0  0  0
  6  9  1  0  0  0  0
  6  8  1  0  0  0  0
  7  5  2  0  0  0  0
  8  5  1  0  0  0  0
  9  2  1  6  0  0  0
  9  7  1  0  0  0  0
 10 15  1  0  0  0  0
 11  1  1  0  0  0  0
 12 14  1  0  0  0  0
 12 10  2  0  0  0  0
 13 11  1  0  0  0  0
 14 13  2  0  0  0  0
 15 11  2  0  0  0  0
 16 10  1  0  0  0  0
 17 16  1  0  0  0  0
 18 17  1  0  0  0  0
 19 20  1  0  0  0  0
 21 20  1  0  0  0  0
 22 21  1  0  0  0  0
 23 26  1  0  0  0  0
 24 25  1  0  0  0  0
 25 26  1  0  0  0  0
 26 22  1  1  0  0  0
 27 28  1  0  0  0  0
 27 24  2  0  0  0  0
 28 23  1  0  0  0  0
M  END
>  <MODEL>
7

>  <REMARK>
 VINA RESULT:      -7.4      3.210      5.166
  Name = 
  9 active torsions:
  status: ('A' for Active; 'I' for Inactive)
    1  A    between atoms: C_3  and  O_21
    2  A    between atoms: C_5  and  C_8
    3  A    between atoms: C_6  and  O_21
    4  A    between atoms: C_8  and  C_9
    5  A    between atoms: C_8  and  N_26
    6  A    between atoms: C_13  and  C_18
    7  A    between atoms: C_18  and  C_27
    8  A    between atoms: C_25  and  N_26
    9  A    between atoms: C_25  and  C_27
                            x       y       z     vdW  Elec       q    Type
                         _______ _______ _______ _____ _____    ______ ____

>  <TORSDO>
F 9

$$$$
=
 OpenBabel11072414103D

 28 31  0  0  1  0  0  0  0  0999 V2000
  161.3870  206.6470  151.2920 C   0  0  1  0  0  3  0  0  0  0  0  0
  162.2490  207.4510  149.1830 O   0  0  0  0  0  0  0  0  0  0  0  0
  161.0550  207.2390  149.9190 C   0  0  1  0  0  3  0  0  0  0  0  0
  160.1000  206.3570  149.1120 C   0  0  0  0  0  2  0  0  0  0  0  0
  162.4190  205.4420  146.7400 C   0  0  0  0  0  3  0  0  0  0  0  0
  160.7910  206.3350  147.8310 C   0  0  2  0  0  3  0  0  0  0  0  0
  162.9120  206.5860  147.0840 N   0  0  0  0  0  0  0  0  0  0  0  0
  161.1080  205.2310  147.2460 N   0  0  0  0  0  2  0  0  0  0  0  0
  161.8890  207.2980  147.8340 C   0  0  2  0  0  3  0  0  0  0  0  0
  160.9480  208.1300  154.7810 C   0  0  0  0  0  0  0  0  0  0  0  0
  161.1380  207.6150  152.4080 C   0  0  0  0  0  0  0  0  0  0  0  0
  160.6350  209.4550  154.4590 C   0  0  0  0  0  3  0  0  0  0  0  0
  160.8230  208.9430  152.1000 C   0  0  0  0  0  3  0  0  0  0  0  0
  160.5740  209.8610  153.1230 C   0  0  0  0  0  3  0  0  0  0  0  0
  161.1970  207.2110  153.7490 C   0  0  0  0  0  3  0  0  0  0  0  0
  160.9980  207.7530  156.1270 O   0  0  0  0  0  0  0  0  0  0  0  0
  160.0190  206.9200  156.7370 C   0  0  0  0  0  2  0  0  0  0  0  0
  158.8340  206.9930  156.0270 F   0  0  0  0  0  0  0  0  0  0  0  0
  160.6870  205.3870  151.5180 N   0  0  0  0  0  2  0  0  0  0  0  0
  161.6720  204.4200  151.9730 C   0  0  0  0  0  2  0  0  0  0  0  0
  161.3060  203.0370  151.4710 C   0  0  0  0  0  2  0  0  0  0  0  0
  160.4360  203.1650  150.2350 C   0  0  0  0  0  2  0  0  0  0  0  0
  160.0400  202.3290  147.9300 C   0  0  0  0  0  2  0  0  0  0  0  0
  161.7290  200.0700  148.3560 C   0  0  0  0  0  3  0  0  0  0  0  0
  161.3760  200.9600  149.5220 C   0  0  0  0  0  2  0  0  0  0  0  0
  161.0380  202.3860  149.0790 C   0  0  2  0  0  3  0  0  0  0  0  0
  161.3740  200.3630  147.0950 C   0  0  0  0  0  3  0  0  0  0  0  0
  160.6930  201.6560  146.7260 C   0  0  0  0  0  2  0  0  0  0  0  0
  1 19  1  1  0  0  0
  1 11  1  0  0  0  0
  2  3  1  0  0  0  0
  3  1  1  1  0  0  0
  4  3  1  0  0  0  0
  5  7  2  0  0  0  0
  5  8  1  0  0  0  0
  6  9  1  0  0  0  0
  6  4  1  1  0  0  0
  8  6  1  0  0  0  0
  9  7  1  6  0  0  0
  9  2  1  0  0  0  0
 10 16  1  0  0  0  0
 11 15  1  0  0  0  0
 12 10  1  0  0  0  0
 13 11  2  0  0  0  0
 13 14  1  0  0  0  0
 14 12  2  0  0  0  0
 15 10  2  0  0  0  0
 16 17  1  0  0  0  0
 18 17  1  0  0  0  0
 19 20  1  0  0  0  0
 21 20  1  0  0  0  0
 22 21  1  0  0  0  0
 23 26  1  0  0  0  0
 24 25  1  0  0  0  0
 26 25  1  0  0  0  0
 26 22  1  1  0  0  0
 27 24  2  0  0  0  0
 28 27  1  0  0  0  0
 28 23  1  0  0  0  0
M  END
>  <MODEL>
8

>  <REMARK>
 VINA RESULT:      -7.2      2.975      6.161
  Name = 
  9 active torsions:
  status: ('A' for Active; 'I' for Inactive)
    1  A    between atoms: C_3  and  O_21
    2  A    between atoms: C_5  and  C_8
    3  A    between atoms: C_6  and  O_21
    4  A    between atoms: C_8  and  C_9
    5  A    between atoms: C_8  and  N_26
    6  A    between atoms: C_13  and  C_18
    7  A    between atoms: C_18  and  C_27
    8  A    between atoms: C_25  and  N_26
    9  A    between atoms: C_25  and  C_27
                            x       y       z     vdW  Elec       q    Type
                         _______ _______ _______ _____ _____    ______ ____

>  <TORSDO>
F 9

$$$$
=
 OpenBabel11072414103D

 28 31  0  0  1  0  0  0  0  0999 V2000
  161.5280  206.3470  151.3730 C   0  0  1  0  0  3  0  0  0  0  0  0
  162.3530  207.2640  149.2950 O   0  0  0  0  0  0  0  0  0  0  0  0
  161.1830  207.0900  150.0780 C   0  0  1  0  0  3  0  0  0  0  0  0
  160.1120  206.3720  149.2550 C   0  0  0  0  0  2  0  0  0  0  0  0
  162.2130  205.4830  146.6800 C   0  0  0  0  0  3  0  0  0  0  0  0
  160.7320  206.4090  147.9380 C   0  0  2  0  0  3  0  0  0  0  0  0
  162.8260  206.5430  147.0930 N   0  0  0  0  0  0  0  0  0  0  0  0
  160.9160  205.3410  147.2420 N   0  0  0  0  0  2  0  0  0  0  0  0
  161.9130  207.2680  147.9610 C   0  0  2  0  0  3  0  0  0  0  0  0
  160.8080  209.2810  153.7050 C   0  0  0  0  0  0  0  0  0  0  0  0
  161.2030  207.1480  152.5960 C   0  0  0  0  0  0  0  0  0  0  0  0
  160.6230  208.6060  154.9160 C   0  0  0  0  0  3  0  0  0  0  0  0
  161.0160  206.4860  153.8140 C   0  0  0  0  0  3  0  0  0  0  0  0
  160.7250  207.2130  154.9710 C   0  0  0  0  0  3  0  0  0  0  0  0
  161.1020  208.5460  152.5450 C   0  0  0  0  0  3  0  0  0  0  0  0
  160.7040  210.6750  153.6830 O   0  0  0  0  0  0  0  0  0  0  0  0
  159.9010  211.3790  152.7430 C   0  0  0  0  0  2  0  0  0  0  0  0
  158.6130  211.5100  153.2310 F   0  0  0  0  0  0  0  0  0  0  0  0
  160.9020  205.0300  151.4200 N   0  0  0  0  0  2  0  0  0  0  0  0
  161.9590  204.0550  151.6330 C   0  0  0  0  0  2  0  0  0  0  0  0
  161.4590  202.6680  151.2790 C   0  0  0  0  0  2  0  0  0  0  0  0
  160.4750  202.7660  150.1290 C   0  0  0  0  0  2  0  0  0  0  0  0
  160.1050  202.3450  147.7100 C   0  0  0  0  0  2  0  0  0  0  0  0
  161.5740  199.9020  147.8110 C   0  0  0  0  0  3  0  0  0  0  0  0
  161.2510  200.6240  149.0950 C   0  0  0  0  0  2  0  0  0  0  0  0
  161.0550  202.1280  148.8790 C   0  0  2  0  0  3  0  0  0  0  0  0
  161.2990  200.4220  146.6040 C   0  0  0  0  0  3  0  0  0  0  0  0
  160.7470  201.8140  146.4300 C   0  0  0  0  0  2  0  0  0  0  0  0
  1 19  1  1  0  0  0
  1 11  1  0  0  0  0
  2  3  1  0  0  0  0
  3  1  1  1  0  0  0
  4  3  1  0  0  0  0
  5  7  2  0  0  0  0
  5  8  1  0  0  0  0
  6  9  1  0  0  0  0
  6  4  1  1  0  0  0
  8  6  1  0  0  0  0
  9  7  1  6  0  0  0
  9  2  1  0  0  0  0
 10 12  1  0  0  0  0
 11 13  2  0  0  0  0
 12 14  2  0  0  0  0
 13 14  1  0  0  0  0
 15 11  1  0  0  0  0
 15 10  2  0  0  0  0
 16 10  1  0  0  0  0
 17 18  1  0  0  0  0
 17 16  1  0  0  0  0
 19 20  1  0  0  0  0
 21 20  1  0  0  0  0
 22 21  1  0  0  0  0
 23 26  1  0  0  0  0
 24 25  1  0  0  0  0
 26 25  1  0  0  0  0
 26 22  1  1  0  0  0
 27 24  2  0  0  0  0
 28 27  1  0  0  0  0
 28 23  1  0  0  0  0
M  END
>  <MODEL>
9

>  <REMARK>
 VINA RESULT:      -7.1      3.284      6.238
  Name = 
  9 active torsions:
  status: ('A' for Active; 'I' for Inactive)
    1  A    between atoms: C_3  and  O_21
    2  A    between atoms: C_5  and  C_8
    3  A    between atoms: C_6  and  O_21
    4  A    between atoms: C_8  and  C_9
    5  A    between atoms: C_8  and  N_26
    6  A    between atoms: C_13  and  C_18
    7  A    between atoms: C_18  and  C_27
    8  A    between atoms: C_25  and  N_26
    9  A    between atoms: C_25  and  C_27
                            x       y       z     vdW  Elec       q    Type
                         _______ _______ _______ _____ _____    ______ ____

>  <TORSDO>
F 9

$$$$
