=
 OpenBabel11072413413D

 67 73  0  0  1  0  0  0  0  0999 V2000
  160.3640  207.0910  151.3280 C   0  0  0  0  0  0  0  0  0  0  0  0
  160.6990  207.0630  152.6750 C   0  0  0  0  0  3  0  0  0  0  0  0
  160.7620  209.1370  152.0150 N   0  0  0  0  0  0  0  0  0  0  0  0
  160.4510  208.4000  150.9350 C   0  0  0  0  0  3  0  0  0  0  0  0
  160.9290  208.3370  153.0610 N   0  0  0  0  0  0  0  0  0  0  0  0
  163.2470  210.2690  155.4080 C   0  0  0  0  0  2  0  0  0  0  0  0
  158.9420  210.9670  153.0600 O   0  0  0  0  0  0  0  0  0  0  0  0
  159.7450  211.7130  155.1660 C   0  0  1  0  0  0  0  0  0  0  0  0
  165.0490  211.0630  154.0360 O   0  0  0  0  0  1  0  0  0  0  0  0
  160.8200  211.9050  154.2130 C   0  0  2  0  0  3  0  0  0  0  0  0
  161.6580  210.0560  157.2600 C   0  0  0  0  0  1  0  0  0  0  0  0
  158.5030  211.4230  154.3220 C   0  0  1  0  0  3  0  0  0  0  0  0
  163.6590  210.9100  154.0870 C   0  0  1  0  0  3  0  0  0  0  0  0
  162.6220  210.8660  152.0820 C   0  0  1  0  0  3  0  0  0  0  0  0
  161.1140  210.5770  152.0120 C   0  0  2  0  0  3  0  0  0  0  0  0
  161.9400  210.8280  155.9760 C   0  0  2  0  0  3  0  0  0  0  0  0
  160.2110  211.5370  152.8510 C   0  0  1  0  0  3  0  0  0  0  0  0
  163.2420  210.0590  153.0510 O   0  0  0  0  0  0  0  0  0  0  0  0
  160.8170  210.6750  155.0330 N   0  0  1  0  0  0  0  0  0  0  0  0
  157.5570  212.6060  154.0620 C   0  0  1  0  0  3  0  0  0  0  0  0
  155.7480  213.8060  151.0560 F   0  0  0  0  0  0  0  0  0  0  0  0
  155.3200  213.2800  154.6760 C   0  0  0  0  0  0  0  0  0  0  0  0
  157.1840  212.8490  152.6200 C   0  0  0  0  0  3  0  0  0  0  0  0
  156.4280  212.6910  155.0020 N   0  0  0  0  0  0  0  0  0  0  0  0
  156.0410  213.4660  152.3400 C   0  0  0  0  0  0  0  0  0  0  0  0
  154.3160  213.3760  155.5900 F   0  0  0  0  0  0  0  0  0  0  0  0
  155.1050  213.7250  153.3630 O   0  0  0  0  0  0  0  0  0  0  0  0
  160.2820  213.7000  156.7380 C   0  0  0  0  0  1  0  0  0  0  0  0
  159.6690  212.3120  156.5850 C   0  0  0  0  0  3  0  0  0  0  0  0
  158.2320  212.3200  157.0880 C   0  0  0  0  0  1  0  0  0  0  0  0
  163.2330  210.5610  150.7280 C   0  0  0  0  0  2  0  0  0  0  0  0
  162.2680  210.8860  149.6050 C   0  0  0  0  0  2  0  0  0  0  0  0
  162.6280  212.2520  149.0240 C   0  0  1  0  0  3  0  0  0  0  0  0
  163.6670  212.1180  147.9230 C   0  0  0  0  0  1  0  0  0  0  0  0
  161.3810  213.0240  148.5630 C   0  0  0  0  0  2  0  0  0  0  0  0
  160.5370  212.3030  147.5150 C   0  0  0  0  0  2  0  0  0  0  0  0
  160.2160  213.1960  146.3580 C   0  0  0  0  0  3  0  0  0  0  0  0
  161.2000  213.9360  145.8410 C   0  0  0  0  0  2  0  0  0  0  0  0
  160.1190  205.9500  150.3700 C   0  0  0  0  0  2  0  0  0  0  0  0
  161.1710  204.8350  150.3010 C   0  0  1  0  0  3  0  0  0  0  0  0
  161.7930  204.5010  151.5800 N   0  0  0  0  0  2  0  0  0  0  0  0
  161.0560  203.3870  152.1610 C   0  0  0  0  0  1  0  0  0  0  0  0
  160.7390  203.6560  149.5230 N   0  0  0  0  0  2  0  0  0  0  0  0
  160.9760  203.8280  148.0940 C   0  0  2  0  0  3  0  0  0  0  0  0
  161.7430  202.6350  147.5570 C   0  0  0  0  0  1  0  0  0  0  0  0
  161.5470  205.9210  146.6860 C   0  0  0  0  0  0  0  0  0  0  0  0
  161.7060  205.0660  147.8310 N   0  0  0  0  0  2  0  0  0  0  0  0
  162.3620  206.8610  146.5180 O   0  0  0  0  0  0  0  0  0  0  0  0
  160.4220  205.7190  145.6990 C   0  0  0  0  0  2  0  0  0  0  0  0
  160.9350  204.9850  144.4550 C   0  0  0  0  0  2  0  0  0  0  0  0
  161.7060  205.9270  143.5180 C   0  0  0  0  0  2  0  0  0  0  0  0
  161.4760  205.7110  142.0260 C   0  0  0  0  0  2  0  0  0  0  0  0
  161.9150  206.9170  141.2110 C   0  0  0  0  0  2  0  0  0  0  0  0
  162.1640  206.5040  139.7760 C   0  0  0  0  0  2  0  0  0  0  0  0
  161.9450  207.4590  137.5450 C   0  0  0  0  0  2  0  0  0  0  0  0
  161.7000  207.5780  138.8640 C   0  0  0  0  0  0  0  0  0  0  0  0
  160.6670  208.5590  139.2900 C   0  0  0  0  0  2  0  0  0  0  0  0
  160.1580  210.9530  139.6340 C   0  0  1  0  0  3  0  0  0  0  0  0
  160.0530  210.6740  138.1400 C   0  0  0  0  0  2  0  0  0  0  0  0
  161.1150  209.9770  138.9620 C   0  0  2  0  0  3  0  0  0  0  0  0
  162.3800  212.1090  140.0080 C   0  0  0  0  0  2  0  0  0  0  0  0
  160.8390  212.2920  139.9980 C   0  0  0  0  0  0  0  0  0  0  0  0
  162.6090  213.5410  142.0350 C   0  0  0  0  0  2  0  0  0  0  0  0
  160.3660  212.6320  141.4200 C   0  0  0  0  0  2  0  0  0  0  0  0
  163.1090  213.3060  140.6120 C   0  0  0  0  0  2  0  0  0  0  0  0
  160.4640  213.4510  139.0530 C   0  0  0  0  0  1  0  0  0  0  0  0
  161.1070  213.8230  142.0170 C   0  0  0  0  0  2  0  0  0  0  0  0
  1  2  1  0  0  0  0
  2  5  2  0  0  0  0
  3  5  1  0  0  0  0
  4  1  2  0  0  0  0
  4  3  1  0  0  0  0
  6 16  1  0  0  0  0
  7 12  1  0  0  0  0
  8 29  1  1  0  0  0
  9 13  1  0  0  0  0
 10 19  1  0  0  0  0
 10  8  1  0  0  0  0
 12  8  1  0  0  0  0
 13  6  1  0  0  0  0
 14 18  1  0  0  0  0
 15  3  1  0  0  0  0
 15 14  1  0  0  0  0
 15 17  1  0  0  0  0
 16 11  1  0  0  0  0
 17  7  1  0  0  0  0
 17 10  1  0  0  0  0
 18 13  1  0  0  0  0
 19  8  1  0  0  0  0
 19 16  1  0  0  0  0
 20 12  1  0  0  0  0
 20 24  1  0  0  0  0
 21 25  1  0  0  0  0
 22 24  2  0  0  0  0
 22 26  1  0  0  0  0
 23 20  1  0  0  0  0
 25 23  2  0  0  0  0
 25 27  1  0  0  0  0
 27 22  1  0  0  0  0
 29 28  1  0  0  0  0
 29 30  1  0  0  0  0
 31 14  1  0  0  0  0
 32 31  1  0  0  0  0
 33 32  1  0  0  0  0
 34 33  1  0  0  0  0
 35 33  1  0  0  0  0
 36 35  1  0  0  0  0
 37 36  1  0  0  0  0
 38 37  2  0  0  0  0
 39  1  1  0  0  0  0
 40 39  1  0  0  0  0
 40 41  1  0  0  0  0
 41 42  1  0  0  0  0
 43 40  1  0  0  0  0
 44 43  1  0  0  0  0
 45 44  1  0  0  0  0
 46 47  1  0  0  0  0
 47 44  1  0  0  0  0
 48 46  2  0  0  0  0
 49 46  1  0  0  0  0
 50 49  1  0  0  0  0
 51 50  1  0  0  0  0
 52 51  1  0  0  0  0
 53 52  1  0  0  0  0
 54 53  1  0  0  0  0
 55 56  2  0  0  0  0
 56 57  1  0  0  0  0
 56 54  1  0  0  0  0
 58 62  1  0  0  0  0
 59 60  1  0  0  0  0
 59 58  1  0  0  0  0
 60 57  1  0  0  0  0
 60 58  1  0  0  0  0
 61 65  1  0  0  0  0
 62 61  1  0  0  0  0
 62 64  1  0  0  0  0
 64 67  1  0  0  0  0
 65 63  1  0  0  0  0
 66 62  1  0  0  0  0
 67 63  1  0  0  0  0
M  END
>  <MODEL>
1

>  <REMARK>
 VINA RESULT:      -0.9      0.000      0.000
  Name = 
  25 active torsions:
  status: ('A' for Active; 'I' for Inactive)
    1  A    between atoms: C_1  and  C_5
    2  A    between atoms: C_1  and  C_47
    3  A    between atoms: C_2  and  C_5
    4  A    between atoms: C_2  and  C_62
    5  A    between atoms: C_3  and  C_54
    6  A    between atoms: C_6  and  C_28
    7  A    between atoms: C_8  and  C_25
    8  A    between atoms: C_12  and  C_31
    9  A    between atoms: C_12  and  C_51
   10  A    between atoms: C_13  and  C_24
   11  A    between atoms: C_17  and  C_19
   12  A    between atoms: C_21  and  C_62
   13  A    between atoms: C_24  and  C_35
   14  A    between atoms: N_27  and  C_35
   15  A    between atoms: C_29  and  C_45
   16  A    between atoms: C_29  and  C_51
   17  A    between atoms: C_31  and  C_56
   18  A    between atoms: C_35  and  N_57
   19  A    between atoms: C_38  and  C_67
   20  A    between atoms: C_39  and  C_47
   21  A    between atoms: C_41  and  N_44
   22  A    between atoms: C_41  and  N_57
   23  A    between atoms: C_45  and  C_67
   24  A    between atoms: N_49  and  C_58
   25  A    between atoms: C_54  and  C_56
                            x       y       z     vdW  Elec       q    Type
                         _______ _______ _______ _____ _____    ______ ____

>  <TORSDO>
F 25

$$$$
=
 OpenBabel11072413413D

 67 73  0  0  1  0  0  0  0  0999 V2000
  160.5210  207.0580  151.5580 C   0  0  0  0  0  0  0  0  0  0  0  0
  160.4360  207.1950  152.9360 C   0  0  0  0  0  3  0  0  0  0  0  0
  160.6930  209.1820  152.0840 N   0  0  0  0  0  0  0  0  0  0  0  0
  160.7210  208.3170  151.0570 C   0  0  0  0  0  3  0  0  0  0  0  0
  160.5380  208.5110  153.2200 N   0  0  0  0  0  0  0  0  0  0  0  0
  163.2650  210.4700  155.3550 C   0  0  0  0  0  2  0  0  0  0  0  0
  158.8830  211.0310  153.1140 O   0  0  0  0  0  0  0  0  0  0  0  0
  159.7400  211.8660  155.1650 C   0  0  1  0  0  0  0  0  0  0  0  0
  165.0160  211.2300  153.8990 O   0  0  0  0  0  1  0  0  0  0  0  0
  160.7840  212.0330  154.1720 C   0  0  2  0  0  3  0  0  0  0  0  0
  161.7350  210.3120  157.2610 C   0  0  0  0  0  1  0  0  0  0  0  0
  158.4780  211.5310  154.3710 C   0  0  1  0  0  3  0  0  0  0  0  0
  163.6290  211.0640  153.9980 C   0  0  1  0  0  3  0  0  0  0  0  0
  162.5330  210.9320  152.0280 C   0  0  1  0  0  3  0  0  0  0  0  0
  161.0270  210.6240  152.0160 C   0  0  2  0  0  3  0  0  0  0  0  0
  161.9690  211.0360  155.9400 C   0  0  2  0  0  3  0  0  0  0  0  0
  160.1380  211.6060  152.8450 C   0  0  1  0  0  3  0  0  0  0  0  0
  163.1920  210.1690  153.0080 O   0  0  0  0  0  0  0  0  0  0  0  0
  160.8210  210.8360  155.0390 N   0  0  1  0  0  0  0  0  0  0  0  0
  157.5100  212.6930  154.0950 C   0  0  1  0  0  3  0  0  0  0  0  0
  155.8080  213.9160  151.0360 F   0  0  0  0  0  0  0  0  0  0  0  0
  155.2280  213.2870  154.6190 C   0  0  0  0  0  0  0  0  0  0  0  0
  157.1970  212.9610  152.6430 C   0  0  0  0  0  3  0  0  0  0  0  0
  156.3360  212.7220  154.9820 N   0  0  0  0  0  0  0  0  0  0  0  0
  156.0510  213.5520  152.3240 C   0  0  0  0  0  0  0  0  0  0  0  0
  154.1810  213.3320  155.4870 F   0  0  0  0  0  0  0  0  0  0  0  0
  155.0610  213.7590  153.3080 O   0  0  0  0  0  0  0  0  0  0  0  0
  159.9700  214.0190  156.5850 C   0  0  0  0  0  1  0  0  0  0  0  0
  159.7000  212.5190  156.5610 C   0  0  0  0  0  3  0  0  0  0  0  0
  158.3800  212.2170  157.2570 C   0  0  0  0  0  1  0  0  0  0  0  0
  163.1070  210.5810  150.6700 C   0  0  0  0  0  2  0  0  0  0  0  0
  162.1700  211.0030  149.5540 C   0  0  0  0  0  2  0  0  0  0  0  0
  162.7210  212.2670  148.8980 C   0  0  1  0  0  3  0  0  0  0  0  0
  163.5140  211.9300  147.6460 C   0  0  0  0  0  1  0  0  0  0  0  0
  161.6160  213.3010  148.6310 C   0  0  0  0  0  2  0  0  0  0  0  0
  160.4850  212.8060  147.7330 C   0  0  0  0  0  2  0  0  0  0  0  0
  159.1440  213.1970  148.2700 C   0  0  0  0  0  3  0  0  0  0  0  0
  159.0690  213.6100  149.5390 C   0  0  0  0  0  2  0  0  0  0  0  0
  160.5770  205.8080  150.7130 C   0  0  0  0  0  2  0  0  0  0  0  0
  160.8560  205.9700  149.2130 C   0  0  1  0  0  3  0  0  0  0  0  0
  162.0530  206.7440  148.8940 N   0  0  0  0  0  2  0  0  0  0  0  0
  162.0120  207.0720  147.4760 C   0  0  0  0  0  1  0  0  0  0  0  0
  160.7380  204.7130  148.4460 N   0  0  0  0  0  2  0  0  0  0  0  0
  161.9450  203.8990  148.5440 C   0  0  2  0  0  3  0  0  0  0  0  0
  162.5460  203.7120  147.1650 C   0  0  0  0  0  1  0  0  0  0  0  0
  160.6110  201.6930  148.7620 C   0  0  0  0  0  0  0  0  0  0  0  0
  161.6530  202.6040  149.1550 N   0  0  0  0  0  2  0  0  0  0  0  0
  160.3770  200.6960  149.4870 O   0  0  0  0  0  0  0  0  0  0  0  0
  159.8120  201.9050  147.4990 C   0  0  0  0  0  2  0  0  0  0  0  0
  160.5570  201.3130  146.2960 C   0  0  0  0  0  2  0  0  0  0  0  0
  160.2580  202.0900  145.0050 C   0  0  0  0  0  2  0  0  0  0  0  0
  160.8390  203.4980  144.9310 C   0  0  0  0  0  2  0  0  0  0  0  0
  159.7680  204.5290  144.6120 C   0  0  0  0  0  2  0  0  0  0  0  0
  160.3940  205.9040  144.5050 C   0  0  0  0  0  2  0  0  0  0  0  0
  162.7780  205.5130  144.1900 C   0  0  0  0  0  2  0  0  0  0  0  0
  161.5940  205.8350  143.6360 C   0  0  0  0  0  0  0  0  0  0  0  0
  161.4700  205.7300  142.1580 C   0  0  0  0  0  2  0  0  0  0  0  0
  161.6680  206.9400  140.0120 C   0  0  1  0  0  3  0  0  0  0  0  0
  163.0770  206.5740  140.4610 C   0  0  0  0  0  2  0  0  0  0  0  0
  162.0400  206.9730  141.4880 C   0  0  2  0  0  3  0  0  0  0  0  0
  162.1530  209.4000  140.3690 C   0  0  0  0  0  2  0  0  0  0  0  0
  161.5290  208.3550  139.4060 C   0  0  0  0  0  0  0  0  0  0  0  0
  160.3070  211.0150  139.9300 C   0  0  0  0  0  2  0  0  0  0  0  0
  160.0180  208.6180  139.2940 C   0  0  0  0  0  2  0  0  0  0  0  0
  161.8220  210.8360  139.9720 C   0  0  0  0  0  2  0  0  0  0  0  0
  162.1680  208.4950  138.0110 C   0  0  0  0  0  1  0  0  0  0  0  0
  159.6990  210.0570  138.9060 C   0  0  0  0  0  2  0  0  0  0  0  0
  1  2  1  0  0  0  0
  2  5  2  0  0  0  0
  3  5  1  0  0  0  0
  4  1  2  0  0  0  0
  4  3  1  0  0  0  0
  6 16  1  0  0  0  0
  7 12  1  0  0  0  0
  8 29  1  1  0  0  0
  9 13  1  0  0  0  0
 10 19  1  0  0  0  0
 10  8  1  0  0  0  0
 12  8  1  0  0  0  0
 13  6  1  0  0  0  0
 14 18  1  0  0  0  0
 15 14  1  0  0  0  0
 15  3  1  0  0  0  0
 15 17  1  0  0  0  0
 16 11  1  0  0  0  0
 17  7  1  0  0  0  0
 17 10  1  0  0  0  0
 18 13  1  0  0  0  0
 19  8  1  0  0  0  0
 19 16  1  0  0  0  0
 20 12  1  0  0  0  0
 20 24  1  0  0  0  0
 21 25  1  0  0  0  0
 22 24  2  0  0  0  0
 22 26  1  0  0  0  0
 23 20  1  0  0  0  0
 25 23  2  0  0  0  0
 25 27  1  0  0  0  0
 27 22  1  0  0  0  0
 29 28  1  0  0  0  0
 29 30  1  0  0  0  0
 31 14  1  0  0  0  0
 32 31  1  0  0  0  0
 33 32  1  0  0  0  0
 34 33  1  0  0  0  0
 35 33  1  0  0  0  0
 36 37  1  0  0  0  0
 36 35  1  0  0  0  0
 37 38  2  0  0  0  0
 39  1  1  0  0  0  0
 40 39  1  0  0  0  0
 41 40  1  0  0  0  0
 42 41  1  0  0  0  0
 43 44  1  0  0  0  0
 43 40  1  0  0  0  0
 44 47  1  0  0  0  0
 45 44  1  0  0  0  0
 46 47  1  0  0  0  0
 46 48  2  0  0  0  0
 49 46  1  0  0  0  0
 50 49  1  0  0  0  0
 51 50  1  0  0  0  0
 52 51  1  0  0  0  0
 53 52  1  0  0  0  0
 54 53  1  0  0  0  0
 56 55  2  0  0  0  0
 56 54  1  0  0  0  0
 57 56  1  0  0  0  0
 58 59  1  0  0  0  0
 58 60  1  0  0  0  0
 59 60  1  0  0  0  0
 60 57  1  0  0  0  0
 62 58  1  0  0  0  0
 62 61  1  0  0  0  0
 63 65  1  0  0  0  0
 64 62  1  0  0  0  0
 65 61  1  0  0  0  0
 66 62  1  0  0  0  0
 67 64  1  0  0  0  0
 67 63  1  0  0  0  0
M  END
>  <MODEL>
2

>  <REMARK>
 VINA RESULT:       0.9      1.478      2.892
  Name = 
  25 active torsions:
  status: ('A' for Active; 'I' for Inactive)
    1  A    between atoms: C_1  and  C_5
    2  A    between atoms: C_1  and  C_47
    3  A    between atoms: C_2  and  C_5
    4  A    between atoms: C_2  and  C_62
    5  A    between atoms: C_3  and  C_54
    6  A    between atoms: C_6  and  C_28
    7  A    between atoms: C_8  and  C_25
    8  A    between atoms: C_12  and  C_31
    9  A    between atoms: C_12  and  C_51
   10  A    between atoms: C_13  and  C_24
   11  A    between atoms: C_17  and  C_19
   12  A    between atoms: C_21  and  C_62
   13  A    between atoms: C_24  and  C_35
   14  A    between atoms: N_27  and  C_35
   15  A    between atoms: C_29  and  C_45
   16  A    between atoms: C_29  and  C_51
   17  A    between atoms: C_31  and  C_56
   18  A    between atoms: C_35  and  N_57
   19  A    between atoms: C_38  and  C_67
   20  A    between atoms: C_39  and  C_47
   21  A    between atoms: C_41  and  N_44
   22  A    between atoms: C_41  and  N_57
   23  A    between atoms: C_45  and  C_67
   24  A    between atoms: N_49  and  C_58
   25  A    between atoms: C_54  and  C_56
                            x       y       z     vdW  Elec       q    Type
                         _______ _______ _______ _____ _____    ______ ____

>  <TORSDO>
F 25

$$$$
=
 OpenBabel11072413413D

 67 73  0  0  1  0  0  0  0  0999 V2000
  160.3650  207.0410  151.3370 C   0  0  0  0  0  0  0  0  0  0  0  0
  160.7400  207.0340  152.6720 C   0  0  0  0  0  3  0  0  0  0  0  0
  160.8120  209.0940  151.9710 N   0  0  0  0  0  0  0  0  0  0  0  0
  160.4580  208.3420  150.9160 C   0  0  0  0  0  3  0  0  0  0  0  0
  160.9990  208.3110  153.0270 N   0  0  0  0  0  0  0  0  0  0  0  0
  163.0420  210.3560  155.4930 C   0  0  0  0  0  2  0  0  0  0  0  0
  158.9430  210.9900  152.7870 O   0  0  0  0  0  0  0  0  0  0  0  0
  159.5910  211.8250  154.9130 C   0  0  1  0  0  0  0  0  0  0  0  0
  164.9570  211.0660  154.2320 O   0  0  0  0  0  1  0  0  0  0  0  0
  160.7400  211.9600  154.0390 C   0  0  2  0  0  3  0  0  0  0  0  0
  161.3120  210.2470  157.2230 C   0  0  0  0  0  1  0  0  0  0  0  0
  158.4150  211.5090  153.9890 C   0  0  1  0  0  3  0  0  0  0  0  0
  163.5650  210.9300  154.1800 C   0  0  1  0  0  3  0  0  0  0  0  0
  162.6860  210.8040  152.1040 C   0  0  1  0  0  3  0  0  0  0  0  0
  161.1840  210.5280  151.9310 C   0  0  2  0  0  3  0  0  0  0  0  0
  161.7030  210.9550  155.9310 C   0  0  2  0  0  3  0  0  0  0  0  0
  160.2330  211.5360  152.6510 C   0  0  1  0  0  3  0  0  0  0  0  0
  163.2180  210.0360  153.1550 O   0  0  0  0  0  0  0  0  0  0  0  0
  160.6560  210.7700  154.9120 N   0  0  1  0  0  0  0  0  0  0  0  0
  157.5090  212.6890  153.6020 C   0  0  1  0  0  3  0  0  0  0  0  0
  155.8130  213.6710  150.4540 F   0  0  0  0  0  0  0  0  0  0  0  0
  155.2750  213.4690  154.0920 C   0  0  0  0  0  0  0  0  0  0  0  0
  157.1800  212.8160  152.1340 C   0  0  0  0  0  3  0  0  0  0  0  0
  156.3580  212.8830  154.4990 N   0  0  0  0  0  0  0  0  0  0  0  0
  156.0620  213.4350  151.7700 C   0  0  0  0  0  0  0  0  0  0  0  0
  154.2520  213.6690  154.9660 F   0  0  0  0  0  0  0  0  0  0  0  0
  155.1070  213.8050  152.7400 O   0  0  0  0  0  0  0  0  0  0  0  0
  159.3570  214.0140  156.2770 C   0  0  0  0  0  1  0  0  0  0  0  0
  159.4140  212.4900  156.2930 C   0  0  0  0  0  3  0  0  0  0  0  0
  158.1900  211.9320  157.0050 C   0  0  0  0  0  1  0  0  0  0  0  0
  163.3960  210.4300  150.8180 C   0  0  0  0  0  2  0  0  0  0  0  0
  162.4780  210.5840  149.6210 C   0  0  0  0  0  2  0  0  0  0  0  0
  162.5100  212.0390  149.1580 C   0  0  1  0  0  3  0  0  0  0  0  0
  163.1650  212.1610  147.7920 C   0  0  0  0  0  1  0  0  0  0  0  0
  161.1150  212.6830  149.1990 C   0  0  0  0  0  2  0  0  0  0  0  0
  160.7650  213.5220  147.9720 C   0  0  0  0  0  2  0  0  0  0  0  0
  159.6020  214.4250  148.2380 C   0  0  0  0  0  3  0  0  0  0  0  0
  159.0780  214.4340  149.4680 C   0  0  0  0  0  2  0  0  0  0  0  0
  160.0760  205.8860  150.4080 C   0  0  0  0  0  2  0  0  0  0  0  0
  161.1450  204.7950  150.2680 C   0  0  1  0  0  3  0  0  0  0  0  0
  161.8320  204.4490  151.5100 N   0  0  0  0  0  2  0  0  0  0  0  0
  160.8770  203.7720  152.3770 C   0  0  0  0  0  1  0  0  0  0  0  0
  160.7010  203.6230  149.4870 N   0  0  0  0  0  2  0  0  0  0  0  0
  160.9320  203.8000  148.0570 C   0  0  2  0  0  3  0  0  0  0  0  0
  161.5740  202.5510  147.4860 C   0  0  0  0  0  1  0  0  0  0  0  0
  161.7160  205.8240  146.6510 C   0  0  0  0  0  0  0  0  0  0  0  0
  161.7720  204.9690  147.8050 N   0  0  0  0  0  2  0  0  0  0  0  0
  162.6130  206.6890  146.4970 O   0  0  0  0  0  0  0  0  0  0  0  0
  160.6030  205.7110  145.6370 C   0  0  0  0  0  2  0  0  0  0  0  0
  161.0870  204.9410  144.4030 C   0  0  0  0  0  2  0  0  0  0  0  0
  161.9150  205.8340  143.4660 C   0  0  0  0  0  2  0  0  0  0  0  0
  161.4740  205.8510  142.0070 C   0  0  0  0  0  2  0  0  0  0  0  0
  162.3060  206.8200  141.1810 C   0  0  0  0  0  2  0  0  0  0  0  0
  161.7600  206.8930  139.7710 C   0  0  0  0  0  2  0  0  0  0  0  0
  162.2860  209.2650  139.9520 C   0  0  0  0  0  2  0  0  0  0  0  0
  161.5060  208.3090  139.4110 C   0  0  0  0  0  0  0  0  0  0  0  0
  160.7010  208.6690  138.2140 C   0  0  0  0  0  2  0  0  0  0  0  0
  158.9150  210.3680  138.3940 C   0  0  1  0  0  3  0  0  0  0  0  0
  159.5390  210.5060  137.0110 C   0  0  0  0  0  2  0  0  0  0  0  0
  160.4120  210.1640  138.1980 C   0  0  2  0  0  3  0  0  0  0  0  0
  157.0570  211.8170  139.3210 C   0  0  0  0  0  2  0  0  0  0  0  0
  158.5880  211.7070  139.0940 C   0  0  0  0  0  0  0  0  0  0  0  0
  157.0680  214.2340  138.7170 C   0  0  0  0  0  2  0  0  0  0  0  0
  159.0300  212.8100  138.1190 C   0  0  0  0  0  2  0  0  0  0  0  0
  156.6280  213.2140  139.7630 C   0  0  0  0  0  2  0  0  0  0  0  0
  159.3230  211.8970  140.4350 C   0  0  0  0  0  1  0  0  0  0  0  0
  158.5890  214.1990  138.5650 C   0  0  0  0  0  2  0  0  0  0  0  0
  1  2  1  0  0  0  0
  2  5  2  0  0  0  0
  3  5  1  0  0  0  0
  4  1  2  0  0  0  0
  4  3  1  0  0  0  0
  6 16  1  0  0  0  0
  7 12  1  0  0  0  0
  8 29  1  1  0  0  0
 10 19  1  0  0  0  0
 10  8  1  0  0  0  0
 12  8  1  0  0  0  0
 13  9  1  0  0  0  0
 13  6  1  0  0  0  0
 14 18  1  0  0  0  0
 15  3  1  0  0  0  0
 15 14  1  0  0  0  0
 15 17  1  0  0  0  0
 16 11  1  0  0  0  0
 17  7  1  0  0  0  0
 17 10  1  0  0  0  0
 18 13  1  0  0  0  0
 19  8  1  0  0  0  0
 19 16  1  0  0  0  0
 20 12  1  0  0  0  0
 20 24  1  0  0  0  0
 21 25  1  0  0  0  0
 22 24  2  0  0  0  0
 22 26  1  0  0  0  0
 23 20  1  0  0  0  0
 25 23  2  0  0  0  0
 25 27  1  0  0  0  0
 27 22  1  0  0  0  0
 28 29  1  0  0  0  0
 29 30  1  0  0  0  0
 31 14  1  0  0  0  0
 32 31  1  0  0  0  0
 33 35  1  0  0  0  0
 33 32  1  0  0  0  0
 34 33  1  0  0  0  0
 36 37  1  0  0  0  0
 36 35  1  0  0  0  0
 37 38  2  0  0  0  0
 39  1  1  0  0  0  0
 40 39  1  0  0  0  0
 40 41  1  0  0  0  0
 41 42  1  0  0  0  0
 43 40  1  0  0  0  0
 44 43  1  0  0  0  0
 45 44  1  0  0  0  0
 46 47  1  0  0  0  0
 47 44  1  0  0  0  0
 48 46  2  0  0  0  0
 49 46  1  0  0  0  0
 50 49  1  0  0  0  0
 51 50  1  0  0  0  0
 52 51  1  0  0  0  0
 53 52  1  0  0  0  0
 54 53  1  0  0  0  0
 56 54  1  0  0  0  0
 56 55  2  0  0  0  0
 57 56  1  0  0  0  0
 58 62  1  0  0  0  0
 59 60  1  0  0  0  0
 59 58  1  0  0  0  0
 60 57  1  0  0  0  0
 60 58  1  0  0  0  0
 61 65  1  0  0  0  0
 62 61  1  0  0  0  0
 62 66  1  0  0  0  0
 63 65  1  0  0  0  0
 64 67  1  0  0  0  0
 64 62  1  0  0  0  0
 67 63  1  0  0  0  0
M  END
>  <MODEL>
3

>  <REMARK>
 VINA RESULT:       1.2      1.121      1.755
  Name = 
  25 active torsions:
  status: ('A' for Active; 'I' for Inactive)
    1  A    between atoms: C_1  and  C_5
    2  A    between atoms: C_1  and  C_47
    3  A    between atoms: C_2  and  C_5
    4  A    between atoms: C_2  and  C_62
    5  A    between atoms: C_3  and  C_54
    6  A    between atoms: C_6  and  C_28
    7  A    between atoms: C_8  and  C_25
    8  A    between atoms: C_12  and  C_31
    9  A    between atoms: C_12  and  C_51
   10  A    between atoms: C_13  and  C_24
   11  A    between atoms: C_17  and  C_19
   12  A    between atoms: C_21  and  C_62
   13  A    between atoms: C_24  and  C_35
   14  A    between atoms: N_27  and  C_35
   15  A    between atoms: C_29  and  C_45
   16  A    between atoms: C_29  and  C_51
   17  A    between atoms: C_31  and  C_56
   18  A    between atoms: C_35  and  N_57
   19  A    between atoms: C_38  and  C_67
   20  A    between atoms: C_39  and  C_47
   21  A    between atoms: C_41  and  N_44
   22  A    between atoms: C_41  and  N_57
   23  A    between atoms: C_45  and  C_67
   24  A    between atoms: N_49  and  C_58
   25  A    between atoms: C_54  and  C_56
                            x       y       z     vdW  Elec       q    Type
                         _______ _______ _______ _____ _____    ______ ____

>  <TORSDO>
F 25

$$$$
