=
 OpenBabel11072409493D

 49 52  0  0  1  0  0  0  0  0999 V2000
  161.7240  206.3060  153.6550 C   0  0  0  0  0  2  0  0  0  0  0  0
  161.3780  201.3020  150.5590 C   0  0  0  0  0  3  0  0  0  0  0  0
  161.6750  200.6990  148.3150 O   0  0  0  0  0  1  0  0  0  0  0  0
  161.1960  201.5890  149.2680 C   0  0  0  0  0  0  0  0  0  0  0  0
  160.8790  205.6210  152.5860 C   0  0  1  0  0  3  0  0  0  0  0  0
  161.3580  205.7630  151.1090 C   0  0  2  0  0  0  0  0  0  0  0  0
  160.9090  203.4860  151.6900 C   0  0  0  0  0  0  0  0  0  0  0  0
  161.0950  204.3870  150.5630 C   0  0  0  0  0  0  0  0  0  0  0  0
  160.9410  204.0840  149.2710 C   0  0  0  0  0  3  0  0  0  0  0  0
  161.0250  202.1550  151.7090 C   0  0  0  0  0  3  0  0  0  0  0  0
  160.7680  204.2260  152.8450 O   0  0  0  0  0  0  0  0  0  0  0  0
  160.4090  202.7720  148.8010 C   0  0  0  0  0  2  0  0  0  0  0  0
  163.1510  206.1260  150.9660 S   0  0  0  0  0  1  0  0  0  0  0  0
  160.5100  206.8560  150.4440 C   0  0  0  0  0  2  0  0  0  0  0  0
  161.3330  207.8330  149.6150 C   0  0  0  0  0  2  0  0  0  0  0  0
  161.1810  207.5570  148.1270 C   0  0  0  0  0  2  0  0  0  0  0  0
  162.4880  207.0750  147.4960 C   0  0  0  0  0  2  0  0  0  0  0  0
  162.2350  206.0900  146.4500 N   0  0  0  0  0  2  0  0  0  0  0  0
  163.2190  205.1600  146.5180 O   0  0  0  0  0  0  0  0  0  0  0  0
  162.9780  204.3320  145.4720 N   0  0  0  0  0  2  0  0  0  0  0  0
  161.5370  204.1560  145.3890 C   0  0  0  0  0  2  0  0  0  0  0  0
  160.0440  202.1790  144.8600 C   0  0  0  0  0  0  0  0  0  0  0  0
  159.2800  202.8920  144.1540 O   0  0  0  0  0  0  0  0  0  0  0  0
  161.2050  202.7400  145.4740 N   0  0  0  0  0  2  0  0  0  0  0  0
  159.7390  200.7360  145.0530 C   0  0  0  0  0  1  0  0  0  0  0  0
  160.8760  207.2720  154.4610 C   0  0  0  0  0  2  0  0  0  0  0  0
  160.3710  208.3740  153.5570 C   0  0  0  0  0  2  0  0  0  0  0  0
  161.5250  209.2780  153.1720 C   0  0  0  0  0  2  0  0  0  0  0  0
  160.0000  211.1250  152.9500 N   0  0  0  0  0  0  0  0  0  0  0  0
  161.1410  210.7070  153.3630 C   0  0  0  0  0  3  0  0  0  0  0  0
  159.6070  212.5030  153.1220 C   0  0  2  0  0  3  0  0  0  0  0  0
  157.5660  211.5210  154.1720 C   0  0  0  0  0  3  0  0  0  0  0  0
  158.2330  213.7540  154.8350 C   0  0  0  0  0  3  0  0  0  0  0  0
  156.4820  211.5840  155.0500 C   0  0  0  0  0  0  0  0  0  0  0  0
  157.1510  213.8180  155.7160 C   0  0  0  0  0  3  0  0  0  0  0  0
  156.2740  212.7330  155.8220 C   0  0  0  0  0  3  0  0  0  0  0  0
  158.4410  212.6040  154.0560 C   0  0  0  0  0  0  0  0  0  0  0  0
  155.6020  210.4780  155.1680 N   0  0  0  0  0  1  0  0  0  0  0  0
  157.8760  213.4370  151.4290 C   0  0  0  0  0  2  0  0  0  0  0  0
  158.6430  213.6620  149.0870 C   0  0  0  0  0  0  0  0  0  0  0  0
  159.9710  214.1490  149.6240 C   0  0  0  0  0  2  0  0  0  0  0  0
  160.2950  213.4930  150.9410 C   0  0  0  0  0  3  0  0  0  0  0  0
  157.6750  213.3120  149.9390 C   0  0  0  0  0  3  0  0  0  0  0  0
  159.3120  213.1810  151.8070 C   0  0  0  0  0  0  0  0  0  0  0  0
  158.4130  213.5360  147.7140 O   0  0  0  0  0  0  0  0  0  0  0  0
  159.3500  213.0420  146.7980 C   0  0  0  0  0  0  0  0  0  0  0  0
  160.1560  212.1520  147.1730 O   0  0  0  0  0  0  0  0  0  0  0  0
  159.3790  213.4730  145.4330 N   0  0  0  0  0  2  0  0  0  0  0  0
  158.3010  214.2360  144.8220 C   0  0  0  0  0  1  0  0  0  0  0  0
  1 26  1  0  0  0  0
  2 10  1  0  0  0  0
  3  4  1  0  0  0  0
  4  2  2  0  0  0  0
  5 11  1  0  0  0  0
  5  1  1  1  0  0  0
  6 13  1  6  0  0  0
  6  5  1  0  0  0  0
  7 10  2  0  0  0  0
  7 11  1  0  0  0  0
  8  6  1  0  0  0  0
  8  7  1  0  0  0  0
  9  8  2  0  0  0  0
 12  4  1  0  0  0  0
 12  9  1  0  0  0  0
 14  6  1  0  0  0  0
 15 14  1  0  0  0  0
 16 15  1  0  0  0  0
 17 16  1  0  0  0  0
 18 19  1  0  0  0  0
 18 17  1  0  0  0  0
 20 19  1  0  0  0  0
 21 20  1  0  0  0  0
 21 24  1  0  0  0  0
 22 25  1  0  0  0  0
 22 24  1  0  0  0  0
 23 22  2  0  0  0  0
 27 26  1  0  0  0  0
 28 30  1  0  0  0  0
 28 27  1  0  0  0  0
 29 30  2  0  0  0  0
 31 29  1  6  0  0  0
 31 37  1  0  0  0  0
 32 34  1  0  0  0  0
 33 35  2  0  0  0  0
 34 38  1  0  0  0  0
 34 36  2  0  0  0  0
 35 36  1  0  0  0  0
 37 32  2  0  0  0  0
 37 33  1  0  0  0  0
 39 44  1  0  0  0  0
 40 41  1  0  0  0  0
 40 43  2  0  0  0  0
 41 42  1  0  0  0  0
 42 44  2  0  0  0  0
 43 39  1  0  0  0  0
 44 31  1  0  0  0  0
 45 40  1  0  0  0  0
 46 47  2  0  0  0  0
 46 45  1  0  0  0  0
 48 46  1  0  0  0  0
 49 48  1  0  0  0  0
M  END
>  <MODEL>
1

>  <REMARK>
 VINA RESULT:      -6.6      0.000      0.000
  Name = 
  19 active torsions:
  status: ('A' for Active; 'I' for Inactive)
    1  A    between atoms: C_1  and  N_25
    2  A    between atoms: C_1  and  N_38
    3  A    between atoms: C_2  and  C_17
    4  A    between atoms: C_2  and  C_39
    5  A    between atoms: C_3  and  N_10
    6  A    between atoms: C_3  and  C_40
    7  A    between atoms: C_3  and  C_47
    8  A    between atoms: O_4  and  N_23
    9  A    between atoms: O_4  and  N_38
   10  A    between atoms: C_7  and  C_8
   11  A    between atoms: C_7  and  C_21
   12  A    between atoms: C_8  and  C_22
   13  A    between atoms: C_11  and  C_21
   14  A    between atoms: C_11  and  N_23
   15  A    between atoms: C_12  and  O_35
   16  A    between atoms: C_15  and  C_42
   17  A    between atoms: C_20  and  O_35
   18  A    between atoms: C_39  and  C_41
   19  A    between atoms: C_41  and  C_42
                            x       y       z     vdW  Elec       q    Type
                         _______ _______ _______ _____ _____    ______ ____

>  <TORSDO>
F 19

$$$$
=
 OpenBabel11072409493D

 49 52  0  0  1  0  0  0  0  0999 V2000
  161.9450  206.3690  148.6610 C   0  0  0  0  0  2  0  0  0  0  0  0
  161.2460  200.5460  148.0710 C   0  0  0  0  0  3  0  0  0  0  0  0
  161.5600  198.9900  146.3490 O   0  0  0  0  0  1  0  0  0  0  0  0
  161.1330  200.2400  146.7760 C   0  0  0  0  0  0  0  0  0  0  0  0
  161.0770  205.3380  147.9470 C   0  0  1  0  0  3  0  0  0  0  0  0
  161.6150  204.7760  146.5960 C   0  0  2  0  0  0  0  0  0  0  0  0
  160.9410  203.0320  148.0880 C   0  0  0  0  0  0  0  0  0  0  0  0
  161.2450  203.3220  146.6960 C   0  0  0  0  0  0  0  0  0  0  0  0
  161.1060  202.4870  145.6620 C   0  0  0  0  0  3  0  0  0  0  0  0
  160.9350  201.8430  148.6990 C   0  0  0  0  0  3  0  0  0  0  0  0
  160.8300  204.2160  148.7860 O   0  0  0  0  0  0  0  0  0  0  0  0
  160.4730  201.1420  145.7820 C   0  0  0  0  0  2  0  0  0  0  0  0
  163.4360  204.9160  146.4330 S   0  0  0  0  0  1  0  0  0  0  0  0
  160.8920  205.5130  145.4600 C   0  0  0  0  0  2  0  0  0  0  0  0
  161.8340  206.0090  144.3710 C   0  0  0  0  0  2  0  0  0  0  0  0
  161.2130  205.8470  142.9910 C   0  0  0  0  0  2  0  0  0  0  0  0
  162.2620  205.9120  141.8800 C   0  0  0  0  0  2  0  0  0  0  0  0
  161.8530  206.8340  140.8260 N   0  0  0  0  0  2  0  0  0  0  0  0
  162.3230  206.3460  139.6510 O   0  0  0  0  0  0  0  0  0  0  0  0
  161.8930  207.2310  138.7180 N   0  0  0  0  0  2  0  0  0  0  0  0
  161.0470  208.1950  139.4020 C   0  0  0  0  0  2  0  0  0  0  0  0
  160.8590  210.3770  138.1280 C   0  0  0  0  0  0  0  0  0  0  0  0
  161.9110  210.8260  138.6600 O   0  0  0  0  0  0  0  0  0  0  0  0
  160.3940  209.0610  138.4290 N   0  0  0  0  0  2  0  0  0  0  0  0
  160.0940  211.2230  137.1730 C   0  0  0  0  0  1  0  0  0  0  0  0
  161.3480  207.7560  148.5170 C   0  0  0  0  0  2  0  0  0  0  0  0
  162.4610  208.7720  148.3830 C   0  0  0  0  0  2  0  0  0  0  0  0
  161.9840  210.1130  148.9010 C   0  0  0  0  0  2  0  0  0  0  0  0
  161.1830  209.8230  151.1510 N   0  0  0  0  0  0  0  0  0  0  0  0
  162.1480  210.1770  150.3830 C   0  0  0  0  0  3  0  0  0  0  0  0
  161.3180  209.8770  152.5870 C   0  0  2  0  0  3  0  0  0  0  0  0
  161.3960  207.3900  152.3890 C   0  0  0  0  0  3  0  0  0  0  0  0
  160.7800  208.3490  154.5270 C   0  0  0  0  0  3  0  0  0  0  0  0
  161.2640  206.1070  152.9260 C   0  0  0  0  0  0  0  0  0  0  0  0
  160.6500  207.0670  155.0660 C   0  0  0  0  0  3  0  0  0  0  0  0
  160.8910  205.9470  154.2660 C   0  0  0  0  0  3  0  0  0  0  0  0
  161.1510  208.5130  153.1820 C   0  0  0  0  0  0  0  0  0  0  0  0
  161.5240  204.9720  152.1170 N   0  0  0  0  0  1  0  0  0  0  0  0
  160.7490  211.5180  154.5160 C   0  0  0  0  0  2  0  0  0  0  0  0
  158.3530  212.0460  154.8360 C   0  0  0  0  0  0  0  0  0  0  0  0
  158.2160  212.0920  153.3300 C   0  0  0  0  0  2  0  0  0  0  0  0
  159.1580  211.1170  152.6720 C   0  0  0  0  0  3  0  0  0  0  0  0
  159.5380  211.7580  155.3820 C   0  0  0  0  0  3  0  0  0  0  0  0
  160.3650  210.8650  153.2130 C   0  0  0  0  0  0  0  0  0  0  0  0
  157.2570  212.2680  155.6760 O   0  0  0  0  0  0  0  0  0  0  0  0
  156.8270  213.5340  156.0940 C   0  0  0  0  0  0  0  0  0  0  0  0
  157.4610  214.1210  157.0070 O   0  0  0  0  0  0  0  0  0  0  0  0
  155.7260  214.2040  155.4720 N   0  0  0  0  0  2  0  0  0  0  0  0
  155.1430  213.7680  154.2120 C   0  0  0  0  0  1  0  0  0  0  0  0
  2 10  1  0  0  0  0
  3  4  1  0  0  0  0
  4  2  2  0  0  0  0
  5  1  1  1  0  0  0
  5 11  1  0  0  0  0
  6 13  1  6  0  0  0
  6  8  1  0  0  0  0
  6  5  1  0  0  0  0
  7 10  2  0  0  0  0
  7 11  1  0  0  0  0
  8  7  1  0  0  0  0
  9 12  1  0  0  0  0
  9  8  2  0  0  0  0
 12  4  1  0  0  0  0
 14  6  1  0  0  0  0
 15 14  1  0  0  0  0
 16 15  1  0  0  0  0
 17 16  1  0  0  0  0
 18 17  1  0  0  0  0
 19 18  1  0  0  0  0
 20 21  1  0  0  0  0
 20 19  1  0  0  0  0
 22 24  1  0  0  0  0
 22 23  2  0  0  0  0
 24 21  1  0  0  0  0
 25 22  1  0  0  0  0
 26  1  1  0  0  0  0
 27 26  1  0  0  0  0
 27 28  1  0  0  0  0
 28 30  1  0  0  0  0
 30 29  2  0  0  0  0
 31 29  1  6  0  0  0
 31 37  1  0  0  0  0
 31 44  1  0  0  0  0
 32 34  2  0  0  0  0
 32 37  1  0  0  0  0
 33 35  1  0  0  0  0
 34 36  1  0  0  0  0
 36 35  2  0  0  0  0
 37 33  2  0  0  0  0
 38 34  1  0  0  0  0
 39 43  1  0  0  0  0
 40 43  2  0  0  0  0
 40 45  1  0  0  0  0
 41 40  1  0  0  0  0
 42 44  2  0  0  0  0
 42 41  1  0  0  0  0
 44 39  1  0  0  0  0
 45 46  1  0  0  0  0
 46 47  2  0  0  0  0
 48 46  1  0  0  0  0
 49 48  1  0  0  0  0
M  END
>  <MODEL>
2

>  <REMARK>
 VINA RESULT:      -6.1      4.051      6.484
  Name = 
  19 active torsions:
  status: ('A' for Active; 'I' for Inactive)
    1  A    between atoms: C_1  and  N_25
    2  A    between atoms: C_1  and  N_38
    3  A    between atoms: C_2  and  C_17
    4  A    between atoms: C_2  and  C_39
    5  A    between atoms: C_3  and  N_10
    6  A    between atoms: C_3  and  C_40
    7  A    between atoms: C_3  and  C_47
    8  A    between atoms: O_4  and  N_23
    9  A    between atoms: O_4  and  N_38
   10  A    between atoms: C_7  and  C_8
   11  A    between atoms: C_7  and  C_21
   12  A    between atoms: C_8  and  C_22
   13  A    between atoms: C_11  and  C_21
   14  A    between atoms: C_11  and  N_23
   15  A    between atoms: C_12  and  O_35
   16  A    between atoms: C_15  and  C_42
   17  A    between atoms: C_20  and  O_35
   18  A    between atoms: C_39  and  C_41
   19  A    between atoms: C_41  and  C_42
                            x       y       z     vdW  Elec       q    Type
                         _______ _______ _______ _____ _____    ______ ____

>  <TORSDO>
F 19

$$$$
=
 OpenBabel11072409493D

 49 52  0  0  1  0  0  0  0  0999 V2000
  161.6700  208.1240  149.4100 C   0  0  0  0  0  2  0  0  0  0  0  0
  161.3120  204.0190  145.1950 C   0  0  0  0  0  3  0  0  0  0  0  0
  160.3560  201.8880  145.0120 O   0  0  0  0  0  1  0  0  0  0  0  0
  161.0590  202.8310  145.7510 C   0  0  0  0  0  0  0  0  0  0  0  0
  162.1710  206.7270  149.0590 C   0  0  1  0  0  3  0  0  0  0  0  0
  161.2420  205.5300  149.4270 C   0  0  2  0  0  0  0  0  0  0  0  0
  161.9860  205.4230  147.1560 C   0  0  0  0  0  0  0  0  0  0  0  0
  161.4010  204.6350  148.2290 C   0  0  0  0  0  0  0  0  0  0  0  0
  161.1560  203.3220  148.2080 C   0  0  0  0  0  3  0  0  0  0  0  0
  161.9600  205.1740  145.8430 C   0  0  0  0  0  3  0  0  0  0  0  0
  162.4410  206.6200  147.6660 O   0  0  0  0  0  0  0  0  0  0  0  0
  161.5870  202.4310  147.0920 C   0  0  0  0  0  2  0  0  0  0  0  0
  159.4790  206.0090  149.5830 S   0  0  0  0  0  1  0  0  0  0  0  0
  161.7710  204.9080  150.7270 C   0  0  0  0  0  2  0  0  0  0  0  0
  160.7400  204.8930  151.8480 C   0  0  0  0  0  2  0  0  0  0  0  0
  161.3970  205.1100  153.2030 C   0  0  0  0  0  2  0  0  0  0  0  0
  161.6510  206.5900  153.4880 C   0  0  0  0  0  2  0  0  0  0  0  0
  160.7790  207.4370  152.6810 N   0  0  0  0  0  2  0  0  0  0  0  0
  161.2020  208.7170  152.8280 O   0  0  0  0  0  0  0  0  0  0  0  0
  161.1090  208.9560  154.1590 N   0  0  0  0  0  2  0  0  0  0  0  0
  161.1600  210.3970  154.3400 C   0  0  0  0  0  2  0  0  0  0  0  0
  159.5870  212.2420  153.6050 C   0  0  0  0  0  0  0  0  0  0  0  0
  159.6730  212.8180  154.7240 O   0  0  0  0  0  0  0  0  0  0  0  0
  160.3300  211.0520  153.3380 N   0  0  0  0  0  2  0  0  0  0  0  0
  158.7080  212.8090  152.5470 C   0  0  0  0  0  1  0  0  0  0  0  0
  162.3390  209.1630  148.5300 C   0  0  0  0  0  2  0  0  0  0  0  0
  161.6820  210.5080  148.7510 C   0  0  0  0  0  2  0  0  0  0  0  0
  162.7160  211.6050  148.6000 C   0  0  0  0  0  2  0  0  0  0  0  0
  161.2930  212.4620  146.8610 N   0  0  0  0  0  0  0  0  0  0  0  0
  162.1680  212.7130  147.7660 C   0  0  0  0  0  3  0  0  0  0  0  0
  160.7500  213.5180  146.0400 C   0  0  2  0  0  3  0  0  0  0  0  0
  158.7630  213.2680  147.5300 C   0  0  0  0  0  3  0  0  0  0  0  0
  158.4410  214.2860  145.3550 C   0  0  0  0  0  3  0  0  0  0  0  0
  157.4030  213.4320  147.8070 C   0  0  0  0  0  0  0  0  0  0  0  0
  157.0830  214.4530  145.6320 C   0  0  0  0  0  3  0  0  0  0  0  0
  156.5630  214.0250  146.8580 C   0  0  0  0  0  3  0  0  0  0  0  0
  159.2860  213.6880  146.3050 C   0  0  0  0  0  0  0  0  0  0  0  0
  156.8810  213.0100  149.0570 N   0  0  0  0  0  1  0  0  0  0  0  0
  160.0510  212.4490  143.7800 C   0  0  0  0  0  2  0  0  0  0  0  0
  161.8470  212.1590  142.1030 C   0  0  0  0  0  0  0  0  0  0  0  0
  162.3790  213.5140  142.5150 C   0  0  0  0  0  2  0  0  0  0  0  0
  162.1260  213.7710  143.9780 C   0  0  0  0  0  3  0  0  0  0  0  0
  160.7690  211.6600  142.7140 C   0  0  0  0  0  3  0  0  0  0  0  0
  161.0150  213.2940  144.5720 C   0  0  0  0  0  0  0  0  0  0  0  0
  162.4780  211.3970  141.1150 O   0  0  0  0  0  0  0  0  0  0  0  0
  162.7730  211.8630  139.8270 C   0  0  0  0  0  0  0  0  0  0  0  0
  163.5110  212.8730  139.6990 O   0  0  0  0  0  0  0  0  0  0  0  0
  162.3100  211.1880  138.6520 N   0  0  0  0  0  2  0  0  0  0  0  0
  161.7400  209.8500  138.6800 C   0  0  0  0  0  1  0  0  0  0  0  0
  2  4  2  0  0  0  0
  2 10  1  0  0  0  0
  3  4  1  0  0  0  0
  4 12  1  0  0  0  0
  5  1  1  6  0  0  0
  5  6  1  0  0  0  0
  6 13  1  1  0  0  0
  6 14  1  0  0  0  0
  7 11  1  0  0  0  0
  7  8  1  0  0  0  0
  8  6  1  0  0  0  0
  9  8  2  0  0  0  0
 10  7  2  0  0  0  0
 11  5  1  0  0  0  0
 12  9  1  0  0  0  0
 14 15  1  0  0  0  0
 15 16  1  0  0  0  0
 16 17  1  0  0  0  0
 18 19  1  0  0  0  0
 18 17  1  0  0  0  0
 19 20  1  0  0  0  0
 20 21  1  0  0  0  0
 22 23  2  0  0  0  0
 24 22  1  0  0  0  0
 24 21  1  0  0  0  0
 25 22  1  0  0  0  0
 26 27  1  0  0  0  0
 26  1  1  0  0  0  0
 28 27  1  0  0  0  0
 29 30  2  0  0  0  0
 30 28  1  0  0  0  0
 31 37  1  0  0  0  0
 31 29  1  1  0  0  0
 32 34  1  0  0  0  0
 33 35  2  0  0  0  0
 33 37  1  0  0  0  0
 34 38  1  0  0  0  0
 35 36  1  0  0  0  0
 36 34  2  0  0  0  0
 37 32  2  0  0  0  0
 39 44  1  0  0  0  0
 40 41  1  0  0  0  0
 40 43  2  0  0  0  0
 41 42  1  0  0  0  0
 42 44  2  0  0  0  0
 43 39  1  0  0  0  0
 44 31  1  0  0  0  0
 45 40  1  0  0  0  0
 46 45  1  0  0  0  0
 47 46  2  0  0  0  0
 48 49  1  0  0  0  0
 48 46  1  0  0  0  0
M  END
>  <MODEL>
3

>  <REMARK>
 VINA RESULT:      -5.6      3.509      7.501
  Name = 
  19 active torsions:
  status: ('A' for Active; 'I' for Inactive)
    1  A    between atoms: C_1  and  N_25
    2  A    between atoms: C_1  and  N_38
    3  A    between atoms: C_2  and  C_17
    4  A    between atoms: C_2  and  C_39
    5  A    between atoms: C_3  and  N_10
    6  A    between atoms: C_3  and  C_40
    7  A    between atoms: C_3  and  C_47
    8  A    between atoms: O_4  and  N_23
    9  A    between atoms: O_4  and  N_38
   10  A    between atoms: C_7  and  C_8
   11  A    between atoms: C_7  and  C_21
   12  A    between atoms: C_8  and  C_22
   13  A    between atoms: C_11  and  C_21
   14  A    between atoms: C_11  and  N_23
   15  A    between atoms: C_12  and  O_35
   16  A    between atoms: C_15  and  C_42
   17  A    between atoms: C_20  and  O_35
   18  A    between atoms: C_39  and  C_41
   19  A    between atoms: C_41  and  C_42
                            x       y       z     vdW  Elec       q    Type
                         _______ _______ _______ _____ _____    ______ ____

>  <TORSDO>
F 19

$$$$
=
 OpenBabel11072409493D

 49 52  0  0  1  0  0  0  0  0999 V2000
  161.5190  206.8950  152.2650 C   0  0  0  0  0  2  0  0  0  0  0  0
  161.2790  203.0880  147.7710 C   0  0  0  0  0  3  0  0  0  0  0  0
  162.0750  203.0480  145.5690 O   0  0  0  0  0  1  0  0  0  0  0  0
  161.4950  203.7380  146.6250 C   0  0  0  0  0  0  0  0  0  0  0  0
  160.9010  206.7190  150.8820 C   0  0  1  0  0  3  0  0  0  0  0  0
  161.7740  207.1360  149.6600 C   0  0  2  0  0  0  0  0  0  0  0  0
  160.8530  204.9440  149.3970 C   0  0  0  0  0  0  0  0  0  0  0  0
  161.4650  206.0460  148.6710 C   0  0  0  0  0  0  0  0  0  0  0  0
  161.6200  206.1360  147.3470 C   0  0  0  0  0  3  0  0  0  0  0  0
  160.7620  203.6640  149.0260 C   0  0  0  0  0  3  0  0  0  0  0  0
  160.5180  205.3660  150.6660 O   0  0  0  0  0  0  0  0  0  0  0  0
  161.0470  205.1460  146.3910 C   0  0  0  0  0  2  0  0  0  0  0  0
  163.5720  207.1210  150.0210 S   0  0  0  0  0  1  0  0  0  0  0  0
  161.3070  208.5250  149.2020 C   0  0  0  0  0  2  0  0  0  0  0  0
  162.2870  209.6350  149.5560 C   0  0  0  0  0  2  0  0  0  0  0  0
  161.5740  210.9700  149.7140 C   0  0  0  0  0  2  0  0  0  0  0  0
  162.0290  211.9900  148.6690 C   0  0  0  0  0  2  0  0  0  0  0  0
  161.2580  211.8600  147.4370 N   0  0  0  0  0  2  0  0  0  0  0  0
  161.1540  213.0950  146.8870 O   0  0  0  0  0  0  0  0  0  0  0  0
  162.3790  213.3370  146.3590 N   0  0  0  0  0  2  0  0  0  0  0  0
  162.1760  213.7610  144.9840 C   0  0  0  0  0  2  0  0  0  0  0  0
  161.2940  212.5740  142.9270 C   0  0  0  0  0  0  0  0  0  0  0  0
  162.2230  213.0390  142.2100 O   0  0  0  0  0  0  0  0  0  0  0  0
  161.2340  212.8670  144.3230 N   0  0  0  0  0  2  0  0  0  0  0  0
  160.2530  211.7060  142.3160 C   0  0  0  0  0  1  0  0  0  0  0  0
  160.6200  207.7430  153.1450 C   0  0  0  0  0  2  0  0  0  0  0  0
  160.8300  209.2040  152.8180 C   0  0  0  0  0  2  0  0  0  0  0  0
  161.5270  209.8840  153.9790 C   0  0  0  0  0  2  0  0  0  0  0  0
  159.9110  211.6090  153.5310 N   0  0  0  0  0  0  0  0  0  0  0  0
  160.9030  211.2130  154.2430 C   0  0  0  0  0  3  0  0  0  0  0  0
  159.2920  212.8920  153.7660 C   0  0  2  0  0  3  0  0  0  0  0  0
  157.2640  211.5870  154.4130 C   0  0  0  0  0  3  0  0  0  0  0  0
  157.6740  213.6960  155.5330 C   0  0  0  0  0  3  0  0  0  0  0  0
  156.1080  211.4070  155.1760 C   0  0  0  0  0  0  0  0  0  0  0  0
  156.5200  213.5160  156.2990 C   0  0  0  0  0  3  0  0  0  0  0  0
  155.7370  212.3720  156.1190 C   0  0  0  0  0  3  0  0  0  0  0  0
  158.0470  212.7310  154.5830 C   0  0  0  0  0  0  0  0  0  0  0  0
  155.3220  210.2390  155.0040 N   0  0  0  0  0  1  0  0  0  0  0  0
  157.6470  214.2420  152.2810 C   0  0  0  0  0  2  0  0  0  0  0  0
  158.1450  214.2910  149.8580 C   0  0  0  0  0  0  0  0  0  0  0  0
  159.6090  214.4290  150.2150 C   0  0  0  0  0  2  0  0  0  0  0  0
  159.9230  213.7000  151.4960 C   0  0  0  0  0  3  0  0  0  0  0  0
  157.2360  214.1840  150.8310 C   0  0  0  0  0  3  0  0  0  0  0  0
  159.0110  213.6340  152.4830 C   0  0  0  0  0  0  0  0  0  0  0  0
  157.7200  214.2390  148.5270 O   0  0  0  0  0  0  0  0  0  0  0  0
  157.3790  213.0600  147.8520 C   0  0  0  0  0  0  0  0  0  0  0  0
  156.8090  212.1370  148.4890 O   0  0  0  0  0  0  0  0  0  0  0  0
  157.6050  212.8960  146.4480 N   0  0  0  0  0  2  0  0  0  0  0  0
  157.9470  214.0030  145.5670 C   0  0  0  0  0  1  0  0  0  0  0  0
  1 26  1  0  0  0  0
  2 10  1  0  0  0  0
  3  4  1  0  0  0  0
  4  2  2  0  0  0  0
  5  1  1  1  0  0  0
  6 13  1  1  0  0  0
  6  5  1  0  0  0  0
  7 11  1  0  0  0  0
  8  7  1  0  0  0  0
  8  6  1  0  0  0  0
  9  8  2  0  0  0  0
 10  7  2  0  0  0  0
 11  5  1  0  0  0  0
 12  4  1  0  0  0  0
 12  9  1  0  0  0  0
 14 15  1  0  0  0  0
 14  6  1  0  0  0  0
 15 16  1  0  0  0  0
 17 16  1  0  0  0  0
 18 17  1  0  0  0  0
 19 18  1  0  0  0  0
 20 19  1  0  0  0  0
 21 20  1  0  0  0  0
 22 24  1  0  0  0  0
 23 22  2  0  0  0  0
 24 21  1  0  0  0  0
 25 22  1  0  0  0  0
 27 26  1  0  0  0  0
 27 28  1  0  0  0  0
 28 30  1  0  0  0  0
 29 30  2  0  0  0  0
 31 29  1  6  0  0  0
 31 37  1  0  0  0  0
 32 37  2  0  0  0  0
 32 34  1  0  0  0  0
 33 35  2  0  0  0  0
 34 36  2  0  0  0  0
 36 35  1  0  0  0  0
 37 33  1  0  0  0  0
 38 34  1  0  0  0  0
 39 44  1  0  0  0  0
 40 41  1  0  0  0  0
 40 43  2  0  0  0  0
 41 42  1  0  0  0  0
 42 44  2  0  0  0  0
 43 39  1  0  0  0  0
 44 31  1  0  0  0  0
 45 40  1  0  0  0  0
 46 47  2  0  0  0  0
 46 45  1  0  0  0  0
 48 46  1  0  0  0  0
 49 48  1  0  0  0  0
M  END
>  <MODEL>
4

>  <REMARK>
 VINA RESULT:      -5.0      2.545      4.349
  Name = 
  19 active torsions:
  status: ('A' for Active; 'I' for Inactive)
    1  A    between atoms: C_1  and  N_25
    2  A    between atoms: C_1  and  N_38
    3  A    between atoms: C_2  and  C_17
    4  A    between atoms: C_2  and  C_39
    5  A    between atoms: C_3  and  N_10
    6  A    between atoms: C_3  and  C_40
    7  A    between atoms: C_3  and  C_47
    8  A    between atoms: O_4  and  N_23
    9  A    between atoms: O_4  and  N_38
   10  A    between atoms: C_7  and  C_8
   11  A    between atoms: C_7  and  C_21
   12  A    between atoms: C_8  and  C_22
   13  A    between atoms: C_11  and  C_21
   14  A    between atoms: C_11  and  N_23
   15  A    between atoms: C_12  and  O_35
   16  A    between atoms: C_15  and  C_42
   17  A    between atoms: C_20  and  O_35
   18  A    between atoms: C_39  and  C_41
   19  A    between atoms: C_41  and  C_42
                            x       y       z     vdW  Elec       q    Type
                         _______ _______ _______ _____ _____    ______ ____

>  <TORSDO>
F 19

$$$$
=
 OpenBabel11072409493D

 49 52  0  0  1  0  0  0  0  0999 V2000
  161.4180  208.1750  148.5150 C   0  0  0  0  0  2  0  0  0  0  0  0
  160.8390  203.4690  145.0130 C   0  0  0  0  0  3  0  0  0  0  0  0
  160.1550  201.2460  145.2980 O   0  0  0  0  0  1  0  0  0  0  0  0
  160.8510  202.3580  145.7550 C   0  0  0  0  0  0  0  0  0  0  0  0
  162.0270  206.8010  148.2520 C   0  0  1  0  0  3  0  0  0  0  0  0
  161.3470  205.5830  148.9470 C   0  0  2  0  0  0  0  0  0  0  0  0
  161.6690  205.2140  146.6050 C   0  0  0  0  0  0  0  0  0  0  0  0
  161.4000  204.5390  147.8660 C   0  0  0  0  0  0  0  0  0  0  0  0
  161.3310  203.2190  148.0600 C   0  0  0  0  0  3  0  0  0  0  0  0
  161.4360  204.7690  145.3670 C   0  0  0  0  0  3  0  0  0  0  0  0
  162.0480  206.5150  146.8580 O   0  0  0  0  0  0  0  0  0  0  0  0
  161.6630  202.2220  147.0030 C   0  0  0  0  0  2  0  0  0  0  0  0
  159.5950  205.8920  149.3900 S   0  0  0  0  0  1  0  0  0  0  0  0
  162.1830  205.2220  150.1830 C   0  0  0  0  0  2  0  0  0  0  0  0
  161.3390  204.9670  151.4250 C   0  0  0  0  0  2  0  0  0  0  0  0
  161.1770  206.2340  152.2520 C   0  0  0  0  0  2  0  0  0  0  0  0
  162.1320  207.3390  151.8010 C   0  0  0  0  0  2  0  0  0  0  0  0
  162.1030  208.4680  152.7240 N   0  0  0  0  0  2  0  0  0  0  0  0
  160.8170  208.8860  152.8180 O   0  0  0  0  0  0  0  0  0  0  0  0
  160.9080  210.2180  153.0530 N   0  0  0  0  0  2  0  0  0  0  0  0
  160.7740  210.4100  154.4870 C   0  0  0  0  0  2  0  0  0  0  0  0
  160.5450  208.3910  156.0010 C   0  0  0  0  0  0  0  0  0  0  0  0
  161.7270  208.5210  156.4220 O   0  0  0  0  0  0  0  0  0  0  0  0
  159.9980  209.3200  155.0640 N   0  0  0  0  0  2  0  0  0  0  0  0
  159.7050  207.2650  156.4900 C   0  0  0  0  0  1  0  0  0  0  0  0
  162.5080  209.2220  148.6470 C   0  0  0  0  0  2  0  0  0  0  0  0
  161.8840  210.5990  148.6700 C   0  0  0  0  0  2  0  0  0  0  0  0
  162.9140  211.6260  148.2480 C   0  0  0  0  0  2  0  0  0  0  0  0
  161.1000  212.5170  146.9440 N   0  0  0  0  0  0  0  0  0  0  0  0
  162.2630  212.7070  147.4520 C   0  0  0  0  0  3  0  0  0  0  0  0
  160.4500  213.5470  146.1680 C   0  0  2  0  0  3  0  0  0  0  0  0
  158.8110  213.6460  148.0480 C   0  0  0  0  0  3  0  0  0  0  0  0
  158.0350  214.2060  145.8220 C   0  0  0  0  0  3  0  0  0  0  0  0
  157.5320  213.8910  148.5550 C   0  0  0  0  0  0  0  0  0  0  0  0
  156.7570  214.4530  146.3270 C   0  0  0  0  0  3  0  0  0  0  0  0
  156.5050  214.2950  147.6940 C   0  0  0  0  0  3  0  0  0  0  0  0
  159.0660  213.7960  146.6830 C   0  0  0  0  0  0  0  0  0  0  0  0
  157.2820  213.7440  149.9430 N   0  0  0  0  0  1  0  0  0  0  0  0
  160.7050  214.3350  143.7090 C   0  0  0  0  0  2  0  0  0  0  0  0
  159.6200  212.9250  141.9880 C   0  0  0  0  0  0  0  0  0  0  0  0
  160.0810  211.7120  142.7660 C   0  0  0  0  0  2  0  0  0  0  0  0
  160.1120  211.9990  144.2450 C   0  0  0  0  0  3  0  0  0  0  0  0
  159.9000  214.1480  142.4470 C   0  0  0  0  0  3  0  0  0  0  0  0
  160.4340  213.2270  144.6940 C   0  0  0  0  0  0  0  0  0  0  0  0
  158.8770  212.7980  140.8100 O   0  0  0  0  0  0  0  0  0  0  0  0
  159.2230  213.3940  139.5910 C   0  0  0  0  0  0  0  0  0  0  0  0
  160.4040  213.2850  139.1740 O   0  0  0  0  0  0  0  0  0  0  0  0
  158.2590  214.0690  138.7760 N   0  0  0  0  0  2  0  0  0  0  0  0
  156.8240  213.9680  138.9990 C   0  0  0  0  0  1  0  0  0  0  0  0
  1 26  1  0  0  0  0
  2 10  1  0  0  0  0
  2  4  2  0  0  0  0
  3  4  1  0  0  0  0
  4 12  1  0  0  0  0
  5  1  1  6  0  0  0
  5  6  1  0  0  0  0
  6 13  1  1  0  0  0
  6 14  1  0  0  0  0
  7 11  1  0  0  0  0
  7  8  1  0  0  0  0
  8  9  2  0  0  0  0
  8  6  1  0  0  0  0
 10  7  2  0  0  0  0
 11  5  1  0  0  0  0
 12  9  1  0  0  0  0
 14 15  1  0  0  0  0
 15 16  1  0  0  0  0
 17 16  1  0  0  0  0
 17 18  1  0  0  0  0
 18 19  1  0  0  0  0
 19 20  1  0  0  0  0
 20 21  1  0  0  0  0
 21 24  1  0  0  0  0
 22 23  2  0  0  0  0
 22 25  1  0  0  0  0
 24 22  1  0  0  0  0
 26 27  1  0  0  0  0
 28 27  1  0  0  0  0
 29 30  2  0  0  0  0
 30 28  1  0  0  0  0
 31 37  1  0  0  0  0
 31 29  1  1  0  0  0
 32 34  1  0  0  0  0
 33 35  2  0  0  0  0
 33 37  1  0  0  0  0
 34 38  1  0  0  0  0
 35 36  1  0  0  0  0
 36 34  2  0  0  0  0
 37 32  2  0  0  0  0
 39 44  1  0  0  0  0
 40 43  2  0  0  0  0
 40 41  1  0  0  0  0
 41 42  1  0  0  0  0
 42 44  2  0  0  0  0
 43 39  1  0  0  0  0
 44 31  1  0  0  0  0
 45 40  1  0  0  0  0
 46 45  1  0  0  0  0
 47 46  2  0  0  0  0
 48 49  1  0  0  0  0
 48 46  1  0  0  0  0
M  END
>  <MODEL>
5

>  <REMARK>
 VINA RESULT:      -4.8      3.478      7.211
  Name = 
  19 active torsions:
  status: ('A' for Active; 'I' for Inactive)
    1  A    between atoms: C_1  and  N_25
    2  A    between atoms: C_1  and  N_38
    3  A    between atoms: C_2  and  C_17
    4  A    between atoms: C_2  and  C_39
    5  A    between atoms: C_3  and  N_10
    6  A    between atoms: C_3  and  C_40
    7  A    between atoms: C_3  and  C_47
    8  A    between atoms: O_4  and  N_23
    9  A    between atoms: O_4  and  N_38
   10  A    between atoms: C_7  and  C_8
   11  A    between atoms: C_7  and  C_21
   12  A    between atoms: C_8  and  C_22
   13  A    between atoms: C_11  and  C_21
   14  A    between atoms: C_11  and  N_23
   15  A    between atoms: C_12  and  O_35
   16  A    between atoms: C_15  and  C_42
   17  A    between atoms: C_20  and  O_35
   18  A    between atoms: C_39  and  C_41
   19  A    between atoms: C_41  and  C_42
                            x       y       z     vdW  Elec       q    Type
                         _______ _______ _______ _____ _____    ______ ____

>  <TORSDO>
F 19

$$$$
=
 OpenBabel11072409493D

 49 52  0  0  1  0  0  0  0  0999 V2000
  161.4610  212.6440  144.9390 C   0  0  0  0  0  2  0  0  0  0  0  0
  157.1420  213.8770  141.1220 C   0  0  0  0  0  3  0  0  0  0  0  0
  156.8220  213.6140  138.8160 O   0  0  0  0  0  1  0  0  0  0  0  0
  157.6450  213.9410  139.8860 C   0  0  0  0  0  0  0  0  0  0  0  0
  161.1300  213.5650  143.7690 C   0  0  1  0  0  3  0  0  0  0  0  0
  161.3810  213.0040  142.3360 C   0  0  2  0  0  0  0  0  0  0  0  0
  159.1890  213.9360  142.5630 C   0  0  0  0  0  0  0  0  0  0  0  0
  160.1840  213.5210  141.5860 C   0  0  0  0  0  0  0  0  0  0  0  0
  160.1110  213.6790  140.2620 C   0  0  0  0  0  3  0  0  0  0  0  0
  157.8750  214.0960  142.3820 C   0  0  0  0  0  3  0  0  0  0  0  0
  159.7670  213.9720  143.8150 O   0  0  0  0  0  0  0  0  0  0  0  0
  159.0210  214.4470  139.5930 C   0  0  0  0  0  2  0  0  0  0  0  0
  161.3770  211.1710  142.2700 S   0  0  0  0  0  1  0  0  0  0  0  0
  162.7120  213.5800  141.8330 C   0  0  0  0  0  2  0  0  0  0  0  0
  162.7450  213.7880  140.3250 C   0  0  0  0  0  2  0  0  0  0  0  0
  163.5570  212.7000  139.6370 C   0  0  0  0  0  2  0  0  0  0  0  0
  163.4670  212.7950  138.1140 C   0  0  0  0  0  2  0  0  0  0  0  0
  162.9970  211.5400  137.5360 N   0  0  0  0  0  2  0  0  0  0  0  0
  162.1830  210.9510  138.4460 O   0  0  0  0  0  0  0  0  0  0  0  0
  161.2650  210.2860  137.7020 N   0  0  0  0  0  2  0  0  0  0  0  0
  160.4950  209.4570  138.6140 C   0  0  0  0  0  2  0  0  0  0  0  0
  161.9590  207.4210  138.9790 C   0  0  0  0  0  0  0  0  0  0  0  0
  161.7470  207.0080  137.8070 O   0  0  0  0  0  0  0  0  0  0  0  0
  161.3930  208.6520  139.4320 N   0  0  0  0  0  2  0  0  0  0  0  0
  162.8110  206.6240  139.9020 C   0  0  0  0  0  1  0  0  0  0  0  0
  162.4840  213.2940  145.8520 C   0  0  0  0  0  2  0  0  0  0  0  0
  162.0070  213.2060  147.2850 C   0  0  0  0  0  2  0  0  0  0  0  0
  162.7390  212.0830  147.9920 C   0  0  0  0  0  2  0  0  0  0  0  0
  162.1840  209.8450  148.6740 N   0  0  0  0  0  0  0  0  0  0  0  0
  161.7720  211.0340  148.4250 C   0  0  0  0  0  3  0  0  0  0  0  0
  161.2670  208.8120  149.0930 C   0  0  2  0  0  3  0  0  0  0  0  0
  161.8170  209.6620  151.3750 C   0  0  0  0  0  3  0  0  0  0  0  0
  160.8870  207.4330  151.1770 C   0  0  0  0  0  3  0  0  0  0  0  0
  161.8710  209.5150  152.7630 C   0  0  0  0  0  0  0  0  0  0  0  0
  160.9370  207.2860  152.5640 C   0  0  0  0  0  3  0  0  0  0  0  0
  161.4300  208.3270  153.3580 C   0  0  0  0  0  3  0  0  0  0  0  0
  161.3320  208.6230  150.5770 C   0  0  0  0  0  0  0  0  0  0  0  0
  162.3570  210.5770  153.5670 N   0  0  0  0  0  1  0  0  0  0  0  0
  160.3090  206.6850  147.9550 C   0  0  0  0  0  2  0  0  0  0  0  0
  161.8440  204.7530  147.7750 C   0  0  0  0  0  0  0  0  0  0  0  0
  162.9500  205.7290  147.4390 C   0  0  0  0  0  2  0  0  0  0  0  0
  162.7440  207.0430  148.1470 C   0  0  0  0  0  3  0  0  0  0  0  0
  160.6170  205.2100  148.0350 C   0  0  0  0  0  3  0  0  0  0  0  0
  161.5010  207.5110  148.3670 C   0  0  0  0  0  0  0  0  0  0  0  0
  162.0840  203.3770  147.8540 O   0  0  0  0  0  0  0  0  0  0  0  0
  161.1520  202.3920  147.5020 C   0  0  0  0  0  0  0  0  0  0  0  0
  160.9750  202.1300  146.2840 O   0  0  0  0  0  0  0  0  0  0  0  0
  160.4410  201.6340  148.4850 N   0  0  0  0  0  2  0  0  0  0  0  0
  160.8060  201.6240  149.8940 C   0  0  0  0  0  1  0  0  0  0  0  0
  1 26  1  0  0  0  0
  2 10  1  0  0  0  0
  3  4  1  0  0  0  0
  4  2  2  0  0  0  0
  5 11  1  0  0  0  0
  5  1  1  1  0  0  0
  6 13  1  1  0  0  0
  6  5  1  0  0  0  0
  7 11  1  0  0  0  0
  8  6  1  0  0  0  0
  8  7  1  0  0  0  0
  9  8  2  0  0  0  0
 10  7  2  0  0  0  0
 12  4  1  0  0  0  0
 12  9  1  0  0  0  0
 14  6  1  0  0  0  0
 15 14  1  0  0  0  0
 16 15  1  0  0  0  0
 17 16  1  0  0  0  0
 18 17  1  0  0  0  0
 18 19  1  0  0  0  0
 20 19  1  0  0  0  0
 20 21  1  0  0  0  0
 21 24  1  0  0  0  0
 22 24  1  0  0  0  0
 22 25  1  0  0  0  0
 23 22  2  0  0  0  0
 26 27  1  0  0  0  0
 27 28  1  0  0  0  0
 28 30  1  0  0  0  0
 30 29  2  0  0  0  0
 31 29  1  6  0  0  0
 31 37  1  0  0  0  0
 32 34  1  0  0  0  0
 33 35  2  0  0  0  0
 34 36  2  0  0  0  0
 34 38  1  0  0  0  0
 35 36  1  0  0  0  0
 37 33  1  0  0  0  0
 37 32  2  0  0  0  0
 39 43  1  0  0  0  0
 39 44  1  0  0  0  0
 40 45  1  0  0  0  0
 40 43  2  0  0  0  0
 41 40  1  0  0  0  0
 41 42  1  0  0  0  0
 42 44  2  0  0  0  0
 44 31  1  0  0  0  0
 46 45  1  0  0  0  0
 46 48  1  0  0  0  0
 47 46  2  0  0  0  0
 48 49  1  0  0  0  0
M  END
>  <MODEL>
6

>  <REMARK>
 VINA RESULT:      -4.0      4.911     10.420
  Name = 
  19 active torsions:
  status: ('A' for Active; 'I' for Inactive)
    1  A    between atoms: C_1  and  N_25
    2  A    between atoms: C_1  and  N_38
    3  A    between atoms: C_2  and  C_17
    4  A    between atoms: C_2  and  C_39
    5  A    between atoms: C_3  and  N_10
    6  A    between atoms: C_3  and  C_40
    7  A    between atoms: C_3  and  C_47
    8  A    between atoms: O_4  and  N_23
    9  A    between atoms: O_4  and  N_38
   10  A    between atoms: C_7  and  C_8
   11  A    between atoms: C_7  and  C_21
   12  A    between atoms: C_8  and  C_22
   13  A    between atoms: C_11  and  C_21
   14  A    between atoms: C_11  and  N_23
   15  A    between atoms: C_12  and  O_35
   16  A    between atoms: C_15  and  C_42
   17  A    between atoms: C_20  and  O_35
   18  A    between atoms: C_39  and  C_41
   19  A    between atoms: C_41  and  C_42
                            x       y       z     vdW  Elec       q    Type
                         _______ _______ _______ _____ _____    ______ ____

>  <TORSDO>
F 19

$$$$
=
 OpenBabel11072409493D

 49 52  0  0  1  0  0  0  0  0999 V2000
  162.0860  206.3540  147.7140 C   0  0  0  0  0  2  0  0  0  0  0  0
  161.2890  200.5150  147.8450 C   0  0  0  0  0  3  0  0  0  0  0  0
  161.5300  198.7590  146.3140 O   0  0  0  0  0  1  0  0  0  0  0  0
  161.1330  200.0590  146.6000 C   0  0  0  0  0  0  0  0  0  0  0  0
  161.1830  205.2600  147.1530 C   0  0  1  0  0  3  0  0  0  0  0  0
  161.6720  204.5310  145.8650 C   0  0  2  0  0  0  0  0  0  0  0  0
  161.0190  202.9890  147.5730 C   0  0  0  0  0  0  0  0  0  0  0  0
  161.2850  203.1060  146.1480 C   0  0  0  0  0  0  0  0  0  0  0  0
  161.1030  202.1560  145.2260 C   0  0  0  0  0  3  0  0  0  0  0  0
  161.0150  201.8830  148.3220 C   0  0  0  0  0  3  0  0  0  0  0  0
  160.9460  204.2500  148.1270 O   0  0  0  0  0  0  0  0  0  0  0  0
  160.4560  200.8460  145.5240 C   0  0  0  0  0  2  0  0  0  0  0  0
  163.4890  204.6200  145.6340 S   0  0  0  0  0  1  0  0  0  0  0  0
  160.9250  205.1400  144.6700 C   0  0  0  0  0  2  0  0  0  0  0  0
  161.7490  205.1500  143.3890 C   0  0  0  0  0  2  0  0  0  0  0  0
  161.4320  206.3720  142.5390 C   0  0  0  0  0  2  0  0  0  0  0  0
  161.9150  206.2090  141.0980 C   0  0  0  0  0  2  0  0  0  0  0  0
  162.7470  207.3360  140.6920 N   0  0  0  0  0  2  0  0  0  0  0  0
  162.5770  207.5110  139.3580 O   0  0  0  0  0  0  0  0  0  0  0  0
  161.2840  207.8980  139.2280 N   0  0  0  0  0  2  0  0  0  0  0  0
  161.2940  209.2870  138.7990 C   0  0  0  0  0  2  0  0  0  0  0  0
  162.2350  211.0670  140.3370 C   0  0  0  0  0  0  0  0  0  0  0  0
  163.2750  211.1850  139.6320 O   0  0  0  0  0  0  0  0  0  0  0  0
  161.1950  210.1650  139.9570 N   0  0  0  0  0  2  0  0  0  0  0  0
  162.0840  211.8800  141.5740 C   0  0  0  0  0  1  0  0  0  0  0  0
  161.3220  207.2190  148.6990 C   0  0  0  0  0  2  0  0  0  0  0  0
  161.6510  208.6740  148.4510 C   0  0  0  0  0  2  0  0  0  0  0  0
  162.2580  209.2740  149.7030 C   0  0  0  0  0  2  0  0  0  0  0  0
  162.5560  207.4480  151.2400 N   0  0  0  0  0  0  0  0  0  0  0  0
  161.8630  208.4730  150.8980 C   0  0  0  0  0  3  0  0  0  0  0  0
  162.1920  206.6550  152.3910 C   0  0  2  0  0  3  0  0  0  0  0  0
  162.3910  204.1880  152.0640 C   0  0  0  0  0  3  0  0  0  0  0  0
  160.2920  205.2550  151.4870 C   0  0  0  0  0  3  0  0  0  0  0  0
  161.8650  202.9510  151.6860 C   0  0  0  0  0  0  0  0  0  0  0  0
  159.7640  204.0180  151.1120 C   0  0  0  0  0  3  0  0  0  0  0  0
  160.5510  202.8660  151.2100 C   0  0  0  0  0  3  0  0  0  0  0  0
  161.6120  205.3440  151.9610 C   0  0  0  0  0  0  0  0  0  0  0  0
  162.6590  201.7810  151.8000 N   0  0  0  0  0  1  0  0  0  0  0  0
  160.5950  208.6530  152.8290 C   0  0  0  0  0  2  0  0  0  0  0  0
  160.1830  209.2270  155.2010 C   0  0  0  0  0  0  0  0  0  0  0  0
  160.1330  207.7440  155.4970 C   0  0  0  0  0  2  0  0  0  0  0  0
  161.0570  206.9800  154.5840 C   0  0  0  0  0  3  0  0  0  0  0  0
  160.4190  209.6430  153.9540 C   0  0  0  0  0  3  0  0  0  0  0  0
  161.2550  207.3890  153.3170 C   0  0  0  0  0  0  0  0  0  0  0  0
  160.0200  210.1790  156.2120 O   0  0  0  0  0  0  0  0  0  0  0  0
  160.9750  211.1470  156.5470 C   0  0  0  0  0  0  0  0  0  0  0  0
  160.6350  212.3580  156.5630 O   0  0  0  0  0  0  0  0  0  0  0  0
  162.3090  210.7960  156.9300 N   0  0  0  0  0  2  0  0  0  0  0  0
  162.7050  209.4350  157.2600 C   0  0  0  0  0  1  0  0  0  0  0  0
  1 26  1  0  0  0  0
  2 10  1  0  0  0  0
  3  4  1  0  0  0  0
  4  2  2  0  0  0  0
  5  1  1  1  0  0  0
  5 11  1  0  0  0  0
  6 13  1  6  0  0  0
  6  8  1  0  0  0  0
  6  5  1  0  0  0  0
  7 11  1  0  0  0  0
  7 10  2  0  0  0  0
  8  7  1  0  0  0  0
  9 12  1  0  0  0  0
  9  8  2  0  0  0  0
 12  4  1  0  0  0  0
 14  6  1  0  0  0  0
 15 14  1  0  0  0  0
 16 15  1  0  0  0  0
 17 16  1  0  0  0  0
 18 17  1  0  0  0  0
 19 18  1  0  0  0  0
 20 19  1  0  0  0  0
 21 20  1  0  0  0  0
 21 24  1  0  0  0  0
 22 25  1  0  0  0  0
 23 22  2  0  0  0  0
 24 22  1  0  0  0  0
 27 26  1  0  0  0  0
 27 28  1  0  0  0  0
 28 30  1  0  0  0  0
 30 29  2  0  0  0  0
 31 29  1  6  0  0  0
 31 44  1  0  0  0  0
 33 37  2  0  0  0  0
 34 38  1  0  0  0  0
 34 32  2  0  0  0  0
 35 36  2  0  0  0  0
 35 33  1  0  0  0  0
 36 34  1  0  0  0  0
 37 32  1  0  0  0  0
 37 31  1  0  0  0  0
 39 44  1  0  0  0  0
 39 43  1  0  0  0  0
 40 41  1  0  0  0  0
 40 45  1  0  0  0  0
 42 41  1  0  0  0  0
 43 40  2  0  0  0  0
 44 42  2  0  0  0  0
 45 46  1  0  0  0  0
 46 47  2  0  0  0  0
 46 48  1  0  0  0  0
 48 49  1  0  0  0  0
M  END
>  <MODEL>
7

>  <REMARK>
 VINA RESULT:      -3.8      4.104      7.676
  Name = 
  19 active torsions:
  status: ('A' for Active; 'I' for Inactive)
    1  A    between atoms: C_1  and  N_25
    2  A    between atoms: C_1  and  N_38
    3  A    between atoms: C_2  and  C_17
    4  A    between atoms: C_2  and  C_39
    5  A    between atoms: C_3  and  N_10
    6  A    between atoms: C_3  and  C_40
    7  A    between atoms: C_3  and  C_47
    8  A    between atoms: O_4  and  N_23
    9  A    between atoms: O_4  and  N_38
   10  A    between atoms: C_7  and  C_8
   11  A    between atoms: C_7  and  C_21
   12  A    between atoms: C_8  and  C_22
   13  A    between atoms: C_11  and  C_21
   14  A    between atoms: C_11  and  N_23
   15  A    between atoms: C_12  and  O_35
   16  A    between atoms: C_15  and  C_42
   17  A    between atoms: C_20  and  O_35
   18  A    between atoms: C_39  and  C_41
   19  A    between atoms: C_41  and  C_42
                            x       y       z     vdW  Elec       q    Type
                         _______ _______ _______ _____ _____    ______ ____

>  <TORSDO>
F 19

$$$$
=
 OpenBabel11072409493D

 49 52  0  0  1  0  0  0  0  0999 V2000
  161.4710  209.0640  149.7720 C   0  0  0  0  0  2  0  0  0  0  0  0
  161.1970  205.3840  145.1750 C   0  0  0  0  0  3  0  0  0  0  0  0
  160.8000  203.0930  144.8870 O   0  0  0  0  0  1  0  0  0  0  0  0
  161.3920  204.1310  145.5950 C   0  0  0  0  0  0  0  0  0  0  0  0
  162.2160  207.8960  149.1320 C   0  0  1  0  0  3  0  0  0  0  0  0
  161.7350  206.4610  149.5050 C   0  0  2  0  0  0  0  0  0  0  0  0
  161.9290  206.7540  147.1390 C   0  0  0  0  0  0  0  0  0  0  0  0
  161.8310  205.7480  148.1850 C   0  0  0  0  0  0  0  0  0  0  0  0
  161.9310  204.4250  148.0270 C   0  0  0  0  0  3  0  0  0  0  0  0
  161.6620  206.6160  145.8370 C   0  0  0  0  0  3  0  0  0  0  0  0
  162.1710  207.9840  147.7120 O   0  0  0  0  0  0  0  0  0  0  0  0
  162.3020  203.7860  146.7310 C   0  0  0  0  0  2  0  0  0  0  0  0
  159.9940  206.4130  150.0810 S   0  0  0  0  0  1  0  0  0  0  0  0
  162.6920  205.9080  150.5690 C   0  0  0  0  0  2  0  0  0  0  0  0
  162.3680  204.4790  150.9850 C   0  0  0  0  0  2  0  0  0  0  0  0
  161.1770  204.4380  151.9320 C   0  0  0  0  0  2  0  0  0  0  0  0
  160.4490  203.0950  151.8800 C   0  0  0  0  0  2  0  0  0  0  0  0
  160.7610  202.3750  150.6500 N   0  0  0  0  0  2  0  0  0  0  0  0
  159.6610  201.6630  150.3030 O   0  0  0  0  0  0  0  0  0  0  0  0
  160.1480  200.5810  149.6470 N   0  0  0  0  0  2  0  0  0  0  0  0
  161.2000  201.0560  148.7620 C   0  0  0  0  0  2  0  0  0  0  0  0
  161.1670  199.8990  146.5080 C   0  0  0  0  0  0  0  0  0  0  0  0
  160.4340  200.7980  146.0120 O   0  0  0  0  0  0  0  0  0  0  0  0
  161.6120  199.9870  147.8630 N   0  0  0  0  0  2  0  0  0  0  0  0
  161.5790  198.7370  145.6760 C   0  0  0  0  0  1  0  0  0  0  0  0
  162.2990  209.6740  150.8860 C   0  0  0  0  0  2  0  0  0  0  0  0
  162.2340  208.7830  152.1070 C   0  0  0  0  0  2  0  0  0  0  0  0
  160.8950  208.9640  152.7920 C   0  0  0  0  0  2  0  0  0  0  0  0
  159.5330  210.9460  152.8350 N   0  0  0  0  0  0  0  0  0  0  0  0
  160.6680  210.4060  153.0980 C   0  0  0  0  0  3  0  0  0  0  0  0
  159.2900  212.3400  153.1200 C   0  0  2  0  0  3  0  0  0  0  0  0
  157.2440  211.4160  154.2110 C   0  0  0  0  0  3  0  0  0  0  0  0
  157.9100  213.6800  154.7600 C   0  0  0  0  0  3  0  0  0  0  0  0
  156.1560  211.5260  155.0800 C   0  0  0  0  0  0  0  0  0  0  0  0
  156.8240  213.7910  155.6310 C   0  0  0  0  0  3  0  0  0  0  0  0
  155.9460  212.7140  155.7900 C   0  0  0  0  0  3  0  0  0  0  0  0
  158.1200  212.4900  154.0430 C   0  0  0  0  0  0  0  0  0  0  0  0
  155.2740  210.4280  155.2520 N   0  0  0  0  0  1  0  0  0  0  0  0
  157.7100  213.5870  151.4810 C   0  0  0  0  0  2  0  0  0  0  0  0
  158.5650  213.9340  149.1850 C   0  0  0  0  0  0  0  0  0  0  0  0
  159.9180  214.2380  149.7910 C   0  0  0  0  0  2  0  0  0  0  0  0
  160.1360  213.4410  151.0510 C   0  0  0  0  0  3  0  0  0  0  0  0
  157.5430  213.6120  149.9820 C   0  0  0  0  0  3  0  0  0  0  0  0
  159.1020  213.1560  151.8650 C   0  0  0  0  0  0  0  0  0  0  0  0
  158.3640  213.9520  147.8010 O   0  0  0  0  0  0  0  0  0  0  0  0
  158.3320  212.8080  146.9940 C   0  0  0  0  0  0  0  0  0  0  0  0
  157.2400  212.2040  146.8380 O   0  0  0  0  0  0  0  0  0  0  0  0
  159.4890  212.3410  146.2920 N   0  0  0  0  0  2  0  0  0  0  0  0
  160.6970  213.1380  146.1400 C   0  0  0  0  0  1  0  0  0  0  0  0
  1 26  1  0  0  0  0
  2  4  2  0  0  0  0
  2 10  1  0  0  0  0
  3  4  1  0  0  0  0
  4 12  1  0  0  0  0
  5  6  1  0  0  0  0
  5  1  1  1  0  0  0
  6 13  1  1  0  0  0
  6 14  1  0  0  0  0
  7 11  1  0  0  0  0
  7  8  1  0  0  0  0
  8  6  1  0  0  0  0
  9  8  2  0  0  0  0
 10  7  2  0  0  0  0
 11  5  1  0  0  0  0
 12  9  1  0  0  0  0
 14 15  1  0  0  0  0
 15 16  1  0  0  0  0
 17 16  1  0  0  0  0
 18 17  1  0  0  0  0
 19 18  1  0  0  0  0
 20 19  1  0  0  0  0
 21 20  1  0  0  0  0
 22 24  1  0  0  0  0
 23 22  2  0  0  0  0
 24 21  1  0  0  0  0
 25 22  1  0  0  0  0
 26 27  1  0  0  0  0
 27 28  1  0  0  0  0
 28 30  1  0  0  0  0
 29 30  2  0  0  0  0
 31 29  1  6  0  0  0
 31 37  1  0  0  0  0
 32 34  1  0  0  0  0
 33 35  2  0  0  0  0
 34 38  1  0  0  0  0
 34 36  2  0  0  0  0
 35 36  1  0  0  0  0
 37 32  2  0  0  0  0
 37 33  1  0  0  0  0
 39 44  1  0  0  0  0
 40 41  1  0  0  0  0
 40 43  2  0  0  0  0
 41 42  1  0  0  0  0
 42 44  2  0  0  0  0
 43 39  1  0  0  0  0
 44 31  1  0  0  0  0
 45 40  1  0  0  0  0
 46 45  1  0  0  0  0
 47 46  2  0  0  0  0
 48 46  1  0  0  0  0
 49 48  1  0  0  0  0
M  END
>  <MODEL>
8

>  <REMARK>
 VINA RESULT:      -3.7      1.953      3.484
  Name = 
  19 active torsions:
  status: ('A' for Active; 'I' for Inactive)
    1  A    between atoms: C_1  and  N_25
    2  A    between atoms: C_1  and  N_38
    3  A    between atoms: C_2  and  C_17
    4  A    between atoms: C_2  and  C_39
    5  A    between atoms: C_3  and  N_10
    6  A    between atoms: C_3  and  C_40
    7  A    between atoms: C_3  and  C_47
    8  A    between atoms: O_4  and  N_23
    9  A    between atoms: O_4  and  N_38
   10  A    between atoms: C_7  and  C_8
   11  A    between atoms: C_7  and  C_21
   12  A    between atoms: C_8  and  C_22
   13  A    between atoms: C_11  and  C_21
   14  A    between atoms: C_11  and  N_23
   15  A    between atoms: C_12  and  O_35
   16  A    between atoms: C_15  and  C_42
   17  A    between atoms: C_20  and  O_35
   18  A    between atoms: C_39  and  C_41
   19  A    between atoms: C_41  and  C_42
                            x       y       z     vdW  Elec       q    Type
                         _______ _______ _______ _____ _____    ______ ____

>  <TORSDO>
F 19

$$$$
=
 OpenBabel11072409493D

 49 52  0  0  1  0  0  0  0  0999 V2000
  161.3840  208.8510  149.0380 C   0  0  0  0  0  2  0  0  0  0  0  0
  160.9420  204.5530  145.0290 C   0  0  0  0  0  3  0  0  0  0  0  0
  160.5040  202.2520  145.0840 O   0  0  0  0  0  1  0  0  0  0  0  0
  161.1290  203.3700  145.6210 C   0  0  0  0  0  0  0  0  0  0  0  0
  162.0960  207.5900  148.5560 C   0  0  1  0  0  3  0  0  0  0  0  0
  161.6030  206.2330  149.1440 C   0  0  2  0  0  0  0  0  0  0  0  0
  161.7430  206.1780  146.7570 C   0  0  0  0  0  0  0  0  0  0  0  0
  161.6560  205.3350  147.9390 C   0  0  0  0  0  0  0  0  0  0  0  0
  161.7320  204.0020  147.9720 C   0  0  0  0  0  3  0  0  0  0  0  0
  161.4410  205.8590  145.4950 C   0  0  0  0  0  3  0  0  0  0  0  0
  162.0170  207.4740  147.1400 O   0  0  0  0  0  0  0  0  0  0  0  0
  162.0620  203.1760  146.7740 C   0  0  0  0  0  2  0  0  0  0  0  0
  159.8760  206.3000  149.7600 S   0  0  0  0  0  1  0  0  0  0  0  0
  162.5780  205.8220  150.2560 C   0  0  0  0  0  2  0  0  0  0  0  0
  161.8900  205.1750  151.4500 C   0  0  0  0  0  2  0  0  0  0  0  0
  161.8570  206.1170  152.6440 C   0  0  0  0  0  2  0  0  0  0  0  0
  160.6950  205.8060  153.5880 C   0  0  0  0  0  2  0  0  0  0  0  0
  160.8390  206.5210  154.8520 N   0  0  0  0  0  2  0  0  0  0  0  0
  160.2920  207.7510  154.6900 O   0  0  0  0  0  0  0  0  0  0  0  0
  160.8490  208.5030  155.6710 N   0  0  0  0  0  2  0  0  0  0  0  0
  159.8100  209.3870  156.1730 C   0  0  0  0  0  2  0  0  0  0  0  0
  160.9910  211.6190  156.3820 C   0  0  0  0  0  0  0  0  0  0  0  0
  160.9540  211.8020  155.1350 O   0  0  0  0  0  0  0  0  0  0  0  0
  160.4070  210.4540  156.9660 N   0  0  0  0  0  2  0  0  0  0  0  0
  161.6420  212.6290  157.2590 C   0  0  0  0  0  1  0  0  0  0  0  0
  162.3290  209.7160  149.8510 C   0  0  0  0  0  2  0  0  0  0  0  0
  162.3470  209.2310  151.2830 C   0  0  0  0  0  2  0  0  0  0  0  0
  161.0340  209.5840  151.9520 C   0  0  0  0  0  2  0  0  0  0  0  0
  159.7060  211.5880  151.9290 N   0  0  0  0  0  0  0  0  0  0  0  0
  160.8740  211.0650  152.0150 C   0  0  0  0  0  3  0  0  0  0  0  0
  159.5260  213.0200  151.9850 C   0  0  2  0  0  3  0  0  0  0  0  0
  158.2390  213.2340  154.1140 C   0  0  0  0  0  3  0  0  0  0  0  0
  157.1330  213.8340  152.0430 C   0  0  0  0  0  3  0  0  0  0  0  0
  157.0830  213.5630  154.8260 C   0  0  0  0  0  0  0  0  0  0  0  0
  155.9780  214.1660  152.7540 C   0  0  0  0  0  3  0  0  0  0  0  0
  155.9530  214.0300  154.1460 C   0  0  0  0  0  3  0  0  0  0  0  0
  158.2680  213.3620  152.7230 C   0  0  0  0  0  0  0  0  0  0  0  0
  157.0640  213.4390  156.2390 N   0  0  0  0  0  1  0  0  0  0  0  0
  158.2350  214.0600  149.9890 C   0  0  0  0  0  2  0  0  0  0  0  0
  159.4010  214.0550  147.8060 C   0  0  0  0  0  0  0  0  0  0  0  0
  160.6740  214.4060  148.5450 C   0  0  0  0  0  2  0  0  0  0  0  0
  160.6880  213.7910  149.9210 C   0  0  0  0  0  3  0  0  0  0  0  0
  158.2690  213.8760  148.4920 C   0  0  0  0  0  3  0  0  0  0  0  0
  159.5430  213.6530  150.6160 C   0  0  0  0  0  0  0  0  0  0  0  0
  159.3870  213.8800  146.4190 O   0  0  0  0  0  0  0  0  0  0  0  0
  159.8720  212.7420  145.7620 C   0  0  0  0  0  0  0  0  0  0  0  0
  160.2260  211.7480  146.4470 O   0  0  0  0  0  0  0  0  0  0  0  0
  159.9180  212.6520  144.3340 N   0  0  0  0  0  2  0  0  0  0  0  0
  159.2360  213.5940  143.4590 C   0  0  0  0  0  1  0  0  0  0  0  0
  1 26  1  0  0  0  0
  2 10  1  0  0  0  0
  2  4  2  0  0  0  0
  3  4  1  0  0  0  0
  4 12  1  0  0  0  0
  5  1  1  1  0  0  0
  5  6  1  0  0  0  0
  6 13  1  1  0  0  0
  6 14  1  0  0  0  0
  7 11  1  0  0  0  0
  7  8  1  0  0  0  0
  8  9  2  0  0  0  0
  8  6  1  0  0  0  0
 10  7  2  0  0  0  0
 11  5  1  0  0  0  0
 12  9  1  0  0  0  0
 14 15  1  0  0  0  0
 15 16  1  0  0  0  0
 16 17  1  0  0  0  0
 17 18  1  0  0  0  0
 19 18  1  0  0  0  0
 19 20  1  0  0  0  0
 20 21  1  0  0  0  0
 21 24  1  0  0  0  0
 22 24  1  0  0  0  0
 22 25  1  0  0  0  0
 23 22  2  0  0  0  0
 26 27  1  0  0  0  0
 27 28  1  0  0  0  0
 28 30  1  0  0  0  0
 29 30  2  0  0  0  0
 31 29  1  6  0  0  0
 31 37  1  0  0  0  0
 32 34  1  0  0  0  0
 33 37  1  0  0  0  0
 33 35  2  0  0  0  0
 34 38  1  0  0  0  0
 35 36  1  0  0  0  0
 36 34  2  0  0  0  0
 37 32  2  0  0  0  0
 39 44  1  0  0  0  0
 40 43  2  0  0  0  0
 40 41  1  0  0  0  0
 41 42  1  0  0  0  0
 42 44  2  0  0  0  0
 43 39  1  0  0  0  0
 44 31  1  0  0  0  0
 45 40  1  0  0  0  0
 46 45  1  0  0  0  0
 46 47  2  0  0  0  0
 48 46  1  0  0  0  0
 49 48  1  0  0  0  0
M  END
>  <MODEL>
9

>  <REMARK>
 VINA RESULT:      -3.7      2.879      6.094
  Name = 
  19 active torsions:
  status: ('A' for Active; 'I' for Inactive)
    1  A    between atoms: C_1  and  N_25
    2  A    between atoms: C_1  and  N_38
    3  A    between atoms: C_2  and  C_17
    4  A    between atoms: C_2  and  C_39
    5  A    between atoms: C_3  and  N_10
    6  A    between atoms: C_3  and  C_40
    7  A    between atoms: C_3  and  C_47
    8  A    between atoms: O_4  and  N_23
    9  A    between atoms: O_4  and  N_38
   10  A    between atoms: C_7  and  C_8
   11  A    between atoms: C_7  and  C_21
   12  A    between atoms: C_8  and  C_22
   13  A    between atoms: C_11  and  C_21
   14  A    between atoms: C_11  and  N_23
   15  A    between atoms: C_12  and  O_35
   16  A    between atoms: C_15  and  C_42
   17  A    between atoms: C_20  and  O_35
   18  A    between atoms: C_39  and  C_41
   19  A    between atoms: C_41  and  C_42
                            x       y       z     vdW  Elec       q    Type
                         _______ _______ _______ _____ _____    ______ ____

>  <TORSDO>
F 19

$$$$
