=
 OpenBabel11072412223D

 27 30  0  0  1  0  0  0  0  0999 V2000
  160.4410  209.8410  153.8610 N   0  0  0  0  0  2  0  0  0  0  0  0
  162.1620  208.2330  151.2810 N   0  0  0  0  0  0  0  0  0  0  0  0
  161.1380  207.6080  154.0650 N   0  0  0  0  0  0  0  0  0  0  0  0
  161.5340  206.3250  153.5770 C   0  0  0  0  0  3  0  0  0  0  0  0
  161.5930  206.0780  152.2700 C   0  0  0  0  0  0  0  0  0  0  0  0
  161.2050  207.1130  151.2480 C   0  0  1  0  0  3  0  0  0  0  0  0
  160.7890  208.4310  151.7770 C   0  0  1  0  0  3  0  0  0  0  0  0
  160.8070  208.5870  153.2810 C   0  0  0  0  0  0  0  0  0  0  0  0
  161.5620  207.8060  148.9740 C   0  0  0  0  0  1  0  0  0  0  0  0
  162.2010  208.7840  149.9400 C   0  0  0  0  0  2  0  0  0  0  0  0
  162.0020  204.7250  151.7930 C   0  0  0  0  0  2  0  0  0  0  0  0
  160.4470  203.0810  152.0200 O   0  0  0  0  0  1  0  0  0  0  0  0
  160.8760  204.0450  151.1650 N   0  0  0  0  0  0  0  0  0  0  0  0
  161.3450  203.4100  149.9310 C   0  0  1  0  0  3  0  0  0  0  0  0
  160.6300  202.5610  147.3070 N   0  0  2  0  0  0  0  0  0  0  0  0
  160.6710  202.0270  149.6590 C   0  0  0  0  0  2  0  0  0  0  0  0
  161.2430  204.3970  148.7490 C   0  0  0  0  0  2  0  0  0  0  0  0
  160.1240  201.2000  145.2730 C   0  0  0  0  0  1  0  0  0  0  0  0
  161.6130  203.6040  147.5190 C   0  0  2  0  0  3  0  0  0  0  0  0
  160.9780  201.5020  148.2430 C   0  0  0  0  0  2  0  0  0  0  0  0
  160.8860  202.2180  145.9750 N   0  0  0  0  0  0  0  0  0  0  0  0
  161.4200  203.3540  145.3050 C   0  0  0  0  0  2  0  0  0  0  0  0
  161.8000  204.2610  146.1960 C   0  0  0  0  0  2  0  0  0  0  0  0
  160.1060  210.9090  153.0950 O   0  0  0  0  0  0  0  0  0  0  0  0
  159.6700  211.8820  153.9980 C   0  0  1  0  0  3  0  0  0  0  0  0
  158.2400  211.5910  154.4020 C   0  0  0  0  0  1  0  0  0  0  0  0
  160.4840  211.8660  155.1290 O   0  0  0  0  0  1  0  0  0  0  0  0
  2  7  1  0  0  0  0
  4  3  1  0  0  0  0
  5  4  2  0  0  0  0
  6  2  1  0  0  0  0
  6  7  1  0  0  0  0
  6  5  1  1  0  0  0
  7  8  1  1  0  0  0
  8  1  1  0  0  0  0
  8  3  2  0  0  0  0
  9 10  1  0  0  0  0
 10  2  1  0  0  0  0
 11  5  1  0  0  0  0
 13 11  1  0  0  0  0
 13 12  1  0  0  0  0
 14 13  1  1  0  0  0
 15 19  1  0  0  0  0
 15 20  1  1  0  0  0
 16 14  1  0  0  0  0
 17 14  1  0  0  0  0
 18 21  1  0  0  0  0
 19 23  1  6  0  0  0
 19 17  1  0  0  0  0
 20 16  1  0  0  0  0
 21 15  1  0  0  0  0
 22 21  1  0  0  0  0
 22 23  1  0  0  0  0
 24  1  1  0  0  0  0
 24 25  1  0  0  0  0
 25 26  1  1  0  0  0
 25 27  1  0  0  0  0
M  END
>  <MODEL>
1

>  <REMARK>
 VINA RESULT:      -8.2      0.000      0.000
  Name = 
  6 active torsions:
  status: ('A' for Active; 'I' for Inactive)
    1  A    between atoms: C_1  and  C_17
    2  A    between atoms: C_1  and  N_25
    3  A    between atoms: C_2  and  N_25
    4  A    between atoms: O_3  and  C_4
    5  A    between atoms: O_3  and  N_8
    6  A    between atoms: N_10  and  C_22
                            x       y       z     vdW  Elec       q    Type
                         _______ _______ _______ _____ _____    ______ ____

>  <TORSDO>
F 6

$$$$
=
 OpenBabel11072412223D

 27 30  0  0  1  0  0  0  0  0999 V2000
  160.0530  209.3680  155.2740 N   0  0  0  0  0  2  0  0  0  0  0  0
  161.9030  208.7500  152.3760 N   0  0  0  0  0  0  0  0  0  0  0  0
  160.9050  207.2310  154.8020 N   0  0  0  0  0  0  0  0  0  0  0  0
  161.3950  206.1900  153.9550 C   0  0  0  0  0  3  0  0  0  0  0  0
  161.4810  206.3630  152.6370 C   0  0  0  0  0  0  0  0  0  0  0  0
  161.0280  207.6360  151.9720 C   0  0  1  0  0  3  0  0  0  0  0  0
  160.5160  208.6960  152.8680 C   0  0  1  0  0  3  0  0  0  0  0  0
  160.5120  208.3810  154.3480 C   0  0  0  0  0  0  0  0  0  0  0  0
  161.9650  208.9280  149.9620 C   0  0  0  0  0  1  0  0  0  0  0  0
  161.9130  209.6900  151.2700 C   0  0  0  0  0  2  0  0  0  0  0  0
  161.9870  205.2530  151.7800 C   0  0  0  0  0  2  0  0  0  0  0  0
  160.4310  203.6160  152.0410 O   0  0  0  0  0  1  0  0  0  0  0  0
  160.8770  204.5440  151.1560 N   0  0  0  0  0  0  0  0  0  0  0  0
  161.3750  203.8580  149.9610 C   0  0  1  0  0  3  0  0  0  0  0  0
  160.7370  202.9470  147.3370 N   0  0  2  0  0  0  0  0  0  0  0  0
  160.6730  202.4860  149.7040 C   0  0  0  0  0  2  0  0  0  0  0  0
  161.3460  204.8100  148.7470 C   0  0  0  0  0  2  0  0  0  0  0  0
  160.2700  201.5370  145.3270 C   0  0  0  0  0  1  0  0  0  0  0  0
  161.7390  203.9700  147.5560 C   0  0  2  0  0  3  0  0  0  0  0  0
  161.0190  201.9090  148.3180 C   0  0  0  0  0  2  0  0  0  0  0  0
  161.0330  202.5570  146.0270 N   0  0  0  0  0  0  0  0  0  0  0  0
  161.6240  203.6560  145.3450 C   0  0  0  0  0  2  0  0  0  0  0  0
  161.9960  204.5790  146.2230 C   0  0  0  0  0  2  0  0  0  0  0  0
  159.6500  210.5960  154.8640 O   0  0  0  0  0  0  0  0  0  0  0  0
  160.4750  211.4950  155.5420 C   0  0  1  0  0  3  0  0  0  0  0  0
  159.8570  212.8770  155.5020 C   0  0  0  0  0  1  0  0  0  0  0  0
  160.6170  211.0900  156.8680 O   0  0  0  0  0  1  0  0  0  0  0  0
  2  7  1  0  0  0  0
  4  3  1  0  0  0  0
  5  4  2  0  0  0  0
  6  2  1  0  0  0  0
  6  5  1  1  0  0  0
  6  7  1  0  0  0  0
  7  8  1  1  0  0  0
  8  3  2  0  0  0  0
  8  1  1  0  0  0  0
  9 10  1  0  0  0  0
 10  2  1  0  0  0  0
 11  5  1  0  0  0  0
 13 11  1  0  0  0  0
 13 12  1  0  0  0  0
 14 13  1  1  0  0  0
 15 19  1  0  0  0  0
 15 20  1  1  0  0  0
 16 14  1  0  0  0  0
 17 14  1  0  0  0  0
 18 21  1  0  0  0  0
 19 23  1  6  0  0  0
 19 17  1  0  0  0  0
 20 16  1  0  0  0  0
 21 15  1  0  0  0  0
 22 21  1  0  0  0  0
 22 23  1  0  0  0  0
 24  1  1  0  0  0  0
 24 25  1  0  0  0  0
 25 26  1  1  0  0  0
 25 27  1  0  0  0  0
M  END
>  <MODEL>
2

>  <REMARK>
 VINA RESULT:      -7.7      0.986      1.084
  Name = 
  6 active torsions:
  status: ('A' for Active; 'I' for Inactive)
    1  A    between atoms: C_1  and  C_17
    2  A    between atoms: C_1  and  N_25
    3  A    between atoms: C_2  and  N_25
    4  A    between atoms: O_3  and  C_4
    5  A    between atoms: O_3  and  N_8
    6  A    between atoms: N_10  and  C_22
                            x       y       z     vdW  Elec       q    Type
                         _______ _______ _______ _____ _____    ______ ____

>  <TORSDO>
F 6

$$$$
=
 OpenBabel11072412223D

 27 30  0  0  1  0  0  0  0  0999 V2000
  160.4760  210.4160  152.7980 N   0  0  0  0  0  2  0  0  0  0  0  0
  160.3080  207.1880  154.1230 N   0  0  0  0  0  0  0  0  0  0  0  0
  160.8390  208.5240  151.4550 N   0  0  0  0  0  0  0  0  0  0  0  0
  161.1900  207.1630  151.2040 C   0  0  0  0  0  3  0  0  0  0  0  0
  161.5500  206.3520  152.1980 C   0  0  0  0  0  0  0  0  0  0  0  0
  161.6480  206.8370  153.6200 C   0  0  1  0  0  3  0  0  0  0  0  0
  161.2890  208.2530  153.8550 C   0  0  1  0  0  3  0  0  0  0  0  0
  160.8600  209.0480  152.6420 C   0  0  0  0  0  0  0  0  0  0  0  0
  160.0370  208.2530  156.2820 C   0  0  0  0  0  1  0  0  0  0  0  0
  160.3300  206.9560  155.5550 C   0  0  0  0  0  2  0  0  0  0  0  0
  161.9180  204.9390  151.9000 C   0  0  0  0  0  2  0  0  0  0  0  0
  160.3570  203.2980  152.1020 O   0  0  0  0  0  1  0  0  0  0  0  0
  160.8120  204.2510  151.2480 N   0  0  0  0  0  0  0  0  0  0  0  0
  161.3170  203.5980  150.0370 C   0  0  1  0  0  3  0  0  0  0  0  0
  160.6850  202.7290  147.3980 N   0  0  2  0  0  0  0  0  0  0  0  0
  160.6400  202.2190  149.7550 C   0  0  0  0  0  2  0  0  0  0  0  0
  161.2650  204.5740  148.8430 C   0  0  0  0  0  2  0  0  0  0  0  0
  160.2370  201.3520  145.3610 C   0  0  0  0  0  1  0  0  0  0  0  0
  161.6690  203.7660  147.6340 C   0  0  2  0  0  3  0  0  0  0  0  0
  160.9910  201.6770  148.3570 C   0  0  0  0  0  2  0  0  0  0  0  0
  160.9830  202.3710  146.0790 N   0  0  0  0  0  0  0  0  0  0  0  0
  161.5500  203.4950  145.4180 C   0  0  0  0  0  2  0  0  0  0  0  0
  161.9080  204.4070  146.3120 C   0  0  0  0  0  2  0  0  0  0  0  0
  160.4550  211.0150  154.0150 O   0  0  0  0  0  0  0  0  0  0  0  0
  159.2380  211.6980  154.0640 C   0  0  1  0  0  3  0  0  0  0  0  0
  158.7450  211.9530  152.6550 C   0  0  0  0  0  1  0  0  0  0  0  0
  158.2990  210.9300  154.7510 O   0  0  0  0  0  1  0  0  0  0  0  0
  1 24  1  0  0  0  0
  2 10  1  0  0  0  0
  3  8  2  0  0  0  0
  4  3  1  0  0  0  0
  4  5  2  0  0  0  0
  6  5  1  6  0  0  0
  6  7  1  0  0  0  0
  6  2  1  0  0  0  0
  7  8  1  6  0  0  0
  7  2  1  0  0  0  0
  8  1  1  0  0  0  0
 10  9  1  0  0  0  0
 11  5  1  0  0  0  0
 13 11  1  0  0  0  0
 13 12  1  0  0  0  0
 14 13  1  1  0  0  0
 15 19  1  0  0  0  0
 15 20  1  1  0  0  0
 16 14  1  0  0  0  0
 17 14  1  0  0  0  0
 18 21  1  0  0  0  0
 19 23  1  6  0  0  0
 19 17  1  0  0  0  0
 20 16  1  0  0  0  0
 21 15  1  0  0  0  0
 22 21  1  0  0  0  0
 22 23  1  0  0  0  0
 24 25  1  0  0  0  0
 25 26  1  6  0  0  0
 25 27  1  0  0  0  0
M  END
>  <MODEL>
3

>  <REMARK>
 VINA RESULT:      -7.6      1.082      2.316
  Name = 
  6 active torsions:
  status: ('A' for Active; 'I' for Inactive)
    1  A    between atoms: C_1  and  C_17
    2  A    between atoms: C_1  and  N_25
    3  A    between atoms: C_2  and  N_25
    4  A    between atoms: O_3  and  C_4
    5  A    between atoms: O_3  and  N_8
    6  A    between atoms: N_10  and  C_22
                            x       y       z     vdW  Elec       q    Type
                         _______ _______ _______ _____ _____    ______ ____

>  <TORSDO>
F 6

$$$$
=
 OpenBabel11072412223D

 27 30  0  0  1  0  0  0  0  0999 V2000
  160.8310  201.6150  147.3260 N   0  0  0  0  0  2  0  0  0  0  0  0
  160.5020  204.8980  148.4740 N   0  0  0  0  0  0  0  0  0  0  0  0
  160.5690  202.0890  149.6110 N   0  0  0  0  0  0  0  0  0  0  0  0
  160.6380  202.9070  150.7810 C   0  0  0  0  0  3  0  0  0  0  0  0
  161.1010  204.1540  150.7180 C   0  0  0  0  0  0  0  0  0  0  0  0
  161.6120  204.7470  149.4320 C   0  0  1  0  0  3  0  0  0  0  0  0
  161.5390  203.8790  148.2360 C   0  0  1  0  0  3  0  0  0  0  0  0
  160.9550  202.4990  148.4420 C   0  0  0  0  0  0  0  0  0  0  0  0
  162.0530  205.6980  146.7950 C   0  0  0  0  0  1  0  0  0  0  0  0
  160.8350  206.0310  147.6310 C   0  0  0  0  0  2  0  0  0  0  0  0
  161.1690  204.9780  151.9590 C   0  0  0  0  0  2  0  0  0  0  0  0
  163.0040  206.3160  152.0600 O   0  0  0  0  0  1  0  0  0  0  0  0
  161.7060  206.3000  151.6630 N   0  0  0  0  0  0  0  0  0  0  0  0
  160.9610  207.2920  152.4430 C   0  0  1  0  0  3  0  0  0  0  0  0
  161.1470  209.6080  154.0920 N   0  0  2  0  0  0  0  0  0  0  0  0
  161.2380  207.2000  153.9780 C   0  0  0  0  0  2  0  0  0  0  0  0
  161.1700  208.7030  151.8540 C   0  0  0  0  0  2  0  0  0  0  0  0
  161.0720  211.2080  156.0110 C   0  0  0  0  0  1  0  0  0  0  0  0
  160.4810  209.6510  152.8060 C   0  0  2  0  0  3  0  0  0  0  0  0
  160.6560  208.4030  154.7440 C   0  0  0  0  0  2  0  0  0  0  0  0
  160.6680  210.7830  154.6810 N   0  0  0  0  0  0  0  0  0  0  0  0
  160.3590  211.7160  153.6540 C   0  0  0  0  0  2  0  0  0  0  0  0
  160.3150  211.0950  152.4830 C   0  0  0  0  0  2  0  0  0  0  0  0
  161.1960  201.9920  146.0760 O   0  0  0  0  0  0  0  0  0  0  0  0
  160.0050  202.0360  145.3470 C   0  0  1  0  0  3  0  0  0  0  0  0
  159.9820  203.2860  144.4930 C   0  0  0  0  0  1  0  0  0  0  0  0
  159.9200  200.9130  144.5260 O   0  0  0  0  0  1  0  0  0  0  0  0
  1  8  1  0  0  0  0
  2  6  1  0  0  0  0
  3  4  1  0  0  0  0
  5  4  2  0  0  0  0
  5 11  1  0  0  0  0
  6  5  1  1  0  0  0
  7  8  1  1  0  0  0
  7  2  1  0  0  0  0
  7  6  1  0  0  0  0
  8  3  2  0  0  0  0
  9 10  1  0  0  0  0
 10  2  1  0  0  0  0
 13 11  1  0  0  0  0
 13 12  1  0  0  0  0
 14 13  1  6  0  0  0
 14 16  1  0  0  0  0
 15 21  1  0  0  0  0
 15 20  1  1  0  0  0
 16 20  1  0  0  0  0
 17 14  1  0  0  0  0
 19 17  1  6  0  0  0
 19 15  1  0  0  0  0
 21 18  1  0  0  0  0
 22 21  1  0  0  0  0
 23 19  1  0  0  0  0
 23 22  1  0  0  0  0
 24  1  1  0  0  0  0
 25 26  1  6  0  0  0
 25 24  1  0  0  0  0
 27 25  1  0  0  0  0
M  END
>  <MODEL>
4

>  <REMARK>
 VINA RESULT:      -7.6      2.491      8.623
  Name = 
  6 active torsions:
  status: ('A' for Active; 'I' for Inactive)
    1  A    between atoms: C_1  and  C_17
    2  A    between atoms: C_1  and  N_25
    3  A    between atoms: C_2  and  N_25
    4  A    between atoms: O_3  and  C_4
    5  A    between atoms: O_3  and  N_8
    6  A    between atoms: N_10  and  C_22
                            x       y       z     vdW  Elec       q    Type
                         _______ _______ _______ _____ _____    ______ ____

>  <TORSDO>
F 6

$$$$
=
 OpenBabel11072412223D

 27 30  0  0  1  0  0  0  0  0999 V2000
  160.6540  210.0870  155.3200 N   0  0  0  0  0  2  0  0  0  0  0  0
  162.0390  209.0730  152.2770 N   0  0  0  0  0  0  0  0  0  0  0  0
  161.2850  207.8560  154.9490 N   0  0  0  0  0  0  0  0  0  0  0  0
  161.5800  206.7090  154.1500 C   0  0  0  0  0  3  0  0  0  0  0  0
  161.4940  206.7590  152.8210 C   0  0  0  0  0  0  0  0  0  0  0  0
  161.0420  208.0020  152.1020 C   0  0  1  0  0  3  0  0  0  0  0  0
  160.7330  209.1740  152.9500 C   0  0  1  0  0  3  0  0  0  0  0  0
  160.9120  208.9900  154.4410 C   0  0  0  0  0  0  0  0  0  0  0  0
  161.9760  209.0350  149.8570 C   0  0  0  0  0  1  0  0  0  0  0  0
  161.9600  209.9090  151.0940 C   0  0  0  0  0  2  0  0  0  0  0  0
  161.8000  205.5420  152.0170 C   0  0  0  0  0  2  0  0  0  0  0  0
  160.8660  203.5120  152.4370 O   0  0  0  0  0  1  0  0  0  0  0  0
  160.6080  204.7170  151.8680 N   0  0  0  0  0  0  0  0  0  0  0  0
  160.3520  204.5200  150.4390 C   0  0  1  0  0  3  0  0  0  0  0  0
  161.5250  204.0860  147.8790 N   0  0  2  0  0  0  0  0  0  0  0  0
  160.8760  205.6960  149.5540 C   0  0  0  0  0  2  0  0  0  0  0  0
  160.8540  203.1310  149.9920 C   0  0  0  0  0  2  0  0  0  0  0  0
  162.2930  204.3250  145.5120 C   0  0  0  0  0  1  0  0  0  0  0  0
  160.6710  203.0910  148.4940 C   0  0  2  0  0  3  0  0  0  0  0  0
  160.8320  205.3540  148.0520 C   0  0  0  0  0  2  0  0  0  0  0  0
  161.5370  203.6470  146.5510 N   0  0  0  0  0  0  0  0  0  0  0  0
  161.3290  202.2400  146.5340 C   0  0  0  0  0  2  0  0  0  0  0  0
  160.8820  201.8390  147.7170 C   0  0  0  0  0  2  0  0  0  0  0  0
  160.2830  211.3040  154.8490 O   0  0  0  0  0  0  0  0  0  0  0  0
  159.0660  211.5800  155.4760 C   0  0  1  0  0  3  0  0  0  0  0  0
  157.9640  211.6330  154.4380 C   0  0  0  0  0  1  0  0  0  0  0  0
  158.7810  210.5800  156.4040 O   0  0  0  0  0  1  0  0  0  0  0  0
  2  7  1  0  0  0  0
  4  3  1  0  0  0  0
  5  4  2  0  0  0  0
  6  2  1  0  0  0  0
  6  5  1  1  0  0  0
  6  7  1  0  0  0  0
  7  8  1  1  0  0  0
  8  3  2  0  0  0  0
  8  1  1  0  0  0  0
  9 10  1  0  0  0  0
 10  2  1  0  0  0  0
 11  5  1  0  0  0  0
 13 11  1  0  0  0  0
 13 12  1  0  0  0  0
 14 13  1  1  0  0  0
 15 20  1  6  0  0  0
 15 19  1  0  0  0  0
 16 14  1  0  0  0  0
 17 14  1  0  0  0  0
 18 21  1  0  0  0  0
 19 23  1  6  0  0  0
 19 17  1  0  0  0  0
 20 16  1  0  0  0  0
 21 15  1  0  0  0  0
 22 21  1  0  0  0  0
 22 23  1  0  0  0  0
 24  1  1  0  0  0  0
 24 25  1  0  0  0  0
 25 26  1  6  0  0  0
 25 27  1  0  0  0  0
M  END
>  <MODEL>
5

>  <REMARK>
 VINA RESULT:      -7.3      1.224      1.920
  Name = 
  6 active torsions:
  status: ('A' for Active; 'I' for Inactive)
    1  A    between atoms: C_1  and  C_17
    2  A    between atoms: C_1  and  N_25
    3  A    between atoms: C_2  and  N_25
    4  A    between atoms: O_3  and  C_4
    5  A    between atoms: O_3  and  N_8
    6  A    between atoms: N_10  and  C_22
                            x       y       z     vdW  Elec       q    Type
                         _______ _______ _______ _____ _____    ______ ____

>  <TORSDO>
F 6

$$$$
=
 OpenBabel11072412223D

 27 30  0  0  1  0  0  0  0  0999 V2000
  161.9990  204.3040  146.6010 N   0  0  0  0  0  2  0  0  0  0  0  0
  161.5700  204.5790  150.0560 N   0  0  0  0  0  0  0  0  0  0  0  0
  162.1030  206.3860  147.6820 N   0  0  0  0  0  0  0  0  0  0  0  0
  161.8300  207.3150  148.7320 C   0  0  0  0  0  3  0  0  0  0  0  0
  161.1050  206.9580  149.7910 C   0  0  0  0  0  0  0  0  0  0  0  0
  160.5020  205.5840  149.9130 C   0  0  1  0  0  3  0  0  0  0  0  0
  160.7900  204.6420  148.8090 C   0  0  1  0  0  3  0  0  0  0  0  0
  161.6600  205.1670  147.6890 C   0  0  0  0  0  0  0  0  0  0  0  0
  160.8410  203.9410  152.2760 C   0  0  0  0  0  1  0  0  0  0  0  0
  161.0130  203.4920  150.8390 C   0  0  0  0  0  2  0  0  0  0  0  0
  160.8310  207.9540  150.8660 C   0  0  0  0  0  2  0  0  0  0  0  0
  162.3310  207.0350  152.3080 O   0  0  0  0  0  1  0  0  0  0  0  0
  162.0310  208.1900  151.6590 N   0  0  0  0  0  0  0  0  0  0  0  0
  161.7380  209.2270  152.6520 C   0  0  1  0  0  3  0  0  0  0  0  0
  159.6900  210.6670  154.0120 N   0  0  2  0  0  0  0  0  0  0  0  0
  161.0600  210.4930  152.0350 C   0  0  0  0  0  2  0  0  0  0  0  0
  160.9660  208.6240  153.8440 C   0  0  0  0  0  2  0  0  0  0  0  0
  158.1580  212.4530  154.8560 C   0  0  0  0  0  1  0  0  0  0  0  0
  160.5960  209.7920  154.7270 C   0  0  2  0  0  3  0  0  0  0  0  0
  160.5290  211.4510  153.1180 C   0  0  0  0  0  2  0  0  0  0  0  0
  159.1590  211.4200  155.0650 N   0  0  0  0  0  0  0  0  0  0  0  0
  159.1970  210.6370  156.2520 C   0  0  0  0  0  2  0  0  0  0  0  0
  159.9910  209.5910  156.0720 C   0  0  0  0  0  2  0  0  0  0  0  0
  161.5860  203.0130  146.5600 O   0  0  0  0  0  0  0  0  0  0  0  0
  161.1120  202.8230  145.2600 C   0  0  1  0  0  3  0  0  0  0  0  0
  160.0800  201.7140  145.2560 C   0  0  0  0  0  1  0  0  0  0  0  0
  160.5280  204.0020  144.7990 O   0  0  0  0  0  1  0  0  0  0  0  0
  1  8  1  0  0  0  0
  2 10  1  0  0  0  0
  3  8  2  0  0  0  0
  3  4  1  0  0  0  0
  4  5  2  0  0  0  0
  5 11  1  0  0  0  0
  6  5  1  6  0  0  0
  6  2  1  0  0  0  0
  7  8  1  6  0  0  0
  7  6  1  0  0  0  0
  7  2  1  0  0  0  0
 10  9  1  0  0  0  0
 11 13  1  0  0  0  0
 13 12  1  0  0  0  0
 14 13  1  6  0  0  0
 14 17  1  0  0  0  0
 15 20  1  6  0  0  0
 15 19  1  0  0  0  0
 15 21  1  0  0  0  0
 16 14  1  0  0  0  0
 16 20  1  0  0  0  0
 18 21  1  0  0  0  0
 19 17  1  6  0  0  0
 19 23  1  0  0  0  0
 21 22  1  0  0  0  0
 23 22  1  0  0  0  0
 24  1  1  0  0  0  0
 25 26  1  1  0  0  0
 25 24  1  0  0  0  0
 27 25  1  0  0  0  0
M  END
>  <MODEL>
6

>  <REMARK>
 VINA RESULT:      -7.2      2.537      8.952
  Name = 
  6 active torsions:
  status: ('A' for Active; 'I' for Inactive)
    1  A    between atoms: C_1  and  C_17
    2  A    between atoms: C_1  and  N_25
    3  A    between atoms: C_2  and  N_25
    4  A    between atoms: O_3  and  C_4
    5  A    between atoms: O_3  and  N_8
    6  A    between atoms: N_10  and  C_22
                            x       y       z     vdW  Elec       q    Type
                         _______ _______ _______ _____ _____    ______ ____

>  <TORSDO>
F 6

$$$$
=
 OpenBabel11072412223D

 27 30  0  0  1  0  0  0  0  0999 V2000
  160.8880  201.8850  147.6280 N   0  0  0  0  0  2  0  0  0  0  0  0
  160.5390  205.2880  148.3330 N   0  0  0  0  0  0  0  0  0  0  0  0
  160.5300  202.6470  149.8200 N   0  0  0  0  0  0  0  0  0  0  0  0
  160.5560  203.6060  150.8780 C   0  0  0  0  0  3  0  0  0  0  0  0
  161.0320  204.8340  150.6780 C   0  0  0  0  0  0  0  0  0  0  0  0
  161.6040  205.2570  149.3510 C   0  0  1  0  0  3  0  0  0  0  0  0
  161.5760  204.2440  148.2730 C   0  0  1  0  0  3  0  0  0  0  0  0
  160.9700  202.9040  148.6270 C   0  0  0  0  0  0  0  0  0  0  0  0
  162.1730  205.8660  146.6420 C   0  0  0  0  0  1  0  0  0  0  0  0
  160.9180  206.3040  147.3690 C   0  0  0  0  0  2  0  0  0  0  0  0
  161.0530  205.8090  151.8060 C   0  0  0  0  0  2  0  0  0  0  0  0
  162.8940  206.8750  151.0040 O   0  0  0  0  0  1  0  0  0  0  0  0
  161.6020  207.0850  151.3660 N   0  0  0  0  0  0  0  0  0  0  0  0
  161.5730  208.0200  152.4940 C   0  0  1  0  0  3  0  0  0  0  0  0
  159.9660  209.1880  154.5360 N   0  0  2  0  0  0  0  0  0  0  0  0
  160.6730  209.2700  152.2320 C   0  0  0  0  0  2  0  0  0  0  0  0
  161.2350  207.2710  153.8000 C   0  0  0  0  0  2  0  0  0  0  0  0
  158.6740  210.7800  155.9660 C   0  0  0  0  0  1  0  0  0  0  0  0
  161.0930  208.3370  154.8600 C   0  0  2  0  0  3  0  0  0  0  0  0
  160.4490  210.1000  153.5100 C   0  0  0  0  0  2  0  0  0  0  0  0
  159.7430  209.8170  155.7660 N   0  0  0  0  0  0  0  0  0  0  0  0
  160.1830  208.9540  156.8070 C   0  0  0  0  0  2  0  0  0  0  0  0
  160.9390  207.9890  156.2990 C   0  0  0  0  0  2  0  0  0  0  0  0
  161.3100  202.0990  146.3570 O   0  0  0  0  0  0  0  0  0  0  0  0
  160.1490  202.0930  145.5810 C   0  0  1  0  0  3  0  0  0  0  0  0
  160.1330  203.3140  144.6860 C   0  0  0  0  0  1  0  0  0  0  0  0
  160.1180  200.9420  144.7950 O   0  0  0  0  0  1  0  0  0  0  0  0
  1  8  1  0  0  0  0
  2  6  1  0  0  0  0
  3  4  1  0  0  0  0
  5  4  2  0  0  0  0
  5 11  1  0  0  0  0
  6  5  1  1  0  0  0
  7  2  1  0  0  0  0
  7  8  1  1  0  0  0
  7  6  1  0  0  0  0
  8  3  2  0  0  0  0
  9 10  1  0  0  0  0
 10  2  1  0  0  0  0
 12 13  1  0  0  0  0
 13 11  1  0  0  0  0
 14 13  1  6  0  0  0
 14 17  1  0  0  0  0
 15 20  1  6  0  0  0
 15 19  1  0  0  0  0
 15 21  1  0  0  0  0
 16 14  1  0  0  0  0
 16 20  1  0  0  0  0
 19 17  1  6  0  0  0
 19 23  1  0  0  0  0
 21 18  1  0  0  0  0
 21 22  1  0  0  0  0
 23 22  1  0  0  0  0
 24  1  1  0  0  0  0
 25 26  1  6  0  0  0
 25 24  1  0  0  0  0
 27 25  1  0  0  0  0
M  END
>  <MODEL>
7

>  <REMARK>
 VINA RESULT:      -7.0      2.617      8.733
  Name = 
  6 active torsions:
  status: ('A' for Active; 'I' for Inactive)
    1  A    between atoms: C_1  and  C_17
    2  A    between atoms: C_1  and  N_25
    3  A    between atoms: C_2  and  N_25
    4  A    between atoms: O_3  and  C_4
    5  A    between atoms: O_3  and  N_8
    6  A    between atoms: N_10  and  C_22
                            x       y       z     vdW  Elec       q    Type
                         _______ _______ _______ _____ _____    ______ ____

>  <TORSDO>
F 6

$$$$
=
 OpenBabel11072412223D

 27 30  0  0  1  0  0  0  0  0999 V2000
  162.2330  207.2050  148.0530 N   0  0  0  0  0  2  0  0  0  0  0  0
  162.1080  206.4420  151.4590 N   0  0  0  0  0  0  0  0  0  0  0  0
  162.0710  208.8940  149.6770 N   0  0  0  0  0  0  0  0  0  0  0  0
  161.7430  209.4290  150.9600 C   0  0  0  0  0  3  0  0  0  0  0  0
  161.2020  208.6620  151.9050 C   0  0  0  0  0  0  0  0  0  0  0  0
  160.8690  207.2150  151.6570 C   0  0  1  0  0  3  0  0  0  0  0  0
  161.2080  206.6850  150.3190 C   0  0  1  0  0  3  0  0  0  0  0  0
  161.8560  207.6550  149.3560 C   0  0  0  0  0  0  0  0  0  0  0  0
  160.8990  204.4060  150.9510 C   0  0  0  0  0  1  0  0  0  0  0  0
  161.8340  205.0950  151.9240 C   0  0  0  0  0  2  0  0  0  0  0  0
  160.8630  209.2550  153.2310 C   0  0  0  0  0  2  0  0  0  0  0  0
  162.4750  210.4340  154.3180 O   0  0  0  0  0  1  0  0  0  0  0  0
  161.4980  210.5570  153.3830 N   0  0  0  0  0  0  0  0  0  0  0  0
  160.4970  211.5110  153.8670 C   0  0  1  0  0  3  0  0  0  0  0  0
  157.7190  212.1260  154.0230 N   0  0  2  0  0  0  0  0  0  0  0  0
  159.7420  212.2470  152.7140 C   0  0  0  0  0  2  0  0  0  0  0  0
  159.5630  210.8320  154.8910 C   0  0  0  0  0  2  0  0  0  0  0  0
  155.4720  213.1880  153.7640 C   0  0  0  0  0  1  0  0  0  0  0  0
  158.4970  211.8510  155.2140 C   0  0  2  0  0  3  0  0  0  0  0  0
  158.5280  213.0410  153.2320 C   0  0  0  0  0  2  0  0  0  0  0  0
  156.5870  212.7340  154.5760 N   0  0  0  0  0  0  0  0  0  0  0  0
  156.4050  212.2420  155.8980 C   0  0  0  0  0  2  0  0  0  0  0  0
  157.5070  211.6250  156.3030 C   0  0  0  0  0  2  0  0  0  0  0  0
  162.0550  205.9180  147.6650 O   0  0  0  0  0  0  0  0  0  0  0  0
  162.0340  205.9580  146.2690 C   0  0  1  0  0  3  0  0  0  0  0  0
  162.2440  204.5620  145.7210 C   0  0  0  0  0  1  0  0  0  0  0  0
  160.8030  206.4460  145.8350 O   0  0  0  0  0  1  0  0  0  0  0  0
  1  8  1  0  0  0  0
  2  6  1  0  0  0  0
  2 10  1  0  0  0  0
  3  4  1  0  0  0  0
  4  5  2  0  0  0  0
  5 11  1  0  0  0  0
  6  5  1  6  0  0  0
  7  8  1  6  0  0  0
  7  2  1  0  0  0  0
  7  6  1  0  0  0  0
  8  3  2  0  0  0  0
  9 10  1  0  0  0  0
 11 13  1  0  0  0  0
 13 12  1  0  0  0  0
 14 13  1  6  0  0  0
 14 17  1  0  0  0  0
 15 20  1  6  0  0  0
 15 21  1  0  0  0  0
 15 19  1  0  0  0  0
 16 20  1  0  0  0  0
 16 14  1  0  0  0  0
 18 21  1  0  0  0  0
 19 17  1  6  0  0  0
 19 23  1  0  0  0  0
 21 22  1  0  0  0  0
 22 23  1  0  0  0  0
 24  1  1  0  0  0  0
 25 26  1  6  0  0  0
 25 24  1  0  0  0  0
 27 25  1  0  0  0  0
M  END
>  <MODEL>
8

>  <REMARK>
 VINA RESULT:      -7.0      2.614      9.140
  Name = 
  6 active torsions:
  status: ('A' for Active; 'I' for Inactive)
    1  A    between atoms: C_1  and  C_17
    2  A    between atoms: C_1  and  N_25
    3  A    between atoms: C_2  and  N_25
    4  A    between atoms: O_3  and  C_4
    5  A    between atoms: O_3  and  N_8
    6  A    between atoms: N_10  and  C_22
                            x       y       z     vdW  Elec       q    Type
                         _______ _______ _______ _____ _____    ______ ____

>  <TORSDO>
F 6

$$$$
=
 OpenBabel11072412223D

 27 30  0  0  1  0  0  0  0  0999 V2000
  159.2090  212.6440  154.4650 N   0  0  0  0  0  2  0  0  0  0  0  0
  160.0800  209.2820  154.8390 N   0  0  0  0  0  0  0  0  0  0  0  0
  159.8770  211.3440  152.6270 N   0  0  0  0  0  0  0  0  0  0  0  0
  160.5390  210.2530  151.9840 C   0  0  0  0  0  3  0  0  0  0  0  0
  161.2290  209.3590  152.6890 C   0  0  0  0  0  0  0  0  0  0  0  0
  161.3850  209.4750  154.1820 C   0  0  1  0  0  3  0  0  0  0  0  0
  160.6990  210.6180  154.8250 C   0  0  1  0  0  3  0  0  0  0  0  0
  159.9170  211.5330  153.9100 C   0  0  0  0  0  0  0  0  0  0  0  0
  159.7510  207.3240  156.2260 C   0  0  0  0  0  1  0  0  0  0  0  0
  160.3540  208.7110  156.1440 C   0  0  0  0  0  2  0  0  0  0  0  0
  161.9160  208.2380  151.9870 C   0  0  0  0  0  2  0  0  0  0  0  0
  162.2820  206.1930  152.9120 O   0  0  0  0  0  1  0  0  0  0  0  0
  161.3130  206.9620  152.3530 N   0  0  0  0  0  0  0  0  0  0  0  0
  160.8320  206.3070  151.1340 C   0  0  1  0  0  3  0  0  0  0  0  0
  161.5810  204.9570  148.7390 N   0  0  2  0  0  0  0  0  0  0  0  0
  161.2170  207.0770  149.8300 C   0  0  0  0  0  2  0  0  0  0  0  0
  161.2480  204.8210  151.1260 C   0  0  0  0  0  2  0  0  0  0  0  0
  161.9660  204.3280  146.3510 C   0  0  0  0  0  1  0  0  0  0  0  0
  160.8290  204.2840  149.7780 C   0  0  2  0  0  3  0  0  0  0  0  0
  160.9330  206.2480  148.5630 C   0  0  0  0  0  2  0  0  0  0  0  0
  161.3800  204.0910  147.6590 N   0  0  0  0  0  0  0  0  0  0  0  0
  161.1630  202.7780  148.1600 C   0  0  0  0  0  2  0  0  0  0  0  0
  160.9060  202.8320  149.4600 C   0  0  0  0  0  2  0  0  0  0  0  0
  159.1930  212.8820  155.8000 O   0  0  0  0  0  0  0  0  0  0  0  0
  157.8450  212.8430  156.1610 C   0  0  1  0  0  3  0  0  0  0  0  0
  157.0120  213.4900  155.0740 C   0  0  0  0  0  1  0  0  0  0  0  0
  157.4440  211.5180  156.3260 O   0  0  0  0  0  1  0  0  0  0  0  0
  1 24  1  0  0  0  0
  2 10  1  0  0  0  0
  3  8  2  0  0  0  0
  4  3  1  0  0  0  0
  4  5  2  0  0  0  0
  6  5  1  6  0  0  0
  6  7  1  0  0  0  0
  6  2  1  0  0  0  0
  7  8  1  6  0  0  0
  7  2  1  0  0  0  0
  8  1  1  0  0  0  0
 10  9  1  0  0  0  0
 11 13  1  0  0  0  0
 11  5  1  0  0  0  0
 13 12  1  0  0  0  0
 14 13  1  1  0  0  0
 15 20  1  6  0  0  0
 15 19  1  0  0  0  0
 16 14  1  0  0  0  0
 17 14  1  0  0  0  0
 18 21  1  0  0  0  0
 19 23  1  1  0  0  0
 19 17  1  0  0  0  0
 20 16  1  0  0  0  0
 21 22  1  0  0  0  0
 21 15  1  0  0  0  0
 22 23  1  0  0  0  0
 24 25  1  0  0  0  0
 25 26  1  6  0  0  0
 25 27  1  0  0  0  0
M  END
>  <MODEL>
9

>  <REMARK>
 VINA RESULT:      -6.9      1.994      3.885
  Name = 
  6 active torsions:
  status: ('A' for Active; 'I' for Inactive)
    1  A    between atoms: C_1  and  C_17
    2  A    between atoms: C_1  and  N_25
    3  A    between atoms: C_2  and  N_25
    4  A    between atoms: O_3  and  C_4
    5  A    between atoms: O_3  and  N_8
    6  A    between atoms: N_10  and  C_22
                            x       y       z     vdW  Elec       q    Type
                         _______ _______ _______ _____ _____    ______ ____

>  <TORSDO>
F 6

$$$$
