=
 OpenBabel11072415283D

 70 78  0  0  1  0  0  0  0  0999 V2000
  159.9980  210.7390  147.7800 O   0  0  0  0  0  0  0  0  0  0  0  0
  161.0380  211.3730  147.8460 C   0  0  0  0  0  0  0  0  0  0  0  0
  161.6830  211.7870  149.1130 C   0  0  2  0  0  0  0  0  0  0  0  0
  162.7310  212.8710  147.3750 C   0  0  0  0  0  2  0  0  0  0  0  0
  162.7940  212.5970  148.7600 O   0  0  0  0  0  0  0  0  0  0  0  0
  161.7330  211.9480  146.6880 C   0  0  2  0  0  3  0  0  0  0  0  0
  162.6360  208.5550  150.3910 C   0  0  0  0  0  0  0  0  0  0  0  0
  162.7490  210.5670  151.0480 C   0  0  0  0  0  3  0  0  0  0  0  0
  162.1270  210.5940  149.8500 N   0  0  0  0  0  0  0  0  0  0  0  0
  163.0690  209.3080  151.4180 N   0  0  0  0  0  0  0  0  0  0  0  0
  162.7790  207.1410  150.3370 N   0  0  0  0  0  1  0  0  0  0  0  0
  162.0570  209.3220  149.4100 C   0  0  0  0  0  3  0  0  0  0  0  0
  159.4230  212.0030  145.7140 C   0  0  0  0  0  1  0  0  0  0  0  0
  160.7970  212.6760  145.6850 C   0  0  1  0  0  0  0  0  0  0  0  0
  160.5590  214.4450  146.2080 S   0  0  0  0  0  0  0  0  0  0  0  0
  155.9780  214.3030  146.6560 C   0  0  0  0  0  3  0  0  0  0  0  0
  158.1800  214.2730  147.6690 C   0  0  0  0  0  0  0  0  0  0  0  0
  156.0460  214.0590  149.3750 Cl  0  0  0  0  0  0  0  0  0  0  0  0
  156.5600  214.4100  145.3910 C   0  0  0  0  0  3  0  0  0  0  0  0
  156.7860  214.2330  147.7940 C   0  0  0  0  0  0  0  0  0  0  0  0
  158.9520  214.1620  148.7790 F   0  0  0  0  0  0  0  0  0  0  0  0
  157.9500  214.4530  145.2630 C   0  0  0  0  0  3  0  0  0  0  0  0
  158.7660  214.4070  146.4000 C   0  0  0  0  0  0  0  0  0  0  0  0
  161.3080  212.5390  144.3630 O   0  0  0  0  0  0  0  0  0  0  0  0
  161.9850  213.6970  143.9120 C   0  0  0  0  0  2  0  0  0  0  0  0
  161.5150  214.1210  142.6640 O   0  0  0  0  0  0  0  0  0  0  0  0
  163.2730  212.9590  139.7700 N   0  0  0  0  0  2  0  0  0  0  0  0
  162.5250  213.8920  141.7860 N   0  0  0  0  0  2  0  0  0  0  0  0
  162.3880  212.9640  140.7100 C   0  0  0  0  0  0  0  0  0  0  0  0
  161.3260  211.9990  140.7240 N   0  0  0  0  0  2  0  0  0  0  0  0
  160.0220  212.7490  137.6390 C   0  0  0  0  0  1  0  0  0  0  0  0
  160.4420  208.9920  137.9070 C   0  0  0  0  0  2  0  0  0  0  0  0
  157.8320  212.6450  138.8840 C   0  0  0  0  0  1  0  0  0  0  0  0
  158.6360  210.6520  137.4350 C   0  0  1  0  0  3  0  0  0  0  0  0
  159.0080  211.8450  138.3290 C   0  0  0  0  0  0  0  0  0  0  0  0
  159.2050  209.6970  138.4760 C   0  0  2  0  0  3  0  0  0  0  0  0
  159.5610  210.8860  139.3830 C   0  0  1  0  0  3  0  0  0  0  0  0
  161.6580  209.6520  140.0790 C   0  0  0  0  0  2  0  0  0  0  0  0
  161.4090  208.5620  139.0210 C   0  0  0  0  0  2  0  0  0  0  0  0
  161.0710  211.0070  139.6800 C   0  0  2  0  0  3  0  0  0  0  0  0
  157.0600  209.0930  137.4860 C   0  0  0  0  0  1  0  0  0  0  0  0
  157.2520  210.4650  137.3400 O   0  0  0  0  0  0  0  0  0  0  0  0
  160.6870  212.6100  149.9450 C   0  0  0  0  0  2  0  0  0  0  0  0
  160.5260  212.0950  151.3660 C   0  0  0  0  0  2  0  0  0  0  0  0
  159.1160  212.0940  151.7580 N   0  0  0  0  0  2  0  0  0  0  0  0
  158.9280  212.0420  153.2180 C   0  0  0  0  0  0  0  0  0  0  0  0
  157.5470  211.5200  153.6110 C   0  0  0  0  0  1  0  0  0  0  0  0
  158.9990  213.4650  153.7430 C   0  0  0  0  0  1  0  0  0  0  0  0
  160.6960  208.2090  157.0940 O   0  0  0  0  0  0  0  0  0  0  0  0
  159.7630  209.2650  157.2470 C   0  0  0  0  0  2  0  0  0  0  0  0
  159.9240  209.7240  153.6290 C   0  0  0  0  0  0  0  0  0  0  0  0
  160.5580  207.0350  153.7930 C   0  0  0  0  0  0  0  0  0  0  0  0
  159.9720  211.2510  155.4690 C   0  0  2  0  0  3  0  0  0  0  0  0
  159.9960  207.6990  154.8960 C   0  0  0  0  0  0  0  0  0  0  0  0
  159.6050  209.0200  154.7560 C   0  0  0  0  0  0  0  0  0  0  0  0
  160.7740  207.7690  152.6060 C   0  0  0  0  0  3  0  0  0  0  0  0
  159.3430  209.9070  155.9050 C   0  0  1  0  0  3  0  0  0  0  0  0
  160.0170  211.1900  153.9140 C   0  0  2  0  0  3  0  0  0  0  0  0
  160.4950  209.1050  152.5600 N   0  0  0  0  0  0  0  0  0  0  0  0
  160.0990  207.1990  156.3050 C   0  0  0  0  0  2  0  0  0  0  0  0
  162.2720  210.7240  155.7370 O   0  0  0  0  0  0  0  0  0  0  0  0
  161.3540  211.4780  156.0260 C   0  0  0  0  0  0  0  0  0  0  0  0
  160.3190  213.4050  157.1690 C   0  0  0  0  0  1  0  0  0  0  0  0
  161.6020  212.6360  156.9350 C   0  0  0  0  0  2  0  0  0  0  0  0
  160.9430  205.6940  153.9020 O   0  0  0  0  0  0  0  0  0  0  0  0
  161.6010  205.0570  152.9100 O   0  0  0  0  0  0  0  0  0  0  0  0
  161.2560  203.2270  150.4870 C   0  0  0  0  0  2  0  0  0  0  0  0
  161.3310  202.8860  151.9640 C   0  0  0  0  0  2  0  0  0  0  0  0
  160.5830  204.5420  150.8270 C   0  0  0  0  0  2  0  0  0  0  0  0
  160.6660  204.2050  152.3060 C   0  0  0  0  0  3  0  0  0  0  0  0
  1  2  2  0  0  0  0
  2  3  1  0  0  0  0
  3  9  1  0  0  0  0
  3 43  1  1  0  0  0
  4  5  1  0  0  0  0
  5  3  1  0  0  0  0
  6 14  1  6  0  0  0
  6  4  1  0  0  0  0
  6  2  1  0  0  0  0
  7 10  1  0  0  0  0
  8 10  2  0  0  0  0
  9  8  1  0  0  0  0
 11  7  1  0  0  0  0
 12  9  1  0  0  0  0
 12  7  2  0  0  0  0
 14 13  1  1  0  0  0
 14 15  1  0  0  0  0
 15 23  1  0  0  0  0
 16 20  1  0  0  0  0
 17 20  2  0  0  0  0
 17 21  1  0  0  0  0
 19 16  2  0  0  0  0
 20 18  1  0  0  0  0
 22 19  1  0  0  0  0
 22 23  2  0  0  0  0
 23 17  1  0  0  0  0
 24 14  1  0  0  0  0
 25 24  1  0  0  0  0
 26 25  1  0  0  0  0
 27 29  2  0  0  0  0
 28 26  1  0  0  0  0
 29 30  1  0  0  0  0
 29 28  1  0  0  0  0
 31 35  1  0  0  0  0
 32 39  1  0  0  0  0
 34 42  1  1  0  0  0
 34 35  1  0  0  0  0
 34 36  1  0  0  0  0
 35 33  1  0  0  0  0
 36 32  1  6  0  0  0
 36 37  1  0  0  0  0
 37 35  1  6  0  0  0
 37 40  1  0  0  0  0
 39 38  1  0  0  0  0
 40 38  1  0  0  0  0
 40 30  1  1  0  0  0
 42 41  1  0  0  0  0
 43 44  1  0  0  0  0
 44 45  1  0  0  0  0
 45 46  1  0  0  0  0
 46 47  1  0  0  0  0
 46 48  1  0  0  0  0
 49 50  1  0  0  0  0
 51 58  1  0  0  0  0
 51 55  1  0  0  0  0
 52 65  1  0  0  0  0
 52 54  1  0  0  0  0
 53 57  1  0  0  0  0
 53 62  1  1  0  0  0
 54 60  1  0  0  0  0
 55 54  2  0  0  0  0
 55 57  1  0  0  0  0
 56 52  2  0  0  0  0
 57 50  1  1  0  0  0
 58 46  1  6  0  0  0
 58 53  1  0  0  0  0
 59 56  1  0  0  0  0
 59 51  2  0  0  0  0
 60 49  1  0  0  0  0
 61 62  2  0  0  0  0
 62 64  1  0  0  0  0
 64 63  1  0  0  0  0
 66 65  1  0  0  0  0
 67 69  1  0  0  0  0
 67 68  1  0  0  0  0
 68 70  1  0  0  0  0
 69 70  1  0  0  0  0
 70 66  1  0  0  0  0
M  END
>  <MODEL>
1

>  <REMARK>
 VINA RESULT:      -3.4      0.000      0.000
  Name = 
  20 active torsions:
  status: ('A' for Active; 'I' for Inactive)
    1  A    between atoms: C_1  and  N_57
    2  A    between atoms: C_1  and  C_63
    3  A    between atoms: O_6  and  C_40
    4  A    between atoms: O_8  and  O_13
    5  A    between atoms: O_8  and  C_53
    6  A    between atoms: O_13  and  C_23
    7  A    between atoms: N_21  and  C_49
    8  A    between atoms: N_24  and  O_44
    9  A    between atoms: S_25  and  C_39
   10  A    between atoms: S_25  and  C_61
   11  A    between atoms: C_27  and  C_58
   12  A    between atoms: C_28  and  O_34
   13  A    between atoms: C_28  and  O_44
   14  A    between atoms: O_34  and  C_61
   15  A    between atoms: C_43  and  C_58
   16  A    between atoms: C_49  and  C_69
   17  A    between atoms: C_51  and  N_57
   18  A    between atoms: C_51  and  C_69
   19  A    between atoms: C_61  and  C_66
   20  A    between atoms: N_64  and  C_65
                            x       y       z     vdW  Elec       q    Type
                         _______ _______ _______ _____ _____    ______ ____

>  <TORSDO>
F 20

$$$$
=
 OpenBabel11072415283D

 70 78  0  0  1  0  0  0  0  0999 V2000
  159.9630  211.0480  147.2020 O   0  0  0  0  0  0  0  0  0  0  0  0
  160.3130  212.0870  147.7380 C   0  0  0  0  0  0  0  0  0  0  0  0
  160.2900  213.4140  147.0810 C   0  0  2  0  0  0  0  0  0  0  0  0
  161.4490  213.6030  149.0590 C   0  0  0  0  0  2  0  0  0  0  0  0
  160.8800  214.3310  147.9890 O   0  0  0  0  0  0  0  0  0  0  0  0
  160.9470  212.1660  149.0600 C   0  0  2  0  0  3  0  0  0  0  0  0
  156.9890  214.1040  145.8090 C   0  0  0  0  0  0  0  0  0  0  0  0
  157.9760  214.2210  147.6820 C   0  0  0  0  0  3  0  0  0  0  0  0
  158.8980  213.7940  146.7930 N   0  0  0  0  0  0  0  0  0  0  0  0
  156.7770  214.4340  147.0950 N   0  0  0  0  0  0  0  0  0  0  0  0
  155.9820  214.1580  144.8070 N   0  0  0  0  0  1  0  0  0  0  0  0
  158.2850  213.7010  145.5970 C   0  0  0  0  0  3  0  0  0  0  0  0
  163.1480  211.3010  148.2240 C   0  0  0  0  0  1  0  0  0  0  0  0
  162.0650  211.1130  149.2890 C   0  0  1  0  0  0  0  0  0  0  0  0
  162.8640  211.3870  150.9470 S   0  0  0  0  0  0  0  0  0  0  0  0
  158.9990  211.3600  153.4530 C   0  0  0  0  0  3  0  0  0  0  0  0
  161.3140  210.6990  153.1720 C   0  0  0  0  0  0  0  0  0  0  0  0
  160.0650  209.8390  155.4540 Cl  0  0  0  0  0  0  0  0  0  0  0  0
  159.0380  212.0210  152.2220 C   0  0  0  0  0  3  0  0  0  0  0  0
  160.1350  210.6980  153.9270 C   0  0  0  0  0  0  0  0  0  0  0  0
  162.3960  210.0160  153.6260 F   0  0  0  0  0  0  0  0  0  0  0  0
  160.2140  212.0250  151.4680 C   0  0  0  0  0  3  0  0  0  0  0  0
  161.3630  211.3840  151.9470 C   0  0  0  0  0  0  0  0  0  0  0  0
  161.5330  209.8020  149.1260 O   0  0  0  0  0  0  0  0  0  0  0  0
  161.2300  209.1740  150.3570 C   0  0  0  0  0  2  0  0  0  0  0  0
  160.7330  207.8790  150.1710 O   0  0  0  0  0  0  0  0  0  0  0  0
  162.5650  205.0620  151.4070 N   0  0  0  0  0  2  0  0  0  0  0  0
  161.4430  207.0820  151.0100 N   0  0  0  0  0  2  0  0  0  0  0  0
  161.6920  205.7080  150.7100 C   0  0  0  0  0  0  0  0  0  0  0  0
  160.9180  205.0420  149.7020 N   0  0  0  0  0  2  0  0  0  0  0  0
  162.8330  204.0340  147.0370 C   0  0  0  0  0  1  0  0  0  0  0  0
  161.1100  201.0020  148.5190 C   0  0  0  0  0  2  0  0  0  0  0  0
  160.7650  204.6320  145.7240 C   0  0  0  0  0  1  0  0  0  0  0  0
  161.3000  202.1670  146.3170 C   0  0  1  0  0  3  0  0  0  0  0  0
  161.3960  203.6500  146.7070 C   0  0  0  0  0  0  0  0  0  0  0  0
  160.3930  201.9120  147.5150 C   0  0  2  0  0  3  0  0  0  0  0  0
  160.4710  203.3990  147.8980 C   0  0  1  0  0  3  0  0  0  0  0  0
  160.4650  202.7110  150.3330 C   0  0  0  0  0  2  0  0  0  0  0  0
  160.5980  201.2270  149.9490 C   0  0  0  0  0  2  0  0  0  0  0  0
  161.0820  203.6470  149.2930 C   0  0  2  0  0  3  0  0  0  0  0  0
  160.4540  200.5870  145.0110 C   0  0  0  0  0  1  0  0  0  0  0  0
  160.5750  201.9690  145.1350 O   0  0  0  0  0  0  0  0  0  0  0  0
  161.1230  213.3570  145.7900 C   0  0  0  0  0  2  0  0  0  0  0  0
  160.4720  212.5290  144.6940 C   0  0  0  0  0  2  0  0  0  0  0  0
  161.3920  212.3440  143.5710 N   0  0  0  0  0  2  0  0  0  0  0  0
  161.5100  213.5430  142.7230 C   0  0  0  0  0  0  0  0  0  0  0  0
  162.7600  214.3620  143.0420 C   0  0  0  0  0  1  0  0  0  0  0  0
  160.3300  214.4460  143.0360 C   0  0  0  0  0  1  0  0  0  0  0  0
  161.1230  209.8590  138.3510 O   0  0  0  0  0  0  0  0  0  0  0  0
  161.8200  209.7160  139.5770 C   0  0  0  0  0  2  0  0  0  0  0  0
  160.1580  212.7660  140.6990 C   0  0  0  0  0  0  0  0  0  0  0  0
  158.2860  211.8500  138.8770 C   0  0  0  0  0  0  0  0  0  0  0  0
  162.4190  212.0000  140.8330 C   0  0  2  0  0  3  0  0  0  0  0  0
  159.3030  210.9980  139.3370 C   0  0  0  0  0  0  0  0  0  0  0  0
  160.1700  211.4550  140.3160 C   0  0  0  0  0  0  0  0  0  0  0  0
  158.2370  213.1700  139.3780 C   0  0  0  0  0  3  0  0  0  0  0  0
  161.4600  210.8060  140.6130 C   0  0  1  0  0  3  0  0  0  0  0  0
  161.4950  213.1930  141.2160 C   0  0  2  0  0  3  0  0  0  0  0  0
  159.1960  213.6160  140.2420 N   0  0  0  0  0  0  0  0  0  0  0  0
  159.7370  209.7600  138.6120 C   0  0  0  0  0  2  0  0  0  0  0  0
  163.8920  211.4800  139.0440 O   0  0  0  0  0  0  0  0  0  0  0  0
  163.2420  212.3420  139.6180 C   0  0  0  0  0  0  0  0  0  0  0  0
  162.5990  213.8270  137.7540 C   0  0  0  0  0  1  0  0  0  0  0  0
  163.2620  213.7470  139.1130 C   0  0  0  0  0  2  0  0  0  0  0  0
  157.3840  211.4060  137.9040 O   0  0  0  0  0  0  0  0  0  0  0  0
  156.3100  210.6490  138.2160 O   0  0  0  0  0  0  0  0  0  0  0  0
  153.4300  211.4330  138.8700 C   0  0  0  0  0  2  0  0  0  0  0  0
  154.4030  210.5590  139.6420 C   0  0  0  0  0  2  0  0  0  0  0  0
  154.5870  212.2760  138.3710 C   0  0  0  0  0  2  0  0  0  0  0  0
  155.5620  211.3970  139.1360 C   0  0  0  0  0  3  0  0  0  0  0  0
  1  2  2  0  0  0  0
  2  6  1  0  0  0  0
  3 43  1  6  0  0  0
  3  2  1  0  0  0  0
  3  5  1  0  0  0  0
  4  6  1  0  0  0  0
  5  4  1  0  0  0  0
  6 14  1  6  0  0  0
  7 10  1  0  0  0  0
  9  3  1  0  0  0  0
  9  8  1  0  0  0  0
 10  8  2  0  0  0  0
 11  7  1  0  0  0  0
 12  7  2  0  0  0  0
 12  9  1  0  0  0  0
 14 13  1  6  0  0  0
 14 15  1  0  0  0  0
 15 23  1  0  0  0  0
 16 20  1  0  0  0  0
 17 21  1  0  0  0  0
 17 20  2  0  0  0  0
 19 16  2  0  0  0  0
 20 18  1  0  0  0  0
 22 23  2  0  0  0  0
 22 19  1  0  0  0  0
 23 17  1  0  0  0  0
 24 14  1  0  0  0  0
 24 25  1  0  0  0  0
 26 25  1  0  0  0  0
 26 28  1  0  0  0  0
 29 28  1  0  0  0  0
 29 27  2  0  0  0  0
 30 29  1  0  0  0  0
 32 39  1  0  0  0  0
 33 35  1  0  0  0  0
 34 42  1  6  0  0  0
 34 35  1  0  0  0  0
 34 36  1  0  0  0  0
 35 31  1  0  0  0  0
 36 37  1  0  0  0  0
 36 32  1  1  0  0  0
 37 35  1  6  0  0  0
 37 40  1  0  0  0  0
 39 38  1  0  0  0  0
 40 30  1  1  0  0  0
 40 38  1  0  0  0  0
 41 42  1  0  0  0  0
 44 43  1  0  0  0  0
 45 44  1  0  0  0  0
 46 48  1  0  0  0  0
 46 47  1  0  0  0  0
 46 45  1  0  0  0  0
 49 60  1  0  0  0  0
 49 50  1  0  0  0  0
 51 58  1  0  0  0  0
 52 54  1  0  0  0  0
 52 56  2  0  0  0  0
 53 62  1  6  0  0  0
 53 58  1  0  0  0  0
 54 55  2  0  0  0  0
 55 57  1  0  0  0  0
 55 51  1  0  0  0  0
 56 59  1  0  0  0  0
 57 50  1  6  0  0  0
 57 53  1  0  0  0  0
 58 46  1  1  0  0  0
 59 51  2  0  0  0  0
 60 54  1  0  0  0  0
 61 62  2  0  0  0  0
 63 64  1  0  0  0  0
 64 62  1  0  0  0  0
 65 66  1  0  0  0  0
 65 52  1  0  0  0  0
 66 70  1  0  0  0  0
 67 68  1  0  0  0  0
 69 67  1  0  0  0  0
 69 70  1  0  0  0  0
 70 68  1  0  0  0  0
M  END
>  <MODEL>
2

>  <REMARK>
 VINA RESULT:      -2.9      3.159     11.869
  Name = 
  20 active torsions:
  status: ('A' for Active; 'I' for Inactive)
    1  A    between atoms: C_1  and  N_57
    2  A    between atoms: C_1  and  C_63
    3  A    between atoms: O_6  and  C_40
    4  A    between atoms: O_8  and  O_13
    5  A    between atoms: O_8  and  C_53
    6  A    between atoms: O_13  and  C_23
    7  A    between atoms: N_21  and  C_49
    8  A    between atoms: N_24  and  O_44
    9  A    between atoms: S_25  and  C_39
   10  A    between atoms: S_25  and  C_61
   11  A    between atoms: C_27  and  C_58
   12  A    between atoms: C_28  and  O_34
   13  A    between atoms: C_28  and  O_44
   14  A    between atoms: O_34  and  C_61
   15  A    between atoms: C_43  and  C_58
   16  A    between atoms: C_49  and  C_69
   17  A    between atoms: C_51  and  N_57
   18  A    between atoms: C_51  and  C_69
   19  A    between atoms: C_61  and  C_66
   20  A    between atoms: N_64  and  C_65
                            x       y       z     vdW  Elec       q    Type
                         _______ _______ _______ _____ _____    ______ ____

>  <TORSDO>
F 20

$$$$
=
 OpenBabel11072415283D

 70 78  0  0  1  0  0  0  0  0999 V2000
  160.6370  210.7920  146.9860 O   0  0  0  0  0  0  0  0  0  0  0  0
  160.8040  211.8310  147.6020 C   0  0  0  0  0  0  0  0  0  0  0  0
  160.6800  213.1820  147.0060 C   0  0  2  0  0  0  0  0  0  0  0  0
  161.6130  213.3920  149.0980 C   0  0  0  0  0  2  0  0  0  0  0  0
  161.0640  214.1080  148.0110 O   0  0  0  0  0  0  0  0  0  0  0  0
  161.2940  211.9080  148.9830 C   0  0  2  0  0  3  0  0  0  0  0  0
  157.1480  213.7840  146.6160 C   0  0  0  0  0  0  0  0  0  0  0  0
  158.8380  213.6420  145.3440 C   0  0  0  0  0  3  0  0  0  0  0  0
  159.2860  213.4110  146.5970 N   0  0  0  0  0  0  0  0  0  0  0  0
  157.5060  213.8670  145.3230 N   0  0  0  0  0  0  0  0  0  0  0  0
  155.8170  213.9720  147.0780 N   0  0  0  0  0  1  0  0  0  0  0  0
  158.2260  213.5100  147.4220 C   0  0  0  0  0  3  0  0  0  0  0  0
  163.6680  211.3860  148.3670 C   0  0  0  0  0  1  0  0  0  0  0  0
  162.5060  210.9830  149.2770 C   0  0  1  0  0  0  0  0  0  0  0  0
  163.0710  211.2160  151.0340 S   0  0  0  0  0  0  0  0  0  0  0  0
  160.4530  207.9670  152.9840 C   0  0  0  0  0  3  0  0  0  0  0  0
  161.3110  210.2340  152.9740 C   0  0  0  0  0  0  0  0  0  0  0  0
  159.6250  209.5740  155.0300 Cl  0  0  0  0  0  0  0  0  0  0  0  0
  161.1850  207.6840  151.8280 C   0  0  0  0  0  3  0  0  0  0  0  0
  160.5160  209.2390  153.5580 C   0  0  0  0  0  0  0  0  0  0  0  0
  161.3950  211.4520  153.5660 F   0  0  0  0  0  0  0  0  0  0  0  0
  161.9760  208.6750  151.2430 C   0  0  0  0  0  3  0  0  0  0  0  0
  162.0270  209.9590  151.7980 C   0  0  0  0  0  0  0  0  0  0  0  0
  162.1700  209.6350  148.9640 O   0  0  0  0  0  0  0  0  0  0  0  0
  163.1660  208.9830  148.1990 C   0  0  0  0  0  2  0  0  0  0  0  0
  162.9920  207.5940  148.1940 O   0  0  0  0  0  0  0  0  0  0  0  0
  160.6130  206.0110  146.0370 N   0  0  0  0  0  2  0  0  0  0  0  0
  162.2520  207.3140  147.0900 N   0  0  0  0  0  2  0  0  0  0  0  0
  161.4800  206.1180  146.9870 C   0  0  0  0  0  0  0  0  0  0  0  0
  161.7300  205.0230  147.8800 N   0  0  0  0  0  2  0  0  0  0  0  0
  159.8490  203.8990  150.5230 C   0  0  0  0  0  1  0  0  0  0  0  0
  159.8770  201.2380  147.8250 C   0  0  0  0  0  2  0  0  0  0  0  0
  162.0880  203.1230  151.3840 C   0  0  0  0  0  1  0  0  0  0  0  0
  160.4530  201.4670  150.2450 C   0  0  1  0  0  3  0  0  0  0  0  0
  160.9890  202.9030  150.3480 C   0  0  0  0  0  0  0  0  0  0  0  0
  161.0230  201.3570  148.8360 C   0  0  2  0  0  3  0  0  0  0  0  0
  161.5780  202.7860  148.9430 C   0  0  1  0  0  3  0  0  0  0  0  0
  161.0290  203.1190  146.4950 C   0  0  0  0  0  2  0  0  0  0  0  0
  160.2870  201.7710  146.4430 C   0  0  0  0  0  2  0  0  0  0  0  0
  161.0030  203.7540  147.8870 C   0  0  2  0  0  3  0  0  0  0  0  0
  161.2730  199.4090  150.3490 C   0  0  0  0  0  1  0  0  0  0  0  0
  161.1290  200.5800  151.0910 O   0  0  0  0  0  0  0  0  0  0  0  0
  161.6330  213.2980  145.8060 C   0  0  0  0  0  2  0  0  0  0  0  0
  161.3490  212.2770  144.7160 C   0  0  0  0  0  2  0  0  0  0  0  0
  162.3560  212.3580  143.6570 N   0  0  0  0  0  2  0  0  0  0  0  0
  162.2490  213.5900  142.8570 C   0  0  0  0  0  0  0  0  0  0  0  0
  163.5210  214.4330  142.9090 C   0  0  0  0  0  1  0  0  0  0  0  0
  161.1570  214.4460  143.4750 C   0  0  0  0  0  1  0  0  0  0  0  0
  160.9790  210.0530  138.5310 O   0  0  0  0  0  0  0  0  0  0  0  0
  161.9550  209.9010  139.5480 C   0  0  0  0  0  2  0  0  0  0  0  0
  160.4840  212.8180  141.1770 C   0  0  0  0  0  0  0  0  0  0  0  0
  158.2700  211.8730  139.8110 C   0  0  0  0  0  0  0  0  0  0  0  0
  162.7410  212.1660  140.7340 C   0  0  2  0  0  3  0  0  0  0  0  0
  159.4020  211.0590  139.9740 C   0  0  0  0  0  0  0  0  0  0  0  0
  160.4590  211.5240  140.7400 C   0  0  0  0  0  0  0  0  0  0  0  0
  158.2880  213.1690  140.3720 C   0  0  0  0  0  3  0  0  0  0  0  0
  161.8080  210.9320  140.6910 C   0  0  1  0  0  3  0  0  0  0  0  0
  161.8870  213.2950  141.3810 C   0  0  2  0  0  3  0  0  0  0  0  0
  159.4060  213.6320  141.0030 N   0  0  0  0  0  0  0  0  0  0  0  0
  159.7020  209.8720  139.1090 C   0  0  0  0  0  2  0  0  0  0  0  0
  164.1310  211.9790  138.8170 O   0  0  0  0  0  0  0  0  0  0  0  0
  163.2340  212.5950  139.3750 C   0  0  0  0  0  0  0  0  0  0  0  0
  163.3330  214.0820  137.4070 C   0  0  0  0  0  1  0  0  0  0  0  0
  162.6200  213.7810  138.7080 C   0  0  0  0  0  2  0  0  0  0  0  0
  157.1800  211.4180  139.0600 O   0  0  0  0  0  0  0  0  0  0  0  0
  156.5260  212.2200  138.1920 O   0  0  0  0  0  0  0  0  0  0  0  0
  153.6070  213.0880  138.4390 C   0  0  0  0  0  2  0  0  0  0  0  0
  154.4570  212.2450  139.3730 C   0  0  0  0  0  2  0  0  0  0  0  0
  154.8360  213.8810  138.0410 C   0  0  0  0  0  2  0  0  0  0  0  0
  155.6880  213.0320  138.9680 C   0  0  0  0  0  3  0  0  0  0  0  0
  1  2  2  0  0  0  0
  2  6  1  0  0  0  0
  3 43  1  6  0  0  0
  3  2  1  0  0  0  0
  3  5  1  0  0  0  0
  5  4  1  0  0  0  0
  6  4  1  0  0  0  0
  6 14  1  6  0  0  0
  7 11  1  0  0  0  0
  7 12  2  0  0  0  0
  8  9  1  0  0  0  0
  9  3  1  0  0  0  0
  9 12  1  0  0  0  0
 10  8  2  0  0  0  0
 10  7  1  0  0  0  0
 14 13  1  6  0  0  0
 14 15  1  0  0  0  0
 15 23  1  0  0  0  0
 16 20  1  0  0  0  0
 17 20  2  0  0  0  0
 17 21  1  0  0  0  0
 19 16  2  0  0  0  0
 20 18  1  0  0  0  0
 22 23  2  0  0  0  0
 22 19  1  0  0  0  0
 23 17  1  0  0  0  0
 24 14  1  0  0  0  0
 25 24  1  0  0  0  0
 26 25  1  0  0  0  0
 27 29  2  0  0  0  0
 28 26  1  0  0  0  0
 29 28  1  0  0  0  0
 29 30  1  0  0  0  0
 34 35  1  0  0  0  0
 34 42  1  1  0  0  0
 35 31  1  0  0  0  0
 35 33  1  0  0  0  0
 36 32  1  6  0  0  0
 36 37  1  0  0  0  0
 36 34  1  0  0  0  0
 37 35  1  1  0  0  0
 38 40  1  0  0  0  0
 39 38  1  0  0  0  0
 39 32  1  0  0  0  0
 40 30  1  6  0  0  0
 40 37  1  0  0  0  0
 41 42  1  0  0  0  0
 44 43  1  0  0  0  0
 45 44  1  0  0  0  0
 46 47  1  0  0  0  0
 46 48  1  0  0  0  0
 46 45  1  0  0  0  0
 49 60  1  0  0  0  0
 49 50  1  0  0  0  0
 51 58  1  0  0  0  0
 52 54  2  0  0  0  0
 52 56  1  0  0  0  0
 53 62  1  6  0  0  0
 53 58  1  0  0  0  0
 54 55  1  0  0  0  0
 55 51  2  0  0  0  0
 56 59  2  0  0  0  0
 57 50  1  6  0  0  0
 57 53  1  0  0  0  0
 57 55  1  0  0  0  0
 58 46  1  1  0  0  0
 59 51  1  0  0  0  0
 60 54  1  0  0  0  0
 61 62  2  0  0  0  0
 63 64  1  0  0  0  0
 64 62  1  0  0  0  0
 65 52  1  0  0  0  0
 66 70  1  0  0  0  0
 66 65  1  0  0  0  0
 67 68  1  0  0  0  0
 69 67  1  0  0  0  0
 69 70  1  0  0  0  0
 70 68  1  0  0  0  0
M  END
>  <MODEL>
3

>  <REMARK>
 VINA RESULT:      -0.4      3.253     12.116
  Name = 
  20 active torsions:
  status: ('A' for Active; 'I' for Inactive)
    1  A    between atoms: C_1  and  N_57
    2  A    between atoms: C_1  and  C_63
    3  A    between atoms: O_6  and  C_40
    4  A    between atoms: O_8  and  O_13
    5  A    between atoms: O_8  and  C_53
    6  A    between atoms: O_13  and  C_23
    7  A    between atoms: N_21  and  C_49
    8  A    between atoms: N_24  and  O_44
    9  A    between atoms: S_25  and  C_39
   10  A    between atoms: S_25  and  C_61
   11  A    between atoms: C_27  and  C_58
   12  A    between atoms: C_28  and  O_34
   13  A    between atoms: C_28  and  O_44
   14  A    between atoms: O_34  and  C_61
   15  A    between atoms: C_43  and  C_58
   16  A    between atoms: C_49  and  C_69
   17  A    between atoms: C_51  and  N_57
   18  A    between atoms: C_51  and  C_69
   19  A    between atoms: C_61  and  C_66
   20  A    between atoms: N_64  and  C_65
                            x       y       z     vdW  Elec       q    Type
                         _______ _______ _______ _____ _____    ______ ____

>  <TORSDO>
F 20

$$$$
