=
 OpenBabel11072414243D

 26 27  0  0  1  0  0  0  0  0999 V2000
  162.5160  204.7140  151.5270 N   0  0  0  0  0  0  0  0  0  0  0  0
  160.8770  206.6550  153.4210 C   0  0  0  0  0  0  0  0  0  0  0  0
  162.8840  207.0140  150.8110 C   0  0  0  0  0  2  0  0  0  0  0  0
  160.9200  209.3160  154.2530 C   0  0  0  0  0  3  0  0  0  0  0  0
  161.3650  204.4410  152.0650 C   0  0  0  0  0  0  0  0  0  0  0  0
  160.7460  203.2040  151.7390 N   0  0  0  0  0  1  0  0  0  0  0  0
  160.6410  208.3170  155.1860 C   0  0  0  0  0  0  0  0  0  0  0  0
  160.7380  205.2680  153.0630 N   0  0  0  0  0  2  0  0  0  0  0  0
  161.1480  207.7070  152.5070 C   0  0  0  0  0  0  0  0  0  0  0  0
  163.3060  205.9070  151.7690 C   0  0  0  0  0  2  0  0  0  0  0  0
  161.4570  207.5010  151.0530 C   0  0  2  0  0  3  0  0  0  0  0  0
  161.1690  208.9930  152.9580 N   0  0  0  0  0  0  0  0  0  0  0  0
  160.5950  206.9910  154.7490 C   0  0  0  0  0  3  0  0  0  0  0  0
  160.2990  208.6670  156.6040 C   0  0  0  0  0  0  0  0  0  0  0  0
  159.3610  209.6840  156.6370 F   0  0  0  0  0  0  0  0  0  0  0  0
  159.7800  207.5650  157.2610 F   0  0  0  0  0  0  0  0  0  0  0  0
  161.4420  209.0870  157.2590 F   0  0  0  0  0  0  0  0  0  0  0  0
  160.4050  206.7100  150.2850 C   0  0  0  0  0  2  0  0  0  0  0  0
  160.8130  206.5500  148.9020 N   0  0  0  0  0  2  0  0  0  0  0  0
  160.5990  205.3120  148.2350 C   0  0  0  0  0  2  0  0  0  0  0  0
  161.5240  204.8300  147.3980 C   0  0  0  0  0  2  0  0  0  0  0  0
  161.6710  204.2410  148.2650 C   0  0  0  0  0  2  0  0  0  0  0  0
  161.1710  202.9220  147.6070 C   0  0  0  0  0  0  0  0  0  0  0  0
  161.1790  202.8090  146.3910 O   0  0  0  0  0  0  0  0  0  0  0  0
  161.4790  200.5790  148.3230 C   0  0  0  0  0  1  0  0  0  0  0  0
  160.6250  201.8250  148.4600 C   0  0  0  0  0  2  0  0  0  0  0  0
  1 10  1  0  0  0  0
  1  5  2  0  0  0  0
  2 13  1  0  0  0  0
  3 11  1  0  0  0  0
  3 10  1  0  0  0  0
  4  7  1  0  0  0  0
  5  8  1  0  0  0  0
  6  5  1  0  0  0  0
  7 14  1  0  0  0  0
  8  2  1  0  0  0  0
  9 12  1  0  0  0  0
  9  2  2  0  0  0  0
 11 18  1  1  0  0  0
 11  9  1  0  0  0  0
 12  4  2  0  0  0  0
 13  7  2  0  0  0  0
 14 15  1  0  0  0  0
 14 17  1  0  0  0  0
 14 16  1  0  0  0  0
 19 18  1  0  0  0  0
 20 19  1  0  0  0  0
 21 20  1  0  0  0  0
 21 22  1  0  0  0  0
 23 22  1  0  0  0  0
 23 26  1  0  0  0  0
 24 23  2  0  0  0  0
 25 26  1  0  0  0  0
M  END
>  <MODEL>
1

>  <REMARK>
 VINA RESULT:      -6.5      0.000      0.000
  Name = 
  7 active torsions:
  status: ('A' for Active; 'I' for Inactive)
    1  A    between atoms: C_1  and  C_13
    2  A    between atoms: N_2  and  C_3
    3  A    between atoms: N_2  and  C_18
    4  A    between atoms: C_3  and  C_22
    5  A    between atoms: C_8  and  C_15
    6  A    between atoms: C_8  and  C_21
    7  A    between atoms: C_15  and  C_18
                            x       y       z     vdW  Elec       q    Type
                         _______ _______ _______ _____ _____    ______ ____

>  <TORSDO>
F 7

$$$$
=
 OpenBabel11072414243D

 26 27  0  0  1  0  0  0  0  0999 V2000
  162.5380  204.9300  151.6150 N   0  0  0  0  0  0  0  0  0  0  0  0
  160.7980  207.0390  153.2170 C   0  0  0  0  0  0  0  0  0  0  0  0
  162.7070  207.0950  150.5110 C   0  0  0  0  0  2  0  0  0  0  0  0
  160.6530  209.7990  153.5890 C   0  0  0  0  0  3  0  0  0  0  0  0
  161.4260  204.6690  152.2330 C   0  0  0  0  0  0  0  0  0  0  0  0
  160.8970  203.3520  152.1410 N   0  0  0  0  0  1  0  0  0  0  0  0
  160.4750  208.9540  154.6850 C   0  0  0  0  0  0  0  0  0  0  0  0
  160.7600  205.6050  153.1010 N   0  0  0  0  0  2  0  0  0  0  0  0
  160.9640  207.9380  152.1300 C   0  0  0  0  0  0  0  0  0  0  0  0
  163.2380  206.2010  151.6240 C   0  0  0  0  0  2  0  0  0  0  0  0
  161.2530  207.5110  150.7200 C   0  0  2  0  0  3  0  0  0  0  0  0
  160.8950  209.2790  152.3580 N   0  0  0  0  0  0  0  0  0  0  0  0
  160.5230  207.5740  154.4780 C   0  0  0  0  0  3  0  0  0  0  0  0
  160.1400  209.5140  156.0360 C   0  0  0  0  0  0  0  0  0  0  0  0
  161.1200  210.4010  156.4470 F   0  0  0  0  0  0  0  0  0  0  0  0
  158.9290  210.1810  155.9950 F   0  0  0  0  0  0  0  0  0  0  0  0
  160.0570  208.4800  156.9510 F   0  0  0  0  0  0  0  0  0  0  0  0
  160.2480  206.5260  150.1350 C   0  0  0  0  0  2  0  0  0  0  0  0
  160.5490  206.2780  148.7380 N   0  0  0  0  0  2  0  0  0  0  0  0
  161.5650  205.3490  148.3820 C   0  0  0  0  0  2  0  0  0  0  0  0
  161.2640  204.0580  148.2040 C   0  0  0  0  0  2  0  0  0  0  0  0
  161.3570  204.4110  147.2100 C   0  0  0  0  0  2  0  0  0  0  0  0
  162.2440  204.8170  145.9970 C   0  0  0  0  0  0  0  0  0  0  0  0
  163.4600  204.7370  146.0790 O   0  0  0  0  0  0  0  0  0  0  0  0
  160.3010  206.0490  145.1020 C   0  0  0  0  0  1  0  0  0  0  0  0
  161.6080  205.3610  144.7600 C   0  0  0  0  0  2  0  0  0  0  0  0
  1 10  1  0  0  0  0
  1  5  2  0  0  0  0
  2 13  1  0  0  0  0
  3 11  1  0  0  0  0
  3 10  1  0  0  0  0
  4  7  1  0  0  0  0
  5  8  1  0  0  0  0
  6  5  1  0  0  0  0
  7 14  1  0  0  0  0
  8  2  1  0  0  0  0
  9 12  1  0  0  0  0
  9  2  2  0  0  0  0
 11 18  1  1  0  0  0
 11  9  1  0  0  0  0
 12  4  2  0  0  0  0
 13  7  2  0  0  0  0
 14 15  1  0  0  0  0
 14 17  1  0  0  0  0
 16 14  1  0  0  0  0
 19 18  1  0  0  0  0
 20 19  1  0  0  0  0
 21 20  1  0  0  0  0
 22 21  1  0  0  0  0
 23 24  2  0  0  0  0
 23 22  1  0  0  0  0
 26 25  1  0  0  0  0
 26 23  1  0  0  0  0
M  END
>  <MODEL>
2

>  <REMARK>
 VINA RESULT:      -6.3      1.219      2.046
  Name = 
  7 active torsions:
  status: ('A' for Active; 'I' for Inactive)
    1  A    between atoms: C_1  and  C_13
    2  A    between atoms: N_2  and  C_3
    3  A    between atoms: N_2  and  C_18
    4  A    between atoms: C_3  and  C_22
    5  A    between atoms: C_8  and  C_15
    6  A    between atoms: C_8  and  C_21
    7  A    between atoms: C_15  and  C_18
                            x       y       z     vdW  Elec       q    Type
                         _______ _______ _______ _____ _____    ______ ____

>  <TORSDO>
F 7

$$$$
=
 OpenBabel11072414243D

 26 27  0  0  1  0  0  0  0  0999 V2000
  161.4510  211.3970  154.3090 N   0  0  0  0  0  0  0  0  0  0  0  0
  160.7200  208.5820  153.0500 C   0  0  0  0  0  0  0  0  0  0  0  0
  161.7440  209.6730  156.0050 C   0  0  0  0  0  2  0  0  0  0  0  0
  161.2660  205.8810  153.4760 C   0  0  0  0  0  3  0  0  0  0  0  0
  160.5320  211.1930  153.4130 C   0  0  0  0  0  0  0  0  0  0  0  0
  159.7370  212.2960  152.9980 N   0  0  0  0  0  1  0  0  0  0  0  0
  161.2370  206.3720  152.1700 C   0  0  0  0  0  0  0  0  0  0  0  0
  160.3530  209.9370  152.7320 N   0  0  0  0  0  2  0  0  0  0  0  0
  160.7520  208.0360  154.3600 C   0  0  0  0  0  0  0  0  0  0  0  0
  162.3730  210.4030  154.8250 C   0  0  0  0  0  2  0  0  0  0  0  0
  160.5300  208.8340  155.6110 C   0  0  2  0  0  3  0  0  0  0  0  0
  161.0320  206.7130  154.5240 N   0  0  0  0  0  0  0  0  0  0  0  0
  160.9350  207.7200  151.9710 C   0  0  0  0  0  3  0  0  0  0  0  0
  161.4280  205.4490  151.0020 C   0  0  0  0  0  0  0  0  0  0  0  0
  161.9480  206.1400  149.9220 F   0  0  0  0  0  0  0  0  0  0  0  0
  162.2980  204.4260  151.3330 F   0  0  0  0  0  0  0  0  0  0  0  0
  160.2060  204.9070  150.6450 F   0  0  0  0  0  0  0  0  0  0  0  0
  159.2180  209.6080  155.6480 C   0  0  0  0  0  2  0  0  0  0  0  0
  159.2260  210.5510  156.7510 N   0  0  0  0  0  2  0  0  0  0  0  0
  158.5990  211.8200  156.6070 C   0  0  0  0  0  2  0  0  0  0  0  0
  157.4910  211.9430  155.8690 C   0  0  1  0  0  3  0  0  0  0  0  0
  157.1110  211.9610  156.8570 C   0  0  0  0  0  1  0  0  0  0  0  0
  156.3410  212.2490  155.5340 C   0  0  2  0  0  3  0  0  0  0  0  0
  156.1560  211.3500  154.7300 O   0  0  0  0  0  1  0  0  0  0  0  0
  155.2500  213.6890  153.8510 C   0  0  0  0  0  1  0  0  0  0  0  0
  155.8870  213.6380  155.2260 C   0  0  0  0  0  2  0  0  0  0  0  0
  1 10  1  0  0  0  0
  2  9  1  0  0  0  0
  4 12  1  0  0  0  0
  5  1  2  0  0  0  0
  6  5  1  0  0  0  0
  7  4  2  0  0  0  0
  8  2  1  0  0  0  0
  8  5  1  0  0  0  0
  9 12  2  0  0  0  0
  9 11  1  0  0  0  0
 10  3  1  0  0  0  0
 11 18  1  6  0  0  0
 11  3  1  0  0  0  0
 13  7  1  0  0  0  0
 13  2  2  0  0  0  0
 14 16  1  0  0  0  0
 14  7  1  0  0  0  0
 15 14  1  0  0  0  0
 17 14  1  0  0  0  0
 18 19  1  0  0  0  0
 20 19  1  0  0  0  0
 21 20  1  0  0  0  0
 21 22  1  1  0  0  0
 23 24  1  6  0  0  0
 23 21  1  0  0  0  0
 25 26  1  0  0  0  0
 26 23  1  0  0  0  0
M  END
>  <MODEL>
3

>  <REMARK>
 VINA RESULT:      -5.7      4.718      8.519
  Name = 
  7 active torsions:
  status: ('A' for Active; 'I' for Inactive)
    1  A    between atoms: C_1  and  C_13
    2  A    between atoms: N_2  and  C_3
    3  A    between atoms: N_2  and  C_18
    4  A    between atoms: C_3  and  C_22
    5  A    between atoms: C_8  and  C_15
    6  A    between atoms: C_8  and  C_21
    7  A    between atoms: C_15  and  C_18
                            x       y       z     vdW  Elec       q    Type
                         _______ _______ _______ _____ _____    ______ ____

>  <TORSDO>
F 7

$$$$
=
 OpenBabel11072414243D

 26 27  0  0  1  0  0  0  0  0999 V2000
  163.0040  207.6260  150.1250 N   0  0  0  0  0  0  0  0  0  0  0  0
  161.1790  205.0650  149.7350 C   0  0  0  0  0  0  0  0  0  0  0  0
  162.8630  206.4270  152.2420 C   0  0  0  0  0  2  0  0  0  0  0  0
  160.7750  202.5700  150.9130 C   0  0  0  0  0  3  0  0  0  0  0  0
  161.9750  207.5520  149.3360 C   0  0  0  0  0  0  0  0  0  0  0  0
  161.5810  208.7230  148.6310 N   0  0  0  0  0  1  0  0  0  0  0  0
  160.7690  202.6740  149.5210 C   0  0  0  0  0  0  0  0  0  0  0  0
  161.2820  206.3240  149.0460 N   0  0  0  0  0  2  0  0  0  0  0  0
  161.1680  204.9100  151.1470 C   0  0  0  0  0  0  0  0  0  0  0  0
  163.5660  206.5310  150.8940 C   0  0  0  0  0  2  0  0  0  0  0  0
  161.3930  206.0320  152.1190 C   0  0  2  0  0  3  0  0  0  0  0  0
  160.9770  203.6720  151.6800 N   0  0  0  0  0  0  0  0  0  0  0  0
  160.9450  203.9350  148.9470 C   0  0  0  0  0  3  0  0  0  0  0  0
  160.4810  201.4770  148.6650 C   0  0  0  0  0  0  0  0  0  0  0  0
  160.4630  201.8330  147.3280 F   0  0  0  0  0  0  0  0  0  0  0  0
  161.4500  200.5070  148.8500 F   0  0  0  0  0  0  0  0  0  0  0  0
  159.2480  200.9550  149.0100 F   0  0  0  0  0  0  0  0  0  0  0  0
  160.4550  207.2200  151.9470 C   0  0  0  0  0  2  0  0  0  0  0  0
  160.8320  208.2880  152.8540 N   0  0  0  0  0  2  0  0  0  0  0  0
  160.8990  209.6290  152.3870 C   0  0  0  0  0  2  0  0  0  0  0  0
  159.9760  210.5200  152.7640 C   0  0  1  0  0  3  0  0  0  0  0  0
  160.8050  210.7790  153.3700 C   0  0  0  0  0  1  0  0  0  0  0  0
  159.5970  211.7050  153.0410 C   0  0  0  0  0  0  0  0  0  0  0  0
  159.7270  212.6110  152.2330 O   0  0  0  0  0  0  0  0  0  0  0  0
  157.5270  212.8250  153.7870 C   0  0  0  0  0  1  0  0  0  0  0  0
  158.3020  211.5220  153.7620 C   0  0  0  0  0  2  0  0  0  0  0  0
  1 10  1  0  0  0  0
  2  9  1  0  0  0  0
  4 12  1  0  0  0  0
  5  1  2  0  0  0  0
  6  5  1  0  0  0  0
  7  4  2  0  0  0  0
  8  5  1  0  0  0  0
  8  2  1  0  0  0  0
  9 12  2  0  0  0  0
  9 11  1  0  0  0  0
 10  3  1  0  0  0  0
 11 18  1  6  0  0  0
 11  3  1  0  0  0  0
 13  7  1  0  0  0  0
 13  2  2  0  0  0  0
 14 16  1  0  0  0  0
 14 17  1  0  0  0  0
 14  7  1  0  0  0  0
 15 14  1  0  0  0  0
 18 19  1  0  0  0  0
 20 21  1  0  0  0  0
 20 19  1  0  0  0  0
 21 23  1  0  0  0  0
 21 22  1  1  0  0  0
 23 26  1  0  0  0  0
 24 23  2  0  0  0  0
 26 25  1  0  0  0  0
M  END
>  <MODEL>
4

>  <REMARK>
 VINA RESULT:      -5.6      4.763      7.832
  Name = 
  7 active torsions:
  status: ('A' for Active; 'I' for Inactive)
    1  A    between atoms: C_1  and  C_13
    2  A    between atoms: N_2  and  C_3
    3  A    between atoms: N_2  and  C_18
    4  A    between atoms: C_3  and  C_22
    5  A    between atoms: C_8  and  C_15
    6  A    between atoms: C_8  and  C_21
    7  A    between atoms: C_15  and  C_18
                            x       y       z     vdW  Elec       q    Type
                         _______ _______ _______ _____ _____    ______ ____

>  <TORSDO>
F 7

$$$$
=
 OpenBabel11072414243D

 26 27  0  0  1  0  0  0  0  0999 V2000
  162.7570  207.5080  151.3530 N   0  0  0  0  0  0  0  0  0  0  0  0
  161.3630  205.8620  149.0310 C   0  0  0  0  0  0  0  0  0  0  0  0
  162.8260  205.1370  151.9130 C   0  0  0  0  0  2  0  0  0  0  0  0
  161.3740  203.2780  147.9830 C   0  0  0  0  0  3  0  0  0  0  0  0
  161.7460  207.9170  150.6470 C   0  0  0  0  0  0  0  0  0  0  0  0
  161.1640  209.1740  150.9680 N   0  0  0  0  0  1  0  0  0  0  0  0
  161.3410  204.3660  147.1100 C   0  0  0  0  0  0  0  0  0  0  0  0
  161.2580  207.2250  149.4830 N   0  0  0  0  0  2  0  0  0  0  0  0
  161.3880  204.7240  149.8800 C   0  0  0  0  0  0  0  0  0  0  0  0
  163.4930  206.2740  151.1490 C   0  0  0  0  0  2  0  0  0  0  0  0
  161.4370  204.7920  151.3780 C   0  0  2  0  0  3  0  0  0  0  0  0
  161.4030  203.4800  149.3260 N   0  0  0  0  0  0  0  0  0  0  0  0
  161.3080  205.6530  147.6500 C   0  0  0  0  0  3  0  0  0  0  0  0
  161.2420  204.1550  145.6280 C   0  0  0  0  0  0  0  0  0  0  0  0
  160.7550  202.8900  145.3520 F   0  0  0  0  0  0  0  0  0  0  0  0
  160.3920  205.0890  145.0630 F   0  0  0  0  0  0  0  0  0  0  0  0
  162.4980  204.2880  145.0630 F   0  0  0  0  0  0  0  0  0  0  0  0
  160.3190  205.6090  152.0150 C   0  0  0  0  0  2  0  0  0  0  0  0
  160.6030  205.8300  153.4210 N   0  0  0  0  0  0  0  0  0  0  0  0
  160.4640  207.1300  153.9800 C   0  0  0  0  0  3  0  0  0  0  0  0
  160.3670  207.2870  155.3050 C   0  0  0  0  0  2  0  0  0  0  0  0
  161.3700  207.5680  155.1130 C   0  0  0  0  0  2  0  0  0  0  0  0
  160.9710  208.9770  155.6430 C   0  0  0  0  0  0  0  0  0  0  0  0
  159.9680  209.1090  156.3260 O   0  0  0  0  0  0  0  0  0  0  0  0
  161.0580  210.9810  154.2020 C   0  0  0  0  0  1  0  0  0  0  0  0
  161.7820  210.1710  155.2610 C   0  0  0  0  0  2  0  0  0  0  0  0
  2  8  1  0  0  0  0
  2  9  1  0  0  0  0
  4 12  1  0  0  0  0
  5  6  1  0  0  0  0
  5  1  2  0  0  0  0
  7 13  1  0  0  0  0
  7  4  2  0  0  0  0
  8  5  1  0  0  0  0
  9 11  1  0  0  0  0
 10  1  1  0  0  0  0
 10  3  1  0  0  0  0
 11  3  1  0  0  0  0
 11 18  1  6  0  0  0
 12  9  2  0  0  0  0
 13  2  2  0  0  0  0
 14  7  1  0  0  0  0
 15 14  1  0  0  0  0
 16 14  1  0  0  0  0
 17 14  1  0  0  0  0
 18 19  1  0  0  0  0
 19 20  2  0  0  0  0
 20 21  1  0  0  0  0
 22 21  1  0  0  0  0
 22 23  1  0  0  0  0
 23 24  2  0  0  0  0
 25 26  1  0  0  0  0
 26 23  1  0  0  0  0
M  END
>  <MODEL>
5

>  <REMARK>
 VINA RESULT:      -5.1      5.070      8.119
  Name = 
  7 active torsions:
  status: ('A' for Active; 'I' for Inactive)
    1  A    between atoms: C_1  and  C_13
    2  A    between atoms: N_2  and  C_3
    3  A    between atoms: N_2  and  C_18
    4  A    between atoms: C_3  and  C_22
    5  A    between atoms: C_8  and  C_15
    6  A    between atoms: C_8  and  C_21
    7  A    between atoms: C_15  and  C_18
                            x       y       z     vdW  Elec       q    Type
                         _______ _______ _______ _____ _____    ______ ____

>  <TORSDO>
F 7

$$$$
=
 OpenBabel11072414243D

 26 27  0  0  1  0  0  0  0  0999 V2000
  160.9760  205.6720  148.0740 N   0  0  0  0  0  0  0  0  0  0  0  0
  162.3140  208.4850  148.6580 C   0  0  0  0  0  0  0  0  0  0  0  0
  160.0920  206.5480  150.1690 C   0  0  0  0  0  2  0  0  0  0  0  0
  161.7840  210.8060  150.1090 C   0  0  0  0  0  3  0  0  0  0  0  0
  162.1940  206.0010  147.7650 C   0  0  0  0  0  0  0  0  0  0  0  0
  163.0290  205.0140  147.1750 N   0  0  0  0  0  1  0  0  0  0  0  0
  162.3300  210.9130  148.8290 C   0  0  0  0  0  0  0  0  0  0  0  0
  162.7080  207.3410  147.8780 N   0  0  0  0  0  2  0  0  0  0  0  0
  161.7660  208.4260  149.9670 C   0  0  0  0  0  0  0  0  0  0  0  0
  159.9770  206.5530  148.6500 C   0  0  0  0  0  2  0  0  0  0  0  0
  161.4020  207.1510  150.6710 C   0  0  2  0  0  3  0  0  0  0  0  0
  161.5140  209.5840  150.6370 N   0  0  0  0  0  0  0  0  0  0  0  0
  162.6160  209.7410  148.1260 C   0  0  0  0  0  3  0  0  0  0  0  0
  162.6950  212.2540  148.2620 C   0  0  0  0  0  0  0  0  0  0  0  0
  164.0690  212.4200  148.2620 F   0  0  0  0  0  0  0  0  0  0  0  0
  162.2350  212.3690  146.9620 F   0  0  0  0  0  0  0  0  0  0  0  0
  162.1210  213.2470  149.0340 F   0  0  0  0  0  0  0  0  0  0  0  0
  162.5360  206.1390  150.7820 C   0  0  0  0  0  2  0  0  0  0  0  0
  162.2810  205.2240  151.8790 N   0  0  0  0  0  2  0  0  0  0  0  0
  162.0030  203.8550  151.6150 C   0  0  0  0  0  2  0  0  0  0  0  0
  160.8470  203.3140  152.0130 C   0  0  0  0  0  2  0  0  0  0  0  0
  160.6870  203.4590  150.9760 C   0  0  0  0  0  2  0  0  0  0  0  0
  160.8440  202.1770  150.1070 C   0  0  0  0  0  0  0  0  0  0  0  0
  161.1180  201.1120  150.6370 O   0  0  0  0  0  0  0  0  0  0  0  0
  161.2060  200.9830  147.9760 C   0  0  0  0  0  1  0  0  0  0  0  0
  160.7200  202.2660  148.6210 C   0  0  0  0  0  2  0  0  0  0  0  0
  1 10  1  0  0  0  0
  2  9  1  0  0  0  0
  3 11  1  0  0  0  0
  4 12  1  0  0  0  0
  5  8  1  0  0  0  0
  5  1  2  0  0  0  0
  6  5  1  0  0  0  0
  7  4  2  0  0  0  0
  8  2  1  0  0  0  0
  9 12  2  0  0  0  0
  9 11  1  0  0  0  0
 10  3  1  0  0  0  0
 11 18  1  6  0  0  0
 13  2  2  0  0  0  0
 13  7  1  0  0  0  0
 14  7  1  0  0  0  0
 14 17  1  0  0  0  0
 15 14  1  0  0  0  0
 16 14  1  0  0  0  0
 18 19  1  0  0  0  0
 20 19  1  0  0  0  0
 20 21  1  0  0  0  0
 22 21  1  0  0  0  0
 23 24  2  0  0  0  0
 23 22  1  0  0  0  0
 25 26  1  0  0  0  0
 26 23  1  0  0  0  0
M  END
>  <MODEL>
6

>  <REMARK>
 VINA RESULT:      -4.8      4.065      5.552
  Name = 
  7 active torsions:
  status: ('A' for Active; 'I' for Inactive)
    1  A    between atoms: C_1  and  C_13
    2  A    between atoms: N_2  and  C_3
    3  A    between atoms: N_2  and  C_18
    4  A    between atoms: C_3  and  C_22
    5  A    between atoms: C_8  and  C_15
    6  A    between atoms: C_8  and  C_21
    7  A    between atoms: C_15  and  C_18
                            x       y       z     vdW  Elec       q    Type
                         _______ _______ _______ _____ _____    ______ ____

>  <TORSDO>
F 7

$$$$
=
 OpenBabel11072414243D

 26 27  0  0  1  0  0  0  0  0999 V2000
  162.6890  210.6640  151.2300 N   0  0  0  0  0  0  0  0  0  0  0  0
  161.3270  207.8110  151.4500 C   0  0  0  0  0  0  0  0  0  0  0  0
  162.0290  210.2810  153.5440 C   0  0  0  0  0  2  0  0  0  0  0  0
  160.8300  205.8610  153.3790 C   0  0  0  0  0  3  0  0  0  0  0  0
  161.9600  210.1090  150.3090 C   0  0  0  0  0  0  0  0  0  0  0  0
  161.6870  210.8500  149.1270 N   0  0  0  0  0  1  0  0  0  0  0  0
  161.2370  205.4670  152.1040 C   0  0  0  0  0  0  0  0  0  0  0  0
  161.5120  208.7420  150.3680 N   0  0  0  0  0  2  0  0  0  0  0  0
  160.9030  208.1620  152.7600 C   0  0  0  0  0  0  0  0  0  0  0  0
  163.0950  210.0490  152.4800 C   0  0  0  0  0  2  0  0  0  0  0  0
  160.7120  209.5730  153.2330 C   0  0  2  0  0  3  0  0  0  0  0  0
  160.6810  207.1780  153.6740 N   0  0  0  0  0  0  0  0  0  0  0  0
  161.4550  206.4540  151.1400 C   0  0  0  0  0  3  0  0  0  0  0  0
  161.3410  204.0140  151.7470 C   0  0  0  0  0  0  0  0  0  0  0  0
  160.7070  203.7670  150.5420 F   0  0  0  0  0  0  0  0  0  0  0  0
  162.6680  203.6390  151.6350 F   0  0  0  0  0  0  0  0  0  0  0  0
  160.7390  203.2570  152.7370 F   0  0  0  0  0  0  0  0  0  0  0  0
  159.7590  210.4060  152.3840 C   0  0  0  0  0  2  0  0  0  0  0  0
  159.8040  211.7950  152.8010 N   0  0  0  0  0  2  0  0  0  0  0  0
  158.6100  212.4580  153.1970 C   0  0  0  0  0  2  0  0  0  0  0  0
  157.9260  212.0330  154.2640 C   0  0  2  0  0  3  0  0  0  0  0  0
  158.4250  212.8890  154.6380 C   0  0  0  0  0  1  0  0  0  0  0  0
  158.5150  211.6730  155.6060 C   0  0  0  0  0  0  0  0  0  0  0  0
  157.5470  210.9460  155.7620 O   0  0  0  0  0  0  0  0  0  0  0  0
  159.8710  209.9760  156.7810 C   0  0  0  0  0  1  0  0  0  0  0  0
  159.7650  211.4380  156.3900 C   0  0  0  0  0  2  0  0  0  0  0  0
  1 10  1  0  0  0  0
  2  9  1  0  0  0  0
  4 12  1  0  0  0  0
  5  8  1  0  0  0  0
  5  1  2  0  0  0  0
  6  5  1  0  0  0  0
  7  4  2  0  0  0  0
  8  2  1  0  0  0  0
  9 11  1  0  0  0  0
  9 12  2  0  0  0  0
 10  3  1  0  0  0  0
 11 18  1  6  0  0  0
 11  3  1  0  0  0  0
 13  2  2  0  0  0  0
 13  7  1  0  0  0  0
 14  7  1  0  0  0  0
 14 17  1  0  0  0  0
 15 14  1  0  0  0  0
 16 14  1  0  0  0  0
 18 19  1  0  0  0  0
 19 20  1  0  0  0  0
 20 21  1  0  0  0  0
 21 22  1  1  0  0  0
 21 23  1  0  0  0  0
 23 24  2  0  0  0  0
 23 26  1  0  0  0  0
 26 25  1  0  0  0  0
M  END
>  <MODEL>
7

>  <REMARK>
 VINA RESULT:      -4.7      4.335      7.599
  Name = 
  7 active torsions:
  status: ('A' for Active; 'I' for Inactive)
    1  A    between atoms: C_1  and  C_13
    2  A    between atoms: N_2  and  C_3
    3  A    between atoms: N_2  and  C_18
    4  A    between atoms: C_3  and  C_22
    5  A    between atoms: C_8  and  C_15
    6  A    between atoms: C_8  and  C_21
    7  A    between atoms: C_15  and  C_18
                            x       y       z     vdW  Elec       q    Type
                         _______ _______ _______ _____ _____    ______ ____

>  <TORSDO>
F 7

$$$$
=
 OpenBabel11072414243D

 26 27  0  0  1  0  0  0  0  0999 V2000
  162.4480  205.5500  145.3210 N   0  0  0  0  0  0  0  0  0  0  0  0
  161.1110  202.7270  145.8560 C   0  0  0  0  0  0  0  0  0  0  0  0
  163.0230  204.8170  147.5720 C   0  0  0  0  0  2  0  0  0  0  0  0
  161.4740  200.5050  147.5000 C   0  0  0  0  0  3  0  0  0  0  0  0
  161.3000  205.1630  144.8510 C   0  0  0  0  0  0  0  0  0  0  0  0
  160.5390  206.0890  144.0850 N   0  0  0  0  0  1  0  0  0  0  0  0
  161.1330  200.3120  146.1610 C   0  0  0  0  0  0  0  0  0  0  0  0
  160.8100  203.8140  144.9610 N   0  0  0  0  0  2  0  0  0  0  0  0
  161.4500  202.8740  147.2270 C   0  0  0  0  0  0  0  0  0  0  0  0
  163.3700  204.7360  146.0910 C   0  0  0  0  0  2  0  0  0  0  0  0
  161.6680  204.1960  147.9040 C   0  0  2  0  0  3  0  0  0  0  0  0
  161.6280  201.7610  147.9920 N   0  0  0  0  0  0  0  0  0  0  0  0
  160.9280  201.4350  145.3570 C   0  0  0  0  0  3  0  0  0  0  0  0
  160.8950  198.9310  145.6230 C   0  0  0  0  0  0  0  0  0  0  0  0
  159.5690  198.7780  145.2590 F   0  0  0  0  0  0  0  0  0  0  0  0
  161.6880  198.7040  144.5130 F   0  0  0  0  0  0  0  0  0  0  0  0
  161.2060  198.0020  146.5990 F   0  0  0  0  0  0  0  0  0  0  0  0
  160.5050  205.1720  147.7840 C   0  0  0  0  0  2  0  0  0  0  0  0
  160.9260  206.5010  148.1850 N   0  0  0  0  0  2  0  0  0  0  0  0
  160.6930  206.9510  149.5140 C   0  0  0  0  0  2  0  0  0  0  0  0
  161.4880  206.5460  150.5110 C   0  0  1  0  0  3  0  0  0  0  0  0
  161.8330  207.5300  150.3280 C   0  0  0  0  0  1  0  0  0  0  0  0
  161.8050  207.0050  151.7930 C   0  0  0  0  0  0  0  0  0  0  0  0
  162.3110  205.9280  152.0630 O   0  0  0  0  0  0  0  0  0  0  0  0
  160.9380  206.9530  154.1040 C   0  0  0  0  0  1  0  0  0  0  0  0
  161.1030  207.7910  152.8510 C   0  0  0  0  0  2  0  0  0  0  0  0
  1 10  1  0  0  0  0
  2  9  1  0  0  0  0
  3 11  1  0  0  0  0
  4 12  1  0  0  0  0
  5  8  1  0  0  0  0
  5  1  2  0  0  0  0
  6  5  1  0  0  0  0
  7  4  2  0  0  0  0
  8  2  1  0  0  0  0
  9 11  1  0  0  0  0
  9 12  2  0  0  0  0
 10  3  1  0  0  0  0
 11 18  1  6  0  0  0
 13  2  2  0  0  0  0
 13  7  1  0  0  0  0
 14  7  1  0  0  0  0
 14 17  1  0  0  0  0
 15 14  1  0  0  0  0
 16 14  1  0  0  0  0
 18 19  1  0  0  0  0
 19 20  1  0  0  0  0
 20 21  1  0  0  0  0
 21 22  1  6  0  0  0
 21 23  1  0  0  0  0
 23 24  2  0  0  0  0
 23 26  1  0  0  0  0
 26 25  1  0  0  0  0
M  END
>  <MODEL>
8

>  <REMARK>
 VINA RESULT:      -4.2      5.728      8.944
  Name = 
  7 active torsions:
  status: ('A' for Active; 'I' for Inactive)
    1  A    between atoms: C_1  and  C_13
    2  A    between atoms: N_2  and  C_3
    3  A    between atoms: N_2  and  C_18
    4  A    between atoms: C_3  and  C_22
    5  A    between atoms: C_8  and  C_15
    6  A    between atoms: C_8  and  C_21
    7  A    between atoms: C_15  and  C_18
                            x       y       z     vdW  Elec       q    Type
                         _______ _______ _______ _____ _____    ______ ____

>  <TORSDO>
F 7

$$$$
=
 OpenBabel11072414243D

 26 27  0  0  1  0  0  0  0  0999 V2000
  160.9080  206.4760  148.8360 N   0  0  0  0  0  0  0  0  0  0  0  0
  161.7620  207.8260  151.5720 C   0  0  0  0  0  0  0  0  0  0  0  0
  159.7910  205.3220  150.6680 C   0  0  0  0  0  2  0  0  0  0  0  0
  160.8040  208.0900  154.1780 C   0  0  0  0  0  3  0  0  0  0  0  0
  162.0750  206.9890  149.0860 C   0  0  0  0  0  0  0  0  0  0  0  0
  163.0830  206.8900  148.0880 N   0  0  0  0  0  1  0  0  0  0  0  0
  161.3930  209.1910  153.5550 C   0  0  0  0  0  0  0  0  0  0  0  0
  162.3690  207.7550  150.2690 N   0  0  0  0  0  2  0  0  0  0  0  0
  161.1620  206.7320  152.2500 C   0  0  0  0  0  0  0  0  0  0  0  0
  159.7560  206.5120  149.7170 C   0  0  0  0  0  2  0  0  0  0  0  0
  160.9640  205.3730  151.6450 C   0  0  2  0  0  3  0  0  0  0  0  0
  160.6990  206.9070  153.5190 N   0  0  0  0  0  0  0  0  0  0  0  0
  161.8920  209.0360  152.2600 C   0  0  0  0  0  3  0  0  0  0  0  0
  161.5740  210.4830  154.2960 C   0  0  0  0  0  0  0  0  0  0  0  0
  160.8860  210.4520  155.4950 F   0  0  0  0  0  0  0  0  0  0  0  0
  162.9140  210.7030  154.5600 F   0  0  0  0  0  0  0  0  0  0  0  0
  161.0890  211.5240  153.5240 F   0  0  0  0  0  0  0  0  0  0  0  0
  162.2340  204.7250  151.1070 C   0  0  0  0  0  2  0  0  0  0  0  0
  162.3320  203.3550  151.5760 N   0  0  0  0  0  2  0  0  0  0  0  0
  161.2660  202.4430  151.3380 C   0  0  0  0  0  2  0  0  0  0  0  0
  160.8160  202.2440  150.0950 C   0  0  1  0  0  3  0  0  0  0  0  0
  161.4050  201.3810  150.2660 C   0  0  0  0  0  1  0  0  0  0  0  0
  160.5420  201.7240  149.0160 C   0  0  0  0  0  0  0  0  0  0  0  0
  159.3500  201.4630  149.0090 O   0  0  0  0  0  0  0  0  0  0  0  0
  160.8300  201.5060  146.5730 C   0  0  0  0  0  1  0  0  0  0  0  0
  161.1890  202.3140  147.8060 C   0  0  0  0  0  2  0  0  0  0  0  0
  1  5  2  0  0  0  0
  1 10  1  0  0  0  0
  2  9  2  0  0  0  0
  2 13  1  0  0  0  0
  3 11  1  0  0  0  0
  5  8  1  0  0  0  0
  6  5  1  0  0  0  0
  7  4  1  0  0  0  0
  7 14  1  0  0  0  0
  8  2  1  0  0  0  0
  9 12  1  0  0  0  0
 10  3  1  0  0  0  0
 11 18  1  6  0  0  0
 11  9  1  0  0  0  0
 12  4  2  0  0  0  0
 13  7  2  0  0  0  0
 14 16  1  0  0  0  0
 14 15  1  0  0  0  0
 17 14  1  0  0  0  0
 18 19  1  0  0  0  0
 20 19  1  0  0  0  0
 21 22  1  6  0  0  0
 21 20  1  0  0  0  0
 23 21  1  0  0  0  0
 24 23  2  0  0  0  0
 25 26  1  0  0  0  0
 26 23  1  0  0  0  0
M  END
>  <MODEL>
9

>  <REMARK>
 VINA RESULT:      -4.1      1.897      3.379
  Name = 
  7 active torsions:
  status: ('A' for Active; 'I' for Inactive)
    1  A    between atoms: C_1  and  C_13
    2  A    between atoms: N_2  and  C_3
    3  A    between atoms: N_2  and  C_18
    4  A    between atoms: C_3  and  C_22
    5  A    between atoms: C_8  and  C_15
    6  A    between atoms: C_8  and  C_21
    7  A    between atoms: C_15  and  C_18
                            x       y       z     vdW  Elec       q    Type
                         _______ _______ _______ _____ _____    ______ ____

>  <TORSDO>
F 7

$$$$
