=
 OpenBabel11072411413D

 53 59  0  0  1  0  0  0  0  0999 V2000
  161.2530  209.0780  147.8800 C   0  0  0  0  0  2  0  0  0  0  0  0
  162.3340  210.6240  149.6930 C   0  0  0  0  0  2  0  0  0  0  0  0
  161.7170  210.4370  148.3310 C   0  0  0  0  0  0  0  0  0  0  0  0
  159.8340  211.4450  152.7570 O   0  0  0  0  0  0  0  0  0  0  0  0
  162.0350  212.7550  147.9280 C   0  0  0  0  0  2  0  0  0  0  0  0
  160.0860  213.2250  151.2560 N   0  0  0  0  0  2  0  0  0  0  0  0
  161.4510  211.4210  150.5460 N   0  0  0  0  0  0  0  0  0  0  0  0
  161.6110  211.4340  147.5330 N   0  0  0  0  0  0  0  0  0  0  0  0
  161.0720  213.3320  148.9630 C   0  0  0  0  0  2  0  0  0  0  0  0
  160.9210  212.5900  150.2810 C   0  0  0  0  0  0  0  0  0  0  0  0
  159.6030  212.6500  152.4750 C   0  0  0  0  0  0  0  0  0  0  0  0
  156.9680  211.8520  154.9620 C   0  0  0  0  0  0  0  0  0  0  0  0
  159.0880  213.1760  154.8840 C   0  0  0  0  0  2  0  0  0  0  0  0
  156.1520  211.1590  155.6120 O   0  0  0  0  0  0  0  0  0  0  0  0
  156.5150  212.5750  153.8110 N   0  0  0  0  0  0  0  0  0  0  0  0
  158.7640  213.4800  153.4080 C   0  0  2  0  0  3  0  0  0  0  0  0
  158.4090  211.9010  155.3920 C   0  0  2  0  0  3  0  0  0  0  0  0
  157.2920  213.3420  153.0950 C   0  0  0  0  0  0  0  0  0  0  0  0
  156.7830  214.0000  151.9830 O   0  0  0  0  0  0  0  0  0  0  0  0
  155.4220  214.4300  151.9150 C   0  0  0  0  0  1  0  0  0  0  0  0
  159.1150  210.7070  154.9360 N   0  0  0  0  0  2  0  0  0  0  0  0
  162.0460  208.6900  157.2570 C   0  0  0  0  0  3  0  0  0  0  0  0
  159.7540  208.8680  156.4690 C   0  0  0  0  0  3  0  0  0  0  0  0
  162.3840  209.8430  156.5340 C   0  0  0  0  0  3  0  0  0  0  0  0
  160.0870  210.0260  155.7400 C   0  0  0  0  0  0  0  0  0  0  0  0
  160.7310  208.2030  157.2250 C   0  0  0  0  0  3  0  0  0  0  0  0
  161.4050  210.5090  155.7770 C   0  0  0  0  0  3  0  0  0  0  0  0
  161.6270  207.9430  148.8400 C   0  0  1  0  0  3  0  0  0  0  0  0
  160.3860  207.1320  149.2160 C   0  0  0  0  0  2  0  0  0  0  0  0
  160.7560  205.9410  149.9900 N   0  0  0  0  0  0  0  0  0  0  0  0
  161.0150  203.0210  150.7910 C   0  0  0  0  0  0  0  0  0  0  0  0
  160.9910  203.6530  151.9400 O   0  0  0  0  0  0  0  0  0  0  0  0
  161.2350  208.4860  151.2000 F   0  0  0  0  0  0  0  0  0  0  0  0
  161.1450  207.3490  151.9380 C   0  0  0  0  0  0  0  0  0  0  0  0
  161.0650  201.6210  150.8960 C   0  0  0  0  0  3  0  0  0  0  0  0
  161.0210  203.6100  149.5100 C   0  0  0  0  0  0  0  0  0  0  0  0
  161.0320  204.9340  152.2460 C   0  0  0  0  0  0  0  0  0  0  0  0
  161.2550  207.5240  153.3200 C   0  0  0  0  0  3  0  0  0  0  0  0
  161.1530  200.8080  149.7690 C   0  0  0  0  0  3  0  0  0  0  0  0
  161.1930  201.3890  148.5060 C   0  0  0  0  0  3  0  0  0  0  0  0
  161.2360  206.4320  154.1700 C   0  0  0  0  0  3  0  0  0  0  0  0
  161.1250  202.7770  148.3860 C   0  0  0  0  0  3  0  0  0  0  0  0
  160.8630  204.8850  149.2190 O   0  0  0  0  0  0  0  0  0  0  0  0
  160.9930  206.0450  151.3470 C   0  0  0  0  0  0  0  0  0  0  0  0
  161.1310  205.1570  153.6310 C   0  0  0  0  0  3  0  0  0  0  0  0
  162.7690  207.0720  148.3010 C   0  0  0  0  0  2  0  0  0  0  0  0
  161.0800  206.3890  146.5920 C   0  0  0  0  0  3  0  0  0  0  0  0
  162.7660  204.3740  145.6330 C   0  0  0  0  0  3  0  0  0  0  0  0
  163.1820  205.1850  146.6910 C   0  0  0  0  0  3  0  0  0  0  0  0
  161.5080  204.5710  145.0550 C   0  0  0  0  0  3  0  0  0  0  0  0
  159.3310  205.7880  144.9130 C   0  0  0  0  0  1  0  0  0  0  0  0
  162.3340  206.1890  147.1780 C   0  0  0  0  0  0  0  0  0  0  0  0
  160.6660  205.5790  145.5320 C   0  0  0  0  0  0  0  0  0  0  0  0
  1  3  1  0  0  0  0
  2  7  1  0  0  0  0
  3  2  1  0  0  0  0
  5  9  1  0  0  0  0
  6 11  1  0  0  0  0
  8  5  1  0  0  0  0
  8  3  2  0  0  0  0
  9 10  1  0  0  0  0
 10  7  2  0  0  0  0
 10  6  1  0  0  0  0
 11  4  2  0  0  0  0
 12 17  1  0  0  0  0
 12 14  2  0  0  0  0
 13 17  1  0  0  0  0
 15 12  1  0  0  0  0
 16 11  1  6  0  0  0
 16 13  1  0  0  0  0
 17 21  1  6  0  0  0
 18 16  1  0  0  0  0
 18 15  2  0  0  0  0
 19 18  1  0  0  0  0
 20 19  1  0  0  0  0
 21 25  1  0  0  0  0
 23 26  2  0  0  0  0
 24 22  2  0  0  0  0
 25 27  2  0  0  0  0
 25 23  1  0  0  0  0
 26 22  1  0  0  0  0
 27 24  1  0  0  0  0
 28  1  1  6  0  0  0
 28 29  1  0  0  0  0
 29 30  1  0  0  0  0
 30 44  1  0  0  0  0
 31 35  1  0  0  0  0
 31 32  1  0  0  0  0
 32 37  1  0  0  0  0
 33 34  1  0  0  0  0
 34 38  1  0  0  0  0
 36 31  2  0  0  0  0
 37 45  2  0  0  0  0
 38 41  2  0  0  0  0
 39 35  2  0  0  0  0
 40 39  1  0  0  0  0
 42 40  2  0  0  0  0
 42 36  1  0  0  0  0
 43 36  1  0  0  0  0
 43 30  1  0  0  0  0
 44 34  2  0  0  0  0
 44 37  1  0  0  0  0
 45 41  1  0  0  0  0
 46 28  1  0  0  0  0
 47 52  1  0  0  0  0
 48 49  1  0  0  0  0
 49 52  2  0  0  0  0
 50 53  1  0  0  0  0
 50 48  2  0  0  0  0
 51 53  1  0  0  0  0
 52 46  1  0  0  0  0
 53 47  2  0  0  0  0
M  END
>  <MODEL>
1

>  <REMARK>
 VINA RESULT:      -8.4      0.000      0.000
  Name = 
  10 active torsions:
  status: ('A' for Active; 'I' for Inactive)
    1  A    between atoms: N_5  and  C_9
    2  A    between atoms: C_7  and  C_10
    3  A    between atoms: C_9  and  C_29
    4  A    between atoms: C_10  and  C_29
    5  A    between atoms: C_12  and  C_29
    6  A    between atoms: C_12  and  C_48
    7  A    between atoms: C_19  and  C_53
    8  A    between atoms: C_21  and  N_46
    9  A    between atoms: O_23  and  C_38
   10  A    between atoms: C_28  and  N_46
                            x       y       z     vdW  Elec       q    Type
                         _______ _______ _______ _____ _____    ______ ____

>  <TORSDO>
F 10

$$$$
=
 OpenBabel11072411413D

 53 59  0  0  1  0  0  0  0  0999 V2000
  162.9790  207.4370  150.5080 C   0  0  0  0  0  2  0  0  0  0  0  0
  160.6490  207.6540  151.6810 C   0  0  0  0  0  2  0  0  0  0  0  0
  161.9570  206.9290  151.4900 C   0  0  0  0  0  0  0  0  0  0  0  0
  160.5480  210.5870  154.4540 O   0  0  0  0  0  0  0  0  0  0  0  0
  161.2480  205.3380  153.1020 C   0  0  0  0  0  2  0  0  0  0  0  0
  160.6820  208.4370  155.3740 N   0  0  0  0  0  2  0  0  0  0  0  0
  160.5930  208.2590  153.0120 N   0  0  0  0  0  0  0  0  0  0  0  0
  162.1960  205.8540  152.1460 N   0  0  0  0  0  0  0  0  0  0  0  0
  161.2140  206.2240  154.3450 C   0  0  0  0  0  2  0  0  0  0  0  0
  160.7970  207.6750  154.1680 C   0  0  0  0  0  0  0  0  0  0  0  0
  160.5230  209.8570  155.4800 C   0  0  0  0  0  0  0  0  0  0  0  0
  159.0460  213.0390  156.6850 C   0  0  0  0  0  0  0  0  0  0  0  0
  158.8970  210.6080  157.2510 C   0  0  0  0  0  2  0  0  0  0  0  0
  158.5070  214.1680  156.6290 O   0  0  0  0  0  0  0  0  0  0  0  0
  160.4700  212.9460  156.8140 N   0  0  0  0  0  0  0  0  0  0  0  0
  160.3780  210.4900  156.8360 C   0  0  2  0  0  3  0  0  0  0  0  0
  158.1920  211.8040  156.6050 C   0  0  2  0  0  3  0  0  0  0  0  0
  161.1080  211.8110  156.9090 C   0  0  0  0  0  0  0  0  0  0  0  0
  162.4930  211.8010  157.0160 O   0  0  0  0  0  0  0  0  0  0  0  0
  163.2470  210.5880  156.9760 C   0  0  0  0  0  1  0  0  0  0  0  0
  157.8350  211.5230  155.2180 N   0  0  0  0  0  2  0  0  0  0  0  0
  155.7830  214.2920  152.7340 C   0  0  0  0  0  3  0  0  0  0  0  0
  157.8060  213.0580  153.2720 C   0  0  0  0  0  3  0  0  0  0  0  0
  155.1370  213.7140  153.8360 C   0  0  0  0  0  3  0  0  0  0  0  0
  157.1630  212.4740  154.3810 C   0  0  0  0  0  0  0  0  0  0  0  0
  157.1180  213.9640  152.4520 C   0  0  0  0  0  3  0  0  0  0  0  0
  155.8280  212.8070  154.6580 C   0  0  0  0  0  3  0  0  0  0  0  0
  162.5470  207.3150  149.0420 C   0  0  1  0  0  3  0  0  0  0  0  0
  161.0830  206.8830  148.9530 C   0  0  0  0  0  2  0  0  0  0  0  0
  160.9760  205.5090  148.4470 N   0  0  0  0  0  0  0  0  0  0  0  0
  161.1810  202.4790  148.3410 C   0  0  0  0  0  0  0  0  0  0  0  0
  161.3060  202.8380  147.0870 O   0  0  0  0  0  0  0  0  0  0  0  0
  160.3960  207.6250  146.6150 F   0  0  0  0  0  0  0  0  0  0  0  0
  160.7290  206.3790  146.1860 C   0  0  0  0  0  0  0  0  0  0  0  0
  161.3090  201.0990  148.5680 C   0  0  0  0  0  3  0  0  0  0  0  0
  160.9110  203.3280  149.4340 C   0  0  0  0  0  0  0  0  0  0  0  0
  161.1650  204.0000  146.4800 C   0  0  0  0  0  0  0  0  0  0  0  0
  160.8120  206.2270  144.8000 C   0  0  0  0  0  3  0  0  0  0  0  0
  161.1440  200.5500  149.8370 C   0  0  0  0  0  3  0  0  0  0  0  0
  160.8450  201.3830  150.9110 C   0  0  0  0  0  3  0  0  0  0  0  0
  161.0860  204.9890  144.2440 C   0  0  0  0  0  3  0  0  0  0  0  0
  160.7340  202.7570  150.7030 C   0  0  0  0  0  3  0  0  0  0  0  0
  160.8750  204.6450  149.4280 O   0  0  0  0  0  0  0  0  0  0  0  0
  160.9380  205.2750  147.0860 C   0  0  0  0  0  0  0  0  0  0  0  0
  161.2540  203.8950  145.0810 C   0  0  0  0  0  3  0  0  0  0  0  0
  162.8440  208.5860  148.2370 C   0  0  0  0  0  2  0  0  0  0  0  0
  161.8120  210.8530  148.0520 C   0  0  0  0  0  3  0  0  0  0  0  0
  161.6050  211.0600  150.8340 C   0  0  0  0  0  3  0  0  0  0  0  0
  162.1560  209.9120  150.2600 C   0  0  0  0  0  3  0  0  0  0  0  0
  161.1580  212.1030  150.0180 C   0  0  0  0  0  3  0  0  0  0  0  0
  160.7790  213.1090  147.7620 C   0  0  0  0  0  1  0  0  0  0  0  0
  162.2680  209.8110  148.8660 C   0  0  0  0  0  0  0  0  0  0  0  0
  161.2590  212.0000  148.6270 C   0  0  0  0  0  0  0  0  0  0  0  0
  1  3  1  0  0  0  0
  2  7  1  0  0  0  0
  3  2  1  0  0  0  0
  3  8  2  0  0  0  0
  4 11  2  0  0  0  0
  5  9  1  0  0  0  0
  6 11  1  0  0  0  0
  7 10  2  0  0  0  0
  8  5  1  0  0  0  0
 10  9  1  0  0  0  0
 10  6  1  0  0  0  0
 12 15  1  0  0  0  0
 14 12  2  0  0  0  0
 15 18  2  0  0  0  0
 16 11  1  6  0  0  0
 16 18  1  0  0  0  0
 16 13  1  0  0  0  0
 17 21  1  6  0  0  0
 17 12  1  0  0  0  0
 17 13  1  0  0  0  0
 18 19  1  0  0  0  0
 20 19  1  0  0  0  0
 22 24  1  0  0  0  0
 23 25  2  0  0  0  0
 24 27  2  0  0  0  0
 25 27  1  0  0  0  0
 25 21  1  0  0  0  0
 26 22  2  0  0  0  0
 26 23  1  0  0  0  0
 28 46  1  1  0  0  0
 28  1  1  0  0  0  0
 29 28  1  0  0  0  0
 30 29  1  0  0  0  0
 30 43  1  0  0  0  0
 31 35  2  0  0  0  0
 31 36  1  0  0  0  0
 32 31  1  0  0  0  0
 34 33  1  0  0  0  0
 34 44  1  0  0  0  0
 35 39  1  0  0  0  0
 36 42  2  0  0  0  0
 37 44  2  0  0  0  0
 37 32  1  0  0  0  0
 38 34  2  0  0  0  0
 39 40  2  0  0  0  0
 41 38  1  0  0  0  0
 41 45  2  0  0  0  0
 42 40  1  0  0  0  0
 43 36  1  0  0  0  0
 44 30  1  0  0  0  0
 45 37  1  0  0  0  0
 46 52  1  0  0  0  0
 47 53  2  0  0  0  0
 47 52  1  0  0  0  0
 49 48  1  0  0  0  0
 50 48  2  0  0  0  0
 51 53  1  0  0  0  0
 52 49  2  0  0  0  0
 53 50  1  0  0  0  0
M  END
>  <MODEL>
2

>  <REMARK>
 VINA RESULT:      -8.3      2.032      5.741
  Name = 
  10 active torsions:
  status: ('A' for Active; 'I' for Inactive)
    1  A    between atoms: N_5  and  C_9
    2  A    between atoms: C_7  and  C_10
    3  A    between atoms: C_9  and  C_29
    4  A    between atoms: C_10  and  C_29
    5  A    between atoms: C_12  and  C_29
    6  A    between atoms: C_12  and  C_48
    7  A    between atoms: C_19  and  C_53
    8  A    between atoms: C_21  and  N_46
    9  A    between atoms: O_23  and  C_38
   10  A    between atoms: C_28  and  N_46
                            x       y       z     vdW  Elec       q    Type
                         _______ _______ _______ _____ _____    ______ ____

>  <TORSDO>
F 10

$$$$
=
 OpenBabel11072411413D

 53 59  0  0  1  0  0  0  0  0999 V2000
  161.2450  208.7370  148.3760 C   0  0  0  0  0  2  0  0  0  0  0  0
  162.0830  210.3790  150.2330 C   0  0  0  0  0  2  0  0  0  0  0  0
  161.8200  210.0680  148.7820 C   0  0  0  0  0  0  0  0  0  0  0  0
  159.0690  212.0440  152.3430 O   0  0  0  0  0  0  0  0  0  0  0  0
  162.6580  212.2170  148.2250 C   0  0  0  0  0  2  0  0  0  0  0  0
  160.0310  213.5010  150.7820 N   0  0  0  0  0  2  0  0  0  0  0  0
  161.1730  211.4240  150.7020 N   0  0  0  0  0  0  0  0  0  0  0  0
  162.1130  210.9280  147.8790 N   0  0  0  0  0  0  0  0  0  0  0  0
  161.5840  213.0900  148.8690 C   0  0  0  0  0  2  0  0  0  0  0  0
  160.9580  212.6010  150.1650 C   0  0  0  0  0  0  0  0  0  0  0  0
  159.1480  213.2080  151.8710 C   0  0  0  0  0  0  0  0  0  0  0  0
  156.2660  213.2340  154.2070 C   0  0  0  0  0  0  0  0  0  0  0  0
  158.4400  214.4440  153.9490 C   0  0  0  0  0  2  0  0  0  0  0  0
  155.3650  212.7820  154.9500 O   0  0  0  0  0  0  0  0  0  0  0  0
  155.9510  213.5830  152.8540 N   0  0  0  0  0  0  0  0  0  0  0  0
  158.2650  214.2930  152.4240 C   0  0  2  0  0  3  0  0  0  0  0  0
  157.6630  213.3900  154.7440 C   0  0  2  0  0  3  0  0  0  0  0  0
  156.8230  214.0870  152.0220 C   0  0  0  0  0  0  0  0  0  0  0  0
  156.4450  214.3870  150.7190 O   0  0  0  0  0  0  0  0  0  0  0  0
  155.2180  213.9180  150.1600 C   0  0  0  0  0  1  0  0  0  0  0  0
  158.3540  212.1050  154.7390 N   0  0  0  0  0  2  0  0  0  0  0  0
  161.9410  211.4790  156.9270 C   0  0  0  0  0  3  0  0  0  0  0  0
  160.4220  210.8040  155.1530 C   0  0  0  0  0  3  0  0  0  0  0  0
  161.0850  212.5390  157.2560 C   0  0  0  0  0  3  0  0  0  0  0  0
  159.5580  211.8680  155.4800 C   0  0  0  0  0  0  0  0  0  0  0  0
  161.6090  210.6100  155.8760 C   0  0  0  0  0  3  0  0  0  0  0  0
  159.8960  212.7320  156.5330 C   0  0  0  0  0  3  0  0  0  0  0  0
  161.7080  207.5660  149.2500 C   0  0  1  0  0  3  0  0  0  0  0  0
  162.6030  206.6230  148.4460 C   0  0  0  0  0  2  0  0  0  0  0  0
  161.9060  205.3650  148.1540 N   0  0  0  0  0  0  0  0  0  0  0  0
  160.9530  202.4940  148.4380 C   0  0  0  0  0  0  0  0  0  0  0  0
  160.9750  202.6820  147.1410 O   0  0  0  0  0  0  0  0  0  0  0  0
  161.8320  207.3980  146.1450 F   0  0  0  0  0  0  0  0  0  0  0  0
  161.5970  206.0920  145.8500 C   0  0  0  0  0  0  0  0  0  0  0  0
  160.6000  201.1930  148.8340 C   0  0  0  0  0  3  0  0  0  0  0  0
  161.2180  203.4600  149.4310 C   0  0  0  0  0  0  0  0  0  0  0  0
  161.1670  203.7580  146.4060 C   0  0  0  0  0  0  0  0  0  0  0  0
  161.3670  205.8160  144.5000 C   0  0  0  0  0  3  0  0  0  0  0  0
  160.4750  200.8470  150.1770 C   0  0  0  0  0  3  0  0  0  0  0  0
  160.7040  201.8090  151.1560 C   0  0  0  0  0  3  0  0  0  0  0  0
  161.0590  204.5320  144.0870 C   0  0  0  0  0  3  0  0  0  0  0  0
  161.0740  203.0990  150.7790 C   0  0  0  0  0  3  0  0  0  0  0  0
  161.6710  204.6840  149.2490 O   0  0  0  0  0  0  0  0  0  0  0  0
  161.5410  205.0630  146.8560 C   0  0  0  0  0  0  0  0  0  0  0  0
  160.9570  203.5230  145.0360 C   0  0  0  0  0  3  0  0  0  0  0  0
  162.3560  208.0330  150.5590 C   0  0  0  0  0  2  0  0  0  0  0  0
  161.1880  207.7440  152.7490 C   0  0  0  0  0  3  0  0  0  0  0  0
  161.9590  205.0580  152.8820 C   0  0  0  0  0  3  0  0  0  0  0  0
  162.3420  205.8390  151.7890 C   0  0  0  0  0  3  0  0  0  0  0  0
  161.1910  205.6190  153.9060 C   0  0  0  0  0  3  0  0  0  0  0  0
  159.9840  207.5540  154.9280 C   0  0  0  0  0  1  0  0  0  0  0  0
  161.9640  207.1870  151.7260 C   0  0  0  0  0  0  0  0  0  0  0  0
  160.8040  206.9610  153.8400 C   0  0  0  0  0  0  0  0  0  0  0  0
  1  3  1  0  0  0  0
  2  7  1  0  0  0  0
  3  2  1  0  0  0  0
  5  9  1  0  0  0  0
  6 11  1  0  0  0  0
  8  5  1  0  0  0  0
  8  3  2  0  0  0  0
  9 10  1  0  0  0  0
 10  7  2  0  0  0  0
 10  6  1  0  0  0  0
 11  4  2  0  0  0  0
 12 17  1  0  0  0  0
 12 14  2  0  0  0  0
 13 17  1  0  0  0  0
 15 12  1  0  0  0  0
 16 11  1  1  0  0  0
 16 13  1  0  0  0  0
 17 21  1  6  0  0  0
 18 16  1  0  0  0  0
 18 15  2  0  0  0  0
 19 18  1  0  0  0  0
 20 19  1  0  0  0  0
 21 25  1  0  0  0  0
 22 24  1  0  0  0  0
 23 25  2  0  0  0  0
 23 26  1  0  0  0  0
 25 27  1  0  0  0  0
 26 22  2  0  0  0  0
 27 24  2  0  0  0  0
 28  1  1  6  0  0  0
 28 46  1  0  0  0  0
 29 28  1  0  0  0  0
 30 29  1  0  0  0  0
 30 43  1  0  0  0  0
 31 35  2  0  0  0  0
 31 36  1  0  0  0  0
 32 31  1  0  0  0  0
 34 33  1  0  0  0  0
 34 44  1  0  0  0  0
 35 39  1  0  0  0  0
 36 42  2  0  0  0  0
 37 44  2  0  0  0  0
 37 32  1  0  0  0  0
 38 34  2  0  0  0  0
 39 40  2  0  0  0  0
 41 38  1  0  0  0  0
 41 45  2  0  0  0  0
 42 40  1  0  0  0  0
 43 36  1  0  0  0  0
 44 30  1  0  0  0  0
 45 37  1  0  0  0  0
 46 52  1  0  0  0  0
 47 53  1  0  0  0  0
 48 50  1  0  0  0  0
 49 48  2  0  0  0  0
 52 49  1  0  0  0  0
 52 47  2  0  0  0  0
 53 50  2  0  0  0  0
 53 51  1  0  0  0  0
M  END
>  <MODEL>
3

>  <REMARK>
 VINA RESULT:      -7.1      1.459      4.175
  Name = 
  10 active torsions:
  status: ('A' for Active; 'I' for Inactive)
    1  A    between atoms: N_5  and  C_9
    2  A    between atoms: C_7  and  C_10
    3  A    between atoms: C_9  and  C_29
    4  A    between atoms: C_10  and  C_29
    5  A    between atoms: C_12  and  C_29
    6  A    between atoms: C_12  and  C_48
    7  A    between atoms: C_19  and  C_53
    8  A    between atoms: C_21  and  N_46
    9  A    between atoms: O_23  and  C_38
   10  A    between atoms: C_28  and  N_46
                            x       y       z     vdW  Elec       q    Type
                         _______ _______ _______ _____ _____    ______ ____

>  <TORSDO>
F 10

$$$$
=
 OpenBabel11072411413D

 53 59  0  0  1  0  0  0  0  0999 V2000
  161.0120  208.6510  149.7160 C   0  0  0  0  0  2  0  0  0  0  0  0
  160.2730  208.7100  152.2250 C   0  0  0  0  0  2  0  0  0  0  0  0
  161.3220  208.9250  151.1630 C   0  0  0  0  0  0  0  0  0  0  0  0
  157.8420  211.8200  153.0790 O   0  0  0  0  0  0  0  0  0  0  0  0
  162.8320  209.5980  152.8660 C   0  0  0  0  0  2  0  0  0  0  0  0
  160.0380  212.1160  153.8390 N   0  0  0  0  0  2  0  0  0  0  0  0
  159.8630  209.9920  152.8010 N   0  0  0  0  0  0  0  0  0  0  0  0
  162.4960  209.3160  151.4920 N   0  0  0  0  0  0  0  0  0  0  0  0
  162.1510  210.8850  153.3230 C   0  0  0  0  0  2  0  0  0  0  0  0
  160.6310  210.9270  153.3050 C   0  0  0  0  0  0  0  0  0  0  0  0
  158.6630  212.5050  153.7440 C   0  0  0  0  0  0  0  0  0  0  0  0
  156.2050  213.2740  156.4140 C   0  0  0  0  0  0  0  0  0  0  0  0
  158.5900  213.8160  155.8940 C   0  0  0  0  0  2  0  0  0  0  0  0
  155.3040  213.0740  157.2610 O   0  0  0  0  0  0  0  0  0  0  0  0
  155.8490  213.7490  155.1090 N   0  0  0  0  0  0  0  0  0  0  0  0
  158.2030  213.7770  154.4020 C   0  0  2  0  0  3  0  0  0  0  0  0
  157.6390  213.0020  156.7770 C   0  0  2  0  0  3  0  0  0  0  0  0
  156.7270  214.0100  154.1790 C   0  0  0  0  0  0  0  0  0  0  0  0
  156.3040  214.4530  152.9320 O   0  0  0  0  0  0  0  0  0  0  0  0
  155.0540  214.0500  152.3690 C   0  0  0  0  0  1  0  0  0  0  0  0
  157.9220  211.5730  156.6860 N   0  0  0  0  0  2  0  0  0  0  0  0
  161.8830  210.0500  156.8890 C   0  0  0  0  0  3  0  0  0  0  0  0
  159.5280  209.7080  156.3960 C   0  0  0  0  0  3  0  0  0  0  0  0
  161.6120  211.3750  157.2600 C   0  0  0  0  0  3  0  0  0  0  0  0
  159.2500  211.0380  156.7680 C   0  0  0  0  0  0  0  0  0  0  0  0
  160.8400  209.2160  156.4580 C   0  0  0  0  0  3  0  0  0  0  0  0
  160.2980  211.8670  157.1990 C   0  0  0  0  0  3  0  0  0  0  0  0
  162.2490  208.3570  148.8590 C   0  0  1  0  0  3  0  0  0  0  0  0
  161.8790  207.4520  147.6840 C   0  0  0  0  0  2  0  0  0  0  0  0
  161.5110  206.1110  148.1540 N   0  0  0  0  0  0  0  0  0  0  0  0
  161.2520  203.6930  149.9770 C   0  0  0  0  0  0  0  0  0  0  0  0
  161.2820  203.1690  148.7750 O   0  0  0  0  0  0  0  0  0  0  0  0
  161.0410  206.7040  145.3970 F   0  0  0  0  0  0  0  0  0  0  0  0
  161.1330  205.4250  145.8480 C   0  0  0  0  0  0  0  0  0  0  0  0
  161.2000  202.7560  151.0210 C   0  0  0  0  0  3  0  0  0  0  0  0
  161.2400  205.0680  150.2920 C   0  0  0  0  0  0  0  0  0  0  0  0
  161.2440  203.7080  147.5730 C   0  0  0  0  0  0  0  0  0  0  0  0
  161.0310  204.4370  144.8660 C   0  0  0  0  0  3  0  0  0  0  0  0
  161.1050  203.1520  152.3530 C   0  0  0  0  0  3  0  0  0  0  0  0
  161.0600  204.5080  152.6630 C   0  0  0  0  0  3  0  0  0  0  0  0
  161.0520  203.0970  145.2120 C   0  0  0  0  0  3  0  0  0  0  0  0
  161.1300  205.4500  151.6380 C   0  0  0  0  0  3  0  0  0  0  0  0
  161.3990  206.0770  149.4600 O   0  0  0  0  0  0  0  0  0  0  0  0
  161.2810  205.0990  147.2420 C   0  0  0  0  0  0  0  0  0  0  0  0
  161.1520  202.7470  146.5510 C   0  0  0  0  0  3  0  0  0  0  0  0
  162.9760  209.6350  148.4230 C   0  0  0  0  0  2  0  0  0  0  0  0
  161.2650  210.9960  147.2150 C   0  0  0  0  0  3  0  0  0  0  0  0
  161.1200  212.8170  149.3340 C   0  0  0  0  0  3  0  0  0  0  0  0
  161.9850  211.7230  149.4130 C   0  0  0  0  0  3  0  0  0  0  0  0
  160.3280  213.0000  148.1960 C   0  0  0  0  0  3  0  0  0  0  0  0
  159.5530  212.2840  145.9310 C   0  0  0  0  0  1  0  0  0  0  0  0
  162.0650  210.8160  148.3490 C   0  0  0  0  0  0  0  0  0  0  0  0
  160.3990  212.0890  147.1380 C   0  0  0  0  0  0  0  0  0  0  0  0
  1  3  1  0  0  0  0
  2  7  1  0  0  0  0
  3  8  2  0  0  0  0
  3  2  1  0  0  0  0
  4 11  2  0  0  0  0
  5  9  1  0  0  0  0
  7 10  2  0  0  0  0
  8  5  1  0  0  0  0
 10  9  1  0  0  0  0
 10  6  1  0  0  0  0
 11  6  1  0  0  0  0
 12 17  1  0  0  0  0
 12 14  2  0  0  0  0
 13 17  1  0  0  0  0
 15 12  1  0  0  0  0
 16 11  1  1  0  0  0
 16 13  1  0  0  0  0
 17 21  1  6  0  0  0
 18 16  1  0  0  0  0
 18 15  2  0  0  0  0
 19 18  1  0  0  0  0
 20 19  1  0  0  0  0
 21 25  1  0  0  0  0
 22 24  1  0  0  0  0
 23 26  1  0  0  0  0
 23 25  2  0  0  0  0
 25 27  1  0  0  0  0
 26 22  2  0  0  0  0
 27 24  2  0  0  0  0
 28 29  1  6  0  0  0
 28  1  1  0  0  0  0
 29 30  1  0  0  0  0
 30 43  1  0  0  0  0
 31 36  2  0  0  0  0
 31 35  1  0  0  0  0
 32 31  1  0  0  0  0
 33 34  1  0  0  0  0
 34 44  1  0  0  0  0
 35 39  2  0  0  0  0
 36 42  1  0  0  0  0
 37 32  1  0  0  0  0
 38 41  1  0  0  0  0
 38 34  2  0  0  0  0
 39 40  1  0  0  0  0
 41 45  2  0  0  0  0
 42 40  2  0  0  0  0
 43 36  1  0  0  0  0
 44 37  2  0  0  0  0
 44 30  1  0  0  0  0
 45 37  1  0  0  0  0
 46 28  1  0  0  0  0
 47 52  1  0  0  0  0
 48 49  1  0  0  0  0
 50 48  2  0  0  0  0
 51 53  1  0  0  0  0
 52 46  1  0  0  0  0
 52 49  2  0  0  0  0
 53 47  2  0  0  0  0
 53 50  1  0  0  0  0
M  END
>  <MODEL>
4

>  <REMARK>
 VINA RESULT:      -6.8      1.888      4.312
  Name = 
  10 active torsions:
  status: ('A' for Active; 'I' for Inactive)
    1  A    between atoms: N_5  and  C_9
    2  A    between atoms: C_7  and  C_10
    3  A    between atoms: C_9  and  C_29
    4  A    between atoms: C_10  and  C_29
    5  A    between atoms: C_12  and  C_29
    6  A    between atoms: C_12  and  C_48
    7  A    between atoms: C_19  and  C_53
    8  A    between atoms: C_21  and  N_46
    9  A    between atoms: O_23  and  C_38
   10  A    between atoms: C_28  and  N_46
                            x       y       z     vdW  Elec       q    Type
                         _______ _______ _______ _____ _____    ______ ____

>  <TORSDO>
F 10

$$$$
