=
 OpenBabel11072413173D

 27 30  0  0  1  0  0  0  0  0999 V2000
  161.8180  208.0000  150.6290 C   0  0  2  0  0  3  0  0  0  0  0  0
  160.8380  206.8180  148.8470 C   0  0  0  0  0  3  0  0  0  0  0  0
  161.2760  208.0380  148.2670 N   0  0  0  0  0  0  0  0  0  0  0  0
  161.8850  208.7400  149.3360 C   0  0  0  0  0  0  0  0  0  0  0  0
  161.1250  206.7580  150.1460 C   0  0  1  0  0  3  0  0  0  0  0  0
  162.4380  209.8610  149.1850 O   0  0  0  0  0  0  0  0  0  0  0  0
  160.5710  207.9640  152.7500 O   0  0  0  0  0  0  0  0  0  0  0  0
  161.2410  210.3680  156.0480 C   0  0  0  0  0  3  0  0  0  0  0  0
  160.4000  208.2380  155.2030 C   0  0  0  0  0  3  0  0  0  0  0  0
  161.3140  209.8850  153.6950 C   0  0  0  0  0  0  0  0  0  0  0  0
  161.6110  210.0520  152.2480 C   0  0  2  0  0  3  0  0  0  0  0  0
  160.9520  208.7750  151.6360 C   0  0  1  0  0  3  0  0  0  0  0  0
  161.5800  210.7660  154.7440 C   0  0  0  0  0  3  0  0  0  0  0  0
  160.6540  209.1080  156.2760 C   0  0  0  0  0  3  0  0  0  0  0  0
  163.0560  210.0610  152.0630 N   0  0  0  0  0  1  0  0  0  0  0  0
  160.7440  208.6640  153.9210 C   0  0  0  0  0  0  0  0  0  0  0  0
  160.8320  205.5720  151.0120 C   0  0  1  0  0  3  0  0  0  0  0  0
  160.0980  204.5600  150.2650 N   0  0  0  0  0  2  0  0  0  0  0  0
  160.5290  203.2840  150.8180 C   0  0  2  0  0  3  0  0  0  0  0  0
  162.1060  204.9440  151.5440 C   0  0  0  0  0  2  0  0  0  0  0  0
  161.9570  203.4650  151.2920 C   0  0  0  0  0  2  0  0  0  0  0  0
  161.2230  200.9440  150.1740 C   0  0  0  0  0  1  0  0  0  0  0  0
  160.4320  202.1770  149.7620 C   0  0  2  0  0  3  0  0  0  0  0  0
  160.8700  202.6520  148.3740 C   0  0  0  0  0  2  0  0  0  0  0  0
  160.8540  201.5290  147.3420 C   0  0  0  0  0  2  0  0  0  0  0  0
  160.8590  202.1040  145.9380 C   0  0  0  0  0  2  0  0  0  0  0  0
  160.0650  201.2670  145.0560 N   0  0  0  0  0  1  0  0  0  0  0  0
  1  4  1  6  0  0  0
  1 12  1  0  0  0  0
  3  2  2  0  0  0  0
  3  4  1  0  0  0  0
  5  2  1  6  0  0  0
  5  1  1  0  0  0  0
  5 17  1  0  0  0  0
  6  4  2  0  0  0  0
  7 16  1  0  0  0  0
  8 14  1  0  0  0  0
  9 14  2  0  0  0  0
 10 16  2  0  0  0  0
 10 13  1  0  0  0  0
 11 15  1  1  0  0  0
 11 10  1  0  0  0  0
 12 11  1  0  0  0  0
 12  7  1  1  0  0  0
 13  8  2  0  0  0  0
 16  9  1  0  0  0  0
 17 20  1  6  0  0  0
 18 19  1  0  0  0  0
 18 17  1  0  0  0  0
 19 23  1  6  0  0  0
 19 21  1  0  0  0  0
 21 20  1  0  0  0  0
 23 22  1  1  0  0  0
 24 23  1  0  0  0  0
 25 24  1  0  0  0  0
 26 25  1  0  0  0  0
 27 26  1  0  0  0  0
M  END
>  <MODEL>
1

>  <REMARK>
 VINA RESULT:      -7.5      0.000      0.000
  Name = 
  6 active torsions:
  status: ('A' for Active; 'I' for Inactive)
    1  A    between atoms: C_1  and  C_10
    2  A    between atoms: C_2  and  C_22
    3  A    between atoms: C_3  and  C_26
    4  A    between atoms: C_11  and  C_21
    5  A    between atoms: C_11  and  C_26
    6  A    between atoms: C_14  and  C_21
                            x       y       z     vdW  Elec       q    Type
                         _______ _______ _______ _____ _____    ______ ____

>  <TORSDO>
F 6

$$$$
=
 OpenBabel11072413173D

 27 30  0  0  1  0  0  0  0  0999 V2000
  160.5590  208.8190  153.0510 C   0  0  2  0  0  3  0  0  0  0  0  0
  161.7100  207.0290  154.0540 C   0  0  0  0  0  3  0  0  0  0  0  0
  161.1810  207.7680  155.1450 N   0  0  0  0  0  2  0  0  0  0  0  0
  160.4700  208.8340  154.5390 C   0  0  0  0  0  0  0  0  0  0  0  0
  161.3830  207.5740  152.8840 C   0  0  0  0  0  0  0  0  0  0  0  0
  159.8200  209.6810  155.2060 O   0  0  0  0  0  0  0  0  0  0  0  0
  161.8810  209.8680  151.2590 O   0  0  0  0  0  0  0  0  0  0  0  0
  160.9250  213.3130  149.1800 C   0  0  0  0  0  3  0  0  0  0  0  0
  162.1020  211.1750  149.1700 C   0  0  0  0  0  3  0  0  0  0  0  0
  160.8410  211.8750  151.1050 C   0  0  0  0  0  0  0  0  0  0  0  0
  160.4590  211.3690  152.4490 C   0  0  2  0  0  3  0  0  0  0  0  0
  161.3120  210.0650  152.5560 C   0  0  1  0  0  3  0  0  0  0  0  0
  160.4640  213.0680  150.4860 C   0  0  0  0  0  3  0  0  0  0  0  0
  161.7400  212.3690  148.5250 C   0  0  0  0  0  3  0  0  0  0  0  0
  159.0300  211.0860  152.4550 N   0  0  0  0  0  1  0  0  0  0  0  0
  161.6320  210.9630  150.4650 C   0  0  0  0  0  0  0  0  0  0  0  0
  161.7550  206.9880  151.5570 C   0  0  1  0  0  3  0  0  0  0  0  0
  161.8170  205.5360  151.6360 N   0  0  0  0  0  2  0  0  0  0  0  0
  161.4020  205.0590  150.3240 C   0  0  2  0  0  3  0  0  0  0  0  0
  160.7540  207.3670  150.4820 C   0  0  0  0  0  2  0  0  0  0  0  0
  160.4280  206.0790  149.7690 C   0  0  0  0  0  2  0  0  0  0  0  0
  161.3510  202.8680  151.5760 C   0  0  0  0  0  1  0  0  0  0  0  0
  160.7530  203.6750  150.4320 C   0  0  2  0  0  3  0  0  0  0  0  0
  160.8350  202.8850  149.1230 C   0  0  0  0  0  2  0  0  0  0  0  0
  160.7130  201.3810  149.3410 C   0  0  0  0  0  2  0  0  0  0  0  0
  161.3260  200.6290  148.1740 C   0  0  0  0  0  2  0  0  0  0  0  0
  160.9240  201.2430  146.9210 N   0  0  0  0  0  1  0  0  0  0  0  0
  1  5  1  1  0  0  0
  1  4  1  0  0  0  0
  2  3  1  0  0  0  0
  4  3  1  0  0  0  0
  4  6  2  0  0  0  0
  5  2  2  0  0  0  0
  8 13  1  0  0  0  0
  9 16  2  0  0  0  0
 10 11  1  0  0  0  0
 11 15  1  6  0  0  0
 11 12  1  0  0  0  0
 12  7  1  6  0  0  0
 12  1  1  0  0  0  0
 13 10  2  0  0  0  0
 14  9  1  0  0  0  0
 14  8  2  0  0  0  0
 16 10  1  0  0  0  0
 16  7  1  0  0  0  0
 17 18  1  0  0  0  0
 17  5  1  1  0  0  0
 19 23  1  1  0  0  0
 19 18  1  0  0  0  0
 20 17  1  0  0  0  0
 21 19  1  0  0  0  0
 21 20  1  0  0  0  0
 23 22  1  1  0  0  0
 24 25  1  0  0  0  0
 24 23  1  0  0  0  0
 26 25  1  0  0  0  0
 27 26  1  0  0  0  0
M  END
>  <MODEL>
2

>  <REMARK>
 VINA RESULT:      -6.8      2.300      4.226
  Name = 
  6 active torsions:
  status: ('A' for Active; 'I' for Inactive)
    1  A    between atoms: C_1  and  C_10
    2  A    between atoms: C_2  and  C_22
    3  A    between atoms: C_3  and  C_26
    4  A    between atoms: C_11  and  C_21
    5  A    between atoms: C_11  and  C_26
    6  A    between atoms: C_14  and  C_21
                            x       y       z     vdW  Elec       q    Type
                         _______ _______ _______ _____ _____    ______ ____

>  <TORSDO>
F 6

$$$$
=
 OpenBabel11072413173D

 27 30  0  0  1  0  0  0  0  0999 V2000
  161.8800  208.3630  151.5260 C   0  0  2  0  0  3  0  0  0  0  0  0
  161.2430  207.9090  149.3080 C   0  0  0  0  0  3  0  0  0  0  0  0
  161.7710  209.2270  149.2640 N   0  0  0  0  0  0  0  0  0  0  0  0
  162.1740  209.4910  150.5960 C   0  0  0  0  0  0  0  0  0  0  0  0
  161.2920  207.3980  150.5360 C   0  0  1  0  0  3  0  0  0  0  0  0
  162.7380  210.5640  150.9340 O   0  0  0  0  0  0  0  0  0  0  0  0
  160.4300  207.7130  153.4050 O   0  0  0  0  0  0  0  0  0  0  0  0
  160.5160  209.2620  157.2390 C   0  0  0  0  0  3  0  0  0  0  0  0
  159.9810  207.3550  155.8120 C   0  0  0  0  0  3  0  0  0  0  0  0
  160.8790  209.3860  154.8660 C   0  0  0  0  0  0  0  0  0  0  0  0
  161.3050  209.9280  153.5490 C   0  0  2  0  0  3  0  0  0  0  0  0
  160.8420  208.8000  152.5730 C   0  0  1  0  0  3  0  0  0  0  0  0
  160.9470  209.9950  156.1200 C   0  0  0  0  0  3  0  0  0  0  0  0
  160.0360  207.9460  157.0850 C   0  0  0  0  0  3  0  0  0  0  0  0
  162.7540  210.0840  153.5520 N   0  0  0  0  0  1  0  0  0  0  0  0
  160.4120  208.1100  154.7220 C   0  0  0  0  0  0  0  0  0  0  0  0
  160.8540  206.0080  150.8800 C   0  0  1  0  0  3  0  0  0  0  0  0
  160.6070  205.2330  149.6720 N   0  0  0  0  0  2  0  0  0  0  0  0
  160.9640  203.8630  150.0120 C   0  0  2  0  0  3  0  0  0  0  0  0
  161.9000  205.2850  151.7080 C   0  0  0  0  0  2  0  0  0  0  0  0
  162.0620  203.9350  151.0540 C   0  0  0  0  0  2  0  0  0  0  0  0
  161.5660  204.0270  147.5670 C   0  0  0  0  0  1  0  0  0  0  0  0
  161.4310  203.1010  148.7670 C   0  0  2  0  0  3  0  0  0  0  0  0
  160.5190  201.9190  148.4280 C   0  0  0  0  0  2  0  0  0  0  0  0
  161.2660  200.5890  148.4220 C   0  0  0  0  0  2  0  0  0  0  0  0
  161.4710  200.1060  146.9990 C   0  0  0  0  0  2  0  0  0  0  0  0
  160.6620  200.8940  146.0860 N   0  0  0  0  0  1  0  0  0  0  0  0
  1  4  1  6  0  0  0
  1 12  1  0  0  0  0
  3  2  2  0  0  0  0
  3  4  1  0  0  0  0
  4  6  2  0  0  0  0
  5  2  1  6  0  0  0
  5 17  1  0  0  0  0
  5  1  1  0  0  0  0
  7 16  1  0  0  0  0
  9 14  2  0  0  0  0
 10 13  1  0  0  0  0
 11 15  1  1  0  0  0
 11 10  1  0  0  0  0
 12  7  1  1  0  0  0
 12 11  1  0  0  0  0
 13  8  2  0  0  0  0
 14  8  1  0  0  0  0
 16 10  2  0  0  0  0
 16  9  1  0  0  0  0
 17 20  1  6  0  0  0
 18 19  1  0  0  0  0
 18 17  1  0  0  0  0
 19 23  1  6  0  0  0
 19 21  1  0  0  0  0
 21 20  1  0  0  0  0
 23 22  1  6  0  0  0
 24 23  1  0  0  0  0
 25 24  1  0  0  0  0
 26 25  1  0  0  0  0
 27 26  1  0  0  0  0
M  END
>  <MODEL>
3

>  <REMARK>
 VINA RESULT:      -6.6      1.179      1.514
  Name = 
  6 active torsions:
  status: ('A' for Active; 'I' for Inactive)
    1  A    between atoms: C_1  and  C_10
    2  A    between atoms: C_2  and  C_22
    3  A    between atoms: C_3  and  C_26
    4  A    between atoms: C_11  and  C_21
    5  A    between atoms: C_11  and  C_26
    6  A    between atoms: C_14  and  C_21
                            x       y       z     vdW  Elec       q    Type
                         _______ _______ _______ _____ _____    ______ ____

>  <TORSDO>
F 6

$$$$
=
 OpenBabel11072413173D

 27 30  0  0  1  0  0  0  0  0999 V2000
  161.3080  207.9230  150.6960 C   0  0  2  0  0  3  0  0  0  0  0  0
  162.5270  209.7060  151.6270 C   0  0  0  0  0  3  0  0  0  0  0  0
  162.4660  210.0030  150.2390 N   0  0  0  0  0  0  0  0  0  0  0  0
  161.7130  208.9390  149.6830 C   0  0  0  0  0  0  0  0  0  0  0  0
  161.8950  208.5710  151.9170 C   0  0  1  0  0  3  0  0  0  0  0  0
  161.4110  208.8880  148.4610 O   0  0  0  0  0  0  0  0  0  0  0  0
  161.9100  205.6760  151.4980 O   0  0  0  0  0  0  0  0  0  0  0  0
  160.7780  202.0700  149.8190 C   0  0  0  0  0  3  0  0  0  0  0  0
  161.4510  203.2680  151.8360 C   0  0  0  0  0  3  0  0  0  0  0  0
  161.2660  204.4210  149.7240 C   0  0  0  0  0  0  0  0  0  0  0  0
  161.4060  205.7930  149.1700 C   0  0  2  0  0  3  0  0  0  0  0  0
  161.9850  206.5760  150.3910 C   0  0  1  0  0  3  0  0  0  0  0  0
  160.8760  203.2530  149.0670 C   0  0  0  0  0  3  0  0  0  0  0  0
  161.0630  202.0780  151.1980 C   0  0  0  0  0  3  0  0  0  0  0  0
  160.0870  206.2800  148.7860 N   0  0  0  0  0  1  0  0  0  0  0  0
  161.5430  204.4240  151.0620 C   0  0  0  0  0  0  0  0  0  0  0  0
  161.7470  208.0280  153.3050 C   0  0  1  0  0  3  0  0  0  0  0  0
  161.9840  209.0730  154.2920 N   0  0  0  0  0  2  0  0  0  0  0  0
  161.1180  208.7450  155.4160 C   0  0  2  0  0  3  0  0  0  0  0  0
  160.3600  207.4590  153.5340 C   0  0  0  0  0  2  0  0  0  0  0  0
  159.9040  208.0370  154.8500 C   0  0  0  0  0  2  0  0  0  0  0  0
  159.2140  210.0640  156.4200 C   0  0  0  0  0  1  0  0  0  0  0  0
  160.7160  210.0140  156.1760 C   0  0  2  0  0  3  0  0  0  0  0  0
  161.1840  211.2910  155.4730 C   0  0  0  0  0  2  0  0  0  0  0  0
  160.0280  212.0790  154.8660 C   0  0  0  0  0  2  0  0  0  0  0  0
  160.0920  212.0240  153.3510 C   0  0  0  0  0  2  0  0  0  0  0  0
  159.2380  210.9590  152.8560 N   0  0  0  0  0  1  0  0  0  0  0  0
  1  4  1  6  0  0  0
  1  5  1  0  0  0  0
  3  2  2  0  0  0  0
  4  3  1  0  0  0  0
  5  2  1  1  0  0  0
  5 17  1  0  0  0  0
  6  4  2  0  0  0  0
  8 14  1  0  0  0  0
 10 16  2  0  0  0  0
 11 15  1  1  0  0  0
 11 10  1  0  0  0  0
 11 12  1  0  0  0  0
 12  1  1  0  0  0  0
 12  7  1  1  0  0  0
 13 10  1  0  0  0  0
 13  8  2  0  0  0  0
 14  9  2  0  0  0  0
 16  7  1  0  0  0  0
 16  9  1  0  0  0  0
 17 20  1  6  0  0  0
 17 18  1  0  0  0  0
 18 19  1  0  0  0  0
 19 23  1  6  0  0  0
 20 21  1  0  0  0  0
 21 19  1  0  0  0  0
 23 22  1  6  0  0  0
 24 23  1  0  0  0  0
 25 24  1  0  0  0  0
 26 25  1  0  0  0  0
 27 26  1  0  0  0  0
M  END
>  <MODEL>
4

>  <REMARK>
 VINA RESULT:      -6.5      1.942      7.414
  Name = 
  6 active torsions:
  status: ('A' for Active; 'I' for Inactive)
    1  A    between atoms: C_1  and  C_10
    2  A    between atoms: C_2  and  C_22
    3  A    between atoms: C_3  and  C_26
    4  A    between atoms: C_11  and  C_21
    5  A    between atoms: C_11  and  C_26
    6  A    between atoms: C_14  and  C_21
                            x       y       z     vdW  Elec       q    Type
                         _______ _______ _______ _____ _____    ______ ____

>  <TORSDO>
F 6

$$$$
=
 OpenBabel11072413173D

 27 30  0  0  1  0  0  0  0  0999 V2000
  160.4350  211.9660  154.0210 C   0  0  2  0  0  3  0  0  0  0  0  0
  159.4700  211.3440  151.9690 C   0  0  0  0  0  3  0  0  0  0  0  0
  158.6690  212.4240  152.4260 N   0  0  0  0  0  0  0  0  0  0  0  0
  159.2640  212.8120  153.6510 C   0  0  0  0  0  0  0  0  0  0  0  0
  160.4570  211.0670  152.8190 C   0  0  1  0  0  3  0  0  0  0  0  0
  158.8450  213.7850  154.3310 O   0  0  0  0  0  0  0  0  0  0  0  0
  159.3630  210.0050  155.0500 O   0  0  0  0  0  0  0  0  0  0  0  0
  161.2270  207.0480  157.2610 C   0  0  0  0  0  3  0  0  0  0  0  0
  159.3580  207.6500  155.8110 C   0  0  0  0  0  3  0  0  0  0  0  0
  161.0350  209.2830  156.3980 C   0  0  0  0  0  0  0  0  0  0  0  0
  161.3820  210.7000  156.1130 C   0  0  2  0  0  3  0  0  0  0  0  0
  160.1320  211.1810  155.3080 C   0  0  1  0  0  3  0  0  0  0  0  0
  161.7360  208.3550  157.1690 C   0  0  0  0  0  3  0  0  0  0  0  0
  160.0430  206.6970  156.5830 C   0  0  0  0  0  3  0  0  0  0  0  0
  162.5950  210.7340  155.3060 N   0  0  0  0  0  1  0  0  0  0  0  0
  159.8870  208.9380  155.7430 C   0  0  0  0  0  0  0  0  0  0  0  0
  161.4930  210.0120  152.5800 C   0  0  1  0  0  3  0  0  0  0  0  0
  160.8890  208.6870  152.5950 N   0  0  0  0  0  2  0  0  0  0  0  0
  161.6690  207.8970  151.6530 C   0  0  2  0  0  3  0  0  0  0  0  0
  162.1870  210.2070  151.2460 C   0  0  0  0  0  2  0  0  0  0  0  0
  162.1790  208.8500  150.5900 C   0  0  0  0  0  2  0  0  0  0  0  0
  161.2220  205.4150  151.5480 C   0  0  0  0  0  1  0  0  0  0  0  0
  160.8090  206.7880  151.0360 C   0  0  2  0  0  3  0  0  0  0  0  0
  160.8290  206.8140  149.5050 C   0  0  0  0  0  2  0  0  0  0  0  0
  160.7830  205.4150  148.8980 C   0  0  0  0  0  2  0  0  0  0  0  0
  161.4280  205.4160  147.5250 C   0  0  0  0  0  2  0  0  0  0  0  0
  162.3630  206.5220  147.4160 N   0  0  0  0  0  1  0  0  0  0  0  0
  1  4  1  6  0  0  0
  1 12  1  0  0  0  0
  2  3  2  0  0  0  0
  3  4  1  0  0  0  0
  4  6  2  0  0  0  0
  5  2  1  6  0  0  0
  5  1  1  0  0  0  0
  7 16  1  0  0  0  0
  9 14  1  0  0  0  0
 10 13  2  0  0  0  0
 11 15  1  6  0  0  0
 11 10  1  0  0  0  0
 12  7  1  6  0  0  0
 12 11  1  0  0  0  0
 13  8  1  0  0  0  0
 14  8  2  0  0  0  0
 16  9  2  0  0  0  0
 16 10  1  0  0  0  0
 17 20  1  6  0  0  0
 17 18  1  0  0  0  0
 17  5  1  0  0  0  0
 19 23  1  6  0  0  0
 19 18  1  0  0  0  0
 21 20  1  0  0  0  0
 21 19  1  0  0  0  0
 23 22  1  6  0  0  0
 24 23  1  0  0  0  0
 25 24  1  0  0  0  0
 26 25  1  0  0  0  0
 27 26  1  0  0  0  0
M  END
>  <MODEL>
5

>  <REMARK>
 VINA RESULT:      -6.3      2.834      4.670
  Name = 
  6 active torsions:
  status: ('A' for Active; 'I' for Inactive)
    1  A    between atoms: C_1  and  C_10
    2  A    between atoms: C_2  and  C_22
    3  A    between atoms: C_3  and  C_26
    4  A    between atoms: C_11  and  C_21
    5  A    between atoms: C_11  and  C_26
    6  A    between atoms: C_14  and  C_21
                            x       y       z     vdW  Elec       q    Type
                         _______ _______ _______ _____ _____    ______ ____

>  <TORSDO>
F 6

$$$$
=
 OpenBabel11072413173D

 27 30  0  0  1  0  0  0  0  0999 V2000
  161.0880  208.0860  151.7650 C   0  0  2  0  0  3  0  0  0  0  0  0
  162.4400  206.1660  151.6360 C   0  0  0  0  0  3  0  0  0  0  0  0
  162.2040  206.3420  153.0250 N   0  0  0  0  0  2  0  0  0  0  0  0
  161.3720  207.4870  153.1000 C   0  0  0  0  0  0  0  0  0  0  0  0
  161.8360  207.1040  150.9090 C   0  0  0  0  0  0  0  0  0  0  0  0
  160.9140  207.9230  154.1890 O   0  0  0  0  0  0  0  0  0  0  0  0
  162.0060  209.8630  150.3310 O   0  0  0  0  0  0  0  0  0  0  0  0
  160.5870  213.7320  149.9800 C   0  0  0  0  0  3  0  0  0  0  0  0
  161.7820  211.8850  148.9230 C   0  0  0  0  0  3  0  0  0  0  0  0
  160.9160  211.6670  151.1650 C   0  0  0  0  0  0  0  0  0  0  0  0
  160.8190  210.6500  152.2450 C   0  0  2  0  0  3  0  0  0  0  0  0
  161.7030  209.4930  151.6780 C   0  0  1  0  0  3  0  0  0  0  0  0
  160.4000  212.9630  151.1420 C   0  0  0  0  0  3  0  0  0  0  0  0
  161.2750  213.1940  148.8750 C   0  0  0  0  0  3  0  0  0  0  0  0
  159.4250  210.2500  152.3880 N   0  0  0  0  0  1  0  0  0  0  0  0
  161.5830  211.1500  150.0900 C   0  0  0  0  0  0  0  0  0  0  0  0
  161.8620  207.1480  149.4130 C   0  0  1  0  0  3  0  0  0  0  0  0
  162.5580  205.9860  148.8780 N   0  0  0  0  0  2  0  0  0  0  0  0
  161.9020  205.6920  147.6110 C   0  0  2  0  0  3  0  0  0  0  0  0
  160.4600  207.1750  148.8330 C   0  0  0  0  0  2  0  0  0  0  0  0
  160.4570  206.1290  147.7470 C   0  0  0  0  0  2  0  0  0  0  0  0
  161.5780  203.9120  145.8510 C   0  0  0  0  0  1  0  0  0  0  0  0
  162.0000  204.1980  147.2850 C   0  0  2  0  0  3  0  0  0  0  0  0
  161.1970  203.3310  148.2590 C   0  0  0  0  0  2  0  0  0  0  0  0
  161.0700  201.8870  147.7850 C   0  0  0  0  0  2  0  0  0  0  0  0
  161.2050  200.9340  148.9580 C   0  0  0  0  0  2  0  0  0  0  0  0
  160.5540  201.4930  150.1300 N   0  0  0  0  0  1  0  0  0  0  0  0
  1  5  1  6  0  0  0
  1  4  1  0  0  0  0
  2  3  1  0  0  0  0
  3  4  1  0  0  0  0
  4  6  2  0  0  0  0
  5  2  2  0  0  0  0
  8 13  1  0  0  0  0
  9 16  2  0  0  0  0
 10 11  1  0  0  0  0
 11 15  1  6  0  0  0
 12  7  1  6  0  0  0
 12  1  1  0  0  0  0
 12 11  1  0  0  0  0
 13 10  2  0  0  0  0
 14  9  1  0  0  0  0
 14  8  2  0  0  0  0
 16  7  1  0  0  0  0
 16 10  1  0  0  0  0
 17  5  1  1  0  0  0
 18 17  1  0  0  0  0
 19 23  1  1  0  0  0
 19 21  1  0  0  0  0
 19 18  1  0  0  0  0
 20 17  1  0  0  0  0
 21 20  1  0  0  0  0
 23 22  1  6  0  0  0
 23 24  1  0  0  0  0
 25 24  1  0  0  0  0
 25 26  1  0  0  0  0
 26 27  1  0  0  0  0
M  END
>  <MODEL>
6

>  <REMARK>
 VINA RESULT:      -6.2      2.318      4.254
  Name = 
  6 active torsions:
  status: ('A' for Active; 'I' for Inactive)
    1  A    between atoms: C_1  and  C_10
    2  A    between atoms: C_2  and  C_22
    3  A    between atoms: C_3  and  C_26
    4  A    between atoms: C_11  and  C_21
    5  A    between atoms: C_11  and  C_26
    6  A    between atoms: C_14  and  C_21
                            x       y       z     vdW  Elec       q    Type
                         _______ _______ _______ _____ _____    ______ ____

>  <TORSDO>
F 6

$$$$
=
 OpenBabel11072413173D

 27 30  0  0  1  0  0  0  0  0999 V2000
  162.0310  209.1030  150.5280 C   0  0  2  0  0  3  0  0  0  0  0  0
  161.3000  211.3140  150.8540 C   0  0  0  0  0  3  0  0  0  0  0  0
  161.1110  210.6880  152.1140 N   0  0  0  0  0  2  0  0  0  0  0  0
  161.5710  209.3620  151.9230 C   0  0  0  0  0  0  0  0  0  0  0  0
  161.8110  210.4740  149.9560 C   0  0  0  0  0  0  0  0  0  0  0  0
  161.6000  208.5130  152.8520 O   0  0  0  0  0  0  0  0  0  0  0  0
  161.3570  207.9650  148.4520 O   0  0  0  0  0  0  0  0  0  0  0  0
  161.5090  203.9010  147.7030 C   0  0  0  0  0  3  0  0  0  0  0  0
  161.5540  206.1580  146.7740 C   0  0  0  0  0  3  0  0  0  0  0  0
  161.3390  205.8110  149.1530 C   0  0  0  0  0  0  0  0  0  0  0  0
  161.2490  206.6030  150.4070 C   0  0  2  0  0  3  0  0  0  0  0  0
  161.1200  208.0600  149.8590 C   0  0  1  0  0  3  0  0  0  0  0  0
  161.3820  204.4240  149.0010 C   0  0  0  0  0  3  0  0  0  0  0  0
  161.5960  204.7660  146.5940 C   0  0  0  0  0  3  0  0  0  0  0  0
  162.4770  206.4150  151.1700 N   0  0  0  0  0  1  0  0  0  0  0  0
  161.4230  206.6450  148.0740 C   0  0  0  0  0  0  0  0  0  0  0  0
  162.1670  210.8640  148.5550 C   0  0  1  0  0  3  0  0  0  0  0  0
  161.0050  211.4000  147.8610 N   0  0  0  0  0  2  0  0  0  0  0  0
  161.5310  212.3990  146.9410 C   0  0  2  0  0  3  0  0  0  0  0  0
  163.2650  211.9110  148.5320 C   0  0  0  0  0  2  0  0  0  0  0  0
  162.7810  212.9740  147.5770 C   0  0  0  0  0  2  0  0  0  0  0  0
  159.2180  213.2540  147.4760 C   0  0  0  0  0  1  0  0  0  0  0  0
  160.4910  213.4930  146.6770 C   0  0  2  0  0  3  0  0  0  0  0  0
  160.1650  213.6440  145.1880 C   0  0  0  0  0  2  0  0  0  0  0  0
  159.4260  212.4330  144.6270 C   0  0  0  0  0  2  0  0  0  0  0  0
  160.1520  211.8910  143.4110 C   0  0  0  0  0  2  0  0  0  0  0  0
  161.4550  212.5210  143.2870 N   0  0  0  0  0  1  0  0  0  0  0  0
  1  5  1  6  0  0  0
  1  4  1  0  0  0  0
  2  3  1  0  0  0  0
  4  3  1  0  0  0  0
  4  6  2  0  0  0  0
  5  2  2  0  0  0  0
  8 13  1  0  0  0  0
  9 16  2  0  0  0  0
 10 11  1  0  0  0  0
 11 15  1  1  0  0  0
 12  7  1  6  0  0  0
 12 11  1  0  0  0  0
 12  1  1  0  0  0  0
 13 10  2  0  0  0  0
 14  9  1  0  0  0  0
 14  8  2  0  0  0  0
 16  7  1  0  0  0  0
 16 10  1  0  0  0  0
 17  5  1  1  0  0  0
 18 17  1  0  0  0  0
 19 23  1  1  0  0  0
 19 21  1  0  0  0  0
 19 18  1  0  0  0  0
 20 17  1  0  0  0  0
 21 20  1  0  0  0  0
 23 22  1  1  0  0  0
 24 23  1  0  0  0  0
 25 24  1  0  0  0  0
 26 25  1  0  0  0  0
 27 26  1  0  0  0  0
M  END
>  <MODEL>
7

>  <REMARK>
 VINA RESULT:      -6.2      3.675      8.017
  Name = 
  6 active torsions:
  status: ('A' for Active; 'I' for Inactive)
    1  A    between atoms: C_1  and  C_10
    2  A    between atoms: C_2  and  C_22
    3  A    between atoms: C_3  and  C_26
    4  A    between atoms: C_11  and  C_21
    5  A    between atoms: C_11  and  C_26
    6  A    between atoms: C_14  and  C_21
                            x       y       z     vdW  Elec       q    Type
                         _______ _______ _______ _____ _____    ______ ____

>  <TORSDO>
F 6

$$$$
=
 OpenBabel11072413173D

 27 30  0  0  1  0  0  0  0  0999 V2000
  161.2200  208.4270  150.3970 C   0  0  2  0  0  3  0  0  0  0  0  0
  162.0690  210.3200  151.5050 C   0  0  0  0  0  3  0  0  0  0  0  0
  162.5150  210.4620  150.1640 N   0  0  0  0  0  0  0  0  0  0  0  0
  161.9850  209.3330  149.4930 C   0  0  0  0  0  0  0  0  0  0  0  0
  161.3470  209.2130  151.6710 C   0  0  1  0  0  3  0  0  0  0  0  0
  162.1380  209.1440  148.2580 O   0  0  0  0  0  0  0  0  0  0  0  0
  161.6200  206.3940  151.7250 O   0  0  0  0  0  0  0  0  0  0  0  0
  160.8040  202.5020  150.5870 C   0  0  0  0  0  3  0  0  0  0  0  0
  161.0730  204.0840  152.4260 C   0  0  0  0  0  3  0  0  0  0  0  0
  161.3310  204.8040  150.1360 C   0  0  0  0  0  0  0  0  0  0  0  0
  161.5960  206.0460  149.3650 C   0  0  2  0  0  3  0  0  0  0  0  0
  161.9270  207.0660  150.5010 C   0  0  1  0  0  3  0  0  0  0  0  0
  161.0660  203.5210  149.6550 C   0  0  0  0  0  3  0  0  0  0  0  0
  160.8070  202.7840  151.9670 C   0  0  0  0  0  3  0  0  0  0  0  0
  160.3880  206.4140  148.6390 N   0  0  0  0  0  1  0  0  0  0  0  0
  161.3330  205.0720  151.4760 C   0  0  0  0  0  0  0  0  0  0  0  0
  160.7010  208.8230  152.9640 C   0  0  1  0  0  3  0  0  0  0  0  0
  161.6380  208.9650  154.0690 N   0  0  0  0  0  2  0  0  0  0  0  0
  160.8260  209.3390  155.2190 C   0  0  2  0  0  3  0  0  0  0  0  0
  159.4820  209.6790  153.2560 C   0  0  0  0  0  2  0  0  0  0  0  0
  159.6400  210.1210  154.6890 C   0  0  0  0  0  2  0  0  0  0  0  0
  162.7090  209.3370  156.8980 C   0  0  0  0  0  1  0  0  0  0  0  0
  161.6430  210.1760  156.2090 C   0  0  2  0  0  3  0  0  0  0  0  0
  160.7640  210.8780  157.2480 C   0  0  0  0  0  2  0  0  0  0  0  0
  160.9580  212.3910  157.2480 C   0  0  0  0  0  2  0  0  0  0  0  0
  159.6140  213.0940  157.2610 C   0  0  0  0  0  2  0  0  0  0  0  0
  158.5420  212.1170  157.1870 N   0  0  0  0  0  1  0  0  0  0  0  0
  1  4  1  6  0  0  0
  1 12  1  0  0  0  0
  1  5  1  0  0  0  0
  3  2  2  0  0  0  0
  4  3  1  0  0  0  0
  5  2  1  6  0  0  0
  5 17  1  0  0  0  0
  6  4  2  0  0  0  0
  8 14  1  0  0  0  0
 10 16  2  0  0  0  0
 11 15  1  1  0  0  0
 11 10  1  0  0  0  0
 11 12  1  0  0  0  0
 12  7  1  1  0  0  0
 13 10  1  0  0  0  0
 13  8  2  0  0  0  0
 14  9  2  0  0  0  0
 16  7  1  0  0  0  0
 16  9  1  0  0  0  0
 17 20  1  1  0  0  0
 17 18  1  0  0  0  0
 18 19  1  0  0  0  0
 19 23  1  1  0  0  0
 20 21  1  0  0  0  0
 21 19  1  0  0  0  0
 23 22  1  1  0  0  0
 23 24  1  0  0  0  0
 24 25  1  0  0  0  0
 25 26  1  0  0  0  0
 27 26  1  0  0  0  0
M  END
>  <MODEL>
8

>  <REMARK>
 VINA RESULT:      -6.0      2.084      7.997
  Name = 
  6 active torsions:
  status: ('A' for Active; 'I' for Inactive)
    1  A    between atoms: C_1  and  C_10
    2  A    between atoms: C_2  and  C_22
    3  A    between atoms: C_3  and  C_26
    4  A    between atoms: C_11  and  C_21
    5  A    between atoms: C_11  and  C_26
    6  A    between atoms: C_14  and  C_21
                            x       y       z     vdW  Elec       q    Type
                         _______ _______ _______ _____ _____    ______ ____

>  <TORSDO>
F 6

$$$$
=
 OpenBabel11072413173D

 27 30  0  0  1  0  0  0  0  0999 V2000
  160.7920  205.1100  151.1460 C   0  0  2  0  0  3  0  0  0  0  0  0
  161.6150  203.6200  149.5230 C   0  0  0  0  0  3  0  0  0  0  0  0
  161.3550  202.8040  150.6550 N   0  0  0  0  0  2  0  0  0  0  0  0
  160.8390  203.6990  151.6250 C   0  0  0  0  0  0  0  0  0  0  0  0
  161.3110  204.8960  149.7530 C   0  0  0  0  0  0  0  0  0  0  0  0
  160.4470  203.3180  152.7600 O   0  0  0  0  0  0  0  0  0  0  0  0
  161.8830  207.2970  151.4350 O   0  0  0  0  0  0  0  0  0  0  0  0
  161.5680  209.7990  154.7120 C   0  0  0  0  0  3  0  0  0  0  0  0
  161.9730  209.6080  152.3130 C   0  0  0  0  0  3  0  0  0  0  0  0
  161.5210  207.6460  153.6440 C   0  0  0  0  0  0  0  0  0  0  0  0
  161.3480  206.1800  153.4740 C   0  0  2  0  0  3  0  0  0  0  0  0
  161.7480  205.9810  151.9770 C   0  0  1  0  0  3  0  0  0  0  0  0
  161.3950  208.4080  154.8070 C   0  0  0  0  0  3  0  0  0  0  0  0
  161.8550  210.3970  153.4690 C   0  0  0  0  0  3  0  0  0  0  0  0
  159.9520  205.8410  153.7140 N   0  0  0  0  0  1  0  0  0  0  0  0
  161.8000  208.2310  152.4410 C   0  0  0  0  0  0  0  0  0  0  0  0
  161.4310  205.9810  148.7280 C   0  0  1  0  0  3  0  0  0  0  0  0
  162.3280  205.5760  147.6550 N   0  0  0  0  0  2  0  0  0  0  0  0
  161.8110  206.2200  146.4550 C   0  0  2  0  0  3  0  0  0  0  0  0
  160.0830  206.3230  148.1210 C   0  0  0  0  0  2  0  0  0  0  0  0
  160.3110  206.3460  146.6310 C   0  0  0  0  0  2  0  0  0  0  0  0
  161.2090  205.7060  144.0590 C   0  0  0  0  0  1  0  0  0  0  0  0
  162.1560  205.3970  145.2090 C   0  0  2  0  0  3  0  0  0  0  0  0
  162.1810  203.8920  145.4890 C   0  0  0  0  0  2  0  0  0  0  0  0
  160.8290  203.2310  145.2410 C   0  0  0  0  0  2  0  0  0  0  0  0
  160.8300  201.8120  145.7800 C   0  0  0  0  0  2  0  0  0  0  0  0
  160.0810  200.9430  144.8900 N   0  0  0  0  0  1  0  0  0  0  0  0
  1  5  1  6  0  0  0
  1  4  1  0  0  0  0
  1 12  1  0  0  0  0
  2  5  2  0  0  0  0
  2  3  1  0  0  0  0
  3  4  1  0  0  0  0
  4  6  2  0  0  0  0
  7 16  1  0  0  0  0
  8 13  1  0  0  0  0
  9 16  2  0  0  0  0
  9 14  1  0  0  0  0
 10 13  2  0  0  0  0
 11 10  1  0  0  0  0
 11 15  1  6  0  0  0
 12  7  1  6  0  0  0
 12 11  1  0  0  0  0
 14  8  2  0  0  0  0
 16 10  1  0  0  0  0
 17  5  1  1  0  0  0
 18 17  1  0  0  0  0
 19 23  1  6  0  0  0
 19 21  1  0  0  0  0
 19 18  1  0  0  0  0
 20 17  1  0  0  0  0
 21 20  1  0  0  0  0
 23 22  1  6  0  0  0
 23 24  1  0  0  0  0
 25 24  1  0  0  0  0
 25 26  1  0  0  0  0
 27 26  1  0  0  0  0
M  END
>  <MODEL>
9

>  <REMARK>
 VINA RESULT:      -5.9      2.134      4.127
  Name = 
  6 active torsions:
  status: ('A' for Active; 'I' for Inactive)
    1  A    between atoms: C_1  and  C_10
    2  A    between atoms: C_2  and  C_22
    3  A    between atoms: C_3  and  C_26
    4  A    between atoms: C_11  and  C_21
    5  A    between atoms: C_11  and  C_26
    6  A    between atoms: C_14  and  C_21
                            x       y       z     vdW  Elec       q    Type
                         _______ _______ _______ _____ _____    ______ ____

>  <TORSDO>
F 6

$$$$
