=
 OpenBabel11072415233D

 25 30  0  0  1  0  0  0  0  0999 V2000
  160.8480  209.0650  151.9690 C   0  0  0  0  0  0  0  0  0  0  0  0
  161.2400  207.9560  152.5520 N   0  0  0  0  0  0  0  0  0  0  0  0
  160.9940  206.9770  154.8570 C   0  0  0  0  0  2  0  0  0  0  0  0
  159.5090  209.7110  155.1760 C   0  0  0  0  0  3  0  0  0  0  0  0
  162.3750  210.4590  150.6530 C   0  0  0  0  0  1  0  0  0  0  0  0
  162.1910  207.1960  151.7830 C   0  0  2  0  0  3  0  0  0  0  0  0
  160.1680  209.9060  152.7790 N   0  0  0  0  0  0  0  0  0  0  0  0
  159.8860  209.4020  156.3840 N   0  0  0  0  0  0  0  0  0  0  0  0
  162.2430  207.9670  150.4400 C   0  0  0  0  0  2  0  0  0  0  0  0
  160.1560  209.2220  153.9540 C   0  0  0  0  0  0  0  0  0  0  0  0
  161.4260  209.2750  150.6250 C   0  0  1  0  0  3  0  0  0  0  0  0
  160.8440  208.0330  153.8250 C   0  0  0  0  0  0  0  0  0  0  0  0
  160.9930  208.5800  156.8070 C   0  0  0  0  0  3  0  0  0  0  0  0
  161.5150  207.5440  156.1370 C   0  0  0  0  0  3  0  0  0  0  0  0
  160.8870  203.4630  150.0310 C   0  0  2  0  0  0  0  0  0  0  0  0
  162.5200  204.7560  151.5250 C   0  0  0  0  0  3  0  0  0  0  0  0
  160.3940  205.4340  151.4160 O   0  0  0  0  0  0  0  0  0  0  0  0
  160.9610  202.0550  148.0950 C   0  0  0  0  0  2  0  0  0  0  0  0
  161.7170  205.7960  151.5830 C   0  0  0  0  0  0  0  0  0  0  0  0
  160.6040  202.0470  149.5740 C   0  0  2  0  0  3  0  0  0  0  0  0
  159.1330  201.6960  149.7200 C   0  0  0  0  0  1  0  0  0  0  0  0
  161.3410  204.3400  148.8830 C   0  0  0  0  0  2  0  0  0  0  0  0
  161.7120  203.5030  151.3220 C   0  0  1  0  0  3  0  0  0  0  0  0
  161.7370  203.3400  147.8140 C   0  0  0  0  0  2  0  0  0  0  0  0
  160.2580  204.0200  151.3080 C   0  0  2  0  0  3  0  0  0  0  0  0
  1  2  1  0  0  0  0
  1  7  2  0  0  0  0
  2 12  1  0  0  0  0
  3 14  1  0  0  0  0
  4  8  2  0  0  0  0
  6 19  1  6  0  0  0
  6  2  1  0  0  0  0
  7 10  1  0  0  0  0
  8 13  1  0  0  0  0
  9 11  1  0  0  0  0
  9  6  1  0  0  0  0
 10  4  1  0  0  0  0
 11  5  1  1  0  0  0
 11  1  1  0  0  0  0
 12 10  2  0  0  0  0
 12  3  1  0  0  0  0
 14 13  2  0  0  0  0
 15 22  1  6  0  0  0
 15 25  1  0  0  0  0
 15 23  1  0  0  0  0
 16 19  2  0  0  0  0
 17 19  1  0  0  0  0
 18 20  1  0  0  0  0
 20 21  1  6  0  0  0
 20 15  1  0  0  0  0
 23 16  1  6  0  0  0
 24 18  1  0  0  0  0
 24 22  1  0  0  0  0
 25 23  1  0  0  0  0
 25 17  1  6  0  0  0
M  END
>  <MODEL>
1

>  <REMARK>
 VINA RESULT:      -7.5      0.000      0.000
  Name = 
  1 active torsions:
  status: ('A' for Active; 'I' for Inactive)
    1  A    between atoms: C_10  and  C_12
                            x       y       z     vdW  Elec       q    Type
                         _______ _______ _______ _____ _____    ______ ____

>  <TORSDO>
F 1

$$$$
=
 OpenBabel11072415233D

 25 30  0  0  1  0  0  0  0  0999 V2000
  160.7180  201.9320  147.1760 C   0  0  0  0  0  0  0  0  0  0  0  0
  161.2960  202.9320  147.8000 N   0  0  0  0  0  0  0  0  0  0  0  0
  161.9060  205.2960  147.1860 C   0  0  0  0  0  2  0  0  0  0  0  0
  160.6350  204.2650  144.5210 C   0  0  0  0  0  3  0  0  0  0  0  0
  161.6610  199.6700  147.1790 C   0  0  0  0  0  1  0  0  0  0  0  0
  161.9040  202.5660  149.0520 C   0  0  2  0  0  3  0  0  0  0  0  0
  160.3780  202.2000  145.8950 N   0  0  0  0  0  0  0  0  0  0  0  0
  161.4260  205.2330  144.1520 N   0  0  0  0  0  0  0  0  0  0  0  0
  161.4640  201.0920  149.2320 C   0  0  0  0  0  2  0  0  0  0  0  0
  160.7940  203.4860  145.7540 C   0  0  0  0  0  0  0  0  0  0  0  0
  160.7680  200.6530  147.9140 C   0  0  1  0  0  3  0  0  0  0  0  0
  161.3890  203.9300  146.9170 C   0  0  0  0  0  0  0  0  0  0  0  0
  162.6110  205.7330  144.8030 C   0  0  0  0  0  3  0  0  0  0  0  0
  162.8550  205.7340  146.1190 C   0  0  0  0  0  3  0  0  0  0  0  0
  161.2630  205.8080  151.8420 C   0  0  2  0  0  0  0  0  0  0  0  0
  160.3560  204.2230  150.0440 C   0  0  0  0  0  3  0  0  0  0  0  0
  161.9490  203.4850  151.4240 O   0  0  0  0  0  0  0  0  0  0  0  0
  161.4680  208.1650  152.2150 C   0  0  0  0  0  2  0  0  0  0  0  0
  161.3910  203.4210  150.1620 C   0  0  0  0  0  0  0  0  0  0  0  0
  160.7890  206.9170  152.7590 C   0  0  2  0  0  3  0  0  0  0  0  0
  161.2490  206.6940  154.1900 C   0  0  0  0  0  1  0  0  0  0  0  0
  162.2430  206.3200  150.8080 C   0  0  0  0  0  2  0  0  0  0  0  0
  160.1090  204.9290  151.3500 C   0  0  1  0  0  3  0  0  0  0  0  0
  162.0320  207.8220  150.8380 C   0  0  0  0  0  2  0  0  0  0  0  0
  161.1970  204.3440  152.2750 C   0  0  2  0  0  3  0  0  0  0  0  0
  1  2  1  0  0  0  0
  1 11  1  0  0  0  0
  2  6  1  0  0  0  0
  4 10  1  0  0  0  0
  6  9  1  0  0  0  0
  6 19  1  1  0  0  0
  7  1  2  0  0  0  0
  8  4  2  0  0  0  0
  8 13  1  0  0  0  0
 10  7  1  0  0  0  0
 10 12  2  0  0  0  0
 11  5  1  6  0  0  0
 11  9  1  0  0  0  0
 12  3  1  0  0  0  0
 12  2  1  0  0  0  0
 13 14  2  0  0  0  0
 14  3  1  0  0  0  0
 15 22  1  6  0  0  0
 15 25  1  0  0  0  0
 15 20  1  0  0  0  0
 16 19  2  0  0  0  0
 18 20  1  0  0  0  0
 19 17  1  0  0  0  0
 20 21  1  1  0  0  0
 22 24  1  0  0  0  0
 23 16  1  6  0  0  0
 23 15  1  0  0  0  0
 23 25  1  0  0  0  0
 24 18  1  0  0  0  0
 25 17  1  6  0  0  0
M  END
>  <MODEL>
2

>  <REMARK>
 VINA RESULT:      -7.5      3.539      7.829
  Name = 
  1 active torsions:
  status: ('A' for Active; 'I' for Inactive)
    1  A    between atoms: C_10  and  C_12
                            x       y       z     vdW  Elec       q    Type
                         _______ _______ _______ _____ _____    ______ ____

>  <TORSDO>
F 1

$$$$
=
 OpenBabel11072415233D

 25 30  0  0  1  0  0  0  0  0999 V2000
  160.6340  203.0990  149.4400 C   0  0  0  0  0  0  0  0  0  0  0  0
  161.4370  204.1350  149.3610 N   0  0  0  0  0  0  0  0  0  0  0  0
  162.4240  205.4800  147.4770 C   0  0  0  0  0  2  0  0  0  0  0  0
  160.7680  203.3350  145.9150 C   0  0  0  0  0  3  0  0  0  0  0  0
  161.1360  201.1600  150.8510 C   0  0  0  0  0  1  0  0  0  0  0  0
  162.0680  204.4810  150.6090 C   0  0  2  0  0  3  0  0  0  0  0  0
  160.2450  202.6080  148.2430 N   0  0  0  0  0  0  0  0  0  0  0  0
  161.6920  203.7080  145.0760 N   0  0  0  0  0  0  0  0  0  0  0  0
  161.3770  203.5320  151.6190 C   0  0  0  0  0  2  0  0  0  0  0  0
  160.8810  203.4380  147.3740 C   0  0  0  0  0  0  0  0  0  0  0  0
  160.5050  202.5390  150.8010 C   0  0  1  0  0  3  0  0  0  0  0  0
  161.6420  204.3610  148.0610 C   0  0  0  0  0  0  0  0  0  0  0  0
  162.9990  204.2520  145.3490 C   0  0  0  0  0  3  0  0  0  0  0  0
  163.3470  204.9930  146.4090 C   0  0  0  0  0  3  0  0  0  0  0  0
  160.9980  208.1310  152.6680 C   0  0  2  0  0  0  0  0  0  0  0  0
  162.7390  206.7190  151.4240 C   0  0  0  0  0  3  0  0  0  0  0  0
  160.5910  206.5390  150.8380 O   0  0  0  0  0  0  0  0  0  0  0  0
  160.7460  209.1980  154.7970 C   0  0  0  0  0  2  0  0  0  0  0  0
  161.8160  205.9100  150.9530 C   0  0  0  0  0  0  0  0  0  0  0  0
  160.8520  209.4950  153.3090 C   0  0  2  0  0  3  0  0  0  0  0  0
  159.5790  210.1920  152.8570 C   0  0  0  0  0  1  0  0  0  0  0  0
  160.9240  207.0210  153.6960 C   0  0  0  0  0  2  0  0  0  0  0  0
  162.1480  208.0840  151.6560 C   0  0  1  0  0  3  0  0  0  0  0  0
  161.1590  207.7430  155.0090 C   0  0  0  0  0  2  0  0  0  0  0  0
  160.6870  207.9170  151.1870 C   0  0  2  0  0  3  0  0  0  0  0  0
  1 11  1  0  0  0  0
  2  1  1  0  0  0  0
  2  6  1  0  0  0  0
  3 12  1  0  0  0  0
  4 10  1  0  0  0  0
  6 19  1  1  0  0  0
  6  9  1  0  0  0  0
  7  1  2  0  0  0  0
  8 13  1  0  0  0  0
  8  4  2  0  0  0  0
 10 12  2  0  0  0  0
 10  7  1  0  0  0  0
 11  5  1  6  0  0  0
 11  9  1  0  0  0  0
 12  2  1  0  0  0  0
 13 14  2  0  0  0  0
 14  3  1  0  0  0  0
 15 20  1  0  0  0  0
 15 22  1  1  0  0  0
 17 19  1  0  0  0  0
 18 24  1  0  0  0  0
 19 16  2  0  0  0  0
 20 21  1  6  0  0  0
 20 18  1  0  0  0  0
 22 24  1  0  0  0  0
 23 16  1  1  0  0  0
 23 15  1  0  0  0  0
 25 17  1  1  0  0  0
 25 23  1  0  0  0  0
 25 15  1  0  0  0  0
M  END
>  <MODEL>
3

>  <REMARK>
 VINA RESULT:      -7.2      2.777      7.642
  Name = 
  1 active torsions:
  status: ('A' for Active; 'I' for Inactive)
    1  A    between atoms: C_10  and  C_12
                            x       y       z     vdW  Elec       q    Type
                         _______ _______ _______ _____ _____    ______ ____

>  <TORSDO>
F 1

$$$$
=
 OpenBabel11072415233D

 25 30  0  0  1  0  0  0  0  0999 V2000
  160.5790  202.6290  149.0270 C   0  0  0  0  0  0  0  0  0  0  0  0
  161.3510  203.6840  149.1440 N   0  0  0  0  0  0  0  0  0  0  0  0
  162.3670  205.3310  147.5350 C   0  0  0  0  0  2  0  0  0  0  0  0
  160.8420  203.4140  145.5900 C   0  0  0  0  0  3  0  0  0  0  0  0
  161.0870  200.5070  150.1420 C   0  0  0  0  0  1  0  0  0  0  0  0
  161.9220  203.8470  150.4560 C   0  0  2  0  0  3  0  0  0  0  0  0
  160.2520  202.3200  147.7520 N   0  0  0  0  0  0  0  0  0  0  0  0
  161.7860  203.9370  144.8590 N   0  0  0  0  0  0  0  0  0  0  0  0
  161.2220  202.7350  151.2770 C   0  0  0  0  0  2  0  0  0  0  0  0
  160.8950  203.2920  147.0510 C   0  0  0  0  0  0  0  0  0  0  0  0
  160.4150  201.8610  150.2780 C   0  0  1  0  0  3  0  0  0  0  0  0
  161.5990  204.1150  147.9050 C   0  0  0  0  0  0  0  0  0  0  0  0
  163.0640  204.4650  145.2690 C   0  0  0  0  0  3  0  0  0  0  0  0
  163.3460  205.0390  146.4450 C   0  0  0  0  0  3  0  0  0  0  0  0
  161.7280  208.1160  151.1220 C   0  0  2  0  0  0  0  0  0  0  0  0
  160.5400  205.8880  150.6810 C   0  0  0  0  0  3  0  0  0  0  0  0
  162.4150  205.8860  151.8950 O   0  0  0  0  0  0  0  0  0  0  0  0
  161.9020  210.2840  150.1170 C   0  0  0  0  0  2  0  0  0  0  0  0
  161.6110  205.1980  151.0060 C   0  0  0  0  0  0  0  0  0  0  0  0
  161.4060  209.5760  151.3680 C   0  0  2  0  0  3  0  0  0  0  0  0
  162.1610  210.1190  152.5700 C   0  0  0  0  0  1  0  0  0  0  0  0
  162.4500  207.9200  149.8050 C   0  0  0  0  0  2  0  0  0  0  0  0
  160.5380  207.2000  151.4200 C   0  0  1  0  0  3  0  0  0  0  0  0
  162.1850  209.2150  149.0620 C   0  0  0  0  0  2  0  0  0  0  0  0
  161.8180  207.1210  152.2780 C   0  0  2  0  0  3  0  0  0  0  0  0
  1  2  1  0  0  0  0
  1 11  1  0  0  0  0
  2  6  1  0  0  0  0
  3 12  1  0  0  0  0
  4 10  1  0  0  0  0
  6 19  1  1  0  0  0
  6  9  1  0  0  0  0
  7  1  2  0  0  0  0
  8 13  1  0  0  0  0
  8  4  2  0  0  0  0
 10  7  1  0  0  0  0
 10 12  2  0  0  0  0
 11  5  1  6  0  0  0
 11  9  1  0  0  0  0
 12  2  1  0  0  0  0
 13 14  2  0  0  0  0
 14  3  1  0  0  0  0
 15 22  1  6  0  0  0
 15 20  1  0  0  0  0
 15 23  1  0  0  0  0
 15 25  1  0  0  0  0
 16 19  2  0  0  0  0
 18 20  1  0  0  0  0
 19 17  1  0  0  0  0
 20 21  1  1  0  0  0
 23 16  1  6  0  0  0
 23 25  1  0  0  0  0
 24 22  1  0  0  0  0
 24 18  1  0  0  0  0
 25 17  1  6  0  0  0
M  END
>  <MODEL>
4

>  <REMARK>
 VINA RESULT:      -6.6      3.221      7.609
  Name = 
  1 active torsions:
  status: ('A' for Active; 'I' for Inactive)
    1  A    between atoms: C_10  and  C_12
                            x       y       z     vdW  Elec       q    Type
                         _______ _______ _______ _____ _____    ______ ____

>  <TORSDO>
F 1

$$$$
=
 OpenBabel11072415233D

 25 30  0  0  1  0  0  0  0  0999 V2000
  159.5830  211.2760  152.4270 C   0  0  0  0  0  0  0  0  0  0  0  0
  160.3890  210.4110  152.9980 N   0  0  0  0  0  0  0  0  0  0  0  0
  160.5870  209.4200  155.3030 C   0  0  0  0  0  2  0  0  0  0  0  0
  158.1540  211.3530  155.6600 C   0  0  0  0  0  3  0  0  0  0  0  0
  160.4170  213.1540  151.0920 C   0  0  0  0  0  1  0  0  0  0  0  0
  161.5480  210.0850  152.2100 C   0  0  2  0  0  3  0  0  0  0  0  0
  158.6410  211.7850  153.2520 N   0  0  0  0  0  0  0  0  0  0  0  0
  158.6430  211.2200  156.8600 N   0  0  0  0  0  0  0  0  0  0  0  0
  161.2700  210.8100  150.8700 C   0  0  0  0  0  2  0  0  0  0  0  0
  158.9190  211.1540  154.4240 C   0  0  0  0  0  0  0  0  0  0  0  0
  160.0080  211.6930  151.0750 C   0  0  1  0  0  3  0  0  0  0  0  0
  160.0160  210.3300  154.2780 C   0  0  0  0  0  0  0  0  0  0  0  0
  159.9910  210.8990  157.2600 C   0  0  0  0  0  3  0  0  0  0  0  0
  160.8660  210.1500  156.5770 C   0  0  0  0  0  3  0  0  0  0  0  0
  161.2350  206.0720  150.6260 C   0  0  2  0  0  0  0  0  0  0  0  0
  162.6840  208.0280  151.4300 C   0  0  0  0  0  3  0  0  0  0  0  0
  160.6950  207.6950  152.3920 O   0  0  0  0  0  0  0  0  0  0  0  0
  160.9570  204.7410  148.6540 C   0  0  0  0  0  2  0  0  0  0  0  0
  161.6580  208.6100  152.0120 C   0  0  0  0  0  0  0  0  0  0  0  0
  161.3800  204.6540  150.1130 C   0  0  2  0  0  3  0  0  0  0  0  0
  160.4450  203.7000  150.8370 C   0  0  0  0  0  1  0  0  0  0  0  0
  160.6880  206.9980  149.5600 C   0  0  0  0  0  2  0  0  0  0  0  0
  162.4720  206.5380  151.4010 C   0  0  1  0  0  3  0  0  0  0  0  0
  160.9020  206.2200  148.2760 C   0  0  0  0  0  2  0  0  0  0  0  0
  161.1190  206.3620  152.1220 C   0  0  2  0  0  3  0  0  0  0  0  0
  1  2  1  0  0  0  0
  1  7  2  0  0  0  0
  2 12  1  0  0  0  0
  3 14  1  0  0  0  0
  4  8  2  0  0  0  0
  6 19  1  6  0  0  0
  6  2  1  0  0  0  0
  7 10  1  0  0  0  0
  8 13  1  0  0  0  0
  9 11  1  0  0  0  0
  9  6  1  0  0  0  0
 10  4  1  0  0  0  0
 11  5  1  1  0  0  0
 11  1  1  0  0  0  0
 12 10  2  0  0  0  0
 12  3  1  0  0  0  0
 14 13  2  0  0  0  0
 15 22  1  6  0  0  0
 15 23  1  0  0  0  0
 15 25  1  0  0  0  0
 16 19  2  0  0  0  0
 18 20  1  0  0  0  0
 19 17  1  0  0  0  0
 20 15  1  0  0  0  0
 20 21  1  1  0  0  0
 23 16  1  6  0  0  0
 23 25  1  0  0  0  0
 24 18  1  0  0  0  0
 24 22  1  0  0  0  0
 25 17  1  6  0  0  0
M  END
>  <MODEL>
5

>  <REMARK>
 VINA RESULT:      -6.2      1.791      2.738
  Name = 
  1 active torsions:
  status: ('A' for Active; 'I' for Inactive)
    1  A    between atoms: C_10  and  C_12
                            x       y       z     vdW  Elec       q    Type
                         _______ _______ _______ _____ _____    ______ ____

>  <TORSDO>
F 1

$$$$
=
 OpenBabel11072415233D

 25 30  0  0  1  0  0  0  0  0999 V2000
  160.7900  204.7330  150.6770 C   0  0  0  0  0  0  0  0  0  0  0  0
  161.3830  205.8870  150.4740 N   0  0  0  0  0  0  0  0  0  0  0  0
  161.9310  207.2720  148.4450 C   0  0  0  0  0  2  0  0  0  0  0  0
  160.5500  204.7820  147.1500 C   0  0  0  0  0  3  0  0  0  0  0  0
  161.7630  202.9980  152.1080 C   0  0  0  0  0  1  0  0  0  0  0  0
  162.0550  206.4110  151.6350 C   0  0  2  0  0  3  0  0  0  0  0  0
  160.3860  204.1120  149.5470 N   0  0  0  0  0  0  0  0  0  0  0  0
  161.3090  205.2620  146.2060 N   0  0  0  0  0  0  0  0  0  0  0  0
  161.6430  205.4160  152.7490 C   0  0  0  0  0  2  0  0  0  0  0  0
  160.7780  204.9890  148.5850 C   0  0  0  0  0  0  0  0  0  0  0  0
  160.8920  204.2400  152.0660 C   0  0  1  0  0  3  0  0  0  0  0  0
  161.4210  206.0700  149.1520 C   0  0  0  0  0  0  0  0  0  0  0  0
  162.5160  206.0410  146.3210 C   0  0  0  0  0  3  0  0  0  0  0  0
  162.8230  206.8920  147.3090 C   0  0  0  0  0  3  0  0  0  0  0  0
  160.8800  210.0400  153.6750 C   0  0  2  0  0  0  0  0  0  0  0  0
  162.3730  208.8430  151.9690 C   0  0  0  0  0  3  0  0  0  0  0  0
  160.2780  208.1220  152.2600 O   0  0  0  0  0  0  0  0  0  0  0  0
  161.1290  211.3630  155.6560 C   0  0  0  0  0  2  0  0  0  0  0  0
  161.5830  207.7910  151.9450 C   0  0  0  0  0  0  0  0  0  0  0  0
  160.6250  211.4290  154.2220 C   0  0  2  0  0  3  0  0  0  0  0  0
  159.1420  211.7590  154.2400 C   0  0  0  0  0  1  0  0  0  0  0  0
  161.4600  209.1220  154.7310 C   0  0  0  0  0  2  0  0  0  0  0  0
  161.5720  210.0710  152.3080 C   0  0  1  0  0  3  0  0  0  0  0  0
  161.9480  210.0820  155.8000 C   0  0  0  0  0  2  0  0  0  0  0  0
  160.1350  209.5260  152.4440 C   0  0  2  0  0  3  0  0  0  0  0  0
  1 11  1  0  0  0  0
  2  1  1  0  0  0  0
  2  6  1  0  0  0  0
  3 12  1  0  0  0  0
  4 10  1  0  0  0  0
  6 19  1  1  0  0  0
  6  9  1  0  0  0  0
  7  1  2  0  0  0  0
  8 13  1  0  0  0  0
  8  4  2  0  0  0  0
 10 12  2  0  0  0  0
 10  7  1  0  0  0  0
 11  5  1  6  0  0  0
 11  9  1  0  0  0  0
 12  2  1  0  0  0  0
 13 14  2  0  0  0  0
 14  3  1  0  0  0  0
 15 20  1  0  0  0  0
 15 22  1  1  0  0  0
 18 24  1  0  0  0  0
 19 16  2  0  0  0  0
 19 17  1  0  0  0  0
 20 21  1  1  0  0  0
 20 18  1  0  0  0  0
 22 24  1  0  0  0  0
 23 16  1  1  0  0  0
 23 25  1  0  0  0  0
 23 15  1  0  0  0  0
 25 17  1  1  0  0  0
 25 15  1  0  0  0  0
M  END
>  <MODEL>
6

>  <REMARK>
 VINA RESULT:      -6.2      2.553      7.487
  Name = 
  1 active torsions:
  status: ('A' for Active; 'I' for Inactive)
    1  A    between atoms: C_10  and  C_12
                            x       y       z     vdW  Elec       q    Type
                         _______ _______ _______ _____ _____    ______ ____

>  <TORSDO>
F 1

$$$$
=
 OpenBabel11072415233D

 25 30  0  0  1  0  0  0  0  0999 V2000
  161.9430  204.5880  146.6770 C   0  0  0  0  0  0  0  0  0  0  0  0
  161.3240  204.8100  147.8130 N   0  0  0  0  0  0  0  0  0  0  0  0
  160.6400  203.3860  149.7720 C   0  0  0  0  0  2  0  0  0  0  0  0
  161.9760  201.2700  147.8960 C   0  0  0  0  0  3  0  0  0  0  0  0
  161.0790  205.4100  144.5360 C   0  0  0  0  0  1  0  0  0  0  0  0
  160.7140  206.1120  147.9020 C   0  0  2  0  0  3  0  0  0  0  0  0
  162.2880  203.2970  146.4770 N   0  0  0  0  0  0  0  0  0  0  0  0
  161.1560  200.5780  148.6360 N   0  0  0  0  0  0  0  0  0  0  0  0
  161.2040  206.8100  146.6090 C   0  0  0  0  0  2  0  0  0  0  0  0
  161.8290  202.7010  147.6100 C   0  0  0  0  0  0  0  0  0  0  0  0
  161.9290  205.7380  145.7490 C   0  0  1  0  0  3  0  0  0  0  0  0
  161.2060  203.6270  148.4210 C   0  0  0  0  0  0  0  0  0  0  0  0
  159.9470  201.0070  149.2940 C   0  0  0  0  0  3  0  0  0  0  0  0
  159.6880  202.2350  149.7610 C   0  0  0  0  0  3  0  0  0  0  0  0
  161.4510  207.3340  151.9850 C   0  0  2  0  0  0  0  0  0  0  0  0
  162.3470  206.6150  149.6930 C   0  0  0  0  0  3  0  0  0  0  0  0
  160.4560  207.8020  149.7860 O   0  0  0  0  0  0  0  0  0  0  0  0
  161.5910  206.6210  154.2670 C   0  0  0  0  0  2  0  0  0  0  0  0
  161.1850  206.8370  149.1170 C   0  0  0  0  0  0  0  0  0  0  0  0
  161.9560  207.7730  153.3440 C   0  0  2  0  0  3  0  0  0  0  0  0
  161.2480  209.0280  153.8240 C   0  0  0  0  0  1  0  0  0  0  0  0
  160.7450  205.9960  152.0580 C   0  0  0  0  0  2  0  0  0  0  0  0
  162.5020  207.5200  150.8860 C   0  0  1  0  0  3  0  0  0  0  0  0
  161.1980  205.4330  153.3910 C   0  0  0  0  0  2  0  0  0  0  0  0
  161.2000  208.3480  150.8700 C   0  0  2  0  0  3  0  0  0  0  0  0
  1  2  1  0  0  0  0
  2  6  1  0  0  0  0
  2 12  1  0  0  0  0
  4  8  2  0  0  0  0
  6 19  1  1  0  0  0
  7  1  2  0  0  0  0
  7 10  1  0  0  0  0
  8 13  1  0  0  0  0
  9  6  1  0  0  0  0
 10  4  1  0  0  0  0
 10 12  2  0  0  0  0
 11  5  1  6  0  0  0
 11  9  1  0  0  0  0
 11  1  1  0  0  0  0
 12  3  1  0  0  0  0
 13 14  2  0  0  0  0
 14  3  1  0  0  0  0
 15 22  1  6  0  0  0
 15 20  1  0  0  0  0
 19 16  2  0  0  0  0
 19 17  1  0  0  0  0
 20 21  1  1  0  0  0
 20 18  1  0  0  0  0
 22 24  1  0  0  0  0
 23 16  1  6  0  0  0
 23 15  1  0  0  0  0
 24 18  1  0  0  0  0
 25 17  1  6  0  0  0
 25 23  1  0  0  0  0
 25 15  1  0  0  0  0
M  END
>  <MODEL>
7

>  <REMARK>
 VINA RESULT:      -6.2      3.085      7.062
  Name = 
  1 active torsions:
  status: ('A' for Active; 'I' for Inactive)
    1  A    between atoms: C_10  and  C_12
                            x       y       z     vdW  Elec       q    Type
                         _______ _______ _______ _____ _____    ______ ____

>  <TORSDO>
F 1

$$$$
=
 OpenBabel11072415233D

 25 30  0  0  1  0  0  0  0  0999 V2000
  160.4190  208.0950  155.1130 C   0  0  0  0  0  0  0  0  0  0  0  0
  160.5700  209.1560  154.3550 N   0  0  0  0  0  0  0  0  0  0  0  0
  161.0470  209.5430  151.9140 C   0  0  0  0  0  2  0  0  0  0  0  0
  161.0600  206.4190  152.0670 C   0  0  0  0  0  3  0  0  0  0  0  0
  161.5810  207.8450  157.2560 C   0  0  0  0  0  1  0  0  0  0  0  0
  160.6880  210.3880  155.0910 C   0  0  2  0  0  3  0  0  0  0  0  0
  160.5690  206.9210  154.4600 N   0  0  0  0  0  0  0  0  0  0  0  0
  161.7940  206.6970  151.0280 N   0  0  0  0  0  0  0  0  0  0  0  0
  160.4140  209.9450  156.5500 C   0  0  0  0  0  2  0  0  0  0  0  0
  160.8310  207.3330  153.1910 C   0  0  0  0  0  0  0  0  0  0  0  0
  160.3500  208.3930  156.5590 C   0  0  1  0  0  3  0  0  0  0  0  0
  160.8640  208.7110  153.1300 C   0  0  0  0  0  0  0  0  0  0  0  0
  162.5550  207.8900  150.7480 C   0  0  0  0  0  3  0  0  0  0  0  0
  162.2680  209.1310  151.1580 C   0  0  0  0  0  3  0  0  0  0  0  0
  157.1600  212.8660  154.7420 C   0  0  2  0  0  0  0  0  0  0  0  0
  159.7060  212.6560  154.9520 C   0  0  0  0  0  3  0  0  0  0  0  0
  158.5850  211.0780  153.8370 O   0  0  0  0  0  0  0  0  0  0  0  0
  155.3440  213.8960  155.9150 C   0  0  0  0  0  2  0  0  0  0  0  0
  159.6750  211.3810  154.6300 C   0  0  0  0  0  0  0  0  0  0  0  0
  156.0910  213.9280  154.5900 C   0  0  2  0  0  3  0  0  0  0  0  0
  155.1190  213.5870  153.4730 C   0  0  0  0  0  1  0  0  0  0  0  0
  157.0540  212.1540  156.0740 C   0  0  0  0  0  2  0  0  0  0  0  0
  158.5430  213.3680  154.3160 C   0  0  1  0  0  3  0  0  0  0  0  0
  156.1810  213.0810  156.8990 C   0  0  0  0  0  2  0  0  0  0  0  0
  157.8390  212.2490  153.5200 C   0  0  2  0  0  3  0  0  0  0  0  0
  1 11  1  0  0  0  0
  2  6  1  0  0  0  0
  2  1  1  0  0  0  0
  3 12  1  0  0  0  0
  4 10  1  0  0  0  0
  6 19  1  6  0  0  0
  6  9  1  0  0  0  0
  7  1  2  0  0  0  0
  8  4  2  0  0  0  0
  9 11  1  0  0  0  0
 10  7  1  0  0  0  0
 11  5  1  1  0  0  0
 12 10  2  0  0  0  0
 12  2  1  0  0  0  0
 13  8  1  0  0  0  0
 13 14  2  0  0  0  0
 14  3  1  0  0  0  0
 15 22  1  1  0  0  0
 17 19  1  0  0  0  0
 18 24  1  0  0  0  0
 19 16  2  0  0  0  0
 20 21  1  6  0  0  0
 20 15  1  0  0  0  0
 20 18  1  0  0  0  0
 22 24  1  0  0  0  0
 23 15  1  0  0  0  0
 23 16  1  1  0  0  0
 25 17  1  1  0  0  0
 25 23  1  0  0  0  0
 25 15  1  0  0  0  0
M  END
>  <MODEL>
8

>  <REMARK>
 VINA RESULT:      -6.1      3.228      8.373
  Name = 
  1 active torsions:
  status: ('A' for Active; 'I' for Inactive)
    1  A    between atoms: C_10  and  C_12
                            x       y       z     vdW  Elec       q    Type
                         _______ _______ _______ _____ _____    ______ ____

>  <TORSDO>
F 1

$$$$
=
 OpenBabel11072415233D

 25 30  0  0  1  0  0  0  0  0999 V2000
  161.0640  209.9180  150.9850 C   0  0  0  0  0  0  0  0  0  0  0  0
  161.3510  208.6660  151.2540 N   0  0  0  0  0  0  0  0  0  0  0  0
  161.0320  207.1560  153.2420 C   0  0  0  0  0  2  0  0  0  0  0  0
  159.8230  209.8420  154.2940 C   0  0  0  0  0  3  0  0  0  0  0  0
  162.7070  211.4560  150.0160 C   0  0  0  0  0  1  0  0  0  0  0  0
  162.2170  208.0440  150.2860 C   0  0  2  0  0  3  0  0  0  0  0  0
  160.4760  210.5830  152.0050 N   0  0  0  0  0  0  0  0  0  0  0  0
  160.1790  209.2010  155.3720 N   0  0  0  0  0  0  0  0  0  0  0  0
  162.3310  209.1250  149.1820 C   0  0  0  0  0  2  0  0  0  0  0  0
  160.4080  209.6250  152.9670 C   0  0  0  0  0  0  0  0  0  0  0  0
  161.6470  210.4110  149.7200 C   0  0  1  0  0  3  0  0  0  0  0  0
  160.9760  208.4510  152.5180 C   0  0  0  0  0  0  0  0  0  0  0  0
  161.2040  208.2000  155.5340 C   0  0  0  0  0  3  0  0  0  0  0  0
  161.6170  207.3270  154.6070 C   0  0  0  0  0  3  0  0  0  0  0  0
  161.0810  203.9190  149.6580 C   0  0  2  0  0  0  0  0  0  0  0  0
  160.4180  206.3540  150.1070 C   0  0  0  0  0  3  0  0  0  0  0  0
  162.2200  205.9430  148.8520 O   0  0  0  0  0  0  0  0  0  0  0  0
  160.8000  201.7680  150.6750 C   0  0  0  0  0  2  0  0  0  0  0  0
  161.6070  206.7920  149.7540 C   0  0  0  0  0  0  0  0  0  0  0  0
  160.4420  202.5640  149.4290 C   0  0  2  0  0  3  0  0  0  0  0  0
  161.0320  201.8650  148.2160 C   0  0  0  0  0  1  0  0  0  0  0  0
  161.8580  203.9560  150.9570 C   0  0  0  0  0  2  0  0  0  0  0  0
  160.1130  205.0730  149.3790 C   0  0  1  0  0  3  0  0  0  0  0  0
  161.3330  202.7520  151.7150 C   0  0  0  0  0  2  0  0  0  0  0  0
  161.3590  204.8670  148.4930 C   0  0  2  0  0  3  0  0  0  0  0  0
  1  2  1  0  0  0  0
  1  7  2  0  0  0  0
  2 12  1  0  0  0  0
  3 14  1  0  0  0  0
  4  8  2  0  0  0  0
  6 19  1  6  0  0  0
  6  2  1  0  0  0  0
  7 10  1  0  0  0  0
  8 13  1  0  0  0  0
  9 11  1  0  0  0  0
  9  6  1  0  0  0  0
 10  4  1  0  0  0  0
 11  5  1  1  0  0  0
 11  1  1  0  0  0  0
 12 10  2  0  0  0  0
 12  3  1  0  0  0  0
 14 13  2  0  0  0  0
 15 22  1  1  0  0  0
 17 19  1  0  0  0  0
 18 24  1  0  0  0  0
 19 16  2  0  0  0  0
 20 21  1  6  0  0  0
 20 15  1  0  0  0  0
 20 18  1  0  0  0  0
 22 24  1  0  0  0  0
 23 15  1  0  0  0  0
 23 16  1  1  0  0  0
 25 17  1  1  0  0  0
 25 23  1  0  0  0  0
 25 15  1  0  0  0  0
M  END
>  <MODEL>
9

>  <REMARK>
 VINA RESULT:      -5.7      1.283      2.026
  Name = 
  1 active torsions:
  status: ('A' for Active; 'I' for Inactive)
    1  A    between atoms: C_10  and  C_12
                            x       y       z     vdW  Elec       q    Type
                         _______ _______ _______ _____ _____    ______ ____

>  <TORSDO>
F 1

$$$$
