=
 OpenBabel11072414593D

 39 43  0  0  1  0  0  0  0  0999 V2000
  159.5930  212.7340  146.8680 O   0  0  0  0  0  0  0  0  0  0  0  0
  155.8480  214.1470  149.7140 O   0  0  0  0  0  1  0  0  0  0  0  0
  159.9440  213.6170  148.9890 C   0  0  2  0  0  3  0  0  0  0  0  0
  159.0030  212.8340  148.1350 C   0  0  1  0  0  3  0  0  0  0  0  0
  160.9910  212.7290  147.1000 C   0  0  2  0  0  3  0  0  0  0  0  0
  157.6680  213.5640  148.1170 C   0  0  0  0  0  2  0  0  0  0  0  0
  157.1930  213.8430  149.5300 C   0  0  0  0  0  0  0  0  0  0  0  0
  158.0440  213.8600  150.5850 C   0  0  0  0  0  0  0  0  0  0  0  0
  161.2770  213.0630  148.5710 C   0  0  2  0  0  3  0  0  0  0  0  0
  159.5140  213.5050  150.4480 C   0  0  0  0  0  2  0  0  0  0  0  0
  161.8420  210.6580  148.7150 C   0  0  0  0  0  3  0  0  0  0  0  0
  161.6390  211.8160  149.3370 C   0  0  0  0  0  3  0  0  0  0  0  0
  162.2260  209.4170  149.4580 C   0  0  0  0  0  2  0  0  0  0  0  0
  162.1120  208.1690  148.5850 C   0  0  0  0  0  2  0  0  0  0  0  0
  161.9450  206.9810  149.4050 N   0  0  0  0  0  2  0  0  0  0  0  0
  160.0210  206.2500  148.3010 O   0  0  0  0  0  0  0  0  0  0  0  0
  160.8760  206.0500  149.2080 C   0  0  0  0  0  0  0  0  0  0  0  0
  160.7760  204.8410  150.0940 C   0  0  1  0  0  3  0  0  0  0  0  0
  160.8360  203.5380  149.3150 C   0  0  0  0  0  2  0  0  0  0  0  0
  160.9100  202.3670  150.2710 C   0  0  0  0  0  2  0  0  0  0  0  0
  160.9510  201.0750  149.4790 C   0  0  0  0  0  1  0  0  0  0  0  0
  161.7970  204.8610  151.2470 C   0  0  0  0  0  2  0  0  0  0  0  0
  161.2510  205.3880  152.5820 C   0  0  0  0  0  2  0  0  0  0  0  0
  161.7130  206.8080  152.8680 C   0  0  1  0  0  3  0  0  0  0  0  0
  160.5870  207.5910  153.4790 C   0  0  2  0  0  0  0  0  0  0  0  0
  161.6250  209.8740  153.3450 C   0  0  0  0  0  2  0  0  0  0  0  0
  160.5910  209.0200  154.0570 C   0  0  1  0  0  3  0  0  0  0  0  0
  160.7900  208.8460  152.6000 C   0  0  2  0  0  3  0  0  0  0  0  0
  161.6770  207.0510  154.2200 O   0  0  0  0  0  0  0  0  0  0  0  0
  162.5880  214.4490  146.6680 O   0  0  0  0  0  0  0  0  0  0  0  0
  161.6500  213.7490  146.2120 C   0  0  0  0  0  0  0  0  0  0  0  0
  161.2750  213.9160  144.8760 O   0  0  0  0  0  0  0  0  0  0  0  0
  160.7850  213.1770  142.6580 C   0  0  0  0  0  1  0  0  0  0  0  0
  161.7080  213.0420  143.8440 C   0  0  0  0  0  3  0  0  0  0  0  0
  163.1140  213.4270  143.4160 C   0  0  0  0  0  1  0  0  0  0  0  0
  157.5240  214.1060  151.9680 C   0  0  0  0  0  2  0  0  0  0  0  0
  157.6350  212.9280  152.7560 O   0  0  0  0  0  0  0  0  0  0  0  0
  157.0860  212.8780  154.0330 C   0  0  0  0  0  3  0  0  0  0  0  0
  157.0260  213.9210  154.7300 O   0  0  0  0  0  0  0  0  0  0  0  0
  1  5  1  0  0  0  0
  1  4  1  0  0  0  0
  3 10  1  1  0  0  0
  4  6  1  6  0  0  0
  4  3  1  0  0  0  0
  5 31  1  6  0  0  0
  5  9  1  0  0  0  0
  6  7  1  0  0  0  0
  7  2  1  0  0  0  0
  7  8  2  0  0  0  0
  8 36  1  0  0  0  0
  9  3  1  0  0  0  0
  9 12  1  1  0  0  0
 10  8  1  0  0  0  0
 11 12  2  0  0  0  0
 11 13  1  0  0  0  0
 14 15  1  0  0  0  0
 14 13  1  0  0  0  0
 16 17  2  0  0  0  0
 17 15  1  0  0  0  0
 17 18  1  0  0  0  0
 18 19  1  6  0  0  0
 18 22  1  0  0  0  0
 19 20  1  0  0  0  0
 21 20  1  0  0  0  0
 22 23  1  0  0  0  0
 24 23  1  1  0  0  0
 24 25  1  0  0  0  0
 24 29  1  0  0  0  0
 25 27  1  0  0  0  0
 25 29  1  1  0  0  0
 27 26  1  1  0  0  0
 28 26  1  1  0  0  0
 28 25  1  0  0  0  0
 28 27  1  0  0  0  0
 31 30  2  0  0  0  0
 32 31  1  0  0  0  0
 33 34  1  0  0  0  0
 34 32  1  0  0  0  0
 35 34  1  0  0  0  0
 36 37  1  0  0  0  0
 37 38  1  0  0  0  0
 38 39  2  0  0  0  0
M  END
>  <MODEL>
1

>  <REMARK>
 VINA RESULT:      -6.6      0.000      0.000
  Name = 
  16 active torsions:
  status: ('A' for Active; 'I' for Inactive)
    1  A    between atoms: N_1  and  C_22
    2  A    between atoms: C_2  and  C_8
    3  A    between atoms: C_3  and  C_7
    4  A    between atoms: C_3  and  C_31
    5  A    between atoms: C_4  and  C_8
    6  A    between atoms: C_4  and  C_28
    7  A    between atoms: C_4  and  C_31
    8  A    between atoms: C_16  and  C_34
    9  A    between atoms: O_17  and  C_25
   10  A    between atoms: O_17  and  C_32
   11  A    between atoms: C_18  and  C_23
   12  A    between atoms: C_18  and  O_26
   13  A    between atoms: C_19  and  O_26
   14  A    between atoms: C_21  and  C_36
   15  A    between atoms: C_22  and  C_34
   16  A    between atoms: C_25  and  C_33
                            x       y       z     vdW  Elec       q    Type
                         _______ _______ _______ _____ _____    ______ ____

>  <TORSDO>
F 16

$$$$
=
 OpenBabel11072414593D

 39 43  0  0  1  0  0  0  0  0999 V2000
  162.3360  206.2150  151.4950 O   0  0  0  0  0  0  0  0  0  0  0  0
  160.9890  207.5980  156.0100 O   0  0  0  0  0  1  0  0  0  0  0  0
  160.8230  207.9460  151.8340 C   0  0  2  0  0  3  0  0  0  0  0  0
  162.0010  207.2270  152.4030 C   0  0  1  0  0  3  0  0  0  0  0  0
  161.9760  206.7160  150.2190 C   0  0  2  0  0  3  0  0  0  0  0  0
  161.6090  206.6940  153.7740 C   0  0  0  0  0  2  0  0  0  0  0  0
  161.0400  207.8060  154.6350 C   0  0  0  0  0  0  0  0  0  0  0  0
  160.5380  208.9450  154.1010 C   0  0  0  0  0  0  0  0  0  0  0  0
  161.1770  208.0170  150.3750 C   0  0  2  0  0  3  0  0  0  0  0  0
  160.5960  209.2380  152.6120 C   0  0  0  0  0  2  0  0  0  0  0  0
  161.8490  209.9320  148.9580 C   0  0  0  0  0  3  0  0  0  0  0  0
  162.0420  209.2110  150.0600 C   0  0  0  0  0  3  0  0  0  0  0  0
  162.6820  211.1330  148.6420 C   0  0  0  0  0  2  0  0  0  0  0  0
  161.8280  212.3790  148.4170 C   0  0  0  0  0  2  0  0  0  0  0  0
  160.9220  212.1850  147.2970 N   0  0  0  0  0  2  0  0  0  0  0  0
  162.1640  213.4910  145.8120 O   0  0  0  0  0  0  0  0  0  0  0  0
  161.1500  212.7660  146.0090 C   0  0  0  0  0  0  0  0  0  0  0  0
  160.1690  212.5130  144.9000 C   0  0  1  0  0  3  0  0  0  0  0  0
  158.9210  213.3740  145.0150 C   0  0  0  0  0  2  0  0  0  0  0  0
  157.8320  212.6100  145.7360 C   0  0  0  0  0  2  0  0  0  0  0  0
  157.0840  213.5550  146.6570 C   0  0  0  0  0  1  0  0  0  0  0  0
  160.8090  212.6210  143.5030 C   0  0  0  0  0  2  0  0  0  0  0  0
  160.1410  211.7610  142.4200 C   0  0  0  0  0  2  0  0  0  0  0  0
  161.0970  211.4240  141.2880 C   0  0  1  0  0  3  0  0  0  0  0  0
  160.3340  211.3010  140.0020 C   0  0  2  0  0  0  0  0  0  0  0  0
  162.1660  210.3270  138.5880 C   0  0  0  0  0  2  0  0  0  0  0  0
  160.8600  211.1000  138.5670 C   0  0  1  0  0  3  0  0  0  0  0  0
  161.0300  210.0000  139.5420 C   0  0  2  0  0  3  0  0  0  0  0  0
  161.1090  212.4400  140.3640 O   0  0  0  0  0  0  0  0  0  0  0  0
  160.1870  206.0760  148.7730 O   0  0  0  0  0  0  0  0  0  0  0  0
  161.1410  205.6940  149.4960 C   0  0  0  0  0  0  0  0  0  0  0  0
  161.4190  204.3260  149.5730 O   0  0  0  0  0  0  0  0  0  0  0  0
  160.4560  202.1440  149.4380 C   0  0  0  0  0  1  0  0  0  0  0  0
  160.5710  203.4100  150.2510 C   0  0  0  0  0  3  0  0  0  0  0  0
  161.1760  203.0700  151.6030 C   0  0  0  0  0  1  0  0  0  0  0  0
  160.0180  210.0300  154.9930 C   0  0  0  0  0  2  0  0  0  0  0  0
  161.0410  210.9800  155.2650 O   0  0  0  0  0  0  0  0  0  0  0  0
  161.4730  211.2000  156.5680 C   0  0  0  0  0  3  0  0  0  0  0  0
  162.6930  211.1040  156.8480 O   0  0  0  0  0  0  0  0  0  0  0  0
  1  4  1  0  0  0  0
  3  4  1  0  0  0  0
  3 10  1  1  0  0  0
  4  6  1  1  0  0  0
  5 31  1  1  0  0  0
  5  9  1  0  0  0  0
  5  1  1  0  0  0  0
  6  7  1  0  0  0  0
  7  2  1  0  0  0  0
  8  7  2  0  0  0  0
  8 36  1  0  0  0  0
  9 12  1  1  0  0  0
  9  3  1  0  0  0  0
 10  8  1  0  0  0  0
 11 12  2  0  0  0  0
 13 11  1  0  0  0  0
 14 13  1  0  0  0  0
 15 14  1  0  0  0  0
 16 17  2  0  0  0  0
 17 15  1  0  0  0  0
 18 22  1  6  0  0  0
 18 19  1  0  0  0  0
 18 17  1  0  0  0  0
 19 20  1  0  0  0  0
 20 21  1  0  0  0  0
 23 22  1  0  0  0  0
 24 23  1  1  0  0  0
 25 29  1  6  0  0  0
 25 24  1  0  0  0  0
 27 26  1  1  0  0  0
 27 28  1  0  0  0  0
 27 25  1  0  0  0  0
 28 26  1  1  0  0  0
 28 25  1  0  0  0  0
 29 24  1  0  0  0  0
 30 31  2  0  0  0  0
 31 32  1  0  0  0  0
 32 34  1  0  0  0  0
 33 34  1  0  0  0  0
 34 35  1  0  0  0  0
 36 37  1  0  0  0  0
 37 38  1  0  0  0  0
 38 39  2  0  0  0  0
M  END
>  <MODEL>
2

>  <REMARK>
 VINA RESULT:      -6.4      2.680      9.668
  Name = 
  16 active torsions:
  status: ('A' for Active; 'I' for Inactive)
    1  A    between atoms: N_1  and  C_22
    2  A    between atoms: C_2  and  C_8
    3  A    between atoms: C_3  and  C_7
    4  A    between atoms: C_3  and  C_31
    5  A    between atoms: C_4  and  C_8
    6  A    between atoms: C_4  and  C_28
    7  A    between atoms: C_4  and  C_31
    8  A    between atoms: C_16  and  C_34
    9  A    between atoms: O_17  and  C_25
   10  A    between atoms: O_17  and  C_32
   11  A    between atoms: C_18  and  C_23
   12  A    between atoms: C_18  and  O_26
   13  A    between atoms: C_19  and  O_26
   14  A    between atoms: C_21  and  C_36
   15  A    between atoms: C_22  and  C_34
   16  A    between atoms: C_25  and  C_33
                            x       y       z     vdW  Elec       q    Type
                         _______ _______ _______ _____ _____    ______ ____

>  <TORSDO>
F 16

$$$$
=
 OpenBabel11072414593D

 39 43  0  0  1  0  0  0  0  0999 V2000
  162.2190  205.6240  151.8030 O   0  0  0  0  0  0  0  0  0  0  0  0
  161.0570  207.7150  156.0920 O   0  0  0  0  0  1  0  0  0  0  0  0
  160.8160  207.4730  151.9120 C   0  0  2  0  0  3  0  0  0  0  0  0
  161.9630  206.7730  152.5620 C   0  0  1  0  0  3  0  0  0  0  0  0
  161.8590  205.9590  150.4740 C   0  0  2  0  0  3  0  0  0  0  0  0
  161.5730  206.4660  154.0000 C   0  0  0  0  0  2  0  0  0  0  0  0
  161.0880  207.7210  154.7010 C   0  0  0  0  0  0  0  0  0  0  0  0
  160.6410  208.8010  154.0150 C   0  0  0  0  0  0  0  0  0  0  0  0
  161.1400  207.3150  150.4530 C   0  0  2  0  0  3  0  0  0  0  0  0
  160.6820  208.8750  152.5000 C   0  0  0  0  0  2  0  0  0  0  0  0
  161.7050  209.2160  148.9730 C   0  0  0  0  0  3  0  0  0  0  0  0
  162.0650  208.3970  149.9580 C   0  0  0  0  0  3  0  0  0  0  0  0
  162.6010  210.3110  148.4850 C   0  0  0  0  0  2  0  0  0  0  0  0
  161.9790  211.6910  148.6860 C   0  0  0  0  0  2  0  0  0  0  0  0
  160.9520  211.9420  147.6880 N   0  0  0  0  0  2  0  0  0  0  0  0
  162.3440  213.1820  146.2820 O   0  0  0  0  0  0  0  0  0  0  0  0
  161.1990  212.6930  146.4960 C   0  0  0  0  0  0  0  0  0  0  0  0
  160.0860  212.9040  145.5100 C   0  0  1  0  0  3  0  0  0  0  0  0
  159.1010  213.9720  145.9580 C   0  0  0  0  0  2  0  0  0  0  0  0
  157.6910  213.4260  145.9080 C   0  0  0  0  0  2  0  0  0  0  0  0
  157.1760  213.2390  147.3230 C   0  0  0  0  0  1  0  0  0  0  0  0
  160.5980  213.1660  144.0810 C   0  0  0  0  0  2  0  0  0  0  0  0
  159.7970  212.4680  142.9720 C   0  0  0  0  0  2  0  0  0  0  0  0
  160.6500  211.4880  142.1820 C   0  0  1  0  0  3  0  0  0  0  0  0
  160.9950  212.0820  140.8470 C   0  0  2  0  0  0  0  0  0  0  0  0
  161.9600  210.0250  139.7780 C   0  0  0  0  0  2  0  0  0  0  0  0
  161.9330  211.5430  139.7500 C   0  0  1  0  0  3  0  0  0  0  0  0
  160.6810  210.8050  140.0340 C   0  0  2  0  0  3  0  0  0  0  0  0
  161.8930  212.0270  141.9520 O   0  0  0  0  0  0  0  0  0  0  0  0
  160.4410  204.0510  150.6950 O   0  0  0  0  0  0  0  0  0  0  0  0
  160.9510  204.8960  149.9170 C   0  0  0  0  0  0  0  0  0  0  0  0
  160.6240  204.8420  148.5600 O   0  0  0  0  0  0  0  0  0  0  0  0
  161.6050  203.8110  146.6410 C   0  0  0  0  0  1  0  0  0  0  0  0
  161.5870  205.0280  147.5330 C   0  0  0  0  0  3  0  0  0  0  0  0
  161.2070  206.2400  146.6990 C   0  0  0  0  0  1  0  0  0  0  0  0
  160.2050  210.0310  154.7500 C   0  0  0  0  0  2  0  0  0  0  0  0
  160.1460  211.1420  153.8650 O   0  0  0  0  0  0  0  0  0  0  0  0
  158.9730  211.8770  153.7310 C   0  0  0  0  0  3  0  0  0  0  0  0
  158.6160  212.2860  152.5990 O   0  0  0  0  0  0  0  0  0  0  0  0
  1  4  1  0  0  0  0
  3 10  1  1  0  0  0
  3  4  1  0  0  0  0
  4  6  1  1  0  0  0
  5 31  1  1  0  0  0
  5  1  1  0  0  0  0
  6  7  1  0  0  0  0
  7  2  1  0  0  0  0
  8  7  2  0  0  0  0
  8 36  1  0  0  0  0
  9 12  1  1  0  0  0
  9  5  1  0  0  0  0
  9  3  1  0  0  0  0
 10  8  1  0  0  0  0
 11 12  2  0  0  0  0
 13 14  1  0  0  0  0
 13 11  1  0  0  0  0
 15 14  1  0  0  0  0
 16 17  2  0  0  0  0
 17 15  1  0  0  0  0
 18 22  1  6  0  0  0
 18 19  1  0  0  0  0
 18 17  1  0  0  0  0
 20 19  1  0  0  0  0
 20 21  1  0  0  0  0
 23 22  1  0  0  0  0
 24 23  1  1  0  0  0
 25 29  1  1  0  0  0
 25 24  1  0  0  0  0
 27 26  1  1  0  0  0
 27 28  1  0  0  0  0
 27 25  1  0  0  0  0
 28 26  1  1  0  0  0
 28 25  1  0  0  0  0
 29 24  1  0  0  0  0
 31 30  2  0  0  0  0
 32 31  1  0  0  0  0
 33 34  1  0  0  0  0
 34 32  1  0  0  0  0
 35 34  1  0  0  0  0
 37 36  1  0  0  0  0
 38 37  1  0  0  0  0
 39 38  2  0  0  0  0
M  END
>  <MODEL>
3

>  <REMARK>
 VINA RESULT:      -6.3      2.208      9.175
  Name = 
  16 active torsions:
  status: ('A' for Active; 'I' for Inactive)
    1  A    between atoms: N_1  and  C_22
    2  A    between atoms: C_2  and  C_8
    3  A    between atoms: C_3  and  C_7
    4  A    between atoms: C_3  and  C_31
    5  A    between atoms: C_4  and  C_8
    6  A    between atoms: C_4  and  C_28
    7  A    between atoms: C_4  and  C_31
    8  A    between atoms: C_16  and  C_34
    9  A    between atoms: O_17  and  C_25
   10  A    between atoms: O_17  and  C_32
   11  A    between atoms: C_18  and  C_23
   12  A    between atoms: C_18  and  O_26
   13  A    between atoms: C_19  and  O_26
   14  A    between atoms: C_21  and  C_36
   15  A    between atoms: C_22  and  C_34
   16  A    between atoms: C_25  and  C_33
                            x       y       z     vdW  Elec       q    Type
                         _______ _______ _______ _____ _____    ______ ____

>  <TORSDO>
F 16

$$$$
=
 OpenBabel11072414593D

 39 43  0  0  1  0  0  0  0  0999 V2000
  162.1660  206.2210  150.8140 O   0  0  0  0  0  0  0  0  0  0  0  0
  161.1390  207.4370  155.4600 O   0  0  0  0  0  1  0  0  0  0  0  0
  160.8710  208.0820  151.3250 C   0  0  2  0  0  3  0  0  0  0  0  0
  161.9790  207.2000  151.7970 C   0  0  1  0  0  3  0  0  0  0  0  0
  161.8210  206.8440  149.5880 C   0  0  2  0  0  3  0  0  0  0  0  0
  161.5760  206.6230  153.1470 C   0  0  0  0  0  2  0  0  0  0  0  0
  161.1660  207.7300  154.1000 C   0  0  0  0  0  0  0  0  0  0  0  0
  160.7780  208.9510  153.6600 C   0  0  0  0  0  0  0  0  0  0  0  0
  161.1800  208.2120  149.8600 C   0  0  2  0  0  3  0  0  0  0  0  0
  160.8190  209.3360  152.1910 C   0  0  0  0  0  2  0  0  0  0  0  0
  161.8760  210.3060  148.7380 C   0  0  0  0  0  3  0  0  0  0  0  0
  162.1640  209.3210  149.5850 C   0  0  0  0  0  3  0  0  0  0  0  0
  162.8290  211.4270  148.4720 C   0  0  0  0  0  2  0  0  0  0  0  0
  162.1050  212.7190  148.1000 C   0  0  0  0  0  2  0  0  0  0  0  0
  161.4470  212.5860  146.8100 N   0  0  0  0  0  2  0  0  0  0  0  0
  162.9010  214.0370  145.6980 O   0  0  0  0  0  0  0  0  0  0  0  0
  161.9000  213.2700  145.6370 C   0  0  0  0  0  0  0  0  0  0  0  0
  161.1690  213.0750  144.3390 C   0  0  1  0  0  3  0  0  0  0  0  0
  162.0780  212.5880  143.2230 C   0  0  0  0  0  2  0  0  0  0  0  0
  162.2800  213.6890  142.2050 C   0  0  0  0  0  2  0  0  0  0  0  0
  160.9810  214.4510  142.0280 C   0  0  0  0  0  1  0  0  0  0  0  0
  159.9210  212.1830  144.4870 C   0  0  0  0  0  2  0  0  0  0  0  0
  158.6130  212.9430  144.7460 C   0  0  0  0  0  2  0  0  0  0  0  0
  158.0570  212.6670  146.1330 C   0  0  1  0  0  3  0  0  0  0  0  0
  157.4140  213.9090  146.6770 C   0  0  2  0  0  0  0  0  0  0  0  0
  157.0790  213.1360  149.0420 C   0  0  0  0  0  2  0  0  0  0  0  0
  156.6060  214.1050  147.9740 C   0  0  1  0  0  3  0  0  0  0  0  0
  158.0500  213.8010  148.0810 C   0  0  2  0  0  3  0  0  0  0  0  0
  156.6910  212.8100  146.1300 O   0  0  0  0  0  0  0  0  0  0  0  0
  160.3810  206.3730  147.7440 O   0  0  0  0  0  0  0  0  0  0  0  0
  160.8520  205.9720  148.8370 C   0  0  0  0  0  0  0  0  0  0  0  0
  160.4860  204.7060  149.3020 O   0  0  0  0  0  0  0  0  0  0  0  0
  160.5060  202.3270  149.5270 C   0  0  0  0  0  1  0  0  0  0  0  0
  161.2570  203.5420  149.0400 C   0  0  0  0  0  3  0  0  0  0  0  0
  161.4780  203.4120  147.5420 C   0  0  0  0  0  1  0  0  0  0  0  0
  160.4160  210.0250  154.6400 C   0  0  0  0  0  2  0  0  0  0  0  0
  159.1910  210.6440  154.2660 O   0  0  0  0  0  0  0  0  0  0  0  0
  158.3310  211.1480  155.2350 C   0  0  0  0  0  3  0  0  0  0  0  0
  157.1730  211.5130  154.9160 O   0  0  0  0  0  0  0  0  0  0  0  0
  1  4  1  0  0  0  0
  3  4  1  0  0  0  0
  3 10  1  1  0  0  0
  4  6  1  1  0  0  0
  5 31  1  1  0  0  0
  5  9  1  0  0  0  0
  5  1  1  0  0  0  0
  6  7  1  0  0  0  0
  7  2  1  0  0  0  0
  8  7  2  0  0  0  0
  8 36  1  0  0  0  0
  9 12  1  1  0  0  0
  9  3  1  0  0  0  0
 10  8  1  0  0  0  0
 11 12  2  0  0  0  0
 13 11  1  0  0  0  0
 14 13  1  0  0  0  0
 15 14  1  0  0  0  0
 17 16  2  0  0  0  0
 17 15  1  0  0  0  0
 18 19  1  6  0  0  0
 18 22  1  0  0  0  0
 18 17  1  0  0  0  0
 20 19  1  0  0  0  0
 21 20  1  0  0  0  0
 22 23  1  0  0  0  0
 24 23  1  6  0  0  0
 24 25  1  0  0  0  0
 25 29  1  1  0  0  0
 25 27  1  0  0  0  0
 25 28  1  0  0  0  0
 27 28  1  0  0  0  0
 27 26  1  1  0  0  0
 28 26  1  1  0  0  0
 29 24  1  0  0  0  0
 30 31  2  0  0  0  0
 31 32  1  0  0  0  0
 34 32  1  0  0  0  0
 34 33  1  0  0  0  0
 35 34  1  0  0  0  0
 37 36  1  0  0  0  0
 37 38  1  0  0  0  0
 39 38  2  0  0  0  0
M  END
>  <MODEL>
4

>  <REMARK>
 VINA RESULT:      -6.2      1.940      8.535
  Name = 
  16 active torsions:
  status: ('A' for Active; 'I' for Inactive)
    1  A    between atoms: N_1  and  C_22
    2  A    between atoms: C_2  and  C_8
    3  A    between atoms: C_3  and  C_7
    4  A    between atoms: C_3  and  C_31
    5  A    between atoms: C_4  and  C_8
    6  A    between atoms: C_4  and  C_28
    7  A    between atoms: C_4  and  C_31
    8  A    between atoms: C_16  and  C_34
    9  A    between atoms: O_17  and  C_25
   10  A    between atoms: O_17  and  C_32
   11  A    between atoms: C_18  and  C_23
   12  A    between atoms: C_18  and  O_26
   13  A    between atoms: C_19  and  O_26
   14  A    between atoms: C_21  and  C_36
   15  A    between atoms: C_22  and  C_34
   16  A    between atoms: C_25  and  C_33
                            x       y       z     vdW  Elec       q    Type
                         _______ _______ _______ _____ _____    ______ ____

>  <TORSDO>
F 16

$$$$
=
 OpenBabel11072414593D

 39 43  0  0  1  0  0  0  0  0999 V2000
  162.0250  206.1100  151.5700 O   0  0  0  0  0  0  0  0  0  0  0  0
  160.8670  207.5800  156.1110 O   0  0  0  0  0  1  0  0  0  0  0  0
  160.7420  208.0110  151.9410 C   0  0  2  0  0  3  0  0  0  0  0  0
  161.8210  207.1410  152.4960 C   0  0  1  0  0  3  0  0  0  0  0  0
  161.7290  206.6720  150.3040 C   0  0  2  0  0  3  0  0  0  0  0  0
  161.3660  206.6410  153.8590 C   0  0  0  0  0  2  0  0  0  0  0  0
  160.9420  207.8010  154.7390 C   0  0  0  0  0  0  0  0  0  0  0  0
  160.5870  209.0030  154.2240 C   0  0  0  0  0  0  0  0  0  0  0  0
  161.1000  208.0610  150.4830 C   0  0  2  0  0  3  0  0  0  0  0  0
  160.6800  209.3100  152.7400 C   0  0  0  0  0  2  0  0  0  0  0  0
  161.8290  210.1330  149.3410 C   0  0  0  0  0  3  0  0  0  0  0  0
  162.1080  209.1410  150.1830 C   0  0  0  0  0  3  0  0  0  0  0  0
  162.8080  211.2260  149.0510 C   0  0  0  0  0  2  0  0  0  0  0  0
  162.3930  212.0610  147.8430 C   0  0  0  0  0  2  0  0  0  0  0  0
  160.9530  212.0010  147.6450 N   0  0  0  0  0  2  0  0  0  0  0  0
  160.7410  214.2540  147.0680 O   0  0  0  0  0  0  0  0  0  0  0  0
  160.1800  213.1370  147.2480 C   0  0  0  0  0  0  0  0  0  0  0  0
  158.6970  212.9920  147.0580 C   0  0  1  0  0  3  0  0  0  0  0  0
  157.9270  214.2270  147.4980 C   0  0  0  0  0  2  0  0  0  0  0  0
  156.5990  213.8210  148.0980 C   0  0  0  0  0  2  0  0  0  0  0  0
  156.7510  213.6780  149.6000 C   0  0  0  0  0  1  0  0  0  0  0  0
  158.3180  212.5660  145.6270 C   0  0  0  0  0  2  0  0  0  0  0  0
  158.5580  213.6360  144.5520 C   0  0  0  0  0  2  0  0  0  0  0  0
  159.8080  213.3540  143.7340 C   0  0  1  0  0  3  0  0  0  0  0  0
  159.4190  212.8170  142.3880 C   0  0  2  0  0  0  0  0  0  0  0  0
  161.6980  212.0980  141.6160 C   0  0  0  0  0  2  0  0  0  0  0  0
  160.3050  212.5030  141.1670 C   0  0  1  0  0  3  0  0  0  0  0  0
  160.4570  211.6720  142.3820 C   0  0  2  0  0  3  0  0  0  0  0  0
  159.8330  214.1600  142.6220 O   0  0  0  0  0  0  0  0  0  0  0  0
  160.3920  206.0940  148.4140 O   0  0  0  0  0  0  0  0  0  0  0  0
  160.7720  205.7740  149.5670 C   0  0  0  0  0  0  0  0  0  0  0  0
  160.3210  204.5710  150.1140 O   0  0  0  0  0  0  0  0  0  0  0  0
  161.1260  202.7910  151.4900 C   0  0  0  0  0  1  0  0  0  0  0  0
  161.1010  203.3840  150.1030 C   0  0  0  0  0  3  0  0  0  0  0  0
  160.4750  202.3790  149.1520 C   0  0  0  0  0  1  0  0  0  0  0  0
  160.2080  210.1300  155.1340 C   0  0  0  0  0  2  0  0  0  0  0  0
  160.5570  211.3780  154.5490 O   0  0  0  0  0  0  0  0  0  0  0  0
  159.7240  212.4820  154.6930 C   0  0  0  0  0  3  0  0  0  0  0  0
  158.5120  212.3200  154.9800 O   0  0  0  0  0  0  0  0  0  0  0  0
  1  4  1  0  0  0  0
  3  4  1  0  0  0  0
  3 10  1  1  0  0  0
  4  6  1  1  0  0  0
  5 31  1  1  0  0  0
  5  9  1  0  0  0  0
  5  1  1  0  0  0  0
  6  7  1  0  0  0  0
  7  2  1  0  0  0  0
  8  7  2  0  0  0  0
  8 36  1  0  0  0  0
  9 12  1  1  0  0  0
  9  3  1  0  0  0  0
 10  8  1  0  0  0  0
 11 12  2  0  0  0  0
 13 11  1  0  0  0  0
 14 13  1  0  0  0  0
 15 14  1  0  0  0  0
 16 17  2  0  0  0  0
 17 15  1  0  0  0  0
 18 22  1  6  0  0  0
 18 17  1  0  0  0  0
 18 19  1  0  0  0  0
 19 20  1  0  0  0  0
 20 21  1  0  0  0  0
 23 22  1  0  0  0  0
 24 23  1  1  0  0  0
 25 29  1  1  0  0  0
 25 24  1  0  0  0  0
 27 26  1  1  0  0  0
 27 28  1  0  0  0  0
 27 25  1  0  0  0  0
 28 26  1  1  0  0  0
 28 25  1  0  0  0  0
 29 24  1  0  0  0  0
 30 31  2  0  0  0  0
 31 32  1  0  0  0  0
 34 32  1  0  0  0  0
 34 33  1  0  0  0  0
 35 34  1  0  0  0  0
 37 38  1  0  0  0  0
 37 36  1  0  0  0  0
 38 39  2  0  0  0  0
M  END
>  <MODEL>
5

>  <REMARK>
 VINA RESULT:      -6.0      2.037      9.154
  Name = 
  16 active torsions:
  status: ('A' for Active; 'I' for Inactive)
    1  A    between atoms: N_1  and  C_22
    2  A    between atoms: C_2  and  C_8
    3  A    between atoms: C_3  and  C_7
    4  A    between atoms: C_3  and  C_31
    5  A    between atoms: C_4  and  C_8
    6  A    between atoms: C_4  and  C_28
    7  A    between atoms: C_4  and  C_31
    8  A    between atoms: C_16  and  C_34
    9  A    between atoms: O_17  and  C_25
   10  A    between atoms: O_17  and  C_32
   11  A    between atoms: C_18  and  C_23
   12  A    between atoms: C_18  and  O_26
   13  A    between atoms: C_19  and  O_26
   14  A    between atoms: C_21  and  C_36
   15  A    between atoms: C_22  and  C_34
   16  A    between atoms: C_25  and  C_33
                            x       y       z     vdW  Elec       q    Type
                         _______ _______ _______ _____ _____    ______ ____

>  <TORSDO>
F 16

$$$$
=
 OpenBabel11072414593D

 39 43  0  0  1  0  0  0  0  0999 V2000
  161.7480  209.6280  154.6060 O   0  0  0  0  0  0  0  0  0  0  0  0
  159.4340  213.8930  155.3670 O   0  0  0  0  0  1  0  0  0  0  0  0
  159.8880  210.2410  153.3540 C   0  0  2  0  0  3  0  0  0  0  0  0
  161.0760  210.7490  154.1030 C   0  0  1  0  0  3  0  0  0  0  0  0
  161.5100  208.5920  153.6690 C   0  0  2  0  0  3  0  0  0  0  0  0
  160.5770  211.6870  155.1930 C   0  0  0  0  0  2  0  0  0  0  0  0
  159.6660  212.7500  154.6080 C   0  0  0  0  0  0  0  0  0  0  0  0
  159.0440  212.5870  153.4150 C   0  0  0  0  0  0  0  0  0  0  0  0
  160.4550  209.0420  152.6490 C   0  0  2  0  0  3  0  0  0  0  0  0
  159.2870  211.3770  152.5310 C   0  0  0  0  0  2  0  0  0  0  0  0
  161.3660  208.4890  150.4150 C   0  0  0  0  0  3  0  0  0  0  0  0
  161.1070  209.4090  151.3400 C   0  0  0  0  0  3  0  0  0  0  0  0
  161.9900  208.8400  149.1010 C   0  0  0  0  0  2  0  0  0  0  0  0
  162.6900  207.6440  148.4610 C   0  0  0  0  0  2  0  0  0  0  0  0
  161.7530  206.8630  147.6690 N   0  0  0  0  0  2  0  0  0  0  0  0
  163.3010  205.2040  147.1150 O   0  0  0  0  0  0  0  0  0  0  0  0
  162.1200  205.6400  147.0230 C   0  0  0  0  0  0  0  0  0  0  0  0
  161.0920  204.8870  146.2270 C   0  0  1  0  0  3  0  0  0  0  0  0
  160.5120  205.7140  145.0900 C   0  0  0  0  0  2  0  0  0  0  0  0
  160.7700  205.0240  143.7680 C   0  0  0  0  0  2  0  0  0  0  0  0
  161.5840  205.9400  142.8760 C   0  0  0  0  0  1  0  0  0  0  0  0
  161.6040  203.5210  145.7340 C   0  0  0  0  0  2  0  0  0  0  0  0
  160.8720  202.3070  146.3250 C   0  0  0  0  0  2  0  0  0  0  0  0
  161.3200  202.0080  147.7460 C   0  0  1  0  0  3  0  0  0  0  0  0
  160.1490  201.5260  148.5530 C   0  0  2  0  0  0  0  0  0  0  0  0
  161.2200  201.6050  150.8230 C   0  0  0  0  0  2  0  0  0  0  0  0
  160.1120  200.9800  149.9940 C   0  0  1  0  0  3  0  0  0  0  0  0
  160.4500  202.4060  149.7870 C   0  0  2  0  0  3  0  0  0  0  0  0
  161.1560  200.6710  148.0190 O   0  0  0  0  0  0  0  0  0  0  0  0
  160.2680  207.4950  155.3880 O   0  0  0  0  0  0  0  0  0  0  0  0
  161.0230  207.3650  154.3920 C   0  0  0  0  0  0  0  0  0  0  0  0
  161.3560  206.0770  153.9650 O   0  0  0  0  0  0  0  0  0  0  0  0
  162.6680  205.7610  151.9940 C   0  0  0  0  0  1  0  0  0  0  0  0
  161.2900  205.6810  152.6030 C   0  0  0  0  0  3  0  0  0  0  0  0
  160.8010  204.2440  152.5200 C   0  0  0  0  0  1  0  0  0  0  0  0
  158.1820  213.6790  152.8610 C   0  0  0  0  0  2  0  0  0  0  0  0
  156.9430  213.7340  153.5570 O   0  0  0  0  0  0  0  0  0  0  0  0
  155.7460  213.8460  152.8590 C   0  0  0  0  0  3  0  0  0  0  0  0
  154.6610  213.5640  153.4270 O   0  0  0  0  0  0  0  0  0  0  0  0
  3 10  1  6  0  0  0
  3  4  1  0  0  0  0
  4  1  1  0  0  0  0
  4  6  1  1  0  0  0
  5 31  1  1  0  0  0
  5  1  1  0  0  0  0
  7  6  1  0  0  0  0
  7  2  1  0  0  0  0
  8  7  2  0  0  0  0
  9 12  1  6  0  0  0
  9  3  1  0  0  0  0
  9  5  1  0  0  0  0
 10  8  1  0  0  0  0
 11 12  2  0  0  0  0
 13 11  1  0  0  0  0
 14 13  1  0  0  0  0
 15 14  1  0  0  0  0
 17 16  2  0  0  0  0
 17 15  1  0  0  0  0
 18 19  1  6  0  0  0
 18 17  1  0  0  0  0
 20 19  1  0  0  0  0
 21 20  1  0  0  0  0
 22 18  1  0  0  0  0
 22 23  1  0  0  0  0
 24 23  1  6  0  0  0
 24 29  1  0  0  0  0
 24 25  1  0  0  0  0
 25 29  1  1  0  0  0
 25 28  1  0  0  0  0
 25 27  1  0  0  0  0
 27 26  1  6  0  0  0
 28 27  1  0  0  0  0
 28 26  1  6  0  0  0
 31 30  2  0  0  0  0
 32 31  1  0  0  0  0
 33 34  1  0  0  0  0
 34 32  1  0  0  0  0
 35 34  1  0  0  0  0
 36  8  1  0  0  0  0
 36 37  1  0  0  0  0
 38 39  2  0  0  0  0
 38 37  1  0  0  0  0
M  END
>  <MODEL>
6

>  <REMARK>
 VINA RESULT:      -5.9      3.945      7.020
  Name = 
  16 active torsions:
  status: ('A' for Active; 'I' for Inactive)
    1  A    between atoms: N_1  and  C_22
    2  A    between atoms: C_2  and  C_8
    3  A    between atoms: C_3  and  C_7
    4  A    between atoms: C_3  and  C_31
    5  A    between atoms: C_4  and  C_8
    6  A    between atoms: C_4  and  C_28
    7  A    between atoms: C_4  and  C_31
    8  A    between atoms: C_16  and  C_34
    9  A    between atoms: O_17  and  C_25
   10  A    between atoms: O_17  and  C_32
   11  A    between atoms: C_18  and  C_23
   12  A    between atoms: C_18  and  O_26
   13  A    between atoms: C_19  and  O_26
   14  A    between atoms: C_21  and  C_36
   15  A    between atoms: C_22  and  C_34
   16  A    between atoms: C_25  and  C_33
                            x       y       z     vdW  Elec       q    Type
                         _______ _______ _______ _____ _____    ______ ____

>  <TORSDO>
F 16

$$$$
=
 OpenBabel11072414593D

 39 43  0  0  1  0  0  0  0  0999 V2000
  162.2540  206.0200  151.6880 O   0  0  0  0  0  0  0  0  0  0  0  0
  160.9950  208.0280  155.9900 O   0  0  0  0  0  1  0  0  0  0  0  0
  160.8450  207.8650  151.8020 C   0  0  2  0  0  3  0  0  0  0  0  0
  161.9800  207.1550  152.4630 C   0  0  1  0  0  3  0  0  0  0  0  0
  161.9220  206.3800  150.3580 C   0  0  2  0  0  3  0  0  0  0  0  0
  161.5590  206.8190  153.8860 C   0  0  0  0  0  2  0  0  0  0  0  0
  161.0560  208.0600  154.6000 C   0  0  0  0  0  0  0  0  0  0  0  0
  160.6210  209.1520  153.9260 C   0  0  0  0  0  0  0  0  0  0  0  0
  161.2010  207.7350  150.3480 C   0  0  2  0  0  3  0  0  0  0  0  0
  160.6950  209.2550  152.4130 C   0  0  0  0  0  2  0  0  0  0  0  0
  161.7300  209.7750  149.0500 C   0  0  0  0  0  3  0  0  0  0  0  0
  162.1340  208.8280  149.8930 C   0  0  0  0  0  3  0  0  0  0  0  0
  162.6350  210.8810  148.6070 C   0  0  0  0  0  2  0  0  0  0  0  0
  161.9310  212.2360  148.6190 C   0  0  0  0  0  2  0  0  0  0  0  0
  161.8640  212.7920  147.2770 N   0  0  0  0  0  2  0  0  0  0  0  0
  159.7290  211.9580  146.8270 O   0  0  0  0  0  0  0  0  0  0  0  0
  160.7250  212.6230  146.4270 C   0  0  0  0  0  0  0  0  0  0  0  0
  160.7290  213.2350  145.0550 C   0  0  1  0  0  3  0  0  0  0  0  0
  161.9240  214.1460  144.8240 C   0  0  0  0  0  2  0  0  0  0  0  0
  162.9720  213.4230  144.0060 C   0  0  0  0  0  2  0  0  0  0  0  0
  163.9210  214.4390  143.4000 C   0  0  0  0  0  1  0  0  0  0  0  0
  160.5880  212.1860  143.9360 C   0  0  0  0  0  2  0  0  0  0  0  0
  159.7140  212.6240  142.7510 C   0  0  0  0  0  2  0  0  0  0  0  0
  160.4440  212.4900  141.4240 C   0  0  1  0  0  3  0  0  0  0  0  0
  159.7470  211.4750  140.5650 C   0  0  2  0  0  0  0  0  0  0  0  0
  161.4900  211.2670  138.7690 C   0  0  0  0  0  2  0  0  0  0  0  0
  160.0200  211.0800  139.1010 C   0  0  1  0  0  3  0  0  0  0  0  0
  161.0370  210.7470  140.1230 C   0  0  2  0  0  3  0  0  0  0  0  0
  159.6240  212.8840  140.3950 O   0  0  0  0  0  0  0  0  0  0  0  0
  160.0790  204.8660  150.4430 O   0  0  0  0  0  0  0  0  0  0  0  0
  161.0290  205.3270  149.7620 C   0  0  0  0  0  0  0  0  0  0  0  0
  161.2000  204.8690  148.4520 O   0  0  0  0  0  0  0  0  0  0  0  0
  162.4150  204.7150  146.4020 C   0  0  0  0  0  1  0  0  0  0  0  0
  161.8480  205.6390  147.4510 C   0  0  0  0  0  3  0  0  0  0  0  0
  160.8380  206.5640  146.7940 C   0  0  0  0  0  1  0  0  0  0  0  0
  160.1670  210.3670  154.6740 C   0  0  0  0  0  2  0  0  0  0  0  0
  158.7470  210.4420  154.6820 O   0  0  0  0  0  0  0  0  0  0  0  0
  158.0920  211.4920  154.0480 C   0  0  0  0  0  3  0  0  0  0  0  0
  158.6590  212.1120  153.1150 O   0  0  0  0  0  0  0  0  0  0  0  0
  1  4  1  0  0  0  0
  3 10  1  1  0  0  0
  3  4  1  0  0  0  0
  4  6  1  1  0  0  0
  5 31  1  1  0  0  0
  5  1  1  0  0  0  0
  6  7  1  0  0  0  0
  7  2  1  0  0  0  0
  8  7  2  0  0  0  0
  8 36  1  0  0  0  0
  9 12  1  1  0  0  0
  9  5  1  0  0  0  0
  9  3  1  0  0  0  0
 10  8  1  0  0  0  0
 11 12  2  0  0  0  0
 13 14  1  0  0  0  0
 13 11  1  0  0  0  0
 15 14  1  0  0  0  0
 17 16  2  0  0  0  0
 17 15  1  0  0  0  0
 18 22  1  6  0  0  0
 18 17  1  0  0  0  0
 19 18  1  0  0  0  0
 20 19  1  0  0  0  0
 21 20  1  0  0  0  0
 23 22  1  0  0  0  0
 24 23  1  1  0  0  0
 25 29  1  6  0  0  0
 25 24  1  0  0  0  0
 27 26  1  6  0  0  0
 27 28  1  0  0  0  0
 27 25  1  0  0  0  0
 28 26  1  6  0  0  0
 28 25  1  0  0  0  0
 29 24  1  0  0  0  0
 31 30  2  0  0  0  0
 32 31  1  0  0  0  0
 33 34  1  0  0  0  0
 34 32  1  0  0  0  0
 35 34  1  0  0  0  0
 36 37  1  0  0  0  0
 38 37  1  0  0  0  0
 39 38  2  0  0  0  0
M  END
>  <MODEL>
7

>  <REMARK>
 VINA RESULT:      -5.9      2.537      9.295
  Name = 
  16 active torsions:
  status: ('A' for Active; 'I' for Inactive)
    1  A    between atoms: N_1  and  C_22
    2  A    between atoms: C_2  and  C_8
    3  A    between atoms: C_3  and  C_7
    4  A    between atoms: C_3  and  C_31
    5  A    between atoms: C_4  and  C_8
    6  A    between atoms: C_4  and  C_28
    7  A    between atoms: C_4  and  C_31
    8  A    between atoms: C_16  and  C_34
    9  A    between atoms: O_17  and  C_25
   10  A    between atoms: O_17  and  C_32
   11  A    between atoms: C_18  and  C_23
   12  A    between atoms: C_18  and  O_26
   13  A    between atoms: C_19  and  O_26
   14  A    between atoms: C_21  and  C_36
   15  A    between atoms: C_22  and  C_34
   16  A    between atoms: C_25  and  C_33
                            x       y       z     vdW  Elec       q    Type
                         _______ _______ _______ _____ _____    ______ ____

>  <TORSDO>
F 16

$$$$
=
 OpenBabel11072414593D

 39 43  0  0  1  0  0  0  0  0999 V2000
  160.5750  206.8150  150.4870 O   0  0  0  0  0  0  0  0  0  0  0  0
  161.1800  203.1480  147.2760 O   0  0  0  0  0  1  0  0  0  0  0  0
  162.3270  206.8130  148.9600 C   0  0  2  0  0  3  0  0  0  0  0  0
  160.9220  206.3710  149.2040 C   0  0  1  0  0  3  0  0  0  0  0  0
  161.3080  208.0110  150.6850 C   0  0  2  0  0  3  0  0  0  0  0  0
  160.8760  204.8570  149.0620 C   0  0  0  0  0  2  0  0  0  0  0  0
  161.4790  204.4260  147.7390 C   0  0  0  0  0  0  0  0  0  0  0  0
  162.3280  205.2190  147.0430 C   0  0  0  0  0  0  0  0  0  0  0  0
  162.3260  208.1950  149.5510 C   0  0  2  0  0  3  0  0  0  0  0  0
  162.6640  206.6330  147.4830 C   0  0  0  0  0  2  0  0  0  0  0  0
  161.9940  210.5320  148.8040 C   0  0  0  0  0  3  0  0  0  0  0  0
  161.8420  209.2310  148.5680 C   0  0  0  0  0  3  0  0  0  0  0  0
  161.5430  211.5720  147.8290 C   0  0  0  0  0  2  0  0  0  0  0  0
  161.1900  212.8880  148.5180 C   0  0  0  0  0  2  0  0  0  0  0  0
  160.7220  212.6500  149.8740 N   0  0  0  0  0  2  0  0  0  0  0  0
  159.2040  214.4250  149.8710 O   0  0  0  0  0  0  0  0  0  0  0  0
  159.7150  213.4540  150.4960 C   0  0  0  0  0  0  0  0  0  0  0  0
  159.2790  213.1390  151.8990 C   0  0  1  0  0  3  0  0  0  0  0  0
  158.1050  213.9910  152.3520 C   0  0  0  0  0  2  0  0  0  0  0  0
  158.0430  214.0200  153.8640 C   0  0  0  0  0  2  0  0  0  0  0  0
  156.7550  213.3660  154.3240 C   0  0  0  0  0  1  0  0  0  0  0  0
  159.0100  211.6380  152.1160 C   0  0  0  0  0  2  0  0  0  0  0  0
  160.1230  210.8840  152.8580 C   0  0  0  0  0  2  0  0  0  0  0  0
  160.4650  211.5360  154.1880 C   0  0  1  0  0  3  0  0  0  0  0  0
  160.2750  210.5440  155.2990 C   0  0  2  0  0  0  0  0  0  0  0  0
  160.4930  212.1280  157.2350 C   0  0  0  0  0  2  0  0  0  0  0  0
  160.6080  210.6790  156.7970 C   0  0  1  0  0  3  0  0  0  0  0  0
  159.5240  211.5160  156.2360 C   0  0  2  0  0  3  0  0  0  0  0  0
  161.5430  210.9040  154.7580 O   0  0  0  0  0  0  0  0  0  0  0  0
  162.6440  208.9570  152.4230 O   0  0  0  0  0  0  0  0  0  0  0  0
  162.0280  207.9450  152.0050 C   0  0  0  0  0  0  0  0  0  0  0  0
  162.0030  206.7970  152.8020 O   0  0  0  0  0  0  0  0  0  0  0  0
  160.8490  204.8360  153.5280 C   0  0  0  0  0  1  0  0  0  0  0  0
  160.8240  206.3430  153.4510 C   0  0  0  0  0  3  0  0  0  0  0  0
  160.7790  206.9040  154.8620 C   0  0  0  0  0  1  0  0  0  0  0  0
  162.8710  204.7660  145.7230 C   0  0  0  0  0  2  0  0  0  0  0  0
  162.0360  205.2140  144.6630 O   0  0  0  0  0  0  0  0  0  0  0  0
  160.6540  205.2420  144.8160 C   0  0  0  0  0  3  0  0  0  0  0  0
  160.0750  206.3240  145.0830 O   0  0  0  0  0  0  0  0  0  0  0  0
  1  5  1  0  0  0  0
  2  7  1  0  0  0  0
  3 10  1  6  0  0  0
  3  4  1  0  0  0  0
  3  9  1  0  0  0  0
  4  6  1  1  0  0  0
  4  1  1  0  0  0  0
  5 31  1  1  0  0  0
  7  6  1  0  0  0  0
  8 10  1  0  0  0  0
  8  7  2  0  0  0  0
  9 12  1  6  0  0  0
  9  5  1  0  0  0  0
 12 11  2  0  0  0  0
 13 14  1  0  0  0  0
 13 11  1  0  0  0  0
 14 15  1  0  0  0  0
 15 17  1  0  0  0  0
 16 17  2  0  0  0  0
 17 18  1  0  0  0  0
 18 22  1  6  0  0  0
 18 19  1  0  0  0  0
 19 20  1  0  0  0  0
 20 21  1  0  0  0  0
 22 23  1  0  0  0  0
 24 23  1  6  0  0  0
 24 29  1  0  0  0  0
 24 25  1  0  0  0  0
 25 29  1  1  0  0  0
 25 28  1  0  0  0  0
 25 27  1  0  0  0  0
 27 26  1  6  0  0  0
 28 27  1  0  0  0  0
 28 26  1  6  0  0  0
 31 30  2  0  0  0  0
 31 32  1  0  0  0  0
 32 34  1  0  0  0  0
 34 33  1  0  0  0  0
 34 35  1  0  0  0  0
 36  8  1  0  0  0  0
 37 38  1  0  0  0  0
 37 36  1  0  0  0  0
 38 39  2  0  0  0  0
M  END
>  <MODEL>
8

>  <REMARK>
 VINA RESULT:      -5.6      2.852      8.828
  Name = 
  16 active torsions:
  status: ('A' for Active; 'I' for Inactive)
    1  A    between atoms: N_1  and  C_22
    2  A    between atoms: C_2  and  C_8
    3  A    between atoms: C_3  and  C_7
    4  A    between atoms: C_3  and  C_31
    5  A    between atoms: C_4  and  C_8
    6  A    between atoms: C_4  and  C_28
    7  A    between atoms: C_4  and  C_31
    8  A    between atoms: C_16  and  C_34
    9  A    between atoms: O_17  and  C_25
   10  A    between atoms: O_17  and  C_32
   11  A    between atoms: C_18  and  C_23
   12  A    between atoms: C_18  and  O_26
   13  A    between atoms: C_19  and  O_26
   14  A    between atoms: C_21  and  C_36
   15  A    between atoms: C_22  and  C_34
   16  A    between atoms: C_25  and  C_33
                            x       y       z     vdW  Elec       q    Type
                         _______ _______ _______ _____ _____    ______ ____

>  <TORSDO>
F 16

$$$$
=
 OpenBabel11072414593D

 39 43  0  0  1  0  0  0  0  0999 V2000
  160.4100  205.2020  150.9550 O   0  0  0  0  0  0  0  0  0  0  0  0
  160.7960  201.9540  147.2910 O   0  0  0  0  0  1  0  0  0  0  0  0
  162.0390  205.4130  149.3110 C   0  0  2  0  0  3  0  0  0  0  0  0
  160.6610  204.9200  149.6060 C   0  0  1  0  0  3  0  0  0  0  0  0
  161.1450  206.3790  151.2400 C   0  0  2  0  0  3  0  0  0  0  0  0
  160.6160  203.4330  149.2870 C   0  0  0  0  0  2  0  0  0  0  0  0
  161.1190  203.1730  147.8800 C   0  0  0  0  0  0  0  0  0  0  0  0
  161.9060  204.0590  147.2220 C   0  0  0  0  0  0  0  0  0  0  0  0
  162.0710  206.7140  150.0620 C   0  0  2  0  0  3  0  0  0  0  0  0
  162.2620  205.4160  147.8020 C   0  0  0  0  0  2  0  0  0  0  0  0
  162.2020  208.9640  149.0360 C   0  0  0  0  0  3  0  0  0  0  0  0
  161.5040  207.8510  149.2500 C   0  0  0  0  0  3  0  0  0  0  0  0
  161.6640  210.0910  148.2130 C   0  0  0  0  0  2  0  0  0  0  0  0
  161.9490  211.4500  148.8470 C   0  0  0  0  0  2  0  0  0  0  0  0
  160.7090  212.1290  149.1870 N   0  0  0  0  0  2  0  0  0  0  0  0
  161.4440  214.2350  148.4930 O   0  0  0  0  0  0  0  0  0  0  0  0
  160.5140  213.5310  148.9770 C   0  0  0  0  0  0  0  0  0  0  0  0
  159.2000  214.1580  149.3480 C   0  0  1  0  0  3  0  0  0  0  0  0
  158.3300  214.4530  148.1370 C   0  0  0  0  0  2  0  0  0  0  0  0
  157.3360  213.3310  147.9310 C   0  0  0  0  0  2  0  0  0  0  0  0
  157.1350  213.1070  146.4450 C   0  0  0  0  0  1  0  0  0  0  0  0
  158.4360  213.3520  150.4150 C   0  0  0  0  0  2  0  0  0  0  0  0
  158.4550  213.9660  151.8230 C   0  0  0  0  0  2  0  0  0  0  0  0
  159.3320  213.1730  152.7790 C   0  0  1  0  0  3  0  0  0  0  0  0
  158.4690  212.4510  153.7730 C   0  0  2  0  0  0  0  0  0  0  0  0
  160.2810  211.7020  155.3420 C   0  0  0  0  0  2  0  0  0  0  0  0
  158.8690  211.4290  154.8540 C   0  0  1  0  0  3  0  0  0  0  0  0
  159.3200  212.8300  155.0070 C   0  0  2  0  0  3  0  0  0  0  0  0
  159.0790  211.8300  152.6450 O   0  0  0  0  0  0  0  0  0  0  0  0
  163.1850  205.8830  152.3770 O   0  0  0  0  0  0  0  0  0  0  0  0
  161.9660  206.1680  152.4830 C   0  0  0  0  0  0  0  0  0  0  0  0
  161.4210  206.3190  153.7610 O   0  0  0  0  0  0  0  0  0  0  0  0
  160.2920  207.3680  155.5860 C   0  0  0  0  0  1  0  0  0  0  0  0
  160.5440  207.3830  154.0990 C   0  0  0  0  0  3  0  0  0  0  0  0
  161.1910  208.7060  153.7250 C   0  0  0  0  0  1  0  0  0  0  0  0
  162.3490  203.7750  145.8190 C   0  0  0  0  0  2  0  0  0  0  0  0
  161.2800  203.9970  144.9080 O   0  0  0  0  0  0  0  0  0  0  0  0
  160.9380  205.2870  144.5200 C   0  0  0  0  0  3  0  0  0  0  0  0
  161.5840  205.8590  143.6070 O   0  0  0  0  0  0  0  0  0  0  0  0
  1  5  1  0  0  0  0
  2  7  1  0  0  0  0
  3 10  1  6  0  0  0
  3  4  1  0  0  0  0
  3  9  1  0  0  0  0
  4  6  1  1  0  0  0
  4  1  1  0  0  0  0
  5 31  1  1  0  0  0
  7  6  1  0  0  0  0
  8 10  1  0  0  0  0
  8  7  2  0  0  0  0
  9 12  1  6  0  0  0
  9  5  1  0  0  0  0
 11 12  2  0  0  0  0
 13 14  1  0  0  0  0
 13 11  1  0  0  0  0
 14 15  1  0  0  0  0
 16 17  2  0  0  0  0
 17 15  1  0  0  0  0
 17 18  1  0  0  0  0
 18 19  1  6  0  0  0
 18 22  1  0  0  0  0
 20 19  1  0  0  0  0
 21 20  1  0  0  0  0
 22 23  1  0  0  0  0
 24 23  1  6  0  0  0
 24 25  1  0  0  0  0
 25 29  1  6  0  0  0
 25 27  1  0  0  0  0
 25 28  1  0  0  0  0
 27 28  1  0  0  0  0
 27 26  1  6  0  0  0
 28 26  1  6  0  0  0
 29 24  1  0  0  0  0
 30 31  2  0  0  0  0
 31 32  1  0  0  0  0
 32 34  1  0  0  0  0
 34 33  1  0  0  0  0
 35 34  1  0  0  0  0
 36  8  1  0  0  0  0
 37 36  1  0  0  0  0
 38 37  1  0  0  0  0
 39 38  2  0  0  0  0
M  END
>  <MODEL>
9

>  <REMARK>
 VINA RESULT:      -5.6      2.480      9.429
  Name = 
  16 active torsions:
  status: ('A' for Active; 'I' for Inactive)
    1  A    between atoms: N_1  and  C_22
    2  A    between atoms: C_2  and  C_8
    3  A    between atoms: C_3  and  C_7
    4  A    between atoms: C_3  and  C_31
    5  A    between atoms: C_4  and  C_8
    6  A    between atoms: C_4  and  C_28
    7  A    between atoms: C_4  and  C_31
    8  A    between atoms: C_16  and  C_34
    9  A    between atoms: O_17  and  C_25
   10  A    between atoms: O_17  and  C_32
   11  A    between atoms: C_18  and  C_23
   12  A    between atoms: C_18  and  O_26
   13  A    between atoms: C_19  and  O_26
   14  A    between atoms: C_21  and  C_36
   15  A    between atoms: C_22  and  C_34
   16  A    between atoms: C_25  and  C_33
                            x       y       z     vdW  Elec       q    Type
                         _______ _______ _______ _____ _____    ______ ____

>  <TORSDO>
F 16

$$$$
