=
 OpenBabel11072413113D

 34 38  0  0  1  0  0  0  0  0999 V2000
  159.1130  210.6920  154.7550 C   0  0  1  0  0  3  0  0  0  0  0  0
  161.2110  205.5860  152.9850 C   0  0  0  0  0  0  0  0  0  0  0  0
  161.6710  210.8750  153.9140 C   0  0  0  0  0  2  0  0  0  0  0  0
  161.1410  204.2340  152.9390 F   0  0  0  0  0  0  0  0  0  0  0  0
  158.6530  208.5730  155.7470 O   0  0  0  0  0  0  0  0  0  0  0  0
  161.9870  210.1110  151.2570 S   0  0  0  0  0  0  0  0  0  0  0  0
  161.1280  206.2700  151.8880 N   0  0  0  0  0  0  0  0  0  0  0  0
  161.4400  207.5340  154.3920 C   0  0  0  0  0  0  0  0  0  0  0  0
  158.2460  212.3650  152.6210 C   0  0  0  0  0  2  0  0  0  0  0  0
  157.5180  214.4530  153.4880 O   0  0  0  0  0  0  0  0  0  0  0  0
  161.2140  207.6970  151.9250 C   0  0  0  0  0  0  0  0  0  0  0  0
  160.8480  209.3060  155.9940 N   0  0  0  0  0  2  0  0  0  0  0  0
  159.5040  209.4790  155.5450 C   0  0  0  0  0  0  0  0  0  0  0  0
  161.5910  208.4130  150.8790 C   0  0  0  0  0  0  0  0  0  0  0  0
  161.1040  208.4410  153.2100 C   0  0  2  0  0  3  0  0  0  0  0  0
  158.4190  211.6970  155.6220 C   0  0  0  0  0  3  0  0  0  0  0  0
  161.4300  206.2410  154.2450 N   0  0  0  0  0  0  0  0  0  0  0  0
  157.8860  212.8370  155.1640 C   0  0  0  0  0  3  0  0  0  0  0  0
  161.5710  208.0560  155.8010 C   0  0  0  0  0  2  0  0  0  0  0  0
  160.2160  211.3810  153.9150 C   0  0  1  0  0  3  0  0  0  0  0  0
  157.8770  213.2770  153.7530 C   0  0  0  0  0  0  0  0  0  0  0  0
  159.7360  212.0200  152.6090 C   0  0  0  0  0  2  0  0  0  0  0  0
  162.0050  209.6660  153.0290 C   0  0  2  0  0  3  0  0  0  0  0  0
  161.9710  207.7970  149.5740 C   0  0  0  0  0  2  0  0  0  0  0  0
  160.8850  207.0960  149.0450 O   0  0  0  0  0  0  0  0  0  0  0  0
  161.6100  203.6330  147.8690 C   0  0  0  0  0  2  0  0  0  0  0  0
  161.0260  204.7220  148.7670 C   0  0  0  0  0  2  0  0  0  0  0  0
  161.2340  202.9230  145.6220 O   0  0  0  0  0  0  0  0  0  0  0  0
  161.4520  206.0960  148.2530 C   0  0  1  0  0  3  0  0  0  0  0  0
  160.9750  205.2580  145.9580 C   0  0  0  0  0  0  0  0  0  0  0  0
  161.2580  203.8860  146.4310 C   0  0  0  0  0  0  0  0  0  0  0  0
  161.0310  206.2840  146.8210 C   0  0  0  0  0  3  0  0  0  0  0  0
  160.6250  205.4550  144.6160 O   0  0  0  0  0  0  0  0  0  0  0  0
  161.5860  205.6120  143.5790 C   0  0  0  0  0  1  0  0  0  0  0  0
  1 13  1  0  0  0  0
  1 16  1  1  0  0  0
  2 17  1  0  0  0  0
  3 20  1  0  0  0  0
  4  2  1  0  0  0  0
  6 23  1  0  0  0  0
  7 11  1  0  0  0  0
  7  2  2  0  0  0  0
  8 19  1  0  0  0  0
  9 21  1  0  0  0  0
 10 21  2  0  0  0  0
 13  5  2  0  0  0  0
 13 12  1  0  0  0  0
 14  6  1  0  0  0  0
 14 11  2  0  0  0  0
 15 11  1  6  0  0  0
 15  8  1  0  0  0  0
 17  8  2  0  0  0  0
 18 16  2  0  0  0  0
 19 12  1  0  0  0  0
 20 22  1  6  0  0  0
 20  1  1  0  0  0  0
 21 18  1  0  0  0  0
 22  9  1  0  0  0  0
 23 15  1  0  0  0  0
 23  3  1  1  0  0  0
 24 14  1  0  0  0  0
 25 24  1  0  0  0  0
 26 27  1  0  0  0  0
 28 31  2  0  0  0  0
 29 27  1  0  0  0  0
 29 25  1  1  0  0  0
 30 31  1  0  0  0  0
 30 32  2  0  0  0  0
 31 26  1  0  0  0  0
 32 29  1  0  0  0  0
 33 30  1  0  0  0  0
 34 33  1  0  0  0  0
M  END
>  <MODEL>
1

>  <REMARK>
 VINA RESULT:      -8.7      0.000      0.000
  Name = 
  4 active torsions:
  status: ('A' for Active; 'I' for Inactive)
    1  A    between atoms: C_6  and  O_12
    2  A    between atoms: C_6  and  C_21
    3  A    between atoms: O_12  and  C_15
    4  A    between atoms: C_20  and  O_26
                            x       y       z     vdW  Elec       q    Type
                         _______ _______ _______ _____ _____    ______ ____

>  <TORSDO>
F 4

$$$$
=
 OpenBabel11072413113D

 34 38  0  0  1  0  0  0  0  0999 V2000
  159.2790  210.7050  154.6100 C   0  0  1  0  0  3  0  0  0  0  0  0
  161.1300  205.4070  153.1580 C   0  0  0  0  0  0  0  0  0  0  0  0
  161.8400  210.7160  153.7610 C   0  0  0  0  0  2  0  0  0  0  0  0
  160.9960  204.0600  153.1940 F   0  0  0  0  0  0  0  0  0  0  0  0
  158.7220  208.6750  155.7290 O   0  0  0  0  0  0  0  0  0  0  0  0
  162.1150  209.7770  151.1550 S   0  0  0  0  0  0  0  0  0  0  0  0
  161.0770  206.0260  152.0200 N   0  0  0  0  0  0  0  0  0  0  0  0
  161.4530  207.4260  154.4420 C   0  0  0  0  0  0  0  0  0  0  0  0
  158.4870  212.2840  152.3760 C   0  0  0  0  0  2  0  0  0  0  0  0
  157.8600  214.4530  153.1130 O   0  0  0  0  0  0  0  0  0  0  0  0
  161.2290  207.4470  151.9700 C   0  0  0  0  0  0  0  0  0  0  0  0
  160.9490  209.3180  155.9320 N   0  0  0  0  0  2  0  0  0  0  0  0
  159.6130  209.5270  155.4730 C   0  0  0  0  0  0  0  0  0  0  0  0
  161.6380  208.0800  150.8820 C   0  0  0  0  0  0  0  0  0  0  0  0
  161.1580  208.2730  153.2070 C   0  0  2  0  0  3  0  0  0  0  0  0
  158.6350  211.7930  155.4130 C   0  0  0  0  0  3  0  0  0  0  0  0
  161.3820  206.1270  154.3750 N   0  0  0  0  0  0  0  0  0  0  0  0
  158.1540  212.9270  154.8850 C   0  0  0  0  0  3  0  0  0  0  0  0
  161.6120  208.0260  155.8160 C   0  0  0  0  0  2  0  0  0  0  0  0
  160.4110  211.2890  153.7290 C   0  0  1  0  0  3  0  0  0  0  0  0
  158.1640  213.2800  153.4490 C   0  0  0  0  0  0  0  0  0  0  0  0
  159.9590  211.8690  152.3860 C   0  0  0  0  0  2  0  0  0  0  0  0
  162.1150  209.4400  152.9510 C   0  0  2  0  0  3  0  0  0  0  0  0
  161.9860  207.3670  149.6170 C   0  0  0  0  0  2  0  0  0  0  0  0
  161.1930  207.8420  148.5710 O   0  0  0  0  0  0  0  0  0  0  0  0
  161.6330  205.3610  145.8220 C   0  0  0  0  0  2  0  0  0  0  0  0
  161.9150  206.6180  146.6430 C   0  0  0  0  0  2  0  0  0  0  0  0
  161.8290  203.0150  146.2140 O   0  0  0  0  0  0  0  0  0  0  0  0
  160.9130  206.7180  147.7920 C   0  0  1  0  0  3  0  0  0  0  0  0
  161.2390  204.2740  148.1370 C   0  0  0  0  0  0  0  0  0  0  0  0
  161.5910  204.1480  146.7070 C   0  0  0  0  0  0  0  0  0  0  0  0
  160.9590  205.4820  148.6490 C   0  0  0  0  0  3  0  0  0  0  0  0
  161.2350  203.1250  148.9390 O   0  0  0  0  0  0  0  0  0  0  0  0
  160.4930  203.0280  150.1480 C   0  0  0  0  0  1  0  0  0  0  0  0
  1 16  1  1  0  0  0
  1 13  1  0  0  0  0
  2  4  1  0  0  0  0
  2 17  1  0  0  0  0
  6 23  1  0  0  0  0
  7  2  2  0  0  0  0
  8 19  1  0  0  0  0
  9 22  1  0  0  0  0
  9 21  1  0  0  0  0
 10 21  2  0  0  0  0
 11  7  1  0  0  0  0
 13  5  2  0  0  0  0
 13 12  1  0  0  0  0
 14  6  1  0  0  0  0
 14 11  2  0  0  0  0
 15 11  1  6  0  0  0
 15  8  1  0  0  0  0
 17  8  2  0  0  0  0
 18 16  2  0  0  0  0
 19 12  1  0  0  0  0
 20 22  1  6  0  0  0
 20  3  1  0  0  0  0
 20  1  1  0  0  0  0
 21 18  1  0  0  0  0
 23 15  1  0  0  0  0
 23  3  1  1  0  0  0
 24 14  1  0  0  0  0
 25 24  1  0  0  0  0
 26 27  1  0  0  0  0
 26 31  1  0  0  0  0
 27 29  1  0  0  0  0
 28 31  2  0  0  0  0
 29 25  1  1  0  0  0
 29 32  1  0  0  0  0
 30 32  2  0  0  0  0
 30 33  1  0  0  0  0
 31 30  1  0  0  0  0
 33 34  1  0  0  0  0
M  END
>  <MODEL>
2

>  <REMARK>
 VINA RESULT:      -8.6      0.832      1.767
  Name = 
  4 active torsions:
  status: ('A' for Active; 'I' for Inactive)
    1  A    between atoms: C_6  and  O_12
    2  A    between atoms: C_6  and  C_21
    3  A    between atoms: O_12  and  C_15
    4  A    between atoms: C_20  and  O_26
                            x       y       z     vdW  Elec       q    Type
                         _______ _______ _______ _____ _____    ______ ____

>  <TORSDO>
F 4

$$$$
=
 OpenBabel11072413113D

 34 38  0  0  1  0  0  0  0  0999 V2000
  159.7060  210.1610  154.6320 C   0  0  1  0  0  3  0  0  0  0  0  0
  160.8140  205.1430  151.9490 C   0  0  0  0  0  0  0  0  0  0  0  0
  162.1280  210.1520  153.4420 C   0  0  0  0  0  2  0  0  0  0  0  0
  160.5500  203.8300  151.7480 F   0  0  0  0  0  0  0  0  0  0  0  0
  159.0910  207.9940  155.4130 O   0  0  0  0  0  0  0  0  0  0  0  0
  161.9750  209.7420  150.6940 S   0  0  0  0  0  0  0  0  0  0  0  0
  160.6810  205.9810  150.9700 N   0  0  0  0  0  0  0  0  0  0  0  0
  161.4990  206.8310  153.5340 C   0  0  0  0  0  0  0  0  0  0  0  0
  158.8020  212.2130  152.8770 C   0  0  0  0  0  2  0  0  0  0  0  0
  158.4960  214.2290  154.0950 O   0  0  0  0  0  0  0  0  0  0  0  0
  160.9690  207.3670  151.1690 C   0  0  0  0  0  0  0  0  0  0  0  0
  161.3800  208.4150  155.4130 N   0  0  0  0  0  2  0  0  0  0  0  0
  160.0250  208.8110  155.1990 C   0  0  0  0  0  0  0  0  0  0  0  0
  161.2990  208.1750  150.1740 C   0  0  0  0  0  0  0  0  0  0  0  0
  161.1370  207.9300  152.5380 C   0  0  2  0  0  3  0  0  0  0  0  0
  159.2820  211.1090  155.7120 C   0  0  0  0  0  3  0  0  0  0  0  0
  161.2890  205.5810  153.2330 N   0  0  0  0  0  0  0  0  0  0  0  0
  158.8550  212.3580  155.4840 C   0  0  0  0  0  3  0  0  0  0  0  0
  161.8890  207.1280  154.9600 C   0  0  0  0  0  2  0  0  0  0  0  0
  160.7710  210.8250  153.7260 C   0  0  1  0  0  3  0  0  0  0  0  0
  158.7190  212.9920  154.1550 C   0  0  0  0  0  0  0  0  0  0  0  0
  160.2140  211.6960  152.5960 C   0  0  0  0  0  2  0  0  0  0  0  0
  162.1680  209.0500  152.3740 C   0  0  2  0  0  3  0  0  0  0  0  0
  161.4110  207.7080  148.7610 C   0  0  0  0  0  2  0  0  0  0  0  0
  162.1860  206.5480  148.7040 O   0  0  0  0  0  0  0  0  0  0  0  0
  161.6150  204.7280  145.5000 C   0  0  0  0  0  2  0  0  0  0  0  0
  162.3120  205.6710  146.4790 C   0  0  0  0  0  2  0  0  0  0  0  0
  161.2640  202.3700  145.3950 O   0  0  0  0  0  0  0  0  0  0  0  0
  161.5300  205.7210  147.7910 C   0  0  1  0  0  3  0  0  0  0  0  0
  161.2730  203.2520  147.5980 C   0  0  0  0  0  0  0  0  0  0  0  0
  161.3870  203.3840  146.1300 C   0  0  0  0  0  0  0  0  0  0  0  0
  161.3770  204.3420  148.3730 C   0  0  0  0  0  3  0  0  0  0  0  0
  161.0860  201.9800  148.1540 O   0  0  0  0  0  0  0  0  0  0  0  0
  160.0590  201.6880  149.0930 C   0  0  0  0  0  1  0  0  0  0  0  0
  1 13  1  0  0  0  0
  1 16  1  1  0  0  0
  2 17  1  0  0  0  0
  3 20  1  0  0  0  0
  4  2  1  0  0  0  0
  6 23  1  0  0  0  0
  7 11  1  0  0  0  0
  7  2  2  0  0  0  0
  8 19  1  0  0  0  0
  9 21  1  0  0  0  0
 10 21  2  0  0  0  0
 13 12  1  0  0  0  0
 13  5  2  0  0  0  0
 14  6  1  0  0  0  0
 14 11  2  0  0  0  0
 15 11  1  6  0  0  0
 15  8  1  0  0  0  0
 17  8  2  0  0  0  0
 18 16  2  0  0  0  0
 19 12  1  0  0  0  0
 20 22  1  6  0  0  0
 20  1  1  0  0  0  0
 21 18  1  0  0  0  0
 22  9  1  0  0  0  0
 23 15  1  0  0  0  0
 23  3  1  1  0  0  0
 24 14  1  0  0  0  0
 25 24  1  0  0  0  0
 26 31  1  0  0  0  0
 26 27  1  0  0  0  0
 27 29  1  0  0  0  0
 28 31  2  0  0  0  0
 29 32  1  0  0  0  0
 29 25  1  1  0  0  0
 30 33  1  0  0  0  0
 30 32  2  0  0  0  0
 31 30  1  0  0  0  0
 33 34  1  0  0  0  0
M  END
>  <MODEL>
3

>  <REMARK>
 VINA RESULT:      -8.0      1.129      1.937
  Name = 
  4 active torsions:
  status: ('A' for Active; 'I' for Inactive)
    1  A    between atoms: C_6  and  O_12
    2  A    between atoms: C_6  and  C_21
    3  A    between atoms: O_12  and  C_15
    4  A    between atoms: C_20  and  O_26
                            x       y       z     vdW  Elec       q    Type
                         _______ _______ _______ _____ _____    ______ ____

>  <TORSDO>
F 4

$$$$
=
 OpenBabel11072413113D

 34 38  0  0  1  0  0  0  0  0999 V2000
  161.0780  205.2600  149.6130 C   0  0  1  0  0  3  0  0  0  0  0  0
  160.2850  210.2890  152.3860 C   0  0  0  0  0  0  0  0  0  0  0  0
  162.8490  205.6110  151.6190 C   0  0  0  0  0  2  0  0  0  0  0  0
  159.7560  211.5350  152.4400 F   0  0  0  0  0  0  0  0  0  0  0  0
  160.4560  207.3280  148.6040 O   0  0  0  0  0  0  0  0  0  0  0  0
  161.6230  205.8910  154.1010 S   0  0  0  0  0  0  0  0  0  0  0  0
  159.9350  209.4050  153.2670 N   0  0  0  0  0  0  0  0  0  0  0  0
  161.7720  208.7910  151.2130 C   0  0  0  0  0  0  0  0  0  0  0  0
  159.9310  203.0270  150.9590 C   0  0  0  0  0  2  0  0  0  0  0  0
  160.4290  201.0340  149.7670 O   0  0  0  0  0  0  0  0  0  0  0  0
  160.4960  208.0900  153.2250 C   0  0  0  0  0  0  0  0  0  0  0  0
  162.6170  207.2780  149.4670 N   0  0  0  0  0  2  0  0  0  0  0  0
  161.3620  206.6630  149.1720 C   0  0  0  0  0  0  0  0  0  0  0  0
  160.5590  207.3100  154.2920 C   0  0  0  0  0  0  0  0  0  0  0  0
  161.2490  207.6130  152.0320 C   0  0  2  0  0  3  0  0  0  0  0  0
  161.2440  204.2960  148.4790 C   0  0  0  0  0  3  0  0  0  0  0  0
  161.2660  209.9790  151.3830 N   0  0  0  0  0  0  0  0  0  0  0  0
  160.9710  202.9880  148.5640 C   0  0  0  0  0  3  0  0  0  0  0  0
  162.7060  208.6120  150.0430 C   0  0  0  0  0  2  0  0  0  0  0  0
  161.8230  204.7420  150.8680 C   0  0  1  0  0  3  0  0  0  0  0  0
  160.4560  202.2920  149.7630 C   0  0  0  0  0  0  0  0  0  0  0  0
  161.0350  203.7520  151.7310 C   0  0  0  0  0  2  0  0  0  0  0  0
  162.3110  206.6660  152.5960 C   0  0  2  0  0  3  0  0  0  0  0  0
  160.0610  207.7370  155.6330 C   0  0  0  0  0  2  0  0  0  0  0  0
  161.1290  207.8310  156.5270 O   0  0  0  0  0  0  0  0  0  0  0  0
  162.0270  211.4200  156.9920 C   0  0  0  0  0  2  0  0  0  0  0  0
  162.1500  209.9960  156.4530 C   0  0  0  0  0  2  0  0  0  0  0  0
  160.4560  213.1950  156.7190 O   0  0  0  0  0  0  0  0  0  0  0  0
  161.0470  209.1220  157.0500 C   0  0  1  0  0  3  0  0  0  0  0  0
  159.4910  211.0280  156.6680 C   0  0  0  0  0  0  0  0  0  0  0  0
  160.6400  211.9510  156.7770 C   0  0  0  0  0  0  0  0  0  0  0  0
  159.6900  209.7040  156.7590 C   0  0  0  0  0  3  0  0  0  0  0  0
  158.2130  211.5560  156.4420 O   0  0  0  0  0  0  0  0  0  0  0  0
  157.5610  211.4920  155.1800 C   0  0  0  0  0  1  0  0  0  0  0  0
  1 16  1  6  0  0  0
  1 20  1  0  0  0  0
  2  4  1  0  0  0  0
  2  7  2  0  0  0  0
  5 13  2  0  0  0  0
  6 14  1  0  0  0  0
  8 17  2  0  0  0  0
  9 22  1  0  0  0  0
 11  7  1  0  0  0  0
 11 14  2  0  0  0  0
 12 19  1  0  0  0  0
 13 12  1  0  0  0  0
 13  1  1  0  0  0  0
 14 24  1  0  0  0  0
 15  8  1  1  0  0  0
 15 23  1  0  0  0  0
 15 11  1  0  0  0  0
 16 18  2  0  0  0  0
 17  2  1  0  0  0  0
 18 21  1  0  0  0  0
 19  8  1  0  0  0  0
 20  3  1  1  0  0  0
 20 22  1  0  0  0  0
 21 10  2  0  0  0  0
 21  9  1  0  0  0  0
 23  3  1  6  0  0  0
 23  6  1  0  0  0  0
 24 25  1  0  0  0  0
 27 26  1  0  0  0  0
 27 29  1  0  0  0  0
 28 31  2  0  0  0  0
 29 25  1  6  0  0  0
 30 32  2  0  0  0  0
 30 31  1  0  0  0  0
 31 26  1  0  0  0  0
 32 29  1  0  0  0  0
 33 30  1  0  0  0  0
 34 33  1  0  0  0  0
M  END
>  <MODEL>
4

>  <REMARK>
 VINA RESULT:      -7.3      2.808      8.983
  Name = 
  4 active torsions:
  status: ('A' for Active; 'I' for Inactive)
    1  A    between atoms: C_6  and  O_12
    2  A    between atoms: C_6  and  C_21
    3  A    between atoms: O_12  and  C_15
    4  A    between atoms: C_20  and  O_26
                            x       y       z     vdW  Elec       q    Type
                         _______ _______ _______ _____ _____    ______ ____

>  <TORSDO>
F 4

$$$$
=
 OpenBabel11072413113D

 34 38  0  0  1  0  0  0  0  0999 V2000
  158.6800  212.2750  154.3320 C   0  0  1  0  0  3  0  0  0  0  0  0
  160.4410  207.1730  156.4470 C   0  0  0  0  0  0  0  0  0  0  0  0
  161.2980  211.8210  153.8570 C   0  0  0  0  0  2  0  0  0  0  0  0
  160.2550  206.1060  157.2610 F   0  0  0  0  0  0  0  0  0  0  0  0
  157.9660  211.2920  156.3820 O   0  0  0  0  0  0  0  0  0  0  0  0
  161.7350  209.5280  152.3420 S   0  0  0  0  0  0  0  0  0  0  0  0
  160.4970  206.9990  155.1640 N   0  0  0  0  0  0  0  0  0  0  0  0
  160.7390  209.5650  156.3140 C   0  0  0  0  0  0  0  0  0  0  0  0
  158.1190  212.2150  151.5410 C   0  0  0  0  0  2  0  0  0  0  0  0
  157.5180  214.3910  150.8000 O   0  0  0  0  0  0  0  0  0  0  0  0
  160.7050  208.1170  154.2970 C   0  0  0  0  0  0  0  0  0  0  0  0
  160.1930  211.9640  156.3510 N   0  0  0  0  0  2  0  0  0  0  0  0
  158.9050  211.8400  155.7480 C   0  0  0  0  0  0  0  0  0  0  0  0
  161.2180  207.9900  153.0840 C   0  0  0  0  0  0  0  0  0  0  0  0
  160.5700  209.5140  154.7970 C   0  0  2  0  0  3  0  0  0  0  0  0
  158.0180  213.6180  154.2810 C   0  0  0  0  0  3  0  0  0  0  0  0
  160.6260  208.4770  157.0210 N   0  0  0  0  0  0  0  0  0  0  0  0
  157.6210  214.2130  153.1480 C   0  0  0  0  0  3  0  0  0  0  0  0
  160.8150  210.8640  157.0760 C   0  0  0  0  0  2  0  0  0  0  0  0
  159.8970  212.2430  153.3740 C   0  0  1  0  0  3  0  0  0  0  0  0
  157.7520  213.6480  151.7880 C   0  0  0  0  0  0  0  0  0  0  0  0
  159.5700  211.9090  151.9160 C   0  0  0  0  0  2  0  0  0  0  0  0
  161.5860  210.3180  153.9820 C   0  0  2  0  0  3  0  0  0  0  0  0
  161.6350  206.6730  152.5190 C   0  0  0  0  0  2  0  0  0  0  0  0
  160.5890  206.1240  151.7750 O   0  0  0  0  0  0  0  0  0  0  0  0
  161.0570  202.7910  150.1700 C   0  0  0  0  0  2  0  0  0  0  0  0
  160.4250  203.8350  151.0880 C   0  0  0  0  0  2  0  0  0  0  0  0
  161.2160  202.5030  147.8060 O   0  0  0  0  0  0  0  0  0  0  0  0
  161.1890  205.1540  150.9710 C   0  0  1  0  0  3  0  0  0  0  0  0
  161.2460  204.7680  148.5110 C   0  0  0  0  0  0  0  0  0  0  0  0
  161.1650  203.3140  148.7670 C   0  0  0  0  0  0  0  0  0  0  0  0
  161.2190  205.6270  149.5420 C   0  0  0  0  0  3  0  0  0  0  0  0
  161.3190  205.2230  147.1890 O   0  0  0  0  0  0  0  0  0  0  0  0
  160.4590  206.2280  146.6660 C   0  0  0  0  0  1  0  0  0  0  0  0
  1 16  1  1  0  0  0
  1 13  1  0  0  0  0
  2 17  1  0  0  0  0
  2  4  1  0  0  0  0
  6 14  1  0  0  0  0
  6 23  1  0  0  0  0
  7  2  2  0  0  0  0
  8 17  2  0  0  0  0
  8 19  1  0  0  0  0
  9 21  1  0  0  0  0
  9 22  1  0  0  0  0
 10 21  2  0  0  0  0
 11  7  1  0  0  0  0
 12 19  1  0  0  0  0
 13 12  1  0  0  0  0
 13  5  2  0  0  0  0
 14 11  2  0  0  0  0
 15 11  1  6  0  0  0
 15  8  1  0  0  0  0
 18 16  2  0  0  0  0
 20 22  1  6  0  0  0
 20  3  1  0  0  0  0
 20  1  1  0  0  0  0
 21 18  1  0  0  0  0
 23  3  1  6  0  0  0
 23 15  1  0  0  0  0
 24 14  1  0  0  0  0
 25 24  1  0  0  0  0
 26 27  1  0  0  0  0
 28 31  2  0  0  0  0
 29 27  1  0  0  0  0
 29 25  1  1  0  0  0
 30 31  1  0  0  0  0
 30 32  2  0  0  0  0
 31 26  1  0  0  0  0
 32 29  1  0  0  0  0
 33 30  1  0  0  0  0
 34 33  1  0  0  0  0
M  END
>  <MODEL>
5

>  <REMARK>
 VINA RESULT:      -6.8      1.913      2.628
  Name = 
  4 active torsions:
  status: ('A' for Active; 'I' for Inactive)
    1  A    between atoms: C_6  and  O_12
    2  A    between atoms: C_6  and  C_21
    3  A    between atoms: O_12  and  C_15
    4  A    between atoms: C_20  and  O_26
                            x       y       z     vdW  Elec       q    Type
                         _______ _______ _______ _____ _____    ______ ____

>  <TORSDO>
F 4

$$$$
=
 OpenBabel11072413113D

 34 38  0  0  1  0  0  0  0  0999 V2000
  157.1390  213.1430  152.0710 C   0  0  1  0  0  3  0  0  0  0  0  0
  160.5420  209.2420  154.6800 C   0  0  0  0  0  0  0  0  0  0  0  0
  159.7600  213.7150  151.7770 C   0  0  0  0  0  2  0  0  0  0  0  0
  160.7140  208.2310  155.5650 F   0  0  0  0  0  0  0  0  0  0  0  0
  156.6920  212.0690  154.1520 O   0  0  0  0  0  0  0  0  0  0  0  0
  161.1630  211.6940  150.4760 S   0  0  0  0  0  0  0  0  0  0  0  0
  160.7650  209.0360  153.4200 N   0  0  0  0  0  0  0  0  0  0  0  0
  159.9110  211.5520  154.3730 C   0  0  0  0  0  0  0  0  0  0  0  0
  156.8720  212.7230  149.2670 C   0  0  0  0  0  2  0  0  0  0  0  0
  155.5450  214.4530  148.3240 O   0  0  0  0  0  0  0  0  0  0  0  0
  160.5980  210.1000  152.4800 C   0  0  0  0  0  0  0  0  0  0  0  0
  158.4870  213.5500  154.1890 N   0  0  0  0  0  2  0  0  0  0  0  0
  157.3980  212.9050  153.5280 C   0  0  0  0  0  0  0  0  0  0  0  0
  161.2170  210.1190  151.3100 C   0  0  0  0  0  0  0  0  0  0  0  0
  159.8980  211.3590  152.8580 C   0  0  2  0  0  3  0  0  0  0  0  0
  156.0190  214.1190  151.8770 C   0  0  0  0  0  3  0  0  0  0  0  0
  160.1660  210.5450  155.1570 N   0  0  0  0  0  0  0  0  0  0  0  0
  155.5180  214.4530  150.6810 C   0  0  0  0  0  3  0  0  0  0  0  0
  159.4210  212.8170  155.0310 C   0  0  0  0  0  2  0  0  0  0  0  0
  158.3480  213.5350  151.1870 C   0  0  1  0  0  3  0  0  0  0  0  0
  155.9650  213.9120  149.3790 C   0  0  0  0  0  0  0  0  0  0  0  0
  158.2940  213.0240  149.7450 C   0  0  0  0  0  2  0  0  0  0  0  0
  160.5910  212.4510  152.0380 C   0  0  2  0  0  3  0  0  0  0  0  0
  162.1510  209.0380  150.8750 C   0  0  0  0  0  2  0  0  0  0  0  0
  161.8470  208.6460  149.5710 O   0  0  0  0  0  0  0  0  0  0  0  0
  161.2610  205.0800  150.4890 C   0  0  0  0  0  2  0  0  0  0  0  0
  161.0810  206.5950  150.5430 C   0  0  0  0  0  2  0  0  0  0  0  0
  160.7980  203.3850  148.8730 O   0  0  0  0  0  0  0  0  0  0  0  0
  162.0380  207.2630  149.5560 C   0  0  1  0  0  3  0  0  0  0  0  0
  161.4370  205.4700  147.9370 C   0  0  0  0  0  0  0  0  0  0  0  0
  161.1350  204.5800  149.0780 C   0  0  0  0  0  0  0  0  0  0  0  0
  161.8230  206.7350  148.1640 C   0  0  0  0  0  3  0  0  0  0  0  0
  161.2840  204.9790  146.6340 O   0  0  0  0  0  0  0  0  0  0  0  0
  162.3530  204.9220  145.6970 C   0  0  0  0  0  1  0  0  0  0  0  0
  1 16  1  1  0  0  0
  1 13  1  0  0  0  0
  2 17  1  0  0  0  0
  2  4  1  0  0  0  0
  6 14  1  0  0  0  0
  6 23  1  0  0  0  0
  7  2  2  0  0  0  0
  8 19  1  0  0  0  0
  8 17  2  0  0  0  0
  9 21  1  0  0  0  0
  9 22  1  0  0  0  0
 10 21  2  0  0  0  0
 11  7  1  0  0  0  0
 12 19  1  0  0  0  0
 13  5  2  0  0  0  0
 13 12  1  0  0  0  0
 14 11  2  0  0  0  0
 15 11  1  1  0  0  0
 15  8  1  0  0  0  0
 18 16  2  0  0  0  0
 20 22  1  6  0  0  0
 20  3  1  0  0  0  0
 20  1  1  0  0  0  0
 21 18  1  0  0  0  0
 23  3  1  6  0  0  0
 23 15  1  0  0  0  0
 24 14  1  0  0  0  0
 25 24  1  0  0  0  0
 26 27  1  0  0  0  0
 28 31  2  0  0  0  0
 29 25  1  6  0  0  0
 29 27  1  0  0  0  0
 30 32  2  0  0  0  0
 30 31  1  0  0  0  0
 31 26  1  0  0  0  0
 32 29  1  0  0  0  0
 33 30  1  0  0  0  0
 34 33  1  0  0  0  0
M  END
>  <MODEL>
6

>  <REMARK>
 VINA RESULT:      -6.5      2.516      3.678
  Name = 
  4 active torsions:
  status: ('A' for Active; 'I' for Inactive)
    1  A    between atoms: C_6  and  O_12
    2  A    between atoms: C_6  and  C_21
    3  A    between atoms: O_12  and  C_15
    4  A    between atoms: C_20  and  O_26
                            x       y       z     vdW  Elec       q    Type
                         _______ _______ _______ _____ _____    ______ ____

>  <TORSDO>
F 4

$$$$
=
 OpenBabel11072413113D

 34 38  0  0  1  0  0  0  0  0999 V2000
  157.3950  212.3640  153.8030 C   0  0  1  0  0  3  0  0  0  0  0  0
  160.2810  207.7150  155.7170 C   0  0  0  0  0  0  0  0  0  0  0  0
  160.0690  212.6670  153.6010 C   0  0  0  0  0  2  0  0  0  0  0  0
  160.3200  206.5580  156.4210 F   0  0  0  0  0  0  0  0  0  0  0  0
  156.7920  211.0190  155.6770 O   0  0  0  0  0  0  0  0  0  0  0  0
  161.2520  210.7400  151.9790 S   0  0  0  0  0  0  0  0  0  0  0  0
  160.5000  207.6960  154.4400 N   0  0  0  0  0  0  0  0  0  0  0  0
  159.9260  210.1020  155.8000 C   0  0  0  0  0  0  0  0  0  0  0  0
  157.1290  212.4480  150.9690 C   0  0  0  0  0  2  0  0  0  0  0  0
  156.0260  214.4530  150.3300 O   0  0  0  0  0  0  0  0  0  0  0  0
  160.4730  208.9130  153.6900 C   0  0  0  0  0  0  0  0  0  0  0  0
  158.7440  212.2540  155.9550 N   0  0  0  0  0  2  0  0  0  0  0  0
  157.6000  211.8590  155.1990 C   0  0  0  0  0  0  0  0  0  0  0  0
  161.1100  209.0530  152.5390 C   0  0  0  0  0  0  0  0  0  0  0  0
  159.9160  210.1650  154.2740 C   0  0  2  0  0  3  0  0  0  0  0  0
  156.3990  213.4820  153.7770 C   0  0  0  0  0  3  0  0  0  0  0  0
  160.0500  208.9550  156.4050 N   0  0  0  0  0  0  0  0  0  0  0  0
  155.9590  214.0650  152.6540 C   0  0  0  0  0  3  0  0  0  0  0  0
  159.5740  211.2880  156.6610 C   0  0  0  0  0  2  0  0  0  0  0  0
  158.6560  212.7530  152.9930 C   0  0  1  0  0  3  0  0  0  0  0  0
  156.3630  213.7000  151.2790 C   0  0  0  0  0  0  0  0  0  0  0  0
  158.5670  212.4980  151.4860 C   0  0  0  0  0  2  0  0  0  0  0  0
  160.7440  211.2890  153.6460 C   0  0  2  0  0  3  0  0  0  0  0  0
  161.9200  207.9580  151.9270 C   0  0  0  0  0  2  0  0  0  0  0  0
  162.4450  208.3820  150.7050 O   0  0  0  0  0  0  0  0  0  0  0  0
  161.9900  206.4790  147.5310 C   0  0  0  0  0  2  0  0  0  0  0  0
  162.7070  207.3530  148.5590 C   0  0  0  0  0  2  0  0  0  0  0  0
  161.2450  204.2130  147.4740 O   0  0  0  0  0  0  0  0  0  0  0  0
  161.7790  207.6200  149.7430 C   0  0  1  0  0  3  0  0  0  0  0  0
  161.1180  205.2230  149.6180 C   0  0  0  0  0  0  0  0  0  0  0  0
  161.4470  205.2380  148.1770 C   0  0  0  0  0  0  0  0  0  0  0  0
  161.3100  206.3280  150.3550 C   0  0  0  0  0  3  0  0  0  0  0  0
  160.6380  204.0400  150.1930 O   0  0  0  0  0  0  0  0  0  0  0  0
  160.9820  203.6230  151.5090 C   0  0  0  0  0  1  0  0  0  0  0  0
  1 16  1  1  0  0  0
  1 13  1  0  0  0  0
  2 17  1  0  0  0  0
  2  4  1  0  0  0  0
  6 14  1  0  0  0  0
  6 23  1  0  0  0  0
  7  2  2  0  0  0  0
  8 17  2  0  0  0  0
  8 19  1  0  0  0  0
  9 21  1  0  0  0  0
  9 22  1  0  0  0  0
 10 21  2  0  0  0  0
 11  7  1  0  0  0  0
 12 19  1  0  0  0  0
 13  5  2  0  0  0  0
 13 12  1  0  0  0  0
 14 11  2  0  0  0  0
 15 11  1  6  0  0  0
 15  8  1  0  0  0  0
 18 16  2  0  0  0  0
 20 22  1  6  0  0  0
 20  3  1  0  0  0  0
 20  1  1  0  0  0  0
 21 18  1  0  0  0  0
 23  3  1  6  0  0  0
 23 15  1  0  0  0  0
 24 14  1  0  0  0  0
 25 24  1  0  0  0  0
 26 31  1  0  0  0  0
 26 27  1  0  0  0  0
 27 29  1  0  0  0  0
 28 31  2  0  0  0  0
 29 32  1  0  0  0  0
 29 25  1  1  0  0  0
 30 33  1  0  0  0  0
 30 32  2  0  0  0  0
 31 30  1  0  0  0  0
 33 34  1  0  0  0  0
M  END
>  <MODEL>
7

>  <REMARK>
 VINA RESULT:      -6.2      1.970      3.304
  Name = 
  4 active torsions:
  status: ('A' for Active; 'I' for Inactive)
    1  A    between atoms: C_6  and  O_12
    2  A    between atoms: C_6  and  C_21
    3  A    between atoms: O_12  and  C_15
    4  A    between atoms: C_20  and  O_26
                            x       y       z     vdW  Elec       q    Type
                         _______ _______ _______ _____ _____    ______ ____

>  <TORSDO>
F 4

$$$$
