=
 OpenBabel11072410163D

 37 39  0  0  1  0  0  0  0  0999 V2000
  160.7950  208.6290  154.2010 C   0  0  2  0  0  3  0  0  0  0  0  0
  160.7980  210.2370  155.8350 C   0  0  0  0  0  2  0  0  0  0  0  0
  160.7290  210.4950  151.1130 C   0  0  0  0  0  2  0  0  0  0  0  0
  161.5880  211.5450  153.9970 F   0  0  0  0  0  0  0  0  0  0  0  0
  161.2320  209.0430  152.7820 C   0  0  0  0  0  2  0  0  0  0  0  0
  159.5010  212.6120  151.9320 C   0  0  2  0  0  3  0  0  0  0  0  0
  161.5880  209.2530  155.1900 O   0  0  0  0  0  0  0  0  0  0  0  0
  159.9630  214.4530  153.3740 O   0  0  0  0  0  0  0  0  0  0  0  0
  159.6360  213.2790  153.2970 C   0  0  0  0  0  0  0  0  0  0  0  0
  159.1390  211.0510  154.2710 C   0  0  1  0  0  3  0  0  0  0  0  0
  160.1750  209.7110  152.1380 O   0  0  0  0  0  0  0  0  0  0  0  0
  160.8250  211.9870  151.4830 C   0  0  0  0  0  2  0  0  0  0  0  0
  159.4660  212.4710  154.5700 C   0  0  1  0  0  0  0  0  0  0  0  0
  160.5370  211.4090  154.8840 C   0  0  1  0  0  0  0  0  0  0  0  0
  159.0550  213.5260  150.9780 O   0  0  0  0  0  1  0  0  0  0  0  0
  158.8410  213.0670  155.6690 O   0  0  0  0  0  1  0  0  0  0  0  0
  155.8540  210.3480  155.7010 O   0  0  0  0  0  0  0  0  0  0  0  0
  156.7530  210.8570  154.9770 C   0  0  0  0  0  0  0  0  0  0  0  0
  158.4190  209.5930  156.1550 O   0  0  0  0  0  1  0  0  0  0  0  0
  158.1220  210.5000  155.1890 N   0  0  0  0  0  0  0  0  0  0  0  0
  156.4210  211.7670  153.9680 O   0  0  0  0  0  0  0  0  0  0  0  0
  154.3230  213.4640  153.3020 O   0  0  0  0  0  0  0  0  0  0  0  0
  156.6600  214.4010  154.0100 O   0  0  0  0  0  1  0  0  0  0  0  0
  155.6810  213.2840  154.2940 P   0  0  0  0  0  0  0  0  0  0  0  0
  155.2040  213.3500  155.9150 O   0  0  0  0  0  1  0  0  0  0  0  0
  160.8310  207.1220  154.3700 C   0  0  0  0  0  2  0  0  0  0  0  0
  161.5610  206.4980  153.1920 C   0  0  0  0  0  2  0  0  0  0  0  0
  160.7460  205.3600  152.5980 C   0  0  2  0  0  3  0  0  0  0  0  0
  161.1850  204.1450  153.1290 O   0  0  0  0  0  1  0  0  0  0  0  0
  160.9120  206.4760  148.9640 C   0  0  0  0  0  3  0  0  0  0  0  0
  161.1510  204.0690  149.0580 C   0  0  0  0  0  3  0  0  0  0  0  0
  160.8000  206.5190  150.3550 C   0  0  0  0  0  3  0  0  0  0  0  0
  160.8650  205.3350  151.1050 C   0  0  0  0  0  0  0  0  0  0  0  0
  161.0900  205.2470  148.3070 C   0  0  0  0  0  0  0  0  0  0  0  0
  161.0380  204.1110  150.4510 C   0  0  0  0  0  3  0  0  0  0  0  0
  161.2060  205.1700  146.9160 O   0  0  0  0  0  0  0  0  0  0  0  0
  160.7460  206.1980  146.0500 C   0  0  0  0  0  1  0  0  0  0  0  0
  1 26  1  6  0  0  0
  1  7  1  0  0  0  0
  3 12  1  0  0  0  0
  3 11  1  0  0  0  0
  5  1  1  0  0  0  0
  6 15  1  6  0  0  0
  6  9  1  0  0  0  0
  7  2  1  0  0  0  0
  9  8  2  0  0  0  0
  9 13  1  0  0  0  0
 10 13  1  0  0  0  0
 10 14  1  0  0  0  0
 10 20  1  1  0  0  0
 11  5  1  0  0  0  0
 12  6  1  0  0  0  0
 13 14  1  0  0  0  0
 13 16  1  1  0  0  0
 14  4  1  6  0  0  0
 14  2  1  0  0  0  0
 18 20  1  0  0  0  0
 18 17  2  0  0  0  0
 20 19  1  0  0  0  0
 21 24  1  0  0  0  0
 21 18  1  0  0  0  0
 22 24  2  0  0  0  0
 23 24  1  0  0  0  0
 24 25  1  0  0  0  0
 27 26  1  0  0  0  0
 28 29  1  1  0  0  0
 28 27  1  0  0  0  0
 30 32  1  0  0  0  0
 31 35  2  0  0  0  0
 32 33  2  0  0  0  0
 33 28  1  0  0  0  0
 34 30  2  0  0  0  0
 34 31  1  0  0  0  0
 35 33  1  0  0  0  0
 36 34  1  0  0  0  0
 37 36  1  0  0  0  0
M  END
>  <MODEL>
1

>  <REMARK>
 VINA RESULT:      -4.7      0.000      0.000
  Name = 
  8 active torsions:
  status: ('A' for Active; 'I' for Inactive)
    1  A    between atoms: C_1  and  C_21
    2  A    between atoms: O_2  and  C_33
    3  A    between atoms: C_11  and  C_20
    4  A    between atoms: C_11  and  C_26
    5  A    between atoms: O_12  and  C_17
    6  A    between atoms: O_12  and  P_27
    7  A    between atoms: C_20  and  C_21
    8  A    between atoms: C_22  and  N_37
                            x       y       z     vdW  Elec       q    Type
                         _______ _______ _______ _____ _____    ______ ____

>  <TORSDO>
F 8

$$$$
=
 OpenBabel11072410163D

 37 39  0  0  1  0  0  0  0  0999 V2000
  159.6370  211.6620  153.2080 C   0  0  2  0  0  3  0  0  0  0  0  0
  159.4750  213.7870  154.0530 C   0  0  0  0  0  2  0  0  0  0  0  0
  156.5640  210.0630  154.2230 C   0  0  0  0  0  2  0  0  0  0  0  0
  157.1610  213.1890  154.0530 F   0  0  0  0  0  0  0  0  0  0  0  0
  158.3350  210.8520  153.0440 C   0  0  0  0  0  2  0  0  0  0  0  0
  156.0920  211.4000  156.3790 C   0  0  2  0  0  3  0  0  0  0  0  0
  159.4490  213.0180  152.8630 O   0  0  0  0  0  0  0  0  0  0  0  0
  155.4640  213.6260  156.9530 O   0  0  0  0  0  0  0  0  0  0  0  0
  156.3710  212.8800  156.6190 C   0  0  0  0  0  0  0  0  0  0  0  0
  158.6940  212.4100  155.8860 C   0  0  1  0  0  3  0  0  0  0  0  0
  157.9400  210.3350  154.2910 O   0  0  0  0  0  0  0  0  0  0  0  0
  155.7050  211.1340  154.9210 C   0  0  0  0  0  2  0  0  0  0  0  0
  157.7480  213.4590  156.3490 C   0  0  1  0  0  0  0  0  0  0  0  0
  158.2160  213.5170  154.8830 C   0  0  1  0  0  0  0  0  0  0  0  0
  155.0870  210.9420  157.2320 O   0  0  0  0  0  1  0  0  0  0  0  0
  158.2390  214.4530  157.1990 O   0  0  0  0  0  1  0  0  0  0  0  0
  161.9480  211.4860  157.2610 O   0  0  0  0  0  0  0  0  0  0  0  0
  160.7680  211.3870  156.8240 C   0  0  0  0  0  0  0  0  0  0  0  0
  160.6550  213.7730  156.5870 O   0  0  0  0  0  1  0  0  0  0  0  0
  160.0410  212.5670  156.4700 N   0  0  0  0  0  0  0  0  0  0  0  0
  160.1660  210.1320  156.6850 O   0  0  0  0  0  0  0  0  0  0  0  0
  161.2840  208.3580  154.8610 O   0  0  0  0  0  0  0  0  0  0  0  0
  160.3300  207.5350  157.1520 O   0  0  0  0  0  1  0  0  0  0  0  0
  161.0720  208.6830  156.5070 P   0  0  0  0  0  0  0  0  0  0  0  0
  162.5840  208.8620  157.2420 O   0  0  0  0  0  1  0  0  0  0  0  0
  160.7650  211.0610  152.3920 C   0  0  0  0  0  2  0  0  0  0  0  0
  160.5210  209.5730  152.2080 C   0  0  0  0  0  2  0  0  0  0  0  0
  161.6840  208.9250  151.4740 C   0  0  2  0  0  3  0  0  0  0  0  0
  161.9750  209.6590  150.3220 O   0  0  0  0  0  1  0  0  0  0  0  0
  161.0440  205.1820  151.7190 C   0  0  0  0  0  3  0  0  0  0  0  0
  160.7970  205.8720  149.4110 C   0  0  0  0  0  3  0  0  0  0  0  0
  161.3400  206.4970  152.0800 C   0  0  0  0  0  3  0  0  0  0  0  0
  161.3660  207.5080  151.1070 C   0  0  0  0  0  0  0  0  0  0  0  0
  160.7680  204.8620  150.3790 C   0  0  0  0  0  0  0  0  0  0  0  0
  161.0960  207.1890  149.7720 C   0  0  0  0  0  3  0  0  0  0  0  0
  160.4660  203.5550  149.9850 O   0  0  0  0  0  0  0  0  0  0  0  0
  160.9360  202.9940  148.7670 C   0  0  0  0  0  1  0  0  0  0  0  0
  1 26  1  6  0  0  0
  2 14  1  0  0  0  0
  3 11  1  0  0  0  0
  3 12  1  0  0  0  0
  5  1  1  0  0  0  0
  5 11  1  0  0  0  0
  6  9  1  0  0  0  0
  6 15  1  1  0  0  0
  7  1  1  0  0  0  0
  7  2  1  0  0  0  0
  9  8  2  0  0  0  0
 10 13  1  0  0  0  0
 10 20  1  1  0  0  0
 12  6  1  0  0  0  0
 13  9  1  0  0  0  0
 13 16  1  1  0  0  0
 14  4  1  6  0  0  0
 14 10  1  0  0  0  0
 14 13  1  0  0  0  0
 18 17  2  0  0  0  0
 20 19  1  0  0  0  0
 20 18  1  0  0  0  0
 21 18  1  0  0  0  0
 22 24  2  0  0  0  0
 24 21  1  0  0  0  0
 24 23  1  0  0  0  0
 24 25  1  0  0  0  0
 27 26  1  0  0  0  0
 28 29  1  6  0  0  0
 28 27  1  0  0  0  0
 30 32  1  0  0  0  0
 31 35  2  0  0  0  0
 31 34  1  0  0  0  0
 33 28  1  0  0  0  0
 33 32  2  0  0  0  0
 34 30  2  0  0  0  0
 35 33  1  0  0  0  0
 36 34  1  0  0  0  0
 37 36  1  0  0  0  0
M  END
>  <MODEL>
2

>  <REMARK>
 VINA RESULT:      -4.5      2.416      4.893
  Name = 
  8 active torsions:
  status: ('A' for Active; 'I' for Inactive)
    1  A    between atoms: C_1  and  C_21
    2  A    between atoms: O_2  and  C_33
    3  A    between atoms: C_11  and  C_20
    4  A    between atoms: C_11  and  C_26
    5  A    between atoms: O_12  and  C_17
    6  A    between atoms: O_12  and  P_27
    7  A    between atoms: C_20  and  C_21
    8  A    between atoms: C_22  and  N_37
                            x       y       z     vdW  Elec       q    Type
                         _______ _______ _______ _____ _____    ______ ____

>  <TORSDO>
F 8

$$$$
=
 OpenBabel11072410163D

 37 39  0  0  1  0  0  0  0  0999 V2000
  161.1190  205.5570  151.1600 C   0  0  2  0  0  3  0  0  0  0  0  0
  162.5780  206.7010  152.5100 C   0  0  0  0  0  2  0  0  0  0  0  0
  160.9540  207.5360  148.1460 C   0  0  0  0  0  2  0  0  0  0  0  0
  163.2170  207.6020  150.3900 F   0  0  0  0  0  0  0  0  0  0  0  0
  161.1610  205.8470  149.6460 C   0  0  0  0  0  2  0  0  0  0  0  0
  161.4550  209.8620  149.1480 C   0  0  2  0  0  3  0  0  0  0  0  0
  162.4160  205.5350  151.7190 O   0  0  0  0  0  0  0  0  0  0  0  0
  163.3180  210.9790  150.1270 O   0  0  0  0  0  0  0  0  0  0  0  0
  162.4100  210.1790  150.2930 C   0  0  0  0  0  0  0  0  0  0  0  0
  161.1850  208.4590  151.5960 C   0  0  1  0  0  3  0  0  0  0  0  0
  160.4830  207.0480  149.3760 O   0  0  0  0  0  0  0  0  0  0  0  0
  161.9640  208.6880  148.3050 C   0  0  0  0  0  2  0  0  0  0  0  0
  162.3060  209.4370  151.6120 C   0  0  1  0  0  0  0  0  0  0  0  0
  162.6650  207.9380  151.6110 C   0  0  1  0  0  0  0  0  0  0  0  0
  161.2600  210.9820  148.3400 O   0  0  0  0  0  1  0  0  0  0  0  0
  162.5490  210.1330  152.7990 O   0  0  0  0  0  1  0  0  0  0  0  0
  158.9810  209.5500  154.2950 O   0  0  0  0  0  0  0  0  0  0  0  0
  159.6780  209.5740  153.2430 C   0  0  0  0  0  0  0  0  0  0  0  0
  160.3860  207.3190  153.6600 O   0  0  0  0  0  1  0  0  0  0  0  0
  160.4470  208.4260  152.8750 N   0  0  0  0  0  0  0  0  0  0  0  0
  159.7030  210.7150  152.4350 O   0  0  0  0  0  0  0  0  0  0  0  0
  157.6680  212.4300  153.2370 O   0  0  0  0  0  1  0  0  0  0  0  0
  159.8180  213.3290  152.0490 O   0  0  0  0  0  0  0  0  0  0  0  0
  159.3410  212.2850  153.0340 P   0  0  0  0  0  0  0  0  0  0  0  0
  160.1090  212.5190  154.5210 O   0  0  0  0  0  1  0  0  0  0  0  0
  160.3970  204.2550  151.4520 C   0  0  0  0  0  2  0  0  0  0  0  0
  161.3140  203.0860  151.1330 C   0  0  0  0  0  2  0  0  0  0  0  0
  160.6250  202.1020  150.2020 C   0  0  2  0  0  3  0  0  0  0  0  0
  161.1020  200.8130  150.4490 O   0  0  0  0  0  1  0  0  0  0  0  0
  160.6480  201.9840  146.3980 C   0  0  0  0  0  3  0  0  0  0  0  0
  161.7610  204.0060  147.1280 C   0  0  0  0  0  3  0  0  0  0  0  0
  160.4180  201.6300  147.7290 C   0  0  0  0  0  3  0  0  0  0  0  0
  160.8590  202.4650  148.7670 C   0  0  0  0  0  0  0  0  0  0  0  0
  161.3210  203.1780  146.0900 C   0  0  0  0  0  0  0  0  0  0  0  0
  161.5330  203.6520  148.4610 C   0  0  0  0  0  3  0  0  0  0  0  0
  161.5650  203.5610  144.7680 O   0  0  0  0  0  0  0  0  0  0  0  0
  161.3070  204.8740  144.2900 C   0  0  0  0  0  1  0  0  0  0  0  0
  1 26  1  6  0  0  0
  1  7  1  0  0  0  0
  3 12  1  0  0  0  0
  3 11  1  0  0  0  0
  5  1  1  0  0  0  0
  6 15  1  6  0  0  0
  6  9  1  0  0  0  0
  7  2  1  0  0  0  0
  8  9  2  0  0  0  0
  9 13  1  0  0  0  0
 10 14  1  0  0  0  0
 10 13  1  0  0  0  0
 10 20  1  1  0  0  0
 11  5  1  0  0  0  0
 12  6  1  0  0  0  0
 13 16  1  1  0  0  0
 14  4  1  6  0  0  0
 14 13  1  0  0  0  0
 14  2  1  0  0  0  0
 18 17  2  0  0  0  0
 20 18  1  0  0  0  0
 20 19  1  0  0  0  0
 21 24  1  0  0  0  0
 21 18  1  0  0  0  0
 23 24  2  0  0  0  0
 24 22  1  0  0  0  0
 24 25  1  0  0  0  0
 27 26  1  0  0  0  0
 28 29  1  6  0  0  0
 28 27  1  0  0  0  0
 30 32  1  0  0  0  0
 31 35  2  0  0  0  0
 32 33  2  0  0  0  0
 33 28  1  0  0  0  0
 34 30  2  0  0  0  0
 34 31  1  0  0  0  0
 35 33  1  0  0  0  0
 36 34  1  0  0  0  0
 37 36  1  0  0  0  0
M  END
>  <MODEL>
3

>  <REMARK>
 VINA RESULT:      -3.7      2.583      4.309
  Name = 
  8 active torsions:
  status: ('A' for Active; 'I' for Inactive)
    1  A    between atoms: C_1  and  C_21
    2  A    between atoms: O_2  and  C_33
    3  A    between atoms: C_11  and  C_20
    4  A    between atoms: C_11  and  C_26
    5  A    between atoms: O_12  and  C_17
    6  A    between atoms: O_12  and  P_27
    7  A    between atoms: C_20  and  C_21
    8  A    between atoms: C_22  and  N_37
                            x       y       z     vdW  Elec       q    Type
                         _______ _______ _______ _____ _____    ______ ____

>  <TORSDO>
F 8

$$$$
=
 OpenBabel11072410163D

 37 39  0  0  1  0  0  0  0  0999 V2000
  161.0230  211.2820  150.5750 C   0  0  2  0  0  3  0  0  0  0  0  0
  162.9310  210.0500  150.2570 C   0  0  0  0  0  2  0  0  0  0  0  0
  159.6600  210.0300  153.6730 C   0  0  0  0  0  2  0  0  0  0  0  0
  162.6500  209.7360  152.6100 F   0  0  0  0  0  0  0  0  0  0  0  0
  160.4390  211.3490  152.0000 C   0  0  0  0  0  2  0  0  0  0  0  0
  160.5720  207.6170  153.5840 C   0  0  2  0  0  3  0  0  0  0  0  0
  162.4350  211.3360  150.5910 O   0  0  0  0  0  0  0  0  0  0  0  0
  162.6940  206.5430  153.7460 O   0  0  0  0  0  0  0  0  0  0  0  0
  161.9220  207.1680  153.0340 C   0  0  0  0  0  0  0  0  0  0  0  0
  161.3170  208.3870  150.9590 C   0  0  1  0  0  3  0  0  0  0  0  0
  159.7320  210.1670  152.2770 O   0  0  0  0  0  0  0  0  0  0  0  0
  160.6650  209.0040  154.2290 C   0  0  0  0  0  2  0  0  0  0  0  0
  162.3610  207.5760  151.6400 C   0  0  1  0  0  0  0  0  0  0  0  0
  162.6600  209.0680  151.4000 C   0  0  1  0  0  0  0  0  0  0  0  0
  160.0810  206.6920  154.5060 O   0  0  0  0  0  1  0  0  0  0  0  0
  163.0870  206.6640  150.8690 O   0  0  0  0  0  1  0  0  0  0  0  0
  160.4250  206.4670  147.9850 O   0  0  0  0  0  0  0  0  0  0  0  0
  160.6230  206.7640  149.1950 C   0  0  0  0  0  0  0  0  0  0  0  0
  161.4480  208.9180  148.5310 O   0  0  0  0  0  1  0  0  0  0  0  0
  161.1750  208.0400  149.5310 N   0  0  0  0  0  0  0  0  0  0  0  0
  160.3080  205.8550  150.2100 O   0  0  0  0  0  0  0  0  0  0  0  0
  161.5870  203.8970  148.7100 O   0  0  0  0  0  0  0  0  0  0  0  0
  159.6630  203.2960  150.3760 O   0  0  0  0  0  1  0  0  0  0  0  0
  160.8440  204.2230  150.1930 P   0  0  0  0  0  0  0  0  0  0  0  0
  161.9540  203.9740  151.4430 O   0  0  0  0  0  1  0  0  0  0  0  0
  160.4640  212.3870  149.6980 C   0  0  0  0  0  2  0  0  0  0  0  0
  161.2840  212.4850  148.4230 C   0  0  0  0  0  2  0  0  0  0  0  0
  160.6510  213.4700  147.4530 C   0  0  2  0  0  3  0  0  0  0  0  0
  159.2610  213.4170  147.5760 O   0  0  0  0  0  1  0  0  0  0  0  0
  162.6840  213.1850  144.2490 C   0  0  0  0  0  3  0  0  0  0  0  0
  160.4750  212.2740  143.8610 C   0  0  0  0  0  3  0  0  0  0  0  0
  162.3330  213.4750  145.5680 C   0  0  0  0  0  3  0  0  0  0  0  0
  161.0490  213.1650  146.0410 C   0  0  0  0  0  0  0  0  0  0  0  0
  161.7550  212.5790  143.3870 C   0  0  0  0  0  0  0  0  0  0  0  0
  160.1220  212.5660  145.1820 C   0  0  0  0  0  3  0  0  0  0  0  0
  162.0760  212.2750  142.0610 O   0  0  0  0  0  0  0  0  0  0  0  0
  161.1190  211.7830  141.1330 C   0  0  0  0  0  1  0  0  0  0  0  0
  1 26  1  6  0  0  0
  1  7  1  0  0  0  0
  1  5  1  0  0  0  0
  2  7  1  0  0  0  0
  2 14  1  0  0  0  0
  3 12  1  0  0  0  0
  5 11  1  0  0  0  0
  6 12  1  0  0  0  0
  6 15  1  1  0  0  0
  9  6  1  0  0  0  0
  9  8  2  0  0  0  0
 10 20  1  6  0  0  0
 10 14  1  0  0  0  0
 10 13  1  0  0  0  0
 11  3  1  0  0  0  0
 13 16  1  6  0  0  0
 13  9  1  0  0  0  0
 14 13  1  0  0  0  0
 14  4  1  1  0  0  0
 17 18  2  0  0  0  0
 18 20  1  0  0  0  0
 18 21  1  0  0  0  0
 19 20  1  0  0  0  0
 22 24  2  0  0  0  0
 24 21  1  0  0  0  0
 24 23  1  0  0  0  0
 24 25  1  0  0  0  0
 27 26  1  0  0  0  0
 28 29  1  6  0  0  0
 28 27  1  0  0  0  0
 30 32  1  0  0  0  0
 31 35  2  0  0  0  0
 32 33  2  0  0  0  0
 33 28  1  0  0  0  0
 34 31  1  0  0  0  0
 34 30  2  0  0  0  0
 35 33  1  0  0  0  0
 36 34  1  0  0  0  0
 37 36  1  0  0  0  0
M  END
>  <MODEL>
4

>  <REMARK>
 VINA RESULT:      -2.8      4.430      8.012
  Name = 
  8 active torsions:
  status: ('A' for Active; 'I' for Inactive)
    1  A    between atoms: C_1  and  C_21
    2  A    between atoms: O_2  and  C_33
    3  A    between atoms: C_11  and  C_20
    4  A    between atoms: C_11  and  C_26
    5  A    between atoms: O_12  and  C_17
    6  A    between atoms: O_12  and  P_27
    7  A    between atoms: C_20  and  C_21
    8  A    between atoms: C_22  and  N_37
                            x       y       z     vdW  Elec       q    Type
                         _______ _______ _______ _____ _____    ______ ____

>  <TORSDO>
F 8

$$$$
=
 OpenBabel11072410163D

 37 39  0  0  1  0  0  0  0  0999 V2000
  162.0350  210.2640  152.5490 C   0  0  2  0  0  3  0  0  0  0  0  0
  162.5480  210.3900  154.7800 C   0  0  0  0  0  2  0  0  0  0  0  0
  158.6030  211.3670  152.3590 C   0  0  0  0  0  2  0  0  0  0  0  0
  160.6790  211.8790  154.7240 F   0  0  0  0  0  0  0  0  0  0  0  0
  160.8320  211.0830  152.0400 C   0  0  0  0  0  2  0  0  0  0  0  0
  157.8070  210.6520  154.7080 C   0  0  2  0  0  3  0  0  0  0  0  0
  162.7780  210.9810  153.5120 O   0  0  0  0  0  0  0  0  0  0  0  0
  158.1990  211.3120  156.9640 O   0  0  0  0  0  0  0  0  0  0  0  0
  158.6160  210.6880  156.0000 C   0  0  0  0  0  0  0  0  0  0  0  0
  160.3430  209.3880  154.7820 C   0  0  1  0  0  3  0  0  0  0  0  0
  159.6370  210.4160  152.3610 O   0  0  0  0  0  0  0  0  0  0  0  0
  158.1900  211.8060  153.7770 C   0  0  0  0  0  2  0  0  0  0  0  0
  159.9840  210.0370  156.0710 C   0  0  1  0  0  0  0  0  0  0  0  0
  161.1160  210.6740  155.2410 C   0  0  1  0  0  0  0  0  0  0  0  0
  156.4390  210.6890  154.9790 O   0  0  0  0  0  1  0  0  0  0  0  0
  160.3660  209.3970  157.2530 O   0  0  0  0  0  1  0  0  0  0  0  0
  161.8630  206.1760  153.9460 O   0  0  0  0  0  0  0  0  0  0  0  0
  161.2250  207.2570  153.8280 C   0  0  0  0  0  0  0  0  0  0  0  0
  161.5520  207.7070  156.1630 O   0  0  0  0  0  1  0  0  0  0  0  0
  161.0230  208.0910  154.9730 N   0  0  0  0  0  0  0  0  0  0  0  0
  160.7130  207.6470  152.5860 O   0  0  0  0  0  0  0  0  0  0  0  0
  160.4710  205.2670  151.1730 O   0  0  0  0  0  1  0  0  0  0  0  0
  162.6080  206.7600  150.9680 O   0  0  0  0  0  1  0  0  0  0  0  0
  161.1060  206.8330  151.1240 P   0  0  0  0  0  0  0  0  0  0  0  0
  160.4420  207.6660  149.8120 O   0  0  0  0  0  0  0  0  0  0  0  0
  162.9320  209.8350  151.4040 C   0  0  0  0  0  2  0  0  0  0  0  0
  162.9170  210.9010  150.3220 C   0  0  0  0  0  2  0  0  0  0  0  0
  161.9450  210.5270  149.2140 C   0  0  2  0  0  3  0  0  0  0  0  0
  162.2950  209.2810  148.6880 O   0  0  0  0  0  1  0  0  0  0  0  0
  163.0130  213.3880  146.9440 C   0  0  0  0  0  3  0  0  0  0  0  0
  160.8350  212.6000  146.2410 C   0  0  0  0  0  3  0  0  0  0  0  0
  163.0300  212.4350  147.9630 C   0  0  0  0  0  3  0  0  0  0  0  0
  161.9480  211.5570  148.1250 C   0  0  0  0  0  0  0  0  0  0  0  0
  161.9140  213.4750  146.0750 C   0  0  0  0  0  0  0  0  0  0  0  0
  160.8510  211.6450  147.2620 C   0  0  0  0  0  3  0  0  0  0  0  0
  161.8660  214.4180  145.0440 O   0  0  0  0  0  0  0  0  0  0  0  0
  160.9540  214.3240  143.9590 C   0  0  0  0  0  1  0  0  0  0  0  0
  1 26  1  6  0  0  0
  1  7  1  0  0  0  0
  2 14  1  0  0  0  0
  3 11  1  0  0  0  0
  3 12  1  0  0  0  0
  5 11  1  0  0  0  0
  5  1  1  0  0  0  0
  6 15  1  1  0  0  0
  6  9  1  0  0  0  0
  7  2  1  0  0  0  0
  9 13  1  0  0  0  0
  9  8  2  0  0  0  0
 10 20  1  1  0  0  0
 10 14  1  0  0  0  0
 10 13  1  0  0  0  0
 12  6  1  0  0  0  0
 13 16  1  1  0  0  0
 14  4  1  6  0  0  0
 14 13  1  0  0  0  0
 18 17  2  0  0  0  0
 18 20  1  0  0  0  0
 20 19  1  0  0  0  0
 21 18  1  0  0  0  0
 23 24  1  0  0  0  0
 24 22  1  0  0  0  0
 24 21  1  0  0  0  0
 25 24  2  0  0  0  0
 27 26  1  0  0  0  0
 28 29  1  6  0  0  0
 28 27  1  0  0  0  0
 30 32  1  0  0  0  0
 31 35  2  0  0  0  0
 32 33  2  0  0  0  0
 33 28  1  0  0  0  0
 34 31  1  0  0  0  0
 34 30  2  0  0  0  0
 35 33  1  0  0  0  0
 36 34  1  0  0  0  0
 37 36  1  0  0  0  0
M  END
>  <MODEL>
5

>  <REMARK>
 VINA RESULT:      -2.6      3.478      6.103
  Name = 
  8 active torsions:
  status: ('A' for Active; 'I' for Inactive)
    1  A    between atoms: C_1  and  C_21
    2  A    between atoms: O_2  and  C_33
    3  A    between atoms: C_11  and  C_20
    4  A    between atoms: C_11  and  C_26
    5  A    between atoms: O_12  and  C_17
    6  A    between atoms: O_12  and  P_27
    7  A    between atoms: C_20  and  C_21
    8  A    between atoms: C_22  and  N_37
                            x       y       z     vdW  Elec       q    Type
                         _______ _______ _______ _____ _____    ______ ____

>  <TORSDO>
F 8

$$$$
=
 OpenBabel11072410163D

 37 39  0  0  1  0  0  0  0  0999 V2000
  161.3580  207.6050  154.9200 C   0  0  2  0  0  3  0  0  0  0  0  0
  159.1910  207.9430  154.2500 C   0  0  0  0  0  2  0  0  0  0  0  0
  162.0570  210.3850  157.1150 C   0  0  0  0  0  2  0  0  0  0  0  0
  159.2000  209.2780  156.2330 F   0  0  0  0  0  0  0  0  0  0  0  0
  161.8350  208.3200  156.2000 C   0  0  0  0  0  2  0  0  0  0  0  0
  160.4580  212.1340  156.0920 C   0  0  2  0  0  3  0  0  0  0  0  0
  160.0330  207.1340  155.0540 O   0  0  0  0  0  0  0  0  0  0  0  0
  158.1040  212.4710  155.9380 O   0  0  0  0  0  0  0  0  0  0  0  0
  159.0760  211.8760  155.5000 C   0  0  0  0  0  0  0  0  0  0  0  0
  160.1660  210.1540  154.0840 C   0  0  1  0  0  3  0  0  0  0  0  0
  162.1260  209.6640  155.9110 O   0  0  0  0  0  0  0  0  0  0  0  0
  160.7500  211.1870  157.2600 C   0  0  0  0  0  2  0  0  0  0  0  0
  158.8800  210.8130  154.4360 C   0  0  1  0  0  0  0  0  0  0  0  0
  159.0690  209.3440  154.8590 C   0  0  1  0  0  0  0  0  0  0  0  0
  160.5780  213.4590  156.5090 O   0  0  0  0  0  1  0  0  0  0  0  0
  157.9650  211.0500  153.4070 O   0  0  0  0  0  1  0  0  0  0  0  0
  160.7050  210.8220  150.5360 O   0  0  0  0  0  0  0  0  0  0  0  0
  160.5230  211.0150  151.7690 C   0  0  0  0  0  0  0  0  0  0  0  0
  160.3030  208.6490  152.1070 O   0  0  0  0  0  1  0  0  0  0  0  0
  160.2930  209.9000  152.6350 N   0  0  0  0  0  0  0  0  0  0  0  0
  160.5460  212.3100  152.2960 O   0  0  0  0  0  0  0  0  0  0  0  0
  158.1460  212.8400  150.9980 O   0  0  0  0  0  1  0  0  0  0  0  0
  160.1940  214.4530  150.7860 O   0  0  0  0  0  0  0  0  0  0  0  0
  159.4780  213.5470  151.7630 P   0  0  0  0  0  0  0  0  0  0  0  0
  158.9480  214.4530  153.0880 O   0  0  0  0  0  1  0  0  0  0  0  0
  162.2870  206.4660  154.5470 C   0  0  0  0  0  2  0  0  0  0  0  0
  162.3660  206.3530  153.0340 C   0  0  0  0  0  2  0  0  0  0  0  0
  161.2510  205.4640  152.5040 C   0  0  2  0  0  3  0  0  0  0  0  0
  161.3860  204.1800  153.0360 O   0  0  0  0  0  1  0  0  0  0  0  0
  160.8650  204.2200  148.9290 C   0  0  0  0  0  3  0  0  0  0  0  0
  161.8010  206.4520  148.8860 C   0  0  0  0  0  3  0  0  0  0  0  0
  160.8290  204.2610  150.3240 C   0  0  0  0  0  3  0  0  0  0  0  0
  161.2790  205.4000  151.0070 C   0  0  0  0  0  0  0  0  0  0  0  0
  161.3500  205.3190  148.2010 C   0  0  0  0  0  0  0  0  0  0  0  0
  161.7670  206.4930  150.2830 C   0  0  0  0  0  3  0  0  0  0  0  0
  161.3980  205.3090  146.8040 O   0  0  0  0  0  0  0  0  0  0  0  0
  160.6300  206.1970  146.0040 C   0  0  0  0  0  1  0  0  0  0  0  0
  1 26  1  1  0  0  0
  1  7  1  0  0  0  0
  1  5  1  0  0  0  0
  2 14  1  0  0  0  0
  2  7  1  0  0  0  0
  3 12  1  0  0  0  0
  6 15  1  1  0  0  0
  6 12  1  0  0  0  0
  9  8  2  0  0  0  0
  9  6  1  0  0  0  0
 10 20  1  6  0  0  0
 10 13  1  0  0  0  0
 10 14  1  0  0  0  0
 11  5  1  0  0  0  0
 11  3  1  0  0  0  0
 13 16  1  6  0  0  0
 13 14  1  0  0  0  0
 13  9  1  0  0  0  0
 14  4  1  1  0  0  0
 17 18  2  0  0  0  0
 18 21  1  0  0  0  0
 18 20  1  0  0  0  0
 19 20  1  0  0  0  0
 22 24  1  0  0  0  0
 23 24  2  0  0  0  0
 24 21  1  0  0  0  0
 24 25  1  0  0  0  0
 27 26  1  0  0  0  0
 28 27  1  0  0  0  0
 28 29  1  1  0  0  0
 30 32  1  0  0  0  0
 31 35  2  0  0  0  0
 32 33  2  0  0  0  0
 33 28  1  0  0  0  0
 34 31  1  0  0  0  0
 34 30  2  0  0  0  0
 35 33  1  0  0  0  0
 36 34  1  0  0  0  0
 37 36  1  0  0  0  0
M  END
>  <MODEL>
6

>  <REMARK>
 VINA RESULT:      -2.0      1.969      3.574
  Name = 
  8 active torsions:
  status: ('A' for Active; 'I' for Inactive)
    1  A    between atoms: C_1  and  C_21
    2  A    between atoms: O_2  and  C_33
    3  A    between atoms: C_11  and  C_20
    4  A    between atoms: C_11  and  C_26
    5  A    between atoms: O_12  and  C_17
    6  A    between atoms: O_12  and  P_27
    7  A    between atoms: C_20  and  C_21
    8  A    between atoms: C_22  and  N_37
                            x       y       z     vdW  Elec       q    Type
                         _______ _______ _______ _____ _____    ______ ____

>  <TORSDO>
F 8

$$$$
=
 OpenBabel11072410163D

 37 39  0  0  1  0  0  0  0  0999 V2000
  161.0890  209.7860  152.0350 C   0  0  2  0  0  3  0  0  0  0  0  0
  162.1010  209.8740  154.0910 C   0  0  0  0  0  2  0  0  0  0  0  0
  159.2560  212.8880  151.8100 C   0  0  0  0  0  2  0  0  0  0  0  0
  161.6830  212.2050  153.7610 F   0  0  0  0  0  0  0  0  0  0  0  0
  160.6120  211.1130  151.4100 C   0  0  0  0  0  2  0  0  0  0  0  0
  158.8080  213.2880  154.3200 C   0  0  2  0  0  3  0  0  0  0  0  0
  162.3290  209.9410  152.6930 O   0  0  0  0  0  0  0  0  0  0  0  0
  160.0810  213.8440  156.2570 O   0  0  0  0  0  0  0  0  0  0  0  0
  159.7420  212.9630  155.4810 C   0  0  0  0  0  0  0  0  0  0  0  0
  159.8590  210.6660  154.5510 C   0  0  1  0  0  3  0  0  0  0  0  0
  159.3970  211.5030  152.0010 O   0  0  0  0  0  0  0  0  0  0  0  0
  159.5920  213.7050  153.0720 C   0  0  0  0  0  2  0  0  0  0  0  0
  160.3370  211.5750  155.6260 C   0  0  1  0  0  0  0  0  0  0  0  0
  161.3580  211.1270  154.5630 C   0  0  1  0  0  0  0  0  0  0  0  0
  157.9070  214.2920  154.6770 O   0  0  0  0  0  1  0  0  0  0  0  0
  160.5000  211.0420  156.9080 O   0  0  0  0  0  1  0  0  0  0  0  0
  158.1100  207.9600  156.2680 O   0  0  0  0  0  0  0  0  0  0  0  0
  158.4240  209.1200  155.8840 C   0  0  0  0  0  0  0  0  0  0  0  0
  160.2810  208.2150  154.6630 O   0  0  0  0  0  1  0  0  0  0  0  0
  159.5690  209.3060  155.0490 N   0  0  0  0  0  0  0  0  0  0  0  0
  157.6580  210.2260  156.2700 O   0  0  0  0  0  0  0  0  0  0  0  0
  155.1070  209.5650  155.3890 O   0  0  0  0  0  1  0  0  0  0  0  0
  156.7020  211.0540  153.9480 O   0  0  0  0  0  0  0  0  0  0  0  0
  156.2950  210.7690  155.3760 P   0  0  0  0  0  0  0  0  0  0  0  0
  155.6750  212.1760  156.0780 O   0  0  0  0  0  1  0  0  0  0  0  0
  161.1790  208.6880  150.9930 C   0  0  0  0  0  2  0  0  0  0  0  0
  162.1040  207.5910  151.4920 C   0  0  0  0  0  2  0  0  0  0  0  0
  161.3080  206.4750  152.1480 C   0  0  2  0  0  3  0  0  0  0  0  0
  161.9590  206.0590  153.3120 O   0  0  0  0  0  1  0  0  0  0  0  0
  160.8240  202.9410  150.8250 C   0  0  0  0  0  3  0  0  0  0  0  0
  161.0000  204.4630  148.9510 C   0  0  0  0  0  3  0  0  0  0  0  0
  160.9760  204.0100  151.7090 C   0  0  0  0  0  3  0  0  0  0  0  0
  161.1410  205.3140  151.2170 C   0  0  0  0  0  0  0  0  0  0  0  0
  160.8330  203.1630  149.4380 C   0  0  0  0  0  0  0  0  0  0  0  0
  161.1540  205.5350  149.8360 C   0  0  0  0  0  3  0  0  0  0  0  0
  160.6810  202.1130  148.5260 O   0  0  0  0  0  0  0  0  0  0  0  0
  161.4880  200.9440  148.5620 C   0  0  0  0  0  1  0  0  0  0  0  0
  1 26  1  6  0  0  0
  1  7  1  0  0  0  0
  2 14  1  0  0  0  0
  3 11  1  0  0  0  0
  3 12  1  0  0  0  0
  5 11  1  0  0  0  0
  5  1  1  0  0  0  0
  6 15  1  1  0  0  0
  6  9  1  0  0  0  0
  7  2  1  0  0  0  0
  9 13  1  0  0  0  0
  9  8  2  0  0  0  0
 10 14  1  0  0  0  0
 10 20  1  1  0  0  0
 10 13  1  0  0  0  0
 12  6  1  0  0  0  0
 13 16  1  1  0  0  0
 14  4  1  6  0  0  0
 14 13  1  0  0  0  0
 18 17  2  0  0  0  0
 18 21  1  0  0  0  0
 19 20  1  0  0  0  0
 20 18  1  0  0  0  0
 23 24  2  0  0  0  0
 24 22  1  0  0  0  0
 24 25  1  0  0  0  0
 24 21  1  0  0  0  0
 26 27  1  0  0  0  0
 27 28  1  0  0  0  0
 28 29  1  1  0  0  0
 30 32  1  0  0  0  0
 31 34  1  0  0  0  0
 31 35  2  0  0  0  0
 33 32  2  0  0  0  0
 33 28  1  0  0  0  0
 34 30  2  0  0  0  0
 35 33  1  0  0  0  0
 36 37  1  0  0  0  0
 36 34  1  0  0  0  0
M  END
>  <MODEL>
7

>  <REMARK>
 VINA RESULT:      -2.0      1.723      2.729
  Name = 
  8 active torsions:
  status: ('A' for Active; 'I' for Inactive)
    1  A    between atoms: C_1  and  C_21
    2  A    between atoms: O_2  and  C_33
    3  A    between atoms: C_11  and  C_20
    4  A    between atoms: C_11  and  C_26
    5  A    between atoms: O_12  and  C_17
    6  A    between atoms: O_12  and  P_27
    7  A    between atoms: C_20  and  C_21
    8  A    between atoms: C_22  and  N_37
                            x       y       z     vdW  Elec       q    Type
                         _______ _______ _______ _____ _____    ______ ____

>  <TORSDO>
F 8

$$$$
=
 OpenBabel11072410163D

 37 39  0  0  1  0  0  0  0  0999 V2000
  161.2040  209.1690  153.1820 C   0  0  2  0  0  3  0  0  0  0  0  0
  161.4280  209.9050  155.3420 C   0  0  0  0  0  2  0  0  0  0  0  0
  160.1140  212.0840  151.3550 C   0  0  0  0  0  2  0  0  0  0  0  0
  161.5490  212.0010  154.2000 F   0  0  0  0  0  0  0  0  0  0  0  0
  161.2060  210.2240  152.0580 C   0  0  0  0  0  2  0  0  0  0  0  0
  158.8850  213.3290  153.2530 C   0  0  2  0  0  3  0  0  0  0  0  0
  162.1410  209.4850  154.1910 O   0  0  0  0  0  0  0  0  0  0  0  0
  159.4700  214.4530  155.2710 O   0  0  0  0  0  0  0  0  0  0  0  0
  159.2830  213.3770  154.7250 C   0  0  0  0  0  0  0  0  0  0  0  0
  159.3340  210.8980  154.6410 C   0  0  1  0  0  3  0  0  0  0  0  0
  159.9450  210.8410  151.9870 O   0  0  0  0  0  0  0  0  0  0  0  0
  160.1160  213.2650  152.3440 C   0  0  0  0  0  2  0  0  0  0  0  0
  159.5480  212.0970  155.4940 C   0  0  1  0  0  0  0  0  0  0  0  0
  160.7870  211.2740  155.0950 C   0  0  1  0  0  0  0  0  0  0  0  0
  158.0980  214.4300  152.9170 O   0  0  0  0  0  1  0  0  0  0  0  0
  159.1580  212.0230  156.8340 O   0  0  0  0  0  1  0  0  0  0  0  0
  156.6360  208.9020  156.0790 O   0  0  0  0  0  0  0  0  0  0  0  0
  157.2440  209.8580  155.5240 C   0  0  0  0  0  0  0  0  0  0  0  0
  159.3250  208.6940  155.7970 O   0  0  0  0  0  1  0  0  0  0  0  0
  158.6650  209.8000  155.3670 N   0  0  0  0  0  0  0  0  0  0  0  0
  156.5400  210.9750  155.0620 O   0  0  0  0  0  0  0  0  0  0  0  0
  154.4480  211.0940  156.8880 O   0  0  0  0  0  1  0  0  0  0  0  0
  154.9870  213.1020  155.3010 O   0  0  0  0  0  0  0  0  0  0  0  0
  155.6410  212.0030  156.1070 P   0  0  0  0  0  0  0  0  0  0  0  0
  156.6710  212.6850  157.2600 O   0  0  0  0  0  1  0  0  0  0  0  0
  161.4700  207.7800  152.6330 C   0  0  0  0  0  2  0  0  0  0  0  0
  160.6460  207.5670  151.3740 C   0  0  0  0  0  2  0  0  0  0  0  0
  161.5450  207.2220  150.1980 C   0  0  2  0  0  3  0  0  0  0  0  0
  161.2890  208.1000  149.1420 O   0  0  0  0  0  1  0  0  0  0  0  0
  161.3520  204.1070  148.0210 C   0  0  0  0  0  3  0  0  0  0  0  0
  160.6560  203.5380  150.2680 C   0  0  0  0  0  3  0  0  0  0  0  0
  161.5650  205.4270  148.4200 C   0  0  0  0  0  3  0  0  0  0  0  0
  161.3250  205.8100  149.7490 C   0  0  0  0  0  0  0  0  0  0  0  0
  160.8970  203.1530  148.9460 C   0  0  0  0  0  0  0  0  0  0  0  0
  160.8670  204.8610  150.6690 C   0  0  0  0  0  3  0  0  0  0  0  0
  160.6750  201.8220  148.5770 O   0  0  0  0  0  0  0  0  0  0  0  0
  160.7490  201.3770  147.2300 C   0  0  0  0  0  1  0  0  0  0  0  0
  1 26  1  6  0  0  0
  1  7  1  0  0  0  0
  3 11  1  0  0  0  0
  3 12  1  0  0  0  0
  5  1  1  0  0  0  0
  6 15  1  6  0  0  0
  6  9  1  0  0  0  0
  7  2  1  0  0  0  0
  9  8  2  0  0  0  0
  9 13  1  0  0  0  0
 10 14  1  0  0  0  0
 10 20  1  1  0  0  0
 10 13  1  0  0  0  0
 11  5  1  0  0  0  0
 12  6  1  0  0  0  0
 13 16  1  1  0  0  0
 14  4  1  6  0  0  0
 14  2  1  0  0  0  0
 14 13  1  0  0  0  0
 18 17  2  0  0  0  0
 20 18  1  0  0  0  0
 20 19  1  0  0  0  0
 21 18  1  0  0  0  0
 21 24  1  0  0  0  0
 23 24  2  0  0  0  0
 24 22  1  0  0  0  0
 24 25  1  0  0  0  0
 27 26  1  0  0  0  0
 28 29  1  6  0  0  0
 28 27  1  0  0  0  0
 30 32  2  0  0  0  0
 30 34  1  0  0  0  0
 31 35  1  0  0  0  0
 32 33  1  0  0  0  0
 33 28  1  0  0  0  0
 33 35  2  0  0  0  0
 34 31  2  0  0  0  0
 36 34  1  0  0  0  0
 37 36  1  0  0  0  0
M  END
>  <MODEL>
8

>  <REMARK>
 VINA RESULT:      -1.9      1.669      2.237
  Name = 
  8 active torsions:
  status: ('A' for Active; 'I' for Inactive)
    1  A    between atoms: C_1  and  C_21
    2  A    between atoms: O_2  and  C_33
    3  A    between atoms: C_11  and  C_20
    4  A    between atoms: C_11  and  C_26
    5  A    between atoms: O_12  and  C_17
    6  A    between atoms: O_12  and  P_27
    7  A    between atoms: C_20  and  C_21
    8  A    between atoms: C_22  and  N_37
                            x       y       z     vdW  Elec       q    Type
                         _______ _______ _______ _____ _____    ______ ____

>  <TORSDO>
F 8

$$$$
