=
 OpenBabel11072410303D

 32 35  0  0  1  0  0  0  0  0999 V2000
  160.1250  209.4550  152.2290 N   0  0  0  0  0  2  0  0  0  0  0  0
  159.8620  212.1080  154.6830 C   0  0  2  0  0  3  0  0  0  0  0  0
  157.5140  212.8330  154.2420 P   0  0  2  0  0  0  0  0  0  0  0  0
  161.5020  210.6030  153.9020 C   0  0  0  0  0  2  0  0  0  0  0  0
  157.4140  214.3170  153.9770 O   0  0  0  0  0  0  0  0  0  0  0  0
  160.9480  211.2120  155.1970 C   0  0  0  0  0  2  0  0  0  0  0  0
  158.7120  212.5020  155.5590 C   0  0  0  0  0  2  0  0  0  0  0  0
  160.8370  211.6640  151.8480 O   0  0  0  0  0  1  0  0  0  0  0  0
  159.2360  211.2850  153.6060 C   0  0  1  0  0  3  0  0  0  0  0  0
  158.2770  212.0620  152.9330 O   0  0  0  0  0  0  0  0  0  0  0  0
  160.4170  210.7570  152.8240 C   0  0  1  0  0  0  0  0  0  0  0  0
  155.9790  212.1800  154.5650 O   0  0  0  0  0  0  0  0  0  0  0  0
  154.6410  210.5680  156.6560 C   0  0  0  0  0  2  0  0  0  0  0  0
  155.2140  210.0720  155.3600 C   0  0  0  0  0  2  0  0  0  0  0  0
  156.1820  211.2070  155.5500 C   0  0  2  0  0  3  0  0  0  0  0  0
  155.5740  211.6130  156.7490 O   0  0  0  0  0  0  0  0  0  0  0  0
  162.2870  206.4420  151.7020 C   0  0  0  0  0  3  0  0  0  0  0  0
  161.6250  207.6540  151.4560 C   0  0  0  0  0  0  0  0  0  0  0  0
  162.1690  205.8020  152.9390 C   0  0  0  0  0  3  0  0  0  0  0  0
  160.8340  208.2300  152.4770 C   0  0  0  0  0  0  0  0  0  0  0  0
  160.7200  207.5750  153.7140 C   0  0  0  0  0  3  0  0  0  0  0  0
  161.3850  206.3690  153.9460 C   0  0  0  0  0  3  0  0  0  0  0  0
  161.3680  207.6690  148.9220 N   0  0  0  0  0  2  0  0  0  0  0  0
  162.3230  209.4460  150.0720 O   0  0  0  0  0  0  0  0  0  0  0  0
  161.7860  208.3080  150.1390 C   0  0  0  0  0  0  0  0  0  0  0  0
  160.5300  206.4790  148.8790 C   0  0  0  0  0  2  0  0  0  0  0  0
  161.0890  205.4760  147.8790 C   0  0  2  0  0  3  0  0  0  0  0  0
  161.2320  204.1360  148.5330 C   0  0  0  0  0  0  0  0  0  0  0  0
  161.2610  204.0360  149.7880 O   0  0  0  0  0  0  0  0  0  0  0  0
  161.2690  202.9620  147.7280 N   0  0  0  0  0  1  0  0  0  0  0  0
  162.3210  205.9210  147.3940 O   0  0  0  0  0  0  0  0  0  0  0  0
  162.2090  205.8520  146.0050 C   0  0  0  0  0  1  0  0  0  0  0  0
  1 20  1  0  0  0  0
  1 11  1  0  0  0  0
  2  6  1  1  0  0  0
  2  7  1  0  0  0  0
  3  5  2  6  0  0  0
  3 12  1  0  0  0  0
  3  7  1  0  0  0  0
  4  6  1  0  0  0  0
  9 10  1  6  0  0  0
  9  2  1  0  0  0  0
 10  3  1  0  0  0  0
 11  8  1  6  0  0  0
 11  9  1  0  0  0  0
 11  4  1  0  0  0  0
 13 16  1  0  0  0  0
 14 15  1  0  0  0  0
 14 13  1  0  0  0  0
 15 12  1  6  0  0  0
 15 16  1  0  0  0  0
 17 19  1  0  0  0  0
 18 17  2  0  0  0  0
 18 20  1  0  0  0  0
 19 22  2  0  0  0  0
 20 21  2  0  0  0  0
 21 22  1  0  0  0  0
 23 25  1  0  0  0  0
 24 25  2  0  0  0  0
 25 18  1  0  0  0  0
 26 23  1  0  0  0  0
 27 28  1  0  0  0  0
 27 26  1  1  0  0  0
 28 29  2  0  0  0  0
 30 28  1  0  0  0  0
 31 27  1  0  0  0  0
 32 31  1  0  0  0  0
M  END
>  <MODEL>
1

>  <REMARK>
 VINA RESULT:      -7.2      0.000      0.000
  Name = 
  9 active torsions:
  status: ('A' for Active; 'I' for Inactive)
    1  A    between atoms: N_1  and  C_16
    2  A    between atoms: N_1  and  C_29
    3  A    between atoms: O_3  and  C_13
    4  A    between atoms: C_7  and  C_31
    5  A    between atoms: C_8  and  C_13
    6  A    between atoms: P_10  and  O_23
    7  A    between atoms: C_13  and  C_26
    8  A    between atoms: N_15  and  C_26
    9  A    between atoms: O_23  and  C_28
                            x       y       z     vdW  Elec       q    Type
                         _______ _______ _______ _____ _____    ______ ____

>  <TORSDO>
F 9

$$$$
=
 OpenBabel11072410303D

 32 35  0  0  1  0  0  0  0  0999 V2000
  160.7430  206.9550  150.5610 N   0  0  0  0  0  2  0  0  0  0  0  0
  161.0840  208.4480  153.8440 C   0  0  2  0  0  3  0  0  0  0  0  0
  159.9680  210.6380  153.4090 P   0  0  2  0  0  0  0  0  0  0  0  0
  161.7280  206.4600  152.7500 C   0  0  0  0  0  2  0  0  0  0  0  0
  160.8390  211.8100  153.7940 O   0  0  0  0  0  0  0  0  0  0  0  0
  161.1600  206.9700  154.0810 C   0  0  0  0  0  2  0  0  0  0  0  0
  160.1280  209.3020  154.6200 C   0  0  0  0  0  2  0  0  0  0  0  0
  162.6580  208.1180  151.2760 O   0  0  0  0  0  1  0  0  0  0  0  0
  160.5910  208.5330  152.4380 C   0  0  1  0  0  3  0  0  0  0  0  0
  160.6010  209.8770  152.0270 O   0  0  0  0  0  0  0  0  0  0  0  0
  161.4560  207.5410  151.6930 C   0  0  1  0  0  0  0  0  0  0  0  0
  158.3600  211.1390  153.1850 O   0  0  0  0  0  0  0  0  0  0  0  0
  156.1660  212.3960  154.7240 C   0  0  0  0  0  2  0  0  0  0  0  0
  157.0820  211.2990  155.1860 C   0  0  0  0  0  2  0  0  0  0  0  0
  158.0690  211.9710  154.2720 C   0  0  2  0  0  3  0  0  0  0  0  0
  157.1430  212.9520  153.8830 O   0  0  0  0  0  0  0  0  0  0  0  0
  161.4710  204.0340  148.3320 C   0  0  0  0  0  3  0  0  0  0  0  0
  161.3840  205.3550  148.7940 C   0  0  0  0  0  0  0  0  0  0  0  0
  161.0510  202.9680  149.1340 C   0  0  0  0  0  3  0  0  0  0  0  0
  160.8680  205.6050  150.0860 C   0  0  0  0  0  0  0  0  0  0  0  0
  160.4450  204.5260  150.8800 C   0  0  0  0  0  3  0  0  0  0  0  0
  160.5370  203.2150  150.4090 C   0  0  0  0  0  3  0  0  0  0  0  0
  161.3580  206.6180  146.5820 N   0  0  0  0  0  2  0  0  0  0  0  0
  162.7210  207.2590  148.3490 O   0  0  0  0  0  0  0  0  0  0  0  0
  161.8510  206.4550  147.9220 C   0  0  0  0  0  0  0  0  0  0  0  0
  160.1960  205.9160  146.0560 C   0  0  0  0  0  2  0  0  0  0  0  0
  160.5250  205.2870  144.7090 C   0  0  2  0  0  3  0  0  0  0  0  0
  160.6500  203.8030  144.8610 C   0  0  0  0  0  0  0  0  0  0  0  0
  161.6880  203.2950  145.3610 O   0  0  0  0  0  0  0  0  0  0  0  0
  159.5580  202.9640  144.4950 N   0  0  0  0  0  1  0  0  0  0  0  0
  161.7080  205.8310  144.2040 O   0  0  0  0  0  0  0  0  0  0  0  0
  161.5440  205.8330  142.8190 C   0  0  0  0  0  1  0  0  0  0  0  0
  1 11  1  0  0  0  0
  2  6  1  1  0  0  0
  2  7  1  0  0  0  0
  3  5  2  1  0  0  0
  3  7  1  0  0  0  0
  4  6  1  0  0  0  0
  9 10  1  6  0  0  0
  9  2  1  0  0  0  0
 10  3  1  0  0  0  0
 11  8  1  6  0  0  0
 11  9  1  0  0  0  0
 11  4  1  0  0  0  0
 12  3  1  0  0  0  0
 13 14  1  0  0  0  0
 15 12  1  6  0  0  0
 15 14  1  0  0  0  0
 16 15  1  0  0  0  0
 16 13  1  0  0  0  0
 17 18  2  0  0  0  0
 17 19  1  0  0  0  0
 18 20  1  0  0  0  0
 19 22  2  0  0  0  0
 20  1  1  0  0  0  0
 20 21  2  0  0  0  0
 22 21  1  0  0  0  0
 23 25  1  0  0  0  0
 25 24  2  0  0  0  0
 25 18  1  0  0  0  0
 26 23  1  0  0  0  0
 27 28  1  0  0  0  0
 27 26  1  1  0  0  0
 28 29  2  0  0  0  0
 30 28  1  0  0  0  0
 31 27  1  0  0  0  0
 32 31  1  0  0  0  0
M  END
>  <MODEL>
2

>  <REMARK>
 VINA RESULT:      -7.1      2.017      3.602
  Name = 
  9 active torsions:
  status: ('A' for Active; 'I' for Inactive)
    1  A    between atoms: N_1  and  C_16
    2  A    between atoms: N_1  and  C_29
    3  A    between atoms: O_3  and  C_13
    4  A    between atoms: C_7  and  C_31
    5  A    between atoms: C_8  and  C_13
    6  A    between atoms: P_10  and  O_23
    7  A    between atoms: C_13  and  C_26
    8  A    between atoms: N_15  and  C_26
    9  A    between atoms: O_23  and  C_28
                            x       y       z     vdW  Elec       q    Type
                         _______ _______ _______ _____ _____    ______ ____

>  <TORSDO>
F 9

$$$$
=
 OpenBabel11072410303D

 32 35  0  0  1  0  0  0  0  0999 V2000
  160.7230  205.8670  150.8890 N   0  0  0  0  0  2  0  0  0  0  0  0
  161.1980  207.6550  154.0050 C   0  0  2  0  0  3  0  0  0  0  0  0
  160.7890  209.9820  153.2000 P   0  0  2  0  0  0  0  0  0  0  0  0
  161.3410  205.4340  153.2220 C   0  0  0  0  0  2  0  0  0  0  0  0
  161.9210  210.9170  153.5540 O   0  0  0  0  0  0  0  0  0  0  0  0
  160.8320  206.2590  154.4110 C   0  0  0  0  0  2  0  0  0  0  0  0
  160.4620  208.8350  154.5630 C   0  0  0  0  0  2  0  0  0  0  0  0
  162.8220  206.5570  151.6940 O   0  0  0  0  0  1  0  0  0  0  0  0
  160.8680  207.6730  152.5490 C   0  0  1  0  0  3  0  0  0  0  0  0
  161.2930  208.8930  151.9960 O   0  0  0  0  0  0  0  0  0  0  0  0
  161.4760  206.3900  152.0260 C   0  0  1  0  0  0  0  0  0  0  0  0
  159.4140  210.8620  152.7330 O   0  0  0  0  0  0  0  0  0  0  0  0
  158.8290  213.4960  151.5160 C   0  0  0  0  0  2  0  0  0  0  0  0
  158.6630  213.1100  152.9570 C   0  0  0  0  0  2  0  0  0  0  0  0
  159.8240  212.1990  152.6680 C   0  0  2  0  0  3  0  0  0  0  0  0
  159.8990  212.6080  151.3280 O   0  0  0  0  0  0  0  0  0  0  0  0
  161.2260  203.1020  148.4130 C   0  0  0  0  0  3  0  0  0  0  0  0
  161.1450  204.3930  148.9550 C   0  0  0  0  0  0  0  0  0  0  0  0
  161.0070  201.9760  149.2130 C   0  0  0  0  0  3  0  0  0  0  0  0
  160.8410  204.5500  150.3270 C   0  0  0  0  0  0  0  0  0  0  0  0
  160.6190  203.4110  151.1190 C   0  0  0  0  0  3  0  0  0  0  0  0
  160.7030  202.1320  150.5680 C   0  0  0  0  0  3  0  0  0  0  0  0
  162.0550  205.4210  146.8100 N   0  0  0  0  0  2  0  0  0  0  0  0
  161.0480  206.7070  148.4600 O   0  0  0  0  0  0  0  0  0  0  0  0
  161.3960  205.5580  148.0800 C   0  0  0  0  0  0  0  0  0  0  0  0
  162.2910  204.1420  146.1540 C   0  0  0  0  0  2  0  0  0  0  0  0
  161.3920  204.0030  144.9330 C   0  0  2  0  0  3  0  0  0  0  0  0
  161.0690  205.3580  144.3850 C   0  0  0  0  0  0  0  0  0  0  0  0
  161.6450  205.7830  143.3490 O   0  0  0  0  0  0  0  0  0  0  0  0
  160.0550  206.1430  145.0040 N   0  0  0  0  0  1  0  0  0  0  0  0
  160.2230  203.3190  145.2770 O   0  0  0  0  0  0  0  0  0  0  0  0
  160.5760  201.9690  145.2620 C   0  0  0  0  0  1  0  0  0  0  0  0
  1 11  1  0  0  0  0
  2  6  1  1  0  0  0
  2  7  1  0  0  0  0
  3  5  2  1  0  0  0
  3  7  1  0  0  0  0
  4  6  1  0  0  0  0
  9 10  1  6  0  0  0
  9  2  1  0  0  0  0
 10  3  1  0  0  0  0
 11  8  1  6  0  0  0
 11  9  1  0  0  0  0
 11  4  1  0  0  0  0
 12  3  1  0  0  0  0
 13 14  1  0  0  0  0
 15 12  1  6  0  0  0
 15 14  1  0  0  0  0
 16 13  1  0  0  0  0
 16 15  1  0  0  0  0
 17 18  2  0  0  0  0
 17 19  1  0  0  0  0
 18 20  1  0  0  0  0
 19 22  2  0  0  0  0
 20  1  1  0  0  0  0
 20 21  2  0  0  0  0
 22 21  1  0  0  0  0
 23 25  1  0  0  0  0
 25 24  2  0  0  0  0
 25 18  1  0  0  0  0
 26 23  1  0  0  0  0
 27 31  1  0  0  0  0
 27 26  1  1  0  0  0
 28 27  1  0  0  0  0
 28 30  1  0  0  0  0
 29 28  2  0  0  0  0
 32 31  1  0  0  0  0
M  END
>  <MODEL>
3

>  <REMARK>
 VINA RESULT:      -6.9      2.852      4.788
  Name = 
  9 active torsions:
  status: ('A' for Active; 'I' for Inactive)
    1  A    between atoms: N_1  and  C_16
    2  A    between atoms: N_1  and  C_29
    3  A    between atoms: O_3  and  C_13
    4  A    between atoms: C_7  and  C_31
    5  A    between atoms: C_8  and  C_13
    6  A    between atoms: P_10  and  O_23
    7  A    between atoms: C_13  and  C_26
    8  A    between atoms: N_15  and  C_26
    9  A    between atoms: O_23  and  C_28
                            x       y       z     vdW  Elec       q    Type
                         _______ _______ _______ _____ _____    ______ ____

>  <TORSDO>
F 9

$$$$
=
 OpenBabel11072410303D

 32 35  0  0  1  0  0  0  0  0999 V2000
  160.5450  205.5310  151.3360 N   0  0  0  0  0  2  0  0  0  0  0  0
  161.6050  208.3050  153.4120 C   0  0  2  0  0  3  0  0  0  0  0  0
  162.1000  209.9780  151.6270 P   0  0  2  0  0  0  0  0  0  0  0  0
  160.9240  206.0640  153.6990 C   0  0  0  0  0  2  0  0  0  0  0  0
  163.4940  210.5490  151.7490 O   0  0  0  0  0  0  0  0  0  0  0  0
  160.7410  207.4630  154.3020 C   0  0  0  0  0  2  0  0  0  0  0  0
  161.3520  209.7740  153.2630 C   0  0  0  0  0  2  0  0  0  0  0  0
  162.7380  205.7990  152.1410 O   0  0  0  0  0  1  0  0  0  0  0  0
  161.3260  207.7470  152.0560 C   0  0  1  0  0  3  0  0  0  0  0  0
  162.1810  208.3570  151.1230 O   0  0  0  0  0  0  0  0  0  0  0  0
  161.4220  206.2510  152.2560 C   0  0  1  0  0  0  0  0  0  0  0  0
  161.1570  210.9280  150.5810 O   0  0  0  0  0  0  0  0  0  0  0  0
  161.3230  211.8260  147.7660 C   0  0  0  0  0  2  0  0  0  0  0  0
  161.5320  212.6620  148.9950 C   0  0  0  0  0  2  0  0  0  0  0  0
  162.0310  211.3700  149.5810 C   0  0  2  0  0  3  0  0  0  0  0  0
  161.7900  210.6610  148.3940 O   0  0  0  0  0  0  0  0  0  0  0  0
  161.0690  202.7450  148.8880 C   0  0  0  0  0  3  0  0  0  0  0  0
  160.8780  204.0370  149.4000 C   0  0  0  0  0  0  0  0  0  0  0  0
  161.1520  201.6430  149.7440 C   0  0  0  0  0  3  0  0  0  0  0  0
  160.7720  204.2190  150.7980 C   0  0  0  0  0  0  0  0  0  0  0  0
  160.8530  203.1020  151.6470 C   0  0  0  0  0  3  0  0  0  0  0  0
  161.0430  201.8220  151.1250 C   0  0  0  0  0  3  0  0  0  0  0  0
  161.3930  205.1170  147.1510 N   0  0  0  0  0  2  0  0  0  0  0  0
  160.2490  206.2470  148.8270 O   0  0  0  0  0  0  0  0  0  0  0  0
  160.8100  205.1800  148.4640 C   0  0  0  0  0  0  0  0  0  0  0  0
  161.8530  203.8840  146.5280 C   0  0  0  0  0  2  0  0  0  0  0  0
  161.3990  203.8270  145.0760 C   0  0  2  0  0  3  0  0  0  0  0  0
  161.0680  205.2050  144.5940 C   0  0  0  0  0  0  0  0  0  0  0  0
  161.7590  205.7510  143.6930 O   0  0  0  0  0  0  0  0  0  0  0  0
  159.9250  205.8760  145.1130 N   0  0  0  0  0  1  0  0  0  0  0  0
  160.2910  202.9840  144.9550 O   0  0  0  0  0  0  0  0  0  0  0  0
  160.6580  201.8070  145.6090 C   0  0  0  0  0  1  0  0  0  0  0  0
  1 11  1  0  0  0  0
  2  7  1  6  0  0  0
  2  6  1  0  0  0  0
  3  5  2  1  0  0  0
  3  7  1  0  0  0  0
  4  6  1  0  0  0  0
  9 10  1  6  0  0  0
  9 11  1  0  0  0  0
  9  2  1  0  0  0  0
 10  3  1  0  0  0  0
 11  8  1  6  0  0  0
 11  4  1  0  0  0  0
 12  3  1  0  0  0  0
 13 16  1  0  0  0  0
 13 14  1  0  0  0  0
 14 15  1  0  0  0  0
 15 12  1  1  0  0  0
 16 15  1  0  0  0  0
 17 18  2  0  0  0  0
 17 19  1  0  0  0  0
 18 20  1  0  0  0  0
 19 22  2  0  0  0  0
 20  1  1  0  0  0  0
 20 21  2  0  0  0  0
 22 21  1  0  0  0  0
 23 25  1  0  0  0  0
 25 24  2  0  0  0  0
 25 18  1  0  0  0  0
 26 23  1  0  0  0  0
 27 26  1  1  0  0  0
 28 27  1  0  0  0  0
 28 30  1  0  0  0  0
 29 28  2  0  0  0  0
 31 27  1  0  0  0  0
 31 32  1  0  0  0  0
M  END
>  <MODEL>
4

>  <REMARK>
 VINA RESULT:      -6.6      3.694      5.721
  Name = 
  9 active torsions:
  status: ('A' for Active; 'I' for Inactive)
    1  A    between atoms: N_1  and  C_16
    2  A    between atoms: N_1  and  C_29
    3  A    between atoms: O_3  and  C_13
    4  A    between atoms: C_7  and  C_31
    5  A    between atoms: C_8  and  C_13
    6  A    between atoms: P_10  and  O_23
    7  A    between atoms: C_13  and  C_26
    8  A    between atoms: N_15  and  C_26
    9  A    between atoms: O_23  and  C_28
                            x       y       z     vdW  Elec       q    Type
                         _______ _______ _______ _____ _____    ______ ____

>  <TORSDO>
F 9

$$$$
=
 OpenBabel11072410303D

 32 35  0  0  1  0  0  0  0  0999 V2000
  160.7140  205.9110  150.8490 N   0  0  0  0  0  2  0  0  0  0  0  0
  161.1810  207.5910  154.0250 C   0  0  2  0  0  3  0  0  0  0  0  0
  160.9030  209.9550  153.2750 P   0  0  2  0  0  0  0  0  0  0  0  0
  161.2440  205.3870  153.1850 C   0  0  0  0  0  2  0  0  0  0  0  0
  162.0670  210.8260  153.6860 O   0  0  0  0  0  0  0  0  0  0  0  0
  160.7390  206.2040  154.3820 C   0  0  0  0  0  2  0  0  0  0  0  0
  160.4850  208.7890  154.5950 C   0  0  0  0  0  2  0  0  0  0  0  0
  162.8190  206.4790  151.7310 O   0  0  0  0  0  1  0  0  0  0  0  0
  160.8950  207.6630  152.5620 C   0  0  1  0  0  3  0  0  0  0  0  0
  161.3910  208.8760  152.0550 O   0  0  0  0  0  0  0  0  0  0  0  0
  161.4580  206.3680  152.0210 C   0  0  1  0  0  0  0  0  0  0  0  0
  159.5850  210.9120  152.7940 O   0  0  0  0  0  0  0  0  0  0  0  0
  157.7770  213.0330  153.7900 C   0  0  0  0  0  2  0  0  0  0  0  0
  157.8520  211.6120  154.2680 C   0  0  0  0  0  2  0  0  0  0  0  0
  159.3010  211.7410  153.8860 C   0  0  2  0  0  3  0  0  0  0  0  0
  159.1370  213.0630  153.4470 O   0  0  0  0  0  0  0  0  0  0  0  0
  161.7540  204.9250  147.3880 C   0  0  0  0  0  3  0  0  0  0  0  0
  161.3010  204.8250  148.7120 C   0  0  0  0  0  0  0  0  0  0  0  0
  162.0540  206.1710  146.8290 C   0  0  0  0  0  3  0  0  0  0  0  0
  161.1470  206.0000  149.4820 C   0  0  0  0  0  0  0  0  0  0  0  0
  161.4560  207.2450  148.9100 C   0  0  0  0  0  3  0  0  0  0  0  0
  161.9050  207.3320  147.5910 C   0  0  0  0  0  3  0  0  0  0  0  0
  160.7690  202.3520  148.4130 N   0  0  0  0  0  2  0  0  0  0  0  0
  160.8640  203.3450  150.5090 O   0  0  0  0  0  0  0  0  0  0  0  0
  160.9800  203.4910  149.2640 C   0  0  0  0  0  0  0  0  0  0  0  0
  161.1030  202.3280  146.9950 C   0  0  0  0  0  2  0  0  0  0  0  0
  160.4120  201.1560  146.3110 C   0  0  2  0  0  3  0  0  0  0  0  0
  161.2140  199.9080  146.5110 C   0  0  0  0  0  0  0  0  0  0  0  0
  161.8680  199.7310  147.5740 O   0  0  0  0  0  0  0  0  0  0  0  0
  161.1850  198.8870  145.5190 N   0  0  0  0  0  1  0  0  0  0  0  0
  160.2510  201.4250  144.9500 O   0  0  0  0  0  0  0  0  0  0  0  0
  160.2070  202.8170  144.8590 C   0  0  0  0  0  1  0  0  0  0  0  0
  1 11  1  0  0  0  0
  2  6  1  1  0  0  0
  2  7  1  0  0  0  0
  3  5  2  1  0  0  0
  3  7  1  0  0  0  0
  4  6  1  0  0  0  0
  9 10  1  6  0  0  0
  9  2  1  0  0  0  0
 10  3  1  0  0  0  0
 11  8  1  6  0  0  0
 11  9  1  0  0  0  0
 11  4  1  0  0  0  0
 12  3  1  0  0  0  0
 13 14  1  0  0  0  0
 15 12  1  6  0  0  0
 15 14  1  0  0  0  0
 16 13  1  0  0  0  0
 16 15  1  0  0  0  0
 17 18  1  0  0  0  0
 18 25  1  0  0  0  0
 18 20  2  0  0  0  0
 19 17  2  0  0  0  0
 19 22  1  0  0  0  0
 20  1  1  0  0  0  0
 21 20  1  0  0  0  0
 22 21  2  0  0  0  0
 23 25  1  0  0  0  0
 25 24  2  0  0  0  0
 26 23  1  0  0  0  0
 27 28  1  0  0  0  0
 27 26  1  1  0  0  0
 28 29  2  0  0  0  0
 30 28  1  0  0  0  0
 31 27  1  0  0  0  0
 32 31  1  0  0  0  0
M  END
>  <MODEL>
5

>  <REMARK>
 VINA RESULT:      -6.5      2.577      4.826
  Name = 
  9 active torsions:
  status: ('A' for Active; 'I' for Inactive)
    1  A    between atoms: N_1  and  C_16
    2  A    between atoms: N_1  and  C_29
    3  A    between atoms: O_3  and  C_13
    4  A    between atoms: C_7  and  C_31
    5  A    between atoms: C_8  and  C_13
    6  A    between atoms: P_10  and  O_23
    7  A    between atoms: C_13  and  C_26
    8  A    between atoms: N_15  and  C_26
    9  A    between atoms: O_23  and  C_28
                            x       y       z     vdW  Elec       q    Type
                         _______ _______ _______ _____ _____    ______ ____

>  <TORSDO>
F 9

$$$$
=
 OpenBabel11072410303D

 32 35  0  0  1  0  0  0  0  0999 V2000
  160.6610  206.7170  151.5060 N   0  0  0  0  0  2  0  0  0  0  0  0
  161.2030  207.8390  154.9090 C   0  0  2  0  0  3  0  0  0  0  0  0
  161.5890  210.2660  154.4760 P   0  0  2  0  0  0  0  0  0  0  0  0
  160.8080  205.8070  153.7780 C   0  0  0  0  0  2  0  0  0  0  0  0
  162.8840  210.7560  155.0820 O   0  0  0  0  0  0  0  0  0  0  0  0
  160.4010  206.5790  155.0390 C   0  0  0  0  0  2  0  0  0  0  0  0
  160.7670  209.1000  155.5900 C   0  0  0  0  0  2  0  0  0  0  0  0
  162.7410  206.6210  152.5990 O   0  0  0  0  0  1  0  0  0  0  0  0
  161.0910  208.1530  153.4530 C   0  0  1  0  0  3  0  0  0  0  0  0
  161.9180  209.2490  153.1550 O   0  0  0  0  0  0  0  0  0  0  0  0
  161.3710  206.8290  152.7780 C   0  0  1  0  0  0  0  0  0  0  0  0
  160.6000  211.5780  154.0440 O   0  0  0  0  0  0  0  0  0  0  0  0
  157.7980  212.5170  154.2100 C   0  0  0  0  0  2  0  0  0  0  0  0
  158.3420  211.4510  153.3040 C   0  0  0  0  0  2  0  0  0  0  0  0
  159.3050  211.2200  154.4360 C   0  0  2  0  0  3  0  0  0  0  0  0
  158.7440  212.2470  155.2110 O   0  0  0  0  0  0  0  0  0  0  0  0
  161.8760  206.2020  148.0010 C   0  0  0  0  0  3  0  0  0  0  0  0
  161.3130  205.9360  149.2580 C   0  0  0  0  0  0  0  0  0  0  0  0
  162.3310  207.4840  147.6790 C   0  0  0  0  0  3  0  0  0  0  0  0
  161.2060  206.9810  150.2030 C   0  0  0  0  0  0  0  0  0  0  0  0
  161.6710  208.2640  149.8690 C   0  0  0  0  0  3  0  0  0  0  0  0
  162.2280  208.5160  148.6150 C   0  0  0  0  0  3  0  0  0  0  0  0
  161.0380  203.4790  148.6440 N   0  0  0  0  0  2  0  0  0  0  0  0
  160.2000  204.3540  150.6250 O   0  0  0  0  0  0  0  0  0  0  0  0
  160.8300  204.5700  149.5560 C   0  0  0  0  0  0  0  0  0  0  0  0
  161.9440  203.5370  147.5050 C   0  0  0  0  0  2  0  0  0  0  0  0
  161.1690  203.3630  146.2060 C   0  0  2  0  0  3  0  0  0  0  0  0
  160.8310  201.9190  146.0080 C   0  0  0  0  0  0  0  0  0  0  0  0
  161.2060  201.0530  146.8440 O   0  0  0  0  0  0  0  0  0  0  0  0
  160.0250  201.5300  144.9010 N   0  0  0  0  0  1  0  0  0  0  0  0
  161.9230  203.8440  145.1330 O   0  0  0  0  0  0  0  0  0  0  0  0
  161.2020  204.9340  144.6430 C   0  0  0  0  0  1  0  0  0  0  0  0
  1 11  1  0  0  0  0
  2  6  1  1  0  0  0
  2  7  1  0  0  0  0
  3  5  2  1  0  0  0
  3  7  1  0  0  0  0
  4  6  1  0  0  0  0
  9 10  1  6  0  0  0
  9  2  1  0  0  0  0
 10  3  1  0  0  0  0
 11  8  1  6  0  0  0
 11  9  1  0  0  0  0
 11  4  1  0  0  0  0
 12  3  1  0  0  0  0
 13 16  1  0  0  0  0
 14 13  1  0  0  0  0
 14 15  1  0  0  0  0
 15 12  1  6  0  0  0
 15 16  1  0  0  0  0
 17 18  1  0  0  0  0
 18 25  1  0  0  0  0
 18 20  2  0  0  0  0
 19 17  2  0  0  0  0
 19 22  1  0  0  0  0
 20  1  1  0  0  0  0
 21 20  1  0  0  0  0
 22 21  2  0  0  0  0
 23 25  1  0  0  0  0
 25 24  2  0  0  0  0
 26 23  1  0  0  0  0
 27 26  1  1  0  0  0
 28 27  1  0  0  0  0
 28 29  2  0  0  0  0
 30 28  1  0  0  0  0
 31 27  1  0  0  0  0
 32 31  1  0  0  0  0
M  END
>  <MODEL>
6

>  <REMARK>
 VINA RESULT:      -6.3      2.337      4.202
  Name = 
  9 active torsions:
  status: ('A' for Active; 'I' for Inactive)
    1  A    between atoms: N_1  and  C_16
    2  A    between atoms: N_1  and  C_29
    3  A    between atoms: O_3  and  C_13
    4  A    between atoms: C_7  and  C_31
    5  A    between atoms: C_8  and  C_13
    6  A    between atoms: P_10  and  O_23
    7  A    between atoms: C_13  and  C_26
    8  A    between atoms: N_15  and  C_26
    9  A    between atoms: O_23  and  C_28
                            x       y       z     vdW  Elec       q    Type
                         _______ _______ _______ _____ _____    ______ ____

>  <TORSDO>
F 9

$$$$
=
 OpenBabel11072410303D

 32 35  0  0  1  0  0  0  0  0999 V2000
  160.6160  206.6560  151.5050 N   0  0  0  0  0  2  0  0  0  0  0  0
  161.1520  207.9710  154.8380 C   0  0  2  0  0  3  0  0  0  0  0  0
  161.5320  210.3710  154.2680 P   0  0  2  0  0  0  0  0  0  0  0  0
  160.7640  205.8760  153.8240 C   0  0  0  0  0  2  0  0  0  0  0  0
  162.8240  210.8980  154.8460 O   0  0  0  0  0  0  0  0  0  0  0  0
  160.3540  206.7180  155.0390 C   0  0  0  0  0  2  0  0  0  0  0  0
  160.7120  209.2680  155.4470 C   0  0  0  0  0  2  0  0  0  0  0  0
  162.6950  206.6280  152.6030 O   0  0  0  0  0  1  0  0  0  0  0  0
  161.0410  208.2010  153.3670 C   0  0  1  0  0  3  0  0  0  0  0  0
  161.8650  209.2810  153.0070 O   0  0  0  0  0  0  0  0  0  0  0  0
  161.3250  206.8420  152.7680 C   0  0  1  0  0  0  0  0  0  0  0  0
  160.5390  211.6530  153.7620 O   0  0  0  0  0  0  0  0  0  0  0  0
  158.4880  213.4720  154.8770 C   0  0  0  0  0  2  0  0  0  0  0  0
  158.2510  212.1900  154.1330 C   0  0  0  0  0  2  0  0  0  0  0  0
  159.5600  211.7880  154.7530 C   0  0  2  0  0  3  0  0  0  0  0  0
  159.7100  213.0240  155.4020 O   0  0  0  0  0  0  0  0  0  0  0  0
  161.8440  206.0610  148.0170 C   0  0  0  0  0  3  0  0  0  0  0  0
  161.2960  205.8190  149.2850 C   0  0  0  0  0  0  0  0  0  0  0  0
  162.2440  207.3480  147.6450 C   0  0  0  0  0  3  0  0  0  0  0  0
  161.1460  206.8940  150.1910 C   0  0  0  0  0  0  0  0  0  0  0  0
  161.5570  208.1810  149.8070 C   0  0  0  0  0  3  0  0  0  0  0  0
  162.1000  208.4090  148.5420 C   0  0  0  0  0  3  0  0  0  0  0  0
  160.8620  203.3870  148.6650 N   0  0  0  0  0  2  0  0  0  0  0  0
  160.4840  204.1970  150.8080 O   0  0  0  0  0  0  0  0  0  0  0  0
  160.8710  204.4460  149.6360 C   0  0  0  0  0  0  0  0  0  0  0  0
  161.5010  203.4790  147.3590 C   0  0  0  0  0  2  0  0  0  0  0  0
  161.2890  202.1910  146.5760 C   0  0  2  0  0  3  0  0  0  0  0  0
  160.5470  202.4850  145.3100 C   0  0  0  0  0  0  0  0  0  0  0  0
  159.8330  201.6010  144.7660 O   0  0  0  0  0  0  0  0  0  0  0  0
  160.5990  203.7950  144.7520 N   0  0  0  0  0  1  0  0  0  0  0  0
  160.5870  201.2680  147.3550 O   0  0  0  0  0  0  0  0  0  0  0  0
  161.5090  200.2610  147.6420 C   0  0  0  0  0  1  0  0  0  0  0  0
  1 11  1  0  0  0  0
  2  6  1  1  0  0  0
  2  7  1  0  0  0  0
  3  5  2  1  0  0  0
  3  7  1  0  0  0  0
  4  6  1  0  0  0  0
  9 10  1  6  0  0  0
  9  2  1  0  0  0  0
 10  3  1  0  0  0  0
 11  8  1  6  0  0  0
 11  9  1  0  0  0  0
 11  4  1  0  0  0  0
 12  3  1  0  0  0  0
 13 16  1  0  0  0  0
 14 15  1  0  0  0  0
 14 13  1  0  0  0  0
 15 12  1  6  0  0  0
 15 16  1  0  0  0  0
 17 18  1  0  0  0  0
 18 25  1  0  0  0  0
 18 20  2  0  0  0  0
 19 17  2  0  0  0  0
 19 22  1  0  0  0  0
 20  1  1  0  0  0  0
 21 20  1  0  0  0  0
 22 21  2  0  0  0  0
 23 25  1  0  0  0  0
 25 24  2  0  0  0  0
 26 23  1  0  0  0  0
 27 31  1  0  0  0  0
 27 26  1  1  0  0  0
 28 27  1  0  0  0  0
 29 28  2  0  0  0  0
 30 28  1  0  0  0  0
 31 32  1  0  0  0  0
M  END
>  <MODEL>
7

>  <REMARK>
 VINA RESULT:      -6.2      2.531      4.477
  Name = 
  9 active torsions:
  status: ('A' for Active; 'I' for Inactive)
    1  A    between atoms: N_1  and  C_16
    2  A    between atoms: N_1  and  C_29
    3  A    between atoms: O_3  and  C_13
    4  A    between atoms: C_7  and  C_31
    5  A    between atoms: C_8  and  C_13
    6  A    between atoms: P_10  and  O_23
    7  A    between atoms: C_13  and  C_26
    8  A    between atoms: N_15  and  C_26
    9  A    between atoms: O_23  and  C_28
                            x       y       z     vdW  Elec       q    Type
                         _______ _______ _______ _____ _____    ______ ____

>  <TORSDO>
F 9

$$$$
=
 OpenBabel11072410303D

 32 35  0  0  1  0  0  0  0  0999 V2000
  160.5210  209.0180  151.8510 N   0  0  0  0  0  2  0  0  0  0  0  0
  160.7350  211.6890  154.2900 C   0  0  2  0  0  3  0  0  0  0  0  0
  158.6580  212.9410  153.7000 P   0  0  2  0  0  0  0  0  0  0  0  0
  162.0200  209.8300  153.6140 C   0  0  0  0  0  2  0  0  0  0  0  0
  158.9280  214.4030  153.4330 O   0  0  0  0  0  0  0  0  0  0  0  0
  161.5430  210.5680  154.8710 C   0  0  0  0  0  2  0  0  0  0  0  0
  159.6570  212.3540  155.0910 C   0  0  0  0  0  2  0  0  0  0  0  0
  161.7560  210.9920  151.5240 O   0  0  0  0  0  1  0  0  0  0  0  0
  160.0020  211.0240  153.1720 C   0  0  1  0  0  3  0  0  0  0  0  0
  159.2990  211.9960  152.4410 O   0  0  0  0  0  0  0  0  0  0  0  0
  161.0740  210.2220  152.4670 C   0  0  1  0  0  0  0  0  0  0  0  0
  156.9950  212.6730  153.9200 O   0  0  0  0  0  0  0  0  0  0  0  0
  154.4960  214.0830  153.1950 C   0  0  0  0  0  2  0  0  0  0  0  0
  155.0890  213.9430  154.5670 C   0  0  0  0  0  2  0  0  0  0  0  0
  156.3920  213.9320  153.8150 C   0  0  2  0  0  3  0  0  0  0  0  0
  155.7530  214.0490  152.5710 O   0  0  0  0  0  0  0  0  0  0  0  0
  161.9470  205.6160  151.2030 C   0  0  0  0  0  3  0  0  0  0  0  0
  161.5370  206.9400  150.9910 C   0  0  0  0  0  0  0  0  0  0  0  0
  161.8020  205.0170  152.4580 C   0  0  0  0  0  3  0  0  0  0  0  0
  160.9750  207.6720  152.0620 C   0  0  0  0  0  0  0  0  0  0  0  0
  160.8310  207.0560  153.3170 C   0  0  0  0  0  3  0  0  0  0  0  0
  161.2440  205.7380  153.5160 C   0  0  0  0  0  3  0  0  0  0  0  0
  161.5720  206.7720  148.4490 N   0  0  0  0  0  2  0  0  0  0  0  0
  162.0340  208.7600  149.5580 O   0  0  0  0  0  0  0  0  0  0  0  0
  161.7190  207.5440  149.6530 C   0  0  0  0  0  0  0  0  0  0  0  0
  160.9860  205.4400  148.4080 C   0  0  0  0  0  2  0  0  0  0  0  0
  161.8680  204.5010  147.5960 C   0  0  2  0  0  3  0  0  0  0  0  0
  161.5550  204.6470  146.1400 C   0  0  0  0  0  0  0  0  0  0  0  0
  161.7380  205.7460  145.5520 O   0  0  0  0  0  0  0  0  0  0  0  0
  161.1080  203.5150  145.3990 N   0  0  0  0  0  1  0  0  0  0  0  0
  161.6720  203.1820  148.0120 O   0  0  0  0  0  0  0  0  0  0  0  0
  160.7340  203.2630  149.0420 C   0  0  0  0  0  1  0  0  0  0  0  0
  1 20  1  0  0  0  0
  1 11  1  0  0  0  0
  2  6  1  1  0  0  0
  2  7  1  0  0  0  0
  3  5  2  6  0  0  0
  3 12  1  0  0  0  0
  3  7  1  0  0  0  0
  4  6  1  0  0  0  0
  9 10  1  6  0  0  0
  9  2  1  0  0  0  0
 10  3  1  0  0  0  0
 11  8  1  6  0  0  0
 11  9  1  0  0  0  0
 11  4  1  0  0  0  0
 13 14  1  0  0  0  0
 15 12  1  6  0  0  0
 15 14  1  0  0  0  0
 16 13  1  0  0  0  0
 16 15  1  0  0  0  0
 17 19  1  0  0  0  0
 18 17  2  0  0  0  0
 18 20  1  0  0  0  0
 19 22  2  0  0  0  0
 20 21  2  0  0  0  0
 21 22  1  0  0  0  0
 23 25  1  0  0  0  0
 24 25  2  0  0  0  0
 25 18  1  0  0  0  0
 26 23  1  0  0  0  0
 27 31  1  0  0  0  0
 27 26  1  1  0  0  0
 28 27  1  0  0  0  0
 29 28  2  0  0  0  0
 30 28  1  0  0  0  0
 31 32  1  0  0  0  0
M  END
>  <MODEL>
8

>  <REMARK>
 VINA RESULT:      -6.0      1.690      2.224
  Name = 
  9 active torsions:
  status: ('A' for Active; 'I' for Inactive)
    1  A    between atoms: N_1  and  C_16
    2  A    between atoms: N_1  and  C_29
    3  A    between atoms: O_3  and  C_13
    4  A    between atoms: C_7  and  C_31
    5  A    between atoms: C_8  and  C_13
    6  A    between atoms: P_10  and  O_23
    7  A    between atoms: C_13  and  C_26
    8  A    between atoms: N_15  and  C_26
    9  A    between atoms: O_23  and  C_28
                            x       y       z     vdW  Elec       q    Type
                         _______ _______ _______ _____ _____    ______ ____

>  <TORSDO>
F 9

$$$$
=
 OpenBabel11072410303D

 32 35  0  0  1  0  0  0  0  0999 V2000
  160.5920  208.2890  152.4240 N   0  0  0  0  0  2  0  0  0  0  0  0
  160.2090  210.0340  155.5770 C   0  0  2  0  0  3  0  0  0  0  0  0
  159.0120  212.0690  154.7670 P   0  0  2  0  0  0  0  0  0  0  0  0
  161.2030  208.0460  154.7860 C   0  0  0  0  0  2  0  0  0  0  0  0
  159.6990  213.3450  155.1960 O   0  0  0  0  0  0  0  0  0  0  0  0
  160.3640  208.5900  155.9490 C   0  0  0  0  0  2  0  0  0  0  0  0
  159.0610  210.8430  156.0990 C   0  0  0  0  0  2  0  0  0  0  0  0
  162.2430  209.6790  153.3580 O   0  0  0  0  0  1  0  0  0  0  0  0
  159.9720  209.9720  154.1040 C   0  0  1  0  0  3  0  0  0  0  0  0
  159.9450  211.2780  153.5870 O   0  0  0  0  0  0  0  0  0  0  0  0
  161.0380  209.0190  153.6080 C   0  0  1  0  0  0  0  0  0  0  0  0
  157.4350  212.3940  154.2260 O   0  0  0  0  0  0  0  0  0  0  0  0
  155.1820  214.1650  154.9670 C   0  0  0  0  0  2  0  0  0  0  0  0
  156.1370  213.4790  155.9000 C   0  0  0  0  0  2  0  0  0  0  0  0
  157.1030  213.6450  154.7590 C   0  0  2  0  0  3  0  0  0  0  0  0
  156.1410  214.2660  153.9470 O   0  0  0  0  0  0  0  0  0  0  0  0
  162.4380  207.1340  149.3770 C   0  0  0  0  0  3  0  0  0  0  0  0
  161.7960  207.1060  150.6230 C   0  0  0  0  0  0  0  0  0  0  0  0
  162.5220  208.3220  148.6430 C   0  0  0  0  0  3  0  0  0  0  0  0
  161.2260  208.2950  151.1350 C   0  0  0  0  0  0  0  0  0  0  0  0
  161.3210  209.4820  150.3900 C   0  0  0  0  0  3  0  0  0  0  0  0
  161.9630  209.4960  149.1510 C   0  0  0  0  0  3  0  0  0  0  0  0
  161.0390  204.6820  150.8200 N   0  0  0  0  0  2  0  0  0  0  0  0
  162.2290  205.7410  152.5090 O   0  0  0  0  0  0  0  0  0  0  0  0
  161.7150  205.8280  151.3630 C   0  0  0  0  0  0  0  0  0  0  0  0
  160.6170  204.5750  149.4300 C   0  0  0  0  0  2  0  0  0  0  0  0
  161.1960  203.3160  148.7990 C   0  0  2  0  0  3  0  0  0  0  0  0
  161.5880  203.5960  147.3810 C   0  0  0  0  0  0  0  0  0  0  0  0
  162.3170  204.5840  147.1020 O   0  0  0  0  0  0  0  0  0  0  0  0
  161.1850  202.6990  146.3510 N   0  0  0  0  0  1  0  0  0  0  0  0
  160.2620  202.2800  148.8560 O   0  0  0  0  0  0  0  0  0  0  0  0
  160.8230  201.3330  149.7140 C   0  0  0  0  0  1  0  0  0  0  0  0
  1 11  1  0  0  0  0
  2  6  1  1  0  0  0
  2  7  1  0  0  0  0
  3  5  2  1  0  0  0
  3  7  1  0  0  0  0
  4  6  1  0  0  0  0
  9 10  1  6  0  0  0
  9  2  1  0  0  0  0
 10  3  1  0  0  0  0
 11  8  1  6  0  0  0
 11  9  1  0  0  0  0
 11  4  1  0  0  0  0
 12  3  1  0  0  0  0
 13 14  1  0  0  0  0
 15 12  1  6  0  0  0
 15 14  1  0  0  0  0
 16 15  1  0  0  0  0
 16 13  1  0  0  0  0
 17 18  1  0  0  0  0
 18 20  2  0  0  0  0
 18 25  1  0  0  0  0
 19 22  1  0  0  0  0
 19 17  2  0  0  0  0
 20  1  1  0  0  0  0
 21 20  1  0  0  0  0
 22 21  2  0  0  0  0
 23 25  1  0  0  0  0
 25 24  2  0  0  0  0
 26 23  1  0  0  0  0
 27 31  1  0  0  0  0
 27 26  1  6  0  0  0
 28 27  1  0  0  0  0
 29 28  2  0  0  0  0
 30 28  1  0  0  0  0
 31 32  1  0  0  0  0
M  END
>  <MODEL>
9

>  <REMARK>
 VINA RESULT:      -5.9      2.034      3.101
  Name = 
  9 active torsions:
  status: ('A' for Active; 'I' for Inactive)
    1  A    between atoms: N_1  and  C_16
    2  A    between atoms: N_1  and  C_29
    3  A    between atoms: O_3  and  C_13
    4  A    between atoms: C_7  and  C_31
    5  A    between atoms: C_8  and  C_13
    6  A    between atoms: P_10  and  O_23
    7  A    between atoms: C_13  and  C_26
    8  A    between atoms: N_15  and  C_26
    9  A    between atoms: O_23  and  C_28
                            x       y       z     vdW  Elec       q    Type
                         _______ _______ _______ _____ _____    ______ ____

>  <TORSDO>
F 9

$$$$
