=
 OpenBabel11072413093D

 35 38  0  0  1  0  0  0  0  0999 V2000
  161.2220  206.1340  153.9940 C   0  0  0  0  0  2  0  0  0  0  0  0
  161.3360  207.6050  154.3420 C   0  0  1  0  0  3  0  0  0  0  0  0
  160.8270  207.1830  152.9740 C   0  0  1  0  0  3  0  0  0  0  0  0
  161.9330  207.3420  151.9420 C   0  0  2  0  0  3  0  0  0  0  0  0
  161.5170  208.3630  150.8950 C   0  0  0  0  0  2  0  0  0  0  0  0
  162.1920  209.6940  151.1610 C   0  0  0  0  0  1  0  0  0  0  0  0
  162.1850  205.9990  151.2600 C   0  0  0  0  0  2  0  0  0  0  0  0
  160.9020  201.4870  147.8520 N   0  0  0  0  0  1  0  0  0  0  0  0
  161.9050  207.3940  148.1370 Cl  0  0  0  0  0  0  0  0  0  0  0  0
  160.9420  205.4180  150.5760 C   0  0  2  0  0  3  0  0  0  0  0  0
  161.6250  205.6640  148.0640 C   0  0  0  0  0  0  0  0  0  0  0  0
  160.9750  203.5920  149.1120 C   0  0  0  0  0  0  0  0  0  0  0  0
  160.5280  203.0540  150.3400 N   0  0  0  0  0  0  0  0  0  0  0  0
  161.8140  204.9740  146.8550 C   0  0  0  0  0  3  0  0  0  0  0  0
  161.1550  202.8860  147.9210 C   0  0  0  0  0  0  0  0  0  0  0  0
  160.4480  204.1480  151.3060 C   0  0  0  0  0  3  0  0  0  0  0  0
  161.5810  203.5890  146.7840 C   0  0  0  0  0  3  0  0  0  0  0  0
  161.2130  204.9370  149.1890 C   0  0  0  0  0  0  0  0  0  0  0  0
  160.1460  208.0390  155.2020 C   0  0  1  0  0  3  0  0  0  0  0  0
  160.8240  206.9710  157.2600 O   0  0  0  0  0  1  0  0  0  0  0  0
  159.8130  207.0250  156.2980 C   0  0  0  0  0  2  0  0  0  0  0  0
  160.2590  209.4730  155.7480 C   0  0  1  0  0  3  0  0  0  0  0  0
  161.6200  210.0850  155.5820 C   0  0  0  0  0  0  0  0  0  0  0  0
  161.9270  210.7010  154.5270 O   0  0  0  0  0  0  0  0  0  0  0  0
  162.5720  209.9710  156.6340 N   0  0  0  0  0  1  0  0  0  0  0  0
  159.1700  210.3690  155.1720 C   0  0  0  0  0  2  0  0  0  0  0  0
  159.1070  211.6200  155.9110 N   0  0  0  0  0  2  0  0  0  0  0  0
  158.9290  212.6850  154.9360 C   0  0  0  0  0  2  0  0  0  0  0  0
  159.7700  212.5910  152.1820 C   0  0  0  0  0  1  0  0  0  0  0  0
  157.8070  214.0700  152.3160 N   0  0  0  0  0  0  0  0  0  0  0  0
  157.2850  214.1830  150.9640 C   0  0  0  0  0  1  0  0  0  0  0  0
  158.2800  212.7050  152.4860 C   0  0  2  0  0  3  0  0  0  0  0  0
  156.6500  213.0990  154.0930 C   0  0  0  0  0  2  0  0  0  0  0  0
  156.7130  214.2480  153.1900 N   0  0  0  0  0  2  0  0  0  0  0  0
  157.8940  212.2810  153.8830 C   0  0  2  0  0  3  0  0  0  0  0  0
  1  2  1  0  0  0  0
  2 19  1  1  0  0  0
  3  4  1  6  0  0  0
  3  1  1  0  0  0  0
  3  2  1  0  0  0  0
  4  5  1  6  0  0  0
  5  6  1  0  0  0  0
  7  4  1  0  0  0  0
  8 15  1  0  0  0  0
 10  7  1  1  0  0  0
 10 16  1  0  0  0  0
 11  9  1  0  0  0  0
 11 18  1  0  0  0  0
 12 18  2  0  0  0  0
 12 13  1  0  0  0  0
 13 16  2  0  0  0  0
 14 11  2  0  0  0  0
 15 12  1  0  0  0  0
 17 14  1  0  0  0  0
 17 15  2  0  0  0  0
 18 10  1  0  0  0  0
 19 22  1  0  0  0  0
 19 21  1  1  0  0  0
 21 20  1  0  0  0  0
 22 26  1  6  0  0  0
 23 22  1  0  0  0  0
 23 25  1  0  0  0  0
 24 23  2  0  0  0  0
 26 27  1  0  0  0  0
 28 27  1  0  0  0  0
 30 32  1  0  0  0  0
 30 34  1  0  0  0  0
 31 30  1  0  0  0  0
 32 29  1  1  0  0  0
 32 35  1  0  0  0  0
 34 33  1  0  0  0  0
 35 33  1  0  0  0  0
 35 28  1  1  0  0  0
M  END
>  <MODEL>
1

>  <REMARK>
 VINA RESULT:      -7.8      0.000      0.000
  Name = 
  12 active torsions:
  status: ('A' for Active; 'I' for Inactive)
    1  A    between atoms: C_2  and  C_6
    2  A    between atoms: C_2  and  C_12
    3  A    between atoms: C_2  and  C_33
    4  A    between atoms: C_3  and  N_8
    5  A    between atoms: C_3  and  C_35
    6  A    between atoms: C_6  and  C_7
    7  A    between atoms: N_8  and  C_30
    8  A    between atoms: C_13  and  C_15
    9  A    between atoms: C_15  and  C_24
   10  A    between atoms: C_15  and  C_30
   11  A    between atoms: C_24  and  C_27
   12  A    between atoms: C_24  and  C_28
                            x       y       z     vdW  Elec       q    Type
                         _______ _______ _______ _____ _____    ______ ____

>  <TORSDO>
F 12

$$$$
=
 OpenBabel11072413093D

 35 38  0  0  1  0  0  0  0  0999 V2000
  161.1260  209.2510  151.4620 C   0  0  0  0  0  2  0  0  0  0  0  0
  160.4350  209.4540  152.7970 C   0  0  1  0  0  3  0  0  0  0  0  0
  161.5810  208.4630  152.6740 C   0  0  1  0  0  3  0  0  0  0  0  0
  161.0320  207.0460  152.6060 C   0  0  2  0  0  3  0  0  0  0  0  0
  161.4040  206.2890  153.8700 C   0  0  0  0  0  2  0  0  0  0  0  0
  160.6640  206.8610  155.0620 C   0  0  0  0  0  1  0  0  0  0  0  0
  161.6320  206.3300  151.3980 C   0  0  0  0  0  2  0  0  0  0  0  0
  161.5360  201.9590  147.5890 N   0  0  0  0  0  1  0  0  0  0  0  0
  161.4270  207.9070  148.3570 Cl  0  0  0  0  0  0  0  0  0  0  0  0
  160.5900  205.6020  150.5400 C   0  0  2  0  0  3  0  0  0  0  0  0
  161.4720  206.1670  148.1440 C   0  0  0  0  0  0  0  0  0  0  0  0
  161.1000  203.9350  148.9780 C   0  0  0  0  0  0  0  0  0  0  0  0
  160.6340  203.2290  150.1100 N   0  0  0  0  0  0  0  0  0  0  0  0
  161.9040  205.6210  146.9240 C   0  0  0  0  0  3  0  0  0  0  0  0
  161.5250  203.3700  147.7740 C   0  0  0  0  0  0  0  0  0  0  0  0
  160.2600  204.2110  151.1270 C   0  0  0  0  0  3  0  0  0  0  0  0
  161.9320  204.2260  146.7400 C   0  0  0  0  0  3  0  0  0  0  0  0
  161.0830  205.2900  149.1660 C   0  0  0  0  0  0  0  0  0  0  0  0
  160.9490  210.7280  153.4710 C   0  0  1  0  0  3  0  0  0  0  0  0
  158.9810  211.7340  152.4970 O   0  0  0  0  0  1  0  0  0  0  0  0
  160.2870  211.9930  152.9190 C   0  0  0  0  0  2  0  0  0  0  0  0
  160.9200  210.6770  155.0080 C   0  0  1  0  0  3  0  0  0  0  0  0
  162.2390  210.3250  155.6330 C   0  0  0  0  0  0  0  0  0  0  0  0
  163.3200  210.7490  155.1440 O   0  0  0  0  0  0  0  0  0  0  0  0
  162.2670  209.5050  156.7950 N   0  0  0  0  0  1  0  0  0  0  0  0
  160.3540  211.9660  155.5900 C   0  0  0  0  0  2  0  0  0  0  0  0
  159.3860  211.6620  156.6320 N   0  0  0  0  0  2  0  0  0  0  0  0
  158.1540  211.2640  155.9700 C   0  0  0  0  0  2  0  0  0  0  0  0
  155.5430  210.7440  154.8670 C   0  0  0  0  0  1  0  0  0  0  0  0
  156.2590  212.9650  154.0820 N   0  0  0  0  0  0  0  0  0  0  0  0
  155.0580  213.6500  153.6360 C   0  0  0  0  0  1  0  0  0  0  0  0
  155.9010  212.1760  155.2510 C   0  0  2  0  0  3  0  0  0  0  0  0
  157.5750  213.6590  155.8780 C   0  0  0  0  0  2  0  0  0  0  0  0
  157.1610  213.9630  154.5090 N   0  0  0  0  0  2  0  0  0  0  0  0
  157.0490  212.2940  156.2240 C   0  0  2  0  0  3  0  0  0  0  0  0
  1  3  1  0  0  0  0
  1  2  1  0  0  0  0
  2 19  1  1  0  0  0
  3  4  1  6  0  0  0
  3  2  1  0  0  0  0
  4  7  1  6  0  0  0
  4  5  1  0  0  0  0
  5  6  1  0  0  0  0
  8 15  1  0  0  0  0
 10 16  1  0  0  0  0
 10  7  1  1  0  0  0
 11  9  1  0  0  0  0
 11 18  1  0  0  0  0
 12 18  2  0  0  0  0
 12 13  1  0  0  0  0
 13 16  2  0  0  0  0
 14 11  2  0  0  0  0
 15 12  1  0  0  0  0
 17 14  1  0  0  0  0
 17 15  2  0  0  0  0
 18 10  1  0  0  0  0
 19 21  1  6  0  0  0
 19 22  1  0  0  0  0
 20 21  1  0  0  0  0
 22 26  1  1  0  0  0
 22 23  1  0  0  0  0
 23 25  1  0  0  0  0
 24 23  2  0  0  0  0
 26 27  1  0  0  0  0
 28 27  1  0  0  0  0
 30 34  1  0  0  0  0
 30 32  1  0  0  0  0
 31 30  1  0  0  0  0
 32 29  1  6  0  0  0
 32 35  1  0  0  0  0
 33 35  1  0  0  0  0
 34 33  1  0  0  0  0
 35 28  1  6  0  0  0
M  END
>  <MODEL>
2

>  <REMARK>
 VINA RESULT:      -7.5      1.549      2.687
  Name = 
  12 active torsions:
  status: ('A' for Active; 'I' for Inactive)
    1  A    between atoms: C_2  and  C_6
    2  A    between atoms: C_2  and  C_12
    3  A    between atoms: C_2  and  C_33
    4  A    between atoms: C_3  and  N_8
    5  A    between atoms: C_3  and  C_35
    6  A    between atoms: C_6  and  C_7
    7  A    between atoms: N_8  and  C_30
    8  A    between atoms: C_13  and  C_15
    9  A    between atoms: C_15  and  C_24
   10  A    between atoms: C_15  and  C_30
   11  A    between atoms: C_24  and  C_27
   12  A    between atoms: C_24  and  C_28
                            x       y       z     vdW  Elec       q    Type
                         _______ _______ _______ _____ _____    ______ ____

>  <TORSDO>
F 12

$$$$
=
 OpenBabel11072413093D

 35 38  0  0  1  0  0  0  0  0999 V2000
  161.4190  206.1480  153.8280 C   0  0  0  0  0  2  0  0  0  0  0  0
  161.4950  207.6430  154.0660 C   0  0  1  0  0  3  0  0  0  0  0  0
  160.9110  207.1070  152.7700 C   0  0  1  0  0  3  0  0  0  0  0  0
  161.9360  207.2340  151.6530 C   0  0  2  0  0  3  0  0  0  0  0  0
  161.4140  208.1760  150.5800 C   0  0  0  0  0  2  0  0  0  0  0  0
  162.1440  209.5030  150.6450 C   0  0  0  0  0  1  0  0  0  0  0  0
  162.1830  205.8590  151.0360 C   0  0  0  0  0  2  0  0  0  0  0  0
  160.8710  201.1820  147.8710 N   0  0  0  0  0  1  0  0  0  0  0  0
  161.8650  207.0970  147.8510 Cl  0  0  0  0  0  0  0  0  0  0  0  0
  160.9330  205.2430  150.3950 C   0  0  2  0  0  3  0  0  0  0  0  0
  161.5880  205.3650  147.8670 C   0  0  0  0  0  0  0  0  0  0  0  0
  160.9530  203.3470  149.0240 C   0  0  0  0  0  0  0  0  0  0  0  0
  160.5210  202.8690  150.2820 N   0  0  0  0  0  0  0  0  0  0  0  0
  161.7640  204.6170  146.6920 C   0  0  0  0  0  3  0  0  0  0  0  0
  161.1210  202.5830  147.8670 C   0  0  0  0  0  0  0  0  0  0  0  0
  160.4500  204.0100  151.1930 C   0  0  0  0  0  3  0  0  0  0  0  0
  161.5330  203.2290  146.6920 C   0  0  0  0  0  3  0  0  0  0  0  0
  161.1890  204.6940  149.0310 C   0  0  0  0  0  0  0  0  0  0  0  0
  160.3510  208.0930  154.9780 C   0  0  1  0  0  3  0  0  0  0  0  0
  161.3110  207.5960  157.1390 O   0  0  0  0  0  1  0  0  0  0  0  0
  160.2690  207.2710  156.2670 C   0  0  0  0  0  2  0  0  0  0  0  0
  160.3260  209.6070  155.2490 C   0  0  1  0  0  3  0  0  0  0  0  0
  160.5510  210.4510  154.0280 C   0  0  0  0  0  0  0  0  0  0  0  0
  161.6670  210.9970  153.8170 O   0  0  0  0  0  0  0  0  0  0  0  0
  159.4920  210.6300  153.0950 N   0  0  0  0  0  1  0  0  0  0  0  0
  159.0540  210.0140  155.9810 C   0  0  0  0  0  2  0  0  0  0  0  0
  159.2240  211.3210  156.5960 N   0  0  0  0  0  2  0  0  0  0  0  0
  157.9410  211.6950  157.1700 C   0  0  0  0  0  2  0  0  0  0  0  0
  155.1520  212.4140  157.0900 C   0  0  0  0  0  1  0  0  0  0  0  0
  156.1360  212.9850  154.9070 N   0  0  0  0  0  0  0  0  0  0  0  0
  155.2220  213.9240  154.2780 C   0  0  0  0  0  1  0  0  0  0  0  0
  156.1510  213.2810  156.3320 C   0  0  2  0  0  3  0  0  0  0  0  0
  158.3220  213.5010  155.5350 C   0  0  0  0  0  2  0  0  0  0  0  0
  157.4230  213.2720  154.4050 N   0  0  0  0  0  2  0  0  0  0  0  0
  157.5820  213.1340  156.7910 C   0  0  2  0  0  3  0  0  0  0  0  0
  1  2  1  0  0  0  0
  2 19  1  1  0  0  0
  3  4  1  6  0  0  0
  3  1  1  0  0  0  0
  3  2  1  0  0  0  0
  4  5  1  6  0  0  0
  5  6  1  0  0  0  0
  7  4  1  0  0  0  0
  9 11  1  0  0  0  0
 10  7  1  1  0  0  0
 10 16  1  0  0  0  0
 11 18  1  0  0  0  0
 12 18  2  0  0  0  0
 12 13  1  0  0  0  0
 13 16  2  0  0  0  0
 14 11  2  0  0  0  0
 15  8  1  0  0  0  0
 15 12  1  0  0  0  0
 17 14  1  0  0  0  0
 17 15  2  0  0  0  0
 18 10  1  0  0  0  0
 19 22  1  0  0  0  0
 19 21  1  1  0  0  0
 21 20  1  0  0  0  0
 22 26  1  6  0  0  0
 23 22  1  0  0  0  0
 24 23  2  0  0  0  0
 25 23  1  0  0  0  0
 26 27  1  0  0  0  0
 27 28  1  0  0  0  0
 30 32  1  0  0  0  0
 31 30  1  0  0  0  0
 32 35  1  0  0  0  0
 32 29  1  1  0  0  0
 33 35  1  0  0  0  0
 34 30  1  0  0  0  0
 34 33  1  0  0  0  0
 35 28  1  6  0  0  0
M  END
>  <MODEL>
3

>  <REMARK>
 VINA RESULT:      -7.4      1.422      2.047
  Name = 
  12 active torsions:
  status: ('A' for Active; 'I' for Inactive)
    1  A    between atoms: C_2  and  C_6
    2  A    between atoms: C_2  and  C_12
    3  A    between atoms: C_2  and  C_33
    4  A    between atoms: C_3  and  N_8
    5  A    between atoms: C_3  and  C_35
    6  A    between atoms: C_6  and  C_7
    7  A    between atoms: N_8  and  C_30
    8  A    between atoms: C_13  and  C_15
    9  A    between atoms: C_15  and  C_24
   10  A    between atoms: C_15  and  C_30
   11  A    between atoms: C_24  and  C_27
   12  A    between atoms: C_24  and  C_28
                            x       y       z     vdW  Elec       q    Type
                         _______ _______ _______ _____ _____    ______ ____

>  <TORSDO>
F 12

$$$$
=
 OpenBabel11072413093D

 35 38  0  0  1  0  0  0  0  0999 V2000
  160.8370  207.8750  150.7160 C   0  0  0  0  0  2  0  0  0  0  0  0
  160.6260  207.7380  152.2110 C   0  0  1  0  0  3  0  0  0  0  0  0
  161.5810  206.8030  151.4870 C   0  0  1  0  0  3  0  0  0  0  0  0
  160.9150  205.4530  151.2710 C   0  0  2  0  0  3  0  0  0  0  0  0
  161.8780  204.3380  151.6410 C   0  0  0  0  0  2  0  0  0  0  0  0
  161.1170  203.1400  152.1710 C   0  0  0  0  0  1  0  0  0  0  0  0
  160.5250  205.3120  149.8010 C   0  0  0  0  0  2  0  0  0  0  0  0
  161.4930  205.0660  144.0900 N   0  0  0  0  0  1  0  0  0  0  0  0
  160.9280  201.9600  149.1900 Cl  0  0  0  0  0  0  0  0  0  0  0  0
  161.7270  205.1280  148.8660 C   0  0  2  0  0  3  0  0  0  0  0  0
  161.0800  202.8770  147.7020 C   0  0  0  0  0  0  0  0  0  0  0  0
  161.5680  204.9320  146.5380 C   0  0  0  0  0  0  0  0  0  0  0  0
  161.9660  206.2710  146.7550 N   0  0  0  0  0  0  0  0  0  0  0  0
  160.8480  202.2520  146.4660 C   0  0  0  0  0  3  0  0  0  0  0  0
  161.3440  204.3310  145.2990 C   0  0  0  0  0  0  0  0  0  0  0  0
  162.1200  206.4640  148.1960 C   0  0  0  0  0  3  0  0  0  0  0  0
  160.9790  202.9770  145.2680 C   0  0  0  0  0  3  0  0  0  0  0  0
  161.4300  204.2340  147.7070 C   0  0  0  0  0  0  0  0  0  0  0  0
  161.4390  208.7980  152.9590 C   0  0  1  0  0  3  0  0  0  0  0  0
  163.0110  210.1870  151.7620 O   0  0  0  0  0  1  0  0  0  0  0  0
  161.6680  210.0600  152.1250 C   0  0  0  0  0  2  0  0  0  0  0  0
  160.9050  209.1170  154.3660 C   0  0  1  0  0  3  0  0  0  0  0  0
  161.0460  207.9870  155.3440 C   0  0  0  0  0  0  0  0  0  0  0  0
  160.4490  206.8930  155.1580 O   0  0  0  0  0  0  0  0  0  0  0  0
  161.8680  208.1540  156.4930 N   0  0  0  0  0  1  0  0  0  0  0  0
  161.5150  210.4030  154.9070 C   0  0  0  0  0  2  0  0  0  0  0  0
  160.5820  211.5070  154.7480 N   0  0  0  0  0  2  0  0  0  0  0  0
  159.3060  211.0720  155.2930 C   0  0  0  0  0  2  0  0  0  0  0  0
  156.4300  210.9080  155.2460 C   0  0  0  0  0  1  0  0  0  0  0  0
  157.0840  212.9550  154.0450 N   0  0  0  0  0  0  0  0  0  0  0  0
  155.8990  213.7950  153.9900 C   0  0  0  0  0  1  0  0  0  0  0  0
  157.0810  212.2840  155.3370 C   0  0  2  0  0  3  0  0  0  0  0  0
  159.0410  213.5200  155.1800 C   0  0  0  0  0  2  0  0  0  0  0  0
  158.1970  213.8220  154.0250 N   0  0  0  0  0  2  0  0  0  0  0  0
  158.5110  212.2690  155.8220 C   0  0  2  0  0  3  0  0  0  0  0  0
  1  3  1  0  0  0  0
  1  2  1  0  0  0  0
  2 19  1  1  0  0  0
  3  4  1  6  0  0  0
  3  2  1  0  0  0  0
  4  7  1  6  0  0  0
  4  5  1  0  0  0  0
  5  6  1  0  0  0  0
  8 15  1  0  0  0  0
 10  7  1  1  0  0  0
 11 18  1  0  0  0  0
 11  9  1  0  0  0  0
 12 13  1  0  0  0  0
 12 18  2  0  0  0  0
 13 16  2  0  0  0  0
 14 11  2  0  0  0  0
 15 12  1  0  0  0  0
 16 10  1  0  0  0  0
 17 15  2  0  0  0  0
 17 14  1  0  0  0  0
 18 10  1  0  0  0  0
 19 21  1  6  0  0  0
 19 22  1  0  0  0  0
 20 21  1  0  0  0  0
 22 26  1  1  0  0  0
 22 23  1  0  0  0  0
 23 25  1  0  0  0  0
 24 23  2  0  0  0  0
 27 26  1  0  0  0  0
 27 28  1  0  0  0  0
 30 32  1  0  0  0  0
 31 30  1  0  0  0  0
 32 29  1  6  0  0  0
 32 35  1  0  0  0  0
 33 35  1  0  0  0  0
 34 30  1  0  0  0  0
 34 33  1  0  0  0  0
 35 28  1  6  0  0  0
M  END
>  <MODEL>
4

>  <REMARK>
 VINA RESULT:      -7.2      2.202      3.491
  Name = 
  12 active torsions:
  status: ('A' for Active; 'I' for Inactive)
    1  A    between atoms: C_2  and  C_6
    2  A    between atoms: C_2  and  C_12
    3  A    between atoms: C_2  and  C_33
    4  A    between atoms: C_3  and  N_8
    5  A    between atoms: C_3  and  C_35
    6  A    between atoms: C_6  and  C_7
    7  A    between atoms: N_8  and  C_30
    8  A    between atoms: C_13  and  C_15
    9  A    between atoms: C_15  and  C_24
   10  A    between atoms: C_15  and  C_30
   11  A    between atoms: C_24  and  C_27
   12  A    between atoms: C_24  and  C_28
                            x       y       z     vdW  Elec       q    Type
                         _______ _______ _______ _____ _____    ______ ____

>  <TORSDO>
F 12

$$$$
=
 OpenBabel11072413093D

 35 38  0  0  1  0  0  0  0  0999 V2000
  162.1280  207.8690  150.7080 C   0  0  0  0  0  2  0  0  0  0  0  0
  161.0120  208.6080  151.4200 C   0  0  1  0  0  3  0  0  0  0  0  0
  161.8530  207.5900  152.1720 C   0  0  1  0  0  3  0  0  0  0  0  0
  161.0790  206.2870  152.3130 C   0  0  2  0  0  3  0  0  0  0  0  0
  161.2200  205.7570  153.7310 C   0  0  0  0  0  2  0  0  0  0  0  0
  160.8820  206.8410  154.7340 C   0  0  0  0  0  1  0  0  0  0  0  0
  161.6400  205.2580  151.3350 C   0  0  0  0  0  2  0  0  0  0  0  0
  161.4800  200.4820  148.0520 N   0  0  0  0  0  1  0  0  0  0  0  0
  160.7130  206.4280  148.2450 Cl  0  0  0  0  0  0  0  0  0  0  0  0
  160.5730  204.3200  150.7570 C   0  0  2  0  0  3  0  0  0  0  0  0
  160.9520  204.6910  148.1970 C   0  0  0  0  0  0  0  0  0  0  0  0
  161.0280  202.5460  149.2980 C   0  0  0  0  0  0  0  0  0  0  0  0
  160.8590  201.9330  150.5600 N   0  0  0  0  0  0  0  0  0  0  0  0
  161.2390  204.0560  146.9770 C   0  0  0  0  0  3  0  0  0  0  0  0
  161.3130  201.8940  148.0970 C   0  0  0  0  0  0  0  0  0  0  0  0
  160.5370  202.9790  151.5280 C   0  0  0  0  0  3  0  0  0  0  0  0
  161.4200  202.6620  146.9280 C   0  0  0  0  0  3  0  0  0  0  0  0
  160.8630  203.9040  149.3530 C   0  0  0  0  0  0  0  0  0  0  0  0
  161.4720  210.0160  151.8070 C   0  0  1  0  0  3  0  0  0  0  0  0
  162.2910  210.4980  149.5860 O   0  0  0  0  0  1  0  0  0  0  0  0
  161.4800  210.9790  150.6170 C   0  0  0  0  0  2  0  0  0  0  0  0
  160.7380  210.6000  153.0260 C   0  0  1  0  0  3  0  0  0  0  0  0
  161.5580  210.6150  154.2840 C   0  0  0  0  0  0  0  0  0  0  0  0
  162.8170  210.6230  154.2340 O   0  0  0  0  0  0  0  0  0  0  0  0
  160.9030  210.6260  155.5470 N   0  0  0  0  0  1  0  0  0  0  0  0
  160.1670  211.9780  152.7160 C   0  0  0  0  0  2  0  0  0  0  0  0
  158.7370  211.8840  152.4700 N   0  0  0  0  0  2  0  0  0  0  0  0
  158.0890  211.7280  153.7630 C   0  0  0  0  0  2  0  0  0  0  0  0
  157.5270  211.8010  156.5880 C   0  0  0  0  0  1  0  0  0  0  0  0
  155.6980  212.9730  155.4300 N   0  0  0  0  0  0  0  0  0  0  0  0
  155.0280  213.7820  156.4340 C   0  0  0  0  0  1  0  0  0  0  0  0
  157.1210  212.9970  155.7330 C   0  0  2  0  0  3  0  0  0  0  0  0
  156.8350  213.8430  153.5880 C   0  0  0  0  0  2  0  0  0  0  0  0
  155.5210  213.6300  154.1940 N   0  0  0  0  0  2  0  0  0  0  0  0
  157.8450  213.0930  154.4110 C   0  0  2  0  0  3  0  0  0  0  0  0
  1  2  1  0  0  0  0
  1  3  1  0  0  0  0
  2 19  1  1  0  0  0
  2  3  1  0  0  0  0
  3  4  1  6  0  0  0
  4  7  1  6  0  0  0
  4  5  1  0  0  0  0
  5  6  1  0  0  0  0
  8 15  1  0  0  0  0
 10  7  1  1  0  0  0
 10 16  1  0  0  0  0
 11  9  1  0  0  0  0
 11 18  1  0  0  0  0
 12 18  2  0  0  0  0
 12 13  1  0  0  0  0
 13 16  2  0  0  0  0
 14 11  2  0  0  0  0
 15 12  1  0  0  0  0
 17 14  1  0  0  0  0
 17 15  2  0  0  0  0
 18 10  1  0  0  0  0
 19 21  1  6  0  0  0
 19 22  1  0  0  0  0
 20 21  1  0  0  0  0
 22 26  1  6  0  0  0
 22 23  1  0  0  0  0
 23 25  1  0  0  0  0
 24 23  2  0  0  0  0
 27 26  1  0  0  0  0
 27 28  1  0  0  0  0
 30 32  1  0  0  0  0
 30 31  1  0  0  0  0
 32 29  1  6  0  0  0
 33 34  1  0  0  0  0
 33 35  1  0  0  0  0
 34 30  1  0  0  0  0
 35 28  1  6  0  0  0
 35 32  1  0  0  0  0
M  END
>  <MODEL>
5

>  <REMARK>
 VINA RESULT:      -7.2      1.633      3.188
  Name = 
  12 active torsions:
  status: ('A' for Active; 'I' for Inactive)
    1  A    between atoms: C_2  and  C_6
    2  A    between atoms: C_2  and  C_12
    3  A    between atoms: C_2  and  C_33
    4  A    between atoms: C_3  and  N_8
    5  A    between atoms: C_3  and  C_35
    6  A    between atoms: C_6  and  C_7
    7  A    between atoms: N_8  and  C_30
    8  A    between atoms: C_13  and  C_15
    9  A    between atoms: C_15  and  C_24
   10  A    between atoms: C_15  and  C_30
   11  A    between atoms: C_24  and  C_27
   12  A    between atoms: C_24  and  C_28
                            x       y       z     vdW  Elec       q    Type
                         _______ _______ _______ _____ _____    ______ ____

>  <TORSDO>
F 12

$$$$
=
 OpenBabel11072413093D

 35 38  0  0  1  0  0  0  0  0999 V2000
  161.4960  206.6120  152.7880 C   0  0  0  0  0  2  0  0  0  0  0  0
  161.6520  208.1150  152.6760 C   0  0  1  0  0  3  0  0  0  0  0  0
  160.7350  207.3710  151.7200 C   0  0  1  0  0  3  0  0  0  0  0  0
  161.4230  207.2010  150.3740 C   0  0  2  0  0  3  0  0  0  0  0  0
  161.2770  208.4730  149.5560 C   0  0  0  0  0  2  0  0  0  0  0  0
  162.4140  208.5920  148.5620 C   0  0  0  0  0  1  0  0  0  0  0  0
  160.7750  206.0420  149.6190 C   0  0  0  0  0  2  0  0  0  0  0  0
  160.6880  201.4100  146.1340 N   0  0  0  0  0  1  0  0  0  0  0  0
  161.1440  203.3970  151.7750 Cl  0  0  0  0  0  0  0  0  0  0  0  0
  161.7900  205.0610  149.0190 C   0  0  2  0  0  3  0  0  0  0  0  0
  160.9980  202.8270  150.1220 C   0  0  0  0  0  0  0  0  0  0  0  0
  161.2130  203.1820  147.7470 C   0  0  0  0  0  0  0  0  0  0  0  0
  161.6100  204.1470  146.7940 N   0  0  0  0  0  0  0  0  0  0  0  0
  160.5600  201.5160  149.8700 C   0  0  0  0  0  3  0  0  0  0  0  0
  160.7820  201.8830  147.4720 C   0  0  0  0  0  0  0  0  0  0  0  0
  162.0200  205.3490  147.5180 C   0  0  0  0  0  3  0  0  0  0  0  0
  160.4510  201.0460  148.5480 C   0  0  0  0  0  3  0  0  0  0  0  0
  161.3090  203.6480  149.0300 C   0  0  0  0  0  0  0  0  0  0  0  0
  160.8010  208.8170  153.7370 C   0  0  1  0  0  3  0  0  0  0  0  0
  159.8750  207.7770  155.7120 O   0  0  0  0  0  1  0  0  0  0  0  0
  161.0520  208.2720  155.1460 C   0  0  0  0  0  2  0  0  0  0  0  0
  160.8740  210.3520  153.6840 C   0  0  1  0  0  3  0  0  0  0  0  0
  159.8630  210.9810  152.7690 C   0  0  0  0  0  0  0  0  0  0  0  0
  158.6430  210.6750  152.8470 O   0  0  0  0  0  0  0  0  0  0  0  0
  160.2900  211.9370  151.8060 N   0  0  0  0  0  1  0  0  0  0  0  0
  160.8130  210.9550  155.0810 C   0  0  0  0  0  2  0  0  0  0  0  0
  160.2180  212.2810  155.0300 N   0  0  0  0  0  2  0  0  0  0  0  0
  159.0720  212.2720  155.9260 C   0  0  0  0  0  2  0  0  0  0  0  0
  156.2280  212.1530  156.3700 C   0  0  0  0  0  1  0  0  0  0  0  0
  156.5980  213.1420  154.1470 N   0  0  0  0  0  0  0  0  0  0  0  0
  155.3630  213.8190  153.7880 C   0  0  0  0  0  1  0  0  0  0  0  0
  156.7940  213.3260  155.5770 C   0  0  2  0  0  3  0  0  0  0  0  0
  158.6370  214.2240  154.4840 C   0  0  0  0  0  2  0  0  0  0  0  0
  157.6420  213.8260  153.4880 N   0  0  0  0  0  2  0  0  0  0  0  0
  158.2700  213.5680  155.7860 C   0  0  2  0  0  3  0  0  0  0  0  0
  2  1  1  0  0  0  0
  2 19  1  1  0  0  0
  3  4  1  6  0  0  0
  3  2  1  0  0  0  0
  3  1  1  0  0  0  0
  4  5  1  6  0  0  0
  6  5  1  0  0  0  0
  7  4  1  0  0  0  0
  8 15  1  0  0  0  0
 10 18  1  0  0  0  0
 10  7  1  6  0  0  0
 11  9  1  0  0  0  0
 12 18  1  0  0  0  0
 13 16  2  0  0  0  0
 13 12  1  0  0  0  0
 14 11  1  0  0  0  0
 15 12  2  0  0  0  0
 15 17  1  0  0  0  0
 16 10  1  0  0  0  0
 17 14  2  0  0  0  0
 18 11  2  0  0  0  0
 19 21  1  1  0  0  0
 21 20  1  0  0  0  0
 22 19  1  0  0  0  0
 22 26  1  1  0  0  0
 23 24  2  0  0  0  0
 23 22  1  0  0  0  0
 25 23  1  0  0  0  0
 27 26  1  0  0  0  0
 27 28  1  0  0  0  0
 30 32  1  0  0  0  0
 31 30  1  0  0  0  0
 32 35  1  0  0  0  0
 32 29  1  1  0  0  0
 33 35  1  0  0  0  0
 34 30  1  0  0  0  0
 34 33  1  0  0  0  0
 35 28  1  6  0  0  0
M  END
>  <MODEL>
6

>  <REMARK>
 VINA RESULT:      -7.0      2.048      2.916
  Name = 
  12 active torsions:
  status: ('A' for Active; 'I' for Inactive)
    1  A    between atoms: C_2  and  C_6
    2  A    between atoms: C_2  and  C_12
    3  A    between atoms: C_2  and  C_33
    4  A    between atoms: C_3  and  N_8
    5  A    between atoms: C_3  and  C_35
    6  A    between atoms: C_6  and  C_7
    7  A    between atoms: N_8  and  C_30
    8  A    between atoms: C_13  and  C_15
    9  A    between atoms: C_15  and  C_24
   10  A    between atoms: C_15  and  C_30
   11  A    between atoms: C_24  and  C_27
   12  A    between atoms: C_24  and  C_28
                            x       y       z     vdW  Elec       q    Type
                         _______ _______ _______ _____ _____    ______ ____

>  <TORSDO>
F 12

$$$$
=
 OpenBabel11072413093D

 35 38  0  0  1  0  0  0  0  0999 V2000
  161.3620  207.5860  154.2440 C   0  0  0  0  0  2  0  0  0  0  0  0
  161.0920  209.0280  153.8610 C   0  0  1  0  0  3  0  0  0  0  0  0
  160.8300  207.9130  152.8630 C   0  0  1  0  0  3  0  0  0  0  0  0
  161.9610  207.8560  151.8470 C   0  0  2  0  0  3  0  0  0  0  0  0
  161.5500  208.5830  150.5780 C   0  0  0  0  0  2  0  0  0  0  0  0
  162.1730  209.9640  150.5380 C   0  0  0  0  0  1  0  0  0  0  0  0
  162.2660  206.3970  151.5130 C   0  0  0  0  0  2  0  0  0  0  0  0
  161.0180  201.0340  149.6990 N   0  0  0  0  0  1  0  0  0  0  0  0
  161.2500  206.8540  148.2670 Cl  0  0  0  0  0  0  0  0  0  0  0  0
  161.0110  205.5500  151.2710 C   0  0  2  0  0  3  0  0  0  0  0  0
  161.1980  205.1530  148.6930 C   0  0  0  0  0  0  0  0  0  0  0  0
  161.0290  203.4010  150.3420 C   0  0  0  0  0  0  0  0  0  0  0  0
  160.8840  203.1860  151.7310 N   0  0  0  0  0  0  0  0  0  0  0  0
  161.2600  204.1760  147.6860 C   0  0  0  0  0  3  0  0  0  0  0  0
  161.0880  202.4130  149.3580 C   0  0  0  0  0  0  0  0  0  0  0  0
  160.8310  204.4930  152.3840 C   0  0  0  0  0  3  0  0  0  0  0  0
  161.2060  202.8100  148.0170 C   0  0  0  0  0  3  0  0  0  0  0  0
  161.0930  204.7310  150.0260 C   0  0  0  0  0  0  0  0  0  0  0  0
  159.7570  209.4910  154.4500 C   0  0  1  0  0  3  0  0  0  0  0  0
  160.9330  210.2250  156.4290 O   0  0  0  0  0  1  0  0  0  0  0  0
  159.7850  209.5690  155.9790 C   0  0  0  0  0  2  0  0  0  0  0  0
  159.2030  210.7760  153.8100 C   0  0  1  0  0  3  0  0  0  0  0  0
  158.2370  211.5250  154.6820 C   0  0  0  0  0  0  0  0  0  0  0  0
  158.6400  212.4210  155.4710 O   0  0  0  0  0  0  0  0  0  0  0  0
  156.8480  211.2230  154.6090 N   0  0  0  0  0  1  0  0  0  0  0  0
  160.3290  211.6770  153.3220 C   0  0  0  0  0  2  0  0  0  0  0  0
  159.7810  212.8590  152.6760 N   0  0  0  0  0  2  0  0  0  0  0  0
  159.6360  212.5470  151.2620 C   0  0  0  0  0  2  0  0  0  0  0  0
  157.2560  213.7370  150.1570 C   0  0  0  0  0  1  0  0  0  0  0  0
  158.8170  213.3210  148.3000 N   0  0  0  0  0  0  0  0  0  0  0  0
  158.3710  214.1520  147.1940 C   0  0  0  0  0  1  0  0  0  0  0  0
  158.6020  214.0760  149.5250 C   0  0  2  0  0  3  0  0  0  0  0  0
  160.8650  213.5730  149.3870 C   0  0  0  0  0  2  0  0  0  0  0  0
  160.2100  213.1560  148.1480 N   0  0  0  0  0  2  0  0  0  0  0  0
  159.7940  213.8120  150.4140 C   0  0  2  0  0  3  0  0  0  0  0  0
  2  1  1  0  0  0  0
  2 19  1  1  0  0  0
  3  4  1  6  0  0  0
  3  2  1  0  0  0  0
  3  1  1  0  0  0  0
  4  5  1  6  0  0  0
  6  5  1  0  0  0  0
  7  4  1  0  0  0  0
  9 11  1  0  0  0  0
 10  7  1  1  0  0  0
 10 16  1  0  0  0  0
 11 18  1  0  0  0  0
 12 13  1  0  0  0  0
 13 16  2  0  0  0  0
 14 17  1  0  0  0  0
 14 11  2  0  0  0  0
 15  8  1  0  0  0  0
 15 12  1  0  0  0  0
 17 15  2  0  0  0  0
 18 12  2  0  0  0  0
 18 10  1  0  0  0  0
 19 21  1  1  0  0  0
 21 20  1  0  0  0  0
 22 26  1  1  0  0  0
 22 19  1  0  0  0  0
 22 23  1  0  0  0  0
 23 24  2  0  0  0  0
 25 23  1  0  0  0  0
 27 26  1  0  0  0  0
 28 27  1  0  0  0  0
 30 32  1  0  0  0  0
 31 30  1  0  0  0  0
 32 29  1  1  0  0  0
 32 35  1  0  0  0  0
 33 35  1  0  0  0  0
 34 30  1  0  0  0  0
 34 33  1  0  0  0  0
 35 28  1  1  0  0  0
M  END
>  <MODEL>
7

>  <REMARK>
 VINA RESULT:      -6.9      1.961      2.947
  Name = 
  12 active torsions:
  status: ('A' for Active; 'I' for Inactive)
    1  A    between atoms: C_2  and  C_6
    2  A    between atoms: C_2  and  C_12
    3  A    between atoms: C_2  and  C_33
    4  A    between atoms: C_3  and  N_8
    5  A    between atoms: C_3  and  C_35
    6  A    between atoms: C_6  and  C_7
    7  A    between atoms: N_8  and  C_30
    8  A    between atoms: C_13  and  C_15
    9  A    between atoms: C_15  and  C_24
   10  A    between atoms: C_15  and  C_30
   11  A    between atoms: C_24  and  C_27
   12  A    between atoms: C_24  and  C_28
                            x       y       z     vdW  Elec       q    Type
                         _______ _______ _______ _____ _____    ______ ____

>  <TORSDO>
F 12

$$$$
=
 OpenBabel11072413093D

 35 38  0  0  1  0  0  0  0  0999 V2000
  161.5780  208.4350  153.3970 C   0  0  0  0  0  2  0  0  0  0  0  0
  161.2250  209.7220  152.6770 C   0  0  1  0  0  3  0  0  0  0  0  0
  160.9250  208.3800  152.0310 C   0  0  1  0  0  3  0  0  0  0  0  0
  161.9710  208.0740  150.9690 C   0  0  2  0  0  3  0  0  0  0  0  0
  161.4480  208.4760  149.6000 C   0  0  0  0  0  2  0  0  0  0  0  0
  162.3050  209.5800  149.0130 C   0  0  0  0  0  1  0  0  0  0  0  0
  162.2700  206.5770  150.9720 C   0  0  0  0  0  2  0  0  0  0  0  0
  161.0080  200.9620  150.2670 N   0  0  0  0  0  1  0  0  0  0  0  0
  161.2560  206.3780  147.7000 Cl  0  0  0  0  0  0  0  0  0  0  0  0
  161.0130  205.7020  150.9040 C   0  0  2  0  0  3  0  0  0  0  0  0
  161.1980  204.7970  148.4580 C   0  0  0  0  0  0  0  0  0  0  0  0
  161.0250  203.4110  150.4240 C   0  0  0  0  0  0  0  0  0  0  0  0
  160.8800  203.4780  151.8280 N   0  0  0  0  0  0  0  0  0  0  0  0
  161.2580  203.6380  147.6670 C   0  0  0  0  0  3  0  0  0  0  0  0
  161.0810  202.2450  149.6570 C   0  0  0  0  0  0  0  0  0  0  0  0
  160.8300  204.8890  152.2060 C   0  0  0  0  0  3  0  0  0  0  0  0
  161.2010  202.3660  148.2640 C   0  0  0  0  0  3  0  0  0  0  0  0
  161.0930  204.6500  149.8480 C   0  0  0  0  0  0  0  0  0  0  0  0
  159.9260  210.3040  153.2400 C   0  0  1  0  0  3  0  0  0  0  0  0
  159.0770  209.8870  155.4630 O   0  0  0  0  0  1  0  0  0  0  0  0
  160.0210  210.6160  154.7360 C   0  0  0  0  0  2  0  0  0  0  0  0
  159.3700  211.4880  152.4310 C   0  0  1  0  0  3  0  0  0  0  0  0
  158.6760  212.5260  153.2660 C   0  0  0  0  0  0  0  0  0  0  0  0
  159.3330  213.4170  153.8670 O   0  0  0  0  0  0  0  0  0  0  0  0
  157.2570  212.5040  153.3740 N   0  0  0  0  0  1  0  0  0  0  0  0
  160.4470  212.1090  151.5520 C   0  0  0  0  0  2  0  0  0  0  0  0
  159.8600  213.0960  150.6600 N   0  0  0  0  0  2  0  0  0  0  0  0
  160.8680  213.4290  149.6650 C   0  0  0  0  0  2  0  0  0  0  0  0
  163.0800  212.9410  147.8850 C   0  0  0  0  0  1  0  0  0  0  0  0
  161.3510  214.1490  146.6170 N   0  0  0  0  0  0  0  0  0  0  0  0
  161.6520  213.9420  145.2110 C   0  0  0  0  0  1  0  0  0  0  0  0
  161.6650  212.9120  147.3160 C   0  0  2  0  0  3  0  0  0  0  0  0
  159.4180  213.3790  147.6720 C   0  0  0  0  0  2  0  0  0  0  0  0
  159.9550  214.3400  146.7100 N   0  0  0  0  0  2  0  0  0  0  0  0
  160.5810  212.7070  148.3460 C   0  0  2  0  0  3  0  0  0  0  0  0
  2 19  1  1  0  0  0
  2  1  1  0  0  0  0
  3  4  1  6  0  0  0
  3  2  1  0  0  0  0
  3  1  1  0  0  0  0
  4  5  1  6  0  0  0
  4  7  1  0  0  0  0
  6  5  1  0  0  0  0
  9 11  1  0  0  0  0
 10  7  1  1  0  0  0
 10 16  1  0  0  0  0
 11 18  1  0  0  0  0
 12 13  1  0  0  0  0
 13 16  2  0  0  0  0
 14 17  1  0  0  0  0
 14 11  2  0  0  0  0
 15  8  1  0  0  0  0
 15 12  1  0  0  0  0
 17 15  2  0  0  0  0
 18 12  2  0  0  0  0
 18 10  1  0  0  0  0
 19 21  1  1  0  0  0
 21 20  1  0  0  0  0
 22 26  1  1  0  0  0
 22 19  1  0  0  0  0
 22 23  1  0  0  0  0
 23 25  1  0  0  0  0
 23 24  2  0  0  0  0
 27 26  1  0  0  0  0
 28 27  1  0  0  0  0
 30 34  1  0  0  0  0
 30 32  1  0  0  0  0
 31 30  1  0  0  0  0
 32 29  1  1  0  0  0
 32 35  1  0  0  0  0
 33 35  1  0  0  0  0
 34 33  1  0  0  0  0
 35 28  1  1  0  0  0
M  END
>  <MODEL>
8

>  <REMARK>
 VINA RESULT:      -6.6      2.901      4.031
  Name = 
  12 active torsions:
  status: ('A' for Active; 'I' for Inactive)
    1  A    between atoms: C_2  and  C_6
    2  A    between atoms: C_2  and  C_12
    3  A    between atoms: C_2  and  C_33
    4  A    between atoms: C_3  and  N_8
    5  A    between atoms: C_3  and  C_35
    6  A    between atoms: C_6  and  C_7
    7  A    between atoms: N_8  and  C_30
    8  A    between atoms: C_13  and  C_15
    9  A    between atoms: C_15  and  C_24
   10  A    between atoms: C_15  and  C_30
   11  A    between atoms: C_24  and  C_27
   12  A    between atoms: C_24  and  C_28
                            x       y       z     vdW  Elec       q    Type
                         _______ _______ _______ _____ _____    ______ ____

>  <TORSDO>
F 12

$$$$
=
 OpenBabel11072413093D

 35 38  0  0  1  0  0  0  0  0999 V2000
  161.9920  208.1100  150.5530 C   0  0  0  0  0  2  0  0  0  0  0  0
  160.9900  208.8750  151.3940 C   0  0  1  0  0  3  0  0  0  0  0  0
  161.9000  207.8450  152.0420 C   0  0  1  0  0  3  0  0  0  0  0  0
  161.1260  206.5590  152.2920 C   0  0  2  0  0  3  0  0  0  0  0  0
  161.2960  206.1280  153.7400 C   0  0  0  0  0  2  0  0  0  0  0  0
  161.0390  207.2980  154.6690 C   0  0  0  0  0  1  0  0  0  0  0  0
  161.6630  205.4610  151.3760 C   0  0  0  0  0  2  0  0  0  0  0  0
  161.3910  200.5460  148.3130 N   0  0  0  0  0  1  0  0  0  0  0  0
  160.6920  206.5030  148.2540 Cl  0  0  0  0  0  0  0  0  0  0  0  0
  160.5760  204.5100  150.8610 C   0  0  2  0  0  3  0  0  0  0  0  0
  160.9110  204.7620  148.2800 C   0  0  0  0  0  0  0  0  0  0  0  0
  160.9840  202.6680  149.4740 C   0  0  0  0  0  0  0  0  0  0  0  0
  160.8320  202.1130  150.7650 N   0  0  0  0  0  0  0  0  0  0  0  0
  161.1690  204.0700  147.0850 C   0  0  0  0  0  3  0  0  0  0  0  0
  161.2400  201.9600  148.2990 C   0  0  0  0  0  0  0  0  0  0  0  0
  160.5390  203.2060  151.6910 C   0  0  0  0  0  3  0  0  0  0  0  0
  161.3340  202.6740  147.0940 C   0  0  0  0  0  3  0  0  0  0  0  0
  160.8350  204.0290  149.4720 C   0  0  0  0  0  0  0  0  0  0  0  0
  161.5220  210.2750  151.7080 C   0  0  1  0  0  3  0  0  0  0  0  0
  161.9760  210.2680  149.3350 O   0  0  0  0  0  1  0  0  0  0  0  0
  162.3170  210.8760  150.5460 C   0  0  0  0  0  2  0  0  0  0  0  0
  160.4550  211.2430  152.2480 C   0  0  1  0  0  3  0  0  0  0  0  0
  160.4600  211.3870  153.7420 C   0  0  0  0  0  0  0  0  0  0  0  0
  161.3890  210.8940  154.4360 O   0  0  0  0  0  0  0  0  0  0  0  0
  159.4030  212.0940  154.3810 N   0  0  0  0  0  1  0  0  0  0  0  0
  160.5420  212.5980  151.5570 C   0  0  0  0  0  2  0  0  0  0  0  0
  159.5200  212.7030  150.5270 N   0  0  0  0  0  2  0  0  0  0  0  0
  160.0600  213.5460  149.4720 C   0  0  0  0  0  2  0  0  0  0  0  0
  162.4070  213.6550  147.8040 C   0  0  0  0  0  1  0  0  0  0  0  0
  160.5000  214.4530  146.4680 N   0  0  0  0  0  0  0  0  0  0  0  0
  160.9080  214.3670  145.0760 C   0  0  0  0  0  1  0  0  0  0  0  0
  161.0690  213.3060  147.1590 C   0  0  2  0  0  3  0  0  0  0  0  0
  158.7610  213.2120  147.4040 C   0  0  0  0  0  2  0  0  0  0  0  0
  159.0970  214.3030  146.4890 N   0  0  0  0  0  2  0  0  0  0  0  0
  160.0180  212.8170  148.1270 C   0  0  2  0  0  3  0  0  0  0  0  0
  1  2  1  0  0  0  0
  1  3  1  0  0  0  0
  2 19  1  1  0  0  0
  2  3  1  0  0  0  0
  3  4  1  6  0  0  0
  4  7  1  6  0  0  0
  4  5  1  0  0  0  0
  5  6  1  0  0  0  0
  9 11  1  0  0  0  0
 10  7  1  1  0  0  0
 10 16  1  0  0  0  0
 11 18  1  0  0  0  0
 12 13  1  0  0  0  0
 13 16  2  0  0  0  0
 14 17  1  0  0  0  0
 14 11  2  0  0  0  0
 15  8  1  0  0  0  0
 15 12  1  0  0  0  0
 17 15  2  0  0  0  0
 18 12  2  0  0  0  0
 18 10  1  0  0  0  0
 19 21  1  6  0  0  0
 19 22  1  0  0  0  0
 20 21  1  0  0  0  0
 22 26  1  6  0  0  0
 22 23  1  0  0  0  0
 23 25  1  0  0  0  0
 23 24  2  0  0  0  0
 27 26  1  0  0  0  0
 28 27  1  0  0  0  0
 30 34  1  0  0  0  0
 30 32  1  0  0  0  0
 31 30  1  0  0  0  0
 32 29  1  1  0  0  0
 32 35  1  0  0  0  0
 33 35  1  0  0  0  0
 34 33  1  0  0  0  0
 35 28  1  1  0  0  0
M  END
>  <MODEL>
9

>  <REMARK>
 VINA RESULT:      -6.5      2.843      4.277
  Name = 
  12 active torsions:
  status: ('A' for Active; 'I' for Inactive)
    1  A    between atoms: C_2  and  C_6
    2  A    between atoms: C_2  and  C_12
    3  A    between atoms: C_2  and  C_33
    4  A    between atoms: C_3  and  N_8
    5  A    between atoms: C_3  and  C_35
    6  A    between atoms: C_6  and  C_7
    7  A    between atoms: N_8  and  C_30
    8  A    between atoms: C_13  and  C_15
    9  A    between atoms: C_15  and  C_24
   10  A    between atoms: C_15  and  C_30
   11  A    between atoms: C_24  and  C_27
   12  A    between atoms: C_24  and  C_28
                            x       y       z     vdW  Elec       q    Type
                         _______ _______ _______ _____ _____    ______ ____

>  <TORSDO>
F 12

$$$$
