=
 OpenBabel11072411593D

 45 51  0  0  1  0  0  0  0  0999 V2000
  161.4270  208.8560  152.3960 C   0  0  1  0  0  3  0  0  0  0  0  0
  160.0880  211.7170  151.3770 C   0  0  2  0  0  3  0  0  0  0  0  0
  161.2330  211.2350  152.2420 C   0  0  2  0  0  3  0  0  0  0  0  0
  160.6900  212.0290  150.0220 C   0  0  0  0  0  2  0  0  0  0  0  0
  161.7900  211.0080  149.8800 C   0  0  2  0  0  3  0  0  0  0  0  0
  162.2630  210.6780  151.2870 C   0  0  2  0  0  3  0  0  0  0  0  0
  162.9280  211.5730  149.0550 C   0  0  0  0  0  1  0  0  0  0  0  0
  162.3770  209.2810  151.4400 O   0  0  0  0  0  0  0  0  0  0  0  0
  160.7830  210.0560  153.0500 C   0  0  2  0  0  3  0  0  0  0  0  0
  157.9320  213.1980  151.2870 C   0  0  1  0  0  3  0  0  0  0  0  0
  159.2570  212.8460  152.0050 C   0  0  1  0  0  3  0  0  0  0  0  0
  155.8900  211.8950  154.8380 O   0  0  0  0  0  0  0  0  0  0  0  0
  159.1260  212.6200  153.5140 C   0  0  0  0  0  2  0  0  0  0  0  0
  156.2210  213.2470  153.0300 O   0  0  0  0  0  0  0  0  0  0  0  0
  157.0640  214.0520  152.2110 C   0  0  0  0  0  2  0  0  0  0  0  0
  156.6750  212.2800  153.9360 C   0  0  0  0  0  0  0  0  0  0  0  0
  158.0220  211.6270  153.8370 C   0  0  0  0  0  2  0  0  0  0  0  0
  158.2340  214.0050  150.0130 C   0  0  2  0  0  3  0  0  0  0  0  0
  157.0000  214.4530  149.1870 C   0  0  2  0  0  3  0  0  0  0  0  0
  155.7830  214.0160  149.7340 O   0  0  0  0  0  1  0  0  0  0  0  0
  157.2250  211.8850  148.7600 C   0  0  0  0  0  1  0  0  0  0  0  0
  157.8510  213.2820  148.7280 C   0  0  2  0  0  0  0  0  0  0  0  0
  158.6810  213.5800  147.6470 O   0  0  0  0  0  1  0  0  0  0  0  0
  162.4710  210.9010  154.6690 C   0  0  0  0  0  2  0  0  0  0  0  0
  161.1070  208.8550  155.3210 C   0  0  1  0  0  3  0  0  0  0  0  0
  163.1700  209.7500  156.4460 C   0  0  0  0  0  2  0  0  0  0  0  0
  162.8510  211.0440  156.0060 O   0  0  0  0  0  0  0  0  0  0  0  0
  161.1140  210.1970  154.5440 C   0  0  2  0  0  3  0  0  0  0  0  0
  161.8920  208.9370  156.6340 C   0  0  0  0  0  2  0  0  0  0  0  0
  158.7840  209.2960  155.7280 O   0  0  0  0  0  0  0  0  0  0  0  0
  159.3980  207.0570  155.8470 N   0  0  0  0  0  1  0  0  0  0  0  0
  159.7040  208.4370  155.6450 C   0  0  0  0  0  0  0  0  0  0  0  0
  160.3410  208.0260  151.7190 C   0  0  0  0  0  2  0  0  0  0  0  0
  160.8070  206.6130  151.3350 C   0  0  1  0  0  3  0  0  0  0  0  0
  161.8060  206.9540  147.8850 C   0  0  0  0  0  2  0  0  0  0  0  0
  160.9960  205.3150  149.1670 C   0  0  0  0  0  0  0  0  0  0  0  0
  161.0700  206.5120  149.8970 N   0  0  0  0  0  0  0  0  0  0  0  0
  161.5350  207.5450  149.1460 O   0  0  0  0  0  0  0  0  0  0  0  0
  161.4200  205.5100  147.9490 C   0  0  0  0  0  3  0  0  0  0  0  0
  160.5360  204.1080  149.6990 O   0  0  0  0  0  0  0  0  0  0  0  0
  160.7680  202.9040  149.0810 C   0  0  0  0  0  0  0  0  0  0  0  0
  160.9780  201.8470  148.5300 C   0  0  0  0  0  3  0  0  0  0  0  0
  161.6020  205.6130  153.4980 C   0  0  0  0  0  2  0  0  0  0  0  0
  161.9340  204.6750  152.3630 C   0  0  0  0  0  2  0  0  0  0  0  0
  162.0180  206.1710  152.1510 C   0  0  0  0  0  3  0  0  0  0  0  0
  1 33  1  6  0  0  0
  1  9  1  0  0  0  0
  2  4  1  6  0  0  0
  2 11  1  0  0  0  0
  2  3  1  0  0  0  0
  3  9  1  0  0  0  0
  5  4  1  0  0  0  0
  5  6  1  0  0  0  0
  6  8  1  0  0  0  0
  6  3  1  0  0  0  0
  7  5  1  0  0  0  0
  8  1  1  0  0  0  0
  9 28  1  0  0  0  0
 10 11  1  0  0  0  0
 10 15  1  0  0  0  0
 11 13  1  0  0  0  0
 13 17  1  0  0  0  0
 14 16  1  0  0  0  0
 15 14  1  0  0  0  0
 16 12  2  0  0  0  0
 17 16  1  0  0  0  0
 18 10  1  0  0  0  0
 19 20  1  0  0  0  0
 19 18  1  0  0  0  0
 22 21  1  0  0  0  0
 22 19  1  0  0  0  0
 22 18  1  0  0  0  0
 23 22  1  0  0  0  0
 24 27  1  0  0  0  0
 25 32  1  0  0  0  0
 25 29  1  0  0  0  0
 26 29  1  0  0  0  0
 27 26  1  0  0  0  0
 28 24  1  0  0  0  0
 28 25  1  0  0  0  0
 32 30  2  0  0  0  0
 32 31  1  0  0  0  0
 34 33  1  0  0  0  0
 34 45  1  0  0  0  0
 35 39  1  0  0  0  0
 35 38  1  0  0  0  0
 36 40  1  0  0  0  0
 36 37  1  0  0  0  0
 37 34  1  0  0  0  0
 38 37  1  0  0  0  0
 39 36  2  0  0  0  0
 41 40  1  0  0  0  0
 42 41  3  0  0  0  0
 44 43  1  0  0  0  0
 45 44  1  0  0  0  0
 45 43  1  0  0  0  0
M  END
>  <MODEL>
1

>  <REMARK>
 VINA RESULT:      -3.6      0.000      0.000
  Name = 
  10 active torsions:
  status: ('A' for Active; 'I' for Inactive)
    1  A    between atoms: C_1  and  C_16
    2  A    between atoms: C_2  and  O_36
    3  A    between atoms: C_3  and  C_17
    4  A    between atoms: C_8  and  C_26
    5  A    between atoms: C_10  and  C_11
    6  A    between atoms: C_12  and  C_16
    7  A    between atoms: C_12  and  N_25
    8  A    between atoms: C_12  and  C_44
    9  A    between atoms: C_18  and  O_36
   10  A    between atoms: C_19  and  C_42
                            x       y       z     vdW  Elec       q    Type
                         _______ _______ _______ _____ _____    ______ ____

>  <TORSDO>
F 10

$$$$
=
 OpenBabel11072411593D

 45 51  0  0  1  0  0  0  0  0999 V2000
  161.5060  207.7850  152.2810 C   0  0  1  0  0  3  0  0  0  0  0  0
  160.0730  210.7790  152.2460 C   0  0  2  0  0  3  0  0  0  0  0  0
  161.2620  210.0880  152.8780 C   0  0  2  0  0  3  0  0  0  0  0  0
  160.6090  211.5120  151.0330 C   0  0  0  0  0  2  0  0  0  0  0  0
  161.7200  210.6180  150.5420 C   0  0  2  0  0  3  0  0  0  0  0  0
  162.2600  209.8850  151.7600 C   0  0  2  0  0  3  0  0  0  0  0  0
  162.8090  211.4450  149.8920 C   0  0  0  0  0  1  0  0  0  0  0  0
  162.4050  208.5130  151.4690 O   0  0  0  0  0  0  0  0  0  0  0  0
  160.8700  208.7040  153.2970 C   0  0  2  0  0  3  0  0  0  0  0  0
  158.0180  212.3550  152.6260 C   0  0  1  0  0  3  0  0  0  0  0  0
  159.2500  211.6320  153.2230 C   0  0  1  0  0  3  0  0  0  0  0  0
  155.5890  209.9320  155.2150 O   0  0  0  0  0  0  0  0  0  0  0  0
  158.9680  210.8380  154.5010 C   0  0  0  0  0  2  0  0  0  0  0  0
  156.1590  211.8570  154.1300 O   0  0  0  0  0  0  0  0  0  0  0  0
  157.1170  212.8430  153.7600 C   0  0  0  0  0  2  0  0  0  0  0  0
  156.4730  210.5740  154.5960 C   0  0  0  0  0  0  0  0  0  0  0  0
  157.7860  209.8990  154.3270 C   0  0  0  0  0  2  0  0  0  0  0  0
  158.4800  213.5730  151.8070 C   0  0  2  0  0  3  0  0  0  0  0  0
  157.3520  214.4530  151.2090 C   0  0  2  0  0  3  0  0  0  0  0  0
  156.0660  213.9700  151.4960 O   0  0  0  0  0  1  0  0  0  0  0  0
  157.3700  212.2750  149.7650 C   0  0  0  0  0  1  0  0  0  0  0  0
  158.1220  213.4840  150.3280 C   0  0  2  0  0  0  0  0  0  0  0  0
  159.0480  214.1020  149.4890 O   0  0  0  0  0  1  0  0  0  0  0  0
  160.5990  207.0640  155.1460 C   0  0  0  0  0  2  0  0  0  0  0  0
  160.9130  209.5140  155.7560 C   0  0  1  0  0  3  0  0  0  0  0  0
  160.1820  207.6370  157.2610 C   0  0  0  0  0  2  0  0  0  0  0  0
  160.8940  206.7220  156.4680 O   0  0  0  0  0  0  0  0  0  0  0  0
  161.2630  208.3880  154.7480 C   0  0  2  0  0  3  0  0  0  0  0  0
  160.8540  209.0060  157.1990 C   0  0  0  0  0  2  0  0  0  0  0  0
  163.1280  210.3630  155.3940 O   0  0  0  0  0  0  0  0  0  0  0  0
  161.5390  211.9630  155.9590 N   0  0  0  0  0  1  0  0  0  0  0  0
  161.9290  210.6160  155.6930 C   0  0  0  0  0  0  0  0  0  0  0  0
  160.4060  207.1710  151.4200 C   0  0  0  0  0  2  0  0  0  0  0  0
  160.7430  205.7580  150.9210 C   0  0  1  0  0  3  0  0  0  0  0  0
  162.1860  206.3270  147.6630 C   0  0  0  0  0  2  0  0  0  0  0  0
  161.0370  204.6830  148.6450 C   0  0  0  0  0  0  0  0  0  0  0  0
  161.1640  205.7760  149.5170 N   0  0  0  0  0  0  0  0  0  0  0  0
  161.8360  206.8120  148.9500 O   0  0  0  0  0  0  0  0  0  0  0  0
  161.6260  204.9480  147.5120 C   0  0  0  0  0  3  0  0  0  0  0  0
  160.3770  203.4980  148.9750 O   0  0  0  0  0  0  0  0  0  0  0  0
  160.8370  202.2690  148.5700 C   0  0  0  0  0  0  0  0  0  0  0  0
  161.2350  201.1820  148.2180 C   0  0  0  0  0  3  0  0  0  0  0  0
  161.1320  204.3190  152.9430 C   0  0  0  0  0  2  0  0  0  0  0  0
  161.5840  203.5780  151.7090 C   0  0  0  0  0  2  0  0  0  0  0  0
  161.7840  205.0750  151.8020 C   0  0  0  0  0  3  0  0  0  0  0  0
  1 33  1  6  0  0  0
  1  9  1  0  0  0  0
  2  4  1  6  0  0  0
  2  3  1  0  0  0  0
  2 11  1  0  0  0  0
  3  9  1  0  0  0  0
  5  4  1  0  0  0  0
  5  6  1  0  0  0  0
  6  3  1  0  0  0  0
  7  5  1  0  0  0  0
  8  6  1  0  0  0  0
  8  1  1  0  0  0  0
  9 28  1  0  0  0  0
 10 11  1  0  0  0  0
 10 15  1  0  0  0  0
 11 13  1  0  0  0  0
 14 16  1  0  0  0  0
 15 14  1  0  0  0  0
 16 12  2  0  0  0  0
 17 13  1  0  0  0  0
 17 16  1  0  0  0  0
 18 10  1  0  0  0  0
 19 20  1  0  0  0  0
 19 18  1  0  0  0  0
 21 22  1  0  0  0  0
 22 19  1  0  0  0  0
 22 18  1  0  0  0  0
 23 22  1  0  0  0  0
 24 27  1  0  0  0  0
 25 29  1  0  0  0  0
 27 26  1  0  0  0  0
 28 24  1  0  0  0  0
 28 25  1  0  0  0  0
 29 26  1  0  0  0  0
 30 32  2  0  0  0  0
 32 25  1  0  0  0  0
 32 31  1  0  0  0  0
 34 33  1  0  0  0  0
 34 45  1  0  0  0  0
 35 38  1  0  0  0  0
 36 40  1  0  0  0  0
 36 37  1  0  0  0  0
 37 34  1  0  0  0  0
 38 37  1  0  0  0  0
 39 35  1  0  0  0  0
 39 36  2  0  0  0  0
 41 40  1  0  0  0  0
 42 41  3  0  0  0  0
 44 45  1  0  0  0  0
 44 43  1  0  0  0  0
 45 43  1  0  0  0  0
M  END
>  <MODEL>
2

>  <REMARK>
 VINA RESULT:      -2.7      1.459      2.044
  Name = 
  10 active torsions:
  status: ('A' for Active; 'I' for Inactive)
    1  A    between atoms: C_1  and  C_16
    2  A    between atoms: C_2  and  O_36
    3  A    between atoms: C_3  and  C_17
    4  A    between atoms: C_8  and  C_26
    5  A    between atoms: C_10  and  C_11
    6  A    between atoms: C_12  and  C_16
    7  A    between atoms: C_12  and  N_25
    8  A    between atoms: C_12  and  C_44
    9  A    between atoms: C_18  and  O_36
   10  A    between atoms: C_19  and  C_42
                            x       y       z     vdW  Elec       q    Type
                         _______ _______ _______ _____ _____    ______ ____

>  <TORSDO>
F 10

$$$$
=
 OpenBabel11072411593D

 45 51  0  0  1  0  0  0  0  0999 V2000
  161.1280  209.1520  152.8700 C   0  0  1  0  0  3  0  0  0  0  0  0
  159.0200  211.7030  152.6060 C   0  0  2  0  0  3  0  0  0  0  0  0
  160.3750  211.3970  153.2080 C   0  0  2  0  0  3  0  0  0  0  0  0
  159.2940  212.3670  151.2720 C   0  0  0  0  0  2  0  0  0  0  0  0
  160.5570  211.6940  150.7950 C   0  0  2  0  0  3  0  0  0  0  0  0
  161.3260  211.2780  152.0390 C   0  0  2  0  0  3  0  0  0  0  0  0
  161.3770  212.6520  149.9570 C   0  0  0  0  0  1  0  0  0  0  0  0
  161.7780  209.9500  151.9010 O   0  0  0  0  0  0  0  0  0  0  0  0
  160.3500  210.0300  153.8220 C   0  0  2  0  0  3  0  0  0  0  0  0
  157.5310  211.6800  154.7590 C   0  0  1  0  0  3  0  0  0  0  0  0
  158.0750  212.4690  153.5430 C   0  0  1  0  0  3  0  0  0  0  0  0
  159.6590  214.4530  157.2600 O   0  0  0  0  0  0  0  0  0  0  0  0
  158.6730  213.8360  153.8850 C   0  0  0  0  0  2  0  0  0  0  0  0
  157.8980  213.1130  156.7030 O   0  0  0  0  0  0  0  0  0  0  0  0
  156.9260  212.6550  155.7680 C   0  0  0  0  0  2  0  0  0  0  0  0
  159.0710  213.8010  156.3630 C   0  0  0  0  0  0  0  0  0  0  0  0
  159.6980  213.7350  155.0020 C   0  0  0  0  0  2  0  0  0  0  0  0
  156.4320  210.7090  154.2950 C   0  0  2  0  0  3  0  0  0  0  0  0
  155.0400  211.3370  154.0310 C   0  0  2  0  0  3  0  0  0  0  0  0
  155.0000  212.7160  154.2900 O   0  0  0  0  0  1  0  0  0  0  0  0
  155.3030  211.3020  156.6310 C   0  0  0  0  0  1  0  0  0  0  0  0
  155.2990  210.5450  155.3000 C   0  0  2  0  0  0  0  0  0  0  0  0
  154.7250  209.2740  155.2970 O   0  0  0  0  0  1  0  0  0  0  0  0
  161.9990  211.0690  155.3660 C   0  0  0  0  0  2  0  0  0  0  0  0
  161.3960  208.6240  155.7280 C   0  0  1  0  0  3  0  0  0  0  0  0
  163.2970  209.9060  156.7590 C   0  0  0  0  0  2  0  0  0  0  0  0
  162.5580  211.0950  156.6460 O   0  0  0  0  0  0  0  0  0  0  0  0
  160.8910  210.0140  155.2600 C   0  0  2  0  0  3  0  0  0  0  0  0
  162.3490  208.7220  156.9220 C   0  0  0  0  0  2  0  0  0  0  0  0
  159.0970  207.9420  155.6370 O   0  0  0  0  0  0  0  0  0  0  0  0
  160.4460  206.6760  157.0450 N   0  0  0  0  0  1  0  0  0  0  0  0
  160.2440  207.7470  156.1230 C   0  0  0  0  0  0  0  0  0  0  0  0
  160.1600  208.1910  152.1890 C   0  0  0  0  0  2  0  0  0  0  0  0
  160.8490  206.9530  151.5940 C   0  0  1  0  0  3  0  0  0  0  0  0
  162.2900  208.0230  148.4630 C   0  0  0  0  0  2  0  0  0  0  0  0
  161.1280  206.2540  149.1740 C   0  0  0  0  0  0  0  0  0  0  0  0
  161.2670  207.1920  150.2100 N   0  0  0  0  0  0  0  0  0  0  0  0
  161.9470  208.2990  149.8120 O   0  0  0  0  0  0  0  0  0  0  0  0
  161.7160  206.6910  148.0960 C   0  0  0  0  0  3  0  0  0  0  0  0
  160.4570  205.0360  149.3140 O   0  0  0  0  0  0  0  0  0  0  0  0
  160.9070  203.8830  148.7200 C   0  0  0  0  0  0  0  0  0  0  0  0
  161.3130  202.8690  148.1990 C   0  0  0  0  0  3  0  0  0  0  0  0
  161.5660  205.5100  153.5210 C   0  0  0  0  0  2  0  0  0  0  0  0
  162.1990  204.9960  152.2500 C   0  0  0  0  0  2  0  0  0  0  0  0
  162.0200  206.4850  152.4530 C   0  0  0  0  0  3  0  0  0  0  0  0
  1 33  1  6  0  0  0
  1  9  1  0  0  0  0
  2  4  1  6  0  0  0
  2  3  1  0  0  0  0
  2 11  1  0  0  0  0
  3  9  1  0  0  0  0
  5  4  1  0  0  0  0
  5  6  1  0  0  0  0
  6  3  1  0  0  0  0
  7  5  1  0  0  0  0
  8  6  1  0  0  0  0
  8  1  1  0  0  0  0
  9 28  1  0  0  0  0
 10 15  1  0  0  0  0
 11 13  1  0  0  0  0
 11 10  1  0  0  0  0
 13 17  1  0  0  0  0
 15 14  1  0  0  0  0
 16 14  1  0  0  0  0
 16 12  2  0  0  0  0
 17 16  1  0  0  0  0
 18 10  1  0  0  0  0
 18 22  1  0  0  0  0
 19 20  1  0  0  0  0
 19 18  1  0  0  0  0
 19 22  1  0  0  0  0
 22 21  1  0  0  0  0
 23 22  1  0  0  0  0
 24 27  1  0  0  0  0
 25 32  1  0  0  0  0
 25 29  1  0  0  0  0
 26 29  1  0  0  0  0
 27 26  1  0  0  0  0
 28 24  1  0  0  0  0
 28 25  1  0  0  0  0
 30 32  2  0  0  0  0
 32 31  1  0  0  0  0
 34 33  1  0  0  0  0
 34 45  1  0  0  0  0
 35 38  1  0  0  0  0
 36 40  1  0  0  0  0
 36 37  1  0  0  0  0
 37 34  1  0  0  0  0
 38 37  1  0  0  0  0
 39 35  1  0  0  0  0
 39 36  2  0  0  0  0
 41 40  1  0  0  0  0
 42 41  3  0  0  0  0
 44 45  1  0  0  0  0
 44 43  1  0  0  0  0
 45 43  1  0  0  0  0
M  END
>  <MODEL>
3

>  <REMARK>
 VINA RESULT:      -2.3      1.827      3.149
  Name = 
  10 active torsions:
  status: ('A' for Active; 'I' for Inactive)
    1  A    between atoms: C_1  and  C_16
    2  A    between atoms: C_2  and  O_36
    3  A    between atoms: C_3  and  C_17
    4  A    between atoms: C_8  and  C_26
    5  A    between atoms: C_10  and  C_11
    6  A    between atoms: C_12  and  C_16
    7  A    between atoms: C_12  and  N_25
    8  A    between atoms: C_12  and  C_44
    9  A    between atoms: C_18  and  O_36
   10  A    between atoms: C_19  and  C_42
                            x       y       z     vdW  Elec       q    Type
                         _______ _______ _______ _____ _____    ______ ____

>  <TORSDO>
F 10

$$$$
=
 OpenBabel11072411593D

 45 51  0  0  1  0  0  0  0  0999 V2000
  161.6800  209.2580  152.2580 C   0  0  1  0  0  3  0  0  0  0  0  0
  160.1990  211.9050  150.9100 C   0  0  2  0  0  3  0  0  0  0  0  0
  161.3920  211.5850  151.7850 C   0  0  2  0  0  3  0  0  0  0  0  0
  160.7370  212.0450  149.5010 C   0  0  0  0  0  2  0  0  0  0  0  0
  161.8690  211.0480  149.4550 C   0  0  2  0  0  3  0  0  0  0  0  0
  162.4060  210.9340  150.8730 C   0  0  2  0  0  3  0  0  0  0  0  0
  162.9530  211.5290  148.5130 C   0  0  0  0  0  1  0  0  0  0  0  0
  162.5780  209.5760  151.2130 O   0  0  0  0  0  0  0  0  0  0  0  0
  161.0170  210.5160  152.7660 C   0  0  2  0  0  3  0  0  0  0  0  0
  158.0240  213.3390  150.6560 C   0  0  1  0  0  3  0  0  0  0  0  0
  159.3500  213.0840  151.4120 C   0  0  1  0  0  3  0  0  0  0  0  0
  155.9830  212.3970  154.3190 O   0  0  0  0  0  0  0  0  0  0  0  0
  159.2150  213.0190  152.9350 C   0  0  0  0  0  2  0  0  0  0  0  0
  156.3040  213.5520  152.3770 O   0  0  0  0  0  0  0  0  0  0  0  0
  157.1410  214.2750  151.4800 C   0  0  0  0  0  2  0  0  0  0  0  0
  156.7670  212.6940  153.3830 C   0  0  0  0  0  0  0  0  0  0  0  0
  158.1220  212.0520  153.3590 C   0  0  0  0  0  2  0  0  0  0  0  0
  158.3210  214.0090  149.3030 C   0  0  2  0  0  3  0  0  0  0  0  0
  157.0830  214.4520  148.4810 C   0  0  2  0  0  3  0  0  0  0  0  0
  155.8660  214.1390  149.1060 O   0  0  0  0  0  1  0  0  0  0  0  0
  157.1490  211.8470  148.2850 C   0  0  0  0  0  1  0  0  0  0  0  0
  157.8500  213.1970  148.1030 C   0  0  2  0  0  0  0  0  0  0  0  0
  158.6530  213.3470  146.9730 O   0  0  0  0  0  1  0  0  0  0  0  0
  162.9210  210.7620  154.3460 C   0  0  0  0  0  2  0  0  0  0  0  0
  160.6760  210.0190  155.2840 C   0  0  1  0  0  3  0  0  0  0  0  0
  162.9140  209.9680  156.4300 C   0  0  0  0  0  2  0  0  0  0  0  0
  163.3420  211.0510  155.6470 O   0  0  0  0  0  0  0  0  0  0  0  0
  161.3980  210.8750  154.2110 C   0  0  2  0  0  3  0  0  0  0  0  0
  161.4020  210.0400  156.6320 C   0  0  0  0  0  2  0  0  0  0  0  0
  158.2900  209.7730  155.2370 O   0  0  0  0  0  0  0  0  0  0  0  0
  159.0550  211.8210  156.0280 N   0  0  0  0  0  1  0  0  0  0  0  0
  159.2770  210.5120  155.5030 C   0  0  0  0  0  0  0  0  0  0  0  0
  160.6020  208.3080  151.7480 C   0  0  0  0  0  2  0  0  0  0  0  0
  161.1580  207.1610  150.8900 C   0  0  1  0  0  3  0  0  0  0  0  0
  161.4240  203.7870  152.1410 C   0  0  0  0  0  2  0  0  0  0  0  0
  160.8130  205.7660  152.9770 C   0  0  0  0  0  0  0  0  0  0  0  0
  161.1060  205.8850  151.6090 N   0  0  0  0  0  0  0  0  0  0  0  0
  161.4570  204.6960  151.0520 O   0  0  0  0  0  0  0  0  0  0  0  0
  160.9810  204.5310  153.3610 C   0  0  0  0  0  3  0  0  0  0  0  0
  160.4110  206.8340  153.7820 O   0  0  0  0  0  0  0  0  0  0  0  0
  160.3960  206.7500  155.1520 C   0  0  0  0  0  0  0  0  0  0  0  0
  160.3740  206.6740  156.3600 C   0  0  0  0  0  3  0  0  0  0  0  0
  161.2850  207.6910  148.4380 C   0  0  0  0  0  2  0  0  0  0  0  0
  161.2860  206.1940  148.6250 C   0  0  0  0  0  2  0  0  0  0  0  0
  160.4540  207.0660  149.5400 C   0  0  0  0  0  3  0  0  0  0  0  0
  1 33  1  6  0  0  0
  1  9  1  0  0  0  0
  2  4  1  6  0  0  0
  2 11  1  0  0  0  0
  2  3  1  0  0  0  0
  3  9  1  0  0  0  0
  5  4  1  0  0  0  0
  5  6  1  0  0  0  0
  6  8  1  0  0  0  0
  6  3  1  0  0  0  0
  7  5  1  0  0  0  0
  8  1  1  0  0  0  0
  9 28  1  0  0  0  0
 10 11  1  0  0  0  0
 10 15  1  0  0  0  0
 11 13  1  0  0  0  0
 13 17  1  0  0  0  0
 14 16  1  0  0  0  0
 15 14  1  0  0  0  0
 16 12  2  0  0  0  0
 17 16  1  0  0  0  0
 18 10  1  0  0  0  0
 19 20  1  0  0  0  0
 19 18  1  0  0  0  0
 22 21  1  0  0  0  0
 22 19  1  0  0  0  0
 22 18  1  0  0  0  0
 23 22  1  0  0  0  0
 24 27  1  0  0  0  0
 25 32  1  0  0  0  0
 25 29  1  0  0  0  0
 26 29  1  0  0  0  0
 27 26  1  0  0  0  0
 28 24  1  0  0  0  0
 28 25  1  0  0  0  0
 30 32  2  0  0  0  0
 32 31  1  0  0  0  0
 34 37  1  0  0  0  0
 34 33  1  0  0  0  0
 35 39  1  0  0  0  0
 36 39  2  0  0  0  0
 36 40  1  0  0  0  0
 37 36  1  0  0  0  0
 38 37  1  0  0  0  0
 38 35  1  0  0  0  0
 40 41  1  0  0  0  0
 41 42  3  0  0  0  0
 43 44  1  0  0  0  0
 43 45  1  0  0  0  0
 44 45  1  0  0  0  0
 45 34  1  0  0  0  0
M  END
>  <MODEL>
4

>  <REMARK>
 VINA RESULT:      -1.0      1.426      2.783
  Name = 
  10 active torsions:
  status: ('A' for Active; 'I' for Inactive)
    1  A    between atoms: C_1  and  C_16
    2  A    between atoms: C_2  and  O_36
    3  A    between atoms: C_3  and  C_17
    4  A    between atoms: C_8  and  C_26
    5  A    between atoms: C_10  and  C_11
    6  A    between atoms: C_12  and  C_16
    7  A    between atoms: C_12  and  N_25
    8  A    between atoms: C_12  and  C_44
    9  A    between atoms: C_18  and  O_36
   10  A    between atoms: C_19  and  C_42
                            x       y       z     vdW  Elec       q    Type
                         _______ _______ _______ _____ _____    ______ ____

>  <TORSDO>
F 10

$$$$
=
 OpenBabel11072411593D

 45 51  0  0  1  0  0  0  0  0999 V2000
  161.4020  208.3860  152.0390 C   0  0  1  0  0  3  0  0  0  0  0  0
  159.3240  210.8720  152.7610 C   0  0  2  0  0  3  0  0  0  0  0  0
  160.7000  210.3810  153.1570 C   0  0  2  0  0  3  0  0  0  0  0  0
  159.5470  211.9520  151.7220 C   0  0  0  0  0  2  0  0  0  0  0  0
  160.7760  211.4840  150.9840 C   0  0  2  0  0  3  0  0  0  0  0  0
  161.5940  210.6690  151.9740 C   0  0  2  0  0  3  0  0  0  0  0  0
  161.5730  212.6710  150.4860 C   0  0  0  0  0  1  0  0  0  0  0  0
  162.0200  209.4670  151.3700 O   0  0  0  0  0  0  0  0  0  0  0  0
  160.6810  208.8860  153.2680 C   0  0  2  0  0  3  0  0  0  0  0  0
  158.8530  212.5490  154.7150 C   0  0  1  0  0  3  0  0  0  0  0  0
  158.4340  211.2720  153.9480 C   0  0  1  0  0  3  0  0  0  0  0  0
  155.1530  214.3070  153.4170 O   0  0  0  0  0  0  0  0  0  0  0  0
  156.9610  211.2310  153.5320 C   0  0  0  0  0  2  0  0  0  0  0  0
  156.8310  213.9060  154.9090 O   0  0  0  0  0  0  0  0  0  0  0  0
  157.6980  213.0120  155.6020 C   0  0  0  0  0  2  0  0  0  0  0  0
  156.1350  213.5930  153.7340 C   0  0  0  0  0  0  0  0  0  0  0  0
  156.5510  212.4970  152.7980 C   0  0  0  0  0  2  0  0  0  0  0  0
  160.0650  212.2390  155.6110 C   0  0  2  0  0  3  0  0  0  0  0  0
  159.7410  211.6720  157.0170 C   0  0  2  0  0  3  0  0  0  0  0  0
  158.3640  211.5570  157.2600 O   0  0  0  0  0  1  0  0  0  0  0  0
  159.1020  214.2040  157.1260 C   0  0  0  0  0  1  0  0  0  0  0  0
  160.1520  213.1240  156.8470 C   0  0  2  0  0  0  0  0  0  0  0  0
  161.4580  213.3900  157.2570 O   0  0  0  0  0  1  0  0  0  0  0  0
  160.4240  207.2170  155.0940 C   0  0  0  0  0  2  0  0  0  0  0  0
  161.4380  209.4770  155.6730 C   0  0  1  0  0  3  0  0  0  0  0  0
  160.6150  207.7100  157.2610 C   0  0  0  0  0  2  0  0  0  0  0  0
  160.9020  206.7190  156.3090 O   0  0  0  0  0  0  0  0  0  0  0  0
  161.2860  208.3800  154.5870 C   0  0  2  0  0  3  0  0  0  0  0  0
  161.5670  208.8900  157.0810 C   0  0  0  0  0  2  0  0  0  0  0  0
  162.9830  210.6090  154.2270 O   0  0  0  0  0  0  0  0  0  0  0  0
  163.4320  210.8100  156.5000 N   0  0  0  0  0  1  0  0  0  0  0  0
  162.6510  210.3200  155.4090 C   0  0  0  0  0  0  0  0  0  0  0  0
  160.3890  207.7140  151.1170 C   0  0  0  0  0  2  0  0  0  0  0  0
  160.7920  206.2900  150.7060 C   0  0  1  0  0  3  0  0  0  0  0  0
  162.2290  206.7370  147.4260 C   0  0  0  0  0  2  0  0  0  0  0  0
  161.1830  205.0880  148.5100 C   0  0  0  0  0  0  0  0  0  0  0  0
  161.2260  206.2430  149.3080 N   0  0  0  0  0  0  0  0  0  0  0  0
  161.8320  207.2820  148.6760 O   0  0  0  0  0  0  0  0  0  0  0  0
  161.7650  205.3160  147.3650 C   0  0  0  0  0  3  0  0  0  0  0  0
  160.6000  203.8850  148.9160 O   0  0  0  0  0  0  0  0  0  0  0  0
  160.9930  202.6740  148.4010 C   0  0  0  0  0  0  0  0  0  0  0  0
  161.3490  201.6100  147.9480 C   0  0  0  0  0  3  0  0  0  0  0  0
  161.2250  205.0550  152.8510 C   0  0  0  0  0  2  0  0  0  0  0  0
  161.6750  204.2060  151.6860 C   0  0  0  0  0  2  0  0  0  0  0  0
  161.8540  205.7080  151.6350 C   0  0  0  0  0  3  0  0  0  0  0  0
  1 33  1  6  0  0  0
  1  9  1  0  0  0  0
  2  4  1  6  0  0  0
  2  3  1  0  0  0  0
  2 11  1  0  0  0  0
  3  9  1  0  0  0  0
  5  4  1  0  0  0  0
  5  6  1  0  0  0  0
  6  3  1  0  0  0  0
  7  5  1  0  0  0  0
  8  6  1  0  0  0  0
  8  1  1  0  0  0  0
  9 28  1  0  0  0  0
 10 15  1  0  0  0  0
 10 18  1  0  0  0  0
 11 10  1  0  0  0  0
 12 16  2  0  0  0  0
 13 11  1  0  0  0  0
 14 15  1  0  0  0  0
 16 14  1  0  0  0  0
 17 13  1  0  0  0  0
 17 16  1  0  0  0  0
 18 22  1  0  0  0  0
 18 19  1  0  0  0  0
 19 20  1  0  0  0  0
 22 19  1  0  0  0  0
 22 21  1  0  0  0  0
 22 23  1  0  0  0  0
 24 27  1  0  0  0  0
 25 29  1  0  0  0  0
 27 26  1  0  0  0  0
 28 24  1  0  0  0  0
 28 25  1  0  0  0  0
 29 26  1  0  0  0  0
 30 32  2  0  0  0  0
 32 25  1  0  0  0  0
 32 31  1  0  0  0  0
 34 33  1  0  0  0  0
 34 45  1  0  0  0  0
 35 38  1  0  0  0  0
 36 40  1  0  0  0  0
 36 37  1  0  0  0  0
 37 34  1  0  0  0  0
 38 37  1  0  0  0  0
 39 35  1  0  0  0  0
 39 36  2  0  0  0  0
 41 40  1  0  0  0  0
 42 41  3  0  0  0  0
 44 43  1  0  0  0  0
 45 44  1  0  0  0  0
 45 43  1  0  0  0  0
M  END
>  <MODEL>
5

>  <REMARK>
 VINA RESULT:      -0.8      2.090      3.771
  Name = 
  10 active torsions:
  status: ('A' for Active; 'I' for Inactive)
    1  A    between atoms: C_1  and  C_16
    2  A    between atoms: C_2  and  O_36
    3  A    between atoms: C_3  and  C_17
    4  A    between atoms: C_8  and  C_26
    5  A    between atoms: C_10  and  C_11
    6  A    between atoms: C_12  and  C_16
    7  A    between atoms: C_12  and  N_25
    8  A    between atoms: C_12  and  C_44
    9  A    between atoms: C_18  and  O_36
   10  A    between atoms: C_19  and  C_42
                            x       y       z     vdW  Elec       q    Type
                         _______ _______ _______ _____ _____    ______ ____

>  <TORSDO>
F 10

$$$$
