=
 OpenBabel11072413293D

 41 44  0  0  1  0  0  0  0  0999 V2000
  160.4320  208.4030  153.0790 C   0  0  0  0  0  2  0  0  0  0  0  0
  161.2250  209.6930  153.0180 C   0  0  0  0  0  2  0  0  0  0  0  0
  160.2900  210.8870  152.9020 C   0  0  0  0  0  2  0  0  0  0  0  0
  160.4790  211.9780  155.1470 C   0  0  0  0  0  1  0  0  0  0  0  0
  159.5830  211.1690  154.2240 C   0  0  1  0  0  3  0  0  0  0  0  0
  158.1910  211.8100  154.0330 C   0  0  2  0  0  3  0  0  0  0  0  0
  156.4700  213.6770  154.3630 C   0  0  0  0  0  2  0  0  0  0  0  0
  157.4550  214.3090  153.3970 C   0  0  1  0  0  3  0  0  0  0  0  0
  157.9350  213.2870  154.4540 C   0  0  2  0  0  3  0  0  0  0  0  0
  157.3180  213.7610  151.9660 C   0  0  1  0  0  3  0  0  0  0  0  0
  154.5260  213.9240  149.5120 F   0  0  0  0  0  0  0  0  0  0  0  0
  155.9300  213.9570  151.3880 C   0  0  0  0  0  0  0  0  0  0  0  0
  158.1390  214.0940  149.5320 C   0  0  0  0  0  2  0  0  0  0  0  0
  158.3400  214.4430  151.0280 C   0  0  2  0  0  3  0  0  0  0  0  0
  154.9060  214.4510  152.1370 F   0  0  0  0  0  0  0  0  0  0  0  0
  155.7350  213.6980  150.0880 C   0  0  0  0  0  0  0  0  0  0  0  0
  156.8940  213.2400  149.2500 C   0  0  0  0  0  2  0  0  0  0  0  0
  159.7790  214.1600  151.4390 C   0  0  0  0  0  2  0  0  0  0  0  0
  160.6240  214.2570  150.3320 O   0  0  0  0  0  1  0  0  0  0  0  0
  157.1510  210.9320  154.3520 O   0  0  0  0  0  0  0  0  0  0  0  0
  157.3400  210.6210  155.7010 C   0  0  0  0  0  1  0  0  0  0  0  0
  161.1750  207.3880  153.9260 C   0  0  0  0  0  2  0  0  0  0  0  0
  161.8420  206.3440  153.0400 C   0  0  0  0  0  2  0  0  0  0  0  0
  161.1380  205.0710  153.1200 N   0  0  0  0  0  2  0  0  0  0  0  0
  160.8550  203.6360  149.8410 C   0  0  0  0  0  0  0  0  0  0  0  0
  160.2610  203.1840  144.8130 O   0  0  0  0  0  1  0  0  0  0  0  0
  160.4820  204.8450  151.8390 C   0  0  2  0  0  3  0  0  0  0  0  0
  161.0560  203.1540  147.4940 C   0  0  0  0  0  3  0  0  0  0  0  0
  161.0540  204.9640  149.5660 C   0  0  0  0  0  0  0  0  0  0  0  0
  162.1640  202.5820  151.9650 S   0  0  0  0  0  1  0  0  0  0  0  0
  160.6710  203.4030  151.2980 C   0  0  2  0  0  3  0  0  0  0  0  0
  161.4900  205.0170  145.9090 N   0  0  0  0  0  0  0  0  0  0  0  0
  160.8430  202.6980  148.8030 C   0  0  0  0  0  0  0  0  0  0  0  0
  161.2540  204.5290  147.2450 C   0  0  0  0  0  0  0  0  0  0  0  0
  161.0030  205.8140  150.7710 C   0  0  0  0  0  2  0  0  0  0  0  0
  161.4710  204.6830  143.5890 O   0  0  0  0  0  0  0  0  0  0  0  0
  162.1400  206.3120  145.7450 C   0  0  0  0  0  1  0  0  0  0  0  0
  161.0900  204.2960  144.7260 C   0  0  0  0  0  0  0  0  0  0  0  0
  161.2560  205.4050  148.2970 N   0  0  0  0  0  0  0  0  0  0  0  0
  160.6450  201.2440  149.0630 C   0  0  0  0  0  2  0  0  0  0  0  0
  161.7060  200.5290  148.5360 F   0  0  0  0  0  0  0  0  0  0  0  0
  1 22  1  0  0  0  0
  2  1  1  0  0  0  0
  3  2  1  0  0  0  0
  3  5  1  0  0  0  0
  5  4  1  1  0  0  0
  6  5  1  0  0  0  0
  6 20  1  1  0  0  0
  7  9  1  0  0  0  0
  8  7  1  1  0  0  0
  8  9  1  0  0  0  0
  9  6  1  6  0  0  0
 10 12  1  6  0  0  0
 10  8  1  0  0  0  0
 11 16  1  0  0  0  0
 12 15  1  0  0  0  0
 13 14  1  0  0  0  0
 14 18  1  1  0  0  0
 14 10  1  0  0  0  0
 16 12  2  0  0  0  0
 17 13  1  0  0  0  0
 17 16  1  0  0  0  0
 19 18  1  0  0  0  0
 20 21  1  0  0  0  0
 23 24  1  0  0  0  0
 23 22  1  0  0  0  0
 25 31  1  0  0  0  0
 27 24  1  1  0  0  0
 28 33  1  0  0  0  0
 29 25  1  0  0  0  0
 29 35  1  0  0  0  0
 31 27  1  0  0  0  0
 31 30  1  1  0  0  0
 32 34  1  0  0  0  0
 33 40  1  0  0  0  0
 33 25  2  0  0  0  0
 34 28  2  0  0  0  0
 34 39  1  0  0  0  0
 35 27  1  0  0  0  0
 36 38  2  0  0  0  0
 37 32  1  0  0  0  0
 38 26  1  0  0  0  0
 38 32  1  0  0  0  0
 39 29  2  0  0  0  0
 41 40  1  0  0  0  0
M  END
>  <MODEL>
1

>  <REMARK>
 VINA RESULT:      -6.2      0.000      0.000
  Name = 
  13 active torsions:
  status: ('A' for Active; 'I' for Inactive)
    1  A    between atoms: C_3  and  C_26
    2  A    between atoms: C_4  and  C_25
    3  A    between atoms: C_5  and  N_33
    4  A    between atoms: C_5  and  C_41
    5  A    between atoms: C_6  and  C_17
    6  A    between atoms: C_10  and  N_33
    7  A    between atoms: O_16  and  C_22
    8  A    between atoms: C_21  and  C_38
    9  A    between atoms: C_21  and  C_40
   10  A    between atoms: C_22  and  C_32
   11  A    between atoms: C_22  and  C_36
   12  A    between atoms: C_32  and  C_40
   13  A    between atoms: C_38  and  C_41
                            x       y       z     vdW  Elec       q    Type
                         _______ _______ _______ _____ _____    ______ ____

>  <TORSDO>
F 13

$$$$
=
 OpenBabel11072413293D

 41 44  0  0  1  0  0  0  0  0999 V2000
  159.3510  208.5330  155.9660 C   0  0  0  0  0  2  0  0  0  0  0  0
  159.9040  209.8610  155.4900 C   0  0  0  0  0  2  0  0  0  0  0  0
  158.8950  210.5690  154.6000 C   0  0  0  0  0  2  0  0  0  0  0  0
  158.2450  212.0330  156.5240 C   0  0  0  0  0  1  0  0  0  0  0  0
  157.7330  211.1290  155.4150 C   0  0  1  0  0  3  0  0  0  0  0  0
  156.6610  211.8110  154.5390 C   0  0  2  0  0  3  0  0  0  0  0  0
  154.9460  213.6620  154.1020 C   0  0  0  0  0  2  0  0  0  0  0  0
  156.2430  214.3070  153.6510 C   0  0  1  0  0  3  0  0  0  0  0  0
  156.2350  213.2840  154.8110 C   0  0  2  0  0  3  0  0  0  0  0  0
  156.7380  213.7660  152.3000 C   0  0  1  0  0  3  0  0  0  0  0  0
  155.2740  213.9380  148.8820 F   0  0  0  0  0  0  0  0  0  0  0  0
  155.7340  213.9630  151.1810 C   0  0  0  0  0  0  0  0  0  0  0  0
  158.5260  214.1110  150.4570 C   0  0  0  0  0  2  0  0  0  0  0  0
  158.0620  214.4530  151.8950 C   0  0  2  0  0  3  0  0  0  0  0  0
  154.4850  214.4520  151.4170 F   0  0  0  0  0  0  0  0  0  0  0  0
  156.1180  213.7100  149.9220 C   0  0  0  0  0  0  0  0  0  0  0  0
  157.5260  213.2570  149.6630 C   0  0  0  0  0  2  0  0  0  0  0  0
  159.1850  214.1690  152.8850 C   0  0  0  0  0  2  0  0  0  0  0  0
  160.0170  213.1630  152.3930 O   0  0  0  0  0  1  0  0  0  0  0  0
  155.6010  210.9540  154.2270 O   0  0  0  0  0  0  0  0  0  0  0  0
  155.3370  210.2590  155.4100 C   0  0  0  0  0  1  0  0  0  0  0  0
  160.4870  207.5470  156.1560 C   0  0  0  0  0  2  0  0  0  0  0  0
  160.8490  206.8930  154.8290 C   0  0  0  0  0  2  0  0  0  0  0  0
  161.6280  207.8030  153.9990 N   0  0  0  0  0  2  0  0  0  0  0  0
  161.8160  206.6040  150.6200 C   0  0  0  0  0  0  0  0  0  0  0  0
  162.0950  203.4710  146.6270 O   0  0  0  0  0  0  0  0  0  0  0  0
  162.2110  207.0250  152.9130 C   0  0  2  0  0  3  0  0  0  0  0  0
  161.4980  205.3950  148.5660 C   0  0  0  0  0  3  0  0  0  0  0  0
  161.4700  205.4740  151.3160 C   0  0  0  0  0  0  0  0  0  0  0  0
  160.7700  208.9600  151.4490 S   0  0  0  0  0  1  0  0  0  0  0  0
  162.1250  207.7330  151.5360 C   0  0  2  0  0  3  0  0  0  0  0  0
  160.7740  203.0200  148.6580 N   0  0  0  0  0  0  0  0  0  0  0  0
  161.8460  206.5850  149.2220 C   0  0  0  0  0  0  0  0  0  0  0  0
  161.1500  204.2490  149.3120 C   0  0  0  0  0  0  0  0  0  0  0  0
  161.5240  205.6610  152.7790 C   0  0  0  0  0  2  0  0  0  0  0  0
  160.6610  201.6970  146.7270 O   0  0  0  0  0  1  0  0  0  0  0  0
  159.9910  202.0440  149.4060 C   0  0  0  0  0  1  0  0  0  0  0  0
  161.1570  202.7010  147.3060 C   0  0  0  0  0  0  0  0  0  0  0  0
  161.1380  204.3210  150.6790 N   0  0  0  0  0  0  0  0  0  0  0  0
  162.2020  207.7960  148.4300 C   0  0  0  0  0  2  0  0  0  0  0  0
  161.0800  208.5870  148.2580 F   0  0  0  0  0  0  0  0  0  0  0  0
  1 22  1  0  0  0  0
  2  1  1  0  0  0  0
  3  5  1  0  0  0  0
  3  2  1  0  0  0  0
  5  4  1  1  0  0  0
  6 20  1  1  0  0  0
  6  5  1  0  0  0  0
  7  9  1  0  0  0  0
  8  7  1  6  0  0  0
  8  9  1  0  0  0  0
  9  6  1  6  0  0  0
 10 12  1  6  0  0  0
 10  8  1  0  0  0  0
 11 16  1  0  0  0  0
 12 15  1  0  0  0  0
 13 14  1  0  0  0  0
 14 10  1  0  0  0  0
 14 18  1  1  0  0  0
 16 12  2  0  0  0  0
 17 16  1  0  0  0  0
 17 13  1  0  0  0  0
 19 18  1  0  0  0  0
 20 21  1  0  0  0  0
 23 22  1  0  0  0  0
 24 23  1  0  0  0  0
 25 29  1  0  0  0  0
 25 31  1  0  0  0  0
 26 38  2  0  0  0  0
 27 24  1  1  0  0  0
 28 33  1  0  0  0  0
 28 34  2  0  0  0  0
 29 35  1  0  0  0  0
 31 30  1  1  0  0  0
 31 27  1  0  0  0  0
 32 34  1  0  0  0  0
 32 37  1  0  0  0  0
 33 25  2  0  0  0  0
 34 39  1  0  0  0  0
 35 27  1  0  0  0  0
 36 38  1  0  0  0  0
 38 32  1  0  0  0  0
 39 29  2  0  0  0  0
 40 33  1  0  0  0  0
 41 40  1  0  0  0  0
M  END
>  <MODEL>
2

>  <REMARK>
 VINA RESULT:      -5.8      2.367      3.128
  Name = 
  13 active torsions:
  status: ('A' for Active; 'I' for Inactive)
    1  A    between atoms: C_3  and  C_26
    2  A    between atoms: C_4  and  C_25
    3  A    between atoms: C_5  and  N_33
    4  A    between atoms: C_5  and  C_41
    5  A    between atoms: C_6  and  C_17
    6  A    between atoms: C_10  and  N_33
    7  A    between atoms: O_16  and  C_22
    8  A    between atoms: C_21  and  C_38
    9  A    between atoms: C_21  and  C_40
   10  A    between atoms: C_22  and  C_32
   11  A    between atoms: C_22  and  C_36
   12  A    between atoms: C_32  and  C_40
   13  A    between atoms: C_38  and  C_41
                            x       y       z     vdW  Elec       q    Type
                         _______ _______ _______ _____ _____    ______ ____

>  <TORSDO>
F 13

$$$$
=
 OpenBabel11072413293D

 41 44  0  0  1  0  0  0  0  0999 V2000
  160.6880  208.1440  152.7160 C   0  0  0  0  0  2  0  0  0  0  0  0
  161.5700  209.3740  152.7800 C   0  0  0  0  0  2  0  0  0  0  0  0
  160.8170  210.5370  153.4080 C   0  0  0  0  0  2  0  0  0  0  0  0
  161.9650  210.3350  155.6230 C   0  0  0  0  0  1  0  0  0  0  0  0
  160.6250  210.3300  154.9070 C   0  0  1  0  0  3  0  0  0  0  0  0
  159.6170  211.3220  155.5240 C   0  0  2  0  0  3  0  0  0  0  0  0
  159.1970  213.3620  157.0140 C   0  0  0  0  0  2  0  0  0  0  0  0
  159.1310  213.9580  155.6210 C   0  0  1  0  0  3  0  0  0  0  0  0
  160.0620  212.7610  155.9210 C   0  0  2  0  0  3  0  0  0  0  0  0
  157.8260  213.6090  154.8860 C   0  0  1  0  0  3  0  0  0  0  0  0
  154.2630  214.2950  155.7140 F   0  0  0  0  0  0  0  0  0  0  0  0
  156.5860  213.9810  155.6750 C   0  0  0  0  0  0  0  0  0  0  0  0
  156.4040  214.1860  152.8000 C   0  0  0  0  0  2  0  0  0  0  0  0
  157.7700  214.3260  153.5170 C   0  0  2  0  0  3  0  0  0  0  0  0
  156.6630  214.4530  156.9500 F   0  0  0  0  0  0  0  0  0  0  0  0
  155.3940  213.9060  155.0680 C   0  0  0  0  0  0  0  0  0  0  0  0
  155.3280  213.4720  153.6320 C   0  0  0  0  0  2  0  0  0  0  0  0
  158.8930  213.8830  152.5880 C   0  0  0  0  0  2  0  0  0  0  0  0
  158.3900  213.6350  151.3100 O   0  0  0  0  0  1  0  0  0  0  0  0
  158.7600  210.7110  156.4450 O   0  0  0  0  0  0  0  0  0  0  0  0
  157.6110  210.3960  155.7150 C   0  0  0  0  0  1  0  0  0  0  0  0
  161.1970  207.1010  153.6920 C   0  0  0  0  0  2  0  0  0  0  0  0
  161.9380  205.9960  152.9490 C   0  0  0  0  0  2  0  0  0  0  0  0
  161.1890  204.7470  152.9990 N   0  0  0  0  0  2  0  0  0  0  0  0
  160.9240  203.5100  149.6390 C   0  0  0  0  0  0  0  0  0  0  0  0
  160.2860  203.3500  144.5990 O   0  0  0  0  0  1  0  0  0  0  0  0
  160.5270  204.5750  151.7120 C   0  0  2  0  0  3  0  0  0  0  0  0
  161.1150  203.1850  147.2640 C   0  0  0  0  0  3  0  0  0  0  0  0
  161.0660  204.8600  149.4460 C   0  0  0  0  0  0  0  0  0  0  0  0
  162.3010  202.3800  151.6790 S   0  0  0  0  0  1  0  0  0  0  0  0
  160.7670  203.1790  151.0800 C   0  0  2  0  0  3  0  0  0  0  0  0
  161.4530  205.1610  145.7960 N   0  0  0  0  0  0  0  0  0  0  0  0
  160.9380  202.6400  148.5440 C   0  0  0  0  0  0  0  0  0  0  0  0
  161.2540  204.5800  147.1000 C   0  0  0  0  0  0  0  0  0  0  0  0
  160.9940  205.6300  150.7030 C   0  0  0  0  0  2  0  0  0  0  0  0
  161.4190  204.9720  143.4600 O   0  0  0  0  0  0  0  0  0  0  0  0
  162.0470  206.4890  145.7070 C   0  0  0  0  0  1  0  0  0  0  0  0
  161.0690  204.5000  144.5740 C   0  0  0  0  0  0  0  0  0  0  0  0
  161.2330  205.3870  148.2060 N   0  0  0  0  0  0  0  0  0  0  0  0
  160.8020  201.1650  148.7130 C   0  0  0  0  0  2  0  0  0  0  0  0
  159.7570  200.8900  149.5760 F   0  0  0  0  0  0  0  0  0  0  0  0
  1  2  1  0  0  0  0
  1 22  1  0  0  0  0
  2  3  1  0  0  0  0
  3  5  1  0  0  0  0
  5  6  1  0  0  0  0
  5  4  1  1  0  0  0
  6 20  1  1  0  0  0
  8  9  1  0  0  0  0
  8  7  1  1  0  0  0
  9  6  1  6  0  0  0
  9  7  1  0  0  0  0
 10  8  1  0  0  0  0
 10 12  1  1  0  0  0
 12 15  1  0  0  0  0
 13 14  1  0  0  0  0
 13 17  1  0  0  0  0
 14 18  1  6  0  0  0
 14 10  1  0  0  0  0
 16 12  2  0  0  0  0
 16 11  1  0  0  0  0
 17 16  1  0  0  0  0
 19 18  1  0  0  0  0
 21 20  1  0  0  0  0
 23 24  1  0  0  0  0
 23 22  1  0  0  0  0
 25 31  1  0  0  0  0
 27 24  1  1  0  0  0
 28 33  1  0  0  0  0
 29 25  1  0  0  0  0
 29 35  1  0  0  0  0
 31 30  1  1  0  0  0
 31 27  1  0  0  0  0
 32 34  1  0  0  0  0
 33 40  1  0  0  0  0
 33 25  2  0  0  0  0
 34 28  2  0  0  0  0
 34 39  1  0  0  0  0
 35 27  1  0  0  0  0
 36 38  2  0  0  0  0
 37 32  1  0  0  0  0
 38 26  1  0  0  0  0
 38 32  1  0  0  0  0
 39 29  2  0  0  0  0
 40 41  1  0  0  0  0
M  END
>  <MODEL>
3

>  <REMARK>
 VINA RESULT:      -5.8      1.734      2.338
  Name = 
  13 active torsions:
  status: ('A' for Active; 'I' for Inactive)
    1  A    between atoms: C_3  and  C_26
    2  A    between atoms: C_4  and  C_25
    3  A    between atoms: C_5  and  N_33
    4  A    between atoms: C_5  and  C_41
    5  A    between atoms: C_6  and  C_17
    6  A    between atoms: C_10  and  N_33
    7  A    between atoms: O_16  and  C_22
    8  A    between atoms: C_21  and  C_38
    9  A    between atoms: C_21  and  C_40
   10  A    between atoms: C_22  and  C_32
   11  A    between atoms: C_22  and  C_36
   12  A    between atoms: C_32  and  C_40
   13  A    between atoms: C_38  and  C_41
                            x       y       z     vdW  Elec       q    Type
                         _______ _______ _______ _____ _____    ______ ____

>  <TORSDO>
F 13

$$$$
=
 OpenBabel11072413293D

 41 44  0  0  1  0  0  0  0  0999 V2000
  160.0880  206.7740  155.2970 C   0  0  0  0  0  2  0  0  0  0  0  0
  160.8550  206.8930  153.9970 C   0  0  0  0  0  2  0  0  0  0  0  0
  161.0280  205.5260  153.3540 C   0  0  0  0  0  2  0  0  0  0  0  0
  162.7520  206.4810  151.8110 C   0  0  0  0  0  1  0  0  0  0  0  0
  161.4850  205.6480  151.9040 C   0  0  1  0  0  3  0  0  0  0  0  0
  161.6190  204.2800  151.2010 C   0  0  2  0  0  3  0  0  0  0  0  0
  160.7300  202.3410  149.7840 C   0  0  0  0  0  2  0  0  0  0  0  0
  160.1800  203.5550  149.0580 C   0  0  1  0  0  3  0  0  0  0  0  0
  160.3710  203.5760  150.5920 C   0  0  2  0  0  3  0  0  0  0  0  0
  161.2540  204.3020  148.2500 C   0  0  1  0  0  3  0  0  0  0  0  0
  162.7500  203.6290  144.9090 F   0  0  0  0  0  0  0  0  0  0  0  0
  161.6470  203.5780  146.9770 C   0  0  0  0  0  0  0  0  0  0  0  0
  161.6990  206.4640  146.8950 C   0  0  0  0  0  2  0  0  0  0  0  0
  160.7600  205.7180  147.8750 C   0  0  2  0  0  3  0  0  0  0  0  0
  161.1710  202.3360  146.6840 F   0  0  0  0  0  0  0  0  0  0  0  0
  162.4290  204.2130  146.0940 C   0  0  0  0  0  0  0  0  0  0  0  0
  162.8750  205.6170  146.3850 C   0  0  0  0  0  2  0  0  0  0  0  0
  160.4970  206.5800  149.1030 C   0  0  0  0  0  2  0  0  0  0  0  0
  161.1810  207.7920  148.9940 O   0  0  0  0  0  1  0  0  0  0  0  0
  162.4960  203.4190  151.8690 O   0  0  0  0  0  0  0  0  0  0  0  0
  161.8290  202.1920  151.9210 C   0  0  0  0  0  1  0  0  0  0  0  0
  160.2490  208.0490  156.1030 C   0  0  0  0  0  2  0  0  0  0  0  0
  159.7330  209.2440  155.3120 C   0  0  0  0  0  2  0  0  0  0  0  0
  160.0210  210.4900  156.0110 N   0  0  0  0  0  2  0  0  0  0  0  0
  159.7190  212.4160  152.9960 C   0  0  0  0  0  0  0  0  0  0  0  0
  160.7530  214.4530  148.4550 O   0  0  0  0  0  1  0  0  0  0  0  0
  160.4750  211.4600  155.0220 C   0  0  2  0  0  3  0  0  0  0  0  0
  159.7190  213.1640  150.7100 C   0  0  0  0  0  3  0  0  0  0  0  0
  160.7360  211.5490  152.6910 C   0  0  0  0  0  0  0  0  0  0  0  0
  157.6950  211.4880  154.5370 S   0  0  0  0  0  1  0  0  0  0  0  0
  159.3250  212.3130  154.4250 C   0  0  2  0  0  3  0  0  0  0  0  0
  161.3150  212.1440  149.1030 N   0  0  0  0  0  0  0  0  0  0  0  0
  159.1920  213.2530  152.0070 C   0  0  0  0  0  0  0  0  0  0  0  0
  160.7680  212.2620  150.4320 C   0  0  0  0  0  0  0  0  0  0  0  0
  161.1930  210.7680  153.8570 C   0  0  0  0  0  2  0  0  0  0  0  0
  161.5490  212.9630  146.9200 O   0  0  0  0  0  0  0  0  0  0  0  0
  162.0320  210.9240  148.7510 C   0  0  0  0  0  1  0  0  0  0  0  0
  161.2070  213.1850  148.1120 C   0  0  0  0  0  0  0  0  0  0  0  0
  161.2490  211.4660  151.4360 N   0  0  0  0  0  0  0  0  0  0  0  0
  158.0760  214.1980  152.2940 C   0  0  0  0  0  2  0  0  0  0  0  0
  157.0140  213.9370  151.4450 F   0  0  0  0  0  0  0  0  0  0  0  0
  1 22  1  0  0  0  0
  2  1  1  0  0  0  0
  3  2  1  0  0  0  0
  5  4  1  1  0  0  0
  5  3  1  0  0  0  0
  6 20  1  1  0  0  0
  6  5  1  0  0  0  0
  7  9  1  0  0  0  0
  8  7  1  6  0  0  0
  8  9  1  0  0  0  0
  9  6  1  6  0  0  0
 10 12  1  6  0  0  0
 10  8  1  0  0  0  0
 11 16  1  0  0  0  0
 13 14  1  0  0  0  0
 14 10  1  0  0  0  0
 14 18  1  1  0  0  0
 15 12  1  0  0  0  0
 16 17  1  0  0  0  0
 16 12  2  0  0  0  0
 17 13  1  0  0  0  0
 19 18  1  0  0  0  0
 20 21  1  0  0  0  0
 23 24  1  0  0  0  0
 23 22  1  0  0  0  0
 25 31  1  0  0  0  0
 27 24  1  1  0  0  0
 28 33  1  0  0  0  0
 29 25  1  0  0  0  0
 29 35  1  0  0  0  0
 31 30  1  6  0  0  0
 31 27  1  0  0  0  0
 32 34  1  0  0  0  0
 33 40  1  0  0  0  0
 33 25  2  0  0  0  0
 34 28  2  0  0  0  0
 34 39  1  0  0  0  0
 35 27  1  0  0  0  0
 36 38  2  0  0  0  0
 37 32  1  0  0  0  0
 38 26  1  0  0  0  0
 38 32  1  0  0  0  0
 39 29  2  0  0  0  0
 41 40  1  0  0  0  0
M  END
>  <MODEL>
4

>  <REMARK>
 VINA RESULT:      -5.3      3.468      9.486
  Name = 
  13 active torsions:
  status: ('A' for Active; 'I' for Inactive)
    1  A    between atoms: C_3  and  C_26
    2  A    between atoms: C_4  and  C_25
    3  A    between atoms: C_5  and  N_33
    4  A    between atoms: C_5  and  C_41
    5  A    between atoms: C_6  and  C_17
    6  A    between atoms: C_10  and  N_33
    7  A    between atoms: O_16  and  C_22
    8  A    between atoms: C_21  and  C_38
    9  A    between atoms: C_21  and  C_40
   10  A    between atoms: C_22  and  C_32
   11  A    between atoms: C_22  and  C_36
   12  A    between atoms: C_32  and  C_40
   13  A    between atoms: C_38  and  C_41
                            x       y       z     vdW  Elec       q    Type
                         _______ _______ _______ _____ _____    ______ ____

>  <TORSDO>
F 13

$$$$
=
 OpenBabel11072413293D

 41 44  0  0  1  0  0  0  0  0999 V2000
  162.7260  210.0810  152.7190 C   0  0  0  0  0  2  0  0  0  0  0  0
  161.7220  210.8160  153.5830 C   0  0  0  0  0  2  0  0  0  0  0  0
  160.4900  211.1850  152.7720 C   0  0  0  0  0  2  0  0  0  0  0  0
  159.5270  209.7800  154.6060 C   0  0  0  0  0  1  0  0  0  0  0  0
  159.2100  210.7420  153.4730 C   0  0  1  0  0  3  0  0  0  0  0  0
  158.3360  211.9300  153.9280 C   0  0  2  0  0  3  0  0  0  0  0  0
  157.8810  214.4480  153.8300 C   0  0  0  0  0  2  0  0  0  0  0  0
  158.9350  214.2650  152.7540 C   0  0  1  0  0  3  0  0  0  0  0  0
  158.9310  213.3660  154.0120 C   0  0  2  0  0  3  0  0  0  0  0  0
  158.3760  213.6140  151.4780 C   0  0  1  0  0  3  0  0  0  0  0  0
  154.9850  213.6890  149.9460 F   0  0  0  0  0  0  0  0  0  0  0  0
  156.8810  213.8150  151.3180 C   0  0  0  0  0  0  0  0  0  0  0  0
  158.4450  213.7290  148.8920 C   0  0  0  0  0  2  0  0  0  0  0  0
  159.0830  214.1850  150.2270 C   0  0  2  0  0  3  0  0  0  0  0  0
  156.1300  214.4020  152.2910 F   0  0  0  0  0  0  0  0  0  0  0  0
  156.3080  213.4640  150.1590 C   0  0  0  0  0  0  0  0  0  0  0  0
  157.1620  212.9010  149.0600 C   0  0  0  0  0  2  0  0  0  0  0  0
  160.5760  213.8820  150.2210 C   0  0  0  0  0  2  0  0  0  0  0  0
  160.8740  212.9550  149.2200 O   0  0  0  0  0  1  0  0  0  0  0  0
  157.4890  211.5950  154.9900 O   0  0  0  0  0  0  0  0  0  0  0  0
  156.2160  211.5020  154.4210 C   0  0  0  0  0  1  0  0  0  0  0  0
  162.3740  210.2700  151.2560 C   0  0  0  0  0  2  0  0  0  0  0  0
  162.0390  208.9300  150.6130 C   0  0  0  0  0  2  0  0  0  0  0  0
  161.6100  207.9670  151.6180 N   0  0  0  0  0  2  0  0  0  0  0  0
  161.0210  204.6850  150.2850 C   0  0  0  0  0  0  0  0  0  0  0  0
  159.8340  200.9320  147.0690 O   0  0  0  0  0  1  0  0  0  0  0  0
  160.8160  206.9460  150.9450 C   0  0  2  0  0  3  0  0  0  0  0  0
  160.9590  202.7190  148.9010 C   0  0  0  0  0  3  0  0  0  0  0  0
  161.0890  205.4560  149.1530 C   0  0  0  0  0  0  0  0  0  0  0  0
  162.6570  205.3290  152.3440 S   0  0  0  0  0  1  0  0  0  0  0  0
  161.0370  205.5210  151.5140 C   0  0  2  0  0  3  0  0  0  0  0  0
  161.0570  202.9740  146.4320 N   0  0  0  0  0  0  0  0  0  0  0  0
  160.9450  203.2930  150.1810 C   0  0  0  0  0  0  0  0  0  0  0  0
  161.0260  203.5430  147.7560 C   0  0  0  0  0  0  0  0  0  0  0  0
  161.1290  206.9020  149.4450 C   0  0  0  0  0  2  0  0  0  0  0  0
  160.7710  201.1420  144.9980 O   0  0  0  0  0  0  0  0  0  0  0  0
  161.5870  203.7810  145.3390 C   0  0  0  0  0  1  0  0  0  0  0  0
  160.5650  201.6530  146.1310 C   0  0  0  0  0  0  0  0  0  0  0  0
  161.0970  204.9010  147.9140 N   0  0  0  0  0  0  0  0  0  0  0  0
  160.8850  202.4190  151.3870 C   0  0  0  0  0  2  0  0  0  0  0  0
  161.8290  201.4130  151.2800 F   0  0  0  0  0  0  0  0  0  0  0  0
  1  2  1  0  0  0  0
  3  5  1  0  0  0  0
  3  2  1  0  0  0  0
  5  6  1  0  0  0  0
  5  4  1  1  0  0  0
  6 20  1  1  0  0  0
  7  9  1  0  0  0  0
  8  7  1  1  0  0  0
  8  9  1  0  0  0  0
  9  6  1  6  0  0  0
 10 12  1  6  0  0  0
 10  8  1  0  0  0  0
 11 16  1  0  0  0  0
 12 15  1  0  0  0  0
 13 17  1  0  0  0  0
 13 14  1  0  0  0  0
 14 18  1  6  0  0  0
 14 10  1  0  0  0  0
 16 12  2  0  0  0  0
 17 16  1  0  0  0  0
 19 18  1  0  0  0  0
 21 20  1  0  0  0  0
 22  1  1  0  0  0  0
 23 22  1  0  0  0  0
 23 24  1  0  0  0  0
 25 31  1  0  0  0  0
 27 31  1  0  0  0  0
 27 24  1  1  0  0  0
 28 33  2  0  0  0  0
 29 35  1  0  0  0  0
 29 25  2  0  0  0  0
 31 30  1  6  0  0  0
 32 34  1  0  0  0  0
 33 25  1  0  0  0  0
 33 40  1  0  0  0  0
 34 39  2  0  0  0  0
 34 28  1  0  0  0  0
 35 27  1  0  0  0  0
 36 38  2  0  0  0  0
 37 32  1  0  0  0  0
 38 32  1  0  0  0  0
 38 26  1  0  0  0  0
 39 29  1  0  0  0  0
 41 40  1  0  0  0  0
M  END
>  <MODEL>
5

>  <REMARK>
 VINA RESULT:      -5.1      1.649      2.041
  Name = 
  13 active torsions:
  status: ('A' for Active; 'I' for Inactive)
    1  A    between atoms: C_3  and  C_26
    2  A    between atoms: C_4  and  C_25
    3  A    between atoms: C_5  and  N_33
    4  A    between atoms: C_5  and  C_41
    5  A    between atoms: C_6  and  C_17
    6  A    between atoms: C_10  and  N_33
    7  A    between atoms: O_16  and  C_22
    8  A    between atoms: C_21  and  C_38
    9  A    between atoms: C_21  and  C_40
   10  A    between atoms: C_22  and  C_32
   11  A    between atoms: C_22  and  C_36
   12  A    between atoms: C_32  and  C_40
   13  A    between atoms: C_38  and  C_41
                            x       y       z     vdW  Elec       q    Type
                         _______ _______ _______ _____ _____    ______ ____

>  <TORSDO>
F 13

$$$$
=
 OpenBabel11072413293D

 41 44  0  0  1  0  0  0  0  0999 V2000
  160.1270  207.6960  154.5020 C   0  0  0  0  0  2  0  0  0  0  0  0
  159.9780  208.4590  155.8030 C   0  0  0  0  0  2  0  0  0  0  0  0
  158.5160  208.7820  156.0650 C   0  0  0  0  0  2  0  0  0  0  0  0
  159.4430  210.8150  157.1930 C   0  0  0  0  0  1  0  0  0  0  0  0
  158.3160  210.2700  156.3320 C   0  0  1  0  0  3  0  0  0  0  0  0
  158.1060  211.0880  155.0390 C   0  0  2  0  0  3  0  0  0  0  0  0
  158.5800  213.0690  153.4870 C   0  0  0  0  0  2  0  0  0  0  0  0
  159.9650  212.7170  153.9980 C   0  0  1  0  0  3  0  0  0  0  0  0
  158.7210  212.5110  154.8930 C   0  0  2  0  0  3  0  0  0  0  0  0
  160.5300  211.4410  153.3530 C   0  0  1  0  0  3  0  0  0  0  0  0
  161.5190  210.6720  149.8480 F   0  0  0  0  0  0  0  0  0  0  0  0
  160.6620  211.5490  151.8460 C   0  0  0  0  0  0  0  0  0  0  0  0
  162.6440  209.9520  153.2090 C   0  0  0  0  0  2  0  0  0  0  0  0
  161.9190  211.1080  153.9430 C   0  0  2  0  0  3  0  0  0  0  0  0
  160.1950  212.6310  151.1620 F   0  0  0  0  0  0  0  0  0  0  0  0
  161.3170  210.5820  151.1890 C   0  0  0  0  0  0  0  0  0  0  0  0
  161.9070  209.4390  151.9630 C   0  0  0  0  0  2  0  0  0  0  0  0
  161.8560  210.8170  155.4370 C   0  0  0  0  0  2  0  0  0  0  0  0
  163.1450  210.6840  155.9560 O   0  0  0  0  0  1  0  0  0  0  0  0
  156.8080  210.9670  154.5340 O   0  0  0  0  0  0  0  0  0  0  0  0
  155.9730  211.1270  155.6430 C   0  0  0  0  0  1  0  0  0  0  0  0
  161.1860  206.6210  154.6610 C   0  0  0  0  0  2  0  0  0  0  0  0
  161.5840  206.0650  153.3000 C   0  0  0  0  0  2  0  0  0  0  0  0
  161.1820  204.6700  153.1720 N   0  0  0  0  0  2  0  0  0  0  0  0
  160.9090  203.4510  149.8060 C   0  0  0  0  0  0  0  0  0  0  0  0
  160.2890  203.3230  144.7630 O   0  0  0  0  0  1  0  0  0  0  0  0
  160.5220  204.5150  151.8820 C   0  0  2  0  0  3  0  0  0  0  0  0
  161.1040  203.1330  147.4300 C   0  0  0  0  0  3  0  0  0  0  0  0
  161.0750  204.7990  149.6190 C   0  0  0  0  0  0  0  0  0  0  0  0
  162.2570  202.2900  151.8470 S   0  0  0  0  0  1  0  0  0  0  0  0
  160.7400  203.1180  151.2450 C   0  0  2  0  0  3  0  0  0  0  0  0
  161.4820  205.1080  145.9720 N   0  0  0  0  0  0  0  0  0  0  0  0
  160.9110  202.5860  148.7080 C   0  0  0  0  0  0  0  0  0  0  0  0
  161.2680  204.5260  147.2730 C   0  0  0  0  0  0  0  0  0  0  0  0
  161.0120  205.5660  150.8790 C   0  0  0  0  0  2  0  0  0  0  0  0
  161.4550  204.9300  143.6350 O   0  0  0  0  0  0  0  0  0  0  0  0
  162.1000  206.4260  145.8910 C   0  0  0  0  0  1  0  0  0  0  0  0
  161.0910  204.4590  144.7460 C   0  0  0  0  0  0  0  0  0  0  0  0
  161.2560  205.3290  148.3820 N   0  0  0  0  0  0  0  0  0  0  0  0
  160.7490  201.1130  148.8700 C   0  0  0  0  0  2  0  0  0  0  0  0
  161.4810  200.4540  147.8980 F   0  0  0  0  0  0  0  0  0  0  0  0
  1 22  1  0  0  0  0
  1  2  1  0  0  0  0
  2  3  1  0  0  0  0
  3  5  1  0  0  0  0
  5  4  1  6  0  0  0
  6 20  1  1  0  0  0
  6  5  1  0  0  0  0
  7  9  1  0  0  0  0
  8  7  1  6  0  0  0
  8  9  1  0  0  0  0
  9  6  1  6  0  0  0
 10 12  1  6  0  0  0
 10 14  1  0  0  0  0
 10  8  1  0  0  0  0
 11 16  1  0  0  0  0
 13 14  1  0  0  0  0
 14 18  1  1  0  0  0
 15 12  1  0  0  0  0
 16 12  2  0  0  0  0
 16 17  1  0  0  0  0
 17 13  1  0  0  0  0
 18 19  1  0  0  0  0
 20 21  1  0  0  0  0
 23 22  1  0  0  0  0
 24 23  1  0  0  0  0
 25 31  1  0  0  0  0
 27 24  1  1  0  0  0
 28 33  1  0  0  0  0
 29 25  1  0  0  0  0
 29 35  1  0  0  0  0
 31 30  1  1  0  0  0
 31 27  1  0  0  0  0
 32 34  1  0  0  0  0
 33 40  1  0  0  0  0
 33 25  2  0  0  0  0
 34 28  2  0  0  0  0
 34 39  1  0  0  0  0
 35 27  1  0  0  0  0
 36 38  2  0  0  0  0
 37 32  1  0  0  0  0
 38 26  1  0  0  0  0
 38 32  1  0  0  0  0
 39 29  2  0  0  0  0
 41 40  1  0  0  0  0
M  END
>  <MODEL>
6

>  <REMARK>
 VINA RESULT:      -4.8      2.343      3.348
  Name = 
  13 active torsions:
  status: ('A' for Active; 'I' for Inactive)
    1  A    between atoms: C_3  and  C_26
    2  A    between atoms: C_4  and  C_25
    3  A    between atoms: C_5  and  N_33
    4  A    between atoms: C_5  and  C_41
    5  A    between atoms: C_6  and  C_17
    6  A    between atoms: C_10  and  N_33
    7  A    between atoms: O_16  and  C_22
    8  A    between atoms: C_21  and  C_38
    9  A    between atoms: C_21  and  C_40
   10  A    between atoms: C_22  and  C_32
   11  A    between atoms: C_22  and  C_36
   12  A    between atoms: C_32  and  C_40
   13  A    between atoms: C_38  and  C_41
                            x       y       z     vdW  Elec       q    Type
                         _______ _______ _______ _____ _____    ______ ____

>  <TORSDO>
F 13

$$$$
=
 OpenBabel11072413293D

 41 44  0  0  1  0  0  0  0  0999 V2000
  160.7290  206.6260  149.2620 C   0  0  0  0  0  2  0  0  0  0  0  0
  160.9830  205.5780  150.3260 C   0  0  0  0  0  2  0  0  0  0  0  0
  160.1020  204.3600  150.0950 C   0  0  0  0  0  2  0  0  0  0  0  0
  161.1960  202.8440  151.7600 C   0  0  0  0  0  1  0  0  0  0  0  0
  160.8830  203.0650  150.2890 C   0  0  1  0  0  3  0  0  0  0  0  0
  160.1930  201.8460  149.6390 C   0  0  2  0  0  3  0  0  0  0  0  0
  162.4290  201.2940  148.5200 C   0  0  0  0  0  2  0  0  0  0  0  0
  161.4490  201.1640  147.3700 C   0  0  1  0  0  3  0  0  0  0  0  0
  161.0180  200.8160  148.8130 C   0  0  2  0  0  3  0  0  0  0  0  0
  160.9610  202.5250  146.8480 C   0  0  1  0  0  3  0  0  0  0  0  0
  162.6340  205.8450  146.6590 F   0  0  0  0  0  0  0  0  0  0  0  0
  161.9550  203.6440  147.0950 C   0  0  0  0  0  0  0  0  0  0  0  0
  160.3710  203.8260  144.6870 C   0  0  0  0  0  2  0  0  0  0  0  0
  160.6760  202.4500  145.3300 C   0  0  2  0  0  3  0  0  0  0  0  0
  163.0890  203.4460  147.8220 F   0  0  0  0  0  0  0  0  0  0  0  0
  161.7360  204.8350  146.5210 C   0  0  0  0  0  0  0  0  0  0  0  0
  160.5290  205.0160  145.6460 C   0  0  0  0  0  2  0  0  0  0  0  0
  159.5640  201.4630  145.0010 C   0  0  0  0  0  2  0  0  0  0  0  0
  160.0780  200.3780  144.2890 O   0  0  0  0  0  1  0  0  0  0  0  0
  158.9520  202.1700  149.0810 O   0  0  0  0  0  0  0  0  0  0  0  0
  158.2610  200.9570  149.0100 C   0  0  0  0  0  1  0  0  0  0  0  0
  161.7850  207.7100  149.3520 C   0  0  0  0  0  2  0  0  0  0  0  0
  161.4480  208.6860  150.4720 C   0  0  0  0  0  2  0  0  0  0  0  0
  162.3270  208.4850  151.6170 N   0  0  0  0  0  2  0  0  0  0  0  0
  160.3750  209.7020  154.3740 C   0  0  0  0  0  0  0  0  0  0  0  0
  157.4570  212.6990  157.2600 O   0  0  0  0  0  1  0  0  0  0  0  0
  161.9600  209.4600  152.6360 C   0  0  2  0  0  3  0  0  0  0  0  0
  158.6650  210.6770  155.7550 C   0  0  0  0  0  3  0  0  0  0  0  0
  160.0090  210.5450  153.3570 C   0  0  0  0  0  0  0  0  0  0  0  0
  160.8570  207.1120  153.7460 S   0  0  0  0  0  1  0  0  0  0  0  0
  161.4950  208.8130  153.9660 C   0  0  2  0  0  3  0  0  0  0  0  0
  157.2320  212.4770  154.8170 N   0  0  0  0  0  0  0  0  0  0  0  0
  159.7130  209.7560  155.6040 C   0  0  0  0  0  0  0  0  0  0  0  0
  158.3150  211.5330  154.6890 C   0  0  0  0  0  0  0  0  0  0  0  0
  160.8330  210.3760  152.1450 C   0  0  0  0  0  2  0  0  0  0  0  0
  155.6990  213.6440  156.1500 O   0  0  0  0  0  0  0  0  0  0  0  0
  156.6070  212.9880  153.6030 C   0  0  0  0  0  1  0  0  0  0  0  0
  156.7540  212.9580  156.0880 C   0  0  0  0  0  0  0  0  0  0  0  0
  158.9970  211.4400  153.5050 N   0  0  0  0  0  0  0  0  0  0  0  0
  160.0710  208.8460  156.7290 C   0  0  0  0  0  2  0  0  0  0  0  0
  159.4370  207.6280  156.5620 F   0  0  0  0  0  0  0  0  0  0  0  0
  1 22  1  0  0  0  0
  1  2  1  0  0  0  0
  3  5  1  0  0  0  0
  3  2  1  0  0  0  0
  5  4  1  1  0  0  0
  6 20  1  6  0  0  0
  6  5  1  0  0  0  0
  7  9  1  0  0  0  0
  8  7  1  1  0  0  0
  8  9  1  0  0  0  0
  9  6  1  1  0  0  0
 10 12  1  6  0  0  0
 10  8  1  0  0  0  0
 12 15  1  0  0  0  0
 13 14  1  0  0  0  0
 13 17  1  0  0  0  0
 14 18  1  1  0  0  0
 14 10  1  0  0  0  0
 16 11  1  0  0  0  0
 16 12  2  0  0  0  0
 17 16  1  0  0  0  0
 19 18  1  0  0  0  0
 21 20  1  0  0  0  0
 22 23  1  0  0  0  0
 23 24  1  0  0  0  0
 25 33  1  0  0  0  0
 27 24  1  6  0  0  0
 27 31  1  0  0  0  0
 29 39  1  0  0  0  0
 29 25  2  0  0  0  0
 31 30  1  6  0  0  0
 31 25  1  0  0  0  0
 32 38  1  0  0  0  0
 33 28  2  0  0  0  0
 33 40  1  0  0  0  0
 34 32  1  0  0  0  0
 34 28  1  0  0  0  0
 35 27  1  0  0  0  0
 35 29  1  0  0  0  0
 37 32  1  0  0  0  0
 38 36  2  0  0  0  0
 38 26  1  0  0  0  0
 39 34  2  0  0  0  0
 41 40  1  0  0  0  0
M  END
>  <MODEL>
7

>  <REMARK>
 VINA RESULT:      -4.7      3.660     10.902
  Name = 
  13 active torsions:
  status: ('A' for Active; 'I' for Inactive)
    1  A    between atoms: C_3  and  C_26
    2  A    between atoms: C_4  and  C_25
    3  A    between atoms: C_5  and  N_33
    4  A    between atoms: C_5  and  C_41
    5  A    between atoms: C_6  and  C_17
    6  A    between atoms: C_10  and  N_33
    7  A    between atoms: O_16  and  C_22
    8  A    between atoms: C_21  and  C_38
    9  A    between atoms: C_21  and  C_40
   10  A    between atoms: C_22  and  C_32
   11  A    between atoms: C_22  and  C_36
   12  A    between atoms: C_32  and  C_40
   13  A    between atoms: C_38  and  C_41
                            x       y       z     vdW  Elec       q    Type
                         _______ _______ _______ _____ _____    ______ ____

>  <TORSDO>
F 13

$$$$
=
 OpenBabel11072413293D

 41 44  0  0  1  0  0  0  0  0999 V2000
  161.2750  211.0170  152.0410 C   0  0  0  0  0  2  0  0  0  0  0  0
  159.8220  211.4330  151.9330 C   0  0  0  0  0  2  0  0  0  0  0  0
  159.0340  210.9280  153.1320 C   0  0  0  0  0  2  0  0  0  0  0  0
  158.7060  213.3850  153.4760 C   0  0  0  0  0  1  0  0  0  0  0  0
  158.8190  212.0330  154.1600 C   0  0  1  0  0  3  0  0  0  0  0  0
  157.6360  211.7460  155.1100 C   0  0  2  0  0  3  0  0  0  0  0  0
  158.9270  212.7310  157.0900 C   0  0  0  0  0  2  0  0  0  0  0  0
  159.1560  211.2410  157.2610 C   0  0  1  0  0  3  0  0  0  0  0  0
  157.8360  211.7690  156.6540 C   0  0  2  0  0  3  0  0  0  0  0  0
  160.1660  210.6750  156.2480 C   0  0  1  0  0  3  0  0  0  0  0  0
  163.8310  211.1880  155.8600 F   0  0  0  0  0  0  0  0  0  0  0  0
  161.5510  211.2730  156.3970 C   0  0  0  0  0  0  0  0  0  0  0  0
  161.4140  208.5140  155.5540 C   0  0  0  0  0  2  0  0  0  0  0  0
  160.2770  209.1400  156.3990 C   0  0  2  0  0  3  0  0  0  0  0  0
  161.8000  212.2960  157.2610 F   0  0  0  0  0  0  0  0  0  0  0  0
  162.5620  210.7290  155.7060 C   0  0  0  0  0  0  0  0  0  0  0  0
  162.2930  209.5420  154.8260 C   0  0  0  0  0  2  0  0  0  0  0  0
  158.9600  208.4350  156.1010 C   0  0  0  0  0  2  0  0  0  0  0  0
  159.1730  207.0650  155.9390 O   0  0  0  0  0  1  0  0  0  0  0  0
  156.8220  210.7060  154.6510 O   0  0  0  0  0  0  0  0  0  0  0  0
  155.5320  211.0460  155.0660 C   0  0  0  0  0  1  0  0  0  0  0  0
  161.8600  210.8460  150.6520 C   0  0  0  0  0  2  0  0  0  0  0  0
  162.2160  209.3850  150.4030 C   0  0  0  0  0  2  0  0  0  0  0  0
  161.7370  208.5430  151.4920 N   0  0  0  0  0  2  0  0  0  0  0  0
  161.1470  205.1620  150.4380 C   0  0  0  0  0  0  0  0  0  0  0  0
  159.9580  201.1520  147.5500 O   0  0  0  0  0  1  0  0  0  0  0  0
  160.9430  207.4700  150.9060 C   0  0  2  0  0  3  0  0  0  0  0  0
  161.0840  203.0860  149.2250 C   0  0  0  0  0  3  0  0  0  0  0  0
  161.2150  205.8340  149.2460 C   0  0  0  0  0  0  0  0  0  0  0  0
  162.7820  205.9750  152.4370 S   0  0  0  0  0  1  0  0  0  0  0  0
  161.1630  206.0980  151.5930 C   0  0  2  0  0  3  0  0  0  0  0  0
  161.1830  203.1320  146.7430 N   0  0  0  0  0  0  0  0  0  0  0  0
  161.0700  203.7650  150.4530 C   0  0  0  0  0  0  0  0  0  0  0  0
  161.1520  203.8100  148.0150 C   0  0  0  0  0  0  0  0  0  0  0  0
  161.2560  207.3000  149.4150 C   0  0  0  0  0  2  0  0  0  0  0  0
  160.8970  201.1860  145.4690 O   0  0  0  0  0  0  0  0  0  0  0  0
  161.7140  203.8440  145.5870 C   0  0  0  0  0  1  0  0  0  0  0  0
  160.6900  201.7910  146.5550 C   0  0  0  0  0  0  0  0  0  0  0  0
  161.2240  205.1760  148.0580 N   0  0  0  0  0  0  0  0  0  0  0  0
  161.0090  202.9960  151.7280 C   0  0  0  0  0  2  0  0  0  0  0  0
  160.2340  203.6800  152.6480 F   0  0  0  0  0  0  0  0  0  0  0  0
  2  1  1  0  0  0  0
  2  3  1  0  0  0  0
  3  5  1  0  0  0  0
  5  4  1  6  0  0  0
  5  6  1  0  0  0  0
  6 20  1  6  0  0  0
  8  7  1  6  0  0  0
  9  6  1  6  0  0  0
  9  7  1  0  0  0  0
  9  8  1  0  0  0  0
 10 12  1  1  0  0  0
 10 14  1  0  0  0  0
 10  8  1  0  0  0  0
 12 15  1  0  0  0  0
 13 14  1  0  0  0  0
 14 18  1  6  0  0  0
 16 11  1  0  0  0  0
 16 12  2  0  0  0  0
 17 13  1  0  0  0  0
 17 16  1  0  0  0  0
 19 18  1  0  0  0  0
 20 21  1  0  0  0  0
 22  1  1  0  0  0  0
 23 22  1  0  0  0  0
 23 24  1  0  0  0  0
 25 33  1  0  0  0  0
 25 31  1  0  0  0  0
 27 24  1  1  0  0  0
 27 31  1  0  0  0  0
 28 33  2  0  0  0  0
 29 35  1  0  0  0  0
 29 25  2  0  0  0  0
 31 30  1  6  0  0  0
 32 34  1  0  0  0  0
 33 40  1  0  0  0  0
 34 39  2  0  0  0  0
 34 28  1  0  0  0  0
 35 27  1  0  0  0  0
 36 38  2  0  0  0  0
 37 32  1  0  0  0  0
 38 32  1  0  0  0  0
 38 26  1  0  0  0  0
 39 29  1  0  0  0  0
 40 41  1  0  0  0  0
M  END
>  <MODEL>
8

>  <REMARK>
 VINA RESULT:      -4.6      3.339      4.984
  Name = 
  13 active torsions:
  status: ('A' for Active; 'I' for Inactive)
    1  A    between atoms: C_3  and  C_26
    2  A    between atoms: C_4  and  C_25
    3  A    between atoms: C_5  and  N_33
    4  A    between atoms: C_5  and  C_41
    5  A    between atoms: C_6  and  C_17
    6  A    between atoms: C_10  and  N_33
    7  A    between atoms: O_16  and  C_22
    8  A    between atoms: C_21  and  C_38
    9  A    between atoms: C_21  and  C_40
   10  A    between atoms: C_22  and  C_32
   11  A    between atoms: C_22  and  C_36
   12  A    between atoms: C_32  and  C_40
   13  A    between atoms: C_38  and  C_41
                            x       y       z     vdW  Elec       q    Type
                         _______ _______ _______ _____ _____    ______ ____

>  <TORSDO>
F 13

$$$$
=
 OpenBabel11072413293D

 41 44  0  0  1  0  0  0  0  0999 V2000
  161.3710  210.8750  151.1960 C   0  0  0  0  0  2  0  0  0  0  0  0
  162.3230  210.3410  152.2480 C   0  0  0  0  0  2  0  0  0  0  0  0
  161.8370  210.7100  153.6410 C   0  0  0  0  0  2  0  0  0  0  0  0
  160.7190  208.5130  154.0780 C   0  0  0  0  0  1  0  0  0  0  0  0
  160.5200  210.0160  153.9710 C   0  0  1  0  0  3  0  0  0  0  0  0
  159.8230  210.6130  155.2120 C   0  0  2  0  0  3  0  0  0  0  0  0
  159.5450  212.3430  157.0800 C   0  0  0  0  0  2  0  0  0  0  0  0
  159.4460  213.1960  155.8290 C   0  0  1  0  0  3  0  0  0  0  0  0
  160.3410  211.9350  155.8520 C   0  0  2  0  0  3  0  0  0  0  0  0
  158.1000  213.0340  155.1040 C   0  0  1  0  0  3  0  0  0  0  0  0
  154.6360  213.9850  156.0810 F   0  0  0  0  0  0  0  0  0  0  0  0
  156.9170  213.4570  155.9540 C   0  0  0  0  0  0  0  0  0  0  0  0
  156.7000  213.9140  153.1100 C   0  0  0  0  0  2  0  0  0  0  0  0
  158.0860  213.8640  153.7990 C   0  0  2  0  0  3  0  0  0  0  0  0
  157.0640  213.8120  157.2600 F   0  0  0  0  0  0  0  0  0  0  0  0
  155.7110  213.5450  155.3750 C   0  0  0  0  0  0  0  0  0  0  0  0
  155.5760  213.2400  153.9110 C   0  0  0  0  0  2  0  0  0  0  0  0
  159.1430  213.3950  152.8080 C   0  0  0  0  0  2  0  0  0  0  0  0
  158.6730  212.2950  152.0880 O   0  0  0  0  0  1  0  0  0  0  0  0
  159.4460  209.6350  156.1370 O   0  0  0  0  0  0  0  0  0  0  0  0
  160.4700  209.6240  157.0880 C   0  0  0  0  0  1  0  0  0  0  0  0
  161.8740  210.4970  149.8160 C   0  0  0  0  0  2  0  0  0  0  0  0
  162.2240  209.0160  149.7660 C   0  0  0  0  0  2  0  0  0  0  0  0
  161.6920  208.3190  150.9300 N   0  0  0  0  0  2  0  0  0  0  0  0
  161.1770  204.8690  150.0780 C   0  0  0  0  0  0  0  0  0  0  0  0
  159.9720  200.6780  147.4660 O   0  0  0  0  0  1  0  0  0  0  0  0
  160.9070  207.1880  150.4500 C   0  0  2  0  0  3  0  0  0  0  0  0
  161.1220  202.7350  148.9700 C   0  0  0  0  0  3  0  0  0  0  0  0
  161.1400  205.4840  148.8540 C   0  0  0  0  0  0  0  0  0  0  0  0
  162.9030  205.8430  151.9230 S   0  0  0  0  0  1  0  0  0  0  0  0
  161.2290  205.8610  151.1840 C   0  0  2  0  0  3  0  0  0  0  0  0
  161.0580  202.6620  146.4880 N   0  0  0  0  0  0  0  0  0  0  0  0
  161.1600  203.4730  150.1630 C   0  0  0  0  0  0  0  0  0  0  0  0
  161.0820  203.4000  147.7260 C   0  0  0  0  0  0  0  0  0  0  0  0
  161.1300  206.9570  148.9510 C   0  0  0  0  0  2  0  0  0  0  0  0
  160.7720  200.6460  145.3280 O   0  0  0  0  0  0  0  0  0  0  0  0
  161.4830  203.3360  145.2670 C   0  0  0  0  0  1  0  0  0  0  0  0
  160.6110  201.2950  146.3960 C   0  0  0  0  0  0  0  0  0  0  0  0
  161.0990  204.7690  147.7000 N   0  0  0  0  0  0  0  0  0  0  0  0
  161.2140  202.7660  151.4740 C   0  0  0  0  0  2  0  0  0  0  0  0
  159.9300  202.5800  151.9560 F   0  0  0  0  0  0  0  0  0  0  0  0
  1  2  1  0  0  0  0
  2  3  1  0  0  0  0
  3  5  1  0  0  0  0
  5  4  1  1  0  0  0
  5  6  1  0  0  0  0
  6 20  1  1  0  0  0
  8  9  1  0  0  0  0
  8  7  1  1  0  0  0
  9  6  1  6  0  0  0
  9  7  1  0  0  0  0
 10  8  1  0  0  0  0
 10 12  1  1  0  0  0
 12 15  1  0  0  0  0
 13 14  1  0  0  0  0
 13 17  1  0  0  0  0
 14 18  1  6  0  0  0
 14 10  1  0  0  0  0
 16 12  2  0  0  0  0
 16 11  1  0  0  0  0
 17 16  1  0  0  0  0
 19 18  1  0  0  0  0
 20 21  1  0  0  0  0
 22  1  1  0  0  0  0
 23 22  1  0  0  0  0
 23 24  1  0  0  0  0
 25 33  1  0  0  0  0
 25 31  1  0  0  0  0
 27 24  1  1  0  0  0
 27 31  1  0  0  0  0
 28 33  2  0  0  0  0
 29 35  1  0  0  0  0
 29 25  2  0  0  0  0
 31 30  1  6  0  0  0
 32 34  1  0  0  0  0
 33 40  1  0  0  0  0
 34 28  1  0  0  0  0
 35 27  1  0  0  0  0
 36 38  2  0  0  0  0
 37 32  1  0  0  0  0
 38 32  1  0  0  0  0
 38 26  1  0  0  0  0
 39 34  2  0  0  0  0
 39 29  1  0  0  0  0
 40 41  1  0  0  0  0
M  END
>  <MODEL>
9

>  <REMARK>
 VINA RESULT:      -4.5      2.463      3.432
  Name = 
  13 active torsions:
  status: ('A' for Active; 'I' for Inactive)
    1  A    between atoms: C_3  and  C_26
    2  A    between atoms: C_4  and  C_25
    3  A    between atoms: C_5  and  N_33
    4  A    between atoms: C_5  and  C_41
    5  A    between atoms: C_6  and  C_17
    6  A    between atoms: C_10  and  N_33
    7  A    between atoms: O_16  and  C_22
    8  A    between atoms: C_21  and  C_38
    9  A    between atoms: C_21  and  C_40
   10  A    between atoms: C_22  and  C_32
   11  A    between atoms: C_22  and  C_36
   12  A    between atoms: C_32  and  C_40
   13  A    between atoms: C_38  and  C_41
                            x       y       z     vdW  Elec       q    Type
                         _______ _______ _______ _____ _____    ______ ____

>  <TORSDO>
F 13

$$$$
