=
 OpenBabel11072412313D

 56 62  0  0  1  0  0  0  0  0999 V2000
  160.9270  211.5370  146.5930 C   0  0  1  0  0  3  0  0  0  0  0  0
  157.2560  214.1440  148.5330 C   0  0  2  0  0  3  0  0  0  0  0  0
  157.8080  212.0050  150.4810 C   0  0  0  0  0  2  0  0  0  0  0  0
  155.3580  210.9380  154.4310 O   0  0  0  0  0  0  0  0  0  0  0  0
  158.3320  213.7570  152.2250 C   0  0  0  0  0  2  0  0  0  0  0  0
  159.9240  211.0910  152.9420 C   0  0  0  0  0  0  0  0  0  0  0  0
  160.7800  211.9660  152.6360 O   0  0  0  0  0  0  0  0  0  0  0  0
  157.8480  214.4510  149.9140 C   0  0  0  0  0  2  0  0  0  0  0  0
  157.7640  214.1480  146.0810 C   0  0  0  0  0  2  0  0  0  0  0  0
  156.6210  212.8200  148.4730 N   0  0  0  0  0  2  0  0  0  0  0  0
  162.8000  213.0800  147.1410 C   0  0  0  0  0  2  0  0  0  0  0  0
  158.3440  214.2860  147.4770 C   0  0  0  0  0  2  0  0  0  0  0  0
  158.8780  213.8800  145.0820 C   0  0  1  0  0  3  0  0  0  0  0  0
  159.1250  212.3660  144.9080 C   0  0  1  0  0  3  0  0  0  0  0  0
  156.1380  213.5190  151.2780 O   0  0  0  0  0  1  0  0  0  0  0  0
  157.5290  211.7960  148.9880 C   0  0  0  0  0  2  0  0  0  0  0  0
  161.0870  211.1420  148.0630 C   0  0  0  0  0  2  0  0  0  0  0  0
  156.4260  211.3800  154.0450 C   0  0  0  0  0  0  0  0  0  0  0  0
  160.4250  207.8730  151.4710 O   0  0  0  0  0  0  0  0  0  0  0  0
  161.6050  209.7740  150.8460 N   0  0  0  0  0  2  0  0  0  0  0  0
  163.0950  209.7990  148.9530 C   0  0  0  0  0  0  0  0  0  0  0  0
  162.5510  211.0030  148.3080 C   0  0  0  0  0  0  0  0  0  0  0  0
  158.5210  214.4490  143.8620 O   0  0  0  0  0  1  0  0  0  0  0  0
  161.3570  212.8840  143.8000 C   0  0  0  0  0  2  0  0  0  0  0  0
  162.3010  212.4760  144.9200 C   0  0  0  0  0  2  0  0  0  0  0  0
  158.1710  212.8680  153.4730 C   0  0  1  0  0  3  0  0  0  0  0  0
  157.5380  210.5240  153.5830 C   0  0  0  0  0  2  0  0  0  0  0  0
  160.1100  211.9970  143.7760 C   0  0  2  0  0  3  0  0  0  0  0  0
  157.4970  213.4180  150.9830 C   0  0  1  0  0  0  0  0  0  0  0  0
  156.7390  212.8330  154.0000 C   0  0  0  0  0  2  0  0  0  0  0  0
  162.3670  209.1050  149.9150 O   0  0  0  0  0  0  0  0  0  0  0  0
  159.4470  211.6580  146.2360 C   0  0  0  0  0  2  0  0  0  0  0  0
  160.7560  209.0570  151.7400 C   0  0  0  0  0  0  0  0  0  0  0  0
  163.3470  211.8960  147.8070 N   0  0  0  0  0  0  0  0  0  0  0  0
  161.6970  212.7440  146.2190 N   0  0  1  0  0  0  0  0  0  0  0  0
  158.5770  211.4800  153.2420 N   0  0  0  0  0  0  0  0  0  0  0  0
  160.3370  209.6530  153.0530 C   0  0  1  0  0  3  0  0  0  0  0  0
  164.2290  209.3700  148.6140 O   0  0  0  0  0  0  0  0  0  0  0  0
  160.0080  214.0440  141.2950 O   0  0  0  0  0  0  0  0  0  0  0  0
  161.3460  210.8060  140.5550 C   0  0  0  0  0  3  0  0  0  0  0  0
  160.5480  209.9460  141.4940 C   0  0  0  0  0  2  0  0  0  0  0  0
  159.2120  210.5990  141.8460 C   0  0  0  0  0  2  0  0  0  0  0  0
  160.2330  212.8100  141.3950 C   0  0  0  0  0  0  0  0  0  0  0  0
  159.4360  212.0150  142.3930 C   0  0  2  0  0  3  0  0  0  0  0  0
  161.2490  212.1450  140.5260 C   0  0  0  0  0  0  0  0  0  0  0  0
  164.7070  213.8070  138.0550 C   0  0  0  0  0  3  0  0  0  0  0  0
  162.4030  213.8140  137.2060 C   0  0  0  0  0  2  0  0  0  0  0  0
  164.2110  214.4430  139.3110 C   0  0  0  0  0  2  0  0  0  0  0  0
  163.8550  213.4930  137.0800 C   0  0  0  0  0  3  0  0  0  0  0  0
  161.7280  213.0530  138.3100 C   0  0  0  0  0  3  0  0  0  0  0  0
  163.4510  213.4190  140.1380 C   0  0  0  0  0  2  0  0  0  0  0  0
  162.1160  212.9290  139.5960 C   0  0  0  0  0  0  0  0  0  0  0  0
  161.3820  209.5230  154.0110 O   0  0  0  0  0  0  0  0  0  0  0  0
  161.2610  208.7080  155.1360 C   0  0  0  0  0  0  0  0  0  0  0  0
  161.6860  209.0880  156.2600 O   0  0  0  0  0  0  0  0  0  0  0  0
  160.6650  207.4250  155.0090 N   0  0  0  0  0  1  0  0  0  0  0  0
  1 32  1  1  0  0  0
  1 17  1  0  0  0  0
  2 12  1  6  0  0  0
  2  8  1  0  0  0  0
  3 29  1  0  0  0  0
  6 37  1  0  0  0  0
  6 36  1  0  0  0  0
  7  6  2  0  0  0  0
  8 29  1  0  0  0  0
  9 12  1  0  0  0  0
 10  2  1  0  0  0  0
 10 16  1  0  0  0  0
 11 34  1  0  0  0  0
 13 23  1  6  0  0  0
 13  9  1  0  0  0  0
 14 13  1  0  0  0  0
 14 32  1  1  0  0  0
 16  3  1  0  0  0  0
 17 22  1  0  0  0  0
 18  4  2  0  0  0  0
 19 33  2  0  0  0  0
 20 33  1  0  0  0  0
 21 31  1  0  0  0  0
 22 21  1  0  0  0  0
 24 25  1  0  0  0  0
 26  5  1  6  0  0  0
 26 30  1  0  0  0  0
 27 18  1  0  0  0  0
 28 24  1  6  0  0  0
 28 14  1  0  0  0  0
 29 15  1  1  0  0  0
 29  5  1  0  0  0  0
 30 18  1  0  0  0  0
 31 20  1  0  0  0  0
 33 37  1  0  0  0  0
 34 22  2  0  0  0  0
 35 25  1  6  0  0  0
 35  1  1  0  0  0  0
 35 11  1  0  0  0  0
 36 26  1  0  0  0  0
 36 27  1  0  0  0  0
 37 53  1  1  0  0  0
 38 21  2  0  0  0  0
 39 43  2  0  0  0  0
 40 41  1  0  0  0  0
 41 42  1  0  0  0  0
 43 44  1  0  0  0  0
 44 42  1  6  0  0  0
 44 28  1  0  0  0  0
 45 40  2  0  0  0  0
 45 43  1  0  0  0  0
 46 48  1  0  0  0  0
 47 50  1  0  0  0  0
 48 51  1  0  0  0  0
 49 47  1  0  0  0  0
 49 46  2  0  0  0  0
 50 52  2  0  0  0  0
 52 51  1  0  0  0  0
 52 45  1  0  0  0  0
 53 54  1  0  0  0  0
 54 55  2  0  0  0  0
 56 54  1  0  0  0  0
M  END
>  <MODEL>
1

>  <REMARK>
 VINA RESULT:      11.6      0.000      0.000
  Name = 
  4 active torsions:
  status: ('A' for Active; 'I' for Inactive)
    1  A    between atoms: C_6  and  O_14
    2  A    between atoms: O_14  and  C_55
    3  A    between atoms: C_41  and  C_48
    4  A    between atoms: C_52  and  C_53
                            x       y       z     vdW  Elec       q    Type
                         _______ _______ _______ _____ _____    ______ ____

>  <TORSDO>
F 4

$$$$
