=
 OpenBabel11072410203D

 33 38  0  0  1  0  0  0  0  0999 V2000
  161.4610  209.7830  151.7710 C   0  0  1  0  0  3  0  0  0  0  0  0
  160.7310  212.0280  155.4370 C   0  0  0  0  0  2  0  0  0  0  0  0
  156.2790  213.0100  154.8050 C   0  0  0  0  0  1  0  0  0  0  0  0
  157.2450  211.8380  154.8590 C   0  0  2  0  0  0  0  0  0  0  0  0
  158.4040  212.1560  155.7790 C   0  0  0  0  0  2  0  0  0  0  0  0
  160.4190  210.7280  152.0960 N   0  0  0  0  0  0  0  0  0  0  0  0
  161.1860  210.9910  154.4200 C   0  0  2  0  0  3  0  0  0  0  0  0
  157.8680  211.6380  153.5020 C   0  0  0  0  0  2  0  0  0  0  0  0
  160.2830  211.2380  153.2730 C   0  0  0  0  0  0  0  0  0  0  0  0
  159.2550  212.2510  153.5870 C   0  0  2  0  0  3  0  0  0  0  0  0
  159.4990  212.6780  154.9690 N   0  0  2  0  0  0  0  0  0  0  0  0
  161.8670  209.3390  156.1590 C   0  0  0  0  0  1  0  0  0  0  0  0
  160.9590  209.5900  154.9690 C   0  0  0  0  0  2  0  0  0  0  0  0
  156.5310  210.5630  155.2900 C   0  0  0  0  0  2  0  0  0  0  0  0
  155.2720  210.4670  154.6920 O   0  0  0  0  0  1  0  0  0  0  0  0
  160.8230  207.0380  149.2600 C   0  0  0  0  0  2  0  0  0  0  0  0
  161.8420  206.7970  153.0660 C   0  0  2  0  0  3  0  0  0  0  0  0
  161.7960  208.1730  148.9640 C   0  0  0  0  0  2  0  0  0  0  0  0
  161.5500  206.0240  154.2590 N   0  0  0  0  0  1  0  0  0  0  0  0
  162.7600  206.6920  150.8700 C   0  0  0  0  0  2  0  0  0  0  0  0
  160.5900  207.5750  152.6460 C   0  0  0  0  0  2  0  0  0  0  0  0
  160.8520  208.4240  151.3970 C   0  0  2  0  0  3  0  0  0  0  0  0
  162.2580  205.8960  151.9890 N   0  0  0  0  0  2  0  0  0  0  0  0
  161.6660  207.6280  150.3670 C   0  0  0  0  0  0  0  0  0  0  0  0
  162.3800  210.3580  150.6970 C   0  0  0  0  0  2  0  0  0  0  0  0
  161.8350  211.6770  150.1680 C   0  0  0  0  0  2  0  0  0  0  0  0
  159.0700  212.6970  146.4330 O   0  0  0  0  0  1  0  0  0  0  0  0
  160.3530  212.2320  146.7200 C   0  0  2  0  0  3  0  0  0  0  0  0
  161.8270  211.6960  148.6470 C   0  0  1  0  0  3  0  0  0  0  0  0
  160.7010  212.5860  148.1540 C   0  0  1  0  0  3  0  0  0  0  0  0
  161.2600  213.4150  147.0080 C   0  0  1  0  0  3  0  0  0  0  0  0
  162.7130  213.0080  146.8360 C   0  0  0  0  0  2  0  0  0  0  0  0
  163.1110  212.2920  148.1050 C   0  0  0  0  0  2  0  0  0  0  0  0
  1 25  1  6  0  0  0
  1  6  1  0  0  0  0
  4  3  1  6  0  0  0
  4 14  1  0  0  0  0
  4  5  1  0  0  0  0
  6  9  2  0  0  0  0
  7 13  1  1  0  0  0
  7  2  1  0  0  0  0
  8  4  1  0  0  0  0
  9 10  1  0  0  0  0
  9  7  1  0  0  0  0
 10  8  1  1  0  0  0
 10 11  1  0  0  0  0
 11  2  1  1  0  0  0
 11  5  1  0  0  0  0
 13 12  1  0  0  0  0
 15 14  1  0  0  0  0
 16 24  1  0  0  0  0
 17 19  1  1  0  0  0
 18 16  1  0  0  0  0
 18 24  1  0  0  0  0
 20 23  1  0  0  0  0
 21 17  1  0  0  0  0
 22  1  1  1  0  0  0
 22 21  1  0  0  0  0
 23 17  1  0  0  0  0
 24 20  1  0  0  0  0
 24 22  1  0  0  0  0
 26 25  1  0  0  0  0
 28 27  1  1  0  0  0
 28 31  1  0  0  0  0
 28 30  1  0  0  0  0
 29 26  1  1  0  0  0
 30 29  1  0  0  0  0
 31 30  1  0  0  0  0
 32 31  1  0  0  0  0
 32 33  1  0  0  0  0
 33 29  1  0  0  0  0
M  END
>  <MODEL>
1

>  <REMARK>
 VINA RESULT:      -6.0      0.000      0.000
  Name = 
  7 active torsions:
  status: ('A' for Active; 'I' for Inactive)
    1  A    between atoms: C_9  and  C_25
    2  A    between atoms: C_12  and  C_20
    3  A    between atoms: C_14  and  N_17
    4  A    between atoms: C_14  and  C_21
    5  A    between atoms: C_14  and  C_23
    6  A    between atoms: C_19  and  C_30
    7  A    between atoms: C_21  and  C_25
                            x       y       z     vdW  Elec       q    Type
                         _______ _______ _______ _____ _____    ______ ____

>  <TORSDO>
F 7

$$$$
=
 OpenBabel11072410203D

 33 38  0  0  1  0  0  0  0  0999 V2000
  160.2110  210.7870  153.9410 C   0  0  1  0  0  3  0  0  0  0  0  0
  156.6540  213.1300  153.0100 C   0  0  0  0  0  2  0  0  0  0  0  0
  154.5970  212.9820  157.1240 C   0  0  0  0  0  1  0  0  0  0  0  0
  155.9080  213.3680  156.4600 C   0  0  2  0  0  0  0  0  0  0  0  0
  155.6620  213.8130  155.0340 C   0  0  0  0  0  2  0  0  0  0  0  0
  158.9310  210.8470  154.6070 N   0  0  0  0  0  0  0  0  0  0  0  0
  158.0820  212.6160  153.1220 C   0  0  2  0  0  3  0  0  0  0  0  0
  156.7900  212.1540  156.3450 C   0  0  0  0  0  2  0  0  0  0  0  0
  158.0040  211.6740  154.2610 C   0  0  0  0  0  0  0  0  0  0  0  0
  156.6740  211.6910  154.9020 C   0  0  2  0  0  3  0  0  0  0  0  0
  155.8650  212.6640  154.1590 N   0  0  2  0  0  0  0  0  0  0  0  0
  159.4900  214.4510  152.1900 C   0  0  0  0  0  1  0  0  0  0  0  0
  159.0220  213.7650  153.4600 C   0  0  0  0  0  2  0  0  0  0  0  0
  156.6240  214.4500  157.2600 C   0  0  0  0  0  2  0  0  0  0  0  0
  158.0110  214.3200  157.1490 O   0  0  0  0  0  1  0  0  0  0  0  0
  162.3280  211.1690  157.0430 C   0  0  0  0  0  2  0  0  0  0  0  0
  160.4320  208.0000  155.6500 C   0  0  2  0  0  3  0  0  0  0  0  0
  161.1730  212.1190  156.7500 C   0  0  0  0  0  2  0  0  0  0  0  0
  160.6100  206.5690  155.4840 N   0  0  0  0  0  1  0  0  0  0  0  0
  160.2310  209.7500  157.2540 C   0  0  0  0  0  2  0  0  0  0  0  0
  161.4470  208.7430  154.7750 C   0  0  0  0  0  2  0  0  0  0  0  0
  161.2880  210.2630  154.9020 C   0  0  2  0  0  3  0  0  0  0  0  0
  160.6270  208.3560  157.0570 N   0  0  0  0  0  2  0  0  0  0  0  0
  161.0750  210.6600  156.3690 C   0  0  0  0  0  0  0  0  0  0  0  0
  160.0990  209.9810  152.6500 C   0  0  0  0  0  2  0  0  0  0  0  0
  161.1290  210.4460  151.6320 C   0  0  0  0  0  2  0  0  0  0  0  0
  161.6000  205.7240  151.9840 O   0  0  0  0  0  1  0  0  0  0  0  0
  162.1260  206.8020  151.2740 C   0  0  2  0  0  3  0  0  0  0  0  0
  161.9030  209.2670  151.0580 C   0  0  1  0  0  3  0  0  0  0  0  0
  161.1690  207.9760  151.3700 C   0  0  1  0  0  3  0  0  0  0  0  0
  161.2100  207.1270  150.1080 C   0  0  1  0  0  3  0  0  0  0  0  0
  161.9660  207.9270  149.0620 C   0  0  0  0  0  2  0  0  0  0  0  0
  161.9870  209.3570  149.5480 C   0  0  0  0  0  2  0  0  0  0  0  0
  1 25  1  6  0  0  0
  1  6  1  0  0  0  0
  2  7  1  0  0  0  0
  4  3  1  1  0  0  0
  4 14  1  0  0  0  0
  5  4  1  0  0  0  0
  7 13  1  1  0  0  0
  7  9  1  0  0  0  0
  8  4  1  0  0  0  0
  9  6  2  0  0  0  0
  9 10  1  0  0  0  0
 10  8  1  1  0  0  0
 11  2  1  6  0  0  0
 11 10  1  0  0  0  0
 11  5  1  0  0  0  0
 12 13  1  0  0  0  0
 15 14  1  0  0  0  0
 17 19  1  1  0  0  0
 17 23  1  0  0  0  0
 18 16  1  0  0  0  0
 21 22  1  0  0  0  0
 21 17  1  0  0  0  0
 22  1  1  6  0  0  0
 22 24  1  0  0  0  0
 23 20  1  0  0  0  0
 24 18  1  0  0  0  0
 24 16  1  0  0  0  0
 24 20  1  0  0  0  0
 26 25  1  0  0  0  0
 28 30  1  0  0  0  0
 28 27  1  1  0  0  0
 29 30  1  0  0  0  0
 29 26  1  6  0  0  0
 31 28  1  0  0  0  0
 31 30  1  0  0  0  0
 32 33  1  0  0  0  0
 32 31  1  0  0  0  0
 33 29  1  0  0  0  0
M  END
>  <MODEL>
2

>  <REMARK>
 VINA RESULT:      -5.6      2.854      5.083
  Name = 
  7 active torsions:
  status: ('A' for Active; 'I' for Inactive)
    1  A    between atoms: C_9  and  C_25
    2  A    between atoms: C_12  and  C_20
    3  A    between atoms: C_14  and  N_17
    4  A    between atoms: C_14  and  C_21
    5  A    between atoms: C_14  and  C_23
    6  A    between atoms: C_19  and  C_30
    7  A    between atoms: C_21  and  C_25
                            x       y       z     vdW  Elec       q    Type
                         _______ _______ _______ _____ _____    ______ ____

>  <TORSDO>
F 7

$$$$
=
 OpenBabel11072410203D

 33 38  0  0  1  0  0  0  0  0999 V2000
  161.1780  209.9590  151.8630 C   0  0  1  0  0  3  0  0  0  0  0  0
  159.8910  214.1030  151.4430 C   0  0  0  0  0  2  0  0  0  0  0  0
  160.0310  214.4390  146.8550 C   0  0  0  0  0  1  0  0  0  0  0  0
  159.4230  213.6050  147.9710 C   0  0  2  0  0  0  0  0  0  0  0  0
  159.2260  214.4520  149.2100 C   0  0  0  0  0  2  0  0  0  0  0  0
  161.3480  210.8840  150.7670 N   0  0  0  0  0  0  0  0  0  0  0  0
  160.0280  212.6470  151.8650 C   0  0  2  0  0  3  0  0  0  0  0  0
  160.3940  212.5310  148.3820 C   0  0  0  0  0  2  0  0  0  0  0  0
  160.8160  212.0590  150.7590 C   0  0  0  0  0  0  0  0  0  0  0  0
  161.0420  213.0250  149.6650 C   0  0  2  0  0  3  0  0  0  0  0  0
  160.3900  214.2750  150.0720 N   0  0  2  0  0  0  0  0  0  0  0  0
  157.7260  212.8120  152.8090 C   0  0  0  0  0  1  0  0  0  0  0  0
  158.6550  211.9940  151.9300 C   0  0  0  0  0  2  0  0  0  0  0  0
  158.1120  212.9690  147.5240 C   0  0  0  0  0  2  0  0  0  0  0  0
  157.1800  212.9580  148.5650 O   0  0  0  0  0  1  0  0  0  0  0  0
  161.0490  207.4000  149.0920 C   0  0  0  0  0  2  0  0  0  0  0  0
  161.8930  206.9410  152.9200 C   0  0  2  0  0  3  0  0  0  0  0  0
  161.8730  208.6740  148.9560 C   0  0  0  0  0  2  0  0  0  0  0  0
  161.6480  206.0280  154.0220 N   0  0  0  0  0  1  0  0  0  0  0  0
  162.9280  207.1610  150.7860 C   0  0  0  0  0  2  0  0  0  0  0  0
  160.5710  207.5840  152.4890 C   0  0  0  0  0  2  0  0  0  0  0  0
  160.7790  208.5730  151.3360 C   0  0  2  0  0  3  0  0  0  0  0  0
  162.4820  206.2060  151.7990 N   0  0  0  0  0  2  0  0  0  0  0  0
  161.7450  207.9890  150.2970 C   0  0  0  0  0  0  0  0  0  0  0  0
  162.4280  209.9430  152.7400 C   0  0  0  0  0  2  0  0  0  0  0  0
  162.1590  210.6210  154.0760 C   0  0  0  0  0  2  0  0  0  0  0  0
  160.1740  207.2240  156.7510 O   0  0  0  0  0  1  0  0  0  0  0  0
  159.8230  208.3800  156.0550 C   0  0  2  0  0  3  0  0  0  0  0  0
  160.8270  210.1740  154.6600 C   0  0  1  0  0  3  0  0  0  0  0  0
  161.0700  209.2070  155.8040 C   0  0  1  0  0  3  0  0  0  0  0  0
  160.1130  209.5920  156.9210 C   0  0  1  0  0  3  0  0  0  0  0  0
  159.3150  210.7860  156.4280 C   0  0  0  0  0  2  0  0  0  0  0  0
  160.0710  211.3490  155.2470 C   0  0  0  0  0  2  0  0  0  0  0  0
  1 25  1  6  0  0  0
  2  7  1  0  0  0  0
  4  3  1  6  0  0  0
  4  8  1  0  0  0  0
  4  5  1  0  0  0  0
  6  1  1  0  0  0  0
  7 13  1  6  0  0  0
  9  6  2  0  0  0  0
  9  7  1  0  0  0  0
 10  8  1  6  0  0  0
 10 11  1  0  0  0  0
 10  9  1  0  0  0  0
 11  5  1  6  0  0  0
 11  2  1  0  0  0  0
 13 12  1  0  0  0  0
 14  4  1  0  0  0  0
 14 15  1  0  0  0  0
 16 24  1  0  0  0  0
 17 19  1  1  0  0  0
 18 16  1  0  0  0  0
 18 24  1  0  0  0  0
 20 23  1  0  0  0  0
 21 17  1  0  0  0  0
 22  1  1  1  0  0  0
 22 21  1  0  0  0  0
 23 17  1  0  0  0  0
 24 20  1  0  0  0  0
 24 22  1  0  0  0  0
 25 26  1  0  0  0  0
 28 27  1  1  0  0  0
 28 31  1  0  0  0  0
 29 26  1  1  0  0  0
 29 33  1  0  0  0  0
 29 30  1  0  0  0  0
 30 28  1  0  0  0  0
 30 31  1  0  0  0  0
 32 31  1  0  0  0  0
 33 32  1  0  0  0  0
M  END
>  <MODEL>
3

>  <REMARK>
 VINA RESULT:      -5.1      2.049      5.871
  Name = 
  7 active torsions:
  status: ('A' for Active; 'I' for Inactive)
    1  A    between atoms: C_9  and  C_25
    2  A    between atoms: C_12  and  C_20
    3  A    between atoms: C_14  and  N_17
    4  A    between atoms: C_14  and  C_21
    5  A    between atoms: C_14  and  C_23
    6  A    between atoms: C_19  and  C_30
    7  A    between atoms: C_21  and  C_25
                            x       y       z     vdW  Elec       q    Type
                         _______ _______ _______ _____ _____    ______ ____

>  <TORSDO>
F 7

$$$$
=
 OpenBabel11072410203D

 33 38  0  0  1  0  0  0  0  0999 V2000
  160.9710  210.1820  151.9740 C   0  0  1  0  0  3  0  0  0  0  0  0
  159.6980  214.2780  151.1910 C   0  0  0  0  0  2  0  0  0  0  0  0
  159.9990  214.2600  146.5990 C   0  0  0  0  0  1  0  0  0  0  0  0
  159.3530  213.5130  147.7540 C   0  0  2  0  0  0  0  0  0  0  0  0
  159.1120  214.4520  148.9160 C   0  0  0  0  0  2  0  0  0  0  0  0
  161.1790  211.0200  150.8170 N   0  0  0  0  0  0  0  0  0  0  0  0
  159.8200  212.8590  151.7280 C   0  0  2  0  0  3  0  0  0  0  0  0
  160.3100  212.4760  148.2800 C   0  0  0  0  0  2  0  0  0  0  0  0
  160.6470  212.1900  150.6990 C   0  0  0  0  0  0  0  0  0  0  0  0
  160.9120  213.0700  149.5430 C   0  0  2  0  0  3  0  0  0  0  0  0
  160.2450  214.3450  149.8290 N   0  0  2  0  0  0  0  0  0  0  0  0
  157.8430  212.3970  153.1750 C   0  0  0  0  0  1  0  0  0  0  0  0
  158.4460  212.2090  151.7950 C   0  0  0  0  0  2  0  0  0  0  0  0
  158.0590  212.8400  147.3110 C   0  0  0  0  0  2  0  0  0  0  0  0
  157.1340  212.7960  148.3570 O   0  0  0  0  0  1  0  0  0  0  0  0
  161.9190  206.7220  153.1470 C   0  0  0  0  0  2  0  0  0  0  0  0
  161.7970  208.2090  149.4930 C   0  0  2  0  0  3  0  0  0  0  0  0
  160.6040  207.3680  153.5660 C   0  0  0  0  0  2  0  0  0  0  0  0
  162.5440  208.1900  148.2480 N   0  0  0  0  0  1  0  0  0  0  0  0
  160.5430  206.8730  151.0150 C   0  0  0  0  0  2  0  0  0  0  0  0
  162.6380  208.8880  150.5790 C   0  0  0  0  0  2  0  0  0  0  0  0
  161.8850  208.9500  151.9130 C   0  0  2  0  0  3  0  0  0  0  0  0
  161.4770  206.8370  149.8910 N   0  0  0  0  0  2  0  0  0  0  0  0
  161.1710  207.6190  152.1880 C   0  0  0  0  0  0  0  0  0  0  0  0
  161.1310  210.9990  153.2540 C   0  0  0  0  0  2  0  0  0  0  0  0
  162.1650  210.3660  154.1730 C   0  0  0  0  0  2  0  0  0  0  0  0
  158.3820  211.3650  156.8800 O   0  0  0  0  0  1  0  0  0  0  0  0
  159.6830  210.8790  156.9970 C   0  0  2  0  0  3  0  0  0  0  0  0
  161.6760  210.3400  155.6140 C   0  0  1  0  0  3  0  0  0  0  0  0
  160.1590  210.4000  155.6380 C   0  0  1  0  0  3  0  0  0  0  0  0
  159.6920  209.3950  156.6790 C   0  0  1  0  0  3  0  0  0  0  0  0
  160.9380  208.7470  157.2590 C   0  0  0  0  0  2  0  0  0  0  0  0
  162.0630  209.0420  156.2950 C   0  0  0  0  0  2  0  0  0  0  0  0
  1 25  1  1  0  0  0
  2  7  1  0  0  0  0
  4  3  1  6  0  0  0
  4  8  1  0  0  0  0
  4  5  1  0  0  0  0
  6  1  1  0  0  0  0
  7 13  1  6  0  0  0
  9  6  2  0  0  0  0
  9  7  1  0  0  0  0
 10  8  1  6  0  0  0
 10 11  1  0  0  0  0
 10  9  1  0  0  0  0
 11  5  1  6  0  0  0
 11  2  1  0  0  0  0
 13 12  1  0  0  0  0
 14  4  1  0  0  0  0
 14 15  1  0  0  0  0
 16 18  1  0  0  0  0
 17 19  1  6  0  0  0
 17 23  1  0  0  0  0
 17 21  1  0  0  0  0
 20 24  1  0  0  0  0
 21 22  1  0  0  0  0
 22  1  1  6  0  0  0
 22 24  1  0  0  0  0
 23 20  1  0  0  0  0
 24 16  1  0  0  0  0
 24 18  1  0  0  0  0
 25 26  1  0  0  0  0
 28 27  1  6  0  0  0
 29 26  1  6  0  0  0
 29 30  1  0  0  0  0
 29 33  1  0  0  0  0
 30 31  1  0  0  0  0
 30 28  1  0  0  0  0
 31 28  1  0  0  0  0
 31 32  1  0  0  0  0
 33 32  1  0  0  0  0
M  END
>  <MODEL>
4

>  <REMARK>
 VINA RESULT:      -4.8      2.100      6.282
  Name = 
  7 active torsions:
  status: ('A' for Active; 'I' for Inactive)
    1  A    between atoms: C_9  and  C_25
    2  A    between atoms: C_12  and  C_20
    3  A    between atoms: C_14  and  N_17
    4  A    between atoms: C_14  and  C_21
    5  A    between atoms: C_14  and  C_23
    6  A    between atoms: C_19  and  C_30
    7  A    between atoms: C_21  and  C_25
                            x       y       z     vdW  Elec       q    Type
                         _______ _______ _______ _____ _____    ______ ____

>  <TORSDO>
F 7

$$$$
=
 OpenBabel11072410203D

 33 38  0  0  1  0  0  0  0  0999 V2000
  161.7240  209.4620  151.0390 C   0  0  1  0  0  3  0  0  0  0  0  0
  160.8310  213.6970  150.5100 C   0  0  0  0  0  2  0  0  0  0  0  0
  160.5130  213.7970  145.9190 C   0  0  0  0  0  1  0  0  0  0  0  0
  159.9460  213.0880  147.1380 C   0  0  2  0  0  0  0  0  0  0  0  0
  159.9710  214.0090  148.3390 C   0  0  0  0  0  2  0  0  0  0  0  0
  161.8700  210.3100  149.8790 N   0  0  0  0  0  0  0  0  0  0  0  0
  160.8620  212.2560  151.0000 C   0  0  2  0  0  3  0  0  0  0  0  0
  160.8400  211.9360  147.5110 C   0  0  0  0  0  2  0  0  0  0  0  0
  161.4630  211.5340  149.8560 C   0  0  0  0  0  0  0  0  0  0  0  0
  161.6690  212.4170  148.6900 C   0  0  2  0  0  3  0  0  0  0  0  0
  161.1960  213.7480  149.0870 N   0  0  2  0  0  0  0  0  0  0  0  0
  158.5460  212.9140  151.6470 C   0  0  0  0  0  1  0  0  0  0  0  0
  159.4440  211.7600  151.2420 C   0  0  0  0  0  2  0  0  0  0  0  0
  158.5360  212.5770  146.8640 C   0  0  0  0  0  2  0  0  0  0  0  0
  157.6680  212.9200  147.9040 O   0  0  0  0  0  1  0  0  0  0  0  0
  162.3340  205.8780  152.0520 C   0  0  0  0  0  2  0  0  0  0  0  0
  161.3570  207.3810  148.5360 C   0  0  2  0  0  3  0  0  0  0  0  0
  161.3580  206.7630  152.8180 C   0  0  0  0  0  2  0  0  0  0  0  0
  161.6610  207.2250  147.1250 N   0  0  0  0  0  1  0  0  0  0  0  0
  160.4150  206.3030  150.4410 C   0  0  0  0  0  2  0  0  0  0  0  0
  162.6040  207.8800  149.2730 C   0  0  0  0  0  2  0  0  0  0  0  0
  162.3290  208.0770  150.7680 C   0  0  2  0  0  3  0  0  0  0  0  0
  160.9290  206.0940  149.0880 N   0  0  0  0  0  2  0  0  0  0  0  0
  161.5040  206.9080  151.3210 C   0  0  0  0  0  0  0  0  0  0  0  0
  162.3010  210.1510  152.2730 C   0  0  0  0  0  2  0  0  0  0  0  0
  161.5500  209.7310  153.5280 C   0  0  0  0  0  2  0  0  0  0  0  0
  158.1970  212.6810  155.1700 O   0  0  0  0  0  1  0  0  0  0  0  0
  159.5640  212.4390  155.2940 C   0  0  2  0  0  3  0  0  0  0  0  0
  161.3400  210.9130  154.4630 C   0  0  1  0  0  3  0  0  0  0  0  0
  159.8670  211.0340  154.8100 C   0  0  1  0  0  3  0  0  0  0  0  0
  159.7850  211.3250  156.3000 C   0  0  1  0  0  3  0  0  0  0  0  0
  161.2110  211.3700  156.8210 C   0  0  0  0  0  2  0  0  0  0  0  0
  162.0720  210.7040  155.7740 C   0  0  0  0  0  2  0  0  0  0  0  0
  1 25  1  1  0  0  0
  2  7  1  0  0  0  0
  4  3  1  6  0  0  0
  4  8  1  0  0  0  0
  4  5  1  0  0  0  0
  6  1  1  0  0  0  0
  7 13  1  6  0  0  0
  9  6  2  0  0  0  0
  9  7  1  0  0  0  0
 10  8  1  6  0  0  0
 10 11  1  0  0  0  0
 10  9  1  0  0  0  0
 11  5  1  6  0  0  0
 11  2  1  0  0  0  0
 13 12  1  0  0  0  0
 14  4  1  0  0  0  0
 14 15  1  0  0  0  0
 16 18  1  0  0  0  0
 17 19  1  6  0  0  0
 17 23  1  0  0  0  0
 17 21  1  0  0  0  0
 20 24  1  0  0  0  0
 21 22  1  0  0  0  0
 22  1  1  6  0  0  0
 22 24  1  0  0  0  0
 23 20  1  0  0  0  0
 24 16  1  0  0  0  0
 24 18  1  0  0  0  0
 25 26  1  0  0  0  0
 28 27  1  6  0  0  0
 28 31  1  0  0  0  0
 29 26  1  6  0  0  0
 29 30  1  0  0  0  0
 29 33  1  0  0  0  0
 30 28  1  0  0  0  0
 30 31  1  0  0  0  0
 31 32  1  0  0  0  0
 33 32  1  0  0  0  0
M  END
>  <MODEL>
5

>  <REMARK>
 VINA RESULT:      -4.7      2.262      6.161
  Name = 
  7 active torsions:
  status: ('A' for Active; 'I' for Inactive)
    1  A    between atoms: C_9  and  C_25
    2  A    between atoms: C_12  and  C_20
    3  A    between atoms: C_14  and  N_17
    4  A    between atoms: C_14  and  C_21
    5  A    between atoms: C_14  and  C_23
    6  A    between atoms: C_19  and  C_30
    7  A    between atoms: C_21  and  C_25
                            x       y       z     vdW  Elec       q    Type
                         _______ _______ _______ _____ _____    ______ ____

>  <TORSDO>
F 7

$$$$
=
 OpenBabel11072410203D

 33 38  0  0  1  0  0  0  0  0999 V2000
  160.0530  210.0550  154.3190 C   0  0  1  0  0  3  0  0  0  0  0  0
  158.8170  214.2100  153.8550 C   0  0  0  0  0  2  0  0  0  0  0  0
  154.3000  213.7030  154.5790 C   0  0  0  0  0  1  0  0  0  0  0  0
  155.6490  213.4200  155.2200 C   0  0  2  0  0  0  0  0  0  0  0  0
  156.6640  214.4530  154.7810 C   0  0  0  0  0  2  0  0  0  0  0  0
  158.7550  210.6170  154.0250 N   0  0  0  0  0  0  0  0  0  0  0  0
  159.5530  212.9350  154.2390 C   0  0  2  0  0  3  0  0  0  0  0  0
  156.1820  212.1070  154.7090 C   0  0  0  0  0  2  0  0  0  0  0  0
  158.5320  211.8870  154.0180 C   0  0  0  0  0  0  0  0  0  0  0  0
  157.2190  212.4610  153.6570 C   0  0  2  0  0  3  0  0  0  0  0  0
  157.3930  213.9180  153.6360 N   0  0  2  0  0  0  0  0  0  0  0  0
  159.8230  214.4000  156.2380 C   0  0  0  0  0  1  0  0  0  0  0  0
  159.9410  212.9820  155.7100 C   0  0  0  0  0  2  0  0  0  0  0  0
  155.5320  213.3720  156.7380 C   0  0  0  0  0  2  0  0  0  0  0  0
  156.0910  212.1960  157.2470 O   0  0  0  0  0  1  0  0  0  0  0  0
  159.7020  207.4300  157.0080 C   0  0  0  0  0  2  0  0  0  0  0  0
  162.5010  210.1630  156.4930 C   0  0  2  0  0  3  0  0  0  0  0  0
  159.6410  207.0630  155.5300 C   0  0  0  0  0  2  0  0  0  0  0  0
  163.3130  211.0950  157.2540 N   0  0  0  0  0  1  0  0  0  0  0  0
  162.0450  207.8550  156.1200 C   0  0  0  0  0  2  0  0  0  0  0  0
  161.0280  210.5720  156.5950 C   0  0  0  0  0  2  0  0  0  0  0  0
  160.1280  209.6260  155.7910 C   0  0  2  0  0  3  0  0  0  0  0  0
  162.6850  208.8110  157.0230 N   0  0  0  0  0  2  0  0  0  0  0  0
  160.5570  208.1680  156.0040 C   0  0  0  0  0  0  0  0  0  0  0  0
  160.3770  208.9320  153.3370 C   0  0  0  0  0  2  0  0  0  0  0  0
  161.6300  209.2580  152.5380 C   0  0  0  0  0  2  0  0  0  0  0  0
  161.4920  204.5080  152.3090 O   0  0  0  0  0  1  0  0  0  0  0  0
  161.9600  205.6010  151.5820 C   0  0  2  0  0  3  0  0  0  0  0  0
  162.0450  208.0830  151.6650 C   0  0  1  0  0  3  0  0  0  0  0  0
  161.2420  206.8540  152.0490 C   0  0  1  0  0  3  0  0  0  0  0  0
  160.8240  206.1740  150.7550 C   0  0  1  0  0  3  0  0  0  0  0  0
  161.3810  207.0110  149.6160 C   0  0  0  0  0  2  0  0  0  0  0  0
  161.7360  208.3560  150.2060 C   0  0  0  0  0  2  0  0  0  0  0  0
  1 25  1  6  0  0  0
  2  7  1  0  0  0  0
  4  3  1  6  0  0  0
  4 14  1  0  0  0  0
  5  4  1  0  0  0  0
  6  1  1  0  0  0  0
  7 13  1  1  0  0  0
  8  4  1  0  0  0  0
  9  6  2  0  0  0  0
  9  7  1  0  0  0  0
 10  9  1  0  0  0  0
 10  8  1  1  0  0  0
 11 10  1  0  0  0  0
 11  2  1  1  0  0  0
 11  5  1  0  0  0  0
 13 12  1  0  0  0  0
 14 15  1  0  0  0  0
 17 21  1  0  0  0  0
 17 23  1  0  0  0  0
 17 19  1  1  0  0  0
 18 24  1  0  0  0  0
 18 16  1  0  0  0  0
 20 23  1  0  0  0  0
 22  1  1  6  0  0  0
 22 24  1  0  0  0  0
 22 21  1  0  0  0  0
 24 20  1  0  0  0  0
 24 16  1  0  0  0  0
 26 25  1  0  0  0  0
 28 30  1  0  0  0  0
 28 27  1  1  0  0  0
 29 30  1  0  0  0  0
 29 26  1  1  0  0  0
 31 28  1  0  0  0  0
 31 30  1  0  0  0  0
 32 33  1  0  0  0  0
 32 31  1  0  0  0  0
 33 29  1  0  0  0  0
M  END
>  <MODEL>
6

>  <REMARK>
 VINA RESULT:      -4.6      3.404      5.096
  Name = 
  7 active torsions:
  status: ('A' for Active; 'I' for Inactive)
    1  A    between atoms: C_9  and  C_25
    2  A    between atoms: C_12  and  C_20
    3  A    between atoms: C_14  and  N_17
    4  A    between atoms: C_14  and  C_21
    5  A    between atoms: C_14  and  C_23
    6  A    between atoms: C_19  and  C_30
    7  A    between atoms: C_21  and  C_25
                            x       y       z     vdW  Elec       q    Type
                         _______ _______ _______ _____ _____    ______ ____

>  <TORSDO>
F 7

$$$$
=
 OpenBabel11072410203D

 33 38  0  0  1  0  0  0  0  0999 V2000
  161.4770  207.7240  151.4390 C   0  0  1  0  0  3  0  0  0  0  0  0
  161.6340  208.1430  155.7760 C   0  0  0  0  0  2  0  0  0  0  0  0
  160.4560  212.5790  156.1140 C   0  0  0  0  0  1  0  0  0  0  0  0
  159.9750  211.2590  155.5340 C   0  0  2  0  0  0  0  0  0  0  0  0
  160.4760  210.1040  156.3750 C   0  0  0  0  0  2  0  0  0  0  0  0
  161.6080  208.9050  152.2590 N   0  0  0  0  0  0  0  0  0  0  0  0
  161.3840  207.6420  154.3600 C   0  0  2  0  0  3  0  0  0  0  0  0
  160.5930  211.0500  154.1770 C   0  0  0  0  0  2  0  0  0  0  0  0
  161.5380  208.8690  153.5470 C   0  0  0  0  0  0  0  0  0  0  0  0
  161.7340  210.0690  154.3860 C   0  0  2  0  0  3  0  0  0  0  0  0
  161.7120  209.6100  155.7800 N   0  0  2  0  0  0  0  0  0  0  0  0
  159.3430  206.9530  155.6170 C   0  0  0  0  0  1  0  0  0  0  0  0
  159.9620  207.1140  154.2400 C   0  0  0  0  0  2  0  0  0  0  0  0
  158.4560  211.2370  155.4160 C   0  0  0  0  0  2  0  0  0  0  0  0
  158.0520  211.4530  154.0960 O   0  0  0  0  0  1  0  0  0  0  0  0
  161.3190  210.0830  148.4970 C   0  0  0  0  0  2  0  0  0  0  0  0
  161.6060  206.1480  148.5690 C   0  0  2  0  0  3  0  0  0  0  0  0
  162.3310  210.2820  149.6190 C   0  0  0  0  0  2  0  0  0  0  0  0
  161.0950  204.9730  147.8870 N   0  0  0  0  0  1  0  0  0  0  0  0
  162.9190  208.1180  148.3060 C   0  0  0  0  0  2  0  0  0  0  0  0
  160.4560  206.8550  149.2930 C   0  0  0  0  0  2  0  0  0  0  0  0
  160.9480  208.0960  150.0460 C   0  0  2  0  0  3  0  0  0  0  0  0
  162.2150  207.0530  147.5930 N   0  0  0  0  0  2  0  0  0  0  0  0
  161.9390  208.8890  149.1840 C   0  0  0  0  0  0  0  0  0  0  0  0
  162.7940  206.9540  151.4060 C   0  0  0  0  0  2  0  0  0  0  0  0
  162.7060  205.6950  152.2560 C   0  0  0  0  0  2  0  0  0  0  0  0
  161.3170  202.2560  149.2750 O   0  0  0  0  0  1  0  0  0  0  0  0
  160.8070  203.0620  150.2910 C   0  0  2  0  0  3  0  0  0  0  0  0
  161.4980  204.8550  151.8670 C   0  0  1  0  0  3  0  0  0  0  0  0
  161.9570  203.6240  151.1060 C   0  0  1  0  0  3  0  0  0  0  0  0
  161.1500  202.4490  151.6360 C   0  0  1  0  0  3  0  0  0  0  0  0
  160.2230  202.9960  152.7080 C   0  0  0  0  0  2  0  0  0  0  0  0
  160.7690  204.3500  153.0960 C   0  0  0  0  0  2  0  0  0  0  0  0
  1 25  1  6  0  0  0
  1  6  1  0  0  0  0
  4  3  1  1  0  0  0
  4  5  1  0  0  0  0
  6  9  2  0  0  0  0
  7 13  1  1  0  0  0
  7  2  1  0  0  0  0
  8  4  1  0  0  0  0
  9  7  1  0  0  0  0
  9 10  1  0  0  0  0
 10  8  1  1  0  0  0
 10 11  1  0  0  0  0
 11  2  1  6  0  0  0
 11  5  1  0  0  0  0
 13 12  1  0  0  0  0
 14  4  1  0  0  0  0
 15 14  1  0  0  0  0
 16 24  1  0  0  0  0
 16 18  1  0  0  0  0
 17 19  1  6  0  0  0
 17 21  1  0  0  0  0
 20 24  1  0  0  0  0
 21 22  1  0  0  0  0
 22  1  1  1  0  0  0
 23 20  1  0  0  0  0
 23 17  1  0  0  0  0
 24 18  1  0  0  0  0
 24 22  1  0  0  0  0
 25 26  1  0  0  0  0
 28 27  1  6  0  0  0
 28 30  1  0  0  0  0
 28 31  1  0  0  0  0
 29 26  1  1  0  0  0
 29 33  1  0  0  0  0
 30 31  1  0  0  0  0
 30 29  1  0  0  0  0
 31 32  1  0  0  0  0
 32 33  1  0  0  0  0
M  END
>  <MODEL>
7

>  <REMARK>
 VINA RESULT:      -4.1      3.059      5.690
  Name = 
  7 active torsions:
  status: ('A' for Active; 'I' for Inactive)
    1  A    between atoms: C_9  and  C_25
    2  A    between atoms: C_12  and  C_20
    3  A    between atoms: C_14  and  N_17
    4  A    between atoms: C_14  and  C_21
    5  A    between atoms: C_14  and  C_23
    6  A    between atoms: C_19  and  C_30
    7  A    between atoms: C_21  and  C_25
                            x       y       z     vdW  Elec       q    Type
                         _______ _______ _______ _____ _____    ______ ____

>  <TORSDO>
F 7

$$$$
=
 OpenBabel11072410203D

 33 38  0  0  1  0  0  0  0  0999 V2000
  161.4010  209.8760  153.6900 C   0  0  1  0  0  3  0  0  0  0  0  0
  158.8370  213.4000  153.5650 C   0  0  0  0  0  2  0  0  0  0  0  0
  154.8380  211.4220  154.6950 C   0  0  0  0  0  1  0  0  0  0  0  0
  156.2670  211.5870  155.1860 C   0  0  2  0  0  0  0  0  0  0  0  0
  156.8370  212.9050  154.7060 C   0  0  0  0  0  2  0  0  0  0  0  0
  159.9680  209.9840  153.5530 N   0  0  0  0  0  0  0  0  0  0  0  0
  159.9860  212.4320  153.8090 C   0  0  2  0  0  3  0  0  0  0  0  0
  157.1390  210.5330  154.5590 C   0  0  0  0  0  2  0  0  0  0  0  0
  159.3430  211.1100  153.6340 C   0  0  0  0  0  0  0  0  0  0  0  0
  157.8850  211.2260  153.4310 C   0  0  2  0  0  3  0  0  0  0  0  0
  157.5710  212.6590  153.4700 N   0  0  2  0  0  0  0  0  0  0  0  0
  159.6940  213.6370  155.9720 C   0  0  0  0  0  1  0  0  0  0  0  0
  160.4940  212.5780  155.2360 C   0  0  0  0  0  2  0  0  0  0  0  0
  156.3370  211.4760  156.7050 C   0  0  0  0  0  2  0  0  0  0  0  0
  155.0650  211.2870  157.2520 O   0  0  0  0  0  1  0  0  0  0  0  0
  161.2720  208.6480  157.2570 C   0  0  0  0  0  2  0  0  0  0  0  0
  160.8270  206.6560  153.8790 C   0  0  2  0  0  3  0  0  0  0  0  0
  160.4260  209.8280  156.7940 C   0  0  0  0  0  2  0  0  0  0  0  0
  161.1920  205.3920  153.2660 N   0  0  0  0  0  1  0  0  0  0  0  0
  159.5770  207.6590  155.6420 C   0  0  0  0  0  2  0  0  0  0  0  0
  162.0920  207.4830  154.1310 C   0  0  0  0  0  2  0  0  0  0  0  0
  161.7580  208.8380  154.7640 C   0  0  2  0  0  3  0  0  0  0  0  0
  160.1340  206.4020  155.1440 N   0  0  0  0  0  2  0  0  0  0  0  0
  160.6970  208.6720  155.8600 C   0  0  0  0  0  0  0  0  0  0  0  0
  162.0420  209.5970  152.3330 C   0  0  0  0  0  2  0  0  0  0  0  0
  161.0260  209.0070  151.3660 C   0  0  0  0  0  2  0  0  0  0  0  0
  160.7230  204.5050  149.8560 O   0  0  0  0  0  1  0  0  0  0  0  0
  161.4970  205.6490  149.6640 C   0  0  2  0  0  3  0  0  0  0  0  0
  161.6820  208.0070  150.4250 C   0  0  1  0  0  3  0  0  0  0  0  0
  160.7260  206.8600  150.1540 C   0  0  1  0  0  3  0  0  0  0  0  0
  160.8060  206.5580  148.6650 C   0  0  1  0  0  3  0  0  0  0  0  0
  161.8080  207.5330  148.0700 C   0  0  0  0  0  2  0  0  0  0  0  0
  161.9800  208.6410  149.0820 C   0  0  0  0  0  2  0  0  0  0  0  0
  1 25  1  6  0  0  0
  2  7  1  0  0  0  0
  4  3  1  6  0  0  0
  4 14  1  0  0  0  0
  5  4  1  0  0  0  0
  6  9  2  0  0  0  0
  6  1  1  0  0  0  0
  7 13  1  1  0  0  0
  8  4  1  0  0  0  0
  9  7  1  0  0  0  0
 10 11  1  0  0  0  0
 10  9  1  0  0  0  0
 10  8  1  1  0  0  0
 11  2  1  1  0  0  0
 11  5  1  0  0  0  0
 13 12  1  0  0  0  0
 14 15  1  0  0  0  0
 17 19  1  1  0  0  0
 17 21  1  0  0  0  0
 17 23  1  0  0  0  0
 18 16  1  0  0  0  0
 20 24  1  0  0  0  0
 21 22  1  0  0  0  0
 22  1  1  6  0  0  0
 22 24  1  0  0  0  0
 23 20  1  0  0  0  0
 24 18  1  0  0  0  0
 24 16  1  0  0  0  0
 26 25  1  0  0  0  0
 28 27  1  1  0  0  0
 28 30  1  0  0  0  0
 29 26  1  1  0  0  0
 30 29  1  0  0  0  0
 31 28  1  0  0  0  0
 31 30  1  0  0  0  0
 32 31  1  0  0  0  0
 32 33  1  0  0  0  0
 33 29  1  0  0  0  0
M  END
>  <MODEL>
8

>  <REMARK>
 VINA RESULT:      -3.8      2.773      4.324
  Name = 
  7 active torsions:
  status: ('A' for Active; 'I' for Inactive)
    1  A    between atoms: C_9  and  C_25
    2  A    between atoms: C_12  and  C_20
    3  A    between atoms: C_14  and  N_17
    4  A    between atoms: C_14  and  C_21
    5  A    between atoms: C_14  and  C_23
    6  A    between atoms: C_19  and  C_30
    7  A    between atoms: C_21  and  C_25
                            x       y       z     vdW  Elec       q    Type
                         _______ _______ _______ _____ _____    ______ ____

>  <TORSDO>
F 7

$$$$
=
 OpenBabel11072410203D

 33 38  0  0  1  0  0  0  0  0999 V2000
  162.0610  210.0500  150.2620 C   0  0  1  0  0  3  0  0  0  0  0  0
  160.5500  205.9600  150.2080 C   0  0  0  0  0  2  0  0  0  0  0  0
  161.2060  205.0100  145.7530 C   0  0  0  0  0  1  0  0  0  0  0  0
  161.9460  205.4870  146.9910 C   0  0  2  0  0  0  0  0  0  0  0  0
  161.3070  204.9140  148.2380 C   0  0  0  0  0  2  0  0  0  0  0  0
  161.5910  209.2420  149.1620 N   0  0  0  0  0  0  0  0  0  0  0  0
  161.2610  207.2550  150.5760 C   0  0  2  0  0  3  0  0  0  0  0  0
  161.7920  206.9790  147.1240 C   0  0  0  0  0  2  0  0  0  0  0  0
  161.2650  208.0010  149.2980 C   0  0  0  0  0  0  0  0  0  0  0  0
  160.7250  207.1950  148.1840 C   0  0  2  0  0  3  0  0  0  0  0  0
  160.3560  205.8930  148.7530 N   0  0  2  0  0  0  0  0  0  0  0  0
  162.7060  205.8290  152.0250 C   0  0  0  0  0  1  0  0  0  0  0  0
  162.6890  206.9570  151.0090 C   0  0  0  0  0  2  0  0  0  0  0  0
  163.4250  205.1280  146.9140 C   0  0  0  0  0  2  0  0  0  0  0  0
  163.7070  204.4130  145.7470 O   0  0  0  0  0  1  0  0  0  0  0  0
  163.4970  212.5670  147.8450 C   0  0  0  0  0  2  0  0  0  0  0  0
  159.9370  212.4370  149.5420 C   0  0  2  0  0  3  0  0  0  0  0  0
  163.5230  211.0740  147.5420 C   0  0  0  0  0  2  0  0  0  0  0  0
  158.9510  213.3120  150.1520 N   0  0  0  0  0  1  0  0  0  0  0  0
  161.0640  211.9150  147.5100 C   0  0  0  0  0  2  0  0  0  0  0  0
  161.2060  212.4260  150.4010 C   0  0  0  0  0  2  0  0  0  0  0  0
  162.2740  211.5000  149.8080 C   0  0  2  0  0  3  0  0  0  0  0  0
  160.2470  212.9170  148.1940 N   0  0  0  0  0  2  0  0  0  0  0  0
  162.3560  211.6810  148.2860 C   0  0  0  0  0  0  0  0  0  0  0  0
  161.1210  209.9150  151.4570 C   0  0  0  0  0  2  0  0  0  0  0  0
  161.8960  209.9780  152.7650 C   0  0  0  0  0  2  0  0  0  0  0  0
  160.0820  206.9550  155.9590 O   0  0  0  0  0  1  0  0  0  0  0  0
  160.0260  208.3030  155.6100 C   0  0  2  0  0  3  0  0  0  0  0  0
  160.9580  209.9120  153.9620 C   0  0  1  0  0  3  0  0  0  0  0  0
  161.2300  208.6450  154.7520 C   0  0  1  0  0  3  0  0  0  0  0  0
  161.2090  209.0280  156.2240 C   0  0  1  0  0  3  0  0  0  0  0  0
  160.9280  210.5190  156.2890 C   0  0  0  0  0  2  0  0  0  0  0  0
  161.2060  211.0680  154.9090 C   0  0  0  0  0  2  0  0  0  0  0  0
  1 25  1  1  0  0  0
  2  7  1  0  0  0  0
  4  3  1  6  0  0  0
  4  8  1  0  0  0  0
  4  5  1  0  0  0  0
  6  9  2  0  0  0  0
  6  1  1  0  0  0  0
  7 13  1  6  0  0  0
  9  7  1  0  0  0  0
 10  8  1  6  0  0  0
 10 11  1  0  0  0  0
 10  9  1  0  0  0  0
 11  5  1  6  0  0  0
 11  2  1  0  0  0  0
 13 12  1  0  0  0  0
 14  4  1  0  0  0  0
 15 14  1  0  0  0  0
 16 24  1  0  0  0  0
 17 19  1  1  0  0  0
 17 21  1  0  0  0  0
 18 16  1  0  0  0  0
 18 24  1  0  0  0  0
 20 23  1  0  0  0  0
 20 24  1  0  0  0  0
 22  1  1  6  0  0  0
 22 21  1  0  0  0  0
 23 17  1  0  0  0  0
 24 22  1  0  0  0  0
 25 26  1  0  0  0  0
 28 27  1  1  0  0  0
 28 31  1  0  0  0  0
 29 26  1  6  0  0  0
 29 30  1  0  0  0  0
 29 33  1  0  0  0  0
 30 28  1  0  0  0  0
 30 31  1  0  0  0  0
 31 32  1  0  0  0  0
 33 32  1  0  0  0  0
M  END
>  <MODEL>
9

>  <REMARK>
 VINA RESULT:      -3.5      3.145      7.952
  Name = 
  7 active torsions:
  status: ('A' for Active; 'I' for Inactive)
    1  A    between atoms: C_9  and  C_25
    2  A    between atoms: C_12  and  C_20
    3  A    between atoms: C_14  and  N_17
    4  A    between atoms: C_14  and  C_21
    5  A    between atoms: C_14  and  C_23
    6  A    between atoms: C_19  and  C_30
    7  A    between atoms: C_21  and  C_25
                            x       y       z     vdW  Elec       q    Type
                         _______ _______ _______ _____ _____    ______ ____

>  <TORSDO>
F 7

$$$$
