=
 OpenBabel11072411343D

 25 29  0  0  1  0  0  0  0  0999 V2000
  160.2440  205.9170  145.7160 C   0  0  0  0  0  0  0  0  0  0  0  0
  163.4720  204.5370  145.3260 C   0  0  0  0  0  1  0  0  0  0  0  0
  161.1820  203.5480  148.2260 S   0  0  0  0  0  0  0  0  0  0  0  0
  162.3450  206.4870  146.6230 C   0  0  1  0  0  3  0  0  0  0  0  0
  160.8430  206.7320  146.7960 C   0  0  2  0  0  3  0  0  0  0  0  0
  160.6900  203.3440  149.9370 C   0  0  0  0  0  0  0  0  0  0  0  0
  161.1900  205.2870  144.8810 N   0  0  0  0  0  2  0  0  0  0  0  0
  159.0030  205.7910  145.5400 O   0  0  0  0  0  0  0  0  0  0  0  0
  162.8210  205.7170  147.8550 C   0  0  0  0  0  2  0  0  0  0  0  0
  161.5880  205.2810  148.6180 C   0  0  2  0  0  0  0  0  0  0  0  0
  161.0650  204.2680  150.7520 N   0  0  0  0  0  0  0  0  0  0  0  0
  161.8430  205.3240  150.1320 C   0  0  2  0  0  3  0  0  0  0  0  0
  162.5130  205.7180  145.2870 C   0  0  2  0  0  3  0  0  0  0  0  0
  160.4510  206.1800  148.1560 C   0  0  0  0  0  2  0  0  0  0  0  0
  161.1080  205.8690  153.1500 C   0  0  0  0  0  3  0  0  0  0  0  0
  161.5670  209.1010  150.6210 C   0  0  0  0  0  3  0  0  0  0  0  0
  160.7930  206.6300  154.2770 C   0  0  0  0  0  3  0  0  0  0  0  0
  161.7710  207.8340  150.0370 C   0  0  0  0  0  3  0  0  0  0  0  0
  161.6490  206.6600  150.8030 C   0  0  0  0  0  0  0  0  0  0  0  0
  161.2330  209.2140  151.9820 C   0  0  0  0  0  3  0  0  0  0  0  0
  161.3100  206.8070  152.1570 C   0  0  0  0  0  0  0  0  0  0  0  0
  161.1120  208.0370  152.7160 C   0  0  0  0  0  0  0  0  0  0  0  0
  160.8070  207.9180  153.9790 O   0  0  0  0  0  0  0  0  0  0  0  0
  159.9090  202.2790  150.3860 O   0  0  0  0  0  0  0  0  0  0  0  0
  160.0180  200.9800  149.8270 C   0  0  0  0  0  1  0  0  0  0  0  0
  1  5  1  0  0  0  0
  3 10  1  0  0  0  0
  3  6  1  0  0  0  0
  4  5  1  0  0  0  0
  4  9  1  1  0  0  0
  5 14  1  1  0  0  0
  6 24  1  0  0  0  0
  6 11  2  0  0  0  0
  7 13  1  0  0  0  0
  7  1  1  0  0  0  0
  8  1  2  0  0  0  0
 10  9  1  6  0  0  0
 10 12  1  0  0  0  0
 12 11  1  0  0  0  0
 12 19  1  1  0  0  0
 13  2  1  1  0  0  0
 13  4  1  0  0  0  0
 14 10  1  0  0  0  0
 15 17  2  0  0  0  0
 16 20  1  0  0  0  0
 18 16  2  0  0  0  0
 18 19  1  0  0  0  0
 19 21  2  0  0  0  0
 20 22  2  0  0  0  0
 21 22  1  0  0  0  0
 21 15  1  0  0  0  0
 22 23  1  0  0  0  0
 23 17  1  0  0  0  0
 25 24  1  0  0  0  0
M  END
>  <MODEL>
1

>  <REMARK>
 VINA RESULT:      -6.9      0.000      0.000
  Name = 
  2 active torsions:
  status: ('A' for Active; 'I' for Inactive)
    1  A    between atoms: O_2  and  C_13
    2  A    between atoms: C_12  and  C_22
                            x       y       z     vdW  Elec       q    Type
                         _______ _______ _______ _____ _____    ______ ____

>  <TORSDO>
F 2

$$$$
=
 OpenBabel11072411343D

 25 29  0  0  1  0  0  0  0  0999 V2000
  156.1770  212.1770  155.2400 C   0  0  0  0  0  0  0  0  0  0  0  0
  158.2820  214.4530  156.9330 C   0  0  0  0  0  1  0  0  0  0  0  0
  158.8110  213.5570  153.2530 S   0  0  0  0  0  0  0  0  0  0  0  0
  158.2450  211.9220  156.3460 C   0  0  1  0  0  3  0  0  0  0  0  0
  157.2930  211.2140  155.3760 C   0  0  2  0  0  3  0  0  0  0  0  0
  159.6940  212.9380  151.8210 C   0  0  0  0  0  0  0  0  0  0  0  0
  156.3030  213.3200  156.0580 N   0  0  0  0  0  2  0  0  0  0  0  0
  155.1930  212.0040  154.4740 O   0  0  0  0  0  0  0  0  0  0  0  0
  159.5150  212.2580  155.5650 C   0  0  0  0  0  2  0  0  0  0  0  0
  159.2270  211.9980  154.1010 C   0  0  2  0  0  0  0  0  0  0  0  0
  160.4560  211.9190  152.0190 N   0  0  0  0  0  0  0  0  0  0  0  0
  160.4740  211.4500  153.3920 C   0  0  2  0  0  3  0  0  0  0  0  0
  157.4820  213.1590  156.8850 C   0  0  2  0  0  3  0  0  0  0  0  0
  158.0270  211.0650  154.0540 C   0  0  0  0  0  2  0  0  0  0  0  0
  161.2400  209.8010  155.9680 C   0  0  0  0  0  3  0  0  0  0  0  0
  160.8310  207.7830  152.3880 C   0  0  0  0  0  3  0  0  0  0  0  0
  161.5780  208.6710  156.7150 C   0  0  0  0  0  3  0  0  0  0  0  0
  160.5980  209.1730  152.3370 C   0  0  0  0  0  3  0  0  0  0  0  0
  160.7000  209.9630  153.4960 C   0  0  0  0  0  0  0  0  0  0  0  0
  161.1760  207.1610  153.6010 C   0  0  0  0  0  3  0  0  0  0  0  0
  161.0510  209.3130  154.6900 C   0  0  0  0  0  0  0  0  0  0  0  0
  161.2770  207.9670  154.7320 C   0  0  0  0  0  0  0  0  0  0  0  0
  161.5890  207.5970  155.9450 O   0  0  0  0  0  0  0  0  0  0  0  0
  159.5530  213.4800  150.5440 O   0  0  0  0  0  0  0  0  0  0  0  0
  160.5530  213.3280  149.5500 C   0  0  0  0  0  1  0  0  0  0  0  0
  1  5  1  0  0  0  0
  1  7  1  0  0  0  0
  3 10  1  0  0  0  0
  4  9  1  6  0  0  0
  4 13  1  0  0  0  0
  5 14  1  6  0  0  0
  5  4  1  0  0  0  0
  6 11  2  0  0  0  0
  6  3  1  0  0  0  0
  7 13  1  0  0  0  0
  8  1  2  0  0  0  0
 10 14  1  6  0  0  0
 10  9  1  0  0  0  0
 11 12  1  0  0  0  0
 12 19  1  6  0  0  0
 12 10  1  0  0  0  0
 13  2  1  6  0  0  0
 15 17  2  0  0  0  0
 16 20  1  0  0  0  0
 18 16  2  0  0  0  0
 18 19  1  0  0  0  0
 19 21  2  0  0  0  0
 20 22  2  0  0  0  0
 21 22  1  0  0  0  0
 21 15  1  0  0  0  0
 22 23  1  0  0  0  0
 23 17  1  0  0  0  0
 24  6  1  0  0  0  0
 25 24  1  0  0  0  0
M  END
>  <MODEL>
2

>  <REMARK>
 VINA RESULT:      -6.5      5.873      9.350
  Name = 
  2 active torsions:
  status: ('A' for Active; 'I' for Inactive)
    1  A    between atoms: O_2  and  C_13
    2  A    between atoms: C_12  and  C_22
                            x       y       z     vdW  Elec       q    Type
                         _______ _______ _______ _____ _____    ______ ____

>  <TORSDO>
F 2

$$$$
=
 OpenBabel11072411343D

 25 29  0  0  1  0  0  0  0  0999 V2000
  162.4240  210.1810  156.6170 C   0  0  0  0  0  0  0  0  0  0  0  0
  160.3350  207.3390  156.8210 C   0  0  0  0  0  1  0  0  0  0  0  0
  161.5940  208.6930  153.4720 S   0  0  0  0  0  0  0  0  0  0  0  0
  160.0880  209.8990  156.4450 C   0  0  1  0  0  3  0  0  0  0  0  0
  161.2120  210.9030  156.1680 C   0  0  2  0  0  3  0  0  0  0  0  0
  161.4630  209.3650  151.8160 C   0  0  0  0  0  0  0  0  0  0  0  0
  162.1600  208.9210  157.1930 N   0  0  0  0  0  2  0  0  0  0  0  0
  163.5920  210.6390  156.5080 O   0  0  0  0  0  0  0  0  0  0  0  0
  159.5210  209.4740  155.0910 C   0  0  0  0  0  2  0  0  0  0  0  0
  160.4540  210.0040  154.0240 C   0  0  2  0  0  0  0  0  0  0  0  0
  160.4980  210.1940  151.6120 N   0  0  0  0  0  0  0  0  0  0  0  0
  159.6660  210.4330  152.7770 C   0  0  2  0  0  3  0  0  0  0  0  0
  160.7230  208.7430  157.2610 C   0  0  2  0  0  3  0  0  0  0  0  0
  161.2540  211.1270  154.6660 C   0  0  0  0  0  2  0  0  0  0  0  0
  157.1590  211.4360  154.4050 C   0  0  0  0  0  3  0  0  0  0  0  0
  159.1370  214.1290  151.9780 C   0  0  0  0  0  3  0  0  0  0  0  0
  156.1910  212.3430  154.8420 C   0  0  0  0  0  3  0  0  0  0  0  0
  159.6700  212.8230  152.0050 C   0  0  0  0  0  3  0  0  0  0  0  0
  159.0850  211.8230  152.8020 C   0  0  0  0  0  0  0  0  0  0  0  0
  158.0050  214.4530  152.7450 C   0  0  0  0  0  3  0  0  0  0  0  0
  157.9520  212.1770  153.5520 C   0  0  0  0  0  0  0  0  0  0  0  0
  157.4400  213.4440  153.5200 C   0  0  0  0  0  0  0  0  0  0  0  0
  156.3920  213.5290  154.2930 O   0  0  0  0  0  0  0  0  0  0  0  0
  162.3630  209.0620  150.7950 O   0  0  0  0  0  0  0  0  0  0  0  0
  161.9330  208.5630  149.5390 C   0  0  0  0  0  1  0  0  0  0  0  0
  1  7  1  0  0  0  0
  3 10  1  0  0  0  0
  4  9  1  6  0  0  0
  4 13  1  0  0  0  0
  5 14  1  6  0  0  0
  5  4  1  0  0  0  0
  5  1  1  0  0  0  0
  6  3  1  0  0  0  0
  7 13  1  0  0  0  0
  8  1  2  0  0  0  0
 10 14  1  1  0  0  0
 10  9  1  0  0  0  0
 11  6  2  0  0  0  0
 11 12  1  0  0  0  0
 12 19  1  1  0  0  0
 12 10  1  0  0  0  0
 13  2  1  6  0  0  0
 15 17  2  0  0  0  0
 16 18  2  0  0  0  0
 16 20  1  0  0  0  0
 18 19  1  0  0  0  0
 19 21  2  0  0  0  0
 20 22  2  0  0  0  0
 21 15  1  0  0  0  0
 22 21  1  0  0  0  0
 22 23  1  0  0  0  0
 23 17  1  0  0  0  0
 24  6  1  0  0  0  0
 25 24  1  0  0  0  0
M  END
>  <MODEL>
3

>  <REMARK>
 VINA RESULT:      -6.5      4.785      8.618
  Name = 
  2 active torsions:
  status: ('A' for Active; 'I' for Inactive)
    1  A    between atoms: O_2  and  C_13
    2  A    between atoms: C_12  and  C_22
                            x       y       z     vdW  Elec       q    Type
                         _______ _______ _______ _____ _____    ______ ____

>  <TORSDO>
F 2

$$$$
=
 OpenBabel11072411343D

 25 29  0  0  1  0  0  0  0  0999 V2000
  156.6110  212.0520  155.5380 C   0  0  0  0  0  0  0  0  0  0  0  0
  158.9770  214.1830  157.0690 C   0  0  0  0  0  1  0  0  0  0  0  0
  159.2790  213.1200  153.4070 S   0  0  0  0  0  0  0  0  0  0  0  0
  158.6900  211.6470  156.5770 C   0  0  1  0  0  3  0  0  0  0  0  0
  157.6410  210.9970  155.6690 C   0  0  2  0  0  3  0  0  0  0  0  0
  160.0460  212.3750  151.9690 C   0  0  0  0  0  0  0  0  0  0  0  0
  156.8710  213.2050  156.3080 N   0  0  0  0  0  2  0  0  0  0  0  0
  155.5870  211.9440  154.8140 O   0  0  0  0  0  0  0  0  0  0  0  0
  159.9540  211.8400  155.7390 C   0  0  0  0  0  2  0  0  0  0  0  0
  159.5870  211.5590  154.2980 C   0  0  2  0  0  0  0  0  0  0  0  0
  160.7200  211.2980  152.1770 N   0  0  0  0  0  0  0  0  0  0  0  0
  160.7510  210.8750  153.5640 C   0  0  2  0  0  3  0  0  0  0  0  0
  158.0630  212.9660  157.0970 C   0  0  2  0  0  3  0  0  0  0  0  0
  158.3070  210.7380  154.3280 C   0  0  0  0  0  2  0  0  0  0  0  0
  161.1210  208.7350  151.2780 C   0  0  0  0  0  3  0  0  0  0  0  0
  160.7910  207.4140  155.1770 C   0  0  0  0  0  3  0  0  0  0  0  0
  161.2410  207.4610  150.7200 C   0  0  0  0  0  3  0  0  0  0  0  0
  160.7370  208.8120  154.9980 C   0  0  0  0  0  3  0  0  0  0  0  0
  160.8460  209.3790  153.7150 C   0  0  0  0  0  0  0  0  0  0  0  0
  160.9520  206.5600  154.0730 C   0  0  0  0  0  3  0  0  0  0  0  0
  161.0000  208.4980  152.6330 C   0  0  0  0  0  0  0  0  0  0  0  0
  161.0510  207.1450  152.8130 C   0  0  0  0  0  0  0  0  0  0  0  0
  161.1950  206.5390  151.6660 O   0  0  0  0  0  0  0  0  0  0  0  0
  159.9040  212.8840  150.6780 O   0  0  0  0  0  0  0  0  0  0  0  0
  158.7340  213.5700  150.2660 C   0  0  0  0  0  1  0  0  0  0  0  0
  1  5  1  0  0  0  0
  1  7  1  0  0  0  0
  3 10  1  0  0  0  0
  4  9  1  6  0  0  0
  4 13  1  0  0  0  0
  5 14  1  6  0  0  0
  5  4  1  0  0  0  0
  6 11  2  0  0  0  0
  6  3  1  0  0  0  0
  7 13  1  0  0  0  0
  8  1  2  0  0  0  0
 10 14  1  6  0  0  0
 10  9  1  0  0  0  0
 11 12  1  0  0  0  0
 12 19  1  6  0  0  0
 12 10  1  0  0  0  0
 13  2  1  6  0  0  0
 15 21  1  0  0  0  0
 17 15  2  0  0  0  0
 17 23  1  0  0  0  0
 18 16  1  0  0  0  0
 19 18  2  0  0  0  0
 20 16  2  0  0  0  0
 21 22  2  0  0  0  0
 21 19  1  0  0  0  0
 22 20  1  0  0  0  0
 23 22  1  0  0  0  0
 24  6  1  0  0  0  0
 25 24  1  0  0  0  0
M  END
>  <MODEL>
4

>  <REMARK>
 VINA RESULT:      -6.2      5.332      9.258
  Name = 
  2 active torsions:
  status: ('A' for Active; 'I' for Inactive)
    1  A    between atoms: O_2  and  C_13
    2  A    between atoms: C_12  and  C_22
                            x       y       z     vdW  Elec       q    Type
                         _______ _______ _______ _____ _____    ______ ____

>  <TORSDO>
F 2

$$$$
=
 OpenBabel11072411343D

 25 29  0  0  1  0  0  0  0  0999 V2000
  158.9370  210.1780  155.6630 C   0  0  0  0  0  0  0  0  0  0  0  0
  162.1340  211.0870  156.8590 C   0  0  0  0  0  1  0  0  0  0  0  0
  161.2910  211.0870  153.1280 S   0  0  0  0  0  0  0  0  0  0  0  0
  160.9410  208.9660  155.9470 C   0  0  1  0  0  3  0  0  0  0  0  0
  159.5710  208.9010  155.2640 C   0  0  2  0  0  3  0  0  0  0  0  0
  161.4520  210.6180  151.4060 C   0  0  0  0  0  0  0  0  0  0  0  0
  159.7150  210.9510  156.5510 N   0  0  0  0  0  2  0  0  0  0  0  0
  157.8040  210.5530  155.2610 O   0  0  0  0  0  0  0  0  0  0  0  0
  161.9910  209.0590  154.8390 C   0  0  0  0  0  2  0  0  0  0  0  0
  161.2560  209.3120  153.5400 C   0  0  2  0  0  0  0  0  0  0  0  0
  161.7670  209.3910  151.1770 N   0  0  0  0  0  0  0  0  0  0  0  0
  161.9510  208.5930  152.3750 C   0  0  2  0  0  3  0  0  0  0  0  0
  160.9030  210.1940  156.8930 C   0  0  2  0  0  3  0  0  0  0  0  0
  159.8160  208.8770  153.7650 C   0  0  0  0  0  2  0  0  0  0  0  0
  161.0930  207.1890  149.6840 C   0  0  0  0  0  3  0  0  0  0  0  0
  161.2140  204.9240  153.1350 C   0  0  0  0  0  3  0  0  0  0  0  0
  160.6660  206.1470  148.8600 C   0  0  0  0  0  3  0  0  0  0  0  0
  161.5800  206.2780  153.2790 C   0  0  0  0  0  3  0  0  0  0  0  0
  161.5840  207.1450  152.1710 C   0  0  0  0  0  0  0  0  0  0  0  0
  160.8410  204.4160  151.8790 C   0  0  0  0  0  3  0  0  0  0  0  0
  161.2010  206.6080  150.9320 C   0  0  0  0  0  0  0  0  0  0  0  0
  160.8460  205.2950  150.8000 C   0  0  0  0  0  0  0  0  0  0  0  0
  160.5310  205.0340  149.5600 O   0  0  0  0  0  0  0  0  0  0  0  0
  161.2130  211.4970  150.3500 O   0  0  0  0  0  0  0  0  0  0  0  0
  161.9540  211.4370  149.1420 C   0  0  0  0  0  1  0  0  0  0  0  0
  1  7  1  0  0  0  0
  3 10  1  0  0  0  0
  4  9  1  6  0  0  0
  4 13  1  0  0  0  0
  5 14  1  6  0  0  0
  5  1  1  0  0  0  0
  5  4  1  0  0  0  0
  6  3  1  0  0  0  0
  7 13  1  0  0  0  0
  8  1  2  0  0  0  0
 10 14  1  1  0  0  0
 10  9  1  0  0  0  0
 11  6  2  0  0  0  0
 11 12  1  0  0  0  0
 12 19  1  6  0  0  0
 12 10  1  0  0  0  0
 13  2  1  6  0  0  0
 15 21  1  0  0  0  0
 16 18  1  0  0  0  0
 17 23  1  0  0  0  0
 17 15  2  0  0  0  0
 19 18  2  0  0  0  0
 20 16  2  0  0  0  0
 21 19  1  0  0  0  0
 22 21  2  0  0  0  0
 22 20  1  0  0  0  0
 23 22  1  0  0  0  0
 24  6  1  0  0  0  0
 25 24  1  0  0  0  0
M  END
>  <MODEL>
5

>  <REMARK>
 VINA RESULT:      -5.9      3.758      7.955
  Name = 
  2 active torsions:
  status: ('A' for Active; 'I' for Inactive)
    1  A    between atoms: O_2  and  C_13
    2  A    between atoms: C_12  and  C_22
                            x       y       z     vdW  Elec       q    Type
                         _______ _______ _______ _____ _____    ______ ____

>  <TORSDO>
F 2

$$$$
=
 OpenBabel11072411343D

 25 29  0  0  1  0  0  0  0  0999 V2000
  163.0350  204.5850  146.2240 C   0  0  0  0  0  0  0  0  0  0  0  0
  159.8830  205.3910  144.8480 C   0  0  0  0  0  1  0  0  0  0  0  0
  161.7390  207.7760  147.1930 S   0  0  0  0  0  0  0  0  0  0  0  0
  160.8310  204.3530  147.0340 C   0  0  1  0  0  3  0  0  0  0  0  0
  162.2960  204.3250  147.4810 C   0  0  2  0  0  3  0  0  0  0  0  0
  161.9870  208.7860  148.6520 C   0  0  0  0  0  0  0  0  0  0  0  0
  162.2100  204.6850  145.0850 N   0  0  0  0  0  2  0  0  0  0  0  0
  164.2870  204.7030  146.1600 O   0  0  0  0  0  0  0  0  0  0  0  0
  160.1840  205.5710  147.6920 C   0  0  0  0  0  2  0  0  0  0  0  0
  161.2950  206.3990  148.3020 C   0  0  2  0  0  0  0  0  0  0  0  0
  161.5080  208.3220  149.7540 N   0  0  0  0  0  0  0  0  0  0  0  0
  160.8310  207.0460  149.6150 C   0  0  2  0  0  3  0  0  0  0  0  0
  160.8460  204.4000  145.4840 C   0  0  2  0  0  3  0  0  0  0  0  0
  162.4910  205.4720  148.4570 C   0  0  0  0  0  2  0  0  0  0  0  0
  161.0670  208.0210  152.6050 C   0  0  0  0  0  3  0  0  0  0  0  0
  161.1010  203.9610  151.8500 C   0  0  0  0  0  3  0  0  0  0  0  0
  161.2060  207.8960  153.9890 C   0  0  0  0  0  3  0  0  0  0  0  0
  160.9710  204.7930  150.7180 C   0  0  0  0  0  3  0  0  0  0  0  0
  160.9390  206.1930  150.8530 C   0  0  0  0  0  0  0  0  0  0  0  0
  161.2060  204.5180  153.1360 C   0  0  0  0  0  3  0  0  0  0  0  0
  161.0520  206.7180  152.1500 C   0  0  0  0  0  0  0  0  0  0  0  0
  161.1790  205.9060  153.2420 C   0  0  0  0  0  0  0  0  0  0  0  0
  161.2690  206.6210  154.3300 O   0  0  0  0  0  0  0  0  0  0  0  0
  162.6910  209.9900  148.6370 O   0  0  0  0  0  0  0  0  0  0  0  0
  162.0300  211.2450  148.6350 C   0  0  0  0  0  1  0  0  0  0  0  0
  1  5  1  0  0  0  0
  3 10  1  0  0  0  0
  3  6  1  0  0  0  0
  4  5  1  0  0  0  0
  4  9  1  1  0  0  0
  5 14  1  1  0  0  0
  6 11  2  0  0  0  0
  7 13  1  0  0  0  0
  7  1  1  0  0  0  0
  8  1  2  0  0  0  0
 10  9  1  6  0  0  0
 10 14  1  0  0  0  0
 10 12  1  0  0  0  0
 12 11  1  0  0  0  0
 12 19  1  1  0  0  0
 13  2  1  1  0  0  0
 13  4  1  0  0  0  0
 15 17  2  0  0  0  0
 16 20  1  0  0  0  0
 17 23  1  0  0  0  0
 18 19  1  0  0  0  0
 18 16  2  0  0  0  0
 19 21  2  0  0  0  0
 20 22  2  0  0  0  0
 21 15  1  0  0  0  0
 21 22  1  0  0  0  0
 22 23  1  0  0  0  0
 24  6  1  0  0  0  0
 25 24  1  0  0  0  0
M  END
>  <MODEL>
6

>  <REMARK>
 VINA RESULT:      -5.4      2.432      4.095
  Name = 
  2 active torsions:
  status: ('A' for Active; 'I' for Inactive)
    1  A    between atoms: O_2  and  C_13
    2  A    between atoms: C_12  and  C_22
                            x       y       z     vdW  Elec       q    Type
                         _______ _______ _______ _____ _____    ______ ____

>  <TORSDO>
F 2

$$$$
=
 OpenBabel11072411343D

 25 29  0  0  1  0  0  0  0  0999 V2000
  159.4020  210.6830  154.0050 C   0  0  0  0  0  0  0  0  0  0  0  0
  162.6360  210.7760  155.4220 C   0  0  0  0  0  1  0  0  0  0  0  0
  162.0630  211.1260  151.6570 S   0  0  0  0  0  0  0  0  0  0  0  0
  161.0520  209.0290  154.3300 C   0  0  1  0  0  3  0  0  0  0  0  0
  159.7510  209.3120  153.5710 C   0  0  2  0  0  3  0  0  0  0  0  0
  162.2250  210.7040  149.9230 C   0  0  0  0  0  0  0  0  0  0  0  0
  160.2750  211.2180  154.9750 N   0  0  0  0  0  2  0  0  0  0  0  0
  158.4130  211.3260  153.5630 O   0  0  0  0  0  0  0  0  0  0  0  0
  162.1660  208.9220  153.2890 C   0  0  0  0  0  2  0  0  0  0  0  0
  161.5950  209.3920  151.9670 C   0  0  2  0  0  0  0  0  0  0  0  0
  162.2650  209.4480  149.6430 N   0  0  0  0  0  0  0  0  0  0  0  0
  162.1830  208.5800  150.8030 C   0  0  2  0  0  3  0  0  0  0  0  0
  161.2330  210.1920  155.3390 C   0  0  2  0  0  3  0  0  0  0  0  0
  160.0820  209.2940  152.0890 C   0  0  0  0  0  2  0  0  0  0  0  0
  161.8500  206.1040  152.7280 C   0  0  0  0  0  3  0  0  0  0  0  0
  160.3590  205.8260  148.8870 C   0  0  0  0  0  3  0  0  0  0  0  0
  161.4720  204.8150  153.1070 C   0  0  0  0  0  3  0  0  0  0  0  0
  160.9720  207.0530  149.2180 C   0  0  0  0  0  3  0  0  0  0  0  0
  161.5090  207.2660  150.5000 C   0  0  0  0  0  0  0  0  0  0  0  0
  160.2790  204.7900  149.8330 C   0  0  0  0  0  3  0  0  0  0  0  0
  161.4180  206.2100  151.4210 C   0  0  0  0  0  0  0  0  0  0  0  0
  160.8250  205.0240  151.0930 C   0  0  0  0  0  0  0  0  0  0  0  0
  160.8630  204.2020  152.1060 O   0  0  0  0  0  0  0  0  0  0  0  0
  162.2640  211.6570  148.9050 O   0  0  0  0  0  0  0  0  0  0  0  0
  161.2560  212.6450  148.7620 C   0  0  0  0  0  1  0  0  0  0  0  0
  1  7  1  0  0  0  0
  3 10  1  0  0  0  0
  4  9  1  6  0  0  0
  4 13  1  0  0  0  0
  5 14  1  6  0  0  0
  5  1  1  0  0  0  0
  5  4  1  0  0  0  0
  6  3  1  0  0  0  0
  7 13  1  0  0  0  0
  8  1  2  0  0  0  0
 10 14  1  1  0  0  0
 10  9  1  0  0  0  0
 11  6  2  0  0  0  0
 11 12  1  0  0  0  0
 12 19  1  6  0  0  0
 12 10  1  0  0  0  0
 13  2  1  6  0  0  0
 15 17  2  0  0  0  0
 16 18  2  0  0  0  0
 16 20  1  0  0  0  0
 18 19  1  0  0  0  0
 19 21  2  0  0  0  0
 20 22  2  0  0  0  0
 21 15  1  0  0  0  0
 22 21  1  0  0  0  0
 22 23  1  0  0  0  0
 23 17  1  0  0  0  0
 24  6  1  0  0  0  0
 25 24  1  0  0  0  0
M  END
>  <MODEL>
7

>  <REMARK>
 VINA RESULT:      -5.1      3.571      7.169
  Name = 
  2 active torsions:
  status: ('A' for Active; 'I' for Inactive)
    1  A    between atoms: O_2  and  C_13
    2  A    between atoms: C_12  and  C_22
                            x       y       z     vdW  Elec       q    Type
                         _______ _______ _______ _____ _____    ______ ____

>  <TORSDO>
F 2

$$$$
=
 OpenBabel11072411343D

 25 29  0  0  1  0  0  0  0  0999 V2000
  161.1360  207.4820  153.2030 C   0  0  0  0  0  0  0  0  0  0  0  0
  162.5490  209.7440  150.8860 C   0  0  0  0  0  1  0  0  0  0  0  0
  162.8290  210.2740  154.6640 S   0  0  0  0  0  0  0  0  0  0  0  0
  160.3520  209.4940  152.2520 C   0  0  1  0  0  3  0  0  0  0  0  0
  160.0820  208.5050  153.3900 C   0  0  2  0  0  3  0  0  0  0  0  0
  162.6200  211.1310  156.2240 C   0  0  0  0  0  0  0  0  0  0  0  0
  161.9410  207.6910  152.0640 N   0  0  0  0  0  2  0  0  0  0  0  0
  161.3070  206.5050  153.9780 O   0  0  0  0  0  0  0  0  0  0  0  0
  160.8010  210.8060  152.8930 C   0  0  0  0  0  2  0  0  0  0  0  0
  161.0500  210.5300  154.3610 C   0  0  2  0  0  0  0  0  0  0  0  0
  161.5260  211.7930  156.3680 N   0  0  0  0  0  0  0  0  0  0  0  0
  160.6440  211.7390  155.2170 C   0  0  2  0  0  3  0  0  0  0  0  0
  161.4180  208.8330  151.3400 C   0  0  2  0  0  3  0  0  0  0  0  0
  160.2950  209.2530  154.6950 C   0  0  0  0  0  2  0  0  0  0  0  0
  158.2860  212.9380  153.5010 C   0  0  0  0  0  3  0  0  0  0  0  0
  157.4300  211.4580  157.2600 C   0  0  0  0  0  3  0  0  0  0  0  0
  156.9760  213.3300  153.2150 C   0  0  0  0  0  3  0  0  0  0  0  0
  158.7790  211.3640  156.8580 C   0  0  0  0  0  3  0  0  0  0  0  0
  159.1870  211.8280  155.5950 C   0  0  0  0  0  0  0  0  0  0  0  0
  156.4680  212.0230  156.4050 C   0  0  0  0  0  3  0  0  0  0  0  0
  158.2040  212.3930  154.7670 C   0  0  0  0  0  0  0  0  0  0  0  0
  156.9000  212.4820  155.1630 C   0  0  0  0  0  0  0  0  0  0  0  0
  156.1790  213.0410  154.2300 O   0  0  0  0  0  0  0  0  0  0  0  0
  163.5520  211.0680  157.2610 O   0  0  0  0  0  0  0  0  0  0  0  0
  164.7510  211.8240  157.2380 C   0  0  0  0  0  1  0  0  0  0  0  0
  1  5  1  0  0  0  0
  1  8  2  0  0  0  0
  3  6  1  0  0  0  0
  4  9  1  1  0  0  0
  4  5  1  0  0  0  0
  5 14  1  1  0  0  0
  6 11  2  0  0  0  0
  6 24  1  0  0  0  0
  7  1  1  0  0  0  0
 10  9  1  6  0  0  0
 10  3  1  0  0  0  0
 10 14  1  0  0  0  0
 10 12  1  0  0  0  0
 12 19  1  1  0  0  0
 12 11  1  0  0  0  0
 13  2  1  1  0  0  0
 13  7  1  0  0  0  0
 13  4  1  0  0  0  0
 15 21  1  0  0  0  0
 17 15  2  0  0  0  0
 17 23  1  0  0  0  0
 18 16  1  0  0  0  0
 19 18  2  0  0  0  0
 20 16  2  0  0  0  0
 21 22  2  0  0  0  0
 21 19  1  0  0  0  0
 22 20  1  0  0  0  0
 23 22  1  0  0  0  0
 25 24  1  0  0  0  0
M  END
>  <MODEL>
8

>  <REMARK>
 VINA RESULT:      -5.0      5.134      8.347
  Name = 
  2 active torsions:
  status: ('A' for Active; 'I' for Inactive)
    1  A    between atoms: O_2  and  C_13
    2  A    between atoms: C_12  and  C_22
                            x       y       z     vdW  Elec       q    Type
                         _______ _______ _______ _____ _____    ______ ____

>  <TORSDO>
F 2

$$$$
=
 OpenBabel11072411343D

 25 29  0  0  1  0  0  0  0  0999 V2000
  160.1150  205.8870  145.7280 C   0  0  0  0  0  0  0  0  0  0  0  0
  163.4120  204.7030  145.2760 C   0  0  0  0  0  1  0  0  0  0  0  0
  161.2380  203.5690  148.2110 S   0  0  0  0  0  0  0  0  0  0  0  0
  162.1940  206.5780  146.6000 C   0  0  1  0  0  3  0  0  0  0  0  0
  160.6830  206.7330  146.8010 C   0  0  2  0  0  3  0  0  0  0  0  0
  160.7890  203.3310  149.9290 C   0  0  0  0  0  0  0  0  0  0  0  0
  161.0820  205.3170  144.8730 N   0  0  0  0  0  2  0  0  0  0  0  0
  158.8810  205.6870  145.5730 O   0  0  0  0  0  0  0  0  0  0  0  0
  162.7370  205.8350  147.8200 C   0  0  0  0  0  2  0  0  0  0  0  0
  161.5460  205.3230  148.6030 C   0  0  2  0  0  0  0  0  0  0  0  0
  161.1230  204.2730  150.7410 N   0  0  0  0  0  0  0  0  0  0  0  0
  161.8250  205.3760  150.1120 C   0  0  2  0  0  3  0  0  0  0  0  0
  162.3840  205.8250  145.2590 C   0  0  2  0  0  3  0  0  0  0  0  0
  160.3500  206.1530  148.1650 C   0  0  0  0  0  2  0  0  0  0  0  0
  162.3320  208.2650  148.9550 C   0  0  0  0  0  3  0  0  0  0  0  0
  160.8310  207.9150  152.7860 C   0  0  0  0  0  3  0  0  0  0  0  0
  162.3740  209.6610  148.9600 C   0  0  0  0  0  3  0  0  0  0  0  0
  161.0610  206.7010  152.1060 C   0  0  0  0  0  3  0  0  0  0  0  0
  161.5630  206.6960  150.7920 C   0  0  0  0  0  0  0  0  0  0  0  0
  161.1050  209.1440  152.1640 C   0  0  0  0  0  3  0  0  0  0  0  0
  161.8330  207.9400  150.2000 C   0  0  0  0  0  0  0  0  0  0  0  0
  161.6090  209.1120  150.8660 C   0  0  0  0  0  0  0  0  0  0  0  0
  161.9340  210.1290  150.1160 O   0  0  0  0  0  0  0  0  0  0  0  0
  160.0810  202.2200  150.3870 O   0  0  0  0  0  0  0  0  0  0  0  0
  160.1880  200.9510  149.7610 C   0  0  0  0  0  1  0  0  0  0  0  0
  1  5  1  0  0  0  0
  3 10  1  0  0  0  0
  3  6  1  0  0  0  0
  4  5  1  0  0  0  0
  4  9  1  1  0  0  0
  5 14  1  1  0  0  0
  6 24  1  0  0  0  0
  6 11  2  0  0  0  0
  7 13  1  0  0  0  0
  7  1  1  0  0  0  0
  8  1  2  0  0  0  0
 10  9  1  6  0  0  0
 10 12  1  0  0  0  0
 12 11  1  0  0  0  0
 12 19  1  1  0  0  0
 13  2  1  1  0  0  0
 13  4  1  0  0  0  0
 14 10  1  0  0  0  0
 15 17  2  0  0  0  0
 15 21  1  0  0  0  0
 17 23  1  0  0  0  0
 18 16  2  0  0  0  0
 19 18  1  0  0  0  0
 20 16  1  0  0  0  0
 21 19  2  0  0  0  0
 21 22  1  0  0  0  0
 22 20  2  0  0  0  0
 23 22  1  0  0  0  0
 25 24  1  0  0  0  0
M  END
>  <MODEL>
9

>  <REMARK>
 VINA RESULT:      -4.9      1.047      2.090
  Name = 
  2 active torsions:
  status: ('A' for Active; 'I' for Inactive)
    1  A    between atoms: O_2  and  C_13
    2  A    between atoms: C_12  and  C_22
                            x       y       z     vdW  Elec       q    Type
                         _______ _______ _______ _____ _____    ______ ____

>  <TORSDO>
F 2

$$$$
