=
 OpenBabel11072410383D

 50 54  0  0  1  0  0  0  0  0999 V2000
  160.9730  206.5230  151.3910 N   0  0  0  0  0  0  0  0  0  0  0  0
  159.9180  211.0150  154.2440 C   0  0  0  0  0  0  0  0  0  0  0  0
  161.3460  207.5860  155.0060 C   0  0  0  0  0  2  0  0  0  0  0  0
  159.0140  213.5330  150.2720 C   0  0  0  0  0  0  0  0  0  0  0  0
  161.7660  209.8750  148.6010 N   0  0  0  0  0  2  0  0  0  0  0  0
  156.8730  214.3080  150.3630 N   0  0  0  0  0  0  0  0  0  0  0  0
  158.0100  214.0390  149.5560 C   0  0  0  0  0  0  0  0  0  0  0  0
  161.0830  207.2780  152.5010 C   0  0  0  0  0  0  0  0  0  0  0  0
  162.1490  209.7140  149.9670 C   0  0  0  0  0  0  0  0  0  0  0  0
  162.9250  210.5520  150.5030 O   0  0  0  0  0  0  0  0  0  0  0  0
  162.3260  210.8710  147.6940 C   0  0  0  0  0  2  0  0  0  0  0  0
  161.3500  213.5200  150.5290 O   0  0  0  0  0  0  0  0  0  0  0  0
  160.6130  212.4520  148.5890 N   0  0  0  0  0  0  0  0  0  0  0  0
  158.6040  213.5380  151.7140 C   0  0  1  0  0  3  0  0  0  0  0  0
  161.7490  209.7250  153.0590 C   0  0  0  0  0  2  0  0  0  0  0  0
  161.9910  212.3020  148.1190 C   0  0  0  0  0  2  0  0  0  0  0  0
  157.1910  214.0040  151.5780 C   0  0  0  0  0  0  0  0  0  0  0  0
  161.3070  207.2840  150.3270 C   0  0  0  0  0  0  0  0  0  0  0  0
  161.6360  208.5730  150.7620 C   0  0  0  0  0  0  0  0  0  0  0  0
  159.5230  211.8580  147.8220 C   0  0  0  0  0  1  0  0  0  0  0  0
  158.2050  212.3530  155.5450 C   0  0  0  0  0  1  0  0  0  0  0  0
  158.6920  212.1740  152.4080 C   0  0  2  0  0  3  0  0  0  0  0  0
  159.9940  212.0830  153.1900 C   0  0  0  0  0  2  0  0  0  0  0  0
  160.7500  206.7570  153.8780 C   0  0  0  0  0  2  0  0  0  0  0  0
  160.7230  209.8680  154.1490 C   0  0  0  0  0  0  0  0  0  0  0  0
  161.4650  208.5690  152.1430 C   0  0  0  0  0  0  0  0  0  0  0  0
  158.9810  210.1400  156.2600 N   0  0  0  0  0  0  0  0  0  0  0  0
  159.7190  209.0360  156.1480 N   0  0  0  0  0  0  0  0  0  0  0  0
  158.0760  214.4520  148.1250 C   0  0  0  0  0  1  0  0  0  0  0  0
  160.3730  213.1930  149.8010 C   0  0  0  0  0  0  0  0  0  0  0  0
  158.5760  211.1080  151.5100 O   0  0  0  0  0  1  0  0  0  0  0  0
  160.5960  208.8700  155.1260 C   0  0  0  0  0  0  0  0  0  0  0  0
  159.0520  211.1420  155.3460 C   0  0  0  0  0  0  0  0  0  0  0  0
  156.2490  214.1730  152.7220 C   0  0  0  0  0  2  0  0  0  0  0  0
  154.8150  214.1860  152.2260 C   0  0  0  0  0  1  0  0  0  0  0  0
  161.3070  206.7290  148.9210 C   0  0  1  0  0  3  0  0  0  0  0  0
  160.5430  207.4710  147.9930 O   0  0  0  0  0  0  0  0  0  0  0  0
  160.9880  207.1710  146.6970 C   0  0  0  0  0  2  0  0  0  0  0  0
  160.0080  206.2340  146.0070 C   0  0  0  0  0  2  0  0  0  0  0  0
  161.7060  206.0960  144.2210 F   0  0  0  0  0  0  0  0  0  0  0  0
  160.6660  205.5160  144.8740 C   0  0  0  0  0  0  0  0  0  0  0  0
  160.2910  204.4010  144.5490 O   0  0  0  0  0  0  0  0  0  0  0  0
  162.6240  206.1640  148.3940 C   0  0  0  0  0  2  0  0  0  0  0  0
  163.6180  204.6470  146.5010 C   0  0  0  0  0  1  0  0  0  0  0  0
  162.4010  204.4500  147.8340 S   0  0  0  0  0  0  0  0  0  0  0  0
  160.5380  205.1310  151.3460 C   0  0  0  0  0  2  0  0  0  0  0  0
  161.7130  204.2100  151.6260 C   0  0  0  0  0  2  0  0  0  0  0  0
  161.2660  202.7580  151.5860 C   0  0  0  0  0  2  0  0  0  0  0  0
  160.9090  201.0080  149.9190 N   0  0  0  0  0  1  0  0  0  0  0  0
  160.6620  202.4050  150.2350 C   0  0  0  0  0  2  0  0  0  0  0  0
  1  8  1  0  0  0  0
  2 33  1  0  0  0  0
  3 32  1  0  0  0  0
  5  9  1  0  0  0  0
  6 17  2  0  0  0  0
  7  4  2  0  0  0  0
  7  6  1  0  0  0  0
  8 24  1  0  0  0  0
  9 10  2  0  0  0  0
  9 19  1  0  0  0  0
 11 16  1  0  0  0  0
 11  5  1  0  0  0  0
 13 30  1  0  0  0  0
 14  4  1  6  0  0  0
 14 22  1  0  0  0  0
 15 25  1  0  0  0  0
 16 13  1  0  0  0  0
 17 14  1  0  0  0  0
 17 34  1  0  0  0  0
 18 19  2  0  0  0  0
 18  1  1  0  0  0  0
 19 26  1  0  0  0  0
 20 13  1  0  0  0  0
 22 31  1  6  0  0  0
 22 23  1  0  0  0  0
 23  2  1  0  0  0  0
 24  3  1  0  0  0  0
 25  2  2  0  0  0  0
 25 32  1  0  0  0  0
 26  8  2  0  0  0  0
 26 15  1  0  0  0  0
 28 27  1  0  0  0  0
 29  7  1  0  0  0  0
 30  4  1  0  0  0  0
 30 12  2  0  0  0  0
 32 28  2  0  0  0  0
 33 21  1  0  0  0  0
 33 27  2  0  0  0  0
 35 34  1  0  0  0  0
 36 43  1  6  0  0  0
 36 18  1  0  0  0  0
 37 36  1  0  0  0  0
 38 37  1  0  0  0  0
 39 38  1  0  0  0  0
 40 41  1  0  0  0  0
 41 39  1  0  0  0  0
 42 41  2  0  0  0  0
 44 45  1  0  0  0  0
 45 43  1  0  0  0  0
 46  1  1  0  0  0  0
 46 47  1  0  0  0  0
 48 47  1  0  0  0  0
 49 50  1  0  0  0  0
 50 48  1  0  0  0  0
M  END
>  <MODEL>
1

>  <REMARK>
 VINA RESULT:      -3.4      0.000      0.000
  Name = 
  12 active torsions:
  status: ('A' for Active; 'I' for Inactive)
    1  A    between atoms: N_1  and  C_39
    2  A    between atoms: C_13  and  C_21
    3  A    between atoms: C_13  and  C_37
    4  A    between atoms: C_22  and  C_23
    5  A    between atoms: C_24  and  C_27
    6  A    between atoms: O_25  and  C_27
    7  A    between atoms: O_25  and  C_32
    8  A    between atoms: C_27  and  C_33
    9  A    between atoms: C_32  and  C_34
   10  A    between atoms: C_33  and  S_41
   11  A    between atoms: C_34  and  C_42
   12  A    between atoms: C_37  and  C_39
                            x       y       z     vdW  Elec       q    Type
                         _______ _______ _______ _____ _____    ______ ____

>  <TORSDO>
F 12

$$$$
