=
 OpenBabel11072410083D

 43 48  0  0  1  0  0  0  0  0999 V2000
  161.2580  211.1580  154.1910 C   0  0  0  0  0  2  0  0  0  0  0  0
  161.3200  208.8490  153.1280 C   0  0  1  0  0  3  0  0  0  0  0  0
  160.7340  207.4370  153.1970 C   0  0  2  0  0  3  0  0  0  0  0  0
  161.3980  206.5640  154.2650 C   0  0  0  0  0  2  0  0  0  0  0  0
  160.6290  211.2350  152.8760 N   0  0  1  0  0  0  0  0  0  0  0  0
  159.9760  209.2180  155.3990 C   0  0  0  0  0  0  0  0  0  0  0  0
  161.4450  207.1860  155.6650 C   0  0  0  0  0  2  0  0  0  0  0  0
  160.1840  209.8500  153.0410 C   0  0  2  0  0  3  0  0  0  0  0  0
  160.1380  207.8750  156.0640 C   0  0  0  0  0  2  0  0  0  0  0  0
  159.0470  209.9330  155.7400 O   0  0  0  0  0  0  0  0  0  0  0  0
  160.9480  209.6920  154.3430 C   0  0  1  0  0  0  0  0  0  0  0  0
  159.4200  213.1380  151.8770 C   0  0  1  0  0  3  0  0  0  0  0  0
  159.5660  212.9670  154.2130 C   0  0  0  0  0  2  0  0  0  0  0  0
  158.9670  214.3710  152.3910 O   0  0  0  0  0  0  0  0  0  0  0  0
  159.4600  212.1100  152.9930 C   0  0  2  0  0  3  0  0  0  0  0  0
  158.8970  214.2520  153.7920 C   0  0  1  0  0  3  0  0  0  0  0  0
  158.4960  212.6520  150.7590 C   0  0  0  0  0  2  0  0  0  0  0  0
  157.9760  213.7640  149.8470 C   0  0  0  0  0  3  0  0  0  0  0  0
  158.5040  213.6230  148.4370 C   0  0  0  0  0  1  0  0  0  0  0  0
  156.4610  213.8500  149.8430 C   0  0  0  0  0  1  0  0  0  0  0  0
  157.4340  214.2410  154.2200 C   0  0  0  0  0  2  0  0  0  0  0  0
  155.6580  211.9070  155.2920 C   0  0  0  0  0  0  0  0  0  0  0  0
  155.1080  210.9280  156.0330 N   0  0  0  0  0  2  0  0  0  0  0  0
  155.6310  211.1490  157.2580 C   0  0  0  0  0  3  0  0  0  0  0  0
  155.3250  212.0870  153.6970 S   0  0  0  0  0  0  0  0  0  0  0  0
  156.4820  212.6870  156.0270 N   0  0  0  0  0  0  0  0  0  0  0  0
  157.9260  214.4450  156.5330 O   0  0  0  0  0  0  0  0  0  0  0  0
  156.4600  212.2120  157.2610 N   0  0  0  0  0  0  0  0  0  0  0  0
  157.2860  213.8180  155.6470 C   0  0  0  0  0  0  0  0  0  0  0  0
  160.8720  206.7450  151.8510 C   0  0  0  0  0  2  0  0  0  0  0  0
  162.0390  205.7640  151.8430 C   0  0  0  0  0  2  0  0  0  0  0  0
  160.8770  203.8390  152.5820 O   0  0  0  0  0  1  0  0  0  0  0  0
  161.5920  204.3480  151.4980 C   0  0  1  0  0  3  0  0  0  0  0  0
  160.7230  204.3350  150.2300 C   0  0  2  0  0  3  0  0  0  0  0  0
  160.0790  203.0290  150.0600 N   0  0  0  0  0  2  0  0  0  0  0  0
  161.5790  204.6080  149.0020 C   0  0  1  0  0  3  0  0  0  0  0  0
  160.5070  202.4920  148.7760 C   0  0  0  0  0  2  0  0  0  0  0  0
  161.7230  203.2690  148.3330 C   0  0  0  0  0  2  0  0  0  0  0  0
  160.8510  205.5610  148.0630 C   0  0  0  0  0  2  0  0  0  0  0  0
  161.8140  206.4970  147.4220 C   0  0  0  0  0  0  0  0  0  0  0  0
  161.9980  206.4450  146.1750 O   0  0  0  0  0  0  0  0  0  0  0  0
  161.8980  208.7030  148.5060 C   0  0  0  0  0  1  0  0  0  0  0  0
  162.4750  207.4420  148.2090 O   0  0  0  0  0  0  0  0  0  0  0  0
  1 11  1  0  0  0  0
  2  3  1  0  0  0  0
  2 11  1  0  0  0  0
  3  4  1  0  0  0  0
  4  7  1  0  0  0  0
  5 15  1  0  0  0  0
  5  8  1  0  0  0  0
  5  1  1  0  0  0  0
  6 10  2  0  0  0  0
  6  9  1  0  0  0  0
  7  9  1  0  0  0  0
  8  2  1  0  0  0  0
  8 11  1  0  0  0  0
 11  6  1  0  0  0  0
 12 14  1  0  0  0  0
 12 15  1  0  0  0  0
 14 16  1  0  0  0  0
 15 13  1  0  0  0  0
 16 13  1  0  0  0  0
 16 21  1  0  0  0  0
 17 12  1  0  0  0  0
 18 17  1  0  0  0  0
 19 18  1  0  0  0  0
 20 18  1  0  0  0  0
 21 29  1  0  0  0  0
 22 26  1  0  0  0  0
 22 23  1  0  0  0  0
 23 24  1  0  0  0  0
 24 28  2  0  0  0  0
 25 22  2  0  0  0  0
 26 28  1  0  0  0  0
 29 26  1  0  0  0  0
 29 27  2  0  0  0  0
 30  3  1  0  0  0  0
 31 30  1  0  0  0  0
 33 31  1  0  0  0  0
 33 32  1  0  0  0  0
 34 33  1  0  0  0  0
 35 34  1  0  0  0  0
 36 34  1  0  0  0  0
 37 35  1  0  0  0  0
 38 37  1  0  0  0  0
 38 36  1  0  0  0  0
 39 36  1  0  0  0  0
 40 39  1  0  0  0  0
 40 43  1  0  0  0  0
 41 40  2  0  0  0  0
 43 42  1  0  0  0  0
M  END
>  <MODEL>
1

>  <REMARK>
 VINA RESULT:      -6.4      0.000      0.000
  Name = 
  12 active torsions:
  status: ('A' for Active; 'I' for Inactive)
    1  A    between atoms: C_2  and  C_13
    2  A    between atoms: C_2  and  O_29
    3  A    between atoms: C_5  and  C_15
    4  A    between atoms: C_5  and  C_22
    5  A    between atoms: C_10  and  C_19
    6  A    between atoms: C_11  and  C_27
    7  A    between atoms: C_13  and  C_16
    8  A    between atoms: C_15  and  C_27
    9  A    between atoms: C_17  and  C_19
   10  A    between atoms: C_21  and  C_40
   11  A    between atoms: C_21  and  C_43
   12  A    between atoms: N_24  and  C_41
                            x       y       z     vdW  Elec       q    Type
                         _______ _______ _______ _____ _____    ______ ____

>  <TORSDO>
F 12

$$$$
=
 OpenBabel11072410083D

 43 48  0  0  1  0  0  0  0  0999 V2000
  162.3960  210.6170  151.7830 C   0  0  0  0  0  2  0  0  0  0  0  0
  162.0930  208.1010  151.5650 C   0  0  1  0  0  3  0  0  0  0  0  0
  161.1970  206.9230  151.9530 C   0  0  2  0  0  3  0  0  0  0  0  0
  161.4690  206.4020  153.3670 C   0  0  0  0  0  2  0  0  0  0  0  0
  162.0140  210.3110  150.4070 N   0  0  1  0  0  0  0  0  0  0  0  0
  160.5330  209.4770  153.2310 C   0  0  0  0  0  0  0  0  0  0  0  0
  161.4400  207.4720  154.4630 C   0  0  0  0  0  2  0  0  0  0  0  0
  161.2440  209.1700  150.9070 C   0  0  2  0  0  3  0  0  0  0  0  0
  160.2780  208.4570  154.3120 C   0  0  0  0  0  2  0  0  0  0  0  0
  159.7500  210.4050  153.1030 O   0  0  0  0  0  0  0  0  0  0  0  0
  161.7400  209.3740  152.3270 C   0  0  1  0  0  0  0  0  0  0  0  0
  161.6900  212.2520  148.9210 C   0  0  1  0  0  3  0  0  0  0  0  0
  160.7790  212.2950  151.0840 C   0  0  0  0  0  2  0  0  0  0  0  0
  161.2690  213.5800  149.1460 O   0  0  0  0  0  0  0  0  0  0  0  0
  161.0720  211.3440  149.9680 C   0  0  2  0  0  3  0  0  0  0  0  0
  160.5800  213.6110  150.3730 C   0  0  1  0  0  3  0  0  0  0  0  0
  161.2750  211.7880  147.5240 C   0  0  0  0  0  2  0  0  0  0  0  0
  161.2170  212.9060  146.4830 C   0  0  0  0  0  3  0  0  0  0  0  0
  162.5950  213.2620  145.9680 C   0  0  0  0  0  1  0  0  0  0  0  0
  160.2860  212.5800  145.3310 C   0  0  0  0  0  1  0  0  0  0  0  0
  159.0980  213.8410  150.1080 C   0  0  0  0  0  2  0  0  0  0  0  0
  156.0100  214.1740  150.4340 C   0  0  0  0  0  0  0  0  0  0  0  0
  154.7570  214.2730  150.9160 N   0  0  0  0  0  2  0  0  0  0  0  0
  154.9590  214.4470  152.2400 C   0  0  0  0  0  3  0  0  0  0  0  0
  156.3170  213.9630  148.8380 S   0  0  0  0  0  0  0  0  0  0  0  0
  156.9330  214.2780  151.4160 N   0  0  0  0  0  0  0  0  0  0  0  0
  159.0360  214.4100  152.4120 O   0  0  0  0  0  0  0  0  0  0  0  0
  156.2720  214.4530  152.5480 N   0  0  0  0  0  0  0  0  0  0  0  0
  158.3690  214.2070  151.3630 C   0  0  0  0  0  0  0  0  0  0  0  0
  161.3810  205.7780  150.9710 C   0  0  0  0  0  2  0  0  0  0  0  0
  160.8400  204.4670  151.5310 C   0  0  0  0  0  2  0  0  0  0  0  0
  161.1990  202.1290  151.5710 O   0  0  0  0  0  1  0  0  0  0  0  0
  161.3750  203.2580  150.7720 C   0  0  1  0  0  3  0  0  0  0  0  0
  160.6500  203.0830  149.4280 C   0  0  2  0  0  3  0  0  0  0  0  0
  159.7250  201.9470  149.4860 N   0  0  0  0  0  2  0  0  0  0  0  0
  161.6560  202.8210  148.3160 C   0  0  1  0  0  3  0  0  0  0  0  0
  160.1250  201.0020  148.4530 C   0  0  0  0  0  2  0  0  0  0  0  0
  161.5290  201.3520  148.0260 C   0  0  0  0  0  2  0  0  0  0  0  0
  161.2740  203.6130  147.0730 C   0  0  0  0  0  2  0  0  0  0  0  0
  162.0410  204.8860  147.0090 C   0  0  0  0  0  0  0  0  0  0  0  0
  163.1120  204.9370  146.3460 O   0  0  0  0  0  0  0  0  0  0  0  0
  162.2790  207.2270  147.7270 C   0  0  0  0  0  1  0  0  0  0  0  0
  161.5420  206.0170  147.6590 O   0  0  0  0  0  0  0  0  0  0  0  0
  1 11  1  0  0  0  0
  2  3  1  0  0  0  0
  2 11  1  0  0  0  0
  3  4  1  0  0  0  0
  4  7  1  0  0  0  0
  5  8  1  0  0  0  0
  5  1  1  0  0  0  0
  6  9  1  0  0  0  0
  8  2  1  0  0  0  0
  8 11  1  0  0  0  0
  9  7  1  0  0  0  0
 10  6  2  0  0  0  0
 11  6  1  0  0  0  0
 12 14  1  0  0  0  0
 12 15  1  0  0  0  0
 14 16  1  0  0  0  0
 15  5  1  0  0  0  0
 15 13  1  0  0  0  0
 16 13  1  0  0  0  0
 17 12  1  0  0  0  0
 18 17  1  0  0  0  0
 19 18  1  0  0  0  0
 20 18  1  0  0  0  0
 21 16  1  0  0  0  0
 21 29  1  0  0  0  0
 22 23  1  0  0  0  0
 22 26  1  0  0  0  0
 23 24  1  0  0  0  0
 24 28  2  0  0  0  0
 25 22  2  0  0  0  0
 26 28  1  0  0  0  0
 29 26  1  0  0  0  0
 29 27  2  0  0  0  0
 30 31  1  0  0  0  0
 30  3  1  0  0  0  0
 33 31  1  0  0  0  0
 33 32  1  0  0  0  0
 34 35  1  0  0  0  0
 34 33  1  0  0  0  0
 36 34  1  0  0  0  0
 37 35  1  0  0  0  0
 38 36  1  0  0  0  0
 38 37  1  0  0  0  0
 39 36  1  0  0  0  0
 40 39  1  0  0  0  0
 40 43  1  0  0  0  0
 41 40  2  0  0  0  0
 43 42  1  0  0  0  0
M  END
>  <MODEL>
2

>  <REMARK>
 VINA RESULT:      -6.2      2.578      3.426
  Name = 
  12 active torsions:
  status: ('A' for Active; 'I' for Inactive)
    1  A    between atoms: C_2  and  C_13
    2  A    between atoms: C_2  and  O_29
    3  A    between atoms: C_5  and  C_15
    4  A    between atoms: C_5  and  C_22
    5  A    between atoms: C_10  and  C_19
    6  A    between atoms: C_11  and  C_27
    7  A    between atoms: C_13  and  C_16
    8  A    between atoms: C_15  and  C_27
    9  A    between atoms: C_17  and  C_19
   10  A    between atoms: C_21  and  C_40
   11  A    between atoms: C_21  and  C_43
   12  A    between atoms: N_24  and  C_41
                            x       y       z     vdW  Elec       q    Type
                         _______ _______ _______ _____ _____    ______ ____

>  <TORSDO>
F 12

$$$$
=
 OpenBabel11072410083D

 43 48  0  0  1  0  0  0  0  0999 V2000
  162.6080  209.8460  151.5730 C   0  0  0  0  0  2  0  0  0  0  0  0
  161.1480  211.9140  151.3370 C   0  0  1  0  0  3  0  0  0  0  0  0
  160.2530  212.6950  150.3720 C   0  0  2  0  0  3  0  0  0  0  0  0
  161.0420  213.5880  149.4110 C   0  0  0  0  0  2  0  0  0  0  0  0
  161.3980  209.6540  152.3660 N   0  0  1  0  0  0  0  0  0  0  0  0
  161.7180  210.4510  149.1840 C   0  0  0  0  0  0  0  0  0  0  0  0
  162.1560  212.8730  148.6380 C   0  0  0  0  0  2  0  0  0  0  0  0
  160.6700  210.4770  151.3990 C   0  0  2  0  0  3  0  0  0  0  0  0
  161.7350  211.5020  148.1040 C   0  0  0  0  0  2  0  0  0  0  0  0
  161.5370  209.2860  148.8670 O   0  0  0  0  0  0  0  0  0  0  0  0
  161.9370  210.8140  150.6350 C   0  0  1  0  0  0  0  0  0  0  0  0
  161.4320  207.3940  153.3540 C   0  0  1  0  0  3  0  0  0  0  0  0
  161.6720  207.6380  151.0320 C   0  0  0  0  0  2  0  0  0  0  0  0
  161.8310  206.1330  152.8640 O   0  0  0  0  0  0  0  0  0  0  0  0
  160.9720  208.2620  152.1970 C   0  0  2  0  0  3  0  0  0  0  0  0
  161.8380  206.2000  151.4580 C   0  0  1  0  0  3  0  0  0  0  0  0
  160.2970  207.2400  154.3680 C   0  0  0  0  0  2  0  0  0  0  0  0
  160.4670  208.0830  155.6320 C   0  0  0  0  0  3  0  0  0  0  0  0
  160.0490  207.3220  156.8710 C   0  0  0  0  0  1  0  0  0  0  0  0
  161.8770  208.6210  155.7860 C   0  0  0  0  0  1  0  0  0  0  0  0
  160.6900  205.3600  150.9130 C   0  0  0  0  0  2  0  0  0  0  0  0
  160.9940  202.3620  150.0910 C   0  0  0  0  0  0  0  0  0  0  0  0
  161.0660  201.2020  149.4130 N   0  0  0  0  0  0  0  0  0  0  0  0
  161.1820  201.6090  148.1310 C   0  0  0  0  0  3  0  0  0  0  0  0
  160.8540  202.4140  151.7230 S   0  0  0  0  0  0  0  0  0  0  0  0
  161.0590  203.4290  149.2620 N   0  0  0  0  0  0  0  0  0  0  0  0
  161.1570  205.6630  148.6050 O   0  0  0  0  0  0  0  0  0  0  0  0
  161.1800  202.9540  148.0340 N   0  0  0  0  0  2  0  0  0  0  0  0
  160.9970  204.8390  149.5440 C   0  0  0  0  0  0  0  0  0  0  0  0
  159.2770  213.5630  151.1490 C   0  0  0  0  0  2  0  0  0  0  0  0
  158.4590  212.7390  152.1370 C   0  0  0  0  0  2  0  0  0  0  0  0
  156.3960  213.6640  152.8330 O   0  0  0  0  0  1  0  0  0  0  0  0
  157.7500  213.6160  153.1630 C   0  0  1  0  0  3  0  0  0  0  0  0
  157.9360  213.0650  154.5860 C   0  0  2  0  0  3  0  0  0  0  0  0
  158.9520  213.8370  155.3080 N   0  0  0  0  0  2  0  0  0  0  0  0
  158.3870  211.6130  154.5350 C   0  0  1  0  0  3  0  0  0  0  0  0
  160.0070  212.9130  155.7010 C   0  0  0  0  0  2  0  0  0  0  0  0
  159.8500  211.6570  154.8810 C   0  0  0  0  0  2  0  0  0  0  0  0
  157.6470  210.8010  155.5890 C   0  0  0  0  0  2  0  0  0  0  0  0
  156.1860  211.0730  155.5260 C   0  0  0  0  0  0  0  0  0  0  0  0
  155.5540  210.8420  154.4590 O   0  0  0  0  0  0  0  0  0  0  0  0
  155.2950  212.9340  156.8660 C   0  0  0  0  0  1  0  0  0  0  0  0
  155.5290  211.5500  156.6620 O   0  0  0  0  0  0  0  0  0  0  0  0
  1  5  1  0  0  0  0
  2  8  1  0  0  0  0
  3 30  1  0  0  0  0
  3  2  1  0  0  0  0
  4  3  1  0  0  0  0
  6 11  1  0  0  0  0
  7  4  1  0  0  0  0
  8  5  1  0  0  0  0
  9  7  1  0  0  0  0
  9  6  1  0  0  0  0
 10  6  2  0  0  0  0
 11  2  1  0  0  0  0
 11  8  1  0  0  0  0
 11  1  1  0  0  0  0
 12 17  1  0  0  0  0
 13 16  1  0  0  0  0
 13 15  1  0  0  0  0
 14 12  1  0  0  0  0
 15  5  1  0  0  0  0
 15 12  1  0  0  0  0
 16 14  1  0  0  0  0
 17 18  1  0  0  0  0
 18 20  1  0  0  0  0
 18 19  1  0  0  0  0
 21 16  1  0  0  0  0
 22 25  2  0  0  0  0
 23 22  1  0  0  0  0
 24 23  2  0  0  0  0
 26 29  1  0  0  0  0
 26 22  1  0  0  0  0
 27 29  2  0  0  0  0
 28 24  1  0  0  0  0
 28 26  1  0  0  0  0
 29 21  1  0  0  0  0
 30 31  1  0  0  0  0
 31 33  1  0  0  0  0
 32 33  1  0  0  0  0
 33 34  1  0  0  0  0
 34 35  1  0  0  0  0
 35 37  1  0  0  0  0
 36 34  1  0  0  0  0
 36 38  1  0  0  0  0
 36 39  1  0  0  0  0
 38 37  1  0  0  0  0
 40 39  1  0  0  0  0
 40 43  1  0  0  0  0
 41 40  2  0  0  0  0
 43 42  1  0  0  0  0
M  END
>  <MODEL>
3

>  <REMARK>
 VINA RESULT:      -5.9      2.688      9.555
  Name = 
  12 active torsions:
  status: ('A' for Active; 'I' for Inactive)
    1  A    between atoms: C_2  and  C_13
    2  A    between atoms: C_2  and  O_29
    3  A    between atoms: C_5  and  C_15
    4  A    between atoms: C_5  and  C_22
    5  A    between atoms: C_10  and  C_19
    6  A    between atoms: C_11  and  C_27
    7  A    between atoms: C_13  and  C_16
    8  A    between atoms: C_15  and  C_27
    9  A    between atoms: C_17  and  C_19
   10  A    between atoms: C_21  and  C_40
   11  A    between atoms: C_21  and  C_43
   12  A    between atoms: N_24  and  C_41
                            x       y       z     vdW  Elec       q    Type
                         _______ _______ _______ _____ _____    ______ ____

>  <TORSDO>
F 12

$$$$
=
 OpenBabel11072410083D

 43 48  0  0  1  0  0  0  0  0999 V2000
  161.6710  210.6990  153.6750 C   0  0  0  0  0  2  0  0  0  0  0  0
  161.5930  208.3380  152.7350 C   0  0  1  0  0  3  0  0  0  0  0  0
  160.8910  206.9820  152.8480 C   0  0  2  0  0  3  0  0  0  0  0  0
  161.4340  206.1190  153.9910 C   0  0  0  0  0  2  0  0  0  0  0  0
  161.1100  210.7530  152.3290 N   0  0  1  0  0  0  0  0  0  0  0  0
  160.1850  208.9350  154.9170 C   0  0  0  0  0  0  0  0  0  0  0  0
  161.4710  206.8120  155.3570 C   0  0  0  0  0  2  0  0  0  0  0  0
  160.5470  209.4190  152.5430 C   0  0  2  0  0  3  0  0  0  0  0  0
  160.2070  207.6210  155.6560 C   0  0  0  0  0  2  0  0  0  0  0  0
  159.3020  209.7390  155.1750 O   0  0  0  0  0  0  0  0  0  0  0  0
  161.2380  209.2720  153.8870 C   0  0  1  0  0  0  0  0  0  0  0  0
  160.2810  212.8840  151.4040 C   0  0  1  0  0  3  0  0  0  0  0  0
  159.9290  212.4010  153.6740 C   0  0  0  0  0  2  0  0  0  0  0  0
  159.8270  214.0810  151.9970 O   0  0  0  0  0  0  0  0  0  0  0  0
  160.0120  211.7230  152.3440 C   0  0  2  0  0  3  0  0  0  0  0  0
  159.4600  213.7920  153.3250 C   0  0  1  0  0  3  0  0  0  0  0  0
  159.5720  212.6440  150.0700 C   0  0  0  0  0  2  0  0  0  0  0  0
  159.7300  213.7830  149.0630 C   0  0  0  0  0  3  0  0  0  0  0  0
  161.1860  214.1090  148.8100 C   0  0  0  0  0  1  0  0  0  0  0  0
  159.0110  213.5060  147.7550 C   0  0  0  0  0  1  0  0  0  0  0  0
  157.9450  213.8770  153.4550 C   0  0  0  0  0  2  0  0  0  0  0  0
  155.0380  214.3520  154.4920 C   0  0  0  0  0  0  0  0  0  0  0  0
  153.9270  214.4530  155.2460 N   0  0  0  0  0  2  0  0  0  0  0  0
  154.4140  214.4020  156.5050 C   0  0  0  0  0  3  0  0  0  0  0  0
  154.9860  214.3760  152.8540 S   0  0  0  0  0  0  0  0  0  0  0  0
  156.1500  214.2400  155.2530 N   0  0  0  0  0  0  0  0  0  0  0  0
  158.4160  214.0790  155.7730 O   0  0  0  0  0  0  0  0  0  0  0  0
  155.7570  214.2760  156.5150 N   0  0  0  0  0  0  0  0  0  0  0  0
  157.5300  214.0870  154.8770 C   0  0  0  0  0  0  0  0  0  0  0  0
  161.0320  206.2090  151.5480 C   0  0  0  0  0  2  0  0  0  0  0  0
  162.0020  205.0410  151.6920 C   0  0  0  0  0  2  0  0  0  0  0  0
  160.5010  203.3090  152.2790 O   0  0  0  0  0  1  0  0  0  0  0  0
  161.3720  203.7190  151.2700 C   0  0  1  0  0  3  0  0  0  0  0  0
  160.6190  203.8650  149.9380 C   0  0  2  0  0  3  0  0  0  0  0  0
  160.1700  202.5560  149.4540 N   0  0  0  0  0  2  0  0  0  0  0  0
  161.5280  204.4770  148.8830 C   0  0  1  0  0  3  0  0  0  0  0  0
  160.7690  202.3440  148.1440 C   0  0  0  0  0  2  0  0  0  0  0  0
  161.9030  203.3270  147.9890 C   0  0  0  0  0  2  0  0  0  0  0  0
  160.7590  205.5110  148.0720 C   0  0  0  0  0  2  0  0  0  0  0  0
  161.3780  205.6860  146.7290 C   0  0  0  0  0  0  0  0  0  0  0  0
  162.5330  206.1820  146.6340 O   0  0  0  0  0  0  0  0  0  0  0  0
  160.9580  205.7870  144.3070 C   0  0  0  0  0  1  0  0  0  0  0  0
  160.6800  205.2630  145.5960 O   0  0  0  0  0  0  0  0  0  0  0  0
  1 11  1  0  0  0  0
  2  3  1  0  0  0  0
  2 11  1  0  0  0  0
  3  4  1  0  0  0  0
  4  7  1  0  0  0  0
  5 15  1  0  0  0  0
  5  8  1  0  0  0  0
  5  1  1  0  0  0  0
  6 10  2  0  0  0  0
  6  9  1  0  0  0  0
  7  9  1  0  0  0  0
  8  2  1  0  0  0  0
  8 11  1  0  0  0  0
 11  6  1  0  0  0  0
 12 14  1  0  0  0  0
 12 15  1  0  0  0  0
 14 16  1  0  0  0  0
 15 13  1  0  0  0  0
 16 21  1  0  0  0  0
 16 13  1  0  0  0  0
 17 12  1  0  0  0  0
 18 17  1  0  0  0  0
 19 18  1  0  0  0  0
 20 18  1  0  0  0  0
 21 29  1  0  0  0  0
 22 23  1  0  0  0  0
 22 26  1  0  0  0  0
 23 24  1  0  0  0  0
 24 28  2  0  0  0  0
 25 22  2  0  0  0  0
 26 28  1  0  0  0  0
 29 26  1  0  0  0  0
 29 27  2  0  0  0  0
 30 31  1  0  0  0  0
 30  3  1  0  0  0  0
 33 31  1  0  0  0  0
 33 32  1  0  0  0  0
 34 33  1  0  0  0  0
 35 34  1  0  0  0  0
 36 34  1  0  0  0  0
 37 35  1  0  0  0  0
 38 37  1  0  0  0  0
 38 36  1  0  0  0  0
 39 36  1  0  0  0  0
 40 39  1  0  0  0  0
 41 40  2  0  0  0  0
 42 43  1  0  0  0  0
 43 40  1  0  0  0  0
M  END
>  <MODEL>
4

>  <REMARK>
 VINA RESULT:      -5.7      1.490      1.749
  Name = 
  12 active torsions:
  status: ('A' for Active; 'I' for Inactive)
    1  A    between atoms: C_2  and  C_13
    2  A    between atoms: C_2  and  O_29
    3  A    between atoms: C_5  and  C_15
    4  A    between atoms: C_5  and  C_22
    5  A    between atoms: C_10  and  C_19
    6  A    between atoms: C_11  and  C_27
    7  A    between atoms: C_13  and  C_16
    8  A    between atoms: C_15  and  C_27
    9  A    between atoms: C_17  and  C_19
   10  A    between atoms: C_21  and  C_40
   11  A    between atoms: C_21  and  C_43
   12  A    between atoms: N_24  and  C_41
                            x       y       z     vdW  Elec       q    Type
                         _______ _______ _______ _____ _____    ______ ____

>  <TORSDO>
F 12

$$$$
=
 OpenBabel11072410083D

 43 48  0  0  1  0  0  0  0  0999 V2000
  161.3280  210.8610  154.3410 C   0  0  0  0  0  2  0  0  0  0  0  0
  161.8560  208.9160  152.7920 C   0  0  1  0  0  3  0  0  0  0  0  0
  161.4150  207.5120  152.3700 C   0  0  2  0  0  3  0  0  0  0  0  0
  161.9090  206.4170  153.3200 C   0  0  0  0  0  2  0  0  0  0  0  0
  161.0030  211.2550  152.9740 N   0  0  1  0  0  0  0  0  0  0  0  0
  160.0120  208.6230  154.6930 C   0  0  0  0  0  0  0  0  0  0  0  0
  161.5820  206.6530  154.7980 C   0  0  0  0  0  2  0  0  0  0  0  0
  160.6740  209.8580  152.6830 C   0  0  2  0  0  3  0  0  0  0  0  0
  160.1560  207.1600  155.0270 C   0  0  0  0  0  2  0  0  0  0  0  0
  158.9630  209.1870  154.9650 O   0  0  0  0  0  0  0  0  0  0  0  0
  161.1420  209.3950  154.0510 C   0  0  1  0  0  0  0  0  0  0  0  0
  159.8040  213.2170  152.0830 C   0  0  1  0  0  3  0  0  0  0  0  0
  159.5820  212.6670  154.3550 C   0  0  0  0  0  2  0  0  0  0  0  0
  159.1620  214.3150  152.6940 O   0  0  0  0  0  0  0  0  0  0  0  0
  159.7550  212.0210  153.0170 C   0  0  2  0  0  3  0  0  0  0  0  0
  158.8750  213.9590  154.0250 C   0  0  1  0  0  3  0  0  0  0  0  0
  159.1230  212.8670  150.7590 C   0  0  0  0  0  2  0  0  0  0  0  0
  158.5210  214.0670  150.0270 C   0  0  0  0  0  3  0  0  0  0  0  0
  159.1150  214.2340  148.6450 C   0  0  0  0  0  1  0  0  0  0  0  0
  157.0070  214.0010  149.9520 C   0  0  0  0  0  1  0  0  0  0  0  0
  157.3700  213.7830  154.1820 C   0  0  0  0  0  2  0  0  0  0  0  0
  154.4700  214.3340  155.1990 C   0  0  0  0  0  0  0  0  0  0  0  0
  153.3540  214.4530  155.9430 N   0  0  0  0  0  2  0  0  0  0  0  0
  153.8220  214.3440  157.2050 C   0  0  0  0  0  3  0  0  0  0  0  0
  154.4410  214.4110  153.5620 S   0  0  0  0  0  0  0  0  0  0  0  0
  155.5660  214.1560  155.9700 N   0  0  0  0  0  0  0  0  0  0  0  0
  157.8180  213.8930  156.5110 O   0  0  0  0  0  0  0  0  0  0  0  0
  155.1590  214.1670  157.2270 N   0  0  0  0  0  0  0  0  0  0  0  0
  156.9450  213.9630  155.6050 C   0  0  0  0  0  0  0  0  0  0  0  0
  161.9170  207.2030  150.9700 C   0  0  0  0  0  2  0  0  0  0  0  0
  160.8330  207.4360  149.9230 C   0  0  0  0  0  2  0  0  0  0  0  0
  162.3450  208.6670  148.5810 O   0  0  0  0  0  1  0  0  0  0  0  0
  161.4190  207.6260  148.5280 C   0  0  1  0  0  3  0  0  0  0  0  0
  162.0900  206.3360  148.0290 C   0  0  2  0  0  3  0  0  0  0  0  0
  162.6590  206.5350  146.6930 N   0  0  0  0  0  2  0  0  0  0  0  0
  161.0720  205.2080  147.9500 C   0  0  1  0  0  3  0  0  0  0  0  0
  162.0300  205.5730  145.7990 C   0  0  0  0  0  2  0  0  0  0  0  0
  160.7870  205.0540  146.4810 C   0  0  0  0  0  2  0  0  0  0  0  0
  161.6830  203.9180  148.4790 C   0  0  0  0  0  2  0  0  0  0  0  0
  160.9140  203.4190  149.6510 C   0  0  0  0  0  0  0  0  0  0  0  0
  160.2720  202.3370  149.5620 O   0  0  0  0  0  0  0  0  0  0  0  0
  160.9820  203.5010  152.1090 C   0  0  0  0  0  1  0  0  0  0  0  0
  160.9430  204.1430  150.8450 O   0  0  0  0  0  0  0  0  0  0  0  0
  2 11  1  0  0  0  0
  3  2  1  0  0  0  0
  3  4  1  0  0  0  0
  4  7  1  0  0  0  0
  5 15  1  0  0  0  0
  5  1  1  0  0  0  0
  6 10  2  0  0  0  0
  6  9  1  0  0  0  0
  7  9  1  0  0  0  0
  8  2  1  0  0  0  0
  8  5  1  0  0  0  0
  8 11  1  0  0  0  0
 11  1  1  0  0  0  0
 11  6  1  0  0  0  0
 12 14  1  0  0  0  0
 12 15  1  0  0  0  0
 14 16  1  0  0  0  0
 15 13  1  0  0  0  0
 16 21  1  0  0  0  0
 16 13  1  0  0  0  0
 17 12  1  0  0  0  0
 18 17  1  0  0  0  0
 19 18  1  0  0  0  0
 20 18  1  0  0  0  0
 21 29  1  0  0  0  0
 22 23  1  0  0  0  0
 22 26  1  0  0  0  0
 23 24  1  0  0  0  0
 24 28  2  0  0  0  0
 25 22  2  0  0  0  0
 26 28  1  0  0  0  0
 29 26  1  0  0  0  0
 29 27  2  0  0  0  0
 30  3  1  0  0  0  0
 31 30  1  0  0  0  0
 33 32  1  0  0  0  0
 33 31  1  0  0  0  0
 34 33  1  0  0  0  0
 35 34  1  0  0  0  0
 36 34  1  0  0  0  0
 36 39  1  0  0  0  0
 37 38  1  0  0  0  0
 37 35  1  0  0  0  0
 38 36  1  0  0  0  0
 39 40  1  0  0  0  0
 40 43  1  0  0  0  0
 41 40  2  0  0  0  0
 43 42  1  0  0  0  0
M  END
>  <MODEL>
5

>  <REMARK>
 VINA RESULT:      -5.6      1.692      2.710
  Name = 
  12 active torsions:
  status: ('A' for Active; 'I' for Inactive)
    1  A    between atoms: C_2  and  C_13
    2  A    between atoms: C_2  and  O_29
    3  A    between atoms: C_5  and  C_15
    4  A    between atoms: C_5  and  C_22
    5  A    between atoms: C_10  and  C_19
    6  A    between atoms: C_11  and  C_27
    7  A    between atoms: C_13  and  C_16
    8  A    between atoms: C_15  and  C_27
    9  A    between atoms: C_17  and  C_19
   10  A    between atoms: C_21  and  C_40
   11  A    between atoms: C_21  and  C_43
   12  A    between atoms: N_24  and  C_41
                            x       y       z     vdW  Elec       q    Type
                         _______ _______ _______ _____ _____    ______ ____

>  <TORSDO>
F 12

$$$$
=
 OpenBabel11072410083D

 43 48  0  0  1  0  0  0  0  0999 V2000
  162.3120  210.0610  151.8500 C   0  0  0  0  0  2  0  0  0  0  0  0
  162.0320  207.7060  150.9350 C   0  0  1  0  0  3  0  0  0  0  0  0
  161.2090  206.4200  151.0510 C   0  0  2  0  0  3  0  0  0  0  0  0
  161.6540  205.5260  152.2120 C   0  0  0  0  0  2  0  0  0  0  0  0
  161.7780  210.1500  150.4950 N   0  0  1  0  0  0  0  0  0  0  0  0
  160.6520  208.4550  153.0880 C   0  0  0  0  0  0  0  0  0  0  0  0
  161.7320  206.2290  153.5710 C   0  0  0  0  0  2  0  0  0  0  0  0
  161.0930  208.8750  150.7140 C   0  0  2  0  0  3  0  0  0  0  0  0
  160.5440  207.1540  153.8410 C   0  0  0  0  0  2  0  0  0  0  0  0
  159.8430  209.3390  153.3230 O   0  0  0  0  0  0  0  0  0  0  0  0
  161.7470  208.6830  152.0700 C   0  0  1  0  0  0  0  0  0  0  0  0
  161.2530  212.4250  149.7010 C   0  0  1  0  0  3  0  0  0  0  0  0
  160.5850  211.7750  151.8560 C   0  0  0  0  0  2  0  0  0  0  0  0
  160.8330  213.6020  150.3550 O   0  0  0  0  0  0  0  0  0  0  0  0
  160.7720  211.2150  150.4820 C   0  0  2  0  0  3  0  0  0  0  0  0
  160.2820  213.2310  151.5970 C   0  0  1  0  0  3  0  0  0  0  0  0
  160.6970  212.3750  148.2770 C   0  0  0  0  0  2  0  0  0  0  0  0
  159.8720  213.6010  147.8830 C   0  0  0  0  0  3  0  0  0  0  0  0
  160.3790  214.2280  146.6030 C   0  0  0  0  0  1  0  0  0  0  0  0
  158.3900  213.2940  147.7760 C   0  0  0  0  0  1  0  0  0  0  0  0
  158.7750  213.4500  151.5600 C   0  0  0  0  0  2  0  0  0  0  0  0
  155.8470  214.2530  152.2930 C   0  0  0  0  0  0  0  0  0  0  0  0
  154.6730  214.4530  152.9190 N   0  0  0  0  0  2  0  0  0  0  0  0
  154.9830  214.2350  154.2150 C   0  0  0  0  0  3  0  0  0  0  0  0
  156.0100  214.4120  150.6690 S   0  0  0  0  0  0  0  0  0  0  0  0
  156.8280  213.9250  153.1640 N   0  0  0  0  0  0  0  0  0  0  0  0
  158.9670  213.4010  153.9260 O   0  0  0  0  0  0  0  0  0  0  0  0
  156.2840  213.9180  154.3690 N   0  0  0  0  0  0  0  0  0  0  0  0
  158.2120  213.6050  152.9380 C   0  0  0  0  0  0  0  0  0  0  0  0
  161.2980  205.6220  149.7620 C   0  0  0  0  0  2  0  0  0  0  0  0
  160.6280  206.3530  148.6030 C   0  0  0  0  0  2  0  0  0  0  0  0
  162.6680  207.4530  148.1270 O   0  0  0  0  0  1  0  0  0  0  0  0
  161.6280  206.7490  147.5230 C   0  0  1  0  0  3  0  0  0  0  0  0
  162.1720  205.5110  146.7920 C   0  0  2  0  0  3  0  0  0  0  0  0
  162.4220  205.8130  145.3800 N   0  0  0  0  0  2  0  0  0  0  0  0
  161.1680  204.3700  146.8650 C   0  0  1  0  0  3  0  0  0  0  0  0
  161.6090  204.9030  144.5860 C   0  0  0  0  0  2  0  0  0  0  0  0
  160.5570  204.3130  145.4920 C   0  0  0  0  0  2  0  0  0  0  0  0
  161.8890  203.0590  147.1470 C   0  0  0  0  0  2  0  0  0  0  0  0
  160.9440  201.9140  147.0500 C   0  0  0  0  0  0  0  0  0  0  0  0
  160.4740  201.5860  145.9270 O   0  0  0  0  0  0  0  0  0  0  0  0
  160.1760  201.8420  149.3860 C   0  0  0  0  0  1  0  0  0  0  0  0
  160.6190  201.1970  148.2030 O   0  0  0  0  0  0  0  0  0  0  0  0
  1 11  1  0  0  0  0
  2  3  1  0  0  0  0
  2 11  1  0  0  0  0
  3  4  1  0  0  0  0
  4  7  1  0  0  0  0
  5  8  1  0  0  0  0
  5  1  1  0  0  0  0
  6 10  2  0  0  0  0
  6  9  1  0  0  0  0
  7  9  1  0  0  0  0
  8  2  1  0  0  0  0
  8 11  1  0  0  0  0
 11  6  1  0  0  0  0
 12 14  1  0  0  0  0
 12 15  1  0  0  0  0
 14 16  1  0  0  0  0
 15  5  1  0  0  0  0
 15 13  1  0  0  0  0
 16 13  1  0  0  0  0
 17 12  1  0  0  0  0
 18 17  1  0  0  0  0
 19 18  1  0  0  0  0
 20 18  1  0  0  0  0
 21 16  1  0  0  0  0
 21 29  1  0  0  0  0
 22 23  1  0  0  0  0
 22 26  1  0  0  0  0
 23 24  1  0  0  0  0
 24 28  2  0  0  0  0
 25 22  2  0  0  0  0
 26 28  1  0  0  0  0
 29 26  1  0  0  0  0
 29 27  2  0  0  0  0
 30  3  1  0  0  0  0
 31 30  1  0  0  0  0
 33 32  1  0  0  0  0
 33 31  1  0  0  0  0
 34 36  1  0  0  0  0
 34 33  1  0  0  0  0
 35 34  1  0  0  0  0
 36 39  1  0  0  0  0
 37 35  1  0  0  0  0
 37 38  1  0  0  0  0
 38 36  1  0  0  0  0
 40 39  1  0  0  0  0
 40 43  1  0  0  0  0
 41 40  2  0  0  0  0
 43 42  1  0  0  0  0
M  END
>  <MODEL>
6

>  <REMARK>
 VINA RESULT:      -5.3      2.452      3.681
  Name = 
  12 active torsions:
  status: ('A' for Active; 'I' for Inactive)
    1  A    between atoms: C_2  and  C_13
    2  A    between atoms: C_2  and  O_29
    3  A    between atoms: C_5  and  C_15
    4  A    between atoms: C_5  and  C_22
    5  A    between atoms: C_10  and  C_19
    6  A    between atoms: C_11  and  C_27
    7  A    between atoms: C_13  and  C_16
    8  A    between atoms: C_15  and  C_27
    9  A    between atoms: C_17  and  C_19
   10  A    between atoms: C_21  and  C_40
   11  A    between atoms: C_21  and  C_43
   12  A    between atoms: N_24  and  C_41
                            x       y       z     vdW  Elec       q    Type
                         _______ _______ _______ _____ _____    ______ ____

>  <TORSDO>
F 12

$$$$
=
 OpenBabel11072410083D

 43 48  0  0  1  0  0  0  0  0999 V2000
  160.6180  211.6430  155.2020 C   0  0  0  0  0  2  0  0  0  0  0  0
  161.2940  209.4050  154.2020 C   0  0  1  0  0  3  0  0  0  0  0  0
  160.7760  208.0240  153.7920 C   0  0  2  0  0  3  0  0  0  0  0  0
  160.6630  207.0510  154.9700 C   0  0  0  0  0  2  0  0  0  0  0  0
  160.9040  211.8350  153.7840 N   0  0  1  0  0  0  0  0  0  0  0  0
  158.8590  209.7010  155.2430 C   0  0  0  0  0  0  0  0  0  0  0  0
  159.8650  207.5820  156.1660 C   0  0  0  0  0  2  0  0  0  0  0  0
  160.4420  210.4680  153.5370 C   0  0  2  0  0  3  0  0  0  0  0  0
  158.5830  208.3120  155.7600 C   0  0  0  0  0  2  0  0  0  0  0  0
  157.9140  210.4420  155.0180 O   0  0  0  0  0  0  0  0  0  0  0  0
  160.2720  210.1880  155.0190 C   0  0  1  0  0  0  0  0  0  0  0  0
  158.7630  212.9740  154.2310 C   0  0  1  0  0  3  0  0  0  0  0  0
  159.2040  212.1570  152.0740 C   0  0  0  0  0  2  0  0  0  0  0  0
  157.5450  213.0500  153.5230 O   0  0  0  0  0  0  0  0  0  0  0  0
  159.9020  212.7620  153.2500 C   0  0  2  0  0  3  0  0  0  0  0  0
  157.8040  212.7120  152.1820 C   0  0  1  0  0  3  0  0  0  0  0  0
  159.0000  214.2570  155.0290 C   0  0  0  0  0  2  0  0  0  0  0  0
  158.4700  214.2110  156.4620 C   0  0  0  0  0  3  0  0  0  0  0  0
  156.9570  214.2270  156.4990 C   0  0  0  0  0  1  0  0  0  0  0  0
  159.0100  213.0280  157.2430 C   0  0  0  0  0  1  0  0  0  0  0  0
  157.6720  213.9600  151.3170 C   0  0  0  0  0  2  0  0  0  0  0  0
  159.1060  213.7260  148.5530 C   0  0  0  0  0  0  0  0  0  0  0  0
  159.4310  213.4460  147.2780 N   0  0  0  0  0  2  0  0  0  0  0  0
  158.2540  213.0490  146.7480 C   0  0  0  0  0  3  0  0  0  0  0  0
  160.2090  214.2720  149.6360 S   0  0  0  0  0  0  0  0  0  0  0  0
  157.7940  213.5070  148.7930 N   0  0  0  0  0  0  0  0  0  0  0  0
  155.7830  213.4550  149.9710 O   0  0  0  0  0  0  0  0  0  0  0  0
  157.2600  213.0860  147.6590 N   0  0  0  0  0  0  0  0  0  0  0  0
  157.0270  213.6470  150.0030 C   0  0  0  0  0  0  0  0  0  0  0  0
  161.6900  207.4110  152.7440 C   0  0  0  0  0  2  0  0  0  0  0  0
  160.9310  207.0800  151.4640 C   0  0  0  0  0  2  0  0  0  0  0  0
  162.5970  208.5660  150.6790 O   0  0  0  0  0  1  0  0  0  0  0  0
  161.5130  207.7990  150.2520 C   0  0  1  0  0  3  0  0  0  0  0  0
  161.9570  206.7960  149.1750 C   0  0  2  0  0  3  0  0  0  0  0  0
  162.2410  207.4870  147.9130 N   0  0  0  0  0  2  0  0  0  0  0  0
  160.8590  205.7740  148.9210 C   0  0  1  0  0  3  0  0  0  0  0  0
  161.3600  206.9280  146.8980 C   0  0  0  0  0  2  0  0  0  0  0  0
  160.2550  206.1820  147.6050 C   0  0  0  0  0  2  0  0  0  0  0  0
  161.4640  204.3840  148.7840 C   0  0  0  0  0  2  0  0  0  0  0  0
  161.0170  203.5080  149.9000 C   0  0  0  0  0  0  0  0  0  0  0  0
  160.1450  202.6220  149.6880 O   0  0  0  0  0  0  0  0  0  0  0  0
  160.8260  203.6100  152.3510 C   0  0  0  0  0  1  0  0  0  0  0  0
  161.5970  203.6600  151.1610 O   0  0  0  0  0  0  0  0  0  0  0  0
  2 11  1  0  0  0  0
  3  2  1  0  0  0  0
  3  4  1  0  0  0  0
  4  7  1  0  0  0  0
  5  1  1  0  0  0  0
  6  9  1  0  0  0  0
  8  5  1  0  0  0  0
  8  2  1  0  0  0  0
  8 11  1  0  0  0  0
  9  7  1  0  0  0  0
 10  6  2  0  0  0  0
 11  1  1  0  0  0  0
 11  6  1  0  0  0  0
 12 17  1  0  0  0  0
 13 16  1  0  0  0  0
 13 15  1  0  0  0  0
 14 12  1  0  0  0  0
 15  5  1  0  0  0  0
 15 12  1  0  0  0  0
 16 14  1  0  0  0  0
 17 18  1  0  0  0  0
 18 19  1  0  0  0  0
 18 20  1  0  0  0  0
 21 16  1  0  0  0  0
 22 26  1  0  0  0  0
 22 25  2  0  0  0  0
 23 22  1  0  0  0  0
 24 23  1  0  0  0  0
 24 28  2  0  0  0  0
 26 29  1  0  0  0  0
 27 29  2  0  0  0  0
 28 26  1  0  0  0  0
 29 21  1  0  0  0  0
 30  3  1  0  0  0  0
 31 30  1  0  0  0  0
 33 32  1  0  0  0  0
 33 31  1  0  0  0  0
 34 33  1  0  0  0  0
 35 34  1  0  0  0  0
 36 34  1  0  0  0  0
 37 38  1  0  0  0  0
 37 35  1  0  0  0  0
 38 36  1  0  0  0  0
 39 36  1  0  0  0  0
 39 40  1  0  0  0  0
 40 43  1  0  0  0  0
 41 40  2  0  0  0  0
 43 42  1  0  0  0  0
M  END
>  <MODEL>
7

>  <REMARK>
 VINA RESULT:      -4.9      2.562      4.912
  Name = 
  12 active torsions:
  status: ('A' for Active; 'I' for Inactive)
    1  A    between atoms: C_2  and  C_13
    2  A    between atoms: C_2  and  O_29
    3  A    between atoms: C_5  and  C_15
    4  A    between atoms: C_5  and  C_22
    5  A    between atoms: C_10  and  C_19
    6  A    between atoms: C_11  and  C_27
    7  A    between atoms: C_13  and  C_16
    8  A    between atoms: C_15  and  C_27
    9  A    between atoms: C_17  and  C_19
   10  A    between atoms: C_21  and  C_40
   11  A    between atoms: C_21  and  C_43
   12  A    between atoms: N_24  and  C_41
                            x       y       z     vdW  Elec       q    Type
                         _______ _______ _______ _____ _____    ______ ____

>  <TORSDO>
F 12

$$$$
=
 OpenBabel11072410083D

 43 48  0  0  1  0  0  0  0  0999 V2000
  162.4750  210.0330  151.4920 C   0  0  0  0  0  2  0  0  0  0  0  0
  160.4910  211.5630  151.9240 C   0  0  1  0  0  3  0  0  0  0  0  0
  159.4220  212.4270  151.2500 C   0  0  2  0  0  3  0  0  0  0  0  0
  159.9360  213.8100  150.8430 C   0  0  0  0  0  2  0  0  0  0  0  0
  161.3610  209.2240  151.9750 N   0  0  1  0  0  0  0  0  0  0  0  0
  161.4770  211.3490  149.4580 C   0  0  0  0  0  0  0  0  0  0  0  0
  161.2150  213.7970  149.9990 C   0  0  0  0  0  2  0  0  0  0  0  0
  160.4400  210.1670  151.3370 C   0  0  2  0  0  3  0  0  0  0  0  0
  161.2070  212.7260  148.9070 C   0  0  0  0  0  2  0  0  0  0  0  0
  161.6380  210.4250  148.6750 O   0  0  0  0  0  0  0  0  0  0  0  0
  161.5680  211.1040  150.9460 C   0  0  1  0  0  0  0  0  0  0  0  0
  162.6900  207.2700  151.2690 C   0  0  1  0  0  3  0  0  0  0  0  0
  161.2130  208.2680  149.7420 C   0  0  0  0  0  2  0  0  0  0  0  0
  162.9860  206.7080  150.0090 O   0  0  0  0  0  0  0  0  0  0  0  0
  161.3490  207.9780  151.2030 C   0  0  2  0  0  3  0  0  0  0  0  0
  162.0200  207.1690  149.0950 C   0  0  1  0  0  3  0  0  0  0  0  0
  162.6470  206.1830  152.3440 C   0  0  0  0  0  2  0  0  0  0  0  0
  161.2360  205.7490  152.7420 C   0  0  0  0  0  3  0  0  0  0  0  0
  161.0350  204.2610  152.5560 C   0  0  0  0  0  1  0  0  0  0  0  0
  160.8800  206.1620  154.1580 C   0  0  0  0  0  1  0  0  0  0  0  0
  161.1070  206.0130  148.7080 C   0  0  0  0  0  2  0  0  0  0  0  0
  161.0680  203.1120  147.5500 C   0  0  0  0  0  0  0  0  0  0  0  0
  160.9910  202.0350  146.7470 N   0  0  0  0  0  0  0  0  0  0  0  0
  161.0900  202.5720  145.5120 C   0  0  0  0  0  3  0  0  0  0  0  0
  161.0080  202.9920  149.1830 S   0  0  0  0  0  0  0  0  0  0  0  0
  161.2040  204.2550  146.8390 N   0  0  0  0  0  0  0  0  0  0  0  0
  161.4990  206.5290  146.4240 O   0  0  0  0  0  0  0  0  0  0  0  0
  161.2210  203.9130  145.5620 N   0  0  0  0  0  2  0  0  0  0  0  0
  161.2980  205.6230  147.2760 C   0  0  0  0  0  0  0  0  0  0  0  0
  158.2310  212.6050  152.1760 C   0  0  0  0  0  2  0  0  0  0  0  0
  158.2990  213.9310  152.9260 C   0  0  0  0  0  2  0  0  0  0  0  0
  156.2450  214.4530  153.9800 O   0  0  0  0  0  1  0  0  0  0  0  0
  157.5000  213.8960  154.2240 C   0  0  1  0  0  3  0  0  0  0  0  0
  157.3550  212.4570  154.7450 C   0  0  2  0  0  3  0  0  0  0  0  0
  155.9610  212.1750  155.1010 N   0  0  0  0  0  2  0  0  0  0  0  0
  158.2130  212.2550  155.9850 C   0  0  1  0  0  3  0  0  0  0  0  0
  155.9320  211.8100  156.5100 C   0  0  0  0  0  2  0  0  0  0  0  0
  157.2360  212.2530  157.1280 C   0  0  0  0  0  2  0  0  0  0  0  0
  158.9110  210.9040  155.9200 C   0  0  0  0  0  2  0  0  0  0  0  0
  160.3040  211.0120  156.4330 C   0  0  0  0  0  0  0  0  0  0  0  0
  160.7960  212.1490  156.6670 O   0  0  0  0  0  0  0  0  0  0  0  0
  160.3970  208.6030  156.9260 C   0  0  0  0  0  1  0  0  0  0  0  0
  161.0330  209.8460  156.6790 O   0  0  0  0  0  0  0  0  0  0  0  0
  1  5  1  0  0  0  0
  3  2  1  0  0  0  0
  3 30  1  0  0  0  0
  4  3  1  0  0  0  0
  6 11  1  0  0  0  0
  7  4  1  0  0  0  0
  8  2  1  0  0  0  0
  8  5  1  0  0  0  0
  9  6  1  0  0  0  0
  9  7  1  0  0  0  0
 10  6  2  0  0  0  0
 11  8  1  0  0  0  0
 11  1  1  0  0  0  0
 11  2  1  0  0  0  0
 12 17  1  0  0  0  0
 13 15  1  0  0  0  0
 14 12  1  0  0  0  0
 15 12  1  0  0  0  0
 15  5  1  0  0  0  0
 16 13  1  0  0  0  0
 16 14  1  0  0  0  0
 17 18  1  0  0  0  0
 18 20  1  0  0  0  0
 19 18  1  0  0  0  0
 21 16  1  0  0  0  0
 22 25  2  0  0  0  0
 23 22  1  0  0  0  0
 24 28  1  0  0  0  0
 24 23  2  0  0  0  0
 26 29  1  0  0  0  0
 26 22  1  0  0  0  0
 27 29  2  0  0  0  0
 28 26  1  0  0  0  0
 29 21  1  0  0  0  0
 30 31  1  0  0  0  0
 31 33  1  0  0  0  0
 32 33  1  0  0  0  0
 33 34  1  0  0  0  0
 34 35  1  0  0  0  0
 34 36  1  0  0  0  0
 35 37  1  0  0  0  0
 36 38  1  0  0  0  0
 37 38  1  0  0  0  0
 39 36  1  0  0  0  0
 39 40  1  0  0  0  0
 40 41  2  0  0  0  0
 40 43  1  0  0  0  0
 43 42  1  0  0  0  0
M  END
>  <MODEL>
8

>  <REMARK>
 VINA RESULT:      -4.6      2.739      9.846
  Name = 
  12 active torsions:
  status: ('A' for Active; 'I' for Inactive)
    1  A    between atoms: C_2  and  C_13
    2  A    between atoms: C_2  and  O_29
    3  A    between atoms: C_5  and  C_15
    4  A    between atoms: C_5  and  C_22
    5  A    between atoms: C_10  and  C_19
    6  A    between atoms: C_11  and  C_27
    7  A    between atoms: C_13  and  C_16
    8  A    between atoms: C_15  and  C_27
    9  A    between atoms: C_17  and  C_19
   10  A    between atoms: C_21  and  C_40
   11  A    between atoms: C_21  and  C_43
   12  A    between atoms: N_24  and  C_41
                            x       y       z     vdW  Elec       q    Type
                         _______ _______ _______ _____ _____    ______ ____

>  <TORSDO>
F 12

$$$$
=
 OpenBabel11072410083D

 43 48  0  0  1  0  0  0  0  0999 V2000
  159.9420  207.9530  151.8130 C   0  0  0  0  0  2  0  0  0  0  0  0
  160.8340  209.3540  153.7380 C   0  0  1  0  0  3  0  0  0  0  0  0
  161.7930  209.3530  154.9310 C   0  0  2  0  0  3  0  0  0  0  0  0
  161.2040  208.6790  156.1730 C   0  0  0  0  0  2  0  0  0  0  0  0
  160.7970  209.0020  151.2670 N   0  0  1  0  0  0  0  0  0  0  0  0
  161.4470  206.7650  153.5990 C   0  0  0  0  0  0  0  0  0  0  0  0
  160.6520  207.2690  155.9370 C   0  0  0  0  0  2  0  0  0  0  0  0
  161.5960  208.9460  152.4930 C   0  0  2  0  0  3  0  0  0  0  0  0
  161.5580  206.4050  155.0580 C   0  0  0  0  0  2  0  0  0  0  0  0
  162.0090  206.0590  152.7750 O   0  0  0  0  0  0  0  0  0  0  0  0
  160.6430  207.9620  153.1460 C   0  0  1  0  0  0  0  0  0  0  0  0
  161.4910  209.2430  148.9130 C   0  0  1  0  0  3  0  0  0  0  0  0
  160.9900  207.1080  149.7510 C   0  0  0  0  0  2  0  0  0  0  0  0
  161.4250  208.3850  147.7940 O   0  0  0  0  0  0  0  0  0  0  0  0
  161.5840  208.4120  150.1790 C   0  0  2  0  0  3  0  0  0  0  0  0
  161.2770  207.0690  148.2700 C   0  0  1  0  0  3  0  0  0  0  0  0
  162.7070  210.1650  148.8090 C   0  0  0  0  0  2  0  0  0  0  0  0
  162.3600  211.6410  148.6130 C   0  0  0  0  0  3  0  0  0  0  0  0
  163.4700  212.3870  147.9050 C   0  0  0  0  0  1  0  0  0  0  0  0
  161.0410  211.8360  147.8900 C   0  0  0  0  0  1  0  0  0  0  0  0
  162.5640  206.2960  148.0090 C   0  0  0  0  0  2  0  0  0  0  0  0
  161.4100  203.4040  147.7700 C   0  0  0  0  0  0  0  0  0  0  0  0
  160.8860  202.2470  147.3250 N   0  0  0  0  0  0  0  0  0  0  0  0
  161.0420  202.3410  145.9870 C   0  0  0  0  0  3  0  0  0  0  0  0
  161.4730  203.7790  149.3650 S   0  0  0  0  0  0  0  0  0  0  0  0
  161.8610  204.1710  146.7520 N   0  0  0  0  0  0  0  0  0  0  0  0
  162.8820  205.9710  145.6800 O   0  0  0  0  0  0  0  0  0  0  0  0
  161.6330  203.5010  145.6360 N   0  0  0  0  0  2  0  0  0  0  0  0
  162.4650  205.4770  146.7610 C   0  0  0  0  0  0  0  0  0  0  0  0
  162.1830  210.7770  155.2910 C   0  0  0  0  0  2  0  0  0  0  0  0
  161.1410  211.4320  156.1910 C   0  0  0  0  0  2  0  0  0  0  0  0
  160.5180  212.3250  154.0900 O   0  0  0  0  0  1  0  0  0  0  0  0
  160.3570  212.5180  155.4610 C   0  0  1  0  0  3  0  0  0  0  0  0
  158.8680  212.4730  155.8380 C   0  0  2  0  0  3  0  0  0  0  0  0
  158.5460  211.2160  156.5200 N   0  0  0  0  0  2  0  0  0  0  0  0
  158.0040  212.5730  154.5890 C   0  0  1  0  0  3  0  0  0  0  0  0
  157.5190  210.5420  155.7370 C   0  0  0  0  0  2  0  0  0  0  0  0
  157.4930  211.1760  154.3680 C   0  0  0  0  0  2  0  0  0  0  0  0
  156.8260  213.5030  154.8450 C   0  0  0  0  0  2  0  0  0  0  0  0
  156.1640  213.8690  153.5640 C   0  0  0  0  0  0  0  0  0  0  0  0
  154.9250  213.6770  153.4240 O   0  0  0  0  0  0  0  0  0  0  0  0
  156.8390  214.0070  151.2020 C   0  0  0  0  0  1  0  0  0  0  0  0
  156.9210  214.4530  152.5460 O   0  0  0  0  0  0  0  0  0  0  0  0
  1 11  1  0  0  0  0
  2  3  1  0  0  0  0
  3 30  1  0  0  0  0
  3  4  1  0  0  0  0
  5  1  1  0  0  0  0
  5  8  1  0  0  0  0
  6  9  1  0  0  0  0
  7  4  1  0  0  0  0
  8 11  1  0  0  0  0
  8  2  1  0  0  0  0
  9  7  1  0  0  0  0
 10  6  2  0  0  0  0
 11  6  1  0  0  0  0
 11  2  1  0  0  0  0
 12 15  1  0  0  0  0
 13 15  1  0  0  0  0
 14 16  1  0  0  0  0
 14 12  1  0  0  0  0
 15  5  1  0  0  0  0
 16 13  1  0  0  0  0
 17 12  1  0  0  0  0
 18 17  1  0  0  0  0
 19 18  1  0  0  0  0
 20 18  1  0  0  0  0
 21 16  1  0  0  0  0
 22 25  2  0  0  0  0
 23 22  1  0  0  0  0
 24 23  2  0  0  0  0
 26 29  1  0  0  0  0
 26 22  1  0  0  0  0
 27 29  2  0  0  0  0
 28 24  1  0  0  0  0
 28 26  1  0  0  0  0
 29 21  1  0  0  0  0
 30 31  1  0  0  0  0
 32 33  1  0  0  0  0
 33 34  1  0  0  0  0
 33 31  1  0  0  0  0
 34 35  1  0  0  0  0
 36 39  1  0  0  0  0
 36 34  1  0  0  0  0
 37 35  1  0  0  0  0
 38 36  1  0  0  0  0
 38 37  1  0  0  0  0
 40 39  1  0  0  0  0
 41 40  2  0  0  0  0
 42 43  1  0  0  0  0
 43 40  1  0  0  0  0
M  END
>  <MODEL>
9

>  <REMARK>
 VINA RESULT:      -4.0      2.741      8.997
  Name = 
  12 active torsions:
  status: ('A' for Active; 'I' for Inactive)
    1  A    between atoms: C_2  and  C_13
    2  A    between atoms: C_2  and  O_29
    3  A    between atoms: C_5  and  C_15
    4  A    between atoms: C_5  and  C_22
    5  A    between atoms: C_10  and  C_19
    6  A    between atoms: C_11  and  C_27
    7  A    between atoms: C_13  and  C_16
    8  A    between atoms: C_15  and  C_27
    9  A    between atoms: C_17  and  C_19
   10  A    between atoms: C_21  and  C_40
   11  A    between atoms: C_21  and  C_43
   12  A    between atoms: N_24  and  C_41
                            x       y       z     vdW  Elec       q    Type
                         _______ _______ _______ _____ _____    ______ ____

>  <TORSDO>
F 12

$$$$
