=
 OpenBabel11072412543D

 41 45  0  0  1  0  0  0  0  0999 V2000
  160.4200  207.5920  154.1870 C   0  0  0  0  0  2  0  0  0  0  0  0
  160.8170  208.5700  156.3810 N   0  0  0  0  0  0  0  0  0  0  0  0
  160.1230  209.6120  157.0260 N   0  0  0  0  0  2  0  0  0  0  0  0
  162.1990  208.6510  156.8210 C   0  0  0  0  0  1  0  0  0  0  0  0
  160.8080  208.8540  154.9490 C   0  0  2  0  0  3  0  0  0  0  0  0
  159.8070  209.9560  154.7050 C   0  0  1  0  0  3  0  0  0  0  0  0
  159.1830  210.1500  156.0580 C   0  0  0  0  0  2  0  0  0  0  0  0
  160.5580  211.2160  154.2950 C   0  0  0  0  0  2  0  0  0  0  0  0
  158.2890  212.0280  154.8220 C   0  0  0  0  0  3  0  0  0  0  0  0
  158.0560  213.2720  147.9980 C   0  0  0  0  0  2  0  0  0  0  0  0
  159.6580  212.4400  154.3440 C   0  0  2  0  0  3  0  0  0  0  0  0
  159.6330  213.1070  153.0360 N   0  0  0  0  0  0  0  0  0  0  0  0
  157.4100  214.1900  150.2930 C   0  0  0  0  0  2  0  0  0  0  0  0
  159.3820  214.0300  148.1250 C   0  0  0  0  0  2  0  0  0  0  0  0
  157.2870  212.9480  152.9010 N   0  0  0  0  0  2  0  0  0  0  0  0
  158.6190  214.0110  151.0910 N   0  0  0  0  0  0  0  0  0  0  0  0
  160.2350  213.5580  149.2950 C   0  0  0  0  0  2  0  0  0  0  0  0
  157.2190  212.2830  154.1340 N   0  0  0  0  0  0  0  0  0  0  0  0
  157.2850  213.0400  149.3040 C   0  0  0  0  0  2  0  0  0  0  0  0
  158.5500  213.3500  152.3640 C   0  0  0  0  0  0  0  0  0  0  0  0
  159.9110  214.3920  150.5280 C   0  0  0  0  0  2  0  0  0  0  0  0
  161.6380  206.8140  153.6980 C   0  0  0  0  0  2  0  0  0  0  0  0
  161.1130  202.5220  151.5500 C   0  0  0  0  0  3  0  0  0  0  0  0
  160.9350  201.7340  150.4110 C   0  0  0  0  0  3  0  0  0  0  0  0
  161.1440  206.6950  151.1970 C   0  0  0  0  0  0  0  0  0  0  0  0
  160.7870  202.3180  149.1920 N   0  0  0  0  0  0  0  0  0  0  0  0
  161.3390  206.0500  152.4460 C   0  0  0  0  0  0  0  0  0  0  0  0
  161.1320  203.9110  151.4210 C   0  0  0  0  0  0  0  0  0  0  0  0
  160.8020  203.6700  149.0410 C   0  0  0  0  0  3  0  0  0  0  0  0
  161.3160  204.6900  152.5160 N   0  0  0  0  0  0  0  0  0  0  0  0
  160.9750  204.5030  150.1550 C   0  0  0  0  0  0  0  0  0  0  0  0
  160.9940  205.9040  150.0440 C   0  0  0  0  0  0  0  0  0  0  0  0
  161.1050  208.0920  151.0490 O   0  0  0  0  0  0  0  0  0  0  0  0
  162.2480  208.9350  151.0630 C   0  0  0  0  0  1  0  0  0  0  0  0
  160.7920  206.5660  148.7150 C   0  0  0  0  0  2  0  0  0  0  0  0
  162.0390  206.8890  148.1530 O   0  0  0  0  0  0  0  0  0  0  0  0
  162.0930  206.3790  146.8380 C   0  0  1  0  0  3  0  0  0  0  0  0
  162.8860  205.2270  146.7590 O   0  0  0  0  0  1  0  0  0  0  0  0
  160.7040  206.1460  146.2470 C   0  0  0  0  0  2  0  0  0  0  0  0
  160.4540  204.4150  144.6390 O   0  0  0  0  0  1  0  0  0  0  0  0
  160.8140  205.7520  144.7870 C   0  0  0  0  0  2  0  0  0  0  0  0
  2  4  1  0  0  0  0
  2  3  1  0  0  0  0
  5  1  1  6  0  0  0
  5  2  1  0  0  0  0
  6  8  1  1  0  0  0
  6  5  1  0  0  0  0
  6  7  1  0  0  0  0
  7  3  1  0  0  0  0
 10 14  1  0  0  0  0
 10 19  1  0  0  0  0
 11  8  1  6  0  0  0
 11  9  1  0  0  0  0
 12 11  1  0  0  0  0
 13 16  1  0  0  0  0
 14 17  1  0  0  0  0
 15 18  1  0  0  0  0
 16 20  1  0  0  0  0
 17 21  1  0  0  0  0
 18  9  2  0  0  0  0
 19 13  1  0  0  0  0
 20 15  1  0  0  0  0
 20 12  2  0  0  0  0
 21 16  1  0  0  0  0
 22  1  1  0  0  0  0
 24 23  2  0  0  0  0
 25 27  1  0  0  0  0
 26 24  1  0  0  0  0
 27 30  2  0  0  0  0
 27 22  1  0  0  0  0
 28 23  1  0  0  0  0
 28 30  1  0  0  0  0
 29 26  2  0  0  0  0
 29 31  1  0  0  0  0
 31 28  2  0  0  0  0
 32 31  1  0  0  0  0
 32 25  2  0  0  0  0
 33 34  1  0  0  0  0
 33 25  1  0  0  0  0
 35 32  1  0  0  0  0
 36 35  1  0  0  0  0
 37 38  1  1  0  0  0
 37 36  1  0  0  0  0
 39 37  1  0  0  0  0
 40 41  1  0  0  0  0
 41 39  1  0  0  0  0
M  END
>  <MODEL>
1

>  <REMARK>
 VINA RESULT:      -8.8      0.000      0.000
  Name = 
  11 active torsions:
  status: ('A' for Active; 'I' for Inactive)
    1  A    between atoms: C_1  and  O_7
    2  A    between atoms: C_1  and  C_39
    3  A    between atoms: C_6  and  C_23
    4  A    between atoms: C_6  and  C_41
    5  A    between atoms: O_7  and  C_38
    6  A    between atoms: O_8  and  C_12
    7  A    between atoms: C_9  and  C_36
    8  A    between atoms: C_18  and  C_41
    9  A    between atoms: C_34  and  C_36
   10  A    between atoms: C_35  and  C_39
   11  A    between atoms: C_38  and  C_40
                            x       y       z     vdW  Elec       q    Type
                         _______ _______ _______ _____ _____    ______ ____

>  <TORSDO>
F 11

$$$$
=
 OpenBabel11072412543D

 41 45  0  0  1  0  0  0  0  0999 V2000
  160.3200  208.8260  152.7740 C   0  0  0  0  0  2  0  0  0  0  0  0
  160.6620  210.4690  154.5380 N   0  0  0  0  0  0  0  0  0  0  0  0
  159.9740  211.6750  154.7720 N   0  0  0  0  0  2  0  0  0  0  0  0
  162.0290  210.6710  154.9870 C   0  0  0  0  0  1  0  0  0  0  0  0
  160.7150  210.2640  153.0930 C   0  0  2  0  0  3  0  0  0  0  0  0
  159.7540  211.2370  152.4560 C   0  0  1  0  0  3  0  0  0  0  0  0
  159.0860  211.8750  153.6400 C   0  0  0  0  0  2  0  0  0  0  0  0
  160.5550  212.2800  151.6870 C   0  0  0  0  0  2  0  0  0  0  0  0
  158.2190  212.9640  151.2840 C   0  0  0  0  0  3  0  0  0  0  0  0
  160.1470  212.6150  144.6270 C   0  0  0  0  0  2  0  0  0  0  0  0
  159.6590  213.3900  151.1600 C   0  0  2  0  0  3  0  0  0  0  0  0
  160.0380  213.7400  149.7860 N   0  0  0  0  0  0  0  0  0  0  0  0
  158.7820  213.9570  146.3190 C   0  0  0  0  0  2  0  0  0  0  0  0
  161.3460  213.5080  144.9620 C   0  0  0  0  0  2  0  0  0  0  0  0
  157.8620  213.3260  148.9860 N   0  0  0  0  0  2  0  0  0  0  0  0
  159.6780  214.0810  147.4650 N   0  0  0  0  0  0  0  0  0  0  0  0
  161.7910  213.3970  146.4130 C   0  0  0  0  0  2  0  0  0  0  0  0
  157.4190  212.9510  150.2630 N   0  0  0  0  0  0  0  0  0  0  0  0
  159.0050  212.6080  145.6510 C   0  0  0  0  0  2  0  0  0  0  0  0
  159.2210  213.7190  148.7780 C   0  0  0  0  0  0  0  0  0  0  0  0
  161.0730  214.4510  147.2470 C   0  0  0  0  0  2  0  0  0  0  0  0
  161.5340  207.9150  152.6130 C   0  0  0  0  0  2  0  0  0  0  0  0
  161.0630  203.2020  151.6780 C   0  0  0  0  0  3  0  0  0  0  0  0
  160.9320  202.1360  150.7860 C   0  0  0  0  0  3  0  0  0  0  0  0
  161.1640  207.1250  150.2150 C   0  0  0  0  0  0  0  0  0  0  0  0
  160.8520  202.3690  149.4480 N   0  0  0  0  0  0  0  0  0  0  0  0
  161.2880  206.8410  151.6000 C   0  0  0  0  0  0  0  0  0  0  0  0
  161.1060  204.5050  151.1810 C   0  0  0  0  0  0  0  0  0  0  0  0
  160.8930  203.6290  148.9400 C   0  0  0  0  0  3  0  0  0  0  0  0
  161.2450  205.5510  152.0330 N   0  0  0  0  0  0  0  0  0  0  0  0
  161.0200  204.7330  149.7950 C   0  0  0  0  0  0  0  0  0  0  0  0
  161.0630  206.0520  149.3120 C   0  0  0  0  0  0  0  0  0  0  0  0
  161.1510  208.4300  149.6940 O   0  0  0  0  0  0  0  0  0  0  0  0
  162.2510  209.0480  149.0420 C   0  0  0  0  0  1  0  0  0  0  0  0
  160.9360  206.3300  147.8450 C   0  0  0  0  0  2  0  0  0  0  0  0
  162.2030  206.6160  147.3070 O   0  0  0  0  0  0  0  0  0  0  0  0
  162.3900  205.8370  146.1440 C   0  0  1  0  0  3  0  0  0  0  0  0
  163.3170  204.8070  146.3520 O   0  0  0  0  0  1  0  0  0  0  0  0
  161.0740  205.3020  145.5830 C   0  0  0  0  0  2  0  0  0  0  0  0
  160.6290  202.9970  145.2210 O   0  0  0  0  0  1  0  0  0  0  0  0
  161.3300  204.0880  144.7120 C   0  0  0  0  0  2  0  0  0  0  0  0
  2  3  1  0  0  0  0
  2  4  1  0  0  0  0
  5  1  1  1  0  0  0
  5  2  1  0  0  0  0
  6  8  1  1  0  0  0
  6  5  1  0  0  0  0
  6  7  1  0  0  0  0
  7  3  1  0  0  0  0
 10 14  1  0  0  0  0
 10 19  1  0  0  0  0
 11  9  1  0  0  0  0
 11  8  1  6  0  0  0
 12 11  1  0  0  0  0
 13 16  1  0  0  0  0
 14 17  1  0  0  0  0
 15 18  1  0  0  0  0
 16 20  1  0  0  0  0
 17 21  1  0  0  0  0
 18  9  2  0  0  0  0
 19 13  1  0  0  0  0
 20 15  1  0  0  0  0
 20 12  2  0  0  0  0
 21 16  1  0  0  0  0
 22  1  1  0  0  0  0
 24 23  2  0  0  0  0
 25 27  1  0  0  0  0
 26 24  1  0  0  0  0
 27 30  2  0  0  0  0
 27 22  1  0  0  0  0
 28 23  1  0  0  0  0
 28 30  1  0  0  0  0
 29 26  2  0  0  0  0
 29 31  1  0  0  0  0
 31 28  2  0  0  0  0
 32 31  1  0  0  0  0
 32 25  2  0  0  0  0
 33 25  1  0  0  0  0
 34 33  1  0  0  0  0
 35 32  1  0  0  0  0
 36 35  1  0  0  0  0
 37 38  1  1  0  0  0
 37 36  1  0  0  0  0
 39 37  1  0  0  0  0
 41 40  1  0  0  0  0
 41 39  1  0  0  0  0
M  END
>  <MODEL>
2

>  <REMARK>
 VINA RESULT:      -8.3      1.826      2.528
  Name = 
  11 active torsions:
  status: ('A' for Active; 'I' for Inactive)
    1  A    between atoms: C_1  and  O_7
    2  A    between atoms: C_1  and  C_39
    3  A    between atoms: C_6  and  C_23
    4  A    between atoms: C_6  and  C_41
    5  A    between atoms: O_7  and  C_38
    6  A    between atoms: O_8  and  C_12
    7  A    between atoms: C_9  and  C_36
    8  A    between atoms: C_18  and  C_41
    9  A    between atoms: C_34  and  C_36
   10  A    between atoms: C_35  and  C_39
   11  A    between atoms: C_38  and  C_40
                            x       y       z     vdW  Elec       q    Type
                         _______ _______ _______ _____ _____    ______ ____

>  <TORSDO>
F 11

$$$$
=
 OpenBabel11072412543D

 41 45  0  0  1  0  0  0  0  0999 V2000
  161.2530  211.4550  149.6870 C   0  0  0  0  0  2  0  0  0  0  0  0
  162.6900  212.9330  148.3920 N   0  0  0  0  0  0  0  0  0  0  0  0
  162.3960  214.1930  147.8370 N   0  0  0  0  0  2  0  0  0  0  0  0
  163.6530  212.2990  147.5070 C   0  0  0  0  0  1  0  0  0  0  0  0
  161.4700  212.1310  148.3380 C   0  0  2  0  0  3  0  0  0  0  0  0
  160.3250  213.0590  148.0130 C   0  0  1  0  0  3  0  0  0  0  0  0
  160.9740  214.4140  148.0320 C   0  0  0  0  0  2  0  0  0  0  0  0
  159.8250  212.7420  146.6100 C   0  0  0  0  0  2  0  0  0  0  0  0
  158.1780  214.3050  145.6450 C   0  0  0  0  0  3  0  0  0  0  0  0
  160.6030  211.8300  139.6320 C   0  0  0  0  0  2  0  0  0  0  0  0
  159.6490  214.0080  145.7850 C   0  0  2  0  0  3  0  0  0  0  0  0
  160.3340  213.8740  144.4940 N   0  0  0  0  0  0  0  0  0  0  0  0
  159.8250  213.9440  140.8370 C   0  0  0  0  0  2  0  0  0  0  0  0
  162.0240  212.1380  140.1160 C   0  0  0  0  0  2  0  0  0  0  0  0
  158.3570  214.3290  143.2980 N   0  0  0  0  0  2  0  0  0  0  0  0
  160.5030  213.8770  142.1280 N   0  0  0  0  0  0  0  0  0  0  0  0
  162.1580  212.1280  141.6330 C   0  0  0  0  0  2  0  0  0  0  0  0
  157.6180  214.4520  144.4840 N   0  0  0  0  0  0  0  0  0  0  0  0
  159.4670  212.5360  140.3830 C   0  0  0  0  0  2  0  0  0  0  0  0
  159.7530  214.0230  143.3430 C   0  0  0  0  0  0  0  0  0  0  0  0
  161.9210  213.5320  142.1740 C   0  0  0  0  0  2  0  0  0  0  0  0
  162.3930  210.5080  150.0490 C   0  0  0  0  0  2  0  0  0  0  0  0
  160.7300  209.3360  154.4280 C   0  0  0  0  0  3  0  0  0  0  0  0
  160.3820  208.3910  155.3950 C   0  0  0  0  0  3  0  0  0  0  0  0
  162.0050  208.0590  150.6490 C   0  0  0  0  0  0  0  0  0  0  0  0
  160.4700  207.0630  155.1160 N   0  0  0  0  0  0  0  0  0  0  0  0
  161.9420  209.4340  150.9900 C   0  0  0  0  0  0  0  0  0  0  0  0
  161.1630  208.9010  153.1750 C   0  0  0  0  0  0  0  0  0  0  0  0
  160.8900  206.6140  153.9030 C   0  0  0  0  0  3  0  0  0  0  0  0
  161.5170  209.8060  152.2280 N   0  0  0  0  0  0  0  0  0  0  0  0
  161.2470  207.5240  152.8990 C   0  0  0  0  0  0  0  0  0  0  0  0
  161.6830  207.1040  151.6300 C   0  0  0  0  0  0  0  0  0  0  0  0
  162.3860  207.5960  149.3780 O   0  0  0  0  0  0  0  0  0  0  0  0
  161.5520  207.6210  148.2280 C   0  0  0  0  0  1  0  0  0  0  0  0
  161.7480  205.6450  151.2920 C   0  0  0  0  0  2  0  0  0  0  0  0
  160.4700  205.1870  150.9300 O   0  0  0  0  0  0  0  0  0  0  0  0
  160.6110  204.0490  150.1070 C   0  0  1  0  0  3  0  0  0  0  0  0
  161.5750  204.2440  149.1090 O   0  0  0  0  0  1  0  0  0  0  0  0
  160.8860  202.7790  150.9100 C   0  0  0  0  0  2  0  0  0  0  0  0
  159.6510  201.5430  149.3000 O   0  0  0  0  0  1  0  0  0  0  0  0
  160.8540  201.5660  150.0010 C   0  0  0  0  0  2  0  0  0  0  0  0
  1 22  1  0  0  0  0
  3  7  1  0  0  0  0
  3  2  1  0  0  0  0
  4  2  1  0  0  0  0
  5  2  1  0  0  0  0
  5  1  1  1  0  0  0
  6  8  1  6  0  0  0
  6  7  1  0  0  0  0
  6  5  1  0  0  0  0
  9 11  1  0  0  0  0
 10 14  1  0  0  0  0
 10 19  1  0  0  0  0
 11  8  1  6  0  0  0
 12 11  1  0  0  0  0
 13 16  1  0  0  0  0
 14 17  1  0  0  0  0
 15 20  1  0  0  0  0
 15 18  1  0  0  0  0
 16 21  1  0  0  0  0
 16 20  1  0  0  0  0
 17 21  1  0  0  0  0
 18  9  2  0  0  0  0
 19 13  1  0  0  0  0
 20 12  2  0  0  0  0
 22 27  1  0  0  0  0
 23 24  1  0  0  0  0
 25 27  1  0  0  0  0
 25 32  2  0  0  0  0
 26 24  2  0  0  0  0
 27 30  2  0  0  0  0
 28 23  2  0  0  0  0
 29 26  1  0  0  0  0
 30 28  1  0  0  0  0
 31 28  1  0  0  0  0
 31 29  2  0  0  0  0
 32 31  1  0  0  0  0
 33 25  1  0  0  0  0
 34 33  1  0  0  0  0
 35 32  1  0  0  0  0
 36 35  1  0  0  0  0
 37 38  1  6  0  0  0
 37 39  1  0  0  0  0
 37 36  1  0  0  0  0
 40 41  1  0  0  0  0
 41 39  1  0  0  0  0
M  END
>  <MODEL>
3

>  <REMARK>
 VINA RESULT:      -7.7      4.355      7.274
  Name = 
  11 active torsions:
  status: ('A' for Active; 'I' for Inactive)
    1  A    between atoms: C_1  and  O_7
    2  A    between atoms: C_1  and  C_39
    3  A    between atoms: C_6  and  C_23
    4  A    between atoms: C_6  and  C_41
    5  A    between atoms: O_7  and  C_38
    6  A    between atoms: O_8  and  C_12
    7  A    between atoms: C_9  and  C_36
    8  A    between atoms: C_18  and  C_41
    9  A    between atoms: C_34  and  C_36
   10  A    between atoms: C_35  and  C_39
   11  A    between atoms: C_38  and  C_40
                            x       y       z     vdW  Elec       q    Type
                         _______ _______ _______ _____ _____    ______ ____

>  <TORSDO>
F 11

$$$$
=
 OpenBabel11072412543D

 41 45  0  0  1  0  0  0  0  0999 V2000
  161.3420  210.9910  147.8890 C   0  0  0  0  0  2  0  0  0  0  0  0
  160.2460  213.0120  148.6890 N   0  0  0  0  0  0  0  0  0  0  0  0
  159.1550  213.7080  148.1340 N   0  0  0  0  0  2  0  0  0  0  0  0
  161.0900  214.0010  149.3370 C   0  0  0  0  0  1  0  0  0  0  0  0
  161.0190  212.4490  147.5860 C   0  0  2  0  0  3  0  0  0  0  0  0
  160.1830  212.5630  146.3340 C   0  0  1  0  0  3  0  0  0  0  0  0
  158.8730  213.0880  146.8500 C   0  0  0  0  0  2  0  0  0  0  0  0
  160.8260  213.5890  145.4110 C   0  0  0  0  0  2  0  0  0  0  0  0
  163.1110  214.1150  144.6450 C   0  0  0  0  0  3  0  0  0  0  0  0
  160.3610  213.0200  138.3690 C   0  0  0  0  0  2  0  0  0  0  0  0
  162.0710  213.0300  144.7400 C   0  0  2  0  0  3  0  0  0  0  0  0
  161.7290  212.4460  143.4380 N   0  0  0  0  0  0  0  0  0  0  0  0
  162.4320  212.6390  139.8170 C   0  0  0  0  0  2  0  0  0  0  0  0
  159.8230  211.6790  138.8760 C   0  0  0  0  0  2  0  0  0  0  0  0
  163.2780  213.8200  142.3160 N   0  0  0  0  0  2  0  0  0  0  0  0
  161.8850  212.1700  141.0860 N   0  0  0  0  0  0  0  0  0  0  0  0
  159.5870  211.6550  140.3800 C   0  0  0  0  0  2  0  0  0  0  0  0
  163.6500  214.4500  143.5140 N   0  0  0  0  0  0  0  0  0  0  0  0
  161.4790  213.6570  139.2050 C   0  0  0  0  0  2  0  0  0  0  0  0
  162.2790  212.7980  142.3160 C   0  0  0  0  0  0  0  0  0  0  0  0
  160.8410  211.1490  141.0820 C   0  0  0  0  0  2  0  0  0  0  0  0
  162.4250  210.8490  148.9550 C   0  0  0  0  0  2  0  0  0  0  0  0
  161.7140  210.4410  153.7130 C   0  0  0  0  0  3  0  0  0  0  0  0
  161.3900  209.6890  154.8450 C   0  0  0  0  0  3  0  0  0  0  0  0
  161.5660  208.6520  149.9290 C   0  0  0  0  0  0  0  0  0  0  0  0
  161.0440  208.3800  154.7200 N   0  0  0  0  0  0  0  0  0  0  0  0
  161.9650  210.0030  150.1010 C   0  0  0  0  0  0  0  0  0  0  0  0
  161.6710  209.8340  152.4570 C   0  0  0  0  0  0  0  0  0  0  0  0
  160.9960  207.7660  153.5080 C   0  0  0  0  0  3  0  0  0  0  0  0
  161.9940  210.5460  151.3490 N   0  0  0  0  0  0  0  0  0  0  0  0
  161.3090  208.4790  152.3420 C   0  0  0  0  0  0  0  0  0  0  0  0
  161.2690  207.8850  151.0690 C   0  0  0  0  0  0  0  0  0  0  0  0
  161.4640  208.0330  148.6720 O   0  0  0  0  0  0  0  0  0  0  0  0
  162.5230  207.3400  148.0270 C   0  0  0  0  0  1  0  0  0  0  0  0
  160.8510  206.4550  150.9090 C   0  0  0  0  0  2  0  0  0  0  0  0
  161.9810  205.6220  150.9680 O   0  0  0  0  0  0  0  0  0  0  0  0
  161.5700  204.3200  151.3260 C   0  0  1  0  0  3  0  0  0  0  0  0
  161.0740  204.2740  152.6360 O   0  0  0  0  0  1  0  0  0  0  0  0
  160.5770  203.7270  150.3290 C   0  0  0  0  0  2  0  0  0  0  0  0
  161.2730  202.4620  148.4430 O   0  0  0  0  0  1  0  0  0  0  0  0
  161.1550  203.7620  148.9280 C   0  0  0  0  0  2  0  0  0  0  0  0
  1 22  1  0  0  0  0
  2  4  1  0  0  0  0
  3  2  1  0  0  0  0
  5  1  1  1  0  0  0
  5  2  1  0  0  0  0
  6  8  1  6  0  0  0
  6  7  1  0  0  0  0
  6  5  1  0  0  0  0
  7  3  1  0  0  0  0
  9 11  1  0  0  0  0
 10 14  1  0  0  0  0
 10 19  1  0  0  0  0
 11  8  1  6  0  0  0
 12 11  1  0  0  0  0
 13 16  1  0  0  0  0
 14 17  1  0  0  0  0
 15 18  1  0  0  0  0
 16 20  1  0  0  0  0
 17 21  1  0  0  0  0
 18  9  2  0  0  0  0
 19 13  1  0  0  0  0
 20 15  1  0  0  0  0
 20 12  2  0  0  0  0
 21 16  1  0  0  0  0
 22 27  1  0  0  0  0
 23 24  1  0  0  0  0
 25 27  1  0  0  0  0
 25 32  2  0  0  0  0
 26 24  2  0  0  0  0
 27 30  2  0  0  0  0
 28 23  2  0  0  0  0
 29 26  1  0  0  0  0
 30 28  1  0  0  0  0
 31 28  1  0  0  0  0
 31 29  2  0  0  0  0
 32 31  1  0  0  0  0
 33 25  1  0  0  0  0
 34 33  1  0  0  0  0
 35 36  1  0  0  0  0
 35 32  1  0  0  0  0
 36 37  1  0  0  0  0
 37 38  1  1  0  0  0
 39 37  1  0  0  0  0
 40 41  1  0  0  0  0
 41 39  1  0  0  0  0
M  END
>  <MODEL>
4

>  <REMARK>
 VINA RESULT:      -7.6      4.975      8.128
  Name = 
  11 active torsions:
  status: ('A' for Active; 'I' for Inactive)
    1  A    between atoms: C_1  and  O_7
    2  A    between atoms: C_1  and  C_39
    3  A    between atoms: C_6  and  C_23
    4  A    between atoms: C_6  and  C_41
    5  A    between atoms: O_7  and  C_38
    6  A    between atoms: O_8  and  C_12
    7  A    between atoms: C_9  and  C_36
    8  A    between atoms: C_18  and  C_41
    9  A    between atoms: C_34  and  C_36
   10  A    between atoms: C_35  and  C_39
   11  A    between atoms: C_38  and  C_40
                            x       y       z     vdW  Elec       q    Type
                         _______ _______ _______ _____ _____    ______ ____

>  <TORSDO>
F 11

$$$$
=
 OpenBabel11072412543D

 41 45  0  0  1  0  0  0  0  0999 V2000
  161.9430  211.1630  147.9230 C   0  0  0  0  0  2  0  0  0  0  0  0
  160.5520  213.0540  148.5710 N   0  0  0  0  0  0  0  0  0  0  0  0
  159.3870  213.5490  147.9550 N   0  0  0  0  0  2  0  0  0  0  0  0
  161.2320  214.1940  149.1620 C   0  0  0  0  0  1  0  0  0  0  0  0
  161.4230  212.5380  147.5180 C   0  0  2  0  0  3  0  0  0  0  0  0
  160.6090  212.4500  146.2510 C   0  0  1  0  0  3  0  0  0  0  0  0
  159.2260  212.8140  146.7120 C   0  0  0  0  0  2  0  0  0  0  0  0
  161.1210  213.4970  145.2700 C   0  0  0  0  0  2  0  0  0  0  0  0
  163.2990  214.1020  144.2830 C   0  0  0  0  0  3  0  0  0  0  0  0
  159.9850  212.8970  138.3070 C   0  0  0  0  0  2  0  0  0  0  0  0
  162.3130  212.9800  144.4790 C   0  0  2  0  0  3  0  0  0  0  0  0
  161.8650  212.3820  143.2150 N   0  0  0  0  0  0  0  0  0  0  0  0
  162.2000  212.5930  139.5430 C   0  0  0  0  0  2  0  0  0  0  0  0
  159.5470  211.5380  138.8620 C   0  0  0  0  0  2  0  0  0  0  0  0
  163.2470  213.8080  141.9490 N   0  0  0  0  0  2  0  0  0  0  0  0
  161.7980  212.1070  140.8600 N   0  0  0  0  0  0  0  0  0  0  0  0
  159.4620  211.5090  140.3820 C   0  0  0  0  0  2  0  0  0  0  0  0
  163.7120  214.4530  143.1050 N   0  0  0  0  0  0  0  0  0  0  0  0
  161.1560  213.5750  139.0290 C   0  0  0  0  0  2  0  0  0  0  0  0
  162.2890  212.7510  142.0450 C   0  0  0  0  0  0  0  0  0  0  0  0
  160.7960  211.0490  140.9570 C   0  0  0  0  0  2  0  0  0  0  0  0
  162.0260  211.0000  149.4380 C   0  0  0  0  0  2  0  0  0  0  0  0
  161.2130  206.4290  148.1140 C   0  0  0  0  0  3  0  0  0  0  0  0
  160.9410  205.0930  148.4190 C   0  0  0  0  0  3  0  0  0  0  0  0
  161.8010  209.1820  151.2140 C   0  0  0  0  0  0  0  0  0  0  0  0
  160.8540  204.6920  149.7150 N   0  0  0  0  0  0  0  0  0  0  0  0
  161.8420  209.5730  149.8510 C   0  0  0  0  0  0  0  0  0  0  0  0
  161.3980  207.3410  149.1540 C   0  0  0  0  0  0  0  0  0  0  0  0
  161.0290  205.5620  150.7460 C   0  0  0  0  0  3  0  0  0  0  0  0
  161.6510  208.6440  148.8740 N   0  0  0  0  0  0  0  0  0  0  0  0
  161.3070  206.9120  150.4900 C   0  0  0  0  0  0  0  0  0  0  0  0
  161.4980  207.8440  151.5250 C   0  0  0  0  0  0  0  0  0  0  0  0
  162.0360  210.0700  152.2780 O   0  0  0  0  0  0  0  0  0  0  0  0
  161.1120  211.0490  152.7290 C   0  0  0  0  0  1  0  0  0  0  0  0
  161.4450  207.4120  152.9590 C   0  0  0  0  0  2  0  0  0  0  0  0
  160.3780  208.0570  153.6080 O   0  0  0  0  0  0  0  0  0  0  0  0
  160.5530  207.9350  155.0030 C   0  0  1  0  0  3  0  0  0  0  0  0
  161.8680  207.5840  155.3340 O   0  0  0  0  0  1  0  0  0  0  0  0
  160.1000  209.1840  155.7580 C   0  0  0  0  0  2  0  0  0  0  0  0
  160.9520  211.2970  156.4290 O   0  0  0  0  0  1  0  0  0  0  0  0
  161.3030  209.9600  156.2580 C   0  0  0  0  0  2  0  0  0  0  0  0
  1 22  1  0  0  0  0
  2  4  1  0  0  0  0
  3  2  1  0  0  0  0
  5  1  1  1  0  0  0
  5  2  1  0  0  0  0
  6  8  1  6  0  0  0
  6  7  1  0  0  0  0
  6  5  1  0  0  0  0
  7  3  1  0  0  0  0
  9 11  1  0  0  0  0
 10 14  1  0  0  0  0
 10 19  1  0  0  0  0
 11  8  1  6  0  0  0
 12 11  1  0  0  0  0
 13 16  1  0  0  0  0
 14 17  1  0  0  0  0
 15 20  1  0  0  0  0
 15 18  1  0  0  0  0
 16 21  1  0  0  0  0
 16 20  1  0  0  0  0
 17 21  1  0  0  0  0
 18  9  2  0  0  0  0
 19 13  1  0  0  0  0
 20 12  2  0  0  0  0
 22 27  1  0  0  0  0
 23 24  2  0  0  0  0
 23 28  1  0  0  0  0
 24 26  1  0  0  0  0
 25 32  1  0  0  0  0
 25 33  1  0  0  0  0
 26 29  2  0  0  0  0
 27 25  2  0  0  0  0
 28 31  1  0  0  0  0
 30 28  2  0  0  0  0
 30 27  1  0  0  0  0
 31 29  1  0  0  0  0
 31 32  2  0  0  0  0
 32 35  1  0  0  0  0
 33 34  1  0  0  0  0
 35 36  1  0  0  0  0
 36 37  1  0  0  0  0
 37 38  1  6  0  0  0
 37 39  1  0  0  0  0
 39 41  1  0  0  0  0
 41 40  1  0  0  0  0
M  END
>  <MODEL>
5

>  <REMARK>
 VINA RESULT:      -7.2      5.191      8.602
  Name = 
  11 active torsions:
  status: ('A' for Active; 'I' for Inactive)
    1  A    between atoms: C_1  and  O_7
    2  A    between atoms: C_1  and  C_39
    3  A    between atoms: C_6  and  C_23
    4  A    between atoms: C_6  and  C_41
    5  A    between atoms: O_7  and  C_38
    6  A    between atoms: O_8  and  C_12
    7  A    between atoms: C_9  and  C_36
    8  A    between atoms: C_18  and  C_41
    9  A    between atoms: C_34  and  C_36
   10  A    between atoms: C_35  and  C_39
   11  A    between atoms: C_38  and  C_40
                            x       y       z     vdW  Elec       q    Type
                         _______ _______ _______ _____ _____    ______ ____

>  <TORSDO>
F 11

$$$$
=
 OpenBabel11072412543D

 41 45  0  0  1  0  0  0  0  0999 V2000
  161.7460  207.2380  152.6960 C   0  0  0  0  0  2  0  0  0  0  0  0
  162.1970  209.6280  152.6010 N   0  0  0  0  0  0  0  0  0  0  0  0
  162.2670  210.5590  153.6550 N   0  0  0  0  0  2  0  0  0  0  0  0
  161.6930  210.3430  151.4410 C   0  0  0  0  0  1  0  0  0  0  0  0
  161.1900  208.6330  152.9580 C   0  0  2  0  0  3  0  0  0  0  0  0
  160.8640  208.8130  154.4200 C   0  0  1  0  0  3  0  0  0  0  0  0
  161.8470  209.8620  154.8580 C   0  0  0  0  0  2  0  0  0  0  0  0
  159.4440  209.3490  154.5400 C   0  0  0  0  0  2  0  0  0  0  0  0
  158.5270  210.7070  156.3850 C   0  0  0  0  0  3  0  0  0  0  0  0
  155.3220  214.0500  151.2160 C   0  0  0  0  0  2  0  0  0  0  0  0
  159.4250  210.7320  155.1750 C   0  0  2  0  0  3  0  0  0  0  0  0
  159.0290  211.7410  154.1860 N   0  0  0  0  0  0  0  0  0  0  0  0
  156.5310  214.3580  153.4460 C   0  0  0  0  0  2  0  0  0  0  0  0
  156.6770  214.2010  150.5180 C   0  0  0  0  0  2  0  0  0  0  0  0
  157.2420  212.4830  155.5280 N   0  0  0  0  0  2  0  0  0  0  0  0
  157.7160  213.5150  153.3170 N   0  0  0  0  0  0  0  0  0  0  0  0
  157.6710  213.1100  150.8930 C   0  0  0  0  0  2  0  0  0  0  0  0
  157.5340  211.5320  156.5170 N   0  0  0  0  0  0  0  0  0  0  0  0
  155.3680  213.7070  152.7110 C   0  0  0  0  0  2  0  0  0  0  0  0
  158.0300  212.5550  154.3370 C   0  0  0  0  0  0  0  0  0  0  0  0
  158.5000  213.5670  152.0870 C   0  0  0  0  0  2  0  0  0  0  0  0
  160.6440  206.1870  152.5880 C   0  0  0  0  0  2  0  0  0  0  0  0
  160.6570  201.7980  150.5770 C   0  0  0  0  0  3  0  0  0  0  0  0
  160.8680  200.9470  149.4890 C   0  0  0  0  0  3  0  0  0  0  0  0
  161.1310  205.9310  150.0970 C   0  0  0  0  0  0  0  0  0  0  0  0
  161.2380  201.4580  148.2850 N   0  0  0  0  0  0  0  0  0  0  0  0
  160.7880  205.3590  151.3490 C   0  0  0  0  0  0  0  0  0  0  0  0
  160.8270  203.1730  150.4100 C   0  0  0  0  0  0  0  0  0  0  0  0
  161.4110  202.7940  148.0970 C   0  0  0  0  0  3  0  0  0  0  0  0
  160.6380  204.0110  151.4600 N   0  0  0  0  0  0  0  0  0  0  0  0
  161.2090  203.6870  149.1580 C   0  0  0  0  0  0  0  0  0  0  0  0
  161.3730  205.0750  149.0080 C   0  0  0  0  0  0  0  0  0  0  0  0
  161.2560  207.3150  149.8890 O   0  0  0  0  0  0  0  0  0  0  0  0
  162.3340  207.9310  149.2000 C   0  0  0  0  0  1  0  0  0  0  0  0
  161.7420  205.6580  147.6770 C   0  0  0  0  0  2  0  0  0  0  0  0
  160.5780  205.9030  146.9290 O   0  0  0  0  0  0  0  0  0  0  0  0
  160.8930  205.8150  145.5560 C   0  0  1  0  0  3  0  0  0  0  0  0
  162.2770  205.8260  145.3370 O   0  0  0  0  0  1  0  0  0  0  0  0
  160.2290  204.6150  144.8820 C   0  0  0  0  0  2  0  0  0  0  0  0
  160.2320  202.2400  144.8830 O   0  0  0  0  0  1  0  0  0  0  0  0
  161.0230  203.3530  145.1570 C   0  0  0  0  0  2  0  0  0  0  0  0
  2  5  1  0  0  0  0
  2  3  1  0  0  0  0
  3  7  1  0  0  0  0
  4  2  1  0  0  0  0
  5  1  1  1  0  0  0
  5  6  1  0  0  0  0
  6  8  1  6  0  0  0
  6  7  1  0  0  0  0
  9 18  2  0  0  0  0
 10 19  1  0  0  0  0
 11  8  1  6  0  0  0
 11  9  1  0  0  0  0
 12 20  2  0  0  0  0
 12 11  1  0  0  0  0
 14 17  1  0  0  0  0
 14 10  1  0  0  0  0
 15 18  1  0  0  0  0
 16 13  1  0  0  0  0
 16 20  1  0  0  0  0
 17 21  1  0  0  0  0
 19 13  1  0  0  0  0
 20 15  1  0  0  0  0
 21 16  1  0  0  0  0
 22  1  1  0  0  0  0
 24 23  2  0  0  0  0
 25 27  1  0  0  0  0
 26 24  1  0  0  0  0
 27 30  2  0  0  0  0
 27 22  1  0  0  0  0
 28 23  1  0  0  0  0
 28 30  1  0  0  0  0
 29 26  2  0  0  0  0
 29 31  1  0  0  0  0
 31 28  2  0  0  0  0
 32 31  1  0  0  0  0
 32 25  2  0  0  0  0
 33 25  1  0  0  0  0
 34 33  1  0  0  0  0
 35 32  1  0  0  0  0
 36 35  1  0  0  0  0
 37 38  1  1  0  0  0
 37 36  1  0  0  0  0
 39 41  1  0  0  0  0
 39 37  1  0  0  0  0
 40 41  1  0  0  0  0
M  END
>  <MODEL>
6

>  <REMARK>
 VINA RESULT:      -7.1      1.725      2.491
  Name = 
  11 active torsions:
  status: ('A' for Active; 'I' for Inactive)
    1  A    between atoms: C_1  and  O_7
    2  A    between atoms: C_1  and  C_39
    3  A    between atoms: C_6  and  C_23
    4  A    between atoms: C_6  and  C_41
    5  A    between atoms: O_7  and  C_38
    6  A    between atoms: O_8  and  C_12
    7  A    between atoms: C_9  and  C_36
    8  A    between atoms: C_18  and  C_41
    9  A    between atoms: C_34  and  C_36
   10  A    between atoms: C_35  and  C_39
   11  A    between atoms: C_38  and  C_40
                            x       y       z     vdW  Elec       q    Type
                         _______ _______ _______ _____ _____    ______ ____

>  <TORSDO>
F 11

$$$$
=
 OpenBabel11072412543D

 41 45  0  0  1  0  0  0  0  0999 V2000
  161.4880  207.3710  154.9820 C   0  0  0  0  0  2  0  0  0  0  0  0
  161.8760  209.7130  155.5180 N   0  0  0  0  0  0  0  0  0  0  0  0
  161.2200  210.5280  156.4600 N   0  0  0  0  0  2  0  0  0  0  0  0
  162.2740  210.5790  154.4200 C   0  0  0  0  0  1  0  0  0  0  0  0
  160.8930  208.7750  154.9850 C   0  0  2  0  0  3  0  0  0  0  0  0
  159.6720  208.8370  155.8690 C   0  0  1  0  0  3  0  0  0  0  0  0
  160.1060  209.7530  156.9790 C   0  0  0  0  0  2  0  0  0  0  0  0
  158.5340  209.4740  155.0840 C   0  0  0  0  0  2  0  0  0  0  0  0
  156.9130  211.1220  155.9470 C   0  0  0  0  0  3  0  0  0  0  0  0
  157.6520  213.9070  149.6340 C   0  0  0  0  0  2  0  0  0  0  0  0
  158.3330  210.9290  155.4810 C   0  0  2  0  0  3  0  0  0  0  0  0
  158.6990  211.8150  154.3690 N   0  0  0  0  0  0  0  0  0  0  0  0
  157.4130  214.4470  152.1190 C   0  0  0  0  0  2  0  0  0  0  0  0
  159.1710  213.8830  149.8370 C   0  0  0  0  0  2  0  0  0  0  0  0
  156.5760  212.8360  154.3690 N   0  0  0  0  0  2  0  0  0  0  0  0
  158.3450  213.5270  152.7650 N   0  0  0  0  0  0  0  0  0  0  0  0
  159.6310  212.7980  150.8010 C   0  0  0  0  0  2  0  0  0  0  0  0
  156.1340  212.0140  155.4160 N   0  0  0  0  0  0  0  0  0  0  0  0
  156.8000  213.7700  150.9020 C   0  0  0  0  0  2  0  0  0  0  0  0
  157.9010  212.6990  153.8510 C   0  0  0  0  0  0  0  0  0  0  0  0
  159.6870  213.3650  152.2140 C   0  0  0  0  0  2  0  0  0  0  0  0
  160.7910  206.4500  153.9840 C   0  0  0  0  0  2  0  0  0  0  0  0
  162.0930  209.8950  150.8630 C   0  0  0  0  0  3  0  0  0  0  0  0
  162.3120  210.3530  149.5610 C   0  0  0  0  0  3  0  0  0  0  0  0
  160.9630  205.9130  151.4960 C   0  0  0  0  0  0  0  0  0  0  0  0
  162.1450  209.5130  148.5040 N   0  0  0  0  0  0  0  0  0  0  0  0
  161.1040  206.8290  152.5700 C   0  0  0  0  0  0  0  0  0  0  0  0
  161.7070  208.5700  151.0630 C   0  0  0  0  0  0  0  0  0  0  0  0
  161.7690  208.2170  148.6740 C   0  0  0  0  0  3  0  0  0  0  0  0
  161.4790  208.1130  152.3200 N   0  0  0  0  0  0  0  0  0  0  0  0
  161.5400  207.7110  149.9610 C   0  0  0  0  0  0  0  0  0  0  0  0
  161.1530  206.3780  150.1820 C   0  0  0  0  0  0  0  0  0  0  0  0
  160.6280  204.5600  151.6750 O   0  0  0  0  0  0  0  0  0  0  0  0
  161.5610  203.4900  151.6500 C   0  0  0  0  0  1  0  0  0  0  0  0
  161.0040  205.4280  149.0330 C   0  0  0  0  0  2  0  0  0  0  0  0
  161.9230  205.7590  148.0230 O   0  0  0  0  0  0  0  0  0  0  0  0
  162.3530  204.5730  147.3900 C   0  0  1  0  0  3  0  0  0  0  0  0
  161.6130  203.4610  147.8130 O   0  0  0  0  0  1  0  0  0  0  0  0
  162.3620  204.6950  145.8680 C   0  0  0  0  0  2  0  0  0  0  0  0
  161.2280  205.6920  144.0330 O   0  0  0  0  0  1  0  0  0  0  0  0
  161.3610  205.7420  145.4190 C   0  0  0  0  0  2  0  0  0  0  0  0
  2  3  1  0  0  0  0
  3  7  1  0  0  0  0
  4  2  1  0  0  0  0
  5  1  1  1  0  0  0
  5  2  1  0  0  0  0
  5  6  1  0  0  0  0
  6  8  1  6  0  0  0
  6  7  1  0  0  0  0
 10 14  1  0  0  0  0
 10 19  1  0  0  0  0
 11  8  1  6  0  0  0
 11  9  1  0  0  0  0
 12 11  1  0  0  0  0
 13 16  1  0  0  0  0
 14 17  1  0  0  0  0
 15 18  1  0  0  0  0
 16 20  1  0  0  0  0
 17 21  1  0  0  0  0
 18  9  2  0  0  0  0
 19 13  1  0  0  0  0
 20 15  1  0  0  0  0
 20 12  2  0  0  0  0
 21 16  1  0  0  0  0
 22  1  1  0  0  0  0
 23 28  1  0  0  0  0
 24 23  2  0  0  0  0
 25 33  1  0  0  0  0
 25 27  1  0  0  0  0
 26 29  2  0  0  0  0
 26 24  1  0  0  0  0
 27 22  1  0  0  0  0
 28 30  1  0  0  0  0
 29 31  1  0  0  0  0
 30 27  2  0  0  0  0
 31 32  1  0  0  0  0
 31 28  2  0  0  0  0
 32 25  2  0  0  0  0
 34 33  1  0  0  0  0
 35 32  1  0  0  0  0
 36 35  1  0  0  0  0
 37 38  1  6  0  0  0
 37 36  1  0  0  0  0
 39 37  1  0  0  0  0
 40 41  1  0  0  0  0
 41 39  1  0  0  0  0
M  END
>  <MODEL>
7

>  <REMARK>
 VINA RESULT:      -7.0      1.848      3.101
  Name = 
  11 active torsions:
  status: ('A' for Active; 'I' for Inactive)
    1  A    between atoms: C_1  and  O_7
    2  A    between atoms: C_1  and  C_39
    3  A    between atoms: C_6  and  C_23
    4  A    between atoms: C_6  and  C_41
    5  A    between atoms: O_7  and  C_38
    6  A    between atoms: O_8  and  C_12
    7  A    between atoms: C_9  and  C_36
    8  A    between atoms: C_18  and  C_41
    9  A    between atoms: C_34  and  C_36
   10  A    between atoms: C_35  and  C_39
   11  A    between atoms: C_38  and  C_40
                            x       y       z     vdW  Elec       q    Type
                         _______ _______ _______ _____ _____    ______ ____

>  <TORSDO>
F 11

$$$$
=
 OpenBabel11072412543D

 41 45  0  0  1  0  0  0  0  0999 V2000
  161.9190  207.1270  153.1450 C   0  0  0  0  0  2  0  0  0  0  0  0
  162.2840  209.4210  152.4160 N   0  0  0  0  0  0  0  0  0  0  0  0
  162.3100  210.6010  153.1830 N   0  0  0  0  0  2  0  0  0  0  0  0
  161.7670  209.7810  151.1070 C   0  0  0  0  0  1  0  0  0  0  0  0
  161.3100  208.5190  153.0250 C   0  0  2  0  0  3  0  0  0  0  0  0
  160.9630  209.0710  154.3860 C   0  0  1  0  0  3  0  0  0  0  0  0
  161.9020  210.2350  154.5280 C   0  0  0  0  0  2  0  0  0  0  0  0
  159.5230  209.5660  154.3570 C   0  0  0  0  0  2  0  0  0  0  0  0
  158.4500  210.8340  156.1800 C   0  0  0  0  0  3  0  0  0  0  0  0
  155.2610  214.0630  150.9300 C   0  0  0  0  0  2  0  0  0  0  0  0
  159.3940  210.9340  155.0100 C   0  0  2  0  0  3  0  0  0  0  0  0
  158.9780  211.9330  154.0200 N   0  0  0  0  0  0  0  0  0  0  0  0
  156.3570  214.4070  153.2130 C   0  0  0  0  0  2  0  0  0  0  0  0
  156.6320  214.3080  150.2920 C   0  0  0  0  0  2  0  0  0  0  0  0
  157.0950  212.5440  155.2960 N   0  0  0  0  0  2  0  0  0  0  0  0
  157.5950  213.6390  153.1220 N   0  0  0  0  0  0  0  0  0  0  0  0
  157.6750  213.2730  150.6920 C   0  0  0  0  0  2  0  0  0  0  0  0
  157.4040  211.5950  156.2830 N   0  0  0  0  0  0  0  0  0  0  0  0
  155.2660  213.6990  152.4210 C   0  0  0  0  0  2  0  0  0  0  0  0
  157.9250  212.6830  154.1410 C   0  0  0  0  0  0  0  0  0  0  0  0
  158.4250  213.7590  151.9260 C   0  0  0  0  0  2  0  0  0  0  0  0
  160.9330  206.0290  152.7570 C   0  0  0  0  0  2  0  0  0  0  0  0
  161.4790  207.4860  148.1860 C   0  0  0  0  0  3  0  0  0  0  0  0
  161.5140  207.2310  146.8130 C   0  0  0  0  0  3  0  0  0  0  0  0
  160.9420  204.3140  150.8680 C   0  0  0  0  0  0  0  0  0  0  0  0
  161.3610  205.9620  146.3490 N   0  0  0  0  0  0  0  0  0  0  0  0
  161.0620  205.6560  151.3130 C   0  0  0  0  0  0  0  0  0  0  0  0
  161.2890  206.4240  149.0720 C   0  0  0  0  0  0  0  0  0  0  0  0
  161.1740  204.9110  147.1920 C   0  0  0  0  0  3  0  0  0  0  0  0
  161.2400  206.6560  150.4070 N   0  0  0  0  0  0  0  0  0  0  0  0
  161.1350  205.1160  148.5780 C   0  0  0  0  0  0  0  0  0  0  0  0
  160.9470  204.0580  149.4850 C   0  0  0  0  0  0  0  0  0  0  0  0
  160.8040  203.2210  151.7410 O   0  0  0  0  0  0  0  0  0  0  0  0
  161.7050  202.1250  151.8060 C   0  0  0  0  0  1  0  0  0  0  0  0
  160.8170  202.6480  148.9940 C   0  0  0  0  0  2  0  0  0  0  0  0
  161.9020  202.3370  148.1570 O   0  0  0  0  0  0  0  0  0  0  0  0
  161.5850  201.1810  147.4110 C   0  0  1  0  0  3  0  0  0  0  0  0
  161.5690  200.0320  148.2140 O   0  0  0  0  0  1  0  0  0  0  0  0
  160.2840  201.3330  146.6250 C   0  0  0  0  0  2  0  0  0  0  0  0
  159.3630  202.1840  144.6070 O   0  0  0  0  0  1  0  0  0  0  0  0
  160.5670  201.8960  145.2460 C   0  0  0  0  0  2  0  0  0  0  0  0
  2  5  1  0  0  0  0
  2  3  1  0  0  0  0
  3  7  1  0  0  0  0
  4  2  1  0  0  0  0
  5  1  1  1  0  0  0
  5  6  1  0  0  0  0
  6  8  1  6  0  0  0
  6  7  1  0  0  0  0
  9 18  2  0  0  0  0
 10 19  1  0  0  0  0
 11  8  1  6  0  0  0
 11  9  1  0  0  0  0
 12 20  2  0  0  0  0
 12 11  1  0  0  0  0
 14 17  1  0  0  0  0
 14 10  1  0  0  0  0
 15 18  1  0  0  0  0
 16 13  1  0  0  0  0
 16 20  1  0  0  0  0
 17 21  1  0  0  0  0
 19 13  1  0  0  0  0
 20 15  1  0  0  0  0
 21 16  1  0  0  0  0
 22  1  1  0  0  0  0
 23 28  1  0  0  0  0
 24 23  2  0  0  0  0
 25 27  1  0  0  0  0
 25 33  1  0  0  0  0
 26 24  1  0  0  0  0
 26 29  2  0  0  0  0
 27 22  1  0  0  0  0
 28 30  1  0  0  0  0
 29 31  1  0  0  0  0
 30 27  2  0  0  0  0
 31 28  2  0  0  0  0
 31 32  1  0  0  0  0
 32 25  2  0  0  0  0
 33 34  1  0  0  0  0
 35 32  1  0  0  0  0
 36 35  1  0  0  0  0
 37 36  1  0  0  0  0
 37 38  1  1  0  0  0
 39 37  1  0  0  0  0
 40 41  1  0  0  0  0
 41 39  1  0  0  0  0
M  END
>  <MODEL>
8

>  <REMARK>
 VINA RESULT:      -6.2      2.353      3.648
  Name = 
  11 active torsions:
  status: ('A' for Active; 'I' for Inactive)
    1  A    between atoms: C_1  and  O_7
    2  A    between atoms: C_1  and  C_39
    3  A    between atoms: C_6  and  C_23
    4  A    between atoms: C_6  and  C_41
    5  A    between atoms: O_7  and  C_38
    6  A    between atoms: O_8  and  C_12
    7  A    between atoms: C_9  and  C_36
    8  A    between atoms: C_18  and  C_41
    9  A    between atoms: C_34  and  C_36
   10  A    between atoms: C_35  and  C_39
   11  A    between atoms: C_38  and  C_40
                            x       y       z     vdW  Elec       q    Type
                         _______ _______ _______ _____ _____    ______ ____

>  <TORSDO>
F 11

$$$$
=
 OpenBabel11072412543D

 41 45  0  0  1  0  0  0  0  0999 V2000
  161.0850  211.1600  151.7660 C   0  0  0  0  0  2  0  0  0  0  0  0
  160.8220  212.8770  150.0600 N   0  0  0  0  0  0  0  0  0  0  0  0
  160.4480  214.2260  150.2100 N   0  0  0  0  0  2  0  0  0  0  0  0
  160.3210  212.4440  148.7670 C   0  0  0  0  0  1  0  0  0  0  0  0
  160.1090  212.1060  151.0740 C   0  0  2  0  0  3  0  0  0  0  0  0
  159.5180  213.0810  152.0620 C   0  0  1  0  0  3  0  0  0  0  0  0
  160.0660  214.4020  151.6010 C   0  0  0  0  0  2  0  0  0  0  0  0
  158.0030  213.0670  151.9110 C   0  0  0  0  0  2  0  0  0  0  0  0
  157.1470  214.1630  153.9490 C   0  0  0  0  0  3  0  0  0  0  0  0
  162.2400  210.5780  157.0080 C   0  0  0  0  0  2  0  0  0  0  0  0
  157.3140  212.8400  153.2490 C   0  0  2  0  0  3  0  0  0  0  0  0
  158.0600  211.8580  154.0450 N   0  0  0  0  0  0  0  0  0  0  0  0
  159.8180  211.3520  157.2530 C   0  0  0  0  0  2  0  0  0  0  0  0
  161.7130  209.3110  156.3270 C   0  0  0  0  0  2  0  0  0  0  0  0
  158.2850  213.3590  155.8460 N   0  0  0  0  0  2  0  0  0  0  0  0
  159.2280  211.0610  155.9510 N   0  0  0  0  0  0  0  0  0  0  0  0
  160.9690  209.5920  155.0280 C   0  0  0  0  0  2  0  0  0  0  0  0
  157.6010  214.3650  155.1470 N   0  0  0  0  0  0  0  0  0  0  0  0
  161.2710  211.7650  157.0660 C   0  0  0  0  0  2  0  0  0  0  0  0
  158.5090  212.0830  155.2420 C   0  0  0  0  0  0  0  0  0  0  0  0
  159.4840  209.7690  155.3210 C   0  0  0  0  0  2  0  0  0  0  0  0
  162.0030  210.4510  150.7740 C   0  0  0  0  0  2  0  0  0  0  0  0
  161.3650  206.2920  153.1420 C   0  0  0  0  0  3  0  0  0  0  0  0
  161.1920  204.9060  153.1620 C   0  0  0  0  0  3  0  0  0  0  0  0
  161.5910  208.2960  149.4720 C   0  0  0  0  0  0  0  0  0  0  0  0
  161.1110  204.2100  151.9970 N   0  0  0  0  0  0  0  0  0  0  0  0
  161.7150  208.9830  150.7060 C   0  0  0  0  0  0  0  0  0  0  0  0
  161.4490  206.9500  151.9140 C   0  0  0  0  0  0  0  0  0  0  0  0
  161.1920  204.8280  150.7890 C   0  0  0  0  0  3  0  0  0  0  0  0
  161.6290  208.2930  151.8770 N   0  0  0  0  0  0  0  0  0  0  0  0
  161.3620  206.2170  150.7160 C   0  0  0  0  0  0  0  0  0  0  0  0
  161.4470  206.8970  149.4890 C   0  0  0  0  0  0  0  0  0  0  0  0
  161.6190  208.9410  148.2230 O   0  0  0  0  0  0  0  0  0  0  0  0
  162.3990  210.0910  147.9290 C   0  0  0  0  0  1  0  0  0  0  0  0
  161.3210  206.1510  148.1950 C   0  0  0  0  0  2  0  0  0  0  0  0
  162.5970  205.9290  147.6510 O   0  0  0  0  0  0  0  0  0  0  0  0
  162.4540  205.4910  146.3160 C   0  0  1  0  0  3  0  0  0  0  0  0
  163.5480  204.7200  145.9020 O   0  0  0  0  0  1  0  0  0  0  0  0
  161.1330  204.7600  146.0820 C   0  0  0  0  0  2  0  0  0  0  0  0
  161.5500  205.6580  143.9230 O   0  0  0  0  0  1  0  0  0  0  0  0
  160.8410  204.6660  144.5970 C   0  0  0  0  0  2  0  0  0  0  0  0
  2  3  1  0  0  0  0
  2  5  1  0  0  0  0
  3  7  1  0  0  0  0
  4  2  1  0  0  0  0
  5  1  1  1  0  0  0
  5  6  1  0  0  0  0
  6  8  1  6  0  0  0
  7  6  1  0  0  0  0
  9 18  2  0  0  0  0
 10 19  1  0  0  0  0
 11  8  1  6  0  0  0
 11  9  1  0  0  0  0
 11 12  1  0  0  0  0
 12 20  2  0  0  0  0
 14 10  1  0  0  0  0
 16 13  1  0  0  0  0
 17 21  1  0  0  0  0
 17 14  1  0  0  0  0
 18 15  1  0  0  0  0
 19 13  1  0  0  0  0
 20 15  1  0  0  0  0
 20 16  1  0  0  0  0
 21 16  1  0  0  0  0
 22  1  1  0  0  0  0
 23 24  1  0  0  0  0
 25 32  2  0  0  0  0
 25 27  1  0  0  0  0
 26 24  2  0  0  0  0
 27 22  1  0  0  0  0
 27 30  2  0  0  0  0
 28 23  2  0  0  0  0
 29 26  1  0  0  0  0
 30 28  1  0  0  0  0
 31 29  2  0  0  0  0
 31 28  1  0  0  0  0
 32 31  1  0  0  0  0
 33 25  1  0  0  0  0
 34 33  1  0  0  0  0
 35 32  1  0  0  0  0
 36 35  1  0  0  0  0
 37 38  1  1  0  0  0
 37 36  1  0  0  0  0
 39 37  1  0  0  0  0
 40 41  1  0  0  0  0
 41 39  1  0  0  0  0
M  END
>  <MODEL>
9

>  <REMARK>
 VINA RESULT:      -6.0      1.716      4.904
  Name = 
  11 active torsions:
  status: ('A' for Active; 'I' for Inactive)
    1  A    between atoms: C_1  and  O_7
    2  A    between atoms: C_1  and  C_39
    3  A    between atoms: C_6  and  C_23
    4  A    between atoms: C_6  and  C_41
    5  A    between atoms: O_7  and  C_38
    6  A    between atoms: O_8  and  C_12
    7  A    between atoms: C_9  and  C_36
    8  A    between atoms: C_18  and  C_41
    9  A    between atoms: C_34  and  C_36
   10  A    between atoms: C_35  and  C_39
   11  A    between atoms: C_38  and  C_40
                            x       y       z     vdW  Elec       q    Type
                         _______ _______ _______ _____ _____    ______ ____

>  <TORSDO>
F 11

$$$$
