=
 OpenBabel11072413553D

 46 51  0  0  1  0  0  0  0  0999 V2000
  161.6000  207.2030  152.3500 C   0  0  0  0  0  2  0  0  0  0  0  0
  160.8880  208.2690  153.1620 C   0  0  1  0  0  3  0  0  0  0  0  0
  160.7450  207.7790  154.5990 C   0  0  0  0  0  1  0  0  0  0  0  0
  161.6570  209.6070  153.1430 C   0  0  2  0  0  3  0  0  0  0  0  0
  161.4730  210.4430  154.3790 C   0  0  0  0  0  0  0  0  0  0  0  0
  162.4680  210.6560  155.1820 N   0  0  0  0  0  2  0  0  0  0  0  0
  159.9090  212.3360  154.6900 C   0  0  0  0  0  1  0  0  0  0  0  0
  160.2010  210.9460  154.6630 O   0  0  0  0  0  0  0  0  0  0  0  0
  161.4290  210.4590  151.8920 C   0  0  0  0  0  2  0  0  0  0  0  0
  161.5550  209.6790  150.6690 N   0  0  0  0  0  2  0  0  0  0  0  0
  162.0150  210.1870  149.4150 C   0  0  0  0  0  0  0  0  0  0  0  0
  162.3470  209.3550  148.5230 O   0  0  0  0  0  0  0  0  0  0  0  0
  163.2150  211.9690  148.2940 O   0  0  0  0  0  1  0  0  0  0  0  0
  162.1130  211.6570  149.0910 C   0  0  1  0  0  3  0  0  0  0  0  0
  160.8070  212.2710  148.5650 C   0  0  1  0  0  3  0  0  0  0  0  0
  160.0850  213.6870  150.3900 N   0  0  0  0  0  2  0  0  0  0  0  0
  160.6640  213.7040  149.0750 C   0  0  2  0  0  3  0  0  0  0  0  0
  159.3580  214.0140  149.2620 O   0  0  0  0  0  0  0  0  0  0  0  0
  160.6340  212.2010  147.0420 C   0  0  0  0  0  2  0  0  0  0  0  0
  159.9610  213.2040  144.2200 N   0  0  0  0  0  2  0  0  0  0  0  0
  159.6810  213.7420  145.5480 C   0  0  0  0  0  2  0  0  0  0  0  0
  161.4000  213.1720  144.1110 C   0  0  0  0  0  2  0  0  0  0  0  0
  160.8320  213.5040  146.4080 N   0  0  0  0  0  0  0  0  0  0  0  0
  161.9580  213.3460  145.5100 C   0  0  0  0  0  2  0  0  0  0  0  0
  160.5800  206.2740  151.7410 C   0  0  0  0  0  2  0  0  0  0  0  0
  162.5210  205.4300  146.2320 C   0  0  1  0  0  0  0  0  0  0  0  0
  161.1140  202.9250  147.0420 C   0  0  0  0  0  0  0  0  0  0  0  0
  161.1250  205.3930  150.6190 C   0  0  2  0  0  0  0  0  0  0  0  0
  160.0830  206.2260  146.1260 O   0  0  0  0  0  1  0  0  0  0  0  0
  162.6380  205.3570  150.7060 C   0  0  0  0  0  1  0  0  0  0  0  0
  161.0980  201.8040  149.6240 C   0  0  0  0  0  3  0  0  0  0  0  0
  161.2270  205.8650  146.8630 C   0  0  1  0  0  0  0  0  0  0  0  0
  160.9430  203.7670  148.1990 C   0  0  0  0  0  0  0  0  0  0  0  0
  161.9630  204.5390  145.1720 C   0  0  0  0  0  0  0  0  0  0  0  0
  160.8810  203.1700  149.4710 C   0  0  0  0  0  0  0  0  0  0  0  0
  160.9950  205.2220  148.1410 N   0  0  0  0  0  0  0  0  0  0  0  0
  162.2750  204.6860  143.9960 O   0  0  0  0  0  0  0  0  0  0  0  0
  161.3060  200.9980  148.5030 C   0  0  0  0  0  3  0  0  0  0  0  0
  162.2510  206.7610  146.6460 O   0  0  0  0  0  0  0  0  0  0  0  0
  161.2890  201.5530  147.2270 C   0  0  0  0  0  3  0  0  0  0  0  0
  161.0520  203.3750  145.5810 C   0  0  2  0  0  3  0  0  0  0  0  0
  163.5780  204.8080  147.1330 C   0  0  0  0  0  1  0  0  0  0  0  0
  160.7060  206.0530  149.3120 C   0  0  0  0  0  2  0  0  0  0  0  0
  160.5370  203.9820  150.6800 C   0  0  0  0  0  2  0  0  0  0  0  0
  159.7400  203.6150  145.1990 O   0  0  0  0  0  0  0  0  0  0  0  0
  159.3540  202.4600  144.5320 C   0  0  0  0  0  1  0  0  0  0  0  0
  1  2  1  0  0  0  0
  2  3  1  1  0  0  0
  4  9  1  6  0  0  0
  4  2  1  0  0  0  0
  4  5  1  0  0  0  0
  5  8  1  0  0  0  0
  5  6  2  0  0  0  0
  8  7  1  0  0  0  0
 10  9  1  0  0  0  0
 11 10  1  0  0  0  0
 12 11  2  0  0  0  0
 14 13  1  6  0  0  0
 14 11  1  0  0  0  0
 15 19  1  6  0  0  0
 15 14  1  0  0  0  0
 17 15  1  6  0  0  0
 17 18  1  0  0  0  0
 17 16  1  0  0  0  0
 18 16  1  0  0  0  0
 20 21  1  0  0  0  0
 21 23  1  0  0  0  0
 22 20  1  0  0  0  0
 22 24  1  0  0  0  0
 23 19  1  0  0  0  0
 24 23  1  0  0  0  0
 25  1  1  0  0  0  0
 26 39  1  0  0  0  0
 26 32  1  0  0  0  0
 26 42  1  1  0  0  0
 27 40  2  0  0  0  0
 27 33  1  0  0  0  0
 28 44  1  0  0  0  0
 28 30  1  1  0  0  0
 28 25  1  0  0  0  0
 32 29  1  6  0  0  0
 32 36  1  0  0  0  0
 33 35  2  0  0  0  0
 34 41  1  0  0  0  0
 34 26  1  0  0  0  0
 35 31  1  0  0  0  0
 35 44  1  0  0  0  0
 36 33  1  0  0  0  0
 36 43  1  0  0  0  0
 37 34  2  0  0  0  0
 38 31  2  0  0  0  0
 39 32  1  0  0  0  0
 40 38  1  0  0  0  0
 41 45  1  1  0  0  0
 41 27  1  0  0  0  0
 43 28  1  0  0  0  0
 46 45  1  0  0  0  0
M  END
>  <MODEL>
1

>  <REMARK>
 VINA RESULT:      -6.5      0.000      0.000
  Name = 
  14 active torsions:
  status: ('A' for Active; 'I' for Inactive)
    1  A    between atoms: C_2  and  C_29
    2  A    between atoms: C_2  and  C_30
    3  A    between atoms: C_6  and  C_12
    4  A    between atoms: C_6  and  O_31
    5  A    between atoms: N_7  and  C_15
    6  A    between atoms: C_8  and  C_29
    7  A    between atoms: C_11  and  C_35
    8  A    between atoms: C_12  and  C_15
    9  A    between atoms: C_12  and  C_30
   10  A    between atoms: C_17  and  C_21
   11  A    between atoms: C_17  and  N_45
   12  A    between atoms: C_21  and  C_35
   13  A    between atoms: C_21  and  C_41
   14  A    between atoms: O_28  and  C_38
                            x       y       z     vdW  Elec       q    Type
                         _______ _______ _______ _____ _____    ______ ____

>  <TORSDO>
F 14

$$$$
=
 OpenBabel11072413553D

 46 51  0  0  1  0  0  0  0  0999 V2000
  161.1040  207.7260  151.8210 C   0  0  0  0  0  2  0  0  0  0  0  0
  160.6190  208.4430  153.0670 C   0  0  1  0  0  3  0  0  0  0  0  0
  161.0020  207.6180  154.2900 C   0  0  0  0  0  1  0  0  0  0  0  0
  161.2260  209.8570  153.1820 C   0  0  2  0  0  3  0  0  0  0  0  0
  161.2790  210.3950  154.5850 C   0  0  0  0  0  0  0  0  0  0  0  0
  162.3970  210.8230  155.0830 N   0  0  0  0  0  2  0  0  0  0  0  0
  159.9920  211.0690  156.5880 C   0  0  0  0  0  1  0  0  0  0  0  0
  160.1110  210.3810  155.3510 O   0  0  0  0  0  0  0  0  0  0  0  0
  160.6090  210.8970  152.2430 C   0  0  0  0  0  2  0  0  0  0  0  0
  159.3320  211.3900  152.7380 N   0  0  0  0  0  2  0  0  0  0  0  0
  158.6180  212.5060  152.2010 C   0  0  0  0  0  0  0  0  0  0  0  0
  157.4060  212.6490  152.5280 O   0  0  0  0  0  0  0  0  0  0  0  0
  160.5000  213.9440  151.6890 O   0  0  0  0  0  1  0  0  0  0  0  0
  159.2330  213.5290  151.2780 C   0  0  1  0  0  3  0  0  0  0  0  0
  159.1880  213.1420  149.7930 C   0  0  1  0  0  3  0  0  0  0  0  0
  156.9130  212.8910  149.0050 N   0  0  0  0  0  2  0  0  0  0  0  0
  158.0010  213.8240  149.1150 C   0  0  2  0  0  3  0  0  0  0  0  0
  157.7180  213.2230  147.9330 O   0  0  0  0  0  0  0  0  0  0  0  0
  160.4910  213.3970  149.0240 C   0  0  0  0  0  2  0  0  0  0  0  0
  163.2160  212.5620  147.8850 N   0  0  0  0  0  2  0  0  0  0  0  0
  162.2150  211.8440  148.6690 C   0  0  0  0  0  2  0  0  0  0  0  0
  162.5570  212.9210  146.6520 C   0  0  0  0  0  2  0  0  0  0  0  0
  160.8880  212.2410  148.2210 N   0  0  0  0  0  0  0  0  0  0  0  0
  161.0680  212.7340  146.8710 C   0  0  0  0  0  2  0  0  0  0  0  0
  160.6020  206.3030  151.8360 C   0  0  0  0  0  2  0  0  0  0  0  0
  162.5060  205.5580  146.3000 C   0  0  1  0  0  0  0  0  0  0  0  0
  161.0640  203.0570  147.0580 C   0  0  0  0  0  0  0  0  0  0  0  0
  161.1280  205.4410  150.6910 C   0  0  2  0  0  0  0  0  0  0  0  0
  160.0800  206.3930  146.2240 O   0  0  0  0  0  1  0  0  0  0  0  0
  162.6410  205.3790  150.7700 C   0  0  0  0  0  1  0  0  0  0  0  0
  161.0420  201.8760  149.6130 C   0  0  0  0  0  3  0  0  0  0  0  0
  161.2220  205.9980  146.9460 C   0  0  1  0  0  0  0  0  0  0  0  0
  160.9110  203.8740  148.2350 C   0  0  0  0  0  0  0  0  0  0  0  0
  161.9290  204.7010  145.2220 C   0  0  0  0  0  0  0  0  0  0  0  0
  160.8450  203.2490  149.4940 C   0  0  0  0  0  0  0  0  0  0  0  0
  160.9850  205.3290  148.2100 N   0  0  0  0  0  0  0  0  0  0  0  0
  162.2380  204.8700  144.0480 O   0  0  0  0  0  0  0  0  0  0  0  0
  161.2320  201.0940  148.4730 C   0  0  0  0  0  3  0  0  0  0  0  0
  162.2580  206.8830  146.7450 O   0  0  0  0  0  0  0  0  0  0  0  0
  161.2190  201.6780  147.2100 C   0  0  0  0  0  3  0  0  0  0  0  0
  161.0030  203.5410  145.6080 C   0  0  2  0  0  3  0  0  0  0  0  0
  163.5570  204.8990  147.1810 C   0  0  0  0  0  1  0  0  0  0  0  0
  160.7140  206.1370  149.4020 C   0  0  0  0  0  2  0  0  0  0  0  0
  160.5190  204.0380  150.7220 C   0  0  0  0  0  2  0  0  0  0  0  0
  159.6920  203.8100  145.2380 O   0  0  0  0  0  0  0  0  0  0  0  0
  159.3980  202.8530  144.2770 C   0  0  0  0  0  1  0  0  0  0  0  0
  1 25  1  0  0  0  0
  1  2  1  0  0  0  0
  2  4  1  0  0  0  0
  2  3  1  1  0  0  0
  4  9  1  6  0  0  0
  4  5  1  0  0  0  0
  5  6  2  0  0  0  0
  5  8  1  0  0  0  0
  8  7  1  0  0  0  0
  9 10  1  0  0  0  0
 11 12  2  0  0  0  0
 11 10  1  0  0  0  0
 14 13  1  1  0  0  0
 14 11  1  0  0  0  0
 15 19  1  6  0  0  0
 15 14  1  0  0  0  0
 16 17  1  0  0  0  0
 17 15  1  1  0  0  0
 18 16  1  0  0  0  0
 18 17  1  0  0  0  0
 20 21  1  0  0  0  0
 22 24  1  0  0  0  0
 22 20  1  0  0  0  0
 23 21  1  0  0  0  0
 23 19  1  0  0  0  0
 24 23  1  0  0  0  0
 26 39  1  0  0  0  0
 26 32  1  0  0  0  0
 26 42  1  1  0  0  0
 27 40  2  0  0  0  0
 27 33  1  0  0  0  0
 28 44  1  0  0  0  0
 28 30  1  1  0  0  0
 28 25  1  0  0  0  0
 32 29  1  6  0  0  0
 32 36  1  0  0  0  0
 33 35  2  0  0  0  0
 34 41  1  0  0  0  0
 34 26  1  0  0  0  0
 35 31  1  0  0  0  0
 35 44  1  0  0  0  0
 36 33  1  0  0  0  0
 36 43  1  0  0  0  0
 37 34  2  0  0  0  0
 38 31  2  0  0  0  0
 39 32  1  0  0  0  0
 40 38  1  0  0  0  0
 41 45  1  1  0  0  0
 41 27  1  0  0  0  0
 43 28  1  0  0  0  0
 46 45  1  0  0  0  0
M  END
>  <MODEL>
2

>  <REMARK>
 VINA RESULT:      -6.1      1.537      2.244
  Name = 
  14 active torsions:
  status: ('A' for Active; 'I' for Inactive)
    1  A    between atoms: C_2  and  C_29
    2  A    between atoms: C_2  and  C_30
    3  A    between atoms: C_6  and  C_12
    4  A    between atoms: C_6  and  O_31
    5  A    between atoms: N_7  and  C_15
    6  A    between atoms: C_8  and  C_29
    7  A    between atoms: C_11  and  C_35
    8  A    between atoms: C_12  and  C_15
    9  A    between atoms: C_12  and  C_30
   10  A    between atoms: C_17  and  C_21
   11  A    between atoms: C_17  and  N_45
   12  A    between atoms: C_21  and  C_35
   13  A    between atoms: C_21  and  C_41
   14  A    between atoms: O_28  and  C_38
                            x       y       z     vdW  Elec       q    Type
                         _______ _______ _______ _____ _____    ______ ____

>  <TORSDO>
F 14

$$$$
=
 OpenBabel11072413553D

 46 51  0  0  1  0  0  0  0  0999 V2000
  161.2150  208.0110  152.1300 C   0  0  0  0  0  2  0  0  0  0  0  0
  161.7660  206.5970  152.1350 C   0  0  1  0  0  3  0  0  0  0  0  0
  162.1610  206.2280  153.5610 C   0  0  0  0  0  1  0  0  0  0  0  0
  160.7330  205.5820  151.6030 C   0  0  2  0  0  3  0  0  0  0  0  0
  161.0130  204.1560  151.9870 C   0  0  0  0  0  0  0  0  0  0  0  0
  160.3350  203.5860  152.9340 N   0  0  0  0  0  2  0  0  0  0  0  0
  162.3010  202.0940  151.5290 C   0  0  0  0  0  1  0  0  0  0  0  0
  162.0440  203.4770  151.3340 O   0  0  0  0  0  0  0  0  0  0  0  0
  160.4560  205.6780  150.1000 C   0  0  0  0  0  2  0  0  0  0  0  0
  161.4850  206.4370  149.4030 N   0  0  0  0  0  2  0  0  0  0  0  0
  161.5600  206.6090  147.9860 C   0  0  0  0  0  0  0  0  0  0  0  0
  162.3210  207.5130  147.5380 O   0  0  0  0  0  0  0  0  0  0  0  0
  160.1030  206.5220  146.0520 O   0  0  0  0  0  1  0  0  0  0  0  0
  160.7950  205.7640  146.9970 C   0  0  1  0  0  3  0  0  0  0  0  0
  161.6230  204.6360  146.3640 C   0  0  1  0  0  3  0  0  0  0  0  0
  163.7120  204.1330  145.2490 N   0  0  0  0  0  2  0  0  0  0  0  0
  162.9690  205.1820  145.8920 C   0  0  2  0  0  3  0  0  0  0  0  0
  163.9870  204.5600  146.5340 O   0  0  0  0  0  0  0  0  0  0  0  0
  161.8040  203.3980  147.2510 C   0  0  0  0  0  2  0  0  0  0  0  0
  161.3270  200.5740  148.3560 N   0  0  0  0  0  2  0  0  0  0  0  0
  160.6110  201.8340  148.5330 C   0  0  0  0  0  2  0  0  0  0  0  0
  161.2510  200.2800  146.9450 C   0  0  0  0  0  2  0  0  0  0  0  0
  160.6070  202.5580  147.2690 N   0  0  0  0  0  0  0  0  0  0  0  0
  160.8080  201.5510  146.2470 C   0  0  0  0  0  2  0  0  0  0  0  0
  161.0710  208.4960  153.5510 C   0  0  0  0  0  2  0  0  0  0  0  0
  158.2550  212.8660  156.3440 C   0  0  1  0  0  0  0  0  0  0  0  0
  157.9760  213.3930  153.4190 C   0  0  0  0  0  0  0  0  0  0  0  0
  160.6110  209.9470  153.6750 C   0  0  2  0  0  0  0  0  0  0  0  0
  156.5430  211.0590  155.7200 O   0  0  0  0  0  1  0  0  0  0  0  0
  161.6800  210.7480  154.3900 C   0  0  0  0  0  1  0  0  0  0  0  0
  159.9180  212.8560  151.4540 C   0  0  0  0  0  3  0  0  0  0  0  0
  157.8600  211.5560  155.7210 C   0  0  1  0  0  0  0  0  0  0  0  0
  158.7110  212.1540  153.4450 C   0  0  0  0  0  0  0  0  0  0  0  0
  157.1090  213.6940  155.8650 C   0  0  0  0  0  0  0  0  0  0  0  0
  159.6340  211.8900  152.4150 C   0  0  0  0  0  0  0  0  0  0  0  0
  158.6740  211.2270  154.5680 N   0  0  0  0  0  0  0  0  0  0  0  0
  156.4340  214.3500  156.6500 O   0  0  0  0  0  0  0  0  0  0  0  0
  159.2330  214.0720  151.4600 C   0  0  0  0  0  3  0  0  0  0  0  0
  158.3590  211.6140  157.0040 O   0  0  0  0  0  0  0  0  0  0  0  0
  158.2570  214.3240  152.4180 C   0  0  0  0  0  3  0  0  0  0  0  0
  156.8340  213.7840  154.3590 C   0  0  2  0  0  3  0  0  0  0  0  0
  159.6420  213.4100  156.0370 C   0  0  0  0  0  1  0  0  0  0  0  0
  159.3420  209.9250  154.5180 C   0  0  0  0  0  2  0  0  0  0  0  0
  160.2930  210.5520  152.3060 C   0  0  0  0  0  2  0  0  0  0  0  0
  155.6720  213.1010  154.0270 O   0  0  0  0  0  0  0  0  0  0  0  0
  154.8080  214.0840  153.5650 C   0  0  0  0  0  1  0  0  0  0  0  0
  1  2  1  0  0  0  0
  1 25  1  0  0  0  0
  2  3  1  1  0  0  0
  4  9  1  6  0  0  0
  4  5  1  0  0  0  0
  4  2  1  0  0  0  0
  5  6  2  0  0  0  0
  8  7  1  0  0  0  0
  8  5  1  0  0  0  0
 10  9  1  0  0  0  0
 11 10  1  0  0  0  0
 12 11  2  0  0  0  0
 14 13  1  6  0  0  0
 14 11  1  0  0  0  0
 15 14  1  0  0  0  0
 15 19  1  1  0  0  0
 16 17  1  0  0  0  0
 16 18  1  0  0  0  0
 17 15  1  1  0  0  0
 17 18  1  0  0  0  0
 19 23  1  0  0  0  0
 20 21  1  0  0  0  0
 22 20  1  0  0  0  0
 23 21  1  0  0  0  0
 24 22  1  0  0  0  0
 24 23  1  0  0  0  0
 25 28  1  0  0  0  0
 26 42  1  6  0  0  0
 26 39  1  0  0  0  0
 27 33  1  0  0  0  0
 27 41  1  0  0  0  0
 28 30  1  1  0  0  0
 28 43  1  0  0  0  0
 31 38  2  0  0  0  0
 31 35  1  0  0  0  0
 32 29  1  6  0  0  0
 32 26  1  0  0  0  0
 32 39  1  0  0  0  0
 33 36  1  0  0  0  0
 34 26  1  0  0  0  0
 34 37  2  0  0  0  0
 35 33  2  0  0  0  0
 36 32  1  0  0  0  0
 38 40  1  0  0  0  0
 40 27  2  0  0  0  0
 41 45  1  1  0  0  0
 41 34  1  0  0  0  0
 43 36  1  0  0  0  0
 44 35  1  0  0  0  0
 44 28  1  0  0  0  0
 46 45  1  0  0  0  0
M  END
>  <MODEL>
3

>  <REMARK>
 VINA RESULT:      -5.9      3.338     10.114
  Name = 
  14 active torsions:
  status: ('A' for Active; 'I' for Inactive)
    1  A    between atoms: C_2  and  C_29
    2  A    between atoms: C_2  and  C_30
    3  A    between atoms: C_6  and  C_12
    4  A    between atoms: C_6  and  O_31
    5  A    between atoms: N_7  and  C_15
    6  A    between atoms: C_8  and  C_29
    7  A    between atoms: C_11  and  C_35
    8  A    between atoms: C_12  and  C_15
    9  A    between atoms: C_12  and  C_30
   10  A    between atoms: C_17  and  C_21
   11  A    between atoms: C_17  and  N_45
   12  A    between atoms: C_21  and  C_35
   13  A    between atoms: C_21  and  C_41
   14  A    between atoms: O_28  and  C_38
                            x       y       z     vdW  Elec       q    Type
                         _______ _______ _______ _____ _____    ______ ____

>  <TORSDO>
F 14

$$$$
=
 OpenBabel11072413553D

 46 51  0  0  1  0  0  0  0  0999 V2000
  160.8280  208.0440  152.1550 C   0  0  0  0  0  2  0  0  0  0  0  0
  162.2810  207.9310  151.7340 C   0  0  1  0  0  3  0  0  0  0  0  0
  162.7050  206.4680  151.8170 C   0  0  0  0  0  1  0  0  0  0  0  0
  162.5000  208.4540  150.2990 C   0  0  2  0  0  3  0  0  0  0  0  0
  162.4510  209.9520  150.1730 C   0  0  0  0  0  0  0  0  0  0  0  0
  162.6640  210.7050  151.2070 N   0  0  0  0  0  2  0  0  0  0  0  0
  161.7170  211.8600  148.7790 C   0  0  0  0  0  1  0  0  0  0  0  0
  162.1290  210.5090  148.9340 O   0  0  0  0  0  0  0  0  0  0  0  0
  161.6060  207.8080  149.2380 C   0  0  0  0  0  2  0  0  0  0  0  0
  162.3670  207.3620  148.0800 N   0  0  0  0  0  2  0  0  0  0  0  0
  161.9860  206.2960  147.2070 C   0  0  0  0  0  0  0  0  0  0  0  0
  162.5760  206.2020  146.0930 O   0  0  0  0  0  0  0  0  0  0  0  0
  160.1930  204.8600  146.4360 O   0  0  0  0  0  1  0  0  0  0  0  0
  160.9320  205.2720  147.5460 C   0  0  1  0  0  3  0  0  0  0  0  0
  161.4490  204.0940  148.3850 C   0  0  1  0  0  3  0  0  0  0  0  0
  160.6400  204.7360  150.5740 N   0  0  0  0  0  2  0  0  0  0  0  0
  160.4640  203.7860  149.5110 C   0  0  2  0  0  3  0  0  0  0  0  0
  161.1260  203.4440  150.6430 O   0  0  0  0  0  0  0  0  0  0  0  0
  161.7880  202.8330  147.5790 C   0  0  0  0  0  2  0  0  0  0  0  0
  161.6010  199.7780  147.3440 N   0  0  0  0  0  2  0  0  0  0  0  0
  160.9260  200.7420  148.2090 C   0  0  0  0  0  2  0  0  0  0  0  0
  161.2190  200.1320  145.9980 C   0  0  0  0  0  2  0  0  0  0  0  0
  160.6350  201.9440  147.4410 N   0  0  0  0  0  0  0  0  0  0  0  0
  160.6170  201.5230  146.0550 C   0  0  0  0  0  2  0  0  0  0  0  0
  160.7580  208.4860  153.5950 C   0  0  0  0  0  2  0  0  0  0  0  0
  158.2080  212.8470  156.6460 C   0  0  1  0  0  0  0  0  0  0  0  0
  157.8180  213.4770  153.7540 C   0  0  0  0  0  0  0  0  0  0  0  0
  160.3500  209.9450  153.7850 C   0  0  2  0  0  0  0  0  0  0  0  0
  156.4130  211.1140  156.0420 O   0  0  0  0  0  1  0  0  0  0  0  0
  161.4750  210.6890  154.4760 C   0  0  0  0  0  1  0  0  0  0  0  0
  159.6550  212.9450  151.6890 C   0  0  0  0  0  3  0  0  0  0  0  0
  157.7440  211.5700  156.0010 C   0  0  1  0  0  0  0  0  0  0  0  0
  158.5140  212.2160  153.7080 C   0  0  0  0  0  0  0  0  0  0  0  0
  157.0690  213.7250  156.2440 C   0  0  0  0  0  0  0  0  0  0  0  0
  159.3810  211.9570  152.6310 C   0  0  0  0  0  0  0  0  0  0  0  0
  158.4960  211.2550  154.8030 N   0  0  0  0  0  0  0  0  0  0  0  0
  156.4500  214.3760  157.0780 O   0  0  0  0  0  0  0  0  0  0  0  0
  159.0100  214.1800  151.7620 C   0  0  0  0  0  3  0  0  0  0  0  0
  158.3000  211.5710  157.2610 O   0  0  0  0  0  0  0  0  0  0  0  0
  158.0850  214.4310  152.7710 C   0  0  0  0  0  3  0  0  0  0  0  0
  156.7310  213.8720  154.7550 C   0  0  2  0  0  3  0  0  0  0  0  0
  159.5970  213.3580  156.2940 C   0  0  0  0  0  1  0  0  0  0  0  0
  159.1190  209.9340  154.6820 C   0  0  0  0  0  2  0  0  0  0  0  0
  159.9920  210.6040  152.4510 C   0  0  0  0  0  2  0  0  0  0  0  0
  155.5350  213.2360  154.4540 O   0  0  0  0  0  0  0  0  0  0  0  0
  154.7990  214.1860  153.7600 C   0  0  0  0  0  1  0  0  0  0  0  0
  1 25  1  0  0  0  0
  2  3  1  6  0  0  0
  2  1  1  0  0  0  0
  4  9  1  6  0  0  0
  4  2  1  0  0  0  0
  5  4  1  0  0  0  0
  5  6  2  0  0  0  0
  7  8  1  0  0  0  0
  8  5  1  0  0  0  0
 10  9  1  0  0  0  0
 11 14  1  0  0  0  0
 11 10  1  0  0  0  0
 12 11  2  0  0  0  0
 14 13  1  6  0  0  0
 14 15  1  0  0  0  0
 15 19  1  6  0  0  0
 16 18  1  0  0  0  0
 17 15  1  6  0  0  0
 17 16  1  0  0  0  0
 17 18  1  0  0  0  0
 20 21  1  0  0  0  0
 22 24  1  0  0  0  0
 22 20  1  0  0  0  0
 23 19  1  0  0  0  0
 23 21  1  0  0  0  0
 24 23  1  0  0  0  0
 25 28  1  0  0  0  0
 26 42  1  6  0  0  0
 26 39  1  0  0  0  0
 27 41  1  0  0  0  0
 28 30  1  1  0  0  0
 28 43  1  0  0  0  0
 31 38  2  0  0  0  0
 31 35  1  0  0  0  0
 32 29  1  6  0  0  0
 32 26  1  0  0  0  0
 32 39  1  0  0  0  0
 33 27  1  0  0  0  0
 33 36  1  0  0  0  0
 34 26  1  0  0  0  0
 34 37  2  0  0  0  0
 35 33  2  0  0  0  0
 36 32  1  0  0  0  0
 38 40  1  0  0  0  0
 40 27  2  0  0  0  0
 41 45  1  6  0  0  0
 41 34  1  0  0  0  0
 43 36  1  0  0  0  0
 44 35  1  0  0  0  0
 44 28  1  0  0  0  0
 46 45  1  0  0  0  0
M  END
>  <MODEL>
4

>  <REMARK>
 VINA RESULT:      -5.6      2.727     10.098
  Name = 
  14 active torsions:
  status: ('A' for Active; 'I' for Inactive)
    1  A    between atoms: C_2  and  C_29
    2  A    between atoms: C_2  and  C_30
    3  A    between atoms: C_6  and  C_12
    4  A    between atoms: C_6  and  O_31
    5  A    between atoms: N_7  and  C_15
    6  A    between atoms: C_8  and  C_29
    7  A    between atoms: C_11  and  C_35
    8  A    between atoms: C_12  and  C_15
    9  A    between atoms: C_12  and  C_30
   10  A    between atoms: C_17  and  C_21
   11  A    between atoms: C_17  and  N_45
   12  A    between atoms: C_21  and  C_35
   13  A    between atoms: C_21  and  C_41
   14  A    between atoms: O_28  and  C_38
                            x       y       z     vdW  Elec       q    Type
                         _______ _______ _______ _____ _____    ______ ____

>  <TORSDO>
F 14

$$$$
=
 OpenBabel11072413553D

 46 51  0  0  1  0  0  0  0  0999 V2000
  160.8250  207.9890  151.2120 C   0  0  0  0  0  2  0  0  0  0  0  0
  161.5940  206.8230  150.6210 C   0  0  1  0  0  3  0  0  0  0  0  0
  162.9800  206.7760  151.2560 C   0  0  0  0  0  1  0  0  0  0  0  0
  160.8680  205.4830  150.8600 C   0  0  2  0  0  3  0  0  0  0  0  0
  161.0370  204.9260  152.2460 C   0  0  0  0  0  0  0  0  0  0  0  0
  161.5040  203.7290  152.4210 N   0  0  0  0  0  2  0  0  0  0  0  0
  161.5460  206.1660  154.3270 C   0  0  0  0  0  1  0  0  0  0  0  0
  160.6390  205.7070  153.3340 O   0  0  0  0  0  0  0  0  0  0  0  0
  161.1640  204.4000  149.8190 C   0  0  0  0  0  2  0  0  0  0  0  0
  160.0820  203.4320  149.7150 N   0  0  0  0  0  2  0  0  0  0  0  0
  160.2010  202.1230  149.1530 C   0  0  0  0  0  0  0  0  0  0  0  0
  159.2770  201.2920  149.3820 O   0  0  0  0  0  0  0  0  0  0  0  0
  161.7800  200.3810  148.5660 O   0  0  0  0  0  1  0  0  0  0  0  0
  161.3590  201.6830  148.2920 C   0  0  1  0  0  3  0  0  0  0  0  0
  161.1570  201.9380  146.7910 C   0  0  1  0  0  3  0  0  0  0  0  0
  160.7960  199.9670  145.4340 N   0  0  0  0  0  2  0  0  0  0  0  0
  160.1280  200.9590  146.2310 C   0  0  2  0  0  3  0  0  0  0  0  0
  160.0980  201.0210  144.8780 O   0  0  0  0  0  0  0  0  0  0  0  0
  160.8030  203.3870  146.4300 C   0  0  0  0  0  2  0  0  0  0  0  0
  161.9500  206.1980  145.9800 N   0  0  0  0  0  2  0  0  0  0  0  0
  162.5690  204.8760  146.0120 C   0  0  0  0  0  2  0  0  0  0  0  0
  161.0120  206.1600  144.8850 C   0  0  0  0  0  2  0  0  0  0  0  0
  161.6730  203.9180  145.3810 N   0  0  0  0  0  0  0  0  0  0  0  0
  160.8190  204.7030  144.5120 C   0  0  0  0  0  2  0  0  0  0  0  0
  161.6200  208.5920  152.3430 C   0  0  0  0  0  2  0  0  0  0  0  0
  158.8400  212.0430  156.2400 C   0  0  1  0  0  0  0  0  0  0  0  0
  158.2930  213.1840  153.5370 C   0  0  0  0  0  0  0  0  0  0  0  0
  161.1020  209.9460  152.8230 C   0  0  2  0  0  0  0  0  0  0  0  0
  157.1700  210.3100  155.3470 O   0  0  0  0  0  1  0  0  0  0  0  0
  162.1880  210.6380  153.6220 C   0  0  0  0  0  1  0  0  0  0  0  0
  160.0880  213.2220  151.3690 C   0  0  0  0  0  3  0  0  0  0  0  0
  158.4580  210.8800  155.3680 C   0  0  1  0  0  0  0  0  0  0  0  0
  159.0870  212.0210  153.2300 C   0  0  0  0  0  0  0  0  0  0  0  0
  157.6200  212.8800  156.0420 C   0  0  0  0  0  0  0  0  0  0  0  0
  159.9320  212.0510  152.1050 C   0  0  0  0  0  0  0  0  0  0  0  0
  159.1880  210.8680  154.1160 N   0  0  0  0  0  0  0  0  0  0  0  0
  156.9820  213.3010  157.0000 O   0  0  0  0  0  0  0  0  0  0  0  0
  159.3490  214.3590  151.6960 C   0  0  0  0  0  3  0  0  0  0  0  0
  159.0590  210.6860  156.5920 O   0  0  0  0  0  0  0  0  0  0  0  0
  158.4450  214.3300  152.7530 C   0  0  0  0  0  3  0  0  0  0  0  0
  157.2160  213.2820  154.6180 C   0  0  2  0  0  3  0  0  0  0  0  0
  160.1700  212.7320  155.9660 C   0  0  0  0  0  1  0  0  0  0  0  0
  159.9110  209.6550  153.7260 C   0  0  0  0  0  2  0  0  0  0  0  0
  160.6430  210.8160  151.6510 C   0  0  0  0  0  2  0  0  0  0  0  0
  156.0650  212.6150  154.2230 O   0  0  0  0  0  0  0  0  0  0  0  0
  155.1530  213.6240  153.9460 C   0  0  0  0  0  1  0  0  0  0  0  0
  1 25  1  0  0  0  0
  2  4  1  0  0  0  0
  2  1  1  0  0  0  0
  2  3  1  1  0  0  0
  4  9  1  6  0  0  0
  4  5  1  0  0  0  0
  5  6  2  0  0  0  0
  5  8  1  0  0  0  0
  8  7  1  0  0  0  0
 10  9  1  0  0  0  0
 11 12  2  0  0  0  0
 11 10  1  0  0  0  0
 14 13  1  6  0  0  0
 14 11  1  0  0  0  0
 15 19  1  1  0  0  0
 15 14  1  0  0  0  0
 16 17  1  0  0  0  0
 17 15  1  1  0  0  0
 18 16  1  0  0  0  0
 18 17  1  0  0  0  0
 20 21  1  0  0  0  0
 22 20  1  0  0  0  0
 23 21  1  0  0  0  0
 23 19  1  0  0  0  0
 24 22  1  0  0  0  0
 24 23  1  0  0  0  0
 25 28  1  0  0  0  0
 26 42  1  6  0  0  0
 26 39  1  0  0  0  0
 27 41  1  0  0  0  0
 28 30  1  1  0  0  0
 28 43  1  0  0  0  0
 31 38  2  0  0  0  0
 31 35  1  0  0  0  0
 32 29  1  6  0  0  0
 32 26  1  0  0  0  0
 32 39  1  0  0  0  0
 33 27  1  0  0  0  0
 33 36  1  0  0  0  0
 34 26  1  0  0  0  0
 34 37  2  0  0  0  0
 35 33  2  0  0  0  0
 36 32  1  0  0  0  0
 38 40  1  0  0  0  0
 40 27  2  0  0  0  0
 41 45  1  6  0  0  0
 41 34  1  0  0  0  0
 43 36  1  0  0  0  0
 44 35  1  0  0  0  0
 44 28  1  0  0  0  0
 46 45  1  0  0  0  0
M  END
>  <MODEL>
5

>  <REMARK>
 VINA RESULT:      -5.4      3.711     10.021
  Name = 
  14 active torsions:
  status: ('A' for Active; 'I' for Inactive)
    1  A    between atoms: C_2  and  C_29
    2  A    between atoms: C_2  and  C_30
    3  A    between atoms: C_6  and  C_12
    4  A    between atoms: C_6  and  O_31
    5  A    between atoms: N_7  and  C_15
    6  A    between atoms: C_8  and  C_29
    7  A    between atoms: C_11  and  C_35
    8  A    between atoms: C_12  and  C_15
    9  A    between atoms: C_12  and  C_30
   10  A    between atoms: C_17  and  C_21
   11  A    between atoms: C_17  and  N_45
   12  A    between atoms: C_21  and  C_35
   13  A    between atoms: C_21  and  C_41
   14  A    between atoms: O_28  and  C_38
                            x       y       z     vdW  Elec       q    Type
                         _______ _______ _______ _____ _____    ______ ____

>  <TORSDO>
F 14

$$$$
=
 OpenBabel11072413553D

 46 51  0  0  1  0  0  0  0  0999 V2000
  160.7020  208.1150  153.1340 C   0  0  0  0  0  2  0  0  0  0  0  0
  161.6600  206.9390  153.1250 C   0  0  1  0  0  3  0  0  0  0  0  0
  160.9080  205.6880  153.5660 C   0  0  0  0  0  1  0  0  0  0  0  0
  162.2690  206.7130  151.7250 C   0  0  2  0  0  3  0  0  0  0  0  0
  162.3020  207.9420  150.8590 C   0  0  0  0  0  0  0  0  0  0  0  0
  162.4860  209.1120  151.3860 N   0  0  0  0  0  2  0  0  0  0  0  0
  162.0160  208.9050  148.5980 C   0  0  0  0  0  1  0  0  0  0  0  0
  162.0850  207.7990  149.4860 O   0  0  0  0  0  0  0  0  0  0  0  0
  161.6700  205.5380  150.9480 C   0  0  0  0  0  2  0  0  0  0  0  0
  161.9040  204.2650  151.6160 N   0  0  0  0  0  2  0  0  0  0  0  0
  161.5340  202.9860  151.0980 C   0  0  0  0  0  0  0  0  0  0  0  0
  162.0440  201.9600  151.6310 O   0  0  0  0  0  0  0  0  0  0  0  0
  159.5100  203.7090  149.9790 O   0  0  0  0  0  1  0  0  0  0  0  0
  160.5600  202.7910  149.9620 C   0  0  1  0  0  3  0  0  0  0  0  0
  161.2220  202.6700  148.5820 C   0  0  1  0  0  3  0  0  0  0  0  0
  161.0190  200.2950  149.0000 N   0  0  0  0  0  2  0  0  0  0  0  0
  160.9190  201.3000  147.9780 C   0  0  2  0  0  3  0  0  0  0  0  0
  162.0070  200.4960  148.0550 O   0  0  0  0  0  0  0  0  0  0  0  0
  160.8740  203.8000  147.6040 C   0  0  0  0  0  2  0  0  0  0  0  0
  161.5560  206.2270  145.8530 N   0  0  0  0  0  2  0  0  0  0  0  0
  162.3660  205.3910  146.7350 C   0  0  0  0  0  2  0  0  0  0  0  0
  161.0600  205.3420  144.8270 C   0  0  0  0  0  2  0  0  0  0  0  0
  161.9270  204.0090  146.6110 N   0  0  0  0  0  0  0  0  0  0  0  0
  161.2800  203.9230  145.3170 C   0  0  0  0  0  2  0  0  0  0  0  0
  160.8830  208.8970  154.4120 C   0  0  0  0  0  2  0  0  0  0  0  0
  157.3250  213.1230  156.4870 C   0  0  1  0  0  0  0  0  0  0  0  0
  157.4450  213.4770  153.5250 C   0  0  0  0  0  0  0  0  0  0  0  0
  160.2890  210.3030  154.3770 C   0  0  2  0  0  0  0  0  0  0  0  0
  155.8820  211.1380  155.7350 O   0  0  0  0  0  1  0  0  0  0  0  0
  161.1690  211.2340  155.1870 C   0  0  0  0  0  1  0  0  0  0  0  0
  159.6980  213.0230  151.9010 C   0  0  0  0  0  3  0  0  0  0  0  0
  157.1380  211.7530  155.8970 C   0  0  1  0  0  0  0  0  0  0  0  0
  158.2690  212.3130  153.7350 C   0  0  0  0  0  0  0  0  0  0  0  0
  156.1990  213.8180  155.7960 C   0  0  0  0  0  0  0  0  0  0  0  0
  159.3540  212.0840  152.8690 C   0  0  0  0  0  0  0  0  0  0  0  0
  158.1410  211.4440  154.8970 N   0  0  0  0  0  0  0  0  0  0  0  0
  155.3610  214.4480  156.4310 O   0  0  0  0  0  0  0  0  0  0  0  0
  158.9220  214.1700  151.7300 C   0  0  0  0  0  3  0  0  0  0  0  0
  157.4330  211.9200  157.2320 O   0  0  0  0  0  0  0  0  0  0  0  0
  157.7950  214.3790  152.5190 C   0  0  0  0  0  3  0  0  0  0  0  0
  156.1460  213.8070  154.2630 C   0  0  2  0  0  3  0  0  0  0  0  0
  158.6920  213.7770  156.3510 C   0  0  0  0  0  1  0  0  0  0  0  0
  158.9150  210.2070  155.0260 C   0  0  0  0  0  2  0  0  0  0  0  0
  160.1320  210.8080  152.9410 C   0  0  0  0  0  2  0  0  0  0  0  0
  155.1090  213.0050  153.8090 O   0  0  0  0  0  0  0  0  0  0  0  0
  154.8290  213.4820  152.5360 C   0  0  0  0  0  1  0  0  0  0  0  0
  1 25  1  0  0  0  0
  2  1  1  0  0  0  0
  2  3  1  6  0  0  0
  4  9  1  6  0  0  0
  4  2  1  0  0  0  0
  5  6  2  0  0  0  0
  5  4  1  0  0  0  0
  7  8  1  0  0  0  0
  8  5  1  0  0  0  0
  9 10  1  0  0  0  0
 11 10  1  0  0  0  0
 11 12  2  0  0  0  0
 14 13  1  6  0  0  0
 14 11  1  0  0  0  0
 15 19  1  6  0  0  0
 15 14  1  0  0  0  0
 17 18  1  0  0  0  0
 17 15  1  1  0  0  0
 17 16  1  0  0  0  0
 18 16  1  0  0  0  0
 20 21  1  0  0  0  0
 22 24  1  0  0  0  0
 22 20  1  0  0  0  0
 23 21  1  0  0  0  0
 23 19  1  0  0  0  0
 24 23  1  0  0  0  0
 26 42  1  6  0  0  0
 26 39  1  0  0  0  0
 27 33  1  0  0  0  0
 27 41  1  0  0  0  0
 28 25  1  0  0  0  0
 28 43  1  0  0  0  0
 28 30  1  1  0  0  0
 31 35  1  0  0  0  0
 32 29  1  6  0  0  0
 32 26  1  0  0  0  0
 32 39  1  0  0  0  0
 33 36  1  0  0  0  0
 34 37  2  0  0  0  0
 34 26  1  0  0  0  0
 35 44  1  0  0  0  0
 35 33  2  0  0  0  0
 36 43  1  0  0  0  0
 36 32  1  0  0  0  0
 38 31  2  0  0  0  0
 38 40  1  0  0  0  0
 40 27  2  0  0  0  0
 41 45  1  1  0  0  0
 41 34  1  0  0  0  0
 44 28  1  0  0  0  0
 46 45  1  0  0  0  0
M  END
>  <MODEL>
6

>  <REMARK>
 VINA RESULT:      -5.1      3.315     10.110
  Name = 
  14 active torsions:
  status: ('A' for Active; 'I' for Inactive)
    1  A    between atoms: C_2  and  C_29
    2  A    between atoms: C_2  and  C_30
    3  A    between atoms: C_6  and  C_12
    4  A    between atoms: C_6  and  O_31
    5  A    between atoms: N_7  and  C_15
    6  A    between atoms: C_8  and  C_29
    7  A    between atoms: C_11  and  C_35
    8  A    between atoms: C_12  and  C_15
    9  A    between atoms: C_12  and  C_30
   10  A    between atoms: C_17  and  C_21
   11  A    between atoms: C_17  and  N_45
   12  A    between atoms: C_21  and  C_35
   13  A    between atoms: C_21  and  C_41
   14  A    between atoms: O_28  and  C_38
                            x       y       z     vdW  Elec       q    Type
                         _______ _______ _______ _____ _____    ______ ____

>  <TORSDO>
F 14

$$$$
=
 OpenBabel11072413553D

 46 51  0  0  1  0  0  0  0  0999 V2000
  161.8470  208.5650  151.8120 C   0  0  0  0  0  2  0  0  0  0  0  0
  162.1200  207.0980  151.5420 C   0  0  1  0  0  3  0  0  0  0  0  0
  161.2440  206.2570  152.4640 C   0  0  0  0  0  1  0  0  0  0  0  0
  161.8340  206.7270  150.0720 C   0  0  2  0  0  3  0  0  0  0  0  0
  162.1360  207.8230  149.0880 C   0  0  0  0  0  0  0  0  0  0  0  0
  162.9190  207.6020  148.0780 N   0  0  0  0  0  2  0  0  0  0  0  0
  162.3230  210.2900  149.0980 C   0  0  0  0  0  1  0  0  0  0  0  0
  161.5930  209.0900  149.3100 O   0  0  0  0  0  0  0  0  0  0  0  0
  160.4360  206.1600  149.8150 C   0  0  0  0  0  2  0  0  0  0  0  0
  160.4340  204.7050  149.7780 N   0  0  0  0  0  2  0  0  0  0  0  0
  161.2200  203.9050  148.8920 C   0  0  0  0  0  0  0  0  0  0  0  0
  161.3410  202.6740  149.1530 O   0  0  0  0  0  0  0  0  0  0  0  0
  163.2070  203.9800  147.5070 O   0  0  0  0  0  1  0  0  0  0  0  0
  161.8990  204.4420  147.6570 C   0  0  1  0  0  3  0  0  0  0  0  0
  161.0690  204.2990  146.3720 C   0  0  1  0  0  3  0  0  0  0  0  0
  160.5320  206.5610  145.6980 N   0  0  0  0  0  2  0  0  0  0  0  0
  161.3920  205.4450  145.4150 C   0  0  2  0  0  3  0  0  0  0  0  0
  160.3270  205.7180  144.6230 O   0  0  0  0  0  0  0  0  0  0  0  0
  161.1940  202.9380  145.6760 C   0  0  0  0  0  2  0  0  0  0  0  0
  161.2690  199.8920  146.0450 N   0  0  0  0  0  2  0  0  0  0  0  0
  160.8460  200.9800  146.9230 C   0  0  0  0  0  2  0  0  0  0  0  0
  160.3960  199.9590  144.8980 C   0  0  0  0  0  2  0  0  0  0  0  0
  160.1720  201.9950  146.1270 N   0  0  0  0  0  0  0  0  0  0  0  0
  159.7060  201.3090  144.9390 C   0  0  0  0  0  2  0  0  0  0  0  0
  161.2880  208.7220  153.2040 C   0  0  0  0  0  2  0  0  0  0  0  0
  158.4160  212.5850  156.6190 C   0  0  1  0  0  0  0  0  0  0  0  0
  157.9100  213.3940  153.7910 C   0  0  0  0  0  0  0  0  0  0  0  0
  160.7520  210.1190  153.5120 C   0  0  2  0  0  0  0  0  0  0  0  0
  156.7740  210.7440  155.9090 O   0  0  0  0  0  1  0  0  0  0  0  0
  161.8190  210.9090  154.2420 C   0  0  0  0  0  1  0  0  0  0  0  0
  159.7430  213.1910  151.6640 C   0  0  0  0  0  3  0  0  0  0  0  0
  158.0570  211.3230  155.8840 C   0  0  1  0  0  0  0  0  0  0  0  0
  158.7160  212.2100  153.6370 C   0  0  0  0  0  0  0  0  0  0  0  0
  157.1940  213.3820  156.3030 C   0  0  0  0  0  0  0  0  0  0  0  0
  159.5810  212.1150  152.5310 C   0  0  0  0  0  0  0  0  0  0  0  0
  158.8100  211.1700  154.6540 N   0  0  0  0  0  0  0  0  0  0  0  0
  156.5360  213.9070  157.1930 O   0  0  0  0  0  0  0  0  0  0  0  0
  158.9900  214.3530  151.8430 C   0  0  0  0  0  3  0  0  0  0  0  0
  158.6380  211.2800  157.1320 O   0  0  0  0  0  0  0  0  0  0  0  0
  158.0680  214.4400  152.8800 C   0  0  0  0  0  3  0  0  0  0  0  0
  156.8130  213.6100  154.8350 C   0  0  2  0  0  3  0  0  0  0  0  0
  159.7450  213.2480  156.2880 C   0  0  0  0  0  1  0  0  0  0  0  0
  159.5470  209.9260  154.4230 C   0  0  0  0  0  2  0  0  0  0  0  0
  160.3080  210.8410  152.2380 C   0  0  0  0  0  2  0  0  0  0  0  0
  155.6730  212.8900  154.5020 O   0  0  0  0  0  0  0  0  0  0  0  0
  155.1610  213.5420  153.3890 C   0  0  0  0  0  1  0  0  0  0  0  0
  1 25  1  0  0  0  0
  2  1  1  0  0  0  0
  2  3  1  1  0  0  0
  4  9  1  1  0  0  0
  4  2  1  0  0  0  0
  5  8  1  0  0  0  0
  5  4  1  0  0  0  0
  6  5  2  0  0  0  0
  7  8  1  0  0  0  0
 10  9  1  0  0  0  0
 11 12  2  0  0  0  0
 11 10  1  0  0  0  0
 14 13  1  6  0  0  0
 14 11  1  0  0  0  0
 15 19  1  6  0  0  0
 15 14  1  0  0  0  0
 17 16  1  0  0  0  0
 17 15  1  1  0  0  0
 18 17  1  0  0  0  0
 18 16  1  0  0  0  0
 19 23  1  0  0  0  0
 20 21  1  0  0  0  0
 22 24  1  0  0  0  0
 22 20  1  0  0  0  0
 23 21  1  0  0  0  0
 24 23  1  0  0  0  0
 25 28  1  0  0  0  0
 26 42  1  6  0  0  0
 26 39  1  0  0  0  0
 27 41  1  0  0  0  0
 28 30  1  1  0  0  0
 28 43  1  0  0  0  0
 31 38  2  0  0  0  0
 31 35  1  0  0  0  0
 32 29  1  6  0  0  0
 32 26  1  0  0  0  0
 32 39  1  0  0  0  0
 33 27  1  0  0  0  0
 33 36  1  0  0  0  0
 34 26  1  0  0  0  0
 34 37  2  0  0  0  0
 35 33  2  0  0  0  0
 36 32  1  0  0  0  0
 38 40  1  0  0  0  0
 40 27  2  0  0  0  0
 41 45  1  6  0  0  0
 41 34  1  0  0  0  0
 43 36  1  0  0  0  0
 44 35  1  0  0  0  0
 44 28  1  0  0  0  0
 46 45  1  0  0  0  0
M  END
>  <MODEL>
7

>  <REMARK>
 VINA RESULT:      -4.7      2.853     10.107
  Name = 
  14 active torsions:
  status: ('A' for Active; 'I' for Inactive)
    1  A    between atoms: C_2  and  C_29
    2  A    between atoms: C_2  and  C_30
    3  A    between atoms: C_6  and  C_12
    4  A    between atoms: C_6  and  O_31
    5  A    between atoms: N_7  and  C_15
    6  A    between atoms: C_8  and  C_29
    7  A    between atoms: C_11  and  C_35
    8  A    between atoms: C_12  and  C_15
    9  A    between atoms: C_12  and  C_30
   10  A    between atoms: C_17  and  C_21
   11  A    between atoms: C_17  and  N_45
   12  A    between atoms: C_21  and  C_35
   13  A    between atoms: C_21  and  C_41
   14  A    between atoms: O_28  and  C_38
                            x       y       z     vdW  Elec       q    Type
                         _______ _______ _______ _____ _____    ______ ____

>  <TORSDO>
F 14

$$$$
=
 OpenBabel11072413553D

 46 51  0  0  1  0  0  0  0  0999 V2000
  161.9810  208.5550  151.7530 C   0  0  0  0  0  2  0  0  0  0  0  0
  161.7840  210.0410  151.5160 C   0  0  1  0  0  3  0  0  0  0  0  0
  161.5640  210.2760  150.0250 C   0  0  0  0  0  1  0  0  0  0  0  0
  160.5810  210.5900  152.3110 C   0  0  2  0  0  3  0  0  0  0  0  0
  160.2400  212.0220  152.0060 C   0  0  0  0  0  0  0  0  0  0  0  0
  159.6550  212.7620  152.8950 N   0  0  0  0  0  2  0  0  0  0  0  0
  160.0780  213.7930  150.2850 C   0  0  0  0  0  1  0  0  0  0  0  0
  160.5250  212.5210  150.7330 O   0  0  0  0  0  0  0  0  0  0  0  0
  160.6660  210.3810  153.8250 C   0  0  0  0  0  2  0  0  0  0  0  0
  161.9870  210.6990  154.3480 N   0  0  0  0  0  2  0  0  0  0  0  0
  162.3290  210.7620  155.7340 C   0  0  0  0  0  0  0  0  0  0  0  0
  163.5550  210.7640  156.0430 O   0  0  0  0  0  0  0  0  0  0  0  0
  161.0560  212.1470  157.2610 O   0  0  0  0  0  1  0  0  0  0  0  0
  161.3130  210.8400  156.8460 C   0  0  1  0  0  3  0  0  0  0  0  0
  160.0300  210.0390  156.5800 C   0  0  1  0  0  3  0  0  0  0  0  0
  160.6530  207.7490  156.1010 N   0  0  0  0  0  2  0  0  0  0  0  0
  160.1770  208.6240  157.1370 C   0  0  2  0  0  3  0  0  0  0  0  0
  159.3320  207.7730  156.5040 O   0  0  0  0  0  0  0  0  0  0  0  0
  158.7420  210.7050  157.0820 C   0  0  0  0  0  2  0  0  0  0  0  0
  156.0350  212.1370  156.8750 N   0  0  0  0  0  2  0  0  0  0  0  0
  157.4090  212.6310  156.9260 C   0  0  0  0  0  2  0  0  0  0  0  0
  155.9570  211.3330  155.6790 C   0  0  0  0  0  2  0  0  0  0  0  0
  158.2630  211.7340  156.1610 N   0  0  0  0  0  0  0  0  0  0  0  0
  157.3800  211.0600  155.2310 C   0  0  0  0  0  2  0  0  0  0  0  0
  160.8690  207.7900  151.0790 C   0  0  0  0  0  2  0  0  0  0  0  0
  162.6490  205.1690  146.1000 C   0  0  1  0  0  0  0  0  0  0  0  0
  161.1100  203.1300  147.6430 C   0  0  0  0  0  0  0  0  0  0  0  0
  161.3380  206.5730  150.2840 C   0  0  2  0  0  0  0  0  0  0  0  0
  160.2610  206.0460  145.7530 O   0  0  0  0  0  1  0  0  0  0  0  0
  162.8480  206.4710  150.3780 C   0  0  0  0  0  1  0  0  0  0  0  0
  161.0770  202.8610  150.4450 C   0  0  0  0  0  3  0  0  0  0  0  0
  161.3960  205.8580  146.5650 C   0  0  1  0  0  0  0  0  0  0  0  0
  161.0120  204.2960  148.4830 C   0  0  0  0  0  0  0  0  0  0  0  0
  162.0180  204.0320  145.3660 C   0  0  0  0  0  0  0  0  0  0  0  0
  160.9390  204.1250  149.8780 C   0  0  0  0  0  0  0  0  0  0  0  0
  161.1510  205.6560  147.9790 N   0  0  0  0  0  0  0  0  0  0  0  0
  162.3150  203.7900  144.2020 O   0  0  0  0  0  0  0  0  0  0  0  0
  161.2150  201.7390  149.6270 C   0  0  0  0  0  3  0  0  0  0  0  0
  162.4670  206.5770  146.0820 O   0  0  0  0  0  0  0  0  0  0  0  0
  161.2060  201.8730  148.2430 C   0  0  0  0  0  3  0  0  0  0  0  0
  161.0470  203.1100  146.1150 C   0  0  2  0  0  3  0  0  0  0  0  0
  163.6840  204.7900  147.1490 C   0  0  0  0  0  1  0  0  0  0  0  0
  160.9340  206.8240  148.8370 C   0  0  0  0  0  2  0  0  0  0  0  0
  160.6680  205.2900  150.7770 C   0  0  0  0  0  2  0  0  0  0  0  0
  159.7440  203.3030  145.6770 O   0  0  0  0  0  0  0  0  0  0  0  0
  159.4720  202.1920  144.8910 C   0  0  0  0  0  1  0  0  0  0  0  0
  2  3  1  6  0  0  0
  2  1  1  0  0  0  0
  2  4  1  0  0  0  0
  4  9  1  1  0  0  0
  5  4  1  0  0  0  0
  5  6  2  0  0  0  0
  7  8  1  0  0  0  0
  8  5  1  0  0  0  0
  9 10  1  0  0  0  0
 10 11  1  0  0  0  0
 11 12  2  0  0  0  0
 11 14  1  0  0  0  0
 14 13  1  6  0  0  0
 15 14  1  0  0  0  0
 15 19  1  1  0  0  0
 16 18  1  0  0  0  0
 16 17  1  0  0  0  0
 17 15  1  6  0  0  0
 18 17  1  0  0  0  0
 20 21  1  0  0  0  0
 22 20  1  0  0  0  0
 23 21  1  0  0  0  0
 23 19  1  0  0  0  0
 24 22  1  0  0  0  0
 24 23  1  0  0  0  0
 25  1  1  0  0  0  0
 26 32  1  0  0  0  0
 26 42  1  1  0  0  0
 27 40  2  0  0  0  0
 27 33  1  0  0  0  0
 28 30  1  1  0  0  0
 28 44  1  0  0  0  0
 28 25  1  0  0  0  0
 32 29  1  6  0  0  0
 32 36  1  0  0  0  0
 33 35  2  0  0  0  0
 34 26  1  0  0  0  0
 34 41  1  0  0  0  0
 35 31  1  0  0  0  0
 35 44  1  0  0  0  0
 36 33  1  0  0  0  0
 36 43  1  0  0  0  0
 37 34  2  0  0  0  0
 38 31  2  0  0  0  0
 39 26  1  0  0  0  0
 39 32  1  0  0  0  0
 40 38  1  0  0  0  0
 41 45  1  1  0  0  0
 41 27  1  0  0  0  0
 43 28  1  0  0  0  0
 46 45  1  0  0  0  0
M  END
>  <MODEL>
8

>  <REMARK>
 VINA RESULT:      -4.7      2.675      5.753
  Name = 
  14 active torsions:
  status: ('A' for Active; 'I' for Inactive)
    1  A    between atoms: C_2  and  C_29
    2  A    between atoms: C_2  and  C_30
    3  A    between atoms: C_6  and  C_12
    4  A    between atoms: C_6  and  O_31
    5  A    between atoms: N_7  and  C_15
    6  A    between atoms: C_8  and  C_29
    7  A    between atoms: C_11  and  C_35
    8  A    between atoms: C_12  and  C_15
    9  A    between atoms: C_12  and  C_30
   10  A    between atoms: C_17  and  C_21
   11  A    between atoms: C_17  and  N_45
   12  A    between atoms: C_21  and  C_35
   13  A    between atoms: C_21  and  C_41
   14  A    between atoms: O_28  and  C_38
                            x       y       z     vdW  Elec       q    Type
                         _______ _______ _______ _____ _____    ______ ____

>  <TORSDO>
F 14

$$$$
=
 OpenBabel11072413553D

 46 51  0  0  1  0  0  0  0  0999 V2000
  160.3010  213.6210  150.2780 C   0  0  0  0  0  2  0  0  0  0  0  0
  160.4620  213.0050  148.9010 C   0  0  1  0  0  3  0  0  0  0  0  0
  160.1100  214.0510  147.8500 C   0  0  0  0  0  1  0  0  0  0  0  0
  161.9000  212.4980  148.6690 C   0  0  2  0  0  3  0  0  0  0  0  0
  162.6480  213.2320  147.5910 C   0  0  0  0  0  0  0  0  0  0  0  0
  163.2240  214.3660  147.8460 N   0  0  0  0  0  2  0  0  0  0  0  0
  162.4260  213.4640  145.1370 C   0  0  0  0  0  1  0  0  0  0  0  0
  162.6700  212.6900  146.3030 O   0  0  0  0  0  0  0  0  0  0  0  0
  162.0210  210.9870  148.4560 C   0  0  0  0  0  2  0  0  0  0  0  0
  161.8720  210.2460  149.7010 N   0  0  0  0  0  2  0  0  0  0  0  0
  161.9660  208.8260  149.8280 C   0  0  0  0  0  0  0  0  0  0  0  0
  162.1040  208.3420  150.9880 O   0  0  0  0  0  0  0  0  0  0  0  0
  163.1520  207.4590  148.2170 O   0  0  0  0  0  1  0  0  0  0  0  0
  161.8960  207.8730  148.6610 C   0  0  1  0  0  3  0  0  0  0  0  0
  160.9220  206.7030  148.8650 C   0  0  1  0  0  3  0  0  0  0  0  0
  161.3500  205.4820  146.8190 N   0  0  0  0  0  2  0  0  0  0  0  0
  160.3600  206.2550  147.5170 C   0  0  2  0  0  3  0  0  0  0  0  0
  161.0730  206.7980  146.5000 O   0  0  0  0  0  0  0  0  0  0  0  0
  161.5000  205.5180  149.6500 C   0  0  0  0  0  2  0  0  0  0  0  0
  161.7570  203.5650  152.0030 N   0  0  0  0  0  2  0  0  0  0  0  0
  161.0070  204.8060  151.8320 C   0  0  0  0  0  2  0  0  0  0  0  0
  161.2340  202.6560  151.0120 C   0  0  0  0  0  2  0  0  0  0  0  0
  160.4860  204.8600  150.4730 N   0  0  0  0  0  0  0  0  0  0  0  0
  160.4360  203.4840  150.0230 C   0  0  0  0  0  2  0  0  0  0  0  0
  158.9820  213.1900  150.8680 C   0  0  0  0  0  2  0  0  0  0  0  0
  161.6260  210.7460  155.5440 C   0  0  1  0  0  0  0  0  0  0  0  0
  158.6870  210.4190  155.9490 C   0  0  0  0  0  0  0  0  0  0  0  0
  159.0450  212.8290  152.3500 C   0  0  2  0  0  0  0  0  0  0  0  0
  161.1360  208.9030  153.8270 O   0  0  0  0  0  1  0  0  0  0  0  0
  159.6920  213.9690  153.1120 C   0  0  0  0  0  1  0  0  0  0  0  0
  156.7020  212.2650  155.1900 C   0  0  0  0  0  3  0  0  0  0  0  0
  161.0790  210.2490  154.2350 C   0  0  1  0  0  0  0  0  0  0  0  0
  158.7550  211.0720  154.6660 C   0  0  0  0  0  0  0  0  0  0  0  0
  161.1360  209.6440  156.4230 C   0  0  0  0  0  0  0  0  0  0  0  0
  157.7160  211.9450  154.2920 C   0  0  0  0  0  0  0  0  0  0  0  0
  159.9230  211.0070  153.7980 N   0  0  0  0  0  0  0  0  0  0  0  0
  161.9040  209.0360  157.1590 O   0  0  0  0  0  0  0  0  0  0  0  0
  156.6650  211.6610  156.4480 C   0  0  0  0  0  3  0  0  0  0  0  0
  162.3440  210.7880  154.3200 O   0  0  0  0  0  0  0  0  0  0  0  0
  157.6340  210.7320  156.8100 C   0  0  0  0  0  3  0  0  0  0  0  0
  159.6350  209.3320  156.4590 C   0  0  2  0  0  3  0  0  0  0  0  0
  161.2570  212.1570  155.9790 C   0  0  0  0  0  1  0  0  0  0  0  0
  159.9200  211.5860  152.4530 C   0  0  0  0  0  2  0  0  0  0  0  0
  157.6570  212.5130  152.9090 C   0  0  0  0  0  2  0  0  0  0  0  0
  159.3660  208.1190  155.8400 O   0  0  0  0  0  0  0  0  0  0  0  0
  159.6910  207.1620  156.7900 C   0  0  0  0  0  1  0  0  0  0  0  0
  1 25  1  0  0  0  0
  2  3  1  6  0  0  0
  2  1  1  0  0  0  0
  4  9  1  6  0  0  0
  4  2  1  0  0  0  0
  5  6  2  0  0  0  0
  5  4  1  0  0  0  0
  7  8  1  0  0  0  0
  8  5  1  0  0  0  0
  9 10  1  0  0  0  0
 10 11  1  0  0  0  0
 11 12  2  0  0  0  0
 14 13  1  1  0  0  0
 14 15  1  0  0  0  0
 14 11  1  0  0  0  0
 15 19  1  6  0  0  0
 16 17  1  0  0  0  0
 17 15  1  1  0  0  0
 18 16  1  0  0  0  0
 18 17  1  0  0  0  0
 19 23  1  0  0  0  0
 21 20  1  0  0  0  0
 22 20  1  0  0  0  0
 23 21  1  0  0  0  0
 24 23  1  0  0  0  0
 24 22  1  0  0  0  0
 25 28  1  0  0  0  0
 26 42  1  1  0  0  0
 26 34  1  0  0  0  0
 27 41  1  0  0  0  0
 27 40  1  0  0  0  0
 28 43  1  0  0  0  0
 28 44  1  0  0  0  0
 28 30  1  1  0  0  0
 31 38  1  0  0  0  0
 32 29  1  6  0  0  0
 32 39  1  0  0  0  0
 32 26  1  0  0  0  0
 33 27  2  0  0  0  0
 34 41  1  0  0  0  0
 34 37  2  0  0  0  0
 35 33  1  0  0  0  0
 35 31  2  0  0  0  0
 36 32  1  0  0  0  0
 36 33  1  0  0  0  0
 38 40  2  0  0  0  0
 39 26  1  0  0  0  0
 41 45  1  6  0  0  0
 43 36  1  0  0  0  0
 44 35  1  0  0  0  0
 45 46  1  0  0  0  0
M  END
>  <MODEL>
9

>  <REMARK>
 VINA RESULT:      -4.6      2.468      9.402
  Name = 
  14 active torsions:
  status: ('A' for Active; 'I' for Inactive)
    1  A    between atoms: C_2  and  C_29
    2  A    between atoms: C_2  and  C_30
    3  A    between atoms: C_6  and  C_12
    4  A    between atoms: C_6  and  O_31
    5  A    between atoms: N_7  and  C_15
    6  A    between atoms: C_8  and  C_29
    7  A    between atoms: C_11  and  C_35
    8  A    between atoms: C_12  and  C_15
    9  A    between atoms: C_12  and  C_30
   10  A    between atoms: C_17  and  C_21
   11  A    between atoms: C_17  and  N_45
   12  A    between atoms: C_21  and  C_35
   13  A    between atoms: C_21  and  C_41
   14  A    between atoms: O_28  and  C_38
                            x       y       z     vdW  Elec       q    Type
                         _______ _______ _______ _____ _____    ______ ____

>  <TORSDO>
F 14

$$$$
