=
 OpenBabel11072409503D

 49 55  0  0  1  0  0  0  0  0999 V2000
  163.2850  214.4530  146.9130 N   0  0  0  0  0  0  0  0  0  0  0  0
  162.6680  213.1900  148.6270 C   0  0  0  0  0  3  0  0  0  0  0  0
  163.3570  214.3550  148.1790 N   0  0  0  0  0  0  0  0  0  0  0  0
  161.3530  213.4460  144.0980 C   0  0  0  0  0  3  0  0  0  0  0  0
  162.1560  212.5590  147.5780 C   0  0  0  0  0  0  0  0  0  0  0  0
  162.5590  213.3420  146.4140 C   0  0  0  0  0  0  0  0  0  0  0  0
  161.9540  213.3700  145.2560 C   0  0  0  0  0  0  0  0  0  0  0  0
  159.9110  212.0280  141.2520 C   0  0  2  0  0  3  0  0  0  0  0  0
  158.9440  213.0410  141.8260 C   0  0  0  0  0  2  0  0  0  0  0  0
  160.4660  212.3530  143.5980 C   0  0  1  0  0  3  0  0  0  0  0  0
  159.0580  212.8770  143.3220 C   0  0  0  0  0  2  0  0  0  0  0  0
  161.0150  211.8380  142.2770 C   0  0  0  0  0  2  0  0  0  0  0  0
  160.4300  212.3370  139.8180 C   0  0  2  0  0  3  0  0  0  0  0  0
  160.8720  210.3690  138.4880 C   0  0  1  0  0  3  0  0  0  0  0  0
  158.0380  212.4670  139.1270 C   0  0  0  0  0  2  0  0  0  0  0  0
  162.2290  210.8330  140.4710 O   0  0  0  0  0  1  0  0  0  0  0  0
  159.5770  211.0580  138.0150 C   0  0  1  0  0  3  0  0  0  0  0  0
  158.2910  210.2740  138.2070 C   0  0  0  0  0  2  0  0  0  0  0  0
  159.4390  212.3350  138.7170 N   0  0  2  0  0  0  0  0  0  0  0  0
  157.2550  211.3270  138.5030 C   0  0  0  0  0  2  0  0  0  0  0  0
  161.5630  211.4080  139.3780 C   0  0  2  0  0  0  0  0  0  0  0  0
  160.6640  209.0130  139.1750 C   0  0  1  0  0  3  0  0  0  0  0  0
  160.5970  207.9990  138.2030 O   0  0  0  0  0  0  0  0  0  0  0  0
  161.9000  207.0560  139.9580 C   0  0  0  0  0  1  0  0  0  0  0  0
  161.8140  208.1290  138.8950 C   0  0  2  0  0  3  0  0  0  0  0  0
  163.9970  211.9740  138.9830 C   0  0  0  0  0  1  0  0  0  0  0  0
  162.5600  212.2220  138.5510 C   0  0  0  0  0  2  0  0  0  0  0  0
  160.2300  211.2330  147.2190 O   0  0  0  0  0  0  0  0  0  0  0  0
  161.4170  211.2850  147.6370 C   0  0  0  0  0  0  0  0  0  0  0  0
  162.0140  210.0620  148.2500 C   0  0  0  0  0  2  0  0  0  0  0  0
  161.3760  209.7690  149.6000 C   0  0  1  0  0  3  0  0  0  0  0  0
  162.1860  208.6970  150.3140 C   0  0  1  0  0  3  0  0  0  0  0  0
  162.3260  210.1540  150.7080 C   0  0  0  0  0  2  0  0  0  0  0  0
  161.3460  207.9580  151.3580 C   0  0  1  0  0  3  0  0  0  0  0  0
  160.2440  206.7590  148.9930 O   0  0  0  0  0  0  0  0  0  0  0  0
  161.5770  205.6320  152.0730 N   0  0  0  0  0  0  0  0  0  0  0  0
  160.5730  204.4710  149.6270 C   0  0  2  0  0  3  0  0  0  0  0  0
  160.6640  205.9580  149.8730 C   0  0  0  0  0  0  0  0  0  0  0  0
  161.4850  204.2080  151.9270 C   0  0  0  0  0  3  0  0  0  0  0  0
  161.2230  206.4690  151.1410 C   0  0  0  0  0  0  0  0  0  0  0  0
  161.0280  203.6500  150.8050 C   0  0  0  0  0  3  0  0  0  0  0  0
  161.5330  204.9790  147.3260 N   0  0  0  0  0  1  0  0  0  0  0  0
  161.7860  202.8910  148.3170 O   0  0  0  0  0  0  0  0  0  0  0  0
  161.3070  204.0540  148.3920 C   0  0  0  0  0  0  0  0  0  0  0  0
  161.8310  208.2460  152.7070 N   0  0  0  0  0  2  0  0  0  0  0  0
  159.7840  208.9500  153.5910 O   0  0  0  0  0  0  0  0  0  0  0  0
  161.0250  208.7950  153.7540 C   0  0  0  0  0  0  0  0  0  0  0  0
  160.8880  209.7470  156.0840 C   0  0  0  0  0  1  0  0  0  0  0  0
  161.6400  209.1470  154.9940 N   0  0  0  0  0  2  0  0  0  0  0  0
  1  3  2  0  0  0  0
  3  2  1  0  0  0  0
  4  7  2  0  0  0  0
  5 29  1  0  0  0  0
  5  2  2  0  0  0  0
  6  1  1  0  0  0  0
  6  5  1  0  0  0  0
  7  6  2  0  0  0  0
  8  9  1  1  0  0  0
  8 12  1  0  0  0  0
  9 11  1  0  0  0  0
 10  4  1  6  0  0  0
 11 10  1  0  0  0  0
 12 10  1  0  0  0  0
 13  8  1  1  0  0  0
 14 22  1  1  0  0  0
 14 21  1  0  0  0  0
 17 18  1  1  0  0  0
 17 14  1  0  0  0  0
 17 19  1  0  0  0  0
 18 20  1  0  0  0  0
 19 15  1  1  0  0  0
 19 13  1  0  0  0  0
 20 15  1  0  0  0  0
 21 13  1  0  0  0  0
 21 16  1  1  0  0  0
 22 23  1  6  0  0  0
 23 25  1  0  0  0  0
 25 22  1  0  0  0  0
 25 24  1  1  0  0  0
 27 26  1  0  0  0  0
 27 21  1  0  0  0  0
 28 29  2  0  0  0  0
 29 30  1  0  0  0  0
 31 30  1  6  0  0  0
 31 32  1  0  0  0  0
 31 33  1  0  0  0  0
 32 33  1  0  0  0  0
 32 34  1  1  0  0  0
 34 45  1  1  0  0  0
 35 38  2  0  0  0  0
 37 44  1  6  0  0  0
 37 38  1  0  0  0  0
 37 41  1  0  0  0  0
 38 40  1  0  0  0  0
 39 36  1  0  0  0  0
 40 34  1  0  0  0  0
 40 36  2  0  0  0  0
 41 39  2  0  0  0  0
 42 44  1  0  0  0  0
 43 44  2  0  0  0  0
 45 47  1  0  0  0  0
 46 47  2  0  0  0  0
 47 49  1  0  0  0  0
 49 48  1  0  0  0  0
M  END
>  <MODEL>
1

>  <REMARK>
 VINA RESULT:      -6.3      0.000      0.000
  Name = 
  11 active torsions:
  status: ('A' for Active; 'I' for Inactive)
    1  A    between atoms: C_1  and  C_5
    2  A    between atoms: C_2  and  C_10
    3  A    between atoms: C_7  and  C_19
    4  A    between atoms: N_12  and  C_31
    5  A    between atoms: C_17  and  C_28
    6  A    between atoms: C_19  and  C_30
    7  A    between atoms: C_29  and  C_31
    8  A    between atoms: C_30  and  C_37
    9  A    between atoms: C_31  and  C_46
   10  A    between atoms: C_33  and  C_38
   11  A    between atoms: C_34  and  C_49
                            x       y       z     vdW  Elec       q    Type
                         _______ _______ _______ _____ _____    ______ ____

>  <TORSDO>
F 11

$$$$
=
 OpenBabel11072409503D

 49 55  0  0  1  0  0  0  0  0999 V2000
  159.4930  214.4530  148.3940 N   0  0  0  0  0  0  0  0  0  0  0  0
  160.4860  213.0850  149.8280 C   0  0  0  0  0  3  0  0  0  0  0  0
  159.4830  214.0750  149.6080 N   0  0  0  0  0  0  0  0  0  0  0  0
  160.4540  213.4430  145.1190 C   0  0  0  0  0  3  0  0  0  0  0  0
  161.1260  212.8560  148.6890 C   0  0  0  0  0  0  0  0  0  0  0  0
  160.5230  213.7580  147.7120 C   0  0  0  0  0  0  0  0  0  0  0  0
  160.5120  213.5940  146.4160 C   0  0  0  0  0  0  0  0  0  0  0  0
  161.9070  212.8360  142.0030 C   0  0  2  0  0  3  0  0  0  0  0  0
  160.7070  211.9260  142.1580 C   0  0  0  0  0  2  0  0  0  0  0  0
  161.4420  212.6020  144.3790 C   0  0  1  0  0  3  0  0  0  0  0  0
  160.7400  211.4900  143.6030 C   0  0  0  0  0  2  0  0  0  0  0  0
  162.1610  213.4700  143.3590 C   0  0  0  0  0  2  0  0  0  0  0  0
  161.8220  213.8590  140.8350 C   0  0  2  0  0  3  0  0  0  0  0  0
  161.0830  212.9050  138.7420 C   0  0  1  0  0  3  0  0  0  0  0  0
  159.5070  214.3550  141.6160 C   0  0  0  0  0  2  0  0  0  0  0  0
  163.2290  212.2280  139.7030 O   0  0  0  0  0  1  0  0  0  0  0  0
  159.9590  213.7480  139.3760 C   0  0  1  0  0  3  0  0  0  0  0  0
  158.7180  212.9910  139.8160 C   0  0  0  0  0  2  0  0  0  0  0  0
  160.4980  214.4530  140.5390 N   0  0  2  0  0  0  0  0  0  0  0  0
  158.2490  213.7310  141.0420 C   0  0  0  0  0  2  0  0  0  0  0  0
  162.3470  213.3020  139.5100 C   0  0  2  0  0  0  0  0  0  0  0  0
  160.8210  211.3920  138.7310 C   0  0  1  0  0  3  0  0  0  0  0  0
  159.7370  211.1100  137.8810 O   0  0  0  0  0  0  0  0  0  0  0  0
  161.3080  209.3770  137.4360 C   0  0  0  0  0  1  0  0  0  0  0  0
  161.0220  210.8610  137.3670 C   0  0  2  0  0  3  0  0  0  0  0  0
  162.9070  214.3200  137.2620 C   0  0  0  0  0  1  0  0  0  0  0  0
  163.0760  214.4250  138.7700 C   0  0  0  0  0  2  0  0  0  0  0  0
  163.1060  212.1320  147.6160 O   0  0  0  0  0  0  0  0  0  0  0  0
  162.2640  211.9330  148.5310 C   0  0  0  0  0  0  0  0  0  0  0  0
  162.4080  210.7160  149.3830 C   0  0  0  0  0  2  0  0  0  0  0  0
  162.4560  209.4590  148.5270 C   0  0  1  0  0  3  0  0  0  0  0  0
  161.3620  208.5040  148.9790 C   0  0  1  0  0  3  0  0  0  0  0  0
  161.1820  209.3380  147.7260 C   0  0  0  0  0  2  0  0  0  0  0  0
  161.6830  207.0580  148.5940 C   0  0  1  0  0  3  0  0  0  0  0  0
  162.8020  207.3650  151.2210 O   0  0  0  0  0  0  0  0  0  0  0  0
  160.8880  204.9320  149.5030 N   0  0  0  0  0  0  0  0  0  0  0  0
  161.9300  205.3410  152.1640 C   0  0  2  0  0  3  0  0  0  0  0  0
  162.1190  206.3210  151.0320 C   0  0  0  0  0  0  0  0  0  0  0  0
  160.7030  203.9360  150.5190 C   0  0  0  0  0  3  0  0  0  0  0  0
  161.5220  206.0500  149.7070 C   0  0  0  0  0  0  0  0  0  0  0  0
  161.1720  204.1060  151.7550 C   0  0  0  0  0  3  0  0  0  0  0  0
  160.8900  207.3440  153.3400 N   0  0  0  0  0  1  0  0  0  0  0  0
  161.0370  205.2660  154.3740 O   0  0  0  0  0  0  0  0  0  0  0  0
  161.2880  205.9710  153.3590 C   0  0  0  0  0  0  0  0  0  0  0  0
  160.9140  206.6550  147.4180 N   0  0  0  0  0  2  0  0  0  0  0  0
  162.6930  205.6970  146.2410 O   0  0  0  0  0  0  0  0  0  0  0  0
  161.4800  206.0410  146.2560 C   0  0  0  0  0  0  0  0  0  0  0  0
  161.1680  205.2220  143.8920 C   0  0  0  0  0  1  0  0  0  0  0  0
  160.6490  205.8040  145.1190 N   0  0  0  0  0  2  0  0  0  0  0  0
  1  3  2  0  0  0  0
  3  2  1  0  0  0  0
  4  7  2  0  0  0  0
  5  2  2  0  0  0  0
  6  1  1  0  0  0  0
  6  5  1  0  0  0  0
  7  6  2  0  0  0  0
  8  9  1  1  0  0  0
  8 12  1  0  0  0  0
  9 11  1  0  0  0  0
 10  4  1  6  0  0  0
 11 10  1  0  0  0  0
 12 10  1  0  0  0  0
 13  8  1  1  0  0  0
 14 22  1  1  0  0  0
 14 17  1  0  0  0  0
 14 21  1  0  0  0  0
 17 18  1  1  0  0  0
 17 19  1  0  0  0  0
 18 20  1  0  0  0  0
 19 13  1  0  0  0  0
 19 15  1  1  0  0  0
 20 15  1  0  0  0  0
 21 16  1  1  0  0  0
 21 13  1  0  0  0  0
 22 23  1  6  0  0  0
 25 24  1  1  0  0  0
 25 23  1  0  0  0  0
 25 22  1  0  0  0  0
 26 27  1  0  0  0  0
 27 21  1  0  0  0  0
 28 29  2  0  0  0  0
 29  5  1  0  0  0  0
 29 30  1  0  0  0  0
 31 32  1  0  0  0  0
 31 30  1  1  0  0  0
 32 34  1  6  0  0  0
 33 31  1  0  0  0  0
 33 32  1  0  0  0  0
 34 45  1  6  0  0  0
 34 40  1  0  0  0  0
 36 40  2  0  0  0  0
 36 39  1  0  0  0  0
 37 44  1  1  0  0  0
 38 35  2  0  0  0  0
 38 37  1  0  0  0  0
 39 41  2  0  0  0  0
 40 38  1  0  0  0  0
 41 37  1  0  0  0  0
 42 44  1  0  0  0  0
 44 43  2  0  0  0  0
 46 47  2  0  0  0  0
 47 45  1  0  0  0  0
 48 49  1  0  0  0  0
 49 47  1  0  0  0  0
M  END
>  <MODEL>
2

>  <REMARK>
 VINA RESULT:      -5.9      2.208      4.135
  Name = 
  11 active torsions:
  status: ('A' for Active; 'I' for Inactive)
    1  A    between atoms: C_1  and  C_5
    2  A    between atoms: C_2  and  C_10
    3  A    between atoms: C_7  and  C_19
    4  A    between atoms: N_12  and  C_31
    5  A    between atoms: C_17  and  C_28
    6  A    between atoms: C_19  and  C_30
    7  A    between atoms: C_29  and  C_31
    8  A    between atoms: C_30  and  C_37
    9  A    between atoms: C_31  and  C_46
   10  A    between atoms: C_33  and  C_38
   11  A    between atoms: C_34  and  C_49
                            x       y       z     vdW  Elec       q    Type
                         _______ _______ _______ _____ _____    ______ ____

>  <TORSDO>
F 11

$$$$
=
 OpenBabel11072409503D

 49 55  0  0  1  0  0  0  0  0999 V2000
  161.9680  208.8200  150.6440 N   0  0  0  0  0  2  0  0  0  0  0  0
  162.7130  206.7650  151.0190 C   0  0  0  0  0  3  0  0  0  0  0  0
  162.7850  207.9430  150.2170 N   0  0  0  0  0  0  0  0  0  0  0  0
  160.1620  209.8410  153.5360 C   0  0  0  0  0  3  0  0  0  0  0  0
  161.8100  206.9460  151.9740 C   0  0  1  0  0  3  0  0  0  0  0  0
  161.2670  208.2830  151.7530 C   0  0  0  0  0  0  0  0  0  0  0  0
  160.7020  209.0430  152.6530 C   0  0  0  0  0  0  0  0  0  0  0  0
  158.9500  210.7220  156.6900 C   0  0  2  0  0  3  0  0  0  0  0  0
  160.4060  210.3310  156.8270 C   0  0  0  0  0  2  0  0  0  0  0  0
  159.5370  209.3220  154.7890 C   0  0  1  0  0  3  0  0  0  0  0  0
  160.5790  209.1580  155.8930 C   0  0  0  0  0  2  0  0  0  0  0  0
  158.5170  210.3340  155.2870 C   0  0  0  0  0  2  0  0  0  0  0  0
  158.6150  212.1930  157.0680 C   0  0  2  0  0  3  0  0  0  0  0  0
  158.2000  213.6270  155.1690 C   0  0  1  0  0  3  0  0  0  0  0  0
  156.2370  211.4640  157.2450 C   0  0  0  0  0  2  0  0  0  0  0  0
  160.4310  212.6870  155.5250 O   0  0  0  0  0  1  0  0  0  0  0  0
  156.8780  213.2900  155.8870 C   0  0  1  0  0  3  0  0  0  0  0  0
  155.8790  212.4600  155.1000 C   0  0  0  0  0  2  0  0  0  0  0  0
  157.1850  212.5760  157.1270 N   0  0  2  0  0  0  0  0  0  0  0  0
  155.2060  211.6060  156.1420 C   0  0  0  0  0  2  0  0  0  0  0  0
  159.2960  213.2160  156.1570 C   0  0  2  0  0  0  0  0  0  0  0  0
  158.3560  212.9920  153.7800 C   0  0  1  0  0  3  0  0  0  0  0  0
  157.4520  213.5920  152.8860 O   0  0  0  0  0  0  0  0  0  0  0  0
  159.4580  213.3470  151.6280 C   0  0  0  0  0  1  0  0  0  0  0  0
  158.7900  214.0170  152.8090 C   0  0  2  0  0  3  0  0  0  0  0  0
  161.2080  214.4530  157.2610 C   0  0  0  0  0  1  0  0  0  0  0  0
  159.7090  214.4190  157.0080 C   0  0  0  0  0  2  0  0  0  0  0  0
  160.9170  206.2930  154.0650 O   0  0  0  0  0  0  0  0  0  0  0  0
  161.4180  205.9310  152.9680 C   0  0  0  0  0  0  0  0  0  0  0  0
  161.6670  204.4760  152.7410 C   0  0  0  0  0  2  0  0  0  0  0  0
  160.7880  203.9470  151.6180 C   0  0  1  0  0  3  0  0  0  0  0  0
  161.6410  203.1370  150.6540 C   0  0  1  0  0  3  0  0  0  0  0  0
  160.7530  202.4380  151.6650 C   0  0  0  0  0  2  0  0  0  0  0  0
  161.0010  203.0590  149.2650 C   0  0  1  0  0  3  0  0  0  0  0  0
  162.7500  203.4030  147.0130 O   0  0  0  0  0  0  0  0  0  0  0  0
  160.3950  205.3750  148.7720 N   0  0  0  0  0  0  0  0  0  0  0  0
  162.0800  205.6330  146.4430 C   0  0  2  0  0  3  0  0  0  0  0  0
  162.0100  204.3860  147.2910 C   0  0  0  0  0  0  0  0  0  0  0  0
  160.4380  206.6070  148.0370 C   0  0  0  0  0  3  0  0  0  0  0  0
  161.0930  204.3260  148.4490 C   0  0  0  0  0  0  0  0  0  0  0  0
  161.2060  206.7460  146.9560 C   0  0  0  0  0  3  0  0  0  0  0  0
  160.5300  204.7730  144.6160 N   0  0  0  0  0  1  0  0  0  0  0  0
  162.6030  205.7030  144.1170 O   0  0  0  0  0  0  0  0  0  0  0  0
  161.7760  205.3580  145.0040 C   0  0  0  0  0  0  0  0  0  0  0  0
  161.5330  201.9220  148.5160 N   0  0  0  0  0  2  0  0  0  0  0  0
  159.8610  201.8630  146.8820 O   0  0  0  0  0  0  0  0  0  0  0  0
  160.8920  201.3330  147.3800 C   0  0  0  0  0  0  0  0  0  0  0  0
  160.8210  199.4760  145.6770 C   0  0  0  0  0  1  0  0  0  0  0  0
  161.4440  200.1490  146.8050 N   0  0  0  0  0  2  0  0  0  0  0  0
  1  6  1  0  0  0  0
  2  5  1  0  0  0  0
  3  1  1  0  0  0  0
  3  2  2  0  0  0  0
  5 29  1  6  0  0  0
  6  5  1  0  0  0  0
  6  7  2  0  0  0  0
  7  4  2  0  0  0  0
  8 12  1  6  0  0  0
  8  9  1  0  0  0  0
 10  4  1  6  0  0  0
 10 12  1  0  0  0  0
 10 11  1  0  0  0  0
 11  9  1  0  0  0  0
 13  8  1  6  0  0  0
 13 19  1  0  0  0  0
 14 22  1  6  0  0  0
 14 17  1  0  0  0  0
 14 21  1  0  0  0  0
 17 18  1  6  0  0  0
 17 19  1  0  0  0  0
 18 20  1  0  0  0  0
 19 15  1  6  0  0  0
 20 15  1  0  0  0  0
 21 16  1  6  0  0  0
 21 27  1  0  0  0  0
 21 13  1  0  0  0  0
 22 23  1  6  0  0  0
 25 24  1  6  0  0  0
 25 23  1  0  0  0  0
 25 22  1  0  0  0  0
 27 26  1  0  0  0  0
 29 28  2  0  0  0  0
 30 29  1  0  0  0  0
 31 33  1  0  0  0  0
 31 30  1  1  0  0  0
 32 34  1  6  0  0  0
 32 31  1  0  0  0  0
 32 33  1  0  0  0  0
 34 45  1  6  0  0  0
 35 38  2  0  0  0  0
 37 44  1  6  0  0  0
 37 41  1  0  0  0  0
 37 38  1  0  0  0  0
 38 40  1  0  0  0  0
 39 36  1  0  0  0  0
 40 36  2  0  0  0  0
 40 34  1  0  0  0  0
 41 39  2  0  0  0  0
 42 44  1  0  0  0  0
 43 44  2  0  0  0  0
 46 47  2  0  0  0  0
 47 45  1  0  0  0  0
 48 49  1  0  0  0  0
 49 47  1  0  0  0  0
M  END
>  <MODEL>
3

>  <REMARK>
 VINA RESULT:      -5.6      6.020     11.830
  Name = 
  11 active torsions:
  status: ('A' for Active; 'I' for Inactive)
    1  A    between atoms: C_1  and  C_5
    2  A    between atoms: C_2  and  C_10
    3  A    between atoms: C_7  and  C_19
    4  A    between atoms: N_12  and  C_31
    5  A    between atoms: C_17  and  C_28
    6  A    between atoms: C_19  and  C_30
    7  A    between atoms: C_29  and  C_31
    8  A    between atoms: C_30  and  C_37
    9  A    between atoms: C_31  and  C_46
   10  A    between atoms: C_33  and  C_38
   11  A    between atoms: C_34  and  C_49
                            x       y       z     vdW  Elec       q    Type
                         _______ _______ _______ _____ _____    ______ ____

>  <TORSDO>
F 11

$$$$
=
 OpenBabel11072409503D

 49 55  0  0  1  0  0  0  0  0999 V2000
  159.0090  214.4310  148.2170 N   0  0  0  0  0  0  0  0  0  0  0  0
  159.9180  213.0280  149.6740 C   0  0  0  0  0  3  0  0  0  0  0  0
  158.9930  214.0890  149.4420 N   0  0  0  0  0  0  0  0  0  0  0  0
  159.8230  213.2580  144.9570 C   0  0  0  0  0  3  0  0  0  0  0  0
  160.5160  212.7180  148.5300 C   0  0  0  0  0  0  0  0  0  0  0  0
  159.9680  213.6380  147.5380 C   0  0  0  0  0  0  0  0  0  0  0  0
  159.9180  213.4400  146.2480 C   0  0  0  0  0  0  0  0  0  0  0  0
  161.4150  212.6340  141.9130 C   0  0  2  0  0  3  0  0  0  0  0  0
  160.0800  211.9200  141.9120 C   0  0  0  0  0  2  0  0  0  0  0  0
  160.7270  212.3210  144.2250 C   0  0  1  0  0  3  0  0  0  0  0  0
  159.9270  211.3890  143.3170 C   0  0  0  0  0  2  0  0  0  0  0  0
  161.6520  213.1280  143.3290 C   0  0  0  0  0  2  0  0  0  0  0  0
  161.5850  213.7340  140.8260 C   0  0  2  0  0  3  0  0  0  0  0  0
  161.1090  212.9790  138.5810 C   0  0  1  0  0  3  0  0  0  0  0  0
  159.2190  214.3700  141.2900 C   0  0  0  0  0  2  0  0  0  0  0  0
  163.0280  212.0660  139.7950 O   0  0  0  0  0  1  0  0  0  0  0  0
  159.9650  213.8710  139.1020 C   0  0  1  0  0  3  0  0  0  0  0  0
  158.6200  213.1930  139.2950 C   0  0  0  0  0  2  0  0  0  0  0  0
  160.3690  214.4530  140.3830 N   0  0  2  0  0  0  0  0  0  0  0  0
  158.0230  213.8890  140.4900 C   0  0  0  0  0  2  0  0  0  0  0  0
  162.2660  213.2200  139.5560 C   0  0  2  0  0  0  0  0  0  0  0  0
  160.7430  211.4970  138.4170 C   0  0  1  0  0  3  0  0  0  0  0  0
  159.9370  211.3370  137.2760 O   0  0  0  0  0  0  0  0  0  0  0  0
  161.4270  209.4810  137.2160 C   0  0  0  0  0  1  0  0  0  0  0  0
  161.2920  210.9860  137.1430 C   0  0  2  0  0  3  0  0  0  0  0  0
  164.6390  214.0800  139.3700 C   0  0  0  0  0  1  0  0  0  0  0  0
  163.1790  214.3240  139.0180 C   0  0  0  0  0  2  0  0  0  0  0  0
  161.6900  211.0810  147.2900 O   0  0  0  0  0  0  0  0  0  0  0  0
  161.5740  211.7020  148.3790 C   0  0  0  0  0  0  0  0  0  0  0  0
  162.4710  211.3320  149.5140 C   0  0  0  0  0  2  0  0  0  0  0  0
  161.7000  210.5850  150.5910 C   0  0  1  0  0  3  0  0  0  0  0  0
  162.3330  209.2180  150.8020 C   0  0  1  0  0  3  0  0  0  0  0  0
  162.5930  210.3430  151.7840 C   0  0  0  0  0  2  0  0  0  0  0  0
  161.3380  208.2240  151.4070 C   0  0  1  0  0  3  0  0  0  0  0  0
  161.0860  208.1250  148.5480 O   0  0  0  0  0  0  0  0  0  0  0  0
  161.0300  205.8070  151.2230 N   0  0  0  0  0  0  0  0  0  0  0  0
  160.9020  205.7440  148.3390 C   0  0  2  0  0  3  0  0  0  0  0  0
  161.0540  207.0130  149.1430 C   0  0  0  0  0  0  0  0  0  0  0  0
  160.8450  204.5650  150.5280 C   0  0  0  0  0  3  0  0  0  0  0  0
  161.1460  206.9520  150.6170 C   0  0  0  0  0  0  0  0  0  0  0  0
  160.7870  204.5130  149.1970 C   0  0  0  0  0  3  0  0  0  0  0  0
  162.5450  204.2840  147.0570 N   0  0  0  0  0  1  0  0  0  0  0  0
  162.3990  206.5740  146.6790 O   0  0  0  0  0  0  0  0  0  0  0  0
  161.9970  205.5750  147.3340 C   0  0  0  0  0  0  0  0  0  0  0  0
  161.6910  207.9230  152.7930 N   0  0  0  0  0  2  0  0  0  0  0  0
  159.8000  208.8880  153.7740 O   0  0  0  0  0  0  0  0  0  0  0  0
  160.9210  208.3310  153.9290 C   0  0  0  0  0  0  0  0  0  0  0  0
  160.7200  208.5100  156.4350 C   0  0  0  0  0  1  0  0  0  0  0  0
  161.4290  208.0840  155.2400 N   0  0  0  0  0  2  0  0  0  0  0  0
  1  3  2  0  0  0  0
  3  2  1  0  0  0  0
  4  7  2  0  0  0  0
  5  2  2  0  0  0  0
  6  1  1  0  0  0  0
  6  5  1  0  0  0  0
  7  6  2  0  0  0  0
  8  9  1  1  0  0  0
  8 12  1  0  0  0  0
  9 11  1  0  0  0  0
 10  4  1  6  0  0  0
 11 10  1  0  0  0  0
 12 10  1  0  0  0  0
 13  8  1  1  0  0  0
 14 22  1  1  0  0  0
 14 17  1  0  0  0  0
 14 21  1  0  0  0  0
 17 18  1  1  0  0  0
 17 19  1  0  0  0  0
 18 20  1  0  0  0  0
 19 13  1  0  0  0  0
 19 15  1  1  0  0  0
 20 15  1  0  0  0  0
 21 16  1  1  0  0  0
 21 13  1  0  0  0  0
 22 23  1  6  0  0  0
 25 24  1  1  0  0  0
 25 23  1  0  0  0  0
 25 22  1  0  0  0  0
 27 26  1  0  0  0  0
 27 21  1  0  0  0  0
 28 29  2  0  0  0  0
 29  5  1  0  0  0  0
 29 30  1  0  0  0  0
 31 30  1  6  0  0  0
 31 32  1  0  0  0  0
 31 33  1  0  0  0  0
 32 34  1  1  0  0  0
 32 33  1  0  0  0  0
 34 45  1  1  0  0  0
 35 38  2  0  0  0  0
 37 44  1  6  0  0  0
 37 38  1  0  0  0  0
 37 41  1  0  0  0  0
 38 40  1  0  0  0  0
 39 36  1  0  0  0  0
 40 36  2  0  0  0  0
 40 34  1  0  0  0  0
 41 39  2  0  0  0  0
 42 44  1  0  0  0  0
 43 44  2  0  0  0  0
 45 47  1  0  0  0  0
 46 47  2  0  0  0  0
 47 49  1  0  0  0  0
 49 48  1  0  0  0  0
M  END
>  <MODEL>
4

>  <REMARK>
 VINA RESULT:      -5.5      1.908      2.269
  Name = 
  11 active torsions:
  status: ('A' for Active; 'I' for Inactive)
    1  A    between atoms: C_1  and  C_5
    2  A    between atoms: C_2  and  C_10
    3  A    between atoms: C_7  and  C_19
    4  A    between atoms: N_12  and  C_31
    5  A    between atoms: C_17  and  C_28
    6  A    between atoms: C_19  and  C_30
    7  A    between atoms: C_29  and  C_31
    8  A    between atoms: C_30  and  C_37
    9  A    between atoms: C_31  and  C_46
   10  A    between atoms: C_33  and  C_38
   11  A    between atoms: C_34  and  C_49
                            x       y       z     vdW  Elec       q    Type
                         _______ _______ _______ _____ _____    ______ ____

>  <TORSDO>
F 11

$$$$
=
 OpenBabel11072409503D

 49 55  0  0  1  0  0  0  0  0999 V2000
  163.4160  214.4530  147.0680 N   0  0  0  0  0  0  0  0  0  0  0  0
  162.6750  213.2710  148.7920 C   0  0  0  0  0  3  0  0  0  0  0  0
  163.3990  214.4140  148.3390 N   0  0  0  0  0  0  0  0  0  0  0  0
  161.6790  213.3190  144.1750 C   0  0  0  0  0  3  0  0  0  0  0  0
  162.2350  212.5930  147.7390 C   0  0  0  0  0  0  0  0  0  0  0  0
  162.7210  213.3210  146.5710 C   0  0  0  0  0  0  0  0  0  0  0  0
  162.1980  213.2960  145.3740 C   0  0  0  0  0  0  0  0  0  0  0  0
  160.0110  212.0630  141.3770 C   0  0  2  0  0  3  0  0  0  0  0  0
  159.0470  212.9250  142.1640 C   0  0  0  0  0  2  0  0  0  0  0  0
  160.8240  212.2060  143.6650 C   0  0  1  0  0  3  0  0  0  0  0  0
  159.3570  212.6250  143.6110 C   0  0  0  0  0  2  0  0  0  0  0  0
  161.2440  211.8740  142.2420 C   0  0  0  0  0  2  0  0  0  0  0  0
  160.3230  212.5560  139.9350 C   0  0  2  0  0  3  0  0  0  0  0  0
  160.5640  210.7770  138.3180 C   0  0  1  0  0  3  0  0  0  0  0  0
  157.8580  212.7410  139.6090 C   0  0  0  0  0  2  0  0  0  0  0  0
  162.1900  211.0060  140.1330 O   0  0  0  0  0  1  0  0  0  0  0  0
  159.2180  211.5020  138.1230 C   0  0  1  0  0  3  0  0  0  0  0  0
  157.9680  210.6830  138.3940 C   0  0  0  0  0  2  0  0  0  0  0  0
  159.1870  212.6790  138.9930 N   0  0  2  0  0  0  0  0  0  0  0  0
  156.9900  211.6780  138.9630 C   0  0  0  0  0  2  0  0  0  0  0  0
  161.3780  211.7040  139.2260 C   0  0  2  0  0  0  0  0  0  0  0  0
  160.4480  209.3420  138.8520 C   0  0  1  0  0  3  0  0  0  0  0  0
  159.9780  208.4980  137.8310 O   0  0  0  0  0  0  0  0  0  0  0  0
  161.6660  207.2250  138.9240 C   0  0  0  0  0  1  0  0  0  0  0  0
  161.3570  208.4540  138.0980 C   0  0  2  0  0  3  0  0  0  0  0  0
  163.2780  213.3750  139.2150 C   0  0  0  0  0  1  0  0  0  0  0  0
  162.2530  212.6290  138.3770 C   0  0  0  0  0  2  0  0  0  0  0  0
  160.2310  211.3360  147.7360 O   0  0  0  0  0  0  0  0  0  0  0  0
  161.4880  211.3240  147.8050 C   0  0  0  0  0  0  0  0  0  0  0  0
  162.1800  210.0200  148.0270 C   0  0  0  0  0  2  0  0  0  0  0  0
  161.3010  209.0720  148.8290 C   0  0  1  0  0  3  0  0  0  0  0  0
  162.1400  207.8960  149.3070 C   0  0  1  0  0  3  0  0  0  0  0  0
  161.7790  209.0190  150.2600 C   0  0  0  0  0  2  0  0  0  0  0  0
  161.2730  206.6700  149.6030 C   0  0  1  0  0  3  0  0  0  0  0  0
  161.9000  203.9250  150.1700 O   0  0  0  0  0  0  0  0  0  0  0  0
  161.1410  205.8560  147.3020 N   0  0  0  0  0  0  0  0  0  0  0  0
  161.6580  203.0880  147.9370 C   0  0  2  0  0  3  0  0  0  0  0  0
  161.6380  204.1930  148.9650 C   0  0  0  0  0  0  0  0  0  0  0  0
  161.1830  204.8660  146.2640 C   0  0  0  0  0  3  0  0  0  0  0  0
  161.3300  205.5800  148.5590 C   0  0  0  0  0  0  0  0  0  0  0  0
  161.4160  203.5820  146.5360 C   0  0  0  0  0  3  0  0  0  0  0  0
  161.0450  200.6190  148.0270 N   0  0  0  0  0  1  0  0  0  0  0  0
  159.6070  202.2610  148.8290 O   0  0  0  0  0  0  0  0  0  0  0  0
  160.7020  201.9860  148.2700 C   0  0  0  0  0  0  0  0  0  0  0  0
  161.5760  206.1330  150.9280 N   0  0  0  0  0  2  0  0  0  0  0  0
  160.4290  207.7600  152.1550 O   0  0  0  0  0  0  0  0  0  0  0  0
  161.1850  206.7500  152.1590 C   0  0  0  0  0  0  0  0  0  0  0  0
  161.3190  206.7980  154.6760 C   0  0  0  0  0  1  0  0  0  0  0  0
  161.6440  206.1970  153.3920 N   0  0  0  0  0  2  0  0  0  0  0  0
  1  3  2  0  0  0  0
  3  2  1  0  0  0  0
  4  7  2  0  0  0  0
  5 29  1  0  0  0  0
  5  2  2  0  0  0  0
  6  1  1  0  0  0  0
  6  5  1  0  0  0  0
  7  6  2  0  0  0  0
  8  9  1  1  0  0  0
  8 12  1  0  0  0  0
  9 11  1  0  0  0  0
 10  4  1  6  0  0  0
 11 10  1  0  0  0  0
 12 10  1  0  0  0  0
 13  8  1  1  0  0  0
 14 22  1  1  0  0  0
 14 21  1  0  0  0  0
 17 14  1  0  0  0  0
 17 18  1  1  0  0  0
 17 19  1  0  0  0  0
 18 20  1  0  0  0  0
 19 15  1  1  0  0  0
 19 13  1  0  0  0  0
 20 15  1  0  0  0  0
 21 13  1  0  0  0  0
 21 16  1  1  0  0  0
 22 23  1  6  0  0  0
 23 25  1  0  0  0  0
 25 22  1  0  0  0  0
 25 24  1  1  0  0  0
 27 26  1  0  0  0  0
 27 21  1  0  0  0  0
 28 29  2  0  0  0  0
 29 30  1  0  0  0  0
 31 30  1  6  0  0  0
 31 32  1  0  0  0  0
 31 33  1  0  0  0  0
 32 34  1  1  0  0  0
 32 33  1  0  0  0  0
 34 45  1  1  0  0  0
 36 40  2  0  0  0  0
 37 44  1  1  0  0  0
 37 38  1  0  0  0  0
 38 35  2  0  0  0  0
 39 41  2  0  0  0  0
 39 36  1  0  0  0  0
 40 38  1  0  0  0  0
 40 34  1  0  0  0  0
 41 37  1  0  0  0  0
 42 44  1  0  0  0  0
 44 43  2  0  0  0  0
 45 47  1  0  0  0  0
 46 47  2  0  0  0  0
 47 49  1  0  0  0  0
 49 48  1  0  0  0  0
M  END
>  <MODEL>
5

>  <REMARK>
 VINA RESULT:      -4.4      1.304      1.988
  Name = 
  11 active torsions:
  status: ('A' for Active; 'I' for Inactive)
    1  A    between atoms: C_1  and  C_5
    2  A    between atoms: C_2  and  C_10
    3  A    between atoms: C_7  and  C_19
    4  A    between atoms: N_12  and  C_31
    5  A    between atoms: C_17  and  C_28
    6  A    between atoms: C_19  and  C_30
    7  A    between atoms: C_29  and  C_31
    8  A    between atoms: C_30  and  C_37
    9  A    between atoms: C_31  and  C_46
   10  A    between atoms: C_33  and  C_38
   11  A    between atoms: C_34  and  C_49
                            x       y       z     vdW  Elec       q    Type
                         _______ _______ _______ _____ _____    ______ ____

>  <TORSDO>
F 11

$$$$
