=
 OpenBabel11072410193D

 33 39  0  0  1  0  0  0  0  0999 V2000
  161.5310  202.6900  148.4510 C   0  0  0  0  0  3  0  0  0  0  0  0
  161.0890  205.7090  148.2690 C   0  0  0  0  0  0  0  0  0  0  0  0
  161.5520  209.5990  151.3710 S   0  0  0  0  0  0  0  0  0  0  0  0
  161.1850  203.8260  144.9150 C   0  0  0  0  0  3  0  0  0  0  0  0
  161.0690  205.0930  151.9520 C   0  0  0  0  0  0  0  0  0  0  0  0
  160.9330  205.3060  146.8520 C   0  0  0  0  0  0  0  0  0  0  0  0
  161.3050  206.9490  150.4170 C   0  0  0  0  0  0  0  0  0  0  0  0
  161.2800  207.3310  152.7590 C   0  0  0  0  0  0  0  0  0  0  0  0
  160.5500  203.4620  149.2640 C   0  0  0  0  0  2  0  0  0  0  0  0
  160.9830  204.8800  149.3930 C   0  0  0  0  0  0  0  0  0  0  0  0
  161.8090  202.9630  147.1750 C   0  0  0  0  0  3  0  0  0  0  0  0
  161.1320  205.9940  152.9810 N   0  0  0  0  0  0  0  0  0  0  0  0
  161.0110  206.2460  144.5270 C   0  0  0  0  0  2  0  0  0  0  0  0
  161.8640  209.6330  153.1820 C   0  0  2  0  0  3  0  0  0  0  0  0
  161.2610  204.0760  146.3700 C   0  0  0  0  0  0  0  0  0  0  0  0
  161.1320  205.5800  150.6160 C   0  0  0  0  0  0  0  0  0  0  0  0
  161.3160  207.3030  148.7780 S   0  0  0  0  0  0  0  0  0  0  0  0
  161.0260  204.8270  144.0460 C   0  0  0  0  0  3  0  0  0  0  0  0
  161.3730  207.8350  151.4840 C   0  0  0  0  0  0  0  0  0  0  0  0
  160.3570  206.3330  145.9050 C   0  0  0  0  0  2  0  0  0  0  0  0
  161.3650  208.3320  153.8450 C   0  0  0  0  0  2  0  0  0  0  0  0
  159.8740  210.9720  153.5240 C   0  0  0  0  0  2  0  0  0  0  0  0
  161.3180  210.8520  153.7910 N   0  0  1  0  0  0  0  0  0  0  0  0
  160.7660  211.7900  156.0440 C   0  0  0  0  0  3  0  0  0  0  0  0
  159.4230  212.3250  154.0430 C   0  0  1  0  0  3  0  0  0  0  0  0
  157.9190  212.5480  154.0400 C   0  0  0  0  0  2  0  0  0  0  0  0
  159.7360  212.4150  155.4770 C   0  0  0  0  0  0  0  0  0  0  0  0
  158.7640  213.0970  156.1700 O   0  0  0  0  0  0  0  0  0  0  0  0
  161.6020  210.8180  155.2410 C   0  0  0  0  0  2  0  0  0  0  0  0
  157.6490  213.3470  155.3270 C   0  0  0  0  0  2  0  0  0  0  0  0
  159.9530  203.1650  152.7800 O   0  0  0  0  0  0  0  0  0  0  0  0
  162.1070  202.8140  152.0020 N   0  0  0  0  0  1  0  0  0  0  0  0
  161.0060  203.6660  152.3040 C   0  0  0  0  0  0  0  0  0  0  0  0
  1  9  1  0  0  0  0
  2 17  1  0  0  0  0
  2 10  2  0  0  0  0
  3 19  1  0  0  0  0
  3 14  1  0  0  0  0
  4 15  1  0  0  0  0
  5 33  1  0  0  0  0
  5 12  1  0  0  0  0
  6  2  1  0  0  0  0
  7 16  1  0  0  0  0
  7 19  2  0  0  0  0
  8 12  2  0  0  0  0
  8 21  1  0  0  0  0
  9 10  1  0  0  0  0
 10 16  1  0  0  0  0
 11  1  2  0  0  0  0
 13 20  1  0  0  0  0
 14 23  1  0  0  0  0
 14 21  1  1  0  0  0
 15  6  2  0  0  0  0
 15 11  1  0  0  0  0
 16  5  2  0  0  0  0
 17  7  1  0  0  0  0
 18 13  1  0  0  0  0
 18  4  2  0  0  0  0
 19  8  1  0  0  0  0
 20  6  1  0  0  0  0
 23 22  1  1  0  0  0
 23 29  1  0  0  0  0
 25 22  1  1  0  0  0
 25 27  1  0  0  0  0
 26 25  1  0  0  0  0
 26 30  1  0  0  0  0
 27 24  2  0  0  0  0
 27 28  1  0  0  0  0
 29 24  1  0  0  0  0
 30 28  1  0  0  0  0
 32 33  1  0  0  0  0
 33 31  2  0  0  0  0
M  END
>  <MODEL>
1

>  <REMARK>
 VINA RESULT:      -9.2      0.000      0.000
  Name = 
  2 active torsions:
  status: ('A' for Active; 'I' for Inactive)
    1  A    between atoms: N_8  and  C_24
    2  A    between atoms: C_10  and  C_15
                            x       y       z     vdW  Elec       q    Type
                         _______ _______ _______ _____ _____    ______ ____

>  <TORSDO>
F 2

$$$$
=
 OpenBabel11072410193D

 33 39  0  0  1  0  0  0  0  0999 V2000
  161.4930  202.9080  152.2290 C   0  0  0  0  0  3  0  0  0  0  0  0
  161.2160  204.5360  149.6570 C   0  0  0  0  0  0  0  0  0  0  0  0
  161.9330  209.2990  148.3260 S   0  0  0  0  0  0  0  0  0  0  0  0
  161.1660  200.7110  149.2330 C   0  0  0  0  0  3  0  0  0  0  0  0
  161.2080  207.1690  152.3030 C   0  0  0  0  0  0  0  0  0  0  0  0
  161.0210  203.1560  149.1520 C   0  0  0  0  0  0  0  0  0  0  0  0
  161.5280  206.9920  149.9110 C   0  0  0  0  0  0  0  0  0  0  0  0
  161.5530  209.1180  150.9670 C   0  0  0  0  0  0  0  0  0  0  0  0
  160.5660  204.0590  152.0400 C   0  0  0  0  0  2  0  0  0  0  0  0
  161.0790  204.9710  150.9810 C   0  0  0  0  0  0  0  0  0  0  0  0
  161.7700  202.0190  151.2750 C   0  0  0  0  0  3  0  0  0  0  0  0
  161.3340  208.5270  152.1750 N   0  0  0  0  0  0  0  0  0  0  0  0
  161.1220  201.8110  147.0360 C   0  0  0  0  0  2  0  0  0  0  0  0
  162.2690  210.7760  149.3670 C   0  0  2  0  0  3  0  0  0  0  0  0
  161.2740  202.0360  149.8810 C   0  0  0  0  0  0  0  0  0  0  0  0
  161.2820  206.3650  151.1320 C   0  0  0  0  0  0  0  0  0  0  0  0
  161.5370  205.8670  148.6690 S   0  0  0  0  0  0  0  0  0  0  0  0
  161.0520  200.5940  147.9080 C   0  0  0  0  0  3  0  0  0  0  0  0
  161.6580  208.3710  149.8170 C   0  0  0  0  0  0  0  0  0  0  0  0
  160.4910  203.0090  147.7440 C   0  0  0  0  0  2  0  0  0  0  0  0
  161.7070  210.5790  150.7900 C   0  0  0  0  0  2  0  0  0  0  0  0
  161.3400  211.7240  147.3400 C   0  0  0  0  0  2  0  0  0  0  0  0
  161.7990  212.0030  148.7120 N   0  0  1  0  0  0  0  0  0  0  0  0
  159.8870  213.6140  148.8010 C   0  0  0  0  0  3  0  0  0  0  0  0
  161.0250  213.0550  146.6820 C   0  0  1  0  0  3  0  0  0  0  0  0
  160.3410  212.9590  145.3280 C   0  0  0  0  0  2  0  0  0  0  0  0
  160.0080  213.7540  147.4820 C   0  0  0  0  0  0  0  0  0  0  0  0
  159.1220  214.4470  146.6900 O   0  0  0  0  0  0  0  0  0  0  0  0
  160.7240  212.5910  149.5370 C   0  0  0  0  0  2  0  0  0  0  0  0
  159.3370  214.1250  145.3240 C   0  0  0  0  0  2  0  0  0  0  0  0
  161.9220  205.8240  154.1270 O   0  0  0  0  0  0  0  0  0  0  0  0
  160.0270  207.1010  154.5110 N   0  0  0  0  0  1  0  0  0  0  0  0
  161.0710  206.6280  153.6650 C   0  0  0  0  0  0  0  0  0  0  0  0
  2 10  2  0  0  0  0
  3 14  1  0  0  0  0
  3 19  1  0  0  0  0
  4 15  1  0  0  0  0
  5 33  1  0  0  0  0
  6  2  1  0  0  0  0
  6 15  2  0  0  0  0
  7 16  1  0  0  0  0
  8 12  2  0  0  0  0
  9  1  1  0  0  0  0
 10 16  1  0  0  0  0
 10  9  1  0  0  0  0
 11  1  2  0  0  0  0
 12  5  1  0  0  0  0
 13 20  1  0  0  0  0
 13 18  1  0  0  0  0
 14 21  1  1  0  0  0
 15 11  1  0  0  0  0
 16  5  2  0  0  0  0
 17  2  1  0  0  0  0
 17  7  1  0  0  0  0
 18  4  2  0  0  0  0
 19  7  2  0  0  0  0
 19  8  1  0  0  0  0
 20  6  1  0  0  0  0
 21  8  1  0  0  0  0
 23 22  1  6  0  0  0
 23 14  1  0  0  0  0
 23 29  1  0  0  0  0
 24 29  1  0  0  0  0
 25 26  1  6  0  0  0
 25 22  1  0  0  0  0
 25 27  1  0  0  0  0
 27 24  2  0  0  0  0
 28 27  1  0  0  0  0
 30 26  1  0  0  0  0
 30 28  1  0  0  0  0
 33 31  2  0  0  0  0
 33 32  1  0  0  0  0
M  END
>  <MODEL>
2

>  <REMARK>
 VINA RESULT:      -8.8      3.806      5.083
  Name = 
  2 active torsions:
  status: ('A' for Active; 'I' for Inactive)
    1  A    between atoms: N_8  and  C_24
    2  A    between atoms: C_10  and  C_15
                            x       y       z     vdW  Elec       q    Type
                         _______ _______ _______ _____ _____    ______ ____

>  <TORSDO>
F 2

$$$$
