=
 OpenBabel11072415263D

 25 27  0  0  1  0  0  0  0  0999 V2000
  161.1570  207.1780  152.7840 C   0  0  2  0  0  3  0  0  0  0  0  0
  162.4580  209.9800  156.1360 Cl  0  0  0  0  0  0  0  0  0  0  0  0
  160.0600  209.5390  152.9680 C   0  0  0  0  0  3  0  0  0  0  0  0
  163.4560  207.0150  150.3880 O   0  0  0  0  0  1  0  0  0  0  0  0
  161.8510  209.1040  151.2920 C   0  0  0  0  0  2  0  0  0  0  0  0
  160.7090  208.4940  152.0900 C   0  0  1  0  0  3  0  0  0  0  0  0
  162.4100  207.3280  149.5170 C   0  0  1  0  0  3  0  0  0  0  0  0
  160.4580  209.8810  154.2030 C   0  0  0  0  0  0  0  0  0  0  0  0
  161.5940  209.1150  154.8360 C   0  0  2  0  0  3  0  0  0  0  0  0
  161.4060  206.1740  149.4050 C   0  0  0  0  0  2  0  0  0  0  0  0
  160.3750  206.1000  150.5320 C   0  0  0  0  0  2  0  0  0  0  0  0
  161.0190  205.9770  151.8820 C   0  0  0  0  0  0  0  0  0  0  0  0
  161.1770  207.7060  155.2630 C   0  0  0  0  0  2  0  0  0  0  0  0
  161.7840  208.6980  149.8190 C   0  0  0  0  0  2  0  0  0  0  0  0
  160.4790  206.9330  154.1380 C   0  0  0  0  0  2  0  0  0  0  0  0
  161.5810  204.8200  152.2320 C   0  0  0  0  0  2  0  0  0  0  0  0
  159.6380  210.8400  154.9810 C   0  0  0  0  0  0  0  0  0  0  0  0
  159.5790  210.7270  156.2350 O   0  0  0  0  0  0  0  0  0  0  0  0
  156.2020  213.7350  153.2630 O   0  0  0  0  0  0  0  0  0  0  0  0
  158.5010  213.7550  153.2170 N   0  0  0  0  0  2  0  0  0  0  0  0
  157.5060  212.0660  154.2610 C   0  0  0  0  0  0  0  0  0  0  0  0
  158.8770  211.9230  154.3240 C   0  0  0  0  0  0  0  0  0  0  0  0
  157.3130  213.2240  153.5580 C   0  0  0  0  0  0  0  0  0  0  0  0
  159.4130  212.9500  153.6940 O   0  0  0  0  0  0  0  0  0  0  0  0
  156.5090  211.2030  154.7980 N   0  0  0  0  0  1  0  0  0  0  0  0
  1 15  1  1  0  0  0
  3  8  2  0  0  0  0
  6  5  1  1  0  0  0
  6  1  1  0  0  0  0
  6  3  1  0  0  0  0
  7 14  1  0  0  0  0
  7  4  1  1  0  0  0
  8  9  1  0  0  0  0
  8 17  1  0  0  0  0
  9 13  1  0  0  0  0
  9  2  1  1  0  0  0
 10  7  1  0  0  0  0
 10 11  1  0  0  0  0
 11 12  1  0  0  0  0
 12 16  2  0  0  0  0
 12  1  1  0  0  0  0
 14  5  1  0  0  0  0
 15 13  1  0  0  0  0
 17 18  2  0  0  0  0
 19 23  2  0  0  0  0
 20 23  1  0  0  0  0
 20 24  1  0  0  0  0
 21 22  2  0  0  0  0
 21 25  1  0  0  0  0
 22 17  1  0  0  0  0
 23 21  1  0  0  0  0
 24 22  1  0  0  0  0
M  END
>  <MODEL>
1

>  <REMARK>
 VINA RESULT:      -6.5      0.000      0.000
  Name = 
  2 active torsions:
  status: ('A' for Active; 'I' for Inactive)
    1  A    between atoms: C_5  and  C_12
    2  A    between atoms: C_5  and  C_13
                            x       y       z     vdW  Elec       q    Type
                         _______ _______ _______ _____ _____    ______ ____

>  <TORSDO>
F 2

$$$$
=
 OpenBabel11072415263D

 25 27  0  0  1  0  0  0  0  0999 V2000
  160.9820  208.8270  153.7210 C   0  0  2  0  0  3  0  0  0  0  0  0
  163.6790  205.8820  151.5220 Cl  0  0  0  0  0  0  0  0  0  0  0  0
  160.4580  206.2740  153.8580 C   0  0  0  0  0  3  0  0  0  0  0  0
  162.4490  209.9830  156.4710 O   0  0  0  0  0  1  0  0  0  0  0  0
  161.5940  207.4340  155.7470 C   0  0  0  0  0  2  0  0  0  0  0  0
  160.6230  207.5880  154.5860 C   0  0  1  0  0  3  0  0  0  0  0  0
  161.2840  209.5810  157.1280 C   0  0  1  0  0  3  0  0  0  0  0  0
  161.2410  205.8260  152.8640 C   0  0  0  0  0  0  0  0  0  0  0  0
  162.3380  206.7240  152.3450 C   0  0  2  0  0  3  0  0  0  0  0  0
  160.0850  210.4500  156.7300 C   0  0  0  0  0  2  0  0  0  0  0  0
  159.4130  210.0620  155.4110 C   0  0  0  0  0  2  0  0  0  0  0  0
  160.3690  210.0970  154.2550 C   0  0  0  0  0  0  0  0  0  0  0  0
  161.7910  207.8850  151.5120 C   0  0  0  0  0  2  0  0  0  0  0  0
  161.0440  208.0680  157.0250 C   0  0  0  0  0  2  0  0  0  0  0  0
  160.6720  208.6490  152.2300 C   0  0  0  0  0  2  0  0  0  0  0  0
  160.7720  211.2760  153.7790 C   0  0  0  0  0  2  0  0  0  0  0  0
  160.8710  204.5700  152.1690 C   0  0  0  0  0  0  0  0  0  0  0  0
  160.5290  203.5650  152.8500 O   0  0  0  0  0  0  0  0  0  0  0  0
  161.1040  203.0190  147.6220 O   0  0  0  0  0  0  0  0  0  0  0  0
  160.8330  205.0760  148.6140 N   0  0  0  0  0  2  0  0  0  0  0  0
  161.0520  203.3120  149.9450 C   0  0  0  0  0  0  0  0  0  0  0  0
  160.9020  204.4580  150.6970 C   0  0  0  0  0  0  0  0  0  0  0  0
  161.0040  203.7420  148.6470 C   0  0  0  0  0  0  0  0  0  0  0  0
  160.7750  205.4690  149.8580 O   0  0  0  0  0  0  0  0  0  0  0  0
  161.2220  201.9760  150.4070 N   0  0  0  0  0  1  0  0  0  0  0  0
  1 15  1  6  0  0  0
  1 12  1  0  0  0  0
  1  6  1  0  0  0  0
  5 14  1  0  0  0  0
  6  3  1  6  0  0  0
  6  5  1  0  0  0  0
  7  4  1  6  0  0  0
  8  3  2  0  0  0  0
  9  2  1  6  0  0  0
  9  8  1  0  0  0  0
 10  7  1  0  0  0  0
 11 10  1  0  0  0  0
 12 11  1  0  0  0  0
 13 15  1  0  0  0  0
 13  9  1  0  0  0  0
 14  7  1  0  0  0  0
 16 12  2  0  0  0  0
 17 18  2  0  0  0  0
 17  8  1  0  0  0  0
 19 23  2  0  0  0  0
 20 23  1  0  0  0  0
 20 24  1  0  0  0  0
 21 25  1  0  0  0  0
 21 22  2  0  0  0  0
 22 17  1  0  0  0  0
 23 21  1  0  0  0  0
 24 22  1  0  0  0  0
M  END
>  <MODEL>
2

>  <REMARK>
 VINA RESULT:      -6.4      3.997      7.418
  Name = 
  2 active torsions:
  status: ('A' for Active; 'I' for Inactive)
    1  A    between atoms: C_5  and  C_12
    2  A    between atoms: C_5  and  C_13
                            x       y       z     vdW  Elec       q    Type
                         _______ _______ _______ _____ _____    ______ ____

>  <TORSDO>
F 2

$$$$
=
 OpenBabel11072415263D

 25 27  0  0  1  0  0  0  0  0999 V2000
  161.8710  207.1990  149.9170 C   0  0  2  0  0  3  0  0  0  0  0  0
  163.7920  204.9350  146.4580 Cl  0  0  0  0  0  0  0  0  0  0  0  0
  160.4580  205.4390  148.6060 C   0  0  0  0  0  3  0  0  0  0  0  0
  162.9440  206.0570  152.8490 O   0  0  0  0  0  1  0  0  0  0  0  0
  161.4410  204.8740  150.8250 C   0  0  0  0  0  2  0  0  0  0  0  0
  160.8980  205.9890  149.9440 C   0  0  1  0  0  3  0  0  0  0  0  0
  161.5900  205.9260  153.1670 C   0  0  1  0  0  3  0  0  0  0  0  0
  161.2460  205.2660  147.5340 C   0  0  0  0  0  0  0  0  0  0  0  0
  162.6810  205.7300  147.6060 C   0  0  2  0  0  3  0  0  0  0  0  0
  160.9110  207.2930  153.3170 C   0  0  0  0  0  2  0  0  0  0  0  0
  160.4850  207.9520  152.0040 C   0  0  0  0  0  2  0  0  0  0  0  0
  161.6400  208.1480  151.0660 C   0  0  0  0  0  0  0  0  0  0  0  0
  162.8000  207.2540  147.5590 C   0  0  0  0  0  2  0  0  0  0  0  0
  160.8610  204.9450  152.2380 C   0  0  0  0  0  2  0  0  0  0  0  0
  161.8870  207.9480  148.5780 C   0  0  0  0  0  2  0  0  0  0  0  0
  162.5360  209.1000  151.3280 C   0  0  0  0  0  2  0  0  0  0  0  0
  160.6330  204.8300  146.2560 C   0  0  0  0  0  0  0  0  0  0  0  0
  160.1580  205.6950  145.4720 O   0  0  0  0  0  0  0  0  0  0  0  0
  160.8720  200.0270  146.1350 O   0  0  0  0  0  0  0  0  0  0  0  0
  160.1140  201.6420  144.6850 N   0  0  0  0  0  2  0  0  0  0  0  0
  160.9580  202.3150  146.6250 C   0  0  0  0  0  0  0  0  0  0  0  0
  160.5550  203.4030  145.8790 C   0  0  0  0  0  0  0  0  0  0  0  0
  160.6650  201.2320  145.8410 C   0  0  0  0  0  0  0  0  0  0  0  0
  160.0630  202.9460  144.7440 O   0  0  0  0  0  0  0  0  0  0  0  0
  161.5510  202.3100  147.9200 N   0  0  0  0  0  1  0  0  0  0  0  0
  1 15  1  6  0  0  0
  1  6  1  0  0  0  0
  1 12  1  0  0  0  0
  5 14  1  0  0  0  0
  6  3  1  6  0  0  0
  6  5  1  0  0  0  0
  7  4  1  6  0  0  0
  7 10  1  0  0  0  0
  8  9  1  0  0  0  0
  8  3  2  0  0  0  0
  9  2  1  6  0  0  0
 11 10  1  0  0  0  0
 12 16  2  0  0  0  0
 12 11  1  0  0  0  0
 13  9  1  0  0  0  0
 13 15  1  0  0  0  0
 14  7  1  0  0  0  0
 17  8  1  0  0  0  0
 18 17  2  0  0  0  0
 20 24  1  0  0  0  0
 20 23  1  0  0  0  0
 21 25  1  0  0  0  0
 22 17  1  0  0  0  0
 22 21  2  0  0  0  0
 23 19  2  0  0  0  0
 23 21  1  0  0  0  0
 24 22  1  0  0  0  0
M  END
>  <MODEL>
3

>  <REMARK>
 VINA RESULT:      -6.3      5.653      9.189
  Name = 
  2 active torsions:
  status: ('A' for Active; 'I' for Inactive)
    1  A    between atoms: C_5  and  C_12
    2  A    between atoms: C_5  and  C_13
                            x       y       z     vdW  Elec       q    Type
                         _______ _______ _______ _____ _____    ______ ____

>  <TORSDO>
F 2

$$$$
=
 OpenBabel11072415263D

 25 27  0  0  1  0  0  0  0  0999 V2000
  160.8620  209.2600  153.6490 C   0  0  2  0  0  3  0  0  0  0  0  0
  163.3840  207.3810  150.3500 Cl  0  0  0  0  0  0  0  0  0  0  0  0
  160.4090  206.7860  152.9530 C   0  0  0  0  0  3  0  0  0  0  0  0
  162.5760  209.5010  156.4880 O   0  0  0  0  0  1  0  0  0  0  0  0
  161.7060  207.3020  155.0160 C   0  0  0  0  0  2  0  0  0  0  0  0
  160.6190  207.7840  154.0680 C   0  0  1  0  0  3  0  0  0  0  0  0
  161.4910  208.8380  157.0680 C   0  0  1  0  0  3  0  0  0  0  0  0
  161.0970  206.7430  151.8020 C   0  0  0  0  0  0  0  0  0  0  0  0
  162.1160  207.8220  151.5250 C   0  0  2  0  0  3  0  0  0  0  0  0
  160.2400  209.7230  157.0970 C   0  0  0  0  0  2  0  0  0  0  0  0
  159.4460  209.7660  155.7900 C   0  0  0  0  0  2  0  0  0  0  0  0
  160.2800  210.2410  154.6360 C   0  0  0  0  0  0  0  0  0  0  0  0
  161.4630  209.1640  151.1880 C   0  0  0  0  0  2  0  0  0  0  0  0
  161.2750  207.4370  156.4770 C   0  0  0  0  0  2  0  0  0  0  0  0
  160.4060  209.5790  152.2200 C   0  0  0  0  0  2  0  0  0  0  0  0
  160.6060  211.5310  154.5560 C   0  0  0  0  0  2  0  0  0  0  0  0
  160.6850  205.7760  150.7560 C   0  0  0  0  0  0  0  0  0  0  0  0
  160.1950  206.2040  149.6760 O   0  0  0  0  0  0  0  0  0  0  0  0
  161.2070  201.0310  150.1630 O   0  0  0  0  0  0  0  0  0  0  0  0
  160.9900  202.4150  151.9860 N   0  0  0  0  0  2  0  0  0  0  0  0
  160.9680  203.3530  149.9730 C   0  0  0  0  0  0  0  0  0  0  0  0
  160.8250  204.3180  150.9480 C   0  0  0  0  0  0  0  0  0  0  0  0
  161.0660  202.1760  150.6640 C   0  0  0  0  0  0  0  0  0  0  0  0
  160.8480  203.7070  152.1180 O   0  0  0  0  0  0  0  0  0  0  0  0
  161.0010  203.5310  148.5610 N   0  0  0  0  0  1  0  0  0  0  0  0
  1 15  1  6  0  0  0
  1  6  1  0  0  0  0
  1 12  1  0  0  0  0
  5 14  1  0  0  0  0
  6  3  1  6  0  0  0
  6  5  1  0  0  0  0
  7  4  1  6  0  0  0
  7 10  1  0  0  0  0
  8  3  2  0  0  0  0
  9  2  1  6  0  0  0
  9  8  1  0  0  0  0
 11 10  1  0  0  0  0
 12 11  1  0  0  0  0
 13  9  1  0  0  0  0
 13 15  1  0  0  0  0
 14  7  1  0  0  0  0
 16 12  2  0  0  0  0
 17 22  1  0  0  0  0
 17  8  1  0  0  0  0
 18 17  2  0  0  0  0
 19 23  2  0  0  0  0
 20 24  1  0  0  0  0
 21 23  1  0  0  0  0
 21 22  2  0  0  0  0
 22 24  1  0  0  0  0
 23 20  1  0  0  0  0
 25 21  1  0  0  0  0
M  END
>  <MODEL>
4

>  <REMARK>
 VINA RESULT:      -5.9      4.230      7.615
  Name = 
  2 active torsions:
  status: ('A' for Active; 'I' for Inactive)
    1  A    between atoms: C_5  and  C_12
    2  A    between atoms: C_5  and  C_13
                            x       y       z     vdW  Elec       q    Type
                         _______ _______ _______ _____ _____    ______ ____

>  <TORSDO>
F 2

$$$$
=
 OpenBabel11072415263D

 25 27  0  0  1  0  0  0  0  0999 V2000
  160.0500  211.4030  155.2130 C   0  0  2  0  0  3  0  0  0  0  0  0
  161.0740  207.0660  154.2570 Cl  0  0  0  0  0  0  0  0  0  0  0  0
  160.2130  210.6540  152.7180 C   0  0  0  0  0  3  0  0  0  0  0  0
  156.9080  211.6970  156.2600 O   0  0  0  0  0  1  0  0  0  0  0  0
  157.9930  210.9270  153.8140 C   0  0  0  0  0  2  0  0  0  0  0  0
  159.4390  211.3950  153.7850 C   0  0  1  0  0  3  0  0  0  0  0  0
  156.7860  212.6720  155.2670 C   0  0  1  0  0  3  0  0  0  0  0  0
  160.8230  209.4690  152.8750 C   0  0  0  0  0  0  0  0  0  0  0  0
  160.8320  208.8340  154.2440 C   0  0  2  0  0  3  0  0  0  0  0  0
  157.6040  213.9250  155.6030 C   0  0  0  0  0  2  0  0  0  0  0  0
  159.0920  213.8380  155.2610 C   0  0  0  0  0  2  0  0  0  0  0  0
  159.7670  212.6880  155.9510 C   0  0  0  0  0  0  0  0  0  0  0  0
  161.7780  209.5490  155.2100 C   0  0  0  0  0  2  0  0  0  0  0  0
  157.0230  212.1080  153.8580 C   0  0  0  0  0  2  0  0  0  0  0  0
  161.5450  211.0650  155.2470 C   0  0  0  0  0  2  0  0  0  0  0  0
  160.0060  212.7640  157.2600 C   0  0  0  0  0  2  0  0  0  0  0  0
  161.6460  208.9330  151.7640 C   0  0  0  0  0  0  0  0  0  0  0  0
  162.7170  209.5200  151.4490 O   0  0  0  0  0  0  0  0  0  0  0  0
  160.6140  205.7190  148.3370 O   0  0  0  0  0  0  0  0  0  0  0  0
  160.5450  205.7060  150.6360 N   0  0  0  0  0  2  0  0  0  0  0  0
  161.2240  207.5690  149.6370 C   0  0  0  0  0  0  0  0  0  0  0  0
  161.2400  207.7310  151.0060 C   0  0  0  0  0  0  0  0  0  0  0  0
  160.7820  206.2880  149.4460 C   0  0  0  0  0  0  0  0  0  0  0  0
  160.8310  206.5990  151.5460 O   0  0  0  0  0  0  0  0  0  0  0  0
  161.5820  208.5180  148.6370 N   0  0  0  0  0  1  0  0  0  0  0  0
  1 15  1  6  0  0  0
  1 12  1  0  0  0  0
  3  8  2  0  0  0  0
  5 14  1  0  0  0  0
  6  3  1  6  0  0  0
  6  5  1  0  0  0  0
  6  1  1  0  0  0  0
  7 10  1  0  0  0  0
  7  4  1  1  0  0  0
  8  9  1  0  0  0  0
  9  2  1  6  0  0  0
  9 13  1  0  0  0  0
 11 10  1  0  0  0  0
 11 12  1  0  0  0  0
 12 16  2  0  0  0  0
 13 15  1  0  0  0  0
 14  7  1  0  0  0  0
 17  8  1  0  0  0  0
 18 17  2  0  0  0  0
 19 23  2  0  0  0  0
 20 24  1  0  0  0  0
 21 22  2  0  0  0  0
 22 24  1  0  0  0  0
 22 17  1  0  0  0  0
 23 21  1  0  0  0  0
 23 20  1  0  0  0  0
 25 21  1  0  0  0  0
M  END
>  <MODEL>
5

>  <REMARK>
 VINA RESULT:      -5.9      2.934      6.981
  Name = 
  2 active torsions:
  status: ('A' for Active; 'I' for Inactive)
    1  A    between atoms: C_5  and  C_12
    2  A    between atoms: C_5  and  C_13
                            x       y       z     vdW  Elec       q    Type
                         _______ _______ _______ _____ _____    ______ ____

>  <TORSDO>
F 2

$$$$
=
 OpenBabel11072415263D

 25 27  0  0  1  0  0  0  0  0999 V2000
  161.3780  204.2830  148.8690 C   0  0  2  0  0  3  0  0  0  0  0  0
  163.4450  205.4540  152.7600 Cl  0  0  0  0  0  0  0  0  0  0  0  0
  160.8490  206.6020  149.9450 C   0  0  0  0  0  3  0  0  0  0  0  0
  163.4540  204.5130  146.2840 O   0  0  0  0  0  1  0  0  0  0  0  0
  162.4070  206.4310  148.0090 C   0  0  0  0  0  2  0  0  0  0  0  0
  161.2010  205.8170  148.7020 C   0  0  1  0  0  3  0  0  0  0  0  0
  162.4610  205.3030  145.6990 C   0  0  1  0  0  3  0  0  0  0  0  0
  161.3760  206.4140  151.1640 C   0  0  0  0  0  0  0  0  0  0  0  0
  162.3430  205.2730  151.3680 C   0  0  2  0  0  3  0  0  0  0  0  0
  161.2200  204.4750  145.3440 C   0  0  0  0  0  2  0  0  0  0  0  0
  160.2580  204.2190  146.5050 C   0  0  0  0  0  2  0  0  0  0  0  0
  160.9270  203.5170  147.6510 C   0  0  0  0  0  0  0  0  0  0  0  0
  161.6440  203.9120  151.3630 C   0  0  0  0  0  2  0  0  0  0  0  0
  162.1750  206.5780  146.5050 C   0  0  0  0  0  2  0  0  0  0  0  0
  160.7320  203.7230  150.1430 C   0  0  0  0  0  2  0  0  0  0  0  0
  161.2330  202.2240  147.5330 C   0  0  0  0  0  2  0  0  0  0  0  0
  160.8330  207.1860  152.3080 C   0  0  0  0  0  0  0  0  0  0  0  0
  160.3340  206.5700  153.2880 O   0  0  0  0  0  0  0  0  0  0  0  0
  160.5290  211.8310  153.5210 O   0  0  0  0  0  0  0  0  0  0  0  0
  161.1380  210.6970  151.6150 N   0  0  0  0  0  2  0  0  0  0  0  0
  160.5240  209.4930  153.3780 C   0  0  0  0  0  0  0  0  0  0  0  0
  160.8530  208.6630  152.3260 C   0  0  0  0  0  0  0  0  0  0  0  0
  160.7140  210.7580  152.8910 C   0  0  0  0  0  0  0  0  0  0  0  0
  161.2100  209.4280  151.3130 O   0  0  0  0  0  0  0  0  0  0  0  0
  160.0800  209.1260  154.6800 N   0  0  0  0  0  1  0  0  0  0  0  0
  1 15  1  1  0  0  0
  3  8  2  0  0  0  0
  6  5  1  1  0  0  0
  6  1  1  0  0  0  0
  6  3  1  0  0  0  0
  7  4  1  1  0  0  0
  7 14  1  0  0  0  0
  8  9  1  0  0  0  0
  8 17  1  0  0  0  0
  9  2  1  1  0  0  0
 10  7  1  0  0  0  0
 10 11  1  0  0  0  0
 11 12  1  0  0  0  0
 12  1  1  0  0  0  0
 13  9  1  0  0  0  0
 14  5  1  0  0  0  0
 15 13  1  0  0  0  0
 16 12  2  0  0  0  0
 17 22  1  0  0  0  0
 17 18  2  0  0  0  0
 20 23  1  0  0  0  0
 21 25  1  0  0  0  0
 22 21  2  0  0  0  0
 23 21  1  0  0  0  0
 23 19  2  0  0  0  0
 24 20  1  0  0  0  0
 24 22  1  0  0  0  0
M  END
>  <MODEL>
6

>  <REMARK>
 VINA RESULT:      -5.6      3.051      4.684
  Name = 
  2 active torsions:
  status: ('A' for Active; 'I' for Inactive)
    1  A    between atoms: C_5  and  C_12
    2  A    between atoms: C_5  and  C_13
                            x       y       z     vdW  Elec       q    Type
                         _______ _______ _______ _____ _____    ______ ____

>  <TORSDO>
F 2

$$$$
=
 OpenBabel11072415263D

 25 27  0  0  1  0  0  0  0  0999 V2000
  160.4390  209.6540  155.0050 C   0  0  2  0  0  3  0  0  0  0  0  0
  160.2120  205.4560  153.2420 Cl  0  0  0  0  0  0  0  0  0  0  0  0
  161.1330  209.2780  152.5170 C   0  0  0  0  0  3  0  0  0  0  0  0
  157.4150  211.0020  155.3030 O   0  0  0  0  0  1  0  0  0  0  0  0
  158.9040  210.2380  153.0770 C   0  0  0  0  0  2  0  0  0  0  0  0
  160.3520  210.0970  153.5190 C   0  0  1  0  0  3  0  0  0  0  0  0
  157.9490  212.0810  154.5950 C   0  0  1  0  0  3  0  0  0  0  0  0
  161.2310  207.9400  152.5060 C   0  0  0  0  0  0  0  0  0  0  0  0
  160.5890  207.1580  153.6260 C   0  0  2  0  0  3  0  0  0  0  0  0
  158.9840  212.8460  155.4290 C   0  0  0  0  0  2  0  0  0  0  0  0
  160.3850  212.2320  155.4450 C   0  0  0  0  0  2  0  0  0  0  0  0
  160.3800  210.8220  155.9580 C   0  0  0  0  0  0  0  0  0  0  0  0
  161.3570  207.2920  154.9420 C   0  0  0  0  0  2  0  0  0  0  0  0
  158.4220  211.6850  153.1890 C   0  0  0  0  0  2  0  0  0  0  0  0
  161.6430  208.7540  155.3110 C   0  0  0  0  0  2  0  0  0  0  0  0
  160.1980  210.6030  157.2600 C   0  0  0  0  0  2  0  0  0  0  0  0
  162.1380  207.2940  151.5270 C   0  0  0  0  0  0  0  0  0  0  0  0
  163.1200  206.6230  151.9450 O   0  0  0  0  0  0  0  0  0  0  0  0
  160.9470  206.6130  146.9170 O   0  0  0  0  0  0  0  0  0  0  0  0
  161.9580  208.3140  148.0880 N   0  0  0  0  0  2  0  0  0  0  0  0
  161.3390  206.5080  149.2240 C   0  0  0  0  0  0  0  0  0  0  0  0
  161.9280  207.4240  150.0710 C   0  0  0  0  0  0  0  0  0  0  0  0
  161.3790  207.1030  147.9920 C   0  0  0  0  0  0  0  0  0  0  0  0
  162.2710  208.4720  149.3470 O   0  0  0  0  0  0  0  0  0  0  0  0
  160.8110  205.2260  149.5480 N   0  0  0  0  0  1  0  0  0  0  0  0
  1 15  1  6  0  0  0
  1 12  1  0  0  0  0
  5 14  1  0  0  0  0
  5  6  1  0  0  0  0
  6  3  1  6  0  0  0
  6  1  1  0  0  0  0
  7  4  1  1  0  0  0
  7 10  1  0  0  0  0
  8  3  2  0  0  0  0
  8  9  1  0  0  0  0
  9  2  1  6  0  0  0
  9 13  1  0  0  0  0
 10 11  1  0  0  0  0
 11 12  1  0  0  0  0
 12 16  2  0  0  0  0
 13 15  1  0  0  0  0
 14  7  1  0  0  0  0
 17 18  2  0  0  0  0
 17  8  1  0  0  0  0
 19 23  2  0  0  0  0
 20 24  1  0  0  0  0
 21 25  1  0  0  0  0
 21 22  2  0  0  0  0
 22 17  1  0  0  0  0
 23 20  1  0  0  0  0
 23 21  1  0  0  0  0
 24 22  1  0  0  0  0
M  END
>  <MODEL>
7

>  <REMARK>
 VINA RESULT:      -5.5      3.110      6.642
  Name = 
  2 active torsions:
  status: ('A' for Active; 'I' for Inactive)
    1  A    between atoms: C_5  and  C_12
    2  A    between atoms: C_5  and  C_13
                            x       y       z     vdW  Elec       q    Type
                         _______ _______ _______ _____ _____    ______ ____

>  <TORSDO>
F 2

$$$$
=
 OpenBabel11072415263D

 25 27  0  0  1  0  0  0  0  0999 V2000
  161.3960  204.4100  148.8990 C   0  0  2  0  0  3  0  0  0  0  0  0
  163.4060  206.2030  152.5760 Cl  0  0  0  0  0  0  0  0  0  0  0  0
  160.9330  206.9030  149.5140 C   0  0  0  0  0  3  0  0  0  0  0  0
  163.5480  204.0870  146.3850 O   0  0  0  0  0  1  0  0  0  0  0  0
  162.5340  206.3250  147.6950 C   0  0  0  0  0  2  0  0  0  0  0  0
  161.2860  205.8920  148.4480 C   0  0  1  0  0  3  0  0  0  0  0  0
  162.6030  204.7900  145.6340 C   0  0  1  0  0  3  0  0  0  0  0  0
  161.4200  206.9250  150.7640 C   0  0  0  0  0  0  0  0  0  0  0  0
  162.3350  205.8080  151.2050 C   0  0  2  0  0  3  0  0  0  0  0  0
  161.3390  203.9550  145.3940 C   0  0  0  0  0  2  0  0  0  0  0  0
  160.3380  203.9500  146.5510 C   0  0  0  0  0  2  0  0  0  0  0  0
  160.9470  203.4480  147.8270 C   0  0  0  0  0  0  0  0  0  0  0  0
  161.5810  204.4940  151.4250 C   0  0  0  0  0  2  0  0  0  0  0  0
  162.3470  206.2010  146.1820 C   0  0  0  0  0  2  0  0  0  0  0  0
  160.6950  204.1160  150.2310 C   0  0  0  0  0  2  0  0  0  0  0  0
  161.2040  202.1460  147.9580 C   0  0  0  0  0  2  0  0  0  0  0  0
  160.8790  207.9130  151.7280 C   0  0  0  0  0  0  0  0  0  0  0  0
  160.4560  209.0220  151.3040 O   0  0  0  0  0  0  0  0  0  0  0  0
  161.0960  208.1730  156.5270 O   0  0  0  0  0  0  0  0  0  0  0  0
  160.5040  206.5360  155.0240 N   0  0  0  0  0  2  0  0  0  0  0  0
  161.1460  208.4990  154.2080 C   0  0  0  0  0  0  0  0  0  0  0  0
  160.8310  207.6360  153.1790 C   0  0  0  0  0  0  0  0  0  0  0  0
  160.9300  207.7710  155.3460 C   0  0  0  0  0  0  0  0  0  0  0  0
  160.4560  206.4930  153.7190 O   0  0  0  0  0  0  0  0  0  0  0  0
  161.6010  209.8450  154.1160 N   0  0  0  0  0  1  0  0  0  0  0  0
  1 15  1  1  0  0  0
  3  8  2  0  0  0  0
  6  5  1  1  0  0  0
  6  1  1  0  0  0  0
  6  3  1  0  0  0  0
  7 14  1  0  0  0  0
  7  4  1  1  0  0  0
  8  9  1  0  0  0  0
  8 17  1  0  0  0  0
  9 13  1  0  0  0  0
  9  2  1  1  0  0  0
 10  7  1  0  0  0  0
 10 11  1  0  0  0  0
 11 12  1  0  0  0  0
 12 16  2  0  0  0  0
 12  1  1  0  0  0  0
 14  5  1  0  0  0  0
 15 13  1  0  0  0  0
 17 22  1  0  0  0  0
 18 17  2  0  0  0  0
 20 23  1  0  0  0  0
 21 23  1  0  0  0  0
 22 24  1  0  0  0  0
 22 21  2  0  0  0  0
 23 19  2  0  0  0  0
 24 20  1  0  0  0  0
 25 21  1  0  0  0  0
M  END
>  <MODEL>
8

>  <REMARK>
 VINA RESULT:      -5.4      3.370      5.301
  Name = 
  2 active torsions:
  status: ('A' for Active; 'I' for Inactive)
    1  A    between atoms: C_5  and  C_12
    2  A    between atoms: C_5  and  C_13
                            x       y       z     vdW  Elec       q    Type
                         _______ _______ _______ _____ _____    ______ ____

>  <TORSDO>
F 2

$$$$
=
 OpenBabel11072415263D

 25 27  0  0  1  0  0  0  0  0999 V2000
  161.3840  204.2650  148.8960 C   0  0  2  0  0  3  0  0  0  0  0  0
  163.4530  205.4840  152.7700 Cl  0  0  0  0  0  0  0  0  0  0  0  0
  160.8300  206.5830  149.9610 C   0  0  0  0  0  3  0  0  0  0  0  0
  163.4460  204.5070  146.3000 O   0  0  0  0  0  1  0  0  0  0  0  0
  162.3820  206.4210  148.0190 C   0  0  0  0  0  2  0  0  0  0  0  0
  161.1860  205.7960  148.7210 C   0  0  1  0  0  3  0  0  0  0  0  0
  162.4400  205.2810  145.7160 C   0  0  1  0  0  3  0  0  0  0  0  0
  161.3650  206.4090  151.1790 C   0  0  0  0  0  0  0  0  0  0  0  0
  162.3480  205.2810  151.3840 C   0  0  2  0  0  3  0  0  0  0  0  0
  161.2080  204.4350  145.3700 C   0  0  0  0  0  2  0  0  0  0  0  0
  160.2550  204.1730  146.5380 C   0  0  0  0  0  2  0  0  0  0  0  0
  160.9370  203.4860  147.6840 C   0  0  0  0  0  0  0  0  0  0  0  0
  161.6660  203.9110  151.3900 C   0  0  0  0  0  2  0  0  0  0  0  0
  162.1410  206.5570  146.5150 C   0  0  0  0  0  2  0  0  0  0  0  0
  160.7510  203.7040  150.1760 C   0  0  0  0  0  2  0  0  0  0  0  0
  161.2590  202.1970  147.5720 C   0  0  0  0  0  2  0  0  0  0  0  0
  160.8180  207.1800  152.3210 C   0  0  0  0  0  0  0  0  0  0  0  0
  160.4640  206.5700  153.3660 O   0  0  0  0  0  0  0  0  0  0  0  0
  161.1710  211.8590  151.2620 O   0  0  0  0  0  0  0  0  0  0  0  0
  159.9040  210.6290  152.7350 N   0  0  0  0  0  2  0  0  0  0  0  0
  161.3390  209.5300  151.4440 C   0  0  0  0  0  0  0  0  0  0  0  0
  160.6660  208.6490  152.2640 C   0  0  0  0  0  0  0  0  0  0  0  0
  160.8330  210.7600  151.7710 C   0  0  0  0  0  0  0  0  0  0  0  0
  159.8300  209.3520  153.0030 O   0  0  0  0  0  0  0  0  0  0  0  0
  162.3400  209.2370  150.4750 N   0  0  0  0  0  1  0  0  0  0  0  0
  1 15  1  1  0  0  0
  3  8  2  0  0  0  0
  6  5  1  1  0  0  0
  6  1  1  0  0  0  0
  6  3  1  0  0  0  0
  7  4  1  1  0  0  0
  7 14  1  0  0  0  0
  8  9  1  0  0  0  0
  8 17  1  0  0  0  0
  9 13  1  0  0  0  0
  9  2  1  1  0  0  0
 10  7  1  0  0  0  0
 10 11  1  0  0  0  0
 11 12  1  0  0  0  0
 12  1  1  0  0  0  0
 14  5  1  0  0  0  0
 15 13  1  0  0  0  0
 16 12  2  0  0  0  0
 17 18  2  0  0  0  0
 19 23  2  0  0  0  0
 20 24  1  0  0  0  0
 21 23  1  0  0  0  0
 21 22  2  0  0  0  0
 22 17  1  0  0  0  0
 22 24  1  0  0  0  0
 23 20  1  0  0  0  0
 25 21  1  0  0  0  0
M  END
>  <MODEL>
9

>  <REMARK>
 VINA RESULT:      -4.9      3.227      4.886
  Name = 
  2 active torsions:
  status: ('A' for Active; 'I' for Inactive)
    1  A    between atoms: C_5  and  C_12
    2  A    between atoms: C_5  and  C_13
                            x       y       z     vdW  Elec       q    Type
                         _______ _______ _______ _____ _____    ______ ____

>  <TORSDO>
F 2

$$$$
