=
 OpenBabel11072412303D

 56 61  0  0  1  0  0  0  0  0999 V2000
  160.4020  211.4100  153.0930 C   0  0  0  0  0  0  0  0  0  0  0  0
  159.8840  212.2390  153.9550 C   0  0  0  0  0  0  0  0  0  0  0  0
  160.9200  210.5940  152.2190 C   0  0  0  0  0  0  0  0  0  0  0  0
  160.2320  212.1510  155.2960 O   0  0  0  0  0  1  0  0  0  0  0  0
  162.2750  211.1420  151.1820 S   0  0  0  0  0  0  0  0  0  0  0  0
  159.6780  213.4310  148.9680 C   0  0  0  0  0  2  0  0  0  0  0  0
  160.9710  211.8230  147.5760 C   0  0  0  0  0  2  0  0  0  0  0  0
  160.3790  213.2350  147.6300 C   0  0  1  0  0  3  0  0  0  0  0  0
  161.9040  211.6570  148.6170 O   0  0  0  0  0  0  0  0  0  0  0  0
  160.6080  213.0300  150.1080 C   0  0  0  0  0  2  0  0  0  0  0  0
  161.1770  211.6400  149.8220 C   0  0  2  0  0  3  0  0  0  0  0  0
  159.3950  213.4550  146.4930 C   0  0  0  0  0  2  0  0  0  0  0  0
  161.2230  214.2430  145.2330 O   0  0  0  0  0  0  0  0  0  0  0  0
  160.1170  213.7270  145.2110 C   0  0  0  0  0  0  0  0  0  0  0  0
  159.4790  213.3830  143.9050 C   0  0  0  0  0  2  0  0  0  0  0  0
  160.2960  212.4160  143.1900 N   0  0  0  0  0  2  0  0  0  0  0  0
  160.2070  212.7470  141.8290 N   0  0  0  0  0  2  0  0  0  0  0  0
  160.1630  211.4930  141.0930 C   0  0  0  0  0  2  0  0  0  0  0  0
  161.7550  207.8150  138.8420 C   0  0  0  0  0  2  0  0  0  0  0  0
  161.9930  211.9920  139.3150 C   0  0  1  0  0  3  0  0  0  0  0  0
  161.0790  208.9160  138.0580 C   0  0  1  0  0  0  0  0  0  0  0  0
  160.4970  211.7350  139.6240 C   0  0  1  0  0  3  0  0  0  0  0  0
  162.8710  210.8810  139.8880 C   0  0  0  0  0  2  0  0  0  0  0  0
  162.0520  210.0080  137.5400 C   0  0  0  0  0  2  0  0  0  0  0  0
  159.6510  210.9160  138.6470 C   0  0  0  0  0  2  0  0  0  0  0  0
  159.7950  209.3850  138.7220 C   0  0  2  0  0  3  0  0  0  0  0  0
  162.8040  211.0690  138.3900 C   0  0  1  0  0  3  0  0  0  0  0  0
  160.9470  208.8670  139.5710 C   0  0  1  0  0  3  0  0  0  0  0  0
  160.4790  209.1740  152.1780 C   0  0  0  0  0  2  0  0  0  0  0  0
  161.5220  208.2760  152.8160 C   0  0  0  0  0  2  0  0  0  0  0  0
  160.8600  207.1160  153.5400 C   0  0  2  0  0  3  0  0  0  0  0  0
  160.9690  207.3030  155.0520 C   0  0  2  0  0  3  0  0  0  0  0  0
  159.6140  207.2560  155.7410 C   0  0  0  0  0  1  0  0  0  0  0  0
  161.6050  208.5100  155.3450 O   0  0  0  0  0  1  0  0  0  0  0  0
  161.4150  205.8710  153.1250 O   0  0  0  0  0  0  0  0  0  0  0  0
  161.8110  205.6280  151.8080 C   0  0  0  0  0  0  0  0  0  0  0  0
  163.0270  205.7530  151.5020 O   0  0  0  0  0  0  0  0  0  0  0  0
  160.8100  205.2350  150.7580 C   0  0  2  0  0  3  0  0  0  0  0  0
  160.9450  203.6890  148.9440 O   0  0  0  0  0  0  0  0  0  0  0  0
  160.1010  203.9760  151.1530 C   0  0  0  0  0  2  0  0  0  0  0  0
  161.4860  204.8930  149.4360 C   0  0  1  0  0  3  0  0  0  0  0  0
  160.4320  202.9930  150.0520 C   0  0  2  0  0  3  0  0  0  0  0  0
  161.4150  202.0260  150.5210 N   0  0  0  0  0  2  0  0  0  0  0  0
  160.9130  200.7100  150.1710 C   0  0  0  0  0  1  0  0  0  0  0  0
  161.3430  206.0150  148.3740 C   0  0  1  0  0  0  0  0  0  0  0  0
  160.2180  206.7730  148.7060 O   0  0  0  0  0  1  0  0  0  0  0  0
  162.1950  208.4050  148.8260 C   0  0  0  0  0  1  0  0  0  0  0  0
  162.5380  206.9900  148.3820 C   0  0  0  0  0  2  0  0  0  0  0  0
  161.1190  205.4960  147.0700 O   0  0  0  0  0  0  0  0  0  0  0  0
  162.1880  205.8100  146.2100 C   0  0  0  0  0  2  0  0  0  0  0  0
  162.5800  204.5760  145.4210 C   0  0  0  0  0  1  0  0  0  0  0  0
  158.8980  213.2620  153.4920 C   0  0  0  0  0  2  0  0  0  0  0  0
  157.3020  211.4960  153.6220 F   0  0  0  0  0  0  0  0  0  0  0  0
  157.1410  213.1940  155.1040 F   0  0  0  0  0  0  0  0  0  0  0  0
  157.4620  212.8570  153.8020 C   0  0  0  0  0  0  0  0  0  0  0  0
  156.6150  213.5260  152.9410 F   0  0  0  0  0  0  0  0  0  0  0  0
  1  2  2  0  0  0  0
  2  4  1  0  0  0  0
  3  1  2  0  0  0  0
  5  3  1  0  0  0  0
  6 10  1  0  0  0  0
  7  8  1  0  0  0  0
  7  9  1  0  0  0  0
  8 12  1  6  0  0  0
  8  6  1  0  0  0  0
  9 11  1  0  0  0  0
 11 10  1  0  0  0  0
 11  5  1  1  0  0  0
 14 13  2  0  0  0  0
 14 12  1  0  0  0  0
 15 14  1  0  0  0  0
 16 15  1  0  0  0  0
 17 16  1  0  0  0  0
 18 17  1  0  0  0  0
 20 22  1  0  0  0  0
 20 23  1  1  0  0  0
 21 24  1  6  0  0  0
 21 26  1  0  0  0  0
 21 19  1  0  0  0  0
 21 28  1  0  0  0  0
 22 18  1  1  0  0  0
 25 22  1  0  0  0  0
 26 25  1  1  0  0  0
 26 28  1  0  0  0  0
 27 24  1  6  0  0  0
 27 20  1  0  0  0  0
 27 23  1  0  0  0  0
 28 19  1  6  0  0  0
 29  3  1  0  0  0  0
 29 30  1  0  0  0  0
 31 30  1  6  0  0  0
 31 32  1  0  0  0  0
 32 34  1  0  0  0  0
 32 33  1  1  0  0  0
 35 31  1  0  0  0  0
 36 35  1  0  0  0  0
 37 36  2  0  0  0  0
 38 40  1  0  0  0  0
 38 36  1  1  0  0  0
 39 41  1  0  0  0  0
 39 42  1  0  0  0  0
 41 45  1  6  0  0  0
 41 38  1  0  0  0  0
 42 43  1  1  0  0  0
 42 40  1  0  0  0  0
 44 43  1  0  0  0  0
 45 48  1  0  0  0  0
 45 46  1  1  0  0  0
 48 47  1  0  0  0  0
 49 45  1  0  0  0  0
 50 49  1  0  0  0  0
 51 50  1  0  0  0  0
 52 55  1  0  0  0  0
 52  2  1  0  0  0  0
 53 55  1  0  0  0  0
 55 54  1  0  0  0  0
 56 55  1  0  0  0  0
M  END
>  <MODEL>
1

>  <REMARK>
 VINA RESULT:      -5.9      0.000      0.000
  Name = 
  23 active torsions:
  status: ('A' for Active; 'I' for Inactive)
    1  A    between atoms: C_1  and  C_33
    2  A    between atoms: C_1  and  C_47
    3  A    between atoms: C_2  and  N_38
    4  A    between atoms: C_2  and  C_53
    5  A    between atoms: N_4  and  C_55
    6  A    between atoms: C_6  and  C_7
    7  A    between atoms: C_6  and  O_50
    8  A    between atoms: N_9  and  N_38
    9  A    between atoms: N_9  and  C_43
   10  A    between atoms: O_10  and  C_29
   11  A    between atoms: O_10  and  C_30
   12  A    between atoms: C_11  and  C_32
   13  A    between atoms: C_11  and  C_46
   14  A    between atoms: C_12  and  C_23
   15  A    between atoms: C_12  and  C_53
   16  A    between atoms: C_13  and  C_42
   17  A    between atoms: C_24  and  C_43
   18  A    between atoms: C_30  and  C_31
   19  A    between atoms: C_30  and  C_56
   20  A    between atoms: C_33  and  S_40
   21  A    between atoms: S_40  and  C_52
   22  A    between atoms: C_42  and  C_47
   23  A    between atoms: C_42  and  O_50
                            x       y       z     vdW  Elec       q    Type
                         _______ _______ _______ _____ _____    ______ ____

>  <TORSDO>
F 23

$$$$
=
 OpenBabel11072412303D

 56 61  0  0  1  0  0  0  0  0999 V2000
  160.6870  212.7000  146.2360 C   0  0  0  0  0  0  0  0  0  0  0  0
  160.0700  213.1890  145.1990 C   0  0  0  0  0  0  0  0  0  0  0  0
  161.3180  212.2220  147.2720 C   0  0  0  0  0  0  0  0  0  0  0  0
  158.6840  213.2770  145.1950 O   0  0  0  0  0  1  0  0  0  0  0  0
  162.0860  213.3430  148.4420 S   0  0  0  0  0  0  0  0  0  0  0  0
  158.0230  213.8650  148.7790 C   0  0  0  0  0  2  0  0  0  0  0  0
  159.2320  214.3110  150.9090 C   0  0  0  0  0  2  0  0  0  0  0  0
  157.9600  213.7180  150.2930 C   0  0  1  0  0  3  0  0  0  0  0  0
  160.3610  213.6240  150.4240 O   0  0  0  0  0  0  0  0  0  0  0  0
  159.3540  213.3310  148.2580 C   0  0  0  0  0  2  0  0  0  0  0  0
  160.4930  213.9590  149.0630 C   0  0  2  0  0  3  0  0  0  0  0  0
  156.7210  214.4180  150.8290 C   0  0  0  0  0  2  0  0  0  0  0  0
  155.4710  214.4030  152.8260 O   0  0  0  0  0  0  0  0  0  0  0  0
  156.5240  214.1110  152.2800 C   0  0  0  0  0  0  0  0  0  0  0  0
  157.6180  213.4650  153.0650 C   0  0  0  0  0  2  0  0  0  0  0  0
  157.2150  213.3160  154.4530 N   0  0  0  0  0  2  0  0  0  0  0  0
  156.7430  212.0030  154.5940 N   0  0  0  0  0  2  0  0  0  0  0  0
  157.7630  211.2630  155.3220 C   0  0  0  0  0  2  0  0  0  0  0  0
  161.2230  208.2660  155.7370 C   0  0  0  0  0  2  0  0  0  0  0  0
  159.9790  212.2570  156.2490 C   0  0  1  0  0  3  0  0  0  0  0  0
  161.3920  209.4560  154.8210 C   0  0  1  0  0  0  0  0  0  0  0  0
  159.1440  211.8330  155.0150 C   0  0  1  0  0  3  0  0  0  0  0  0
  160.0820  211.1160  157.2610 C   0  0  0  0  0  2  0  0  0  0  0  0
  162.0100  210.7010  155.5130 C   0  0  0  0  0  2  0  0  0  0  0  0
  159.8380  211.1790  153.8190 C   0  0  0  0  0  2  0  0  0  0  0  0
  160.1700  209.6810  153.9450 C   0  0  2  0  0  3  0  0  0  0  0  0
  161.3360  211.6100  156.5760 C   0  0  1  0  0  3  0  0  0  0  0  0
  160.0120  209.0810  155.3350 C   0  0  1  0  0  3  0  0  0  0  0  0
  161.2840  210.7630  147.5530 C   0  0  0  0  0  2  0  0  0  0  0  0
  162.1920  210.4250  148.7220 C   0  0  0  0  0  2  0  0  0  0  0  0
  161.8000  209.0920  149.3370 C   0  0  2  0  0  3  0  0  0  0  0  0
  162.3200  208.9970  150.7700 C   0  0  2  0  0  3  0  0  0  0  0  0
  161.6090  207.9210  151.5750 C   0  0  0  0  0  1  0  0  0  0  0  0
  162.1900  210.2290  151.4140 O   0  0  0  0  0  1  0  0  0  0  0  0
  162.2610  208.0060  148.5400 O   0  0  0  0  0  0  0  0  0  0  0  0
  161.5230  206.8320  148.3720 C   0  0  0  0  0  0  0  0  0  0  0  0
  160.2800  206.8560  148.5780 O   0  0  0  0  0  0  0  0  0  0  0  0
  162.1910  205.5490  147.9630 C   0  0  2  0  0  3  0  0  0  0  0  0
  161.4940  203.8020  146.4930 O   0  0  0  0  0  0  0  0  0  0  0  0
  162.8990  205.7190  146.6540 C   0  0  0  0  0  2  0  0  0  0  0  0
  161.1760  204.4430  147.7060 C   0  0  1  0  0  3  0  0  0  0  0  0
  162.2330  204.7230  145.7300 C   0  0  2  0  0  3  0  0  0  0  0  0
  161.3480  205.4120  144.8020 N   0  0  0  0  0  2  0  0  0  0  0  0
  160.2620  204.4970  144.4970 C   0  0  0  0  0  1  0  0  0  0  0  0
  161.1070  203.4040  148.8570 C   0  0  1  0  0  0  0  0  0  0  0  0
  159.7810  203.3360  149.2890 O   0  0  0  0  0  1  0  0  0  0  0  0
  160.8630  200.8630  149.2150 C   0  0  0  0  0  1  0  0  0  0  0  0
  161.4820  201.9820  148.3900 C   0  0  0  0  0  2  0  0  0  0  0  0
  161.8870  203.7920  149.9800 O   0  0  0  0  0  0  0  0  0  0  0  0
  161.0760  204.3250  150.9990 C   0  0  0  0  0  2  0  0  0  0  0  0
  160.8320  203.2670  152.0560 C   0  0  0  0  0  1  0  0  0  0  0  0
  160.8610  213.6260  144.0090 C   0  0  0  0  0  2  0  0  0  0  0  0
  162.0640  211.9950  142.7530 F   0  0  0  0  0  0  0  0  0  0  0  0
  159.8700  211.6340  143.1500 F   0  0  0  0  0  0  0  0  0  0  0  0
  160.8270  212.5960  142.8860 C   0  0  0  0  0  0  0  0  0  0  0  0
  160.5090  213.2350  141.7040 F   0  0  0  0  0  0  0  0  0  0  0  0
  1  3  2  0  0  0  0
  2  1  2  0  0  0  0
  3 29  1  0  0  0  0
  3  5  1  0  0  0  0
  4  2  1  0  0  0  0
  6  8  1  0  0  0  0
  8 12  1  1  0  0  0
  8  7  1  0  0  0  0
  9  7  1  0  0  0  0
 10  6  1  0  0  0  0
 10 11  1  0  0  0  0
 11  5  1  6  0  0  0
 11  9  1  0  0  0  0
 12 14  1  0  0  0  0
 14 13  2  0  0  0  0
 14 15  1  0  0  0  0
 15 16  1  0  0  0  0
 16 17  1  0  0  0  0
 17 18  1  0  0  0  0
 20 27  1  0  0  0  0
 20 23  1  1  0  0  0
 21 28  1  0  0  0  0
 21 24  1  1  0  0  0
 21 19  1  0  0  0  0
 22 18  1  1  0  0  0
 22 20  1  0  0  0  0
 25 22  1  0  0  0  0
 26 25  1  1  0  0  0
 26 21  1  0  0  0  0
 26 28  1  0  0  0  0
 27 24  1  6  0  0  0
 27 23  1  0  0  0  0
 28 19  1  6  0  0  0
 29 30  1  0  0  0  0
 31 30  1  6  0  0  0
 31 32  1  0  0  0  0
 32 34  1  0  0  0  0
 32 33  1  1  0  0  0
 35 31  1  0  0  0  0
 36 35  1  0  0  0  0
 36 37  2  0  0  0  0
 38 36  1  6  0  0  0
 39 41  1  0  0  0  0
 40 38  1  0  0  0  0
 41 38  1  0  0  0  0
 41 45  1  1  0  0  0
 42 43  1  6  0  0  0
 42 39  1  0  0  0  0
 42 40  1  0  0  0  0
 44 43  1  0  0  0  0
 45 46  1  1  0  0  0
 45 49  1  0  0  0  0
 48 45  1  0  0  0  0
 48 47  1  0  0  0  0
 49 50  1  0  0  0  0
 50 51  1  0  0  0  0
 52  2  1  0  0  0  0
 53 55  1  0  0  0  0
 55 54  1  0  0  0  0
 55 52  1  0  0  0  0
 56 55  1  0  0  0  0
M  END
>  <MODEL>
2

>  <REMARK>
 VINA RESULT:      -4.3      4.121      9.544
  Name = 
  23 active torsions:
  status: ('A' for Active; 'I' for Inactive)
    1  A    between atoms: C_1  and  C_33
    2  A    between atoms: C_1  and  C_47
    3  A    between atoms: C_2  and  N_38
    4  A    between atoms: C_2  and  C_53
    5  A    between atoms: N_4  and  C_55
    6  A    between atoms: C_6  and  C_7
    7  A    between atoms: C_6  and  O_50
    8  A    between atoms: N_9  and  N_38
    9  A    between atoms: N_9  and  C_43
   10  A    between atoms: O_10  and  C_29
   11  A    between atoms: O_10  and  C_30
   12  A    between atoms: C_11  and  C_32
   13  A    between atoms: C_11  and  C_46
   14  A    between atoms: C_12  and  C_23
   15  A    between atoms: C_12  and  C_53
   16  A    between atoms: C_13  and  C_42
   17  A    between atoms: C_24  and  C_43
   18  A    between atoms: C_30  and  C_31
   19  A    between atoms: C_30  and  C_56
   20  A    between atoms: C_33  and  S_40
   21  A    between atoms: S_40  and  C_52
   22  A    between atoms: C_42  and  C_47
   23  A    between atoms: C_42  and  O_50
                            x       y       z     vdW  Elec       q    Type
                         _______ _______ _______ _____ _____    ______ ____

>  <TORSDO>
F 23

$$$$
=
 OpenBabel11072412303D

 56 61  0  0  1  0  0  0  0  0999 V2000
  161.4040  210.2090  153.5940 C   0  0  0  0  0  0  0  0  0  0  0  0
  161.3140  210.5470  154.8490 C   0  0  0  0  0  0  0  0  0  0  0  0
  161.4970  209.8870  152.3340 C   0  0  0  0  0  0  0  0  0  0  0  0
  161.8070  209.7000  155.8330 O   0  0  0  0  0  1  0  0  0  0  0  0
  162.7900  210.6090  151.3240 S   0  0  0  0  0  0  0  0  0  0  0  0
  160.2630  212.9980  149.1330 C   0  0  0  0  0  2  0  0  0  0  0  0
  161.2500  211.1500  147.7880 C   0  0  0  0  0  2  0  0  0  0  0  0
  160.8180  212.6200  147.7660 C   0  0  1  0  0  3  0  0  0  0  0  0
  162.2490  210.9610  148.7620 O   0  0  0  0  0  0  0  0  0  0  0  0
  161.2430  212.5840  150.2270 C   0  0  0  0  0  2  0  0  0  0  0  0
  161.6340  211.1200  150.0180 C   0  0  2  0  0  3  0  0  0  0  0  0
  159.7650  212.8610  146.6960 C   0  0  0  0  0  2  0  0  0  0  0  0
  159.8700  211.9140  144.5420 O   0  0  0  0  0  0  0  0  0  0  0  0
  160.3540  212.7120  145.3290 C   0  0  0  0  0  0  0  0  0  0  0  0
  161.5410  213.5260  144.9320 C   0  0  0  0  0  2  0  0  0  0  0  0
  161.6270  213.6110  143.4830 N   0  0  0  0  0  2  0  0  0  0  0  0
  162.6740  212.7620  143.0950 N   0  0  0  0  0  2  0  0  0  0  0  0
  162.1790  211.9610  141.9860 C   0  0  0  0  0  2  0  0  0  0  0  0
  160.7760  209.7350  138.2170 C   0  0  0  0  0  2  0  0  0  0  0  0
  162.9670  212.9950  139.7350 C   0  0  1  0  0  3  0  0  0  0  0  0
  160.3560  211.1730  138.4160 C   0  0  1  0  0  0  0  0  0  0  0  0
  161.8490  212.8580  140.7970 C   0  0  1  0  0  3  0  0  0  0  0  0
  163.4410  211.6230  139.2560 C   0  0  0  0  0  2  0  0  0  0  0  0
  161.3300  212.2060  137.7890 C   0  0  0  0  0  2  0  0  0  0  0  0
  160.3860  212.7950  140.3540 C   0  0  0  0  0  2  0  0  0  0  0  0
  159.8780  211.4370  139.8340 C   0  0  2  0  0  3  0  0  0  0  0  0
  162.7640  212.5530  138.2760 C   0  0  1  0  0  3  0  0  0  0  0  0
  160.9460  210.3850  139.5740 C   0  0  1  0  0  3  0  0  0  0  0  0
  160.6220  208.8240  151.7740 C   0  0  0  0  0  2  0  0  0  0  0  0
  161.4400  207.8300  150.9720 C   0  0  0  0  0  2  0  0  0  0  0  0
  160.7700  206.4660  150.9640 C   0  0  2  0  0  3  0  0  0  0  0  0
  161.6990  205.4160  151.5690 C   0  0  2  0  0  3  0  0  0  0  0  0
  161.1200  204.7830  152.8240 C   0  0  0  0  0  1  0  0  0  0  0  0
  162.9430  205.9780  151.8560 O   0  0  0  0  0  1  0  0  0  0  0  0
  160.3590  206.1060  149.6490 O   0  0  0  0  0  0  0  0  0  0  0  0
  161.0770  205.2060  148.8580 C   0  0  0  0  0  0  0  0  0  0  0  0
  162.2450  205.5080  148.4930 O   0  0  0  0  0  0  0  0  0  0  0  0
  160.4730  203.8970  148.4320 C   0  0  2  0  0  3  0  0  0  0  0  0
  161.4140  201.7120  148.2330 O   0  0  0  0  0  0  0  0  0  0  0  0
  160.0630  203.0930  149.6270 C   0  0  0  0  0  2  0  0  0  0  0  0
  161.4870  203.0180  147.7110 C   0  0  1  0  0  3  0  0  0  0  0  0
  160.8790  201.8230  149.5290 C   0  0  2  0  0  3  0  0  0  0  0  0
  161.9600  201.8440  150.5040 N   0  0  0  0  0  2  0  0  0  0  0  0
  161.3470  201.7490  151.8160 C   0  0  0  0  0  1  0  0  0  0  0  0
  161.2810  202.9900  146.1730 C   0  0  1  0  0  0  0  0  0  0  0  0
  162.5010  203.3130  145.5760 O   0  0  0  0  0  1  0  0  0  0  0  0
  159.5780  201.5220  144.9130 C   0  0  0  0  0  1  0  0  0  0  0  0
  160.9050  201.5860  145.6550 C   0  0  0  0  0  2  0  0  0  0  0  0
  160.3390  203.9610  145.7380 O   0  0  0  0  0  0  0  0  0  0  0  0
  160.8560  204.7280  144.6770 C   0  0  0  0  0  2  0  0  0  0  0  0
  161.4870  205.9910  145.2280 C   0  0  0  0  0  1  0  0  0  0  0  0
  160.6540  211.8370  155.2180 C   0  0  0  0  0  2  0  0  0  0  0  0
  158.5820  211.7900  154.0400 F   0  0  0  0  0  0  0  0  0  0  0  0
  158.7970  210.4930  155.8770 F   0  0  0  0  0  0  0  0  0  0  0  0
  159.1380  211.7030  155.3020 C   0  0  0  0  0  0  0  0  0  0  0  0
  158.6430  212.7280  156.0830 F   0  0  0  0  0  0  0  0  0  0  0  0
  1  2  2  0  0  0  0
  2 52  1  0  0  0  0
  2  4  1  0  0  0  0
  3  1  2  0  0  0  0
  5  3  1  0  0  0  0
  6 10  1  0  0  0  0
  7  9  1  0  0  0  0
  8 12  1  6  0  0  0
  8  7  1  0  0  0  0
  8  6  1  0  0  0  0
  9 11  1  0  0  0  0
 11 10  1  0  0  0  0
 11  5  1  1  0  0  0
 13 14  2  0  0  0  0
 14 12  1  0  0  0  0
 15 14  1  0  0  0  0
 16 15  1  0  0  0  0
 17 16  1  0  0  0  0
 18 17  1  0  0  0  0
 19 21  1  0  0  0  0
 20 23  1  1  0  0  0
 20 22  1  0  0  0  0
 21 24  1  6  0  0  0
 21 28  1  0  0  0  0
 21 26  1  0  0  0  0
 22 18  1  6  0  0  0
 25 22  1  0  0  0  0
 26 25  1  1  0  0  0
 27 24  1  1  0  0  0
 27 23  1  0  0  0  0
 27 20  1  0  0  0  0
 28 19  1  6  0  0  0
 28 26  1  0  0  0  0
 29  3  1  0  0  0  0
 30 29  1  0  0  0  0
 31 30  1  6  0  0  0
 31 32  1  0  0  0  0
 32 34  1  0  0  0  0
 32 33  1  1  0  0  0
 35 31  1  0  0  0  0
 36 35  1  0  0  0  0
 37 36  2  0  0  0  0
 38 36  1  1  0  0  0
 38 40  1  0  0  0  0
 39 42  1  0  0  0  0
 41 45  1  6  0  0  0
 41 39  1  0  0  0  0
 41 38  1  0  0  0  0
 42 40  1  0  0  0  0
 42 43  1  1  0  0  0
 43 44  1  0  0  0  0
 45 46  1  6  0  0  0
 47 48  1  0  0  0  0
 48 45  1  0  0  0  0
 49 45  1  0  0  0  0
 50 51  1  0  0  0  0
 50 49  1  0  0  0  0
 52 55  1  0  0  0  0
 53 55  1  0  0  0  0
 55 54  1  0  0  0  0
 55 56  1  0  0  0  0
M  END
>  <MODEL>
3

>  <REMARK>
 VINA RESULT:      -4.1      1.702      2.749
  Name = 
  23 active torsions:
  status: ('A' for Active; 'I' for Inactive)
    1  A    between atoms: C_1  and  C_33
    2  A    between atoms: C_1  and  C_47
    3  A    between atoms: C_2  and  N_38
    4  A    between atoms: C_2  and  C_53
    5  A    between atoms: N_4  and  C_55
    6  A    between atoms: C_6  and  C_7
    7  A    between atoms: C_6  and  O_50
    8  A    between atoms: N_9  and  N_38
    9  A    between atoms: N_9  and  C_43
   10  A    between atoms: O_10  and  C_29
   11  A    between atoms: O_10  and  C_30
   12  A    between atoms: C_11  and  C_32
   13  A    between atoms: C_11  and  C_46
   14  A    between atoms: C_12  and  C_23
   15  A    between atoms: C_12  and  C_53
   16  A    between atoms: C_13  and  C_42
   17  A    between atoms: C_24  and  C_43
   18  A    between atoms: C_30  and  C_31
   19  A    between atoms: C_30  and  C_56
   20  A    between atoms: C_33  and  S_40
   21  A    between atoms: S_40  and  C_52
   22  A    between atoms: C_42  and  C_47
   23  A    between atoms: C_42  and  O_50
                            x       y       z     vdW  Elec       q    Type
                         _______ _______ _______ _____ _____    ______ ____

>  <TORSDO>
F 23

$$$$
=
 OpenBabel11072412303D

 56 61  0  0  1  0  0  0  0  0999 V2000
  161.1430  207.2130  150.2600 C   0  0  0  0  0  0  0  0  0  0  0  0
  160.8900  206.2520  149.4170 C   0  0  0  0  0  0  0  0  0  0  0  0
  161.4140  208.1710  151.1010 C   0  0  0  0  0  0  0  0  0  0  0  0
  159.8160  206.3620  148.5430 O   0  0  0  0  0  1  0  0  0  0  0  0
  162.7310  209.3310  150.7360 S   0  0  0  0  0  0  0  0  0  0  0  0
  161.0310  212.6720  149.0520 C   0  0  0  0  0  2  0  0  0  0  0  0
  161.0130  210.7080  147.5240 C   0  0  0  0  0  2  0  0  0  0  0  0
  161.1860  212.2280  147.6040 C   0  0  1  0  0  3  0  0  0  0  0  0
  161.9930  210.0740  148.3100 O   0  0  0  0  0  0  0  0  0  0  0  0
  161.9250  211.8290  149.9560 C   0  0  0  0  0  2  0  0  0  0  0  0
  161.6830  210.3490  149.6560 C   0  0  2  0  0  3  0  0  0  0  0  0
  160.1620  212.9370  146.7330 C   0  0  0  0  0  2  0  0  0  0  0  0
  161.4630  213.9420  145.0460 O   0  0  0  0  0  0  0  0  0  0  0  0
  160.6590  213.0680  145.3280 C   0  0  0  0  0  0  0  0  0  0  0  0
  160.1610  212.1410  144.2680 C   0  0  0  0  0  2  0  0  0  0  0  0
  160.7990  212.4460  142.9980 N   0  0  0  0  0  2  0  0  0  0  0  0
  160.5540  211.3520  142.1550 N   0  0  0  0  0  2  0  0  0  0  0  0
  159.6930  211.8290  141.0840 C   0  0  0  0  0  2  0  0  0  0  0  0
  159.9310  208.7120  137.7130 C   0  0  0  0  0  2  0  0  0  0  0  0
  161.9820  211.6990  139.8590 C   0  0  1  0  0  3  0  0  0  0  0  0
  160.1420  210.1700  137.3770 C   0  0  1  0  0  0  0  0  0  0  0  0
  160.5330  212.2480  139.8820 C   0  0  1  0  0  3  0  0  0  0  0  0
  161.9970  210.1800  140.0200 C   0  0  0  0  0  2  0  0  0  0  0  0
  161.6250  210.6240  137.4490 C   0  0  0  0  0  2  0  0  0  0  0  0
  159.7440  212.3590  138.5760 C   0  0  0  0  0  2  0  0  0  0  0  0
  159.1070  211.0650  138.0390 C   0  0  2  0  0  3  0  0  0  0  0  0
  162.4910  210.7890  138.7280 C   0  0  1  0  0  3  0  0  0  0  0  0
  159.5470  209.7760  138.7200 C   0  0  1  0  0  3  0  0  0  0  0  0
  160.5460  208.3820  152.2890 C   0  0  0  0  0  2  0  0  0  0  0  0
  160.6790  209.8050  152.7990 C   0  0  0  0  0  2  0  0  0  0  0  0
  160.5760  209.8430  154.3150 C   0  0  2  0  0  3  0  0  0  0  0  0
  160.7800  208.4450  154.8950 C   0  0  2  0  0  3  0  0  0  0  0  0
  159.5150  207.8890  155.5280 C   0  0  0  0  0  1  0  0  0  0  0  0
  161.8100  208.4590  155.8370 O   0  0  0  0  0  1  0  0  0  0  0  0
  159.3340  210.4050  154.7280 O   0  0  0  0  0  0  0  0  0  0  0  0
  159.2290  211.2750  155.8160 C   0  0  0  0  0  0  0  0  0  0  0  0
  159.9480  211.0750  156.8310 O   0  0  0  0  0  0  0  0  0  0  0  0
  158.2670  212.4310  155.7940 C   0  0  2  0  0  3  0  0  0  0  0  0
  155.9100  212.5200  155.4270 O   0  0  0  0  0  0  0  0  0  0  0  0
  157.5860  212.5730  157.1200 C   0  0  0  0  0  2  0  0  0  0  0  0
  157.1320  212.1990  154.8040 C   0  0  1  0  0  3  0  0  0  0  0  0
  156.1160  212.3920  156.8120 C   0  0  2  0  0  3  0  0  0  0  0  0
  155.6680  211.0790  157.2540 N   0  0  0  0  0  2  0  0  0  0  0  0
  154.2300  211.0340  157.0540 C   0  0  0  0  0  1  0  0  0  0  0  0
  157.2940  213.0160  153.4950 C   0  0  1  0  0  0  0  0  0  0  0  0
  157.8200  214.2630  153.8350 O   0  0  0  0  0  1  0  0  0  0  0  0
  159.5770  213.1770  152.3100 C   0  0  0  0  0  1  0  0  0  0  0  0
  158.3020  212.3730  152.5200 C   0  0  0  0  0  2  0  0  0  0  0  0
  156.0480  213.2560  152.8530 O   0  0  0  0  0  0  0  0  0  0  0  0
  156.0830  214.4520  152.1120 C   0  0  0  0  0  2  0  0  0  0  0  0
  155.9760  214.1330  150.6340 C   0  0  0  0  0  1  0  0  0  0  0  0
  161.7450  205.0270  149.4180 C   0  0  0  0  0  2  0  0  0  0  0  0
  161.8690  202.7690  150.1760 F   0  0  0  0  0  0  0  0  0  0  0  0
  160.2610  204.1000  151.0400 F   0  0  0  0  0  0  0  0  0  0  0  0
  160.9860  203.7970  149.9030 C   0  0  0  0  0  0  0  0  0  0  0  0
  160.1170  203.3900  148.9100 F   0  0  0  0  0  0  0  0  0  0  0  0
  1  3  2  0  0  0  0
  2 52  1  0  0  0  0
  2  1  2  0  0  0  0
  3 29  1  0  0  0  0
  4  2  1  0  0  0  0
  5  3  1  0  0  0  0
  6 10  1  0  0  0  0
  7  8  1  0  0  0  0
  7  9  1  0  0  0  0
  8 12  1  6  0  0  0
  8  6  1  0  0  0  0
  9 11  1  0  0  0  0
 11 10  1  0  0  0  0
 11  5  1  1  0  0  0
 13 14  2  0  0  0  0
 14 12  1  0  0  0  0
 15 14  1  0  0  0  0
 16 15  1  0  0  0  0
 17 16  1  0  0  0  0
 18 17  1  0  0  0  0
 20 22  1  0  0  0  0
 20 23  1  1  0  0  0
 21 24  1  1  0  0  0
 21 19  1  0  0  0  0
 21 26  1  0  0  0  0
 21 28  1  0  0  0  0
 22 18  1  1  0  0  0
 25 22  1  0  0  0  0
 26 25  1  1  0  0  0
 26 28  1  0  0  0  0
 27 24  1  6  0  0  0
 27 20  1  0  0  0  0
 27 23  1  0  0  0  0
 28 19  1  6  0  0  0
 29 30  1  0  0  0  0
 31 30  1  6  0  0  0
 31 35  1  0  0  0  0
 31 32  1  0  0  0  0
 32 33  1  1  0  0  0
 32 34  1  0  0  0  0
 35 36  1  0  0  0  0
 36 37  2  0  0  0  0
 38 36  1  1  0  0  0
 38 40  1  0  0  0  0
 39 42  1  0  0  0  0
 41 45  1  6  0  0  0
 41 39  1  0  0  0  0
 41 38  1  0  0  0  0
 42 40  1  0  0  0  0
 42 43  1  6  0  0  0
 44 43  1  0  0  0  0
 45 46  1  1  0  0  0
 47 48  1  0  0  0  0
 48 45  1  0  0  0  0
 49 45  1  0  0  0  0
 50 49  1  0  0  0  0
 51 50  1  0  0  0  0
 52 55  1  0  0  0  0
 55 53  1  0  0  0  0
 55 54  1  0  0  0  0
 56 55  1  0  0  0  0
M  END
>  <MODEL>
4

>  <REMARK>
 VINA RESULT:      -3.8      3.348      6.813
  Name = 
  23 active torsions:
  status: ('A' for Active; 'I' for Inactive)
    1  A    between atoms: C_1  and  C_33
    2  A    between atoms: C_1  and  C_47
    3  A    between atoms: C_2  and  N_38
    4  A    between atoms: C_2  and  C_53
    5  A    between atoms: N_4  and  C_55
    6  A    between atoms: C_6  and  C_7
    7  A    between atoms: C_6  and  O_50
    8  A    between atoms: N_9  and  N_38
    9  A    between atoms: N_9  and  C_43
   10  A    between atoms: O_10  and  C_29
   11  A    between atoms: O_10  and  C_30
   12  A    between atoms: C_11  and  C_32
   13  A    between atoms: C_11  and  C_46
   14  A    between atoms: C_12  and  C_23
   15  A    between atoms: C_12  and  C_53
   16  A    between atoms: C_13  and  C_42
   17  A    between atoms: C_24  and  C_43
   18  A    between atoms: C_30  and  C_31
   19  A    between atoms: C_30  and  C_56
   20  A    between atoms: C_33  and  S_40
   21  A    between atoms: S_40  and  C_52
   22  A    between atoms: C_42  and  C_47
   23  A    between atoms: C_42  and  O_50
                            x       y       z     vdW  Elec       q    Type
                         _______ _______ _______ _____ _____    ______ ____

>  <TORSDO>
F 23

$$$$
=
 OpenBabel11072412303D

 56 61  0  0  1  0  0  0  0  0999 V2000
  161.3170  204.3600  150.9770 C   0  0  0  0  0  0  0  0  0  0  0  0
  161.2820  203.0580  151.0170 C   0  0  0  0  0  0  0  0  0  0  0  0
  161.3500  205.6620  150.9210 C   0  0  0  0  0  0  0  0  0  0  0  0
  160.7460  202.4120  152.1230 O   0  0  0  0  0  1  0  0  0  0  0  0
  160.1170  206.5430  149.9630 S   0  0  0  0  0  0  0  0  0  0  0  0
  160.4960  205.9980  145.9080 C   0  0  0  0  0  2  0  0  0  0  0  0
  162.5260  205.3000  147.1670 C   0  0  0  0  0  2  0  0  0  0  0  0
  162.0180  205.9650  145.8840 C   0  0  1  0  0  3  0  0  0  0  0  0
  162.0960  206.0360  148.2880 O   0  0  0  0  0  0  0  0  0  0  0  0
  160.0070  206.5850  147.2280 C   0  0  0  0  0  2  0  0  0  0  0  0
  160.7020  205.8630  148.3830 C   0  0  2  0  0  3  0  0  0  0  0  0
  162.5010  205.2120  144.6550 C   0  0  0  0  0  2  0  0  0  0  0  0
  160.6360  204.8200  143.2700 O   0  0  0  0  0  0  0  0  0  0  0  0
  161.6260  205.5040  143.4760 C   0  0  0  0  0  0  0  0  0  0  0  0
  161.9720  206.6180  142.5450 C   0  0  0  0  0  2  0  0  0  0  0  0
  161.9060  206.1570  141.1680 N   0  0  0  0  0  2  0  0  0  0  0  0
  162.5030  207.1540  140.3830 N   0  0  0  0  0  2  0  0  0  0  0  0
  161.4270  207.9890  139.8700 C   0  0  0  0  0  2  0  0  0  0  0  0
  158.7900  210.6860  137.2430 C   0  0  0  0  0  2  0  0  0  0  0  0
  162.7060  209.7990  138.5120 C   0  0  1  0  0  3  0  0  0  0  0  0
  159.6160  211.3160  138.3400 C   0  0  1  0  0  0  0  0  0  0  0  0
  161.8870  209.4400  139.7770 C   0  0  1  0  0  3  0  0  0  0  0  0
  161.9620  209.3890  137.2410 C   0  0  0  0  0  2  0  0  0  0  0  0
  161.0290  211.7690  137.8830 C   0  0  0  0  0  2  0  0  0  0  0  0
  160.8890  210.4500  140.3450 C   0  0  0  0  0  2  0  0  0  0  0  0
  159.5210  210.5410  139.6440 C   0  0  2  0  0  3  0  0  0  0  0  0
  162.2250  210.8550  137.5020 C   0  0  1  0  0  3  0  0  0  0  0  0
  159.4070  209.8110  138.3130 C   0  0  1  0  0  3  0  0  0  0  0  0
  162.3200  206.4160  151.7570 C   0  0  0  0  0  2  0  0  0  0  0  0
  162.7170  207.7110  151.0730 C   0  0  0  0  0  2  0  0  0  0  0  0
  161.6400  208.7660  151.2550 C   0  0  2  0  0  3  0  0  0  0  0  0
  161.6390  209.7320  150.0720 C   0  0  2  0  0  3  0  0  0  0  0  0
  162.3430  209.1570  148.8540 C   0  0  0  0  0  1  0  0  0  0  0  0
  162.2350  210.9400  150.4340 O   0  0  0  0  0  1  0  0  0  0  0  0
  161.8020  209.4540  152.4920 O   0  0  0  0  0  0  0  0  0  0  0  0
  160.7430  210.0960  153.1380 C   0  0  0  0  0  0  0  0  0  0  0  0
  159.6930  210.3490  152.4890 O   0  0  0  0  0  0  0  0  0  0  0  0
  160.8460  210.4970  154.5840 C   0  0  2  0  0  3  0  0  0  0  0  0
  159.5700  209.8580  156.4970 O   0  0  0  0  0  0  0  0  0  0  0  0
  161.6270  209.4790  155.3570 C   0  0  0  0  0  2  0  0  0  0  0  0
  159.4810  210.5240  155.2590 C   0  0  1  0  0  3  0  0  0  0  0  0
  160.6600  208.9740  156.4040 C   0  0  2  0  0  3  0  0  0  0  0  0
  160.1830  207.6450  156.0480 N   0  0  0  0  0  2  0  0  0  0  0  0
  160.2110  206.8470  157.2610 C   0  0  0  0  0  1  0  0  0  0  0  0
  158.9340  211.9610  155.4650 C   0  0  1  0  0  0  0  0  0  0  0  0
  157.5410  211.9000  155.3850 O   0  0  0  0  0  1  0  0  0  0  0  0
  160.5630  213.3080  156.9390 C   0  0  0  0  0  1  0  0  0  0  0  0
  159.2630  212.5220  156.8640 C   0  0  0  0  0  2  0  0  0  0  0  0
  159.3660  212.8520  154.4460 O   0  0  0  0  0  0  0  0  0  0  0  0
  158.2690  213.4730  153.8180 C   0  0  0  0  0  2  0  0  0  0  0  0
  158.7200  214.0880  152.5080 C   0  0  0  0  0  1  0  0  0  0  0  0
  161.8450  202.2710  149.8770 C   0  0  0  0  0  2  0  0  0  0  0  0
  160.8000  200.4740  148.7100 F   0  0  0  0  0  0  0  0  0  0  0  0
  159.5200  202.2240  149.3450 F   0  0  0  0  0  0  0  0  0  0  0  0
  160.7680  201.8440  148.8870 C   0  0  0  0  0  0  0  0  0  0  0  0
  161.0090  202.4590  147.6740 F   0  0  0  0  0  0  0  0  0  0  0  0
  1  2  2  0  0  0  0
  2  4  1  0  0  0  0
  3  1  2  0  0  0  0
  3 29  1  0  0  0  0
  5  3  1  0  0  0  0
  6 10  1  0  0  0  0
  7  9  1  0  0  0  0
  8 12  1  6  0  0  0
  8  6  1  0  0  0  0
  8  7  1  0  0  0  0
  9 11  1  0  0  0  0
 10 11  1  0  0  0  0
 11  5  1  1  0  0  0
 13 14  2  0  0  0  0
 14 12  1  0  0  0  0
 15 14  1  0  0  0  0
 16 15  1  0  0  0  0
 17 16  1  0  0  0  0
 18 17  1  0  0  0  0
 20 23  1  6  0  0  0
 20 22  1  0  0  0  0
 21 19  1  6  0  0  0
 21 26  1  0  0  0  0
 22 18  1  6  0  0  0
 22 25  1  0  0  0  0
 24 21  1  0  0  0  0
 26 25  1  6  0  0  0
 27 23  1  6  0  0  0
 27 24  1  0  0  0  0
 27 20  1  0  0  0  0
 28 19  1  1  0  0  0
 28 21  1  0  0  0  0
 28 26  1  0  0  0  0
 30 29  1  0  0  0  0
 31 30  1  6  0  0  0
 31 35  1  0  0  0  0
 32 33  1  6  0  0  0
 32 34  1  0  0  0  0
 32 31  1  0  0  0  0
 35 36  1  0  0  0  0
 37 36  2  0  0  0  0
 38 36  1  6  0  0  0
 38 41  1  0  0  0  0
 38 40  1  0  0  0  0
 40 42  1  0  0  0  0
 41 45  1  1  0  0  0
 41 39  1  0  0  0  0
 42 43  1  6  0  0  0
 42 39  1  0  0  0  0
 43 44  1  0  0  0  0
 45 46  1  6  0  0  0
 45 48  1  0  0  0  0
 48 47  1  0  0  0  0
 49 45  1  0  0  0  0
 50 49  1  0  0  0  0
 51 50  1  0  0  0  0
 52  2  1  0  0  0  0
 53 55  1  0  0  0  0
 55 54  1  0  0  0  0
 55 52  1  0  0  0  0
 56 55  1  0  0  0  0
M  END
>  <MODEL>
5

>  <REMARK>
 VINA RESULT:      -3.7      3.979      7.706
  Name = 
  23 active torsions:
  status: ('A' for Active; 'I' for Inactive)
    1  A    between atoms: C_1  and  C_33
    2  A    between atoms: C_1  and  C_47
    3  A    between atoms: C_2  and  N_38
    4  A    between atoms: C_2  and  C_53
    5  A    between atoms: N_4  and  C_55
    6  A    between atoms: C_6  and  C_7
    7  A    between atoms: C_6  and  O_50
    8  A    between atoms: N_9  and  N_38
    9  A    between atoms: N_9  and  C_43
   10  A    between atoms: O_10  and  C_29
   11  A    between atoms: O_10  and  C_30
   12  A    between atoms: C_11  and  C_32
   13  A    between atoms: C_11  and  C_46
   14  A    between atoms: C_12  and  C_23
   15  A    between atoms: C_12  and  C_53
   16  A    between atoms: C_13  and  C_42
   17  A    between atoms: C_24  and  C_43
   18  A    between atoms: C_30  and  C_31
   19  A    between atoms: C_30  and  C_56
   20  A    between atoms: C_33  and  S_40
   21  A    between atoms: S_40  and  C_52
   22  A    between atoms: C_42  and  C_47
   23  A    between atoms: C_42  and  O_50
                            x       y       z     vdW  Elec       q    Type
                         _______ _______ _______ _____ _____    ______ ____

>  <TORSDO>
F 23

$$$$
=
 OpenBabel11072412303D

 56 61  0  0  1  0  0  0  0  0999 V2000
  161.1870  204.4700  151.2770 C   0  0  0  0  0  0  0  0  0  0  0  0
  161.2400  203.1780  151.4370 C   0  0  0  0  0  0  0  0  0  0  0  0
  161.1310  205.7600  151.1000 C   0  0  0  0  0  0  0  0  0  0  0  0
  160.7160  202.6000  152.5850 O   0  0  0  0  0  1  0  0  0  0  0  0
  159.8710  206.4580  150.0320 S   0  0  0  0  0  0  0  0  0  0  0  0
  162.0430  204.4990  147.1460 C   0  0  0  0  0  2  0  0  0  0  0  0
  160.9620  206.5730  146.2950 C   0  0  0  0  0  2  0  0  0  0  0  0
  161.3420  205.1290  145.9510 C   0  0  1  0  0  3  0  0  0  0  0  0
  160.0920  206.5850  147.4020 O   0  0  0  0  0  0  0  0  0  0  0  0
  161.2140  204.7100  148.4090 C   0  0  0  0  0  2  0  0  0  0  0  0
  160.8470  206.1900  148.5230 C   0  0  2  0  0  3  0  0  0  0  0  0
  162.2520  205.0830  144.7340 C   0  0  0  0  0  2  0  0  0  0  0  0
  160.4930  204.8050  143.1920 O   0  0  0  0  0  0  0  0  0  0  0  0
  161.4950  205.4340  143.4910 C   0  0  0  0  0  0  0  0  0  0  0  0
  161.9750  206.5400  142.6100 C   0  0  0  0  0  2  0  0  0  0  0  0
  161.9540  206.1160  141.2200 N   0  0  0  0  0  2  0  0  0  0  0  0
  162.4990  207.1700  140.4720 N   0  0  0  0  0  2  0  0  0  0  0  0
  161.4740  208.1980  140.3830 C   0  0  0  0  0  2  0  0  0  0  0  0
  159.7940  212.3980  141.2010 C   0  0  0  0  0  2  0  0  0  0  0  0
  160.8390  209.5660  138.2650 C   0  0  1  0  0  3  0  0  0  0  0  0
  161.0670  212.2640  140.3980 C   0  0  1  0  0  0  0  0  0  0  0  0
  161.8830  209.2610  139.3680 C   0  0  1  0  0  3  0  0  0  0  0  0
  159.4780  209.9020  138.8740 C   0  0  0  0  0  2  0  0  0  0  0  0
  160.8380  212.1600  138.8660 C   0  0  0  0  0  2  0  0  0  0  0  0
  162.7170  210.4000  139.9580 C   0  0  0  0  0  2  0  0  0  0  0  0
  162.0360  211.2750  141.0260 C   0  0  2  0  0  3  0  0  0  0  0  0
  160.2190  210.9630  138.0930 C   0  0  1  0  0  3  0  0  0  0  0  0
  160.5360  211.0790  141.1880 C   0  0  1  0  0  3  0  0  0  0  0  0
  162.0190  206.6560  151.8850 C   0  0  0  0  0  2  0  0  0  0  0  0
  162.6520  207.7000  150.9840 C   0  0  0  0  0  2  0  0  0  0  0  0
  161.8130  208.9670  150.9600 C   0  0  2  0  0  3  0  0  0  0  0  0
  161.8200  209.5800  149.5610 C   0  0  2  0  0  3  0  0  0  0  0  0
  162.6470  208.7690  148.5760 C   0  0  0  0  0  1  0  0  0  0  0  0
  162.2980  210.8900  149.6100 O   0  0  0  0  0  1  0  0  0  0  0  0
  162.2620  209.8960  151.9410 O   0  0  0  0  0  0  0  0  0  0  0  0
  161.6630  210.0090  153.1980 C   0  0  0  0  0  0  0  0  0  0  0  0
  162.3380  209.7330  154.2250 O   0  0  0  0  0  0  0  0  0  0  0  0
  160.2300  210.4420  153.3360 C   0  0  2  0  0  3  0  0  0  0  0  0
  159.2510  212.5980  153.6400 O   0  0  0  0  0  0  0  0  0  0  0  0
  159.6920  210.9090  152.0190 C   0  0  0  0  0  2  0  0  0  0  0  0
  160.0930  211.6510  154.2530 C   0  0  1  0  0  3  0  0  0  0  0  0
  159.3050  212.3520  152.2560 C   0  0  2  0  0  3  0  0  0  0  0  0
  160.2790  213.2400  151.6380 N   0  0  0  0  0  2  0  0  0  0  0  0
  159.8670  213.4230  150.2580 C   0  0  0  0  0  1  0  0  0  0  0  0
  159.5490  211.2870  155.6600 C   0  0  1  0  0  0  0  0  0  0  0  0
  159.5530  209.8950  155.7690 O   0  0  0  0  0  1  0  0  0  0  0  0
  161.8200  211.1460  156.8720 C   0  0  0  0  0  1  0  0  0  0  0  0
  160.4530  211.8110  156.7950 C   0  0  0  0  0  2  0  0  0  0  0  0
  158.2050  211.7100  155.8440 O   0  0  0  0  0  0  0  0  0  0  0  0
  157.3010  210.7030  155.4590 C   0  0  0  0  0  2  0  0  0  0  0  0
  155.9500  211.3240  155.1640 C   0  0  0  0  0  1  0  0  0  0  0  0
  161.8930  202.3330  150.3910 C   0  0  0  0  0  2  0  0  0  0  0  0
  160.7830  200.2230  150.4630 F   0  0  0  0  0  0  0  0  0  0  0  0
  159.6680  201.9900  149.6000 F   0  0  0  0  0  0  0  0  0  0  0  0
  160.9050  201.3840  149.7220 C   0  0  0  0  0  0  0  0  0  0  0  0
  161.3760  201.0650  148.4630 F   0  0  0  0  0  0  0  0  0  0  0  0
  1  2  2  0  0  0  0
  2  4  1  0  0  0  0
  3  1  2  0  0  0  0
  3 29  1  0  0  0  0
  5  3  1  0  0  0  0
  6 10  1  0  0  0  0
  7  9  1  0  0  0  0
  8 12  1  6  0  0  0
  8  7  1  0  0  0  0
  8  6  1  0  0  0  0
  9 11  1  0  0  0  0
 10 11  1  0  0  0  0
 11  5  1  1  0  0  0
 13 14  2  0  0  0  0
 14 12  1  0  0  0  0
 15 14  1  0  0  0  0
 16 15  1  0  0  0  0
 17 16  1  0  0  0  0
 18 17  1  0  0  0  0
 20 23  1  1  0  0  0
 20 22  1  0  0  0  0
 21 24  1  6  0  0  0
 21 26  1  0  0  0  0
 21 28  1  0  0  0  0
 21 19  1  0  0  0  0
 22 25  1  0  0  0  0
 22 18  1  1  0  0  0
 26 25  1  6  0  0  0
 26 28  1  0  0  0  0
 27 20  1  0  0  0  0
 27 24  1  1  0  0  0
 27 23  1  0  0  0  0
 28 19  1  1  0  0  0
 30 29  1  0  0  0  0
 31 30  1  6  0  0  0
 31 35  1  0  0  0  0
 32 33  1  6  0  0  0
 32 34  1  0  0  0  0
 32 31  1  0  0  0  0
 35 36  1  0  0  0  0
 36 37  2  0  0  0  0
 38 36  1  6  0  0  0
 38 41  1  0  0  0  0
 39 41  1  0  0  0  0
 40 42  1  0  0  0  0
 40 38  1  0  0  0  0
 41 45  1  1  0  0  0
 42 43  1  6  0  0  0
 42 39  1  0  0  0  0
 44 43  1  0  0  0  0
 45 46  1  1  0  0  0
 45 49  1  0  0  0  0
 45 48  1  0  0  0  0
 48 47  1  0  0  0  0
 50 49  1  0  0  0  0
 51 50  1  0  0  0  0
 52  2  1  0  0  0  0
 54 55  1  0  0  0  0
 55 52  1  0  0  0  0
 55 53  1  0  0  0  0
 56 55  1  0  0  0  0
M  END
>  <MODEL>
6

>  <REMARK>
 VINA RESULT:      -3.3      3.927      7.991
  Name = 
  23 active torsions:
  status: ('A' for Active; 'I' for Inactive)
    1  A    between atoms: C_1  and  C_33
    2  A    between atoms: C_1  and  C_47
    3  A    between atoms: C_2  and  N_38
    4  A    between atoms: C_2  and  C_53
    5  A    between atoms: N_4  and  C_55
    6  A    between atoms: C_6  and  C_7
    7  A    between atoms: C_6  and  O_50
    8  A    between atoms: N_9  and  N_38
    9  A    between atoms: N_9  and  C_43
   10  A    between atoms: O_10  and  C_29
   11  A    between atoms: O_10  and  C_30
   12  A    between atoms: C_11  and  C_32
   13  A    between atoms: C_11  and  C_46
   14  A    between atoms: C_12  and  C_23
   15  A    between atoms: C_12  and  C_53
   16  A    between atoms: C_13  and  C_42
   17  A    between atoms: C_24  and  C_43
   18  A    between atoms: C_30  and  C_31
   19  A    between atoms: C_30  and  C_56
   20  A    between atoms: C_33  and  S_40
   21  A    between atoms: S_40  and  C_52
   22  A    between atoms: C_42  and  C_47
   23  A    between atoms: C_42  and  O_50
                            x       y       z     vdW  Elec       q    Type
                         _______ _______ _______ _____ _____    ______ ____

>  <TORSDO>
F 23

$$$$
=
 OpenBabel11072412303D

 56 61  0  0  1  0  0  0  0  0999 V2000
  162.3580  205.8110  146.8600 C   0  0  0  0  0  0  0  0  0  0  0  0
  163.0500  205.0710  146.0410 C   0  0  0  0  0  0  0  0  0  0  0  0
  161.6530  206.5520  147.6690 C   0  0  0  0  0  0  0  0  0  0  0  0
  163.8980  204.0910  146.5400 O   0  0  0  0  0  1  0  0  0  0  0  0
  159.9200  206.1770  147.9350 S   0  0  0  0  0  0  0  0  0  0  0  0
  161.5010  204.3250  151.2450 C   0  0  0  0  0  2  0  0  0  0  0  0
  160.4580  206.5220  151.7770 C   0  0  0  0  0  2  0  0  0  0  0  0
  161.6240  205.5810  152.0980 C   0  0  1  0  0  3  0  0  0  0  0  0
  160.4960  206.8800  150.4160 O   0  0  0  0  0  0  0  0  0  0  0  0
  161.3070  204.7050  149.7810 C   0  0  0  0  0  2  0  0  0  0  0  0
  160.1730  205.7260  149.6770 C   0  0  2  0  0  3  0  0  0  0  0  0
  161.6290  205.2070  153.5710 C   0  0  0  0  0  2  0  0  0  0  0  0
  160.2930  206.2340  155.2170 O   0  0  0  0  0  0  0  0  0  0  0  0
  161.2040  206.3670  154.4150 C   0  0  0  0  0  0  0  0  0  0  0  0
  161.8800  207.6900  154.2660 C   0  0  0  0  0  2  0  0  0  0  0  0
  160.9130  208.7650  154.4150 N   0  0  0  0  0  2  0  0  0  0  0  0
  161.5930  209.8330  155.0190 N   0  0  0  0  0  2  0  0  0  0  0  0
  160.8030  211.0290  154.7730 C   0  0  0  0  0  2  0  0  0  0  0  0
  158.1410  214.3540  153.0450 C   0  0  0  0  0  2  0  0  0  0  0  0
  158.4130  211.1710  155.7880 C   0  0  1  0  0  3  0  0  0  0  0  0
  157.6990  212.9160  152.9020 C   0  0  1  0  0  0  0  0  0  0  0  0
  159.3270  210.6660  154.6430 C   0  0  1  0  0  3  0  0  0  0  0  0
  158.5780  212.6740  156.0000 C   0  0  0  0  0  2  0  0  0  0  0  0
  156.8050  212.4140  154.0680 C   0  0  0  0  0  2  0  0  0  0  0  0
  158.8080  210.6650  153.2040 C   0  0  0  0  0  2  0  0  0  0  0  0
  158.8360  212.0110  152.4570 C   0  0  2  0  0  3  0  0  0  0  0  0
  157.2450  212.1380  155.5320 C   0  0  1  0  0  3  0  0  0  0  0  0
  159.1280  213.2370  153.3100 C   0  0  1  0  0  3  0  0  0  0  0  0
  162.3150  207.6150  148.4680 C   0  0  0  0  0  2  0  0  0  0  0  0
  161.3560  208.7640  148.7230 C   0  0  0  0  0  2  0  0  0  0  0  0
  162.0870  209.9470  149.3340 C   0  0  2  0  0  3  0  0  0  0  0  0
  162.0150  209.8850  150.8580 C   0  0  2  0  0  3  0  0  0  0  0  0
  162.5490  211.1460  151.5170 C   0  0  0  0  0  1  0  0  0  0  0  0
  162.7160  208.7740  151.3300 O   0  0  0  0  0  1  0  0  0  0  0  0
  161.5730  211.1780  148.8350 O   0  0  0  0  0  0  0  0  0  0  0  0
  162.3800  212.1280  148.2050 C   0  0  0  0  0  0  0  0  0  0  0  0
  163.6220  211.9220  148.1280 O   0  0  0  0  0  0  0  0  0  0  0  0
  161.7920  213.3870  147.6320 C   0  0  2  0  0  3  0  0  0  0  0  0
  159.5340  214.0150  147.1790 O   0  0  0  0  0  0  0  0  0  0  0  0
  161.3220  214.2930  148.7280 C   0  0  0  0  0  2  0  0  0  0  0  0
  160.5420  213.1020  146.8110 C   0  0  1  0  0  3  0  0  0  0  0  0
  159.8380  214.4500  148.4810 C   0  0  2  0  0  3  0  0  0  0  0  0
  159.0830  213.6670  149.4480 N   0  0  0  0  0  2  0  0  0  0  0  0
  157.7070  213.6380  148.9860 C   0  0  0  0  0  1  0  0  0  0  0  0
  160.7910  213.1720  145.2810 C   0  0  1  0  0  0  0  0  0  0  0  0
  160.3440  214.4170  144.8350 O   0  0  0  0  0  1  0  0  0  0  0  0
  162.9720  214.4520  144.7840 C   0  0  0  0  0  1  0  0  0  0  0  0
  162.2900  213.0980  144.9250 C   0  0  0  0  0  2  0  0  0  0  0  0
  160.0510  212.1890  144.5700 O   0  0  0  0  0  0  0  0  0  0  0  0
  159.6370  212.6770  143.3160 C   0  0  0  0  0  2  0  0  0  0  0  0
  160.5590  212.1430  142.2380 C   0  0  0  0  0  1  0  0  0  0  0  0
  162.9440  205.3050  144.5690 C   0  0  0  0  0  2  0  0  0  0  0  0
  160.7460  206.2270  144.6460 F   0  0  0  0  0  0  0  0  0  0  0  0
  161.4620  205.3300  142.6990 F   0  0  0  0  0  0  0  0  0  0  0  0
  161.5040  205.2200  144.0770 C   0  0  0  0  0  0  0  0  0  0  0  0
  160.9770  203.9980  144.4470 F   0  0  0  0  0  0  0  0  0  0  0  0
  1  3  2  0  0  0  0
  2  4  1  0  0  0  0
  2  1  2  0  0  0  0
  3  5  1  0  0  0  0
  3 29  1  0  0  0  0
  6  8  1  0  0  0  0
  7  8  1  0  0  0  0
  8 12  1  1  0  0  0
  9  7  1  0  0  0  0
 10  6  1  0  0  0  0
 11  5  1  6  0  0  0
 11 10  1  0  0  0  0
 11  9  1  0  0  0  0
 12 14  1  0  0  0  0
 14 13  2  0  0  0  0
 15 14  1  0  0  0  0
 15 16  1  0  0  0  0
 16 17  1  0  0  0  0
 18 17  1  0  0  0  0
 20 23  1  1  0  0  0
 21 19  1  6  0  0  0
 21 28  1  0  0  0  0
 21 24  1  0  0  0  0
 22 18  1  6  0  0  0
 22 20  1  0  0  0  0
 25 22  1  0  0  0  0
 26 21  1  0  0  0  0
 26 25  1  1  0  0  0
 26 28  1  0  0  0  0
 27 24  1  6  0  0  0
 27 20  1  0  0  0  0
 27 23  1  0  0  0  0
 28 19  1  6  0  0  0
 29 30  1  0  0  0  0
 31 30  1  6  0  0  0
 31 32  1  0  0  0  0
 32 34  1  0  0  0  0
 32 33  1  1  0  0  0
 35 31  1  0  0  0  0
 36 35  1  0  0  0  0
 37 36  2  0  0  0  0
 38 36  1  1  0  0  0
 38 40  1  0  0  0  0
 39 42  1  0  0  0  0
 41 45  1  6  0  0  0
 41 39  1  0  0  0  0
 41 38  1  0  0  0  0
 42 40  1  0  0  0  0
 42 43  1  1  0  0  0
 44 43  1  0  0  0  0
 45 46  1  6  0  0  0
 47 48  1  0  0  0  0
 48 45  1  0  0  0  0
 49 45  1  0  0  0  0
 50 49  1  0  0  0  0
 51 50  1  0  0  0  0
 52  2  1  0  0  0  0
 54 55  1  0  0  0  0
 55 56  1  0  0  0  0
 55 52  1  0  0  0  0
 55 53  1  0  0  0  0
M  END
>  <MODEL>
7

>  <REMARK>
 VINA RESULT:      -3.0      4.177     11.053
  Name = 
  23 active torsions:
  status: ('A' for Active; 'I' for Inactive)
    1  A    between atoms: C_1  and  C_33
    2  A    between atoms: C_1  and  C_47
    3  A    between atoms: C_2  and  N_38
    4  A    between atoms: C_2  and  C_53
    5  A    between atoms: N_4  and  C_55
    6  A    between atoms: C_6  and  C_7
    7  A    between atoms: C_6  and  O_50
    8  A    between atoms: N_9  and  N_38
    9  A    between atoms: N_9  and  C_43
   10  A    between atoms: O_10  and  C_29
   11  A    between atoms: O_10  and  C_30
   12  A    between atoms: C_11  and  C_32
   13  A    between atoms: C_11  and  C_46
   14  A    between atoms: C_12  and  C_23
   15  A    between atoms: C_12  and  C_53
   16  A    between atoms: C_13  and  C_42
   17  A    between atoms: C_24  and  C_43
   18  A    between atoms: C_30  and  C_31
   19  A    between atoms: C_30  and  C_56
   20  A    between atoms: C_33  and  S_40
   21  A    between atoms: S_40  and  C_52
   22  A    between atoms: C_42  and  C_47
   23  A    between atoms: C_42  and  O_50
                            x       y       z     vdW  Elec       q    Type
                         _______ _______ _______ _____ _____    ______ ____

>  <TORSDO>
F 23

$$$$
