=
 OpenBabel11072410273D

 32 33  0  0  1  0  0  0  0  0999 V2000
  161.5170  208.8930  153.1700 C   0  0  2  0  0  3  0  0  0  0  0  0
  161.3610  205.8560  152.7920 C   0  0  0  0  0  3  0  0  0  0  0  0
  160.6510  208.6960  151.9400 C   0  0  0  0  0  2  0  0  0  0  0  0
  161.2810  207.6870  151.0460 C   0  0  0  0  0  0  0  0  0  0  0  0
  161.1770  207.8950  154.1720 N   0  0  0  0  0  2  0  0  0  0  0  0
  161.5590  206.4400  151.4480 C   0  0  0  0  0  3  0  0  0  0  0  0
  161.1740  206.4770  153.9630 C   0  0  0  0  0  3  0  0  0  0  0  0
  160.7580  210.2990  155.1380 C   0  0  0  0  0  2  0  0  0  0  0  0
  160.5980  211.1000  152.9040 O   0  0  0  0  0  0  0  0  0  0  0  0
  161.3760  210.2980  153.7520 C   0  0  2  0  0  3  0  0  0  0  0  0
  159.8510  211.4910  155.1300 C   0  0  2  0  0  3  0  0  0  0  0  0
  159.9970  212.0610  153.7350 C   0  0  2  0  0  3  0  0  0  0  0  0
  160.3280  212.5050  156.1490 C   0  0  0  0  0  1  0  0  0  0  0  0
  157.7890  211.3790  153.0530 O   0  0  0  0  0  1  0  0  0  0  0  0
  158.6350  212.4830  153.1840 C   0  0  2  0  0  3  0  0  0  0  0  0
  157.9350  212.8690  150.8130 O   0  0  0  0  0  1  0  0  0  0  0  0
  158.7810  213.1770  151.8710 C   0  0  0  0  0  0  0  0  0  0  0  0
  159.7380  214.0780  151.7070 C   0  0  0  0  0  2  0  0  0  0  0  0
  162.0480  209.8850  149.5470 S   0  0  0  0  0  1  0  0  0  0  0  0
  161.5930  208.1220  149.6440 C   0  0  1  0  0  3  0  0  0  0  0  0
  162.5920  207.2150  148.9240 C   0  0  0  0  0  2  0  0  0  0  0  0
  162.2430  206.9970  147.4530 C   0  0  0  0  0  2  0  0  0  0  0  0
  161.2220  205.8770  147.2450 C   0  0  1  0  0  3  0  0  0  0  0  0
  160.1380  206.2840  146.4560 O   0  0  0  0  0  0  0  0  0  0  0  0
  160.4620  205.8750  145.1610 C   0  0  0  0  0  1  0  0  0  0  0  0
  161.8340  204.5630  146.7470 C   0  0  1  0  0  3  0  0  0  0  0  0
  163.1700  204.7970  146.4080 O   0  0  0  0  0  1  0  0  0  0  0  0
  160.8610  203.8510  148.9490 C   0  0  0  0  0  1  0  0  0  0  0  0
  161.7090  203.4150  147.7670 C   0  0  1  0  0  3  0  0  0  0  0  0
  161.1090  202.1750  147.1810 C   0  0  0  0  0  0  0  0  0  0  0  0
  160.9130  201.1710  147.9130 O   0  0  0  0  0  1  0  0  0  0  0  0
  160.7680  202.1240  145.8340 O   0  0  0  0  0  0  0  0  0  0  0  0
  1  3  1  6  0  0  0
  1 10  1  0  0  0  0
  1  5  1  0  0  0  0
  2  7  2  0  0  0  0
  4  6  2  0  0  0  0
  4  3  1  0  0  0  0
  6  2  1  0  0  0  0
  7  5  1  0  0  0  0
  9 12  1  0  0  0  0
  9 10  1  0  0  0  0
 10  8  1  1  0  0  0
 11  8  1  0  0  0  0
 11 13  1  1  0  0  0
 12 15  1  6  0  0  0
 12 11  1  0  0  0  0
 15 14  1  6  0  0  0
 16 17  1  0  0  0  0
 17 15  1  0  0  0  0
 18 17  2  0  0  0  0
 20 19  1  1  0  0  0
 20  4  1  0  0  0  0
 21 20  1  0  0  0  0
 22 21  1  0  0  0  0
 23 22  1  6  0  0  0
 24 23  1  0  0  0  0
 25 24  1  0  0  0  0
 26 27  1  1  0  0  0
 26 23  1  0  0  0  0
 26 29  1  0  0  0  0
 29 28  1  1  0  0  0
 30 29  1  0  0  0  0
 30 31  1  0  0  0  0
 32 30  2  0  0  0  0
M  END
>  <MODEL>
1

>  <REMARK>
 VINA RESULT:      -7.1      0.000      0.000
  Name = 
  11 active torsions:
  status: ('A' for Active; 'I' for Inactive)
    1  A    between atoms: C_1  and  C_19
    2  A    between atoms: C_1  and  C_30
    3  A    between atoms: O_2  and  C_30
    4  A    between atoms: C_4  and  C_11
    5  A    between atoms: C_8  and  C_17
    6  A    between atoms: C_14  and  C_15
    7  A    between atoms: C_14  and  C_19
    8  A    between atoms: C_17  and  C_23
    9  A    between atoms: C_20  and  C_24
   10  A    between atoms: C_20  and  C_31
   11  A    between atoms: C_23  and  C_30
                            x       y       z     vdW  Elec       q    Type
                         _______ _______ _______ _____ _____    ______ ____

>  <TORSDO>
F 11

$$$$
=
 OpenBabel11072410273D

 32 33  0  0  1  0  0  0  0  0999 V2000
  161.2720  207.3590  152.3360 C   0  0  2  0  0  3  0  0  0  0  0  0
  161.5220  207.5510  149.2880 C   0  0  0  0  0  3  0  0  0  0  0  0
  162.2080  206.2300  151.9490 C   0  0  0  0  0  2  0  0  0  0  0  0
  161.6530  205.5050  150.7740 C   0  0  0  0  0  0  0  0  0  0  0  0
  161.5810  208.5420  151.5490 N   0  0  0  0  0  2  0  0  0  0  0  0
  161.3840  206.1150  149.6110 C   0  0  0  0  0  3  0  0  0  0  0  0
  161.6300  208.5970  150.1180 C   0  0  0  0  0  3  0  0  0  0  0  0
  160.4380  206.7970  154.6620 C   0  0  0  0  0  2  0  0  0  0  0  0
  161.0120  209.0240  154.0530 O   0  0  0  0  0  0  0  0  0  0  0  0
  161.3460  207.6800  153.8280 C   0  0  2  0  0  3  0  0  0  0  0  0
  159.8780  207.7260  155.6960 C   0  0  2  0  0  3  0  0  0  0  0  0
  160.4850  209.0710  155.3560 C   0  0  2  0  0  3  0  0  0  0  0  0
  160.3340  207.2940  157.0750 C   0  0  0  0  0  1  0  0  0  0  0  0
  159.1750  210.7550  154.2350 O   0  0  0  0  0  1  0  0  0  0  0  0
  159.4380  210.1780  155.4800 C   0  0  2  0  0  3  0  0  0  0  0  0
  161.2140  211.6010  156.5210 O   0  0  0  0  0  1  0  0  0  0  0  0
  159.8780  211.2240  156.4490 C   0  0  0  0  0  0  0  0  0  0  0  0
  158.9930  211.7830  157.2590 C   0  0  0  0  0  2  0  0  0  0  0  0
  160.8470  203.6030  152.6160 S   0  0  0  0  0  1  0  0  0  0  0  0
  161.4070  204.0340  150.9360 C   0  0  1  0  0  3  0  0  0  0  0  0
  160.5190  203.4320  149.8460 C   0  0  0  0  0  2  0  0  0  0  0  0
  160.8950  203.9100  148.4440 C   0  0  0  0  0  2  0  0  0  0  0  0
  161.3500  202.7690  147.5310 C   0  0  1  0  0  3  0  0  0  0  0  0
  160.5050  201.6550  147.6100 O   0  0  0  0  0  0  0  0  0  0  0  0
  161.3240  200.6130  148.0490 C   0  0  0  0  0  1  0  0  0  0  0  0
  161.6040  203.1970  146.0810 C   0  0  1  0  0  3  0  0  0  0  0  0
  160.5080  202.8060  145.3060 O   0  0  0  0  0  1  0  0  0  0  0  0
  163.3520  204.9460  145.6430 C   0  0  0  0  0  1  0  0  0  0  0  0
  161.8810  204.7060  145.9370 C   0  0  1  0  0  3  0  0  0  0  0  0
  161.0670  205.3490  144.8570 C   0  0  0  0  0  0  0  0  0  0  0  0
  161.4560  205.2850  143.6620 O   0  0  0  0  0  0  0  0  0  0  0  0
  159.8860  206.0160  145.1640 O   0  0  0  0  0  1  0  0  0  0  0  0
  1  3  1  1  0  0  0
  1 10  1  0  0  0  0
  2  6  1  0  0  0  0
  2  7  2  0  0  0  0
  4 20  1  0  0  0  0
  4  3  1  0  0  0  0
  5  1  1  0  0  0  0
  6  4  2  0  0  0  0
  7  5  1  0  0  0  0
  8 11  1  0  0  0  0
  9 12  1  0  0  0  0
 10  9  1  0  0  0  0
 10  8  1  1  0  0  0
 11 13  1  1  0  0  0
 12 15  1  6  0  0  0
 12 11  1  0  0  0  0
 15 14  1  6  0  0  0
 15 17  1  0  0  0  0
 17 16  1  0  0  0  0
 17 18  2  0  0  0  0
 20 19  1  1  0  0  0
 21 20  1  0  0  0  0
 22 21  1  0  0  0  0
 23 24  1  0  0  0  0
 23 22  1  1  0  0  0
 24 25  1  0  0  0  0
 26 27  1  6  0  0  0
 26 23  1  0  0  0  0
 29 28  1  6  0  0  0
 29 26  1  0  0  0  0
 30 32  1  0  0  0  0
 30 29  1  0  0  0  0
 31 30  2  0  0  0  0
M  END
>  <MODEL>
2

>  <REMARK>
 VINA RESULT:      -6.9      2.495      4.106
  Name = 
  11 active torsions:
  status: ('A' for Active; 'I' for Inactive)
    1  A    between atoms: C_1  and  C_19
    2  A    between atoms: C_1  and  C_30
    3  A    between atoms: O_2  and  C_30
    4  A    between atoms: C_4  and  C_11
    5  A    between atoms: C_8  and  C_17
    6  A    between atoms: C_14  and  C_15
    7  A    between atoms: C_14  and  C_19
    8  A    between atoms: C_17  and  C_23
    9  A    between atoms: C_20  and  C_24
   10  A    between atoms: C_20  and  C_31
   11  A    between atoms: C_23  and  C_30
                            x       y       z     vdW  Elec       q    Type
                         _______ _______ _______ _____ _____    ______ ____

>  <TORSDO>
F 11

$$$$
=
 OpenBabel11072410273D

 32 33  0  0  1  0  0  0  0  0999 V2000
  162.1870  207.3210  149.2280 C   0  0  2  0  0  3  0  0  0  0  0  0
  161.9120  210.0240  150.6460 C   0  0  0  0  0  3  0  0  0  0  0  0
  160.9320  207.1940  150.0700 C   0  0  0  0  0  2  0  0  0  0  0  0
  161.1940  207.7280  151.4350 C   0  0  0  0  0  0  0  0  0  0  0  0
  162.2400  208.6430  148.6250 N   0  0  0  0  0  2  0  0  0  0  0  0
  161.6030  208.9850  151.6520 C   0  0  0  0  0  3  0  0  0  0  0  0
  162.1650  209.8840  149.3380 C   0  0  0  0  0  3  0  0  0  0  0  0
  161.2300  206.4310  147.0570 C   0  0  0  0  0  2  0  0  0  0  0  0
  162.1020  204.9700  148.7200 O   0  0  0  0  0  0  0  0  0  0  0  0
  162.2650  206.2420  148.1490 C   0  0  2  0  0  3  0  0  0  0  0  0
  160.7700  205.0380  146.7480 C   0  0  2  0  0  3  0  0  0  0  0  0
  161.5540  204.1660  147.7050 C   0  0  2  0  0  3  0  0  0  0  0  0
  161.1320  204.6830  145.3200 C   0  0  0  0  0  1  0  0  0  0  0  0
  160.8390  202.9840  149.6800 O   0  0  0  0  0  1  0  0  0  0  0  0
  160.6570  203.0800  148.2980 C   0  0  2  0  0  3  0  0  0  0  0  0
  160.6830  201.5810  146.2940 O   0  0  0  0  0  1  0  0  0  0  0  0
  160.9180  201.7600  147.6520 C   0  0  0  0  0  0  0  0  0  0  0  0
  161.3570  200.7470  148.3830 C   0  0  0  0  0  2  0  0  0  0  0  0
  161.5100  205.0900  152.2140 S   0  0  0  0  0  1  0  0  0  0  0  0
  160.9700  206.7910  152.5850 C   0  0  1  0  0  3  0  0  0  0  0  0
  161.5190  207.3060  153.9170 C   0  0  0  0  0  2  0  0  0  0  0  0
  160.4170  207.6720  154.9110 C   0  0  0  0  0  2  0  0  0  0  0  0
  160.6070  209.0620  155.5210 C   0  0  1  0  0  3  0  0  0  0  0  0
  161.9460  209.4730  155.5040 O   0  0  0  0  0  0  0  0  0  0  0  0
  162.3620  209.3970  156.8350 C   0  0  0  0  0  1  0  0  0  0  0  0
  159.6720  210.1290  154.9400 C   0  0  1  0  0  3  0  0  0  0  0  0
  158.6420  210.3610  155.8570 O   0  0  0  0  0  1  0  0  0  0  0  0
  160.0270  211.8720  153.1690 C   0  0  0  0  0  1  0  0  0  0  0  0
  160.4010  211.4370  154.5750 C   0  0  1  0  0  3  0  0  0  0  0  0
  160.0970  212.5580  155.5190 C   0  0  0  0  0  0  0  0  0  0  0  0
  160.5730  212.5400  156.6840 O   0  0  0  0  0  1  0  0  0  0  0  0
  159.2920  213.6200  155.1200 O   0  0  0  0  0  0  0  0  0  0  0  0
  1  3  1  6  0  0  0
  2  6  1  0  0  0  0
  3  4  1  0  0  0  0
  4  6  2  0  0  0  0
  4 20  1  0  0  0  0
  5  1  1  0  0  0  0
  5  7  1  0  0  0  0
  7  2  2  0  0  0  0
 10  8  1  6  0  0  0
 10  9  1  0  0  0  0
 10  1  1  0  0  0  0
 11 13  1  6  0  0  0
 11  8  1  0  0  0  0
 11 12  1  0  0  0  0
 12 15  1  1  0  0  0
 12  9  1  0  0  0  0
 15 14  1  1  0  0  0
 16 17  1  0  0  0  0
 17 15  1  0  0  0  0
 17 18  2  0  0  0  0
 20 19  1  6  0  0  0
 20 21  1  0  0  0  0
 21 22  1  0  0  0  0
 23 22  1  6  0  0  0
 24 23  1  0  0  0  0
 24 25  1  0  0  0  0
 26 23  1  0  0  0  0
 26 27  1  1  0  0  0
 29 28  1  6  0  0  0
 29 26  1  0  0  0  0
 29 30  1  0  0  0  0
 30 31  1  0  0  0  0
 32 30  2  0  0  0  0
M  END
>  <MODEL>
3

>  <REMARK>
 VINA RESULT:      -6.8      2.247      9.526
  Name = 
  11 active torsions:
  status: ('A' for Active; 'I' for Inactive)
    1  A    between atoms: C_1  and  C_19
    2  A    between atoms: C_1  and  C_30
    3  A    between atoms: O_2  and  C_30
    4  A    between atoms: C_4  and  C_11
    5  A    between atoms: C_8  and  C_17
    6  A    between atoms: C_14  and  C_15
    7  A    between atoms: C_14  and  C_19
    8  A    between atoms: C_17  and  C_23
    9  A    between atoms: C_20  and  C_24
   10  A    between atoms: C_20  and  C_31
   11  A    between atoms: C_23  and  C_30
                            x       y       z     vdW  Elec       q    Type
                         _______ _______ _______ _____ _____    ______ ____

>  <TORSDO>
F 11

$$$$
=
 OpenBabel11072410273D

 32 33  0  0  1  0  0  0  0  0999 V2000
  160.7800  205.4030  150.9190 C   0  0  2  0  0  3  0  0  0  0  0  0
  161.5580  206.2990  153.7440 C   0  0  0  0  0  3  0  0  0  0  0  0
  162.1200  206.0940  150.7540 C   0  0  0  0  0  2  0  0  0  0  0  0
  162.1180  207.3700  151.5190 C   0  0  0  0  0  0  0  0  0  0  0  0
  160.7910  204.5960  152.1290 N   0  0  0  0  0  2  0  0  0  0  0  0
  161.8890  207.4210  152.8390 C   0  0  0  0  0  3  0  0  0  0  0  0
  161.1070  205.0750  153.4420 C   0  0  0  0  0  3  0  0  0  0  0  0
  161.1110  203.1860  149.7370 C   0  0  0  0  0  2  0  0  0  0  0  0
  160.7720  205.2020  148.5210 O   0  0  0  0  0  0  0  0  0  0  0  0
  160.4270  204.5390  149.7090 C   0  0  2  0  0  3  0  0  0  0  0  0
  161.4970  202.9440  148.3090 C   0  0  2  0  0  3  0  0  0  0  0  0
  161.0320  204.1890  147.5830 C   0  0  2  0  0  3  0  0  0  0  0  0
  160.7580  201.7350  147.7750 C   0  0  0  0  0  1  0  0  0  0  0  0
  162.6190  205.8810  146.9310 O   0  0  0  0  0  1  0  0  0  0  0  0
  162.0830  204.6420  146.5700 C   0  0  2  0  0  3  0  0  0  0  0  0
  161.8530  205.7490  144.3380 O   0  0  0  0  0  1  0  0  0  0  0  0
  161.5070  204.7120  145.1950 C   0  0  0  0  0  0  0  0  0  0  0  0
  160.6440  203.7900  144.7970 C   0  0  0  0  0  2  0  0  0  0  0  0
  161.6610  208.5960  149.0790 S   0  0  0  0  0  1  0  0  0  0  0  0
  162.3960  208.6270  150.7470 C   0  0  1  0  0  3  0  0  0  0  0  0
  162.0660  209.9080  151.5140 C   0  0  0  0  0  2  0  0  0  0  0  0
  160.6360  209.9260  152.0530 C   0  0  0  0  0  2  0  0  0  0  0  0
  160.2610  211.2630  152.6940 C   0  0  1  0  0  3  0  0  0  0  0  0
  159.2030  211.8940  152.0280 O   0  0  0  0  0  0  0  0  0  0  0  0
  159.7680  213.0350  151.4550 C   0  0  0  0  0  1  0  0  0  0  0  0
  160.0220  211.1810  154.2070 C   0  0  1  0  0  3  0  0  0  0  0  0
  158.6520  211.0130  154.4290 O   0  0  0  0  0  1  0  0  0  0  0  0
  162.1740  210.6120  155.3670 C   0  0  0  0  0  1  0  0  0  0  0  0
  160.8400  210.0670  154.8870 C   0  0  1  0  0  3  0  0  0  0  0  0
  160.1310  209.4490  156.0520 C   0  0  0  0  0  0  0  0  0  0  0  0
  159.6590  208.2880  155.9500 O   0  0  0  0  0  0  0  0  0  0  0  0
  159.9880  210.1500  157.2450 O   0  0  0  0  0  1  0  0  0  0  0  0
  1  3  1  6  0  0  0
  1  5  1  0  0  0  0
  3  4  1  0  0  0  0
  4  6  2  0  0  0  0
  5  7  1  0  0  0  0
  6  2  1  0  0  0  0
  7  2  2  0  0  0  0
  9 10  1  0  0  0  0
 10  8  1  1  0  0  0
 10  1  1  0  0  0  0
 11 13  1  6  0  0  0
 11  8  1  0  0  0  0
 12 15  1  6  0  0  0
 12 11  1  0  0  0  0
 12  9  1  0  0  0  0
 15 14  1  1  0  0  0
 16 17  1  0  0  0  0
 17 15  1  0  0  0  0
 18 17  2  0  0  0  0
 20 19  1  6  0  0  0
 20 21  1  0  0  0  0
 20  4  1  0  0  0  0
 21 22  1  0  0  0  0
 23 22  1  6  0  0  0
 23 26  1  0  0  0  0
 24 23  1  0  0  0  0
 25 24  1  0  0  0  0
 26 27  1  6  0  0  0
 26 29  1  0  0  0  0
 29 28  1  1  0  0  0
 29 30  1  0  0  0  0
 30 32  1  0  0  0  0
 31 30  2  0  0  0  0
M  END
>  <MODEL>
4

>  <REMARK>
 VINA RESULT:      -6.7      1.874      8.586
  Name = 
  11 active torsions:
  status: ('A' for Active; 'I' for Inactive)
    1  A    between atoms: C_1  and  C_19
    2  A    between atoms: C_1  and  C_30
    3  A    between atoms: O_2  and  C_30
    4  A    between atoms: C_4  and  C_11
    5  A    between atoms: C_8  and  C_17
    6  A    between atoms: C_14  and  C_15
    7  A    between atoms: C_14  and  C_19
    8  A    between atoms: C_17  and  C_23
    9  A    between atoms: C_20  and  C_24
   10  A    between atoms: C_20  and  C_31
   11  A    between atoms: C_23  and  C_30
                            x       y       z     vdW  Elec       q    Type
                         _______ _______ _______ _____ _____    ______ ____

>  <TORSDO>
F 11

$$$$
=
 OpenBabel11072410273D

 32 33  0  0  1  0  0  0  0  0999 V2000
  161.5530  209.3100  151.7730 C   0  0  2  0  0  3  0  0  0  0  0  0
  161.9600  209.2920  148.7360 C   0  0  0  0  0  3  0  0  0  0  0  0
  162.4900  208.1460  151.5110 C   0  0  0  0  0  2  0  0  0  0  0  0
  161.9830  207.3500  150.3600 C   0  0  0  0  0  0  0  0  0  0  0  0
  161.9200  210.4330  150.9260 N   0  0  0  0  0  2  0  0  0  0  0  0
  161.7830  207.8830  149.1470 C   0  0  0  0  0  3  0  0  0  0  0  0
  162.0420  210.3910  149.4990 C   0  0  0  0  0  3  0  0  0  0  0  0
  160.6080  208.9040  154.0890 C   0  0  0  0  0  2  0  0  0  0  0  0
  161.2150  211.0860  153.3610 O   0  0  0  0  0  0  0  0  0  0  0  0
  161.5570  209.7300  153.2420 C   0  0  2  0  0  3  0  0  0  0  0  0
  160.0020  209.8990  155.0310 C   0  0  2  0  0  3  0  0  0  0  0  0
  160.6260  211.2190  154.6310 C   0  0  2  0  0  3  0  0  0  0  0  0
  160.3910  209.5600  156.4560 C   0  0  0  0  0  1  0  0  0  0  0  0
  159.2320  212.6880  155.9370 O   0  0  0  0  0  1  0  0  0  0  0  0
  159.5780  212.3300  154.6310 C   0  0  2  0  0  3  0  0  0  0  0  0
  158.4430  211.6130  152.5190 O   0  0  0  0  0  1  0  0  0  0  0  0
  158.3600  211.9170  153.8720 C   0  0  0  0  0  0  0  0  0  0  0  0
  157.1900  211.8590  154.4890 C   0  0  0  0  0  2  0  0  0  0  0  0
  161.3000  205.5510  152.3510 S   0  0  0  0  0  1  0  0  0  0  0  0
  161.7060  205.8960  150.6070 C   0  0  1  0  0  3  0  0  0  0  0  0
  160.6950  205.2860  149.6350 C   0  0  0  0  0  2  0  0  0  0  0  0
  160.9120  203.7900  149.4150 C   0  0  0  0  0  2  0  0  0  0  0  0
  161.6600  203.4840  148.1160 C   0  0  1  0  0  3  0  0  0  0  0  0
  161.0860  202.4180  147.4100 O   0  0  0  0  0  0  0  0  0  0  0  0
  161.0070  201.3750  148.3350 C   0  0  0  0  0  1  0  0  0  0  0  0
  161.8830  204.7100  147.2230 C   0  0  1  0  0  3  0  0  0  0  0  0
  163.0720  204.5270  146.5100 O   0  0  0  0  0  1  0  0  0  0  0  0
  160.4710  206.4860  146.1500 C   0  0  0  0  0  1  0  0  0  0  0  0
  160.7010  204.9900  146.2760 C   0  0  1  0  0  3  0  0  0  0  0  0
  160.9010  204.4210  144.9060 C   0  0  0  0  0  0  0  0  0  0  0  0
  160.5390  203.2420  144.6610 O   0  0  0  0  0  1  0  0  0  0  0  0
  161.4860  205.1850  143.9020 O   0  0  0  0  0  0  0  0  0  0  0  0
  1  3  1  1  0  0  0
  1 10  1  0  0  0  0
  2  6  1  0  0  0  0
  2  7  2  0  0  0  0
  4 20  1  0  0  0  0
  4  3  1  0  0  0  0
  5  1  1  0  0  0  0
  6  4  2  0  0  0  0
  7  5  1  0  0  0  0
  8 11  1  0  0  0  0
  9 12  1  0  0  0  0
 10  9  1  0  0  0  0
 10  8  1  1  0  0  0
 11 13  1  1  0  0  0
 12 15  1  6  0  0  0
 12 11  1  0  0  0  0
 15 14  1  1  0  0  0
 16 17  1  0  0  0  0
 17 18  2  0  0  0  0
 17 15  1  0  0  0  0
 20 19  1  1  0  0  0
 21 20  1  0  0  0  0
 22 21  1  0  0  0  0
 23 22  1  1  0  0  0
 24 23  1  0  0  0  0
 24 25  1  0  0  0  0
 26 27  1  6  0  0  0
 26 23  1  0  0  0  0
 29 28  1  6  0  0  0
 29 26  1  0  0  0  0
 30 29  1  0  0  0  0
 31 30  1  0  0  0  0
 32 30  2  0  0  0  0
M  END
>  <MODEL>
5

>  <REMARK>
 VINA RESULT:      -6.7      1.899      3.210
  Name = 
  11 active torsions:
  status: ('A' for Active; 'I' for Inactive)
    1  A    between atoms: C_1  and  C_19
    2  A    between atoms: C_1  and  C_30
    3  A    between atoms: O_2  and  C_30
    4  A    between atoms: C_4  and  C_11
    5  A    between atoms: C_8  and  C_17
    6  A    between atoms: C_14  and  C_15
    7  A    between atoms: C_14  and  C_19
    8  A    between atoms: C_17  and  C_23
    9  A    between atoms: C_20  and  C_24
   10  A    between atoms: C_20  and  C_31
   11  A    between atoms: C_23  and  C_30
                            x       y       z     vdW  Elec       q    Type
                         _______ _______ _______ _____ _____    ______ ____

>  <TORSDO>
F 11

$$$$
=
 OpenBabel11072410273D

 32 33  0  0  1  0  0  0  0  0999 V2000
  161.4450  209.1730  153.1840 C   0  0  2  0  0  3  0  0  0  0  0  0
  160.4890  207.0610  155.1880 C   0  0  0  0  0  3  0  0  0  0  0  0
  160.7430  208.1240  152.3420 C   0  0  0  0  0  2  0  0  0  0  0  0
  161.1810  206.7680  152.7710 C   0  0  0  0  0  0  0  0  0  0  0  0
  160.6980  209.3960  154.4110 N   0  0  0  0  0  2  0  0  0  0  0  0
  161.0330  206.3260  154.0270 C   0  0  0  0  0  3  0  0  0  0  0  0
  160.3220  208.3810  155.3500 C   0  0  0  0  0  3  0  0  0  0  0  0
  160.3290  211.2510  152.2570 C   0  0  0  0  0  2  0  0  0  0  0  0
  162.1870  210.2470  151.1620 O   0  0  0  0  0  0  0  0  0  0  0  0
  161.6290  210.4880  152.4270 C   0  0  2  0  0  3  0  0  0  0  0  0
  160.4140  211.8090  150.8690 C   0  0  2  0  0  3  0  0  0  0  0  0
  161.7390  211.2980  150.3430 C   0  0  2  0  0  3  0  0  0  0  0  0
  160.4360  213.3230  150.9260 C   0  0  0  0  0  1  0  0  0  0  0  0
  162.3200  209.6610  148.6740 O   0  0  0  0  0  1  0  0  0  0  0  0
  161.5970  210.8360  148.8940 C   0  0  2  0  0  3  0  0  0  0  0  0
  163.3610  212.3450  147.9590 O   0  0  0  0  0  1  0  0  0  0  0  0
  162.0450  211.8990  147.9470 C   0  0  0  0  0  0  0  0  0  0  0  0
  161.1770  212.4350  147.1020 C   0  0  0  0  0  2  0  0  0  0  0  0
  161.4430  204.1230  151.9960 S   0  0  0  0  0  1  0  0  0  0  0  0
  161.8000  205.8900  151.7230 C   0  0  1  0  0  3  0  0  0  0  0  0
  161.5060  206.3370  150.2900 C   0  0  0  0  0  2  0  0  0  0  0  0
  160.7890  205.2650  149.4700 C   0  0  0  0  0  2  0  0  0  0  0  0
  161.5140  204.9340  148.1650 C   0  0  1  0  0  3  0  0  0  0  0  0
  161.5450  203.5570  147.9080 O   0  0  0  0  0  0  0  0  0  0  0  0
  160.6990  202.9930  148.8650 C   0  0  0  0  0  1  0  0  0  0  0  0
  161.0140  205.7330  146.9560 C   0  0  1  0  0  3  0  0  0  0  0  0
  160.8000  207.0550  147.3570 O   0  0  0  0  0  1  0  0  0  0  0  0
  163.2160  204.8730  146.1110 C   0  0  0  0  0  1  0  0  0  0  0  0
  161.9700  205.6620  145.7490 C   0  0  1  0  0  3  0  0  0  0  0  0
  161.3420  205.0360  144.5420 C   0  0  0  0  0  0  0  0  0  0  0  0
  161.4550  205.5930  143.4200 O   0  0  0  0  0  0  0  0  0  0  0  0
  160.6340  203.8440  144.6520 O   0  0  0  0  0  1  0  0  0  0  0  0
  1  3  1  6  0  0  0
  1  5  1  0  0  0  0
  2  7  2  0  0  0  0
  3  4  1  0  0  0  0
  4  6  2  0  0  0  0
  5  7  1  0  0  0  0
  6  2  1  0  0  0  0
  9 10  1  0  0  0  0
 10  8  1  6  0  0  0
 10  1  1  0  0  0  0
 11 13  1  1  0  0  0
 11  8  1  0  0  0  0
 12 15  1  6  0  0  0
 12 11  1  0  0  0  0
 12  9  1  0  0  0  0
 15 14  1  1  0  0  0
 17 16  1  0  0  0  0
 17 15  1  0  0  0  0
 18 17  2  0  0  0  0
 20 19  1  6  0  0  0
 20  4  1  0  0  0  0
 21 20  1  0  0  0  0
 22 21  1  0  0  0  0
 23 22  1  1  0  0  0
 24 23  1  0  0  0  0
 24 25  1  0  0  0  0
 26 27  1  1  0  0  0
 26 23  1  0  0  0  0
 29 28  1  1  0  0  0
 29 26  1  0  0  0  0
 30 32  1  0  0  0  0
 30 29  1  0  0  0  0
 31 30  2  0  0  0  0
M  END
>  <MODEL>
6

>  <REMARK>
 VINA RESULT:      -6.6      2.627      3.816
  Name = 
  11 active torsions:
  status: ('A' for Active; 'I' for Inactive)
    1  A    between atoms: C_1  and  C_19
    2  A    between atoms: C_1  and  C_30
    3  A    between atoms: O_2  and  C_30
    4  A    between atoms: C_4  and  C_11
    5  A    between atoms: C_8  and  C_17
    6  A    between atoms: C_14  and  C_15
    7  A    between atoms: C_14  and  C_19
    8  A    between atoms: C_17  and  C_23
    9  A    between atoms: C_20  and  C_24
   10  A    between atoms: C_20  and  C_31
   11  A    between atoms: C_23  and  C_30
                            x       y       z     vdW  Elec       q    Type
                         _______ _______ _______ _____ _____    ______ ____

>  <TORSDO>
F 11

$$$$
=
 OpenBabel11072410273D

 32 33  0  0  1  0  0  0  0  0999 V2000
  161.6110  209.1440  152.9010 C   0  0  2  0  0  3  0  0  0  0  0  0
  160.8350  206.9550  154.9000 C   0  0  0  0  0  3  0  0  0  0  0  0
  160.7730  208.1640  152.1010 C   0  0  0  0  0  2  0  0  0  0  0  0
  161.2120  206.7740  152.4030 C   0  0  0  0  0  0  0  0  0  0  0  0
  161.0290  209.3210  154.2210 N   0  0  0  0  0  2  0  0  0  0  0  0
  161.2050  206.2680  153.6440 C   0  0  0  0  0  3  0  0  0  0  0  0
  160.7360  208.2680  155.1470 C   0  0  0  0  0  3  0  0  0  0  0  0
  160.4300  211.2400  152.1050 C   0  0  0  0  0  2  0  0  0  0  0  0
  162.2610  210.3140  150.9010 O   0  0  0  0  0  0  0  0  0  0  0  0
  161.7460  210.4920  152.1950 C   0  0  2  0  0  3  0  0  0  0  0  0
  160.4550  211.8580  150.7400 C   0  0  2  0  0  3  0  0  0  0  0  0
  161.7670  211.3910  150.1450 C   0  0  2  0  0  3  0  0  0  0  0  0
  160.4570  213.3680  150.8600 C   0  0  0  0  0  1  0  0  0  0  0  0
  162.2690  209.8070  148.4000 O   0  0  0  0  0  1  0  0  0  0  0  0
  161.5790  210.9880  148.6830 C   0  0  2  0  0  3  0  0  0  0  0  0
  161.1800  212.5530  146.7710 O   0  0  0  0  0  1  0  0  0  0  0  0
  162.0260  212.0770  147.7650 C   0  0  0  0  0  0  0  0  0  0  0  0
  163.2450  212.5790  147.8870 C   0  0  0  0  0  2  0  0  0  0  0  0
  161.5460  204.1500  151.5860 S   0  0  0  0  0  1  0  0  0  0  0  0
  161.6650  205.9370  151.2430 C   0  0  1  0  0  3  0  0  0  0  0  0
  161.0210  206.3260  149.9120 C   0  0  0  0  0  2  0  0  0  0  0  0
  161.9070  206.0080  148.7090 C   0  0  0  0  0  2  0  0  0  0  0  0
  161.1080  205.5520  147.4870 C   0  0  1  0  0  3  0  0  0  0  0  0
  160.6220  206.6300  146.7360 O   0  0  0  0  0  0  0  0  0  0  0  0
  160.2520  206.0750  145.5090 C   0  0  0  0  0  1  0  0  0  0  0  0
  161.8380  204.5250  146.6140 C   0  0  1  0  0  3  0  0  0  0  0  0
  163.1960  204.8570  146.5820 O   0  0  0  0  0  1  0  0  0  0  0  0
  160.8030  203.0490  148.3610 C   0  0  0  0  0  1  0  0  0  0  0  0
  161.6280  203.0730  147.0850 C   0  0  1  0  0  3  0  0  0  0  0  0
  160.9500  202.2180  146.0610 C   0  0  0  0  0  0  0  0  0  0  0  0
  160.8250  200.9830  146.2630 O   0  0  0  0  0  1  0  0  0  0  0  0
  160.4570  202.7790  144.8870 O   0  0  0  0  0  0  0  0  0  0  0  0
  1  3  1  6  0  0  0
  1  5  1  0  0  0  0
  2  7  2  0  0  0  0
  3  4  1  0  0  0  0
  4  6  2  0  0  0  0
  5  7  1  0  0  0  0
  6  2  1  0  0  0  0
  9 10  1  0  0  0  0
 10  8  1  6  0  0  0
 10  1  1  0  0  0  0
 11 13  1  1  0  0  0
 11  8  1  0  0  0  0
 12 15  1  6  0  0  0
 12 11  1  0  0  0  0
 12  9  1  0  0  0  0
 15 14  1  6  0  0  0
 16 17  1  0  0  0  0
 17 18  2  0  0  0  0
 17 15  1  0  0  0  0
 20 19  1  1  0  0  0
 20  4  1  0  0  0  0
 21 20  1  0  0  0  0
 22 21  1  0  0  0  0
 23 22  1  1  0  0  0
 24 23  1  0  0  0  0
 25 24  1  0  0  0  0
 26 27  1  1  0  0  0
 26 29  1  0  0  0  0
 26 23  1  0  0  0  0
 29 28  1  1  0  0  0
 30 31  1  0  0  0  0
 30 29  1  0  0  0  0
 32 30  2  0  0  0  0
M  END
>  <MODEL>
7

>  <REMARK>
 VINA RESULT:      -6.5      2.448      3.190
  Name = 
  11 active torsions:
  status: ('A' for Active; 'I' for Inactive)
    1  A    between atoms: C_1  and  C_19
    2  A    between atoms: C_1  and  C_30
    3  A    between atoms: O_2  and  C_30
    4  A    between atoms: C_4  and  C_11
    5  A    between atoms: C_8  and  C_17
    6  A    between atoms: C_14  and  C_15
    7  A    between atoms: C_14  and  C_19
    8  A    between atoms: C_17  and  C_23
    9  A    between atoms: C_20  and  C_24
   10  A    between atoms: C_20  and  C_31
   11  A    between atoms: C_23  and  C_30
                            x       y       z     vdW  Elec       q    Type
                         _______ _______ _______ _____ _____    ______ ____

>  <TORSDO>
F 11

$$$$
=
 OpenBabel11072410273D

 32 33  0  0  1  0  0  0  0  0999 V2000
  161.3900  207.4540  151.8860 C   0  0  2  0  0  3  0  0  0  0  0  0
  162.2160  210.3630  151.3930 C   0  0  0  0  0  3  0  0  0  0  0  0
  160.5040  208.2730  152.8050 C   0  0  0  0  0  2  0  0  0  0  0  0
  161.3280  209.2940  153.5080 C   0  0  0  0  0  0  0  0  0  0  0  0
  161.5220  208.1290  150.6050 N   0  0  0  0  0  2  0  0  0  0  0  0
  162.0510  210.2130  152.8540 C   0  0  0  0  0  3  0  0  0  0  0  0
  161.9680  209.4770  150.4190 C   0  0  0  0  0  3  0  0  0  0  0  0
  161.7410  204.9830  152.3250 C   0  0  0  0  0  2  0  0  0  0  0  0
  160.7220  205.7540  150.3190 O   0  0  0  0  0  0  0  0  0  0  0  0
  160.8560  206.0360  151.6870 C   0  0  2  0  0  3  0  0  0  0  0  0
  161.7320  203.8550  151.3380 C   0  0  2  0  0  3  0  0  0  0  0  0
  160.8690  204.3610  150.2020 C   0  0  2  0  0  3  0  0  0  0  0  0
  161.0910  202.6330  151.9620 C   0  0  0  0  0  1  0  0  0  0  0  0
  161.4060  205.0610  147.9590 O   0  0  0  0  0  1  0  0  0  0  0  0
  161.4870  203.9910  148.8540 C   0  0  2  0  0  3  0  0  0  0  0  0
  159.9240  202.0450  149.0300 O   0  0  0  0  0  1  0  0  0  0  0  0
  160.8240  202.7860  148.2740 C   0  0  0  0  0  0  0  0  0  0  0  0
  161.1110  202.4090  147.0380 C   0  0  0  0  0  2  0  0  0  0  0  0
  162.3430  210.5790  155.7410 S   0  0  0  0  0  1  0  0  0  0  0  0
  161.3130  209.2650  155.0090 C   0  0  1  0  0  3  0  0  0  0  0  0
  159.9080  209.2110  155.6110 C   0  0  0  0  0  2  0  0  0  0  0  0
  159.4080  210.5790  156.0730 C   0  0  0  0  0  2  0  0  0  0  0  0
  158.3740  211.1840  155.1220 C   0  0  1  0  0  3  0  0  0  0  0  0
  157.0590  210.9330  155.5360 O   0  0  0  0  0  0  0  0  0  0  0  0
  156.8540  211.7870  156.6210 C   0  0  0  0  0  1  0  0  0  0  0  0
  158.6060  212.6680  154.8140 C   0  0  1  0  0  3  0  0  0  0  0  0
  159.8360  213.0470  155.3610 O   0  0  0  0  0  1  0  0  0  0  0  0
  158.6610  211.7110  152.4930 C   0  0  0  0  0  1  0  0  0  0  0  0
  158.5410  212.9880  153.3080 C   0  0  1  0  0  3  0  0  0  0  0  0
  157.2800  213.6900  152.9130 C   0  0  0  0  0  0  0  0  0  0  0  0
  157.2270  214.3120  151.8200 O   0  0  0  0  0  0  0  0  0  0  0  0
  156.1660  213.6620  153.7450 O   0  0  0  0  0  1  0  0  0  0  0  0
  1  3  1  1  0  0  0
  2  6  1  0  0  0  0
  3  4  1  0  0  0  0
  4 20  1  0  0  0  0
  5  1  1  0  0  0  0
  6  4  2  0  0  0  0
  7  5  1  0  0  0  0
  7  2  2  0  0  0  0
  9 10  1  0  0  0  0
 10  1  1  0  0  0  0
 10  8  1  6  0  0  0
 11 13  1  1  0  0  0
 11  8  1  0  0  0  0
 12 15  1  6  0  0  0
 12  9  1  0  0  0  0
 12 11  1  0  0  0  0
 15 14  1  6  0  0  0
 17 15  1  0  0  0  0
 17 16  1  0  0  0  0
 18 17  2  0  0  0  0
 20 21  1  0  0  0  0
 20 19  1  1  0  0  0
 21 22  1  0  0  0  0
 23 24  1  0  0  0  0
 23 22  1  1  0  0  0
 24 25  1  0  0  0  0
 26 23  1  0  0  0  0
 26 27  1  6  0  0  0
 29 28  1  6  0  0  0
 29 26  1  0  0  0  0
 30 29  1  0  0  0  0
 30 32  1  0  0  0  0
 31 30  2  0  0  0  0
M  END
>  <MODEL>
8

>  <REMARK>
 VINA RESULT:      -6.5      2.353      9.281
  Name = 
  11 active torsions:
  status: ('A' for Active; 'I' for Inactive)
    1  A    between atoms: C_1  and  C_19
    2  A    between atoms: C_1  and  C_30
    3  A    between atoms: O_2  and  C_30
    4  A    between atoms: C_4  and  C_11
    5  A    between atoms: C_8  and  C_17
    6  A    between atoms: C_14  and  C_15
    7  A    between atoms: C_14  and  C_19
    8  A    between atoms: C_17  and  C_23
    9  A    between atoms: C_20  and  C_24
   10  A    between atoms: C_20  and  C_31
   11  A    between atoms: C_23  and  C_30
                            x       y       z     vdW  Elec       q    Type
                         _______ _______ _______ _____ _____    ______ ____

>  <TORSDO>
F 11

$$$$
=
 OpenBabel11072410273D

 32 33  0  0  1  0  0  0  0  0999 V2000
  160.8090  209.9680  154.9920 C   0  0  2  0  0  3  0  0  0  0  0  0
  160.4580  206.9540  155.4200 C   0  0  0  0  0  3  0  0  0  0  0  0
  160.1230  209.4720  153.7330 C   0  0  0  0  0  2  0  0  0  0  0  0
  160.7930  208.2300  153.2590 C   0  0  0  0  0  0  0  0  0  0  0  0
  160.2410  209.3020  156.1530 N   0  0  0  0  0  2  0  0  0  0  0  0
  160.9020  207.1330  154.0210 C   0  0  0  0  0  3  0  0  0  0  0  0
  160.1500  207.8840  156.3340 C   0  0  0  0  0  3  0  0  0  0  0  0
  160.1490  211.8990  156.4940 C   0  0  0  0  0  2  0  0  0  0  0  0
  159.8880  212.0180  154.1330 O   0  0  0  0  0  0  0  0  0  0  0  0
  160.7010  211.4840  155.1440 C   0  0  2  0  0  3  0  0  0  0  0  0
  159.2470  213.0540  156.1790 C   0  0  2  0  0  3  0  0  0  0  0  0
  159.3300  213.1900  154.6730 C   0  0  2  0  0  3  0  0  0  0  0  0
  159.7750  214.3120  156.8360 C   0  0  0  0  0  1  0  0  0  0  0  0
  157.1600  212.3020  154.1170 O   0  0  0  0  0  1  0  0  0  0  0  0
  157.9460  213.4560  154.0820 C   0  0  2  0  0  3  0  0  0  0  0  0
  159.2950  214.1620  152.0960 O   0  0  0  0  0  1  0  0  0  0  0  0
  158.0510  213.9640  152.6820 C   0  0  0  0  0  0  0  0  0  0  0  0
  156.9500  214.2470  152.0030 C   0  0  0  0  0  2  0  0  0  0  0  0
  162.1690  209.8210  151.4590 S   0  0  0  0  0  1  0  0  0  0  0  0
  161.3470  208.2450  151.8650 C   0  0  1  0  0  3  0  0  0  0  0  0
  162.2090  207.0270  151.5290 C   0  0  0  0  0  2  0  0  0  0  0  0
  161.5050  206.0410  150.5980 C   0  0  0  0  0  2  0  0  0  0  0  0
  161.4190  206.5440  149.1560 C   0  0  1  0  0  3  0  0  0  0  0  0
  162.6350  207.0690  148.7020 O   0  0  0  0  0  0  0  0  0  0  0  0
  162.3310  208.3610  148.2700 C   0  0  0  0  0  1  0  0  0  0  0  0
  160.8310  205.5230  148.1750 C   0  0  1  0  0  3  0  0  0  0  0  0
  160.4350  206.1990  147.0170 O   0  0  0  0  0  1  0  0  0  0  0  0
  161.1830  203.0370  148.2160 C   0  0  0  0  0  1  0  0  0  0  0  0
  161.8040  204.3730  147.8470 C   0  0  1  0  0  3  0  0  0  0  0  0
  162.1970  204.3350  146.4030 C   0  0  0  0  0  0  0  0  0  0  0  0
  163.1730  205.0190  146.0040 O   0  0  0  0  0  1  0  0  0  0  0  0
  161.4900  203.5480  145.5000 O   0  0  0  0  0  0  0  0  0  0  0  0
  1  3  1  6  0  0  0
  1 10  1  0  0  0  0
  1  5  1  0  0  0  0
  2  7  2  0  0  0  0
  4  3  1  0  0  0  0
  4  6  2  0  0  0  0
  5  7  1  0  0  0  0
  6  2  1  0  0  0  0
  9 12  1  0  0  0  0
  9 10  1  0  0  0  0
 10  8  1  1  0  0  0
 11  8  1  0  0  0  0
 11 13  1  1  0  0  0
 12 15  1  6  0  0  0
 12 11  1  0  0  0  0
 15 14  1  6  0  0  0
 16 17  1  0  0  0  0
 17 15  1  0  0  0  0
 18 17  2  0  0  0  0
 20 19  1  1  0  0  0
 20  4  1  0  0  0  0
 21 20  1  0  0  0  0
 22 21  1  0  0  0  0
 23 22  1  1  0  0  0
 24 23  1  0  0  0  0
 25 24  1  0  0  0  0
 26 27  1  6  0  0  0
 26 23  1  0  0  0  0
 29 26  1  0  0  0  0
 29 28  1  6  0  0  0
 30 29  1  0  0  0  0
 31 30  1  0  0  0  0
 32 30  2  0  0  0  0
M  END
>  <MODEL>
9

>  <REMARK>
 VINA RESULT:      -6.4      1.543      2.493
  Name = 
  11 active torsions:
  status: ('A' for Active; 'I' for Inactive)
    1  A    between atoms: C_1  and  C_19
    2  A    between atoms: C_1  and  C_30
    3  A    between atoms: O_2  and  C_30
    4  A    between atoms: C_4  and  C_11
    5  A    between atoms: C_8  and  C_17
    6  A    between atoms: C_14  and  C_15
    7  A    between atoms: C_14  and  C_19
    8  A    between atoms: C_17  and  C_23
    9  A    between atoms: C_20  and  C_24
   10  A    between atoms: C_20  and  C_31
   11  A    between atoms: C_23  and  C_30
                            x       y       z     vdW  Elec       q    Type
                         _______ _______ _______ _____ _____    ______ ____

>  <TORSDO>
F 11

$$$$
