=
 OpenBabel11072413473D

 29 32  0  0  1  0  0  0  0  0999 V2000
  161.9640  206.4990  149.1010 C   0  0  2  0  0  3  0  0  0  0  0  0
  160.0960  205.4640  150.6210 S   0  0  0  0  0  0  0  0  0  0  0  0
  161.7430  207.6330  151.2940 C   0  0  0  0  0  0  0  0  0  0  0  0
  160.3200  204.8300  148.9120 C   0  0  1  0  0  3  0  0  0  0  0  0
  162.8520  207.5810  148.4600 C   0  0  0  0  0  2  0  0  0  0  0  0
  161.2460  205.6670  148.1380 N   0  0  0  0  0  0  0  0  0  0  0  0
  161.0110  206.9510  150.1720 C   0  0  1  0  0  3  0  0  0  0  0  0
  162.2470  208.8560  151.0940 C   0  0  0  0  0  3  0  0  0  0  0  0
  162.1730  209.5460  149.7870 C   0  0  0  0  0  3  0  0  0  0  0  0
  162.3690  208.9530  148.6420 N   0  0  0  0  0  0  0  0  0  0  0  0
  161.5940  200.7280  148.9180 C   0  0  0  0  0  3  0  0  0  0  0  0
  161.5270  201.4460  147.7190 C   0  0  0  0  0  3  0  0  0  0  0  0
  161.2500  201.3470  150.1230 C   0  0  0  0  0  3  0  0  0  0  0  0
  160.8410  202.6830  150.1300 C   0  0  0  0  0  3  0  0  0  0  0  0
  161.1170  202.7820  147.7260 C   0  0  0  0  0  3  0  0  0  0  0  0
  160.7770  203.4070  148.9310 C   0  0  0  0  0  0  0  0  0  0  0  0
  160.4540  206.4990  147.3280 N   0  0  0  0  0  2  0  0  0  0  0  0
  160.5220  205.9650  145.9790 C   0  0  0  0  0  2  0  0  0  0  0  0
  161.9700  205.7260  145.5920 C   0  0  0  0  0  2  0  0  0  0  0  0
  162.0850  204.5110  144.9170 O   0  0  0  0  0  1  0  0  0  0  0  0
  161.8990  206.9880  152.6330 C   0  0  0  0  0  2  0  0  0  0  0  0
  160.6670  207.2300  153.4910 C   0  0  0  0  0  2  0  0  0  0  0  0
  161.9220  208.6830  156.7510 C   0  0  0  0  0  3  0  0  0  0  0  0
  161.6000  207.7720  155.7410 C   0  0  0  0  0  3  0  0  0  0  0  0
  161.0150  210.4890  155.4170 C   0  0  0  0  0  3  0  0  0  0  0  0
  160.6940  209.5820  154.4010 C   0  0  0  0  0  0  0  0  0  0  0  0
  160.0910  210.0450  153.2390 O   0  0  0  0  0  1  0  0  0  0  0  0
  161.6280  210.0400  156.5900 C   0  0  0  0  0  3  0  0  0  0  0  0
  160.9810  208.2150  154.5650 C   0  0  0  0  0  0  0  0  0  0  0  0
  1  5  1  6  0  0  0
  1  7  1  0  0  0  0
  3 21  1  0  0  0  0
  4 16  1  1  0  0  0
  4  2  1  0  0  0  0
  5 10  1  0  0  0  0
  6  4  1  0  0  0  0
  6  1  1  0  0  0  0
  7  2  1  1  0  0  0
  7  3  1  0  0  0  0
  8  3  2  0  0  0  0
  9  8  1  0  0  0  0
 10  9  2  0  0  0  0
 11 13  1  0  0  0  0
 12 15  1  0  0  0  0
 12 11  2  0  0  0  0
 13 14  2  0  0  0  0
 15 16  2  0  0  0  0
 16 14  1  0  0  0  0
 17  6  1  0  0  0  0
 18 17  1  0  0  0  0
 19 18  1  0  0  0  0
 20 19  1  0  0  0  0
 21 22  1  0  0  0  0
 22 29  1  0  0  0  0
 24 23  2  0  0  0  0
 25 28  2  0  0  0  0
 26 29  2  0  0  0  0
 26 25  1  0  0  0  0
 27 26  1  0  0  0  0
 28 23  1  0  0  0  0
 29 24  1  0  0  0  0
M  END
>  <MODEL>
1

>  <REMARK>
 VINA RESULT:      -6.9      0.000      0.000
  Name = 
  7 active torsions:
  status: ('A' for Active; 'I' for Inactive)
    1  A    between atoms: C_8  and  C_17
    2  A    between atoms: C_8  and  C_28
    3  A    between atoms: N_9  and  C_13
    4  A    between atoms: N_9  and  N_20
    5  A    between atoms: C_12  and  C_28
    6  A    between atoms: C_13  and  C_24
    7  A    between atoms: C_14  and  C_27
                            x       y       z     vdW  Elec       q    Type
                         _______ _______ _______ _____ _____    ______ ____

>  <TORSDO>
F 7

$$$$
=
 OpenBabel11072413473D

 29 32  0  0  1  0  0  0  0  0999 V2000
  161.9870  206.6880  149.0810 C   0  0  2  0  0  3  0  0  0  0  0  0
  159.9870  205.7980  150.5240 S   0  0  0  0  0  0  0  0  0  0  0  0
  161.6040  208.0050  151.1460 C   0  0  0  0  0  0  0  0  0  0  0  0
  160.3400  205.0210  148.8980 C   0  0  1  0  0  3  0  0  0  0  0  0
  162.9390  207.7060  148.4270 C   0  0  0  0  0  2  0  0  0  0  0  0
  161.3380  205.7830  148.1350 N   0  0  0  0  0  0  0  0  0  0  0  0
  160.9560  207.2360  150.0280 C   0  0  1  0  0  3  0  0  0  0  0  0
  162.1400  209.2030  150.8860 C   0  0  0  0  0  3  0  0  0  0  0  0
  162.1820  209.7810  149.5250 C   0  0  0  0  0  3  0  0  0  0  0  0
  162.4620  209.0920  148.4540 N   0  0  0  0  0  0  0  0  0  0  0  0
  161.5470  200.9250  149.3560 C   0  0  0  0  0  3  0  0  0  0  0  0
  161.4410  201.4910  148.0820 C   0  0  0  0  0  3  0  0  0  0  0  0
  161.2640  201.6930  150.4890 C   0  0  0  0  0  3  0  0  0  0  0  0
  160.8780  203.0280  150.3480 C   0  0  0  0  0  3  0  0  0  0  0  0
  161.0530  202.8270  147.9410 C   0  0  0  0  0  3  0  0  0  0  0  0
  160.7740  203.6010  149.0730 C   0  0  0  0  0  0  0  0  0  0  0  0
  160.6260  206.5500  147.1960 N   0  0  0  0  0  2  0  0  0  0  0  0
  160.7590  205.8780  145.9140 C   0  0  0  0  0  2  0  0  0  0  0  0
  162.2270  205.6720  145.5910 C   0  0  0  0  0  2  0  0  0  0  0  0
  162.4410  204.3550  145.1820 O   0  0  0  0  0  1  0  0  0  0  0  0
  161.6410  207.4740  152.5430 C   0  0  0  0  0  2  0  0  0  0  0  0
  160.5830  208.1500  153.4000 C   0  0  0  0  0  2  0  0  0  0  0  0
  162.4200  210.6300  155.5890 C   0  0  0  0  0  3  0  0  0  0  0  0
  161.8360  210.0220  154.4750 C   0  0  0  0  0  3  0  0  0  0  0  0
  161.7660  208.7460  156.9630 C   0  0  0  0  0  3  0  0  0  0  0  0
  161.1780  208.1340  155.8510 C   0  0  0  0  0  0  0  0  0  0  0  0
  160.5600  206.8990  155.9990 O   0  0  0  0  0  1  0  0  0  0  0  0
  162.3860  209.9920  156.8330 C   0  0  0  0  0  3  0  0  0  0  0  0
  161.2190  208.7710  154.5980 C   0  0  0  0  0  0  0  0  0  0  0  0
  1  5  1  6  0  0  0
  1  7  1  0  0  0  0
  3 21  1  0  0  0  0
  4 16  1  1  0  0  0
  4  2  1  0  0  0  0
  5 10  1  0  0  0  0
  6  4  1  0  0  0  0
  6  1  1  0  0  0  0
  7  2  1  1  0  0  0
  7  3  1  0  0  0  0
  8  3  2  0  0  0  0
  9  8  1  0  0  0  0
 10  9  2  0  0  0  0
 11 13  1  0  0  0  0
 12 11  2  0  0  0  0
 14 13  2  0  0  0  0
 15 12  1  0  0  0  0
 15 16  2  0  0  0  0
 16 14  1  0  0  0  0
 17  6  1  0  0  0  0
 18 17  1  0  0  0  0
 19 18  1  0  0  0  0
 20 19  1  0  0  0  0
 21 22  1  0  0  0  0
 22 29  1  0  0  0  0
 23 28  1  0  0  0  0
 24 29  1  0  0  0  0
 24 23  2  0  0  0  0
 26 27  1  0  0  0  0
 26 25  1  0  0  0  0
 28 25  2  0  0  0  0
 29 26  2  0  0  0  0
M  END
>  <MODEL>
2

>  <REMARK>
 VINA RESULT:      -6.9      0.947      1.241
  Name = 
  7 active torsions:
  status: ('A' for Active; 'I' for Inactive)
    1  A    between atoms: C_8  and  C_17
    2  A    between atoms: C_8  and  C_28
    3  A    between atoms: N_9  and  C_13
    4  A    between atoms: N_9  and  N_20
    5  A    between atoms: C_12  and  C_28
    6  A    between atoms: C_13  and  C_24
    7  A    between atoms: C_14  and  C_27
                            x       y       z     vdW  Elec       q    Type
                         _______ _______ _______ _____ _____    ______ ____

>  <TORSDO>
F 7

$$$$
=
 OpenBabel11072413473D

 29 32  0  0  1  0  0  0  0  0999 V2000
  159.7420  210.2610  154.2760 C   0  0  2  0  0  3  0  0  0  0  0  0
  161.4770  210.5120  152.3260 S   0  0  0  0  0  0  0  0  0  0  0  0
  159.4520  212.3460  152.9660 C   0  0  0  0  0  0  0  0  0  0  0  0
  161.6160  209.0890  153.4770 C   0  0  1  0  0  3  0  0  0  0  0  0
  158.8200  210.6810  155.4350 C   0  0  0  0  0  2  0  0  0  0  0  0
  160.7140  209.2280  154.6270 N   0  0  0  0  0  0  0  0  0  0  0  0
  160.4420  211.3650  153.5310 C   0  0  1  0  0  3  0  0  0  0  0  0
  158.8170  213.1800  153.7970 C   0  0  0  0  0  3  0  0  0  0  0  0
  158.9960  213.1360  155.2640 C   0  0  0  0  0  3  0  0  0  0  0  0
  159.0690  212.0300  155.9530 N   0  0  0  0  0  0  0  0  0  0  0  0
  160.9560  205.3630  151.4460 C   0  0  0  0  0  3  0  0  0  0  0  0
  161.1440  205.3880  152.8310 C   0  0  0  0  0  3  0  0  0  0  0  0
  160.9770  206.5530  150.7160 C   0  0  0  0  0  3  0  0  0  0  0  0
  161.1850  207.7710  151.3700 C   0  0  0  0  0  3  0  0  0  0  0  0
  161.3530  206.6050  153.4860 C   0  0  0  0  0  3  0  0  0  0  0  0
  161.3700  207.8010  152.7600 C   0  0  0  0  0  0  0  0  0  0  0  0
  161.4960  209.6940  155.6980 N   0  0  0  0  0  2  0  0  0  0  0  0
  161.8040  208.5420  156.5290 C   0  0  0  0  0  2  0  0  0  0  0  0
  160.5550  208.0860  157.2600 C   0  0  0  0  0  2  0  0  0  0  0  0
  160.2540  206.7710  156.9080 O   0  0  0  0  0  1  0  0  0  0  0  0
  159.1820  212.4280  151.4980 C   0  0  0  0  0  2  0  0  0  0  0  0
  159.9060  213.6170  150.8870 C   0  0  0  0  0  2  0  0  0  0  0  0
  161.6240  212.3800  147.7510 C   0  0  0  0  0  3  0  0  0  0  0  0
  161.3500  212.6550  149.0930 C   0  0  0  0  0  3  0  0  0  0  0  0
  159.5740  213.4940  147.1020 C   0  0  0  0  0  3  0  0  0  0  0  0
  159.2940  213.7690  148.4450 C   0  0  0  0  0  0  0  0  0  0  0  0
  158.1300  214.4530  148.7730 O   0  0  0  0  0  1  0  0  0  0  0  0
  160.7370  212.8000  146.7550 C   0  0  0  0  0  3  0  0  0  0  0  0
  160.1890  213.3540  149.4460 C   0  0  0  0  0  0  0  0  0  0  0  0
  1  6  1  0  0  0  0
  1  5  1  1  0  0  0
  2  4  1  0  0  0  0
  3  7  1  0  0  0  0
  3  8  2  0  0  0  0
  4 16  1  6  0  0  0
  4  6  1  0  0  0  0
  5 10  1  0  0  0  0
  6 17  1  0  0  0  0
  7  2  1  6  0  0  0
  7  1  1  0  0  0  0
  8  9  1  0  0  0  0
  9 10  2  0  0  0  0
 11 12  1  0  0  0  0
 12 15  2  0  0  0  0
 13 14  1  0  0  0  0
 13 11  2  0  0  0  0
 14 16  2  0  0  0  0
 16 15  1  0  0  0  0
 17 18  1  0  0  0  0
 18 19  1  0  0  0  0
 20 19  1  0  0  0  0
 21  3  1  0  0  0  0
 22 21  1  0  0  0  0
 23 24  1  0  0  0  0
 24 29  2  0  0  0  0
 25 26  2  0  0  0  0
 26 27  1  0  0  0  0
 26 29  1  0  0  0  0
 28 25  1  0  0  0  0
 28 23  2  0  0  0  0
 29 22  1  0  0  0  0
M  END
>  <MODEL>
3

>  <REMARK>
 VINA RESULT:      -6.3      4.341      7.796
  Name = 
  7 active torsions:
  status: ('A' for Active; 'I' for Inactive)
    1  A    between atoms: C_8  and  C_17
    2  A    between atoms: C_8  and  C_28
    3  A    between atoms: N_9  and  C_13
    4  A    between atoms: N_9  and  N_20
    5  A    between atoms: C_12  and  C_28
    6  A    between atoms: C_13  and  C_24
    7  A    between atoms: C_14  and  C_27
                            x       y       z     vdW  Elec       q    Type
                         _______ _______ _______ _____ _____    ______ ____

>  <TORSDO>
F 7

$$$$
=
 OpenBabel11072413473D

 29 32  0  0  1  0  0  0  0  0999 V2000
  159.7960  210.3700  152.5670 C   0  0  2  0  0  3  0  0  0  0  0  0
  162.1870  210.0740  151.5320 S   0  0  0  0  0  0  0  0  0  0  0  0
  160.4980  212.2820  151.1540 C   0  0  0  0  0  0  0  0  0  0  0  0
  161.5500  208.8120  152.7040 C   0  0  1  0  0  3  0  0  0  0  0  0
  158.5880  211.0850  153.1990 C   0  0  0  0  0  2  0  0  0  0  0  0
  160.3060  209.2480  153.3510 N   0  0  0  0  0  0  0  0  0  0  0  0
  160.9470  211.2360  152.1360 C   0  0  1  0  0  3  0  0  0  0  0  0
  159.7640  213.3120  151.5910 C   0  0  0  0  0  3  0  0  0  0  0  0
  159.3150  213.4330  152.9950 C   0  0  0  0  0  3  0  0  0  0  0  0
  158.8730  212.4320  153.7040 N   0  0  0  0  0  0  0  0  0  0  0  0
  161.0570  205.0150  150.7570 C   0  0  0  0  0  3  0  0  0  0  0  0
  161.2830  205.0780  152.1360 C   0  0  0  0  0  3  0  0  0  0  0  0
  160.9850  206.1910  150.0060 C   0  0  0  0  0  3  0  0  0  0  0  0
  161.1380  207.4300  150.6330 C   0  0  0  0  0  3  0  0  0  0  0  0
  161.4370  206.3170  152.7630 C   0  0  0  0  0  3  0  0  0  0  0  0
  161.3610  207.4980  152.0160 C   0  0  0  0  0  0  0  0  0  0  0  0
  160.6600  209.7170  154.6280 N   0  0  0  0  0  2  0  0  0  0  0  0
  160.4790  208.6080  155.5500 C   0  0  0  0  0  2  0  0  0  0  0  0
  161.6490  208.5450  156.5150 C   0  0  0  0  0  2  0  0  0  0  0  0
  162.4540  209.6730  156.3560 O   0  0  0  0  0  1  0  0  0  0  0  0
  160.8730  212.2130  149.7090 C   0  0  0  0  0  2  0  0  0  0  0  0
  160.4580  213.4850  148.9870 C   0  0  0  0  0  2  0  0  0  0  0  0
  157.2390  212.9390  147.0740 C   0  0  0  0  0  3  0  0  0  0  0  0
  158.1370  213.2230  148.1070 C   0  0  0  0  0  3  0  0  0  0  0  0
  159.0930  212.5280  145.5710 C   0  0  0  0  0  3  0  0  0  0  0  0
  159.9960  212.8140  146.6000 C   0  0  0  0  0  0  0  0  0  0  0  0
  161.3610  212.7540  146.3470 O   0  0  0  0  0  1  0  0  0  0  0  0
  157.7160  212.5910  145.8070 C   0  0  0  0  0  3  0  0  0  0  0  0
  159.5170  213.1560  147.8770 C   0  0  0  0  0  0  0  0  0  0  0  0
  1  5  1  1  0  0  0
  1  6  1  0  0  0  0
  2  7  1  0  0  0  0
  2  4  1  0  0  0  0
  3  8  2  0  0  0  0
  4 16  1  6  0  0  0
  4  6  1  0  0  0  0
  5 10  1  0  0  0  0
  6 17  1  0  0  0  0
  7  3  1  6  0  0  0
  7  1  1  0  0  0  0
  8  9  1  0  0  0  0
  9 10  2  0  0  0  0
 11 12  1  0  0  0  0
 12 15  2  0  0  0  0
 13 14  1  0  0  0  0
 13 11  2  0  0  0  0
 14 16  2  0  0  0  0
 16 15  1  0  0  0  0
 17 18  1  0  0  0  0
 18 19  1  0  0  0  0
 20 19  1  0  0  0  0
 21  3  1  0  0  0  0
 22 21  1  0  0  0  0
 23 24  1  0  0  0  0
 25 28  1  0  0  0  0
 25 26  2  0  0  0  0
 26 29  1  0  0  0  0
 27 26  1  0  0  0  0
 28 23  2  0  0  0  0
 29 24  2  0  0  0  0
 29 22  1  0  0  0  0
M  END
>  <MODEL>
4

>  <REMARK>
 VINA RESULT:      -6.2      4.302      7.711
  Name = 
  7 active torsions:
  status: ('A' for Active; 'I' for Inactive)
    1  A    between atoms: C_8  and  C_17
    2  A    between atoms: C_8  and  C_28
    3  A    between atoms: N_9  and  C_13
    4  A    between atoms: N_9  and  N_20
    5  A    between atoms: C_12  and  C_28
    6  A    between atoms: C_13  and  C_24
    7  A    between atoms: C_14  and  C_27
                            x       y       z     vdW  Elec       q    Type
                         _______ _______ _______ _____ _____    ______ ____

>  <TORSDO>
F 7

$$$$
=
 OpenBabel11072413473D

 29 32  0  0  1  0  0  0  0  0999 V2000
  161.1220  210.9170  154.9320 C   0  0  2  0  0  3  0  0  0  0  0  0
  158.7270  210.2520  154.0950 S   0  0  0  0  0  0  0  0  0  0  0  0
  160.7150  208.4720  154.9610 C   0  0  0  0  0  0  0  0  0  0  0  0
  159.1640  212.0290  154.2570 C   0  0  1  0  0  3  0  0  0  0  0  0
  162.4090  210.8660  155.7750 C   0  0  0  0  0  2  0  0  0  0  0  0
  160.4470  212.2130  154.9450 N   0  0  0  0  0  0  0  0  0  0  0  0
  160.1100  209.8320  155.1740 C   0  0  1  0  0  3  0  0  0  0  0  0
  161.5810  207.9970  155.8640 C   0  0  0  0  0  3  0  0  0  0  0  0
  162.0230  208.7830  157.0360 C   0  0  0  0  0  3  0  0  0  0  0  0
  162.3100  210.0540  156.9910 N   0  0  0  0  0  0  0  0  0  0  0  0
  159.1360  213.9360  150.4080 C   0  0  0  0  0  3  0  0  0  0  0  0
  158.1930  214.2890  151.3790 C   0  0  0  0  0  3  0  0  0  0  0  0
  160.0970  212.9610  150.6900 C   0  0  0  0  0  3  0  0  0  0  0  0
  160.1170  212.3410  151.9420 C   0  0  0  0  0  3  0  0  0  0  0  0
  158.2120  213.6680  152.6310 C   0  0  0  0  0  3  0  0  0  0  0  0
  159.1760  212.6950  152.9190 C   0  0  0  0  0  0  0  0  0  0  0  0
  160.1450  212.5490  156.2770 N   0  0  0  0  0  2  0  0  0  0  0  0
  159.6660  213.9210  156.2690 C   0  0  0  0  0  2  0  0  0  0  0  0
  158.5210  214.0710  157.2530 C   0  0  0  0  0  2  0  0  0  0  0  0
  157.6960  212.9480  157.1960 O   0  0  0  0  0  1  0  0  0  0  0  0
  160.3540  207.6300  153.7800 C   0  0  0  0  0  2  0  0  0  0  0  0
  161.5720  207.3920  152.9010 C   0  0  0  0  0  2  0  0  0  0  0  0
  160.9640  203.8470  151.7240 C   0  0  0  0  0  3  0  0  0  0  0  0
  161.2130  204.9470  152.5500 C   0  0  0  0  0  3  0  0  0  0  0  0
  160.9380  205.3030  149.7890 C   0  0  0  0  0  3  0  0  0  0  0  0
  161.1840  206.4070  150.6120 C   0  0  0  0  0  0  0  0  0  0  0  0
  161.2830  207.6720  150.0450 O   0  0  0  0  0  1  0  0  0  0  0  0
  160.8280  204.0250  150.3440 C   0  0  0  0  0  3  0  0  0  0  0  0
  161.3290  206.2300  151.9990 C   0  0  0  0  0  0  0  0  0  0  0  0
  1  6  1  0  0  0  0
  1  7  1  0  0  0  0
  1  5  1  1  0  0  0
  2  4  1  0  0  0  0
  3  7  1  0  0  0  0
  3  8  2  0  0  0  0
  4 16  1  6  0  0  0
  4  6  1  0  0  0  0
  5 10  1  0  0  0  0
  6 17  1  0  0  0  0
  7  2  1  6  0  0  0
  8  9  1  0  0  0  0
 10  9  2  0  0  0  0
 11 13  2  0  0  0  0
 11 12  1  0  0  0  0
 12 15  2  0  0  0  0
 13 14  1  0  0  0  0
 14 16  2  0  0  0  0
 15 16  1  0  0  0  0
 18 17  1  0  0  0  0
 18 19  1  0  0  0  0
 20 19  1  0  0  0  0
 21  3  1  0  0  0  0
 22 21  1  0  0  0  0
 23 24  1  0  0  0  0
 25 28  1  0  0  0  0
 25 26  2  0  0  0  0
 26 29  1  0  0  0  0
 27 26  1  0  0  0  0
 28 23  2  0  0  0  0
 29 24  2  0  0  0  0
 29 22  1  0  0  0  0
M  END
>  <MODEL>
5

>  <REMARK>
 VINA RESULT:      -5.8      4.086      9.081
  Name = 
  7 active torsions:
  status: ('A' for Active; 'I' for Inactive)
    1  A    between atoms: C_8  and  C_17
    2  A    between atoms: C_8  and  C_28
    3  A    between atoms: N_9  and  C_13
    4  A    between atoms: N_9  and  N_20
    5  A    between atoms: C_12  and  C_28
    6  A    between atoms: C_13  and  C_24
    7  A    between atoms: C_14  and  C_27
                            x       y       z     vdW  Elec       q    Type
                         _______ _______ _______ _____ _____    ______ ____

>  <TORSDO>
F 7

$$$$
=
 OpenBabel11072413473D

 29 32  0  0  1  0  0  0  0  0999 V2000
  160.9790  206.8790  149.7860 C   0  0  2  0  0  3  0  0  0  0  0  0
  163.0180  207.2580  148.1810 S   0  0  0  0  0  0  0  0  0  0  0  0
  161.9570  209.1500  149.9610 C   0  0  0  0  0  0  0  0  0  0  0  0
  162.2440  205.5960  148.2770 C   0  0  1  0  0  3  0  0  0  0  0  0
  160.1200  206.9860  151.0590 C   0  0  0  0  0  2  0  0  0  0  0  0
  161.2760  205.5080  149.3780 N   0  0  0  0  0  0  0  0  0  0  0  0
  162.2450  207.6890  149.7530 C   0  0  1  0  0  3  0  0  0  0  0  0
  161.6030  209.5760  151.1790 C   0  0  0  0  0  3  0  0  0  0  0  0
  161.4190  208.6580  152.3240 C   0  0  0  0  0  3  0  0  0  0  0  0
  160.8320  207.4970  152.2350 N   0  0  0  0  0  0  0  0  0  0  0  0
  160.4570  204.5240  144.5210 C   0  0  0  0  0  3  0  0  0  0  0  0
  161.0920  203.5550  145.3030 C   0  0  0  0  0  3  0  0  0  0  0  0
  160.3970  205.8490  144.9620 C   0  0  0  0  0  3  0  0  0  0  0  0
  160.9700  206.2040  146.1860 C   0  0  0  0  0  3  0  0  0  0  0  0
  161.6660  203.9100  146.5270 C   0  0  0  0  0  3  0  0  0  0  0  0
  161.6040  205.2340  146.9750 C   0  0  0  0  0  0  0  0  0  0  0  0
  161.9300  204.8550  150.4370 N   0  0  0  0  0  2  0  0  0  0  0  0
  161.3850  203.5100  150.5060 C   0  0  0  0  0  2  0  0  0  0  0  0
  160.8260  203.2510  151.8920 C   0  0  0  0  0  2  0  0  0  0  0  0
  161.2050  204.2800  152.7550 O   0  0  0  0  0  1  0  0  0  0  0  0
  162.0790  210.1390  148.8470 C   0  0  0  0  0  2  0  0  0  0  0  0
  161.9570  211.5590  149.3760 C   0  0  0  0  0  2  0  0  0  0  0  0
  162.6480  213.4250  146.1580 C   0  0  0  0  0  3  0  0  0  0  0  0
  162.7830  212.5520  147.2410 C   0  0  0  0  0  3  0  0  0  0  0  0
  160.5490  214.2260  147.0620 C   0  0  0  0  0  3  0  0  0  0  0  0
  160.6780  213.3510  148.1460 C   0  0  0  0  0  0  0  0  0  0  0  0
  159.6890  213.3220  149.1210 O   0  0  0  0  0  1  0  0  0  0  0  0
  161.5320  214.2620  146.0690 C   0  0  0  0  0  3  0  0  0  0  0  0
  161.8040  212.5140  148.2410 C   0  0  0  0  0  0  0  0  0  0  0  0
  1  5  1  1  0  0  0
  2  4  1  0  0  0  0
  3  8  2  0  0  0  0
  4 16  1  6  0  0  0
  4  6  1  0  0  0  0
  5 10  1  0  0  0  0
  6  1  1  0  0  0  0
  6 17  1  0  0  0  0
  7  2  1  6  0  0  0
  7  1  1  0  0  0  0
  7  3  1  0  0  0  0
  8  9  1  0  0  0  0
 10  9  2  0  0  0  0
 11 13  2  0  0  0  0
 11 12  1  0  0  0  0
 12 15  2  0  0  0  0
 13 14  1  0  0  0  0
 14 16  2  0  0  0  0
 15 16  1  0  0  0  0
 17 18  1  0  0  0  0
 18 19  1  0  0  0  0
 19 20  1  0  0  0  0
 21 22  1  0  0  0  0
 21  3  1  0  0  0  0
 23 24  1  0  0  0  0
 24 29  2  0  0  0  0
 25 26  2  0  0  0  0
 26 29  1  0  0  0  0
 26 27  1  0  0  0  0
 28 23  2  0  0  0  0
 28 25  1  0  0  0  0
 29 22  1  0  0  0  0
M  END
>  <MODEL>
6

>  <REMARK>
 VINA RESULT:      -5.7      3.131      5.878
  Name = 
  7 active torsions:
  status: ('A' for Active; 'I' for Inactive)
    1  A    between atoms: C_8  and  C_17
    2  A    between atoms: C_8  and  C_28
    3  A    between atoms: N_9  and  C_13
    4  A    between atoms: N_9  and  N_20
    5  A    between atoms: C_12  and  C_28
    6  A    between atoms: C_13  and  C_24
    7  A    between atoms: C_14  and  C_27
                            x       y       z     vdW  Elec       q    Type
                         _______ _______ _______ _____ _____    ______ ____

>  <TORSDO>
F 7

$$$$
=
 OpenBabel11072413473D

 29 32  0  0  1  0  0  0  0  0999 V2000
  160.9320  206.1110  150.1340 C   0  0  2  0  0  3  0  0  0  0  0  0
  163.0810  207.1830  151.1860 S   0  0  0  0  0  0  0  0  0  0  0  0
  161.5490  205.1270  152.3240 C   0  0  0  0  0  0  0  0  0  0  0  0
  162.5440  207.7030  149.5090 C   0  0  1  0  0  3  0  0  0  0  0  0
  159.9140  205.0190  149.7590 C   0  0  0  0  0  2  0  0  0  0  0  0
  161.4690  206.8470  148.9920 N   0  0  0  0  0  0  0  0  0  0  0  0
  162.0650  205.7010  151.0340 C   0  0  1  0  0  3  0  0  0  0  0  0
  160.9900  203.9110  152.3170 C   0  0  0  0  0  3  0  0  0  0  0  0
  160.7950  203.1290  151.0770 C   0  0  0  0  0  3  0  0  0  0  0  0
  160.3940  203.6460  149.9490 N   0  0  0  0  0  0  0  0  0  0  0  0
  161.3980  211.8420  149.4600 C   0  0  0  0  0  3  0  0  0  0  0  0
  161.5890  211.1470  148.2610 C   0  0  0  0  0  3  0  0  0  0  0  0
  161.5760  211.1890  150.6820 C   0  0  0  0  0  3  0  0  0  0  0  0
  161.9430  209.8400  150.7060 C   0  0  0  0  0  3  0  0  0  0  0  0
  161.9560  209.7990  148.2850 C   0  0  0  0  0  3  0  0  0  0  0  0
  162.1300  209.1400  149.5060 C   0  0  0  0  0  0  0  0  0  0  0  0
  162.0710  205.9330  148.1100 N   0  0  0  0  0  2  0  0  0  0  0  0
  161.9560  206.4940  146.7750 C   0  0  0  0  0  2  0  0  0  0  0  0
  161.1860  205.5410  145.8800 C   0  0  0  0  0  2  0  0  0  0  0  0
  160.0990  206.2030  145.3090 O   0  0  0  0  0  1  0  0  0  0  0  0
  161.6690  205.8700  153.6160 C   0  0  0  0  0  2  0  0  0  0  0  0
  160.4400  206.7330  153.8520 C   0  0  0  0  0  2  0  0  0  0  0  0
  161.5470  210.2820  154.5570 C   0  0  0  0  0  3  0  0  0  0  0  0
  161.2060  209.1080  153.8790 C   0  0  0  0  0  3  0  0  0  0  0  0
  161.1120  209.1890  156.6740 C   0  0  0  0  0  3  0  0  0  0  0  0
  160.7670  208.0130  156.0000 C   0  0  0  0  0  0  0  0  0  0  0  0
  160.3760  206.8970  156.7300 O   0  0  0  0  0  1  0  0  0  0  0  0
  161.5010  210.3220  155.9540 C   0  0  0  0  0  3  0  0  0  0  0  0
  160.8210  207.9680  154.5960 C   0  0  0  0  0  0  0  0  0  0  0  0
  1  5  1  6  0  0  0
  1  7  1  0  0  0  0
  3 21  1  0  0  0  0
  4 16  1  1  0  0  0
  4  2  1  0  0  0  0
  5 10  1  0  0  0  0
  6  4  1  0  0  0  0
  6  1  1  0  0  0  0
  7  2  1  1  0  0  0
  7  3  1  0  0  0  0
  8  3  2  0  0  0  0
  9  8  1  0  0  0  0
 10  9  2  0  0  0  0
 11 13  1  0  0  0  0
 12 15  1  0  0  0  0
 12 11  2  0  0  0  0
 13 14  2  0  0  0  0
 15 16  2  0  0  0  0
 16 14  1  0  0  0  0
 17  6  1  0  0  0  0
 18 17  1  0  0  0  0
 19 18  1  0  0  0  0
 20 19  1  0  0  0  0
 21 22  1  0  0  0  0
 22 29  1  0  0  0  0
 23 28  1  0  0  0  0
 24 23  2  0  0  0  0
 24 29  1  0  0  0  0
 26 25  1  0  0  0  0
 26 27  1  0  0  0  0
 28 25  2  0  0  0  0
 29 26  2  0  0  0  0
M  END
>  <MODEL>
7

>  <REMARK>
 VINA RESULT:      -5.4      1.987      4.837
  Name = 
  7 active torsions:
  status: ('A' for Active; 'I' for Inactive)
    1  A    between atoms: C_8  and  C_17
    2  A    between atoms: C_8  and  C_28
    3  A    between atoms: N_9  and  C_13
    4  A    between atoms: N_9  and  N_20
    5  A    between atoms: C_12  and  C_28
    6  A    between atoms: C_13  and  C_24
    7  A    between atoms: C_14  and  C_27
                            x       y       z     vdW  Elec       q    Type
                         _______ _______ _______ _____ _____    ______ ____

>  <TORSDO>
F 7

$$$$
=
 OpenBabel11072413473D

 29 32  0  0  1  0  0  0  0  0999 V2000
  161.0570  207.2960  150.2770 C   0  0  2  0  0  3  0  0  0  0  0  0
  162.4760  205.9940  152.0570 S   0  0  0  0  0  0  0  0  0  0  0  0
  161.5830  204.9690  149.6020 C   0  0  0  0  0  0  0  0  0  0  0  0
  162.0950  207.7690  152.3320 C   0  0  1  0  0  3  0  0  0  0  0  0
  160.5670  207.7480  148.8890 C   0  0  0  0  0  2  0  0  0  0  0  0
  161.4950  208.3880  151.1430 N   0  0  0  0  0  0  0  0  0  0  0  0
  162.0850  206.1980  150.3080 C   0  0  1  0  0  3  0  0  0  0  0  0
  161.4940  204.9770  148.2670 C   0  0  0  0  0  3  0  0  0  0  0  0
  161.8060  206.1710  147.4530 C   0  0  0  0  0  3  0  0  0  0  0  0
  161.4550  207.3840  147.7800 N   0  0  0  0  0  0  0  0  0  0  0  0
  159.5970  208.3160  155.7820 C   0  0  0  0  0  3  0  0  0  0  0  0
  159.9800  209.4140  155.0060 C   0  0  0  0  0  3  0  0  0  0  0  0
  160.0230  207.0310  155.4340 C   0  0  0  0  0  3  0  0  0  0  0  0
  160.8300  206.8440  154.3090 C   0  0  0  0  0  3  0  0  0  0  0  0
  160.7880  209.2280  153.8810 C   0  0  0  0  0  3  0  0  0  0  0  0
  161.2130  207.9430  153.5260 C   0  0  0  0  0  0  0  0  0  0  0  0
  162.5240  209.0920  150.4930 N   0  0  0  0  0  2  0  0  0  0  0  0
  162.1390  210.4930  150.4870 C   0  0  0  0  0  2  0  0  0  0  0  0
  162.2440  211.0500  149.0790 C   0  0  0  0  0  2  0  0  0  0  0  0
  161.5900  212.2800  149.0070 O   0  0  0  0  0  1  0  0  0  0  0  0
  161.2070  203.7330  150.3530 C   0  0  0  0  0  2  0  0  0  0  0  0
  160.0180  203.0490  149.6960 C   0  0  0  0  0  2  0  0  0  0  0  0
  160.7950  201.4310  146.3650 C   0  0  0  0  0  3  0  0  0  0  0  0
  160.3360  202.3370  147.3250 C   0  0  0  0  0  3  0  0  0  0  0  0
  161.5820  199.9620  148.1220 C   0  0  0  0  0  3  0  0  0  0  0  0
  161.1270  200.8670  149.0870 C   0  0  0  0  0  0  0  0  0  0  0  0
  161.3060  200.5760  150.4340 O   0  0  0  0  0  1  0  0  0  0  0  0
  161.4170  200.2430  146.7630 C   0  0  0  0  0  3  0  0  0  0  0  0
  160.4950  202.0580  148.6880 C   0  0  0  0  0  0  0  0  0  0  0  0
  1  5  1  6  0  0  0
  1  7  1  0  0  0  0
  1  6  1  0  0  0  0
  2  4  1  0  0  0  0
  3 21  1  0  0  0  0
  4 16  1  1  0  0  0
  6  4  1  0  0  0  0
  7  3  1  1  0  0  0
  7  2  1  0  0  0  0
  8  3  2  0  0  0  0
  9 10  2  0  0  0  0
  9  8  1  0  0  0  0
 10  5  1  0  0  0  0
 12 11  2  0  0  0  0
 13 11  1  0  0  0  0
 14 13  2  0  0  0  0
 15 12  1  0  0  0  0
 16 15  2  0  0  0  0
 16 14  1  0  0  0  0
 17  6  1  0  0  0  0
 18 17  1  0  0  0  0
 19 18  1  0  0  0  0
 20 19  1  0  0  0  0
 22 21  1  0  0  0  0
 23 28  2  0  0  0  0
 23 24  1  0  0  0  0
 24 29  2  0  0  0  0
 25 26  2  0  0  0  0
 26 27  1  0  0  0  0
 28 25  1  0  0  0  0
 29 26  1  0  0  0  0
 29 22  1  0  0  0  0
M  END
>  <MODEL>
8

>  <REMARK>
 VINA RESULT:      -5.3      2.172      7.625
  Name = 
  7 active torsions:
  status: ('A' for Active; 'I' for Inactive)
    1  A    between atoms: C_8  and  C_17
    2  A    between atoms: C_8  and  C_28
    3  A    between atoms: N_9  and  C_13
    4  A    between atoms: N_9  and  N_20
    5  A    between atoms: C_12  and  C_28
    6  A    between atoms: C_13  and  C_24
    7  A    between atoms: C_14  and  C_27
                            x       y       z     vdW  Elec       q    Type
                         _______ _______ _______ _____ _____    ______ ____

>  <TORSDO>
F 7

$$$$
=
 OpenBabel11072413473D

 29 32  0  0  1  0  0  0  0  0999 V2000
  160.8070  205.2300  150.4560 C   0  0  2  0  0  3  0  0  0  0  0  0
  162.7050  206.4750  149.1440 S   0  0  0  0  0  0  0  0  0  0  0  0
  161.5580  207.3180  151.5610 C   0  0  0  0  0  0  0  0  0  0  0  0
  162.1100  204.8470  148.5380 C   0  0  1  0  0  3  0  0  0  0  0  0
  160.0120  204.6980  151.6620 C   0  0  0  0  0  2  0  0  0  0  0  0
  161.2180  204.1980  149.5070 N   0  0  0  0  0  0  0  0  0  0  0  0
  161.9810  206.1210  150.7570 C   0  0  1  0  0  3  0  0  0  0  0  0
  161.2310  207.1550  152.8480 C   0  0  0  0  0  3  0  0  0  0  0  0
  161.2030  205.8290  153.5030 C   0  0  0  0  0  3  0  0  0  0  0  0
  160.7330  204.7510  152.9380 N   0  0  0  0  0  0  0  0  0  0  0  0
  160.2370  205.2390  144.6920 C   0  0  0  0  0  3  0  0  0  0  0  0
  160.9780  204.0950  145.0040 C   0  0  0  0  0  3  0  0  0  0  0  0
  160.0980  206.2600  145.6360 C   0  0  0  0  0  3  0  0  0  0  0  0
  160.6990  206.1370  146.8910 C   0  0  0  0  0  3  0  0  0  0  0  0
  161.5800  203.9720  146.2590 C   0  0  0  0  0  3  0  0  0  0  0  0
  161.4400  204.9900  147.2090 C   0  0  0  0  0  0  0  0  0  0  0  0
  161.9920  203.2430  150.1890 N   0  0  0  0  0  2  0  0  0  0  0  0
  161.1830  202.0410  150.2970 C   0  0  0  0  0  2  0  0  0  0  0  0
  160.4900  201.7670  148.9750 C   0  0  0  0  0  2  0  0  0  0  0  0
  161.2030  200.8070  148.2570 O   0  0  0  0  0  1  0  0  0  0  0  0
  161.5180  208.6880  150.9650 C   0  0  0  0  0  2  0  0  0  0  0  0
  162.2520  209.6800  151.8540 C   0  0  0  0  0  2  0  0  0  0  0  0
  159.5220  212.2760  152.2060 C   0  0  0  0  0  3  0  0  0  0  0  0
  160.4550  211.3990  151.6450 C   0  0  0  0  0  3  0  0  0  0  0  0
  160.2220  211.6070  154.4260 C   0  0  0  0  0  3  0  0  0  0  0  0
  161.1560  210.7260  153.8690 C   0  0  0  0  0  0  0  0  0  0  0  0
  161.9540  209.9590  154.7090 O   0  0  0  0  0  1  0  0  0  0  0  0
  159.4060  212.3810  153.5950 C   0  0  0  0  0  3  0  0  0  0  0  0
  161.2790  210.6250  152.4730 C   0  0  0  0  0  0  0  0  0  0  0  0
  1  7  1  0  0  0  0
  1  5  1  1  0  0  0
  3  8  2  0  0  0  0
  4 16  1  6  0  0  0
  4  2  1  0  0  0  0
  4  6  1  0  0  0  0
  5 10  1  0  0  0  0
  6 17  1  0  0  0  0
  6  1  1  0  0  0  0
  7  2  1  6  0  0  0
  7  3  1  0  0  0  0
  8  9  1  0  0  0  0
 10  9  2  0  0  0  0
 11 12  2  0  0  0  0
 11 13  1  0  0  0  0
 12 15  1  0  0  0  0
 13 14  2  0  0  0  0
 14 16  1  0  0  0  0
 15 16  2  0  0  0  0
 17 18  1  0  0  0  0
 19 18  1  0  0  0  0
 20 19  1  0  0  0  0
 21  3  1  0  0  0  0
 21 22  1  0  0  0  0
 22 29  1  0  0  0  0
 23 28  1  0  0  0  0
 24 23  2  0  0  0  0
 24 29  1  0  0  0  0
 26 25  1  0  0  0  0
 26 27  1  0  0  0  0
 28 25  2  0  0  0  0
 29 26  2  0  0  0  0
M  END
>  <MODEL>
9

>  <REMARK>
 VINA RESULT:      -5.3      2.346      4.136
  Name = 
  7 active torsions:
  status: ('A' for Active; 'I' for Inactive)
    1  A    between atoms: C_8  and  C_17
    2  A    between atoms: C_8  and  C_28
    3  A    between atoms: N_9  and  C_13
    4  A    between atoms: N_9  and  N_20
    5  A    between atoms: C_12  and  C_28
    6  A    between atoms: C_13  and  C_24
    7  A    between atoms: C_14  and  C_27
                            x       y       z     vdW  Elec       q    Type
                         _______ _______ _______ _____ _____    ______ ____

>  <TORSDO>
F 7

$$$$
