=
 OpenBabel11072413133D

 34 39  0  0  1  0  0  0  0  0999 V2000
  161.9310  207.0690  149.4780 C   0  0  2  0  0  3  0  0  0  0  0  0
  160.8780  201.6000  147.6150 C   0  0  0  0  0  2  0  0  0  0  0  0
  160.5050  202.7360  146.6720 C   0  0  1  0  0  3  0  0  0  0  0  0
  160.5870  203.2420  149.5950 C   0  0  2  0  0  3  0  0  0  0  0  0
  160.1620  206.4360  146.6730 C   0  0  0  0  0  1  0  0  0  0  0  0
  162.8880  207.0170  148.2870 C   0  0  0  0  0  2  0  0  0  0  0  0
  160.4580  205.6390  147.9320 C   0  0  2  0  0  3  0  0  0  0  0  0
  160.5110  206.6140  149.1170 C   0  0  0  0  0  2  0  0  0  0  0  0
  163.0150  205.5920  147.7340 C   0  0  0  0  0  2  0  0  0  0  0  0
  160.4030  201.8260  149.0490 C   0  0  0  0  0  2  0  0  0  0  0  0
  161.6830  203.7420  146.6370 C   0  0  2  0  0  3  0  0  0  0  0  0
  161.7310  204.7350  147.8350 C   0  0  2  0  0  0  0  0  0  0  0  0
  161.8900  203.9100  149.1330 C   0  0  0  0  0  2  0  0  0  0  0  0
  160.8450  201.0330  144.9450 O   0  0  0  0  0  0  0  0  0  0  0  0
  160.0890  202.1600  145.3110 C   0  0  1  0  0  0  0  0  0  0  0  0
  159.5070  200.8050  145.3310 C   0  0  0  0  0  2  0  0  0  0  0  0
  158.4000  203.7620  144.3600 C   0  0  0  0  0  1  0  0  0  0  0  0
  159.7110  203.0340  144.1190 C   0  0  0  0  0  2  0  0  0  0  0  0
  161.7570  209.4640  149.3360 O   0  0  0  0  0  1  0  0  0  0  0  0
  161.9360  208.4080  150.2320 C   0  0  1  0  0  3  0  0  0  0  0  0
  161.4440  207.8430  152.6870 C   0  0  0  0  0  2  0  0  0  0  0  0
  160.9760  208.5510  151.4270 C   0  0  1  0  0  3  0  0  0  0  0  0
  160.6700  209.9940  151.7930 C   0  0  0  0  0  2  0  0  0  0  0  0
  160.8570  210.0990  153.2970 C   0  0  2  0  0  3  0  0  0  0  0  0
  160.9140  208.6740  153.8320 C   0  0  0  0  0  2  0  0  0  0  0  0
  160.3710  211.9750  154.9070 C   0  0  0  0  0  2  0  0  0  0  0  0
  159.7990  211.0210  153.9260 C   0  0  1  0  0  3  0  0  0  0  0  0
  160.0350  212.3710  153.5980 O   0  0  0  0  0  0  0  0  0  0  0  0
  162.0700  204.3010  145.2850 C   0  0  0  0  0  3  0  0  0  0  0  0
  163.2120  204.2340  144.8630 O   0  0  0  0  0  0  0  0  0  0  0  0
  160.5340  203.1820  151.1110 C   0  0  0  0  0  2  0  0  0  0  0  0
  161.0490  204.4220  153.1670 C   0  0  0  0  0  2  0  0  0  0  0  0
  162.0850  204.5970  152.2330 O   0  0  0  0  0  0  0  0  0  0  0  0
  160.7770  204.5520  151.7210 C   0  0  1  0  0  3  0  0  0  0  0  0
  1 20  1  6  0  0  0
  2 10  1  0  0  0  0
  3  2  1  1  0  0  0
  4 31  1  1  0  0  0
  6  1  1  0  0  0  0
  7  5  1  6  0  0  0
  7  8  1  0  0  0  0
  8  1  1  0  0  0  0
  9  6  1  0  0  0  0
 10  4  1  0  0  0  0
 11 29  1  6  0  0  0
 11  3  1  0  0  0  0
 11 12  1  0  0  0  0
 12  9  1  6  0  0  0
 12  7  1  0  0  0  0
 12 13  1  0  0  0  0
 13  4  1  0  0  0  0
 14 15  1  0  0  0  0
 14 16  1  0  0  0  0
 15 18  1  6  0  0  0
 15 16  1  0  0  0  0
 15  3  1  0  0  0  0
 18 17  1  0  0  0  0
 20 19  1  6  0  0  0
 21 25  1  0  0  0  0
 22 20  1  6  0  0  0
 22 23  1  0  0  0  0
 22 21  1  0  0  0  0
 24 23  1  6  0  0  0
 24 25  1  0  0  0  0
 24 27  1  0  0  0  0
 27 26  1  1  0  0  0
 28 27  1  0  0  0  0
 28 26  1  0  0  0  0
 30 29  2  0  0  0  0
 33 32  1  0  0  0  0
 34 31  1  6  0  0  0
 34 33  1  0  0  0  0
 34 32  1  0  0  0  0
M  END
>  <MODEL>
1

>  <REMARK>
 VINA RESULT:      -4.4      0.000      0.000
  Name = 
  8 active torsions:
  status: ('A' for Active; 'I' for Inactive)
    1  A    between atoms: C_2  and  C_27
    2  A    between atoms: C_5  and  C_12
    3  A    between atoms: C_7  and  C_27
    4  A    between atoms: C_8  and  C_23
    5  A    between atoms: C_12  and  C_29
    6  A    between atoms: C_15  and  C_22
    7  A    between atoms: C_20  and  C_30
    8  A    between atoms: C_23  and  C_34
                            x       y       z     vdW  Elec       q    Type
                         _______ _______ _______ _____ _____    ______ ____

>  <TORSDO>
F 8

$$$$
=
 OpenBabel11072413133D

 34 39  0  0  1  0  0  0  0  0999 V2000
  161.7000  210.6720  150.3600 C   0  0  2  0  0  3  0  0  0  0  0  0
  160.3910  206.6150  154.4000 C   0  0  0  0  0  2  0  0  0  0  0  0
  160.9670  207.9330  154.9030 C   0  0  1  0  0  3  0  0  0  0  0  0
  161.5950  207.0300  152.1470 C   0  0  2  0  0  3  0  0  0  0  0  0
  162.5960  211.0070  153.5980 C   0  0  0  0  0  1  0  0  0  0  0  0
  160.5910  211.4080  151.1100 C   0  0  0  0  0  2  0  0  0  0  0  0
  162.2670  209.8140  152.7150 C   0  0  2  0  0  3  0  0  0  0  0  0
  162.7770  210.1100  151.2970 C   0  0  0  0  0  2  0  0  0  0  0  0
  159.8690  210.4800  152.0940 C   0  0  0  0  0  2  0  0  0  0  0  0
  161.1630  206.0300  153.2200 C   0  0  0  0  0  2  0  0  0  0  0  0
  160.2380  209.0890  154.1760 C   0  0  2  0  0  3  0  0  0  0  0  0
  160.7600  209.3930  152.7410 C   0  0  2  0  0  0  0  0  0  0  0  0
  160.5540  208.1260  151.8790 C   0  0  0  0  0  2  0  0  0  0  0  0
  159.7180  207.4060  156.9430 O   0  0  0  0  0  0  0  0  0  0  0  0
  160.9010  207.9710  156.4370 C   0  0  1  0  0  0  0  0  0  0  0  0
  160.9050  206.6640  157.1190 C   0  0  0  0  0  2  0  0  0  0  0  0
  162.7970  209.5700  156.8540 C   0  0  0  0  0  1  0  0  0  0  0  0
  161.3930  209.1590  157.2600 C   0  0  0  0  0  2  0  0  0  0  0  0
  162.6910  210.5990  148.1690 O   0  0  0  0  0  1  0  0  0  0  0  0
  162.3060  211.4670  149.1930 C   0  0  1  0  0  3  0  0  0  0  0  0
  162.3120  213.7820  148.0850 C   0  0  0  0  0  2  0  0  0  0  0  0
  161.4780  212.6330  148.6240 C   0  0  1  0  0  3  0  0  0  0  0  0
  160.5070  212.2140  147.5320 C   0  0  0  0  0  2  0  0  0  0  0  0
  160.7030  213.1970  146.3900 C   0  0  2  0  0  3  0  0  0  0  0  0
  161.5030  214.3660  146.9510 C   0  0  0  0  0  2  0  0  0  0  0  0
  159.2320  212.9820  144.3570 C   0  0  0  0  0  2  0  0  0  0  0  0
  159.3630  213.5470  145.7210 C   0  0  1  0  0  3  0  0  0  0  0  0
  158.5990  212.3900  145.4670 O   0  0  0  0  0  0  0  0  0  0  0  0
  159.8400  210.2860  155.0130 C   0  0  0  0  0  3  0  0  0  0  0  0
  158.6870  210.4670  155.3700 O   0  0  0  0  0  0  0  0  0  0  0  0
  161.8940  206.2640  150.8700 C   0  0  0  0  0  2  0  0  0  0  0  0
  160.8590  204.8270  149.1690 C   0  0  0  0  0  2  0  0  0  0  0  0
  161.4360  204.0330  150.1780 O   0  0  0  0  0  0  0  0  0  0  0  0
  160.8200  205.2270  150.5910 C   0  0  1  0  0  3  0  0  0  0  0  0
  1 20  1  6  0  0  0
  1  6  1  0  0  0  0
  1  8  1  0  0  0  0
  3  2  1  6  0  0  0
  3 15  1  0  0  0  0
  4 31  1  6  0  0  0
  4 10  1  0  0  0  0
  6  9  1  0  0  0  0
  7 12  1  0  0  0  0
  7  5  1  1  0  0  0
  8  7  1  0  0  0  0
  9 12  1  0  0  0  0
 10  2  1  0  0  0  0
 11  3  1  0  0  0  0
 11 29  1  1  0  0  0
 12 13  1  6  0  0  0
 12 11  1  0  0  0  0
 13  4  1  0  0  0  0
 14 16  1  0  0  0  0
 15 14  1  0  0  0  0
 15 16  1  0  0  0  0
 15 18  1  1  0  0  0
 17 18  1  0  0  0  0
 20 19  1  6  0  0  0
 21 22  1  0  0  0  0
 22 20  1  6  0  0  0
 23 22  1  0  0  0  0
 24 25  1  1  0  0  0
 24 23  1  0  0  0  0
 25 21  1  0  0  0  0
 26 28  1  0  0  0  0
 27 26  1  6  0  0  0
 27 24  1  0  0  0  0
 28 27  1  0  0  0  0
 29 30  2  0  0  0  0
 32 33  1  0  0  0  0
 32 34  1  0  0  0  0
 33 34  1  0  0  0  0
 34 31  1  6  0  0  0
M  END
>  <MODEL>
2

>  <REMARK>
 VINA RESULT:      -4.4      3.586      8.433
  Name = 
  8 active torsions:
  status: ('A' for Active; 'I' for Inactive)
    1  A    between atoms: C_2  and  C_27
    2  A    between atoms: C_5  and  C_12
    3  A    between atoms: C_7  and  C_27
    4  A    between atoms: C_8  and  C_23
    5  A    between atoms: C_12  and  C_29
    6  A    between atoms: C_15  and  C_22
    7  A    between atoms: C_20  and  C_30
    8  A    between atoms: C_23  and  C_34
                            x       y       z     vdW  Elec       q    Type
                         _______ _______ _______ _____ _____    ______ ____

>  <TORSDO>
F 8

$$$$
=
 OpenBabel11072413133D

 34 39  0  0  1  0  0  0  0  0999 V2000
  161.8830  208.4280  150.6590 C   0  0  2  0  0  3  0  0  0  0  0  0
  161.4370  202.5740  150.8150 C   0  0  0  0  0  2  0  0  0  0  0  0
  160.8110  203.2840  149.6220 C   0  0  1  0  0  3  0  0  0  0  0  0
  161.1190  204.7460  152.1850 C   0  0  2  0  0  3  0  0  0  0  0  0
  159.9440  206.7150  148.4890 C   0  0  0  0  0  1  0  0  0  0  0  0
  162.7100  208.0760  149.4230 C   0  0  0  0  0  2  0  0  0  0  0  0
  160.4790  206.4210  149.8810 C   0  0  2  0  0  3  0  0  0  0  0  0
  160.5120  207.7370  150.6710 C   0  0  0  0  0  2  0  0  0  0  0  0
  162.9820  206.5690  149.3420 C   0  0  0  0  0  2  0  0  0  0  0  0
  161.0840  203.2180  152.1540 C   0  0  0  0  0  2  0  0  0  0  0  0
  161.8230  204.3330  149.0980 C   0  0  2  0  0  3  0  0  0  0  0  0
  161.8510  205.6700  149.8950 C   0  0  2  0  0  0  0  0  0  0  0  0
  162.2580  205.3490  151.3520 C   0  0  0  0  0  2  0  0  0  0  0  0
  160.6260  200.9260  148.9860 O   0  0  0  0  0  0  0  0  0  0  0  0
  160.3450  202.2450  148.5920 C   0  0  1  0  0  0  0  0  0  0  0  0
  159.2750  201.3300  149.0320 C   0  0  0  0  0  2  0  0  0  0  0  0
  160.8530  201.1700  146.3760 C   0  0  0  0  0  1  0  0  0  0  0  0
  160.4690  202.4560  147.0850 C   0  0  0  0  0  2  0  0  0  0  0  0
  161.7450  210.6440  149.7330 O   0  0  0  0  0  1  0  0  0  0  0  0
  161.7730  209.9350  150.9360 C   0  0  1  0  0  3  0  0  0  0  0  0
  160.9780  210.3600  153.3390 C   0  0  0  0  0  2  0  0  0  0  0  0
  160.6350  210.4040  151.8600 C   0  0  1  0  0  3  0  0  0  0  0  0
  160.1290  211.8020  151.5440 C   0  0  0  0  0  2  0  0  0  0  0  0
  160.0760  212.5450  152.8680 C   0  0  2  0  0  3  0  0  0  0  0  0
  160.1990  211.4940  153.9640 C   0  0  0  0  0  2  0  0  0  0  0  0
  158.7960  214.4530  151.8360 C   0  0  0  0  0  2  0  0  0  0  0  0
  158.8460  213.4650  152.9400 C   0  0  1  0  0  3  0  0  0  0  0  0
  158.0070  213.2870  151.8230 O   0  0  0  0  0  0  0  0  0  0  0  0
  161.9850  204.4430  147.5970 C   0  0  0  0  0  3  0  0  0  0  0  0
  163.0780  204.3660  147.0600 O   0  0  0  0  0  0  0  0  0  0  0  0
  161.2300  205.1940  153.6330 C   0  0  0  0  0  2  0  0  0  0  0  0
  160.2390  206.9160  155.0750 C   0  0  0  0  0  2  0  0  0  0  0  0
  161.6040  207.1910  154.8740 O   0  0  0  0  0  0  0  0  0  0  0  0
  160.8980  206.6690  153.7760 C   0  0  1  0  0  3  0  0  0  0  0  0
  1  8  1  0  0  0  0
  1 20  1  6  0  0  0
  2 10  1  0  0  0  0
  3  2  1  1  0  0  0
  4 31  1  1  0  0  0
  6  1  1  0  0  0  0
  7  5  1  6  0  0  0
  7 12  1  0  0  0  0
  7  8  1  0  0  0  0
  9  6  1  0  0  0  0
 10  4  1  0  0  0  0
 11 29  1  6  0  0  0
 11  3  1  0  0  0  0
 11 12  1  0  0  0  0
 12  9  1  6  0  0  0
 12 13  1  0  0  0  0
 13  4  1  0  0  0  0
 14 16  1  0  0  0  0
 15 18  1  6  0  0  0
 15 14  1  0  0  0  0
 15 16  1  0  0  0  0
 15  3  1  0  0  0  0
 17 18  1  0  0  0  0
 20 19  1  6  0  0  0
 21 25  1  0  0  0  0
 22 20  1  6  0  0  0
 22 21  1  0  0  0  0
 23 22  1  0  0  0  0
 24 23  1  6  0  0  0
 24 27  1  0  0  0  0
 24 25  1  0  0  0  0
 27 26  1  6  0  0  0
 28 26  1  0  0  0  0
 28 27  1  0  0  0  0
 30 29  2  0  0  0  0
 33 32  1  0  0  0  0
 34 31  1  1  0  0  0
 34 33  1  0  0  0  0
 34 32  1  0  0  0  0
M  END
>  <MODEL>
3

>  <REMARK>
 VINA RESULT:      -3.8      1.770      2.825
  Name = 
  8 active torsions:
  status: ('A' for Active; 'I' for Inactive)
    1  A    between atoms: C_2  and  C_27
    2  A    between atoms: C_5  and  C_12
    3  A    between atoms: C_7  and  C_27
    4  A    between atoms: C_8  and  C_23
    5  A    between atoms: C_12  and  C_29
    6  A    between atoms: C_15  and  C_22
    7  A    between atoms: C_20  and  C_30
    8  A    between atoms: C_23  and  C_34
                            x       y       z     vdW  Elec       q    Type
                         _______ _______ _______ _____ _____    ______ ____

>  <TORSDO>
F 8

$$$$
=
 OpenBabel11072413133D

 34 39  0  0  1  0  0  0  0  0999 V2000
  161.1940  210.2590  152.9600 C   0  0  2  0  0  3  0  0  0  0  0  0
  157.0730  214.3020  154.0380 C   0  0  0  0  0  2  0  0  0  0  0  0
  157.0510  213.0450  154.8970 C   0  0  1  0  0  3  0  0  0  0  0  0
  158.2380  212.9270  152.1800 C   0  0  2  0  0  3  0  0  0  0  0  0
  158.6020  209.6710  155.0420 C   0  0  0  0  0  1  0  0  0  0  0  0
  161.5950  210.6590  154.3800 C   0  0  0  0  0  2  0  0  0  0  0  0
  158.8240  210.6280  153.8820 C   0  0  2  0  0  3  0  0  0  0  0  0
  159.7020  209.9220  152.8380 C   0  0  0  0  0  2  0  0  0  0  0  0
  160.8290  211.9020  154.8480 C   0  0  0  0  0  2  0  0  0  0  0  0
  157.2240  214.0110  152.5470 C   0  0  0  0  0  2  0  0  0  0  0  0
  158.4990  212.7470  155.3580 C   0  0  2  0  0  3  0  0  0  0  0  0
  159.3870  212.0260  154.3020 C   0  0  2  0  0  0  0  0  0  0  0  0
  159.4940  212.9430  153.0610 C   0  0  0  0  0  2  0  0  0  0  0  0
  156.3190  214.2840  156.8790 O   0  0  0  0  0  0  0  0  0  0  0  0
  156.0210  213.2100  156.0240 C   0  0  1  0  0  0  0  0  0  0  0  0
  155.2270  214.4530  156.0010 C   0  0  0  0  0  2  0  0  0  0  0  0
  155.4020  210.7760  155.8930 C   0  0  0  0  0  1  0  0  0  0  0  0
  155.3900  212.0260  156.7530 C   0  0  0  0  0  2  0  0  0  0  0  0
  161.4670  207.9260  152.4430 O   0  0  0  0  0  1  0  0  0  0  0  0
  162.0850  209.1740  152.3360 C   0  0  1  0  0  3  0  0  0  0  0  0
  162.0070  208.4340  149.8800 C   0  0  0  0  0  2  0  0  0  0  0  0
  162.5800  209.4050  150.8970 C   0  0  1  0  0  3  0  0  0  0  0  0
  162.3280  210.8140  150.3850 C   0  0  0  0  0  2  0  0  0  0  0  0
  161.7010  210.6600  149.0100 C   0  0  2  0  0  3  0  0  0  0  0  0
  161.9210  209.2120  148.5880 C   0  0  0  0  0  2  0  0  0  0  0  0
  161.1260  212.4240  147.3060 C   0  0  0  0  0  2  0  0  0  0  0  0
  162.2160  211.7380  148.0410 C   0  0  1  0  0  3  0  0  0  0  0  0
  161.7630  213.0190  148.4120 O   0  0  0  0  0  0  0  0  0  0  0  0
  158.6890  212.3230  156.7980 C   0  0  0  0  0  3  0  0  0  0  0  0
  159.7950  212.0910  157.2610 O   0  0  0  0  0  0  0  0  0  0  0  0
  158.6160  213.0980  150.7190 C   0  0  0  0  0  2  0  0  0  0  0  0
  157.7790  213.7660  148.5100 C   0  0  0  0  0  2  0  0  0  0  0  0
  156.8190  212.9720  149.1630 O   0  0  0  0  0  0  0  0  0  0  0  0
  157.5460  213.8690  149.9650 C   0  0  1  0  0  3  0  0  0  0  0  0
  1 20  1  1  0  0  0
  1  6  1  0  0  0  0
  3  2  1  1  0  0  0
  3 11  1  0  0  0  0
  3 15  1  0  0  0  0
  4 31  1  6  0  0  0
  4 10  1  0  0  0  0
  4 13  1  0  0  0  0
  6  9  1  0  0  0  0
  7 12  1  0  0  0  0
  7  5  1  1  0  0  0
  8  1  1  0  0  0  0
  8  7  1  0  0  0  0
 10  2  1  0  0  0  0
 11 29  1  1  0  0  0
 12 13  1  6  0  0  0
 12  9  1  0  0  0  0
 12 11  1  0  0  0  0
 15 18  1  1  0  0  0
 15 14  1  0  0  0  0
 16 15  1  0  0  0  0
 16 14  1  0  0  0  0
 17 18  1  0  0  0  0
 20 19  1  6  0  0  0
 21 22  1  0  0  0  0
 22 20  1  1  0  0  0
 23 22  1  0  0  0  0
 24 25  1  6  0  0  0
 24 23  1  0  0  0  0
 25 21  1  0  0  0  0
 26 28  1  0  0  0  0
 27 26  1  6  0  0  0
 27 28  1  0  0  0  0
 27 24  1  0  0  0  0
 29 30  2  0  0  0  0
 32 33  1  0  0  0  0
 32 34  1  0  0  0  0
 33 34  1  0  0  0  0
 34 31  1  1  0  0  0
M  END
>  <MODEL>
4

>  <REMARK>
 VINA RESULT:      -3.8      5.176     10.614
  Name = 
  8 active torsions:
  status: ('A' for Active; 'I' for Inactive)
    1  A    between atoms: C_2  and  C_27
    2  A    between atoms: C_5  and  C_12
    3  A    between atoms: C_7  and  C_27
    4  A    between atoms: C_8  and  C_23
    5  A    between atoms: C_12  and  C_29
    6  A    between atoms: C_15  and  C_22
    7  A    between atoms: C_20  and  C_30
    8  A    between atoms: C_23  and  C_34
                            x       y       z     vdW  Elec       q    Type
                         _______ _______ _______ _____ _____    ______ ____

>  <TORSDO>
F 8

$$$$
=
 OpenBabel11072413133D

 34 39  0  0  1  0  0  0  0  0999 V2000
  161.6350  207.6680  149.9150 C   0  0  2  0  0  3  0  0  0  0  0  0
  160.5300  208.2250  155.6560 C   0  0  0  0  0  2  0  0  0  0  0  0
  161.4040  209.2930  155.0120 C   0  0  1  0  0  3  0  0  0  0  0  0
  161.3020  206.5820  153.8100 C   0  0  2  0  0  3  0  0  0  0  0  0
  163.2140  209.9530  151.8350 C   0  0  0  0  0  1  0  0  0  0  0  0
  160.8380  208.9710  149.8950 C   0  0  0  0  0  2  0  0  0  0  0  0
  162.5220  208.6320  152.1260 C   0  0  2  0  0  3  0  0  0  0  0  0
  162.7740  207.6850  150.9430 C   0  0  0  0  0  2  0  0  0  0  0  0
  160.1900  209.2510  151.2570 C   0  0  0  0  0  2  0  0  0  0  0  0
  160.9400  206.8030  155.2790 C   0  0  0  0  0  2  0  0  0  0  0  0
  160.7420  209.7240  153.6800 C   0  0  2  0  0  3  0  0  0  0  0  0
  161.0040  208.7670  152.4800 C   0  0  2  0  0  0  0  0  0  0  0  0
  160.4220  207.3800  152.8380 C   0  0  0  0  0  2  0  0  0  0  0  0
  162.3140  209.9810  157.1800 O   0  0  0  0  0  0  0  0  0  0  0  0
  161.6590  210.4250  156.0190 C   0  0  1  0  0  0  0  0  0  0  0  0
  163.0720  210.7570  156.2780 C   0  0  0  0  0  2  0  0  0  0  0  0
  159.5700  211.0750  157.2590 C   0  0  0  0  0  1  0  0  0  0  0  0
  160.6470  211.5350  156.2940 C   0  0  0  0  0  2  0  0  0  0  0  0
  163.4710  206.8800  148.5740 O   0  0  0  0  0  1  0  0  0  0  0  0
  162.1130  207.2010  148.5310 C   0  0  1  0  0  3  0  0  0  0  0  0
  161.9040  205.6080  146.5290 C   0  0  0  0  0  2  0  0  0  0  0  0
  161.3180  206.0720  147.8510 C   0  0  1  0  0  3  0  0  0  0  0  0
  161.1290  204.8450  148.7290 C   0  0  0  0  0  2  0  0  0  0  0  0
  161.5070  203.6480  147.8730 C   0  0  2  0  0  3  0  0  0  0  0  0
  161.5610  204.1400  146.4320 C   0  0  0  0  0  2  0  0  0  0  0  0
  161.2080  201.1470  147.8300 C   0  0  0  0  0  2  0  0  0  0  0  0
  160.5810  202.4520  148.1510 C   0  0  1  0  0  3  0  0  0  0  0  0
  161.1090  201.6170  149.1540 O   0  0  0  0  0  0  0  0  0  0  0  0
  160.7230  211.2040  153.3680 C   0  0  0  0  0  3  0  0  0  0  0  0
  159.6870  211.7960  153.1140 O   0  0  0  0  0  0  0  0  0  0  0  0
  161.2050  205.0960  153.5110 C   0  0  0  0  0  2  0  0  0  0  0  0
  161.9020  203.6990  151.6160 C   0  0  0  0  0  2  0  0  0  0  0  0
  160.5160  203.5690  151.8190 O   0  0  0  0  0  0  0  0  0  0  0  0
  161.0650  204.8480  152.0190 C   0  0  1  0  0  3  0  0  0  0  0  0
  1 20  1  6  0  0  0
  1  8  1  0  0  0  0
  3  2  1  1  0  0  0
  3 15  1  0  0  0  0
  4 31  1  6  0  0  0
  4 10  1  0  0  0  0
  6  1  1  0  0  0  0
  6  9  1  0  0  0  0
  7  5  1  6  0  0  0
  7 12  1  0  0  0  0
  8  7  1  0  0  0  0
 10  2  1  0  0  0  0
 11 29  1  6  0  0  0
 11  3  1  0  0  0  0
 12  9  1  6  0  0  0
 12 13  1  0  0  0  0
 12 11  1  0  0  0  0
 13  4  1  0  0  0  0
 15 16  1  0  0  0  0
 15 18  1  1  0  0  0
 15 14  1  0  0  0  0
 16 14  1  0  0  0  0
 18 17  1  0  0  0  0
 20 19  1  1  0  0  0
 21 22  1  0  0  0  0
 22 20  1  1  0  0  0
 22 23  1  0  0  0  0
 24 25  1  6  0  0  0
 24 27  1  0  0  0  0
 24 23  1  0  0  0  0
 25 21  1  0  0  0  0
 26 28  1  0  0  0  0
 27 26  1  6  0  0  0
 27 28  1  0  0  0  0
 30 29  2  0  0  0  0
 32 33  1  0  0  0  0
 32 34  1  0  0  0  0
 33 34  1  0  0  0  0
 34 31  1  1  0  0  0
M  END
>  <MODEL>
5

>  <REMARK>
 VINA RESULT:      -3.7      1.942      8.804
  Name = 
  8 active torsions:
  status: ('A' for Active; 'I' for Inactive)
    1  A    between atoms: C_2  and  C_27
    2  A    between atoms: C_5  and  C_12
    3  A    between atoms: C_7  and  C_27
    4  A    between atoms: C_8  and  C_23
    5  A    between atoms: C_12  and  C_29
    6  A    between atoms: C_15  and  C_22
    7  A    between atoms: C_20  and  C_30
    8  A    between atoms: C_23  and  C_34
                            x       y       z     vdW  Elec       q    Type
                         _______ _______ _______ _____ _____    ______ ____

>  <TORSDO>
F 8

$$$$
=
 OpenBabel11072413133D

 34 39  0  0  1  0  0  0  0  0999 V2000
  161.1350  205.4330  152.4570 C   0  0  2  0  0  3  0  0  0  0  0  0
  160.8870  204.0360  146.7570 C   0  0  0  0  0  2  0  0  0  0  0  0
  161.2030  202.9100  147.7330 C   0  0  1  0  0  3  0  0  0  0  0  0
  161.8690  205.7040  148.4750 C   0  0  2  0  0  3  0  0  0  0  0  0
  162.0980  202.4090  151.3050 C   0  0  0  0  0  1  0  0  0  0  0  0
  159.9350  204.4860  152.4780 C   0  0  0  0  0  2  0  0  0  0  0  0
  161.9800  203.7860  150.6740 C   0  0  2  0  0  3  0  0  0  0  0  0
  162.3490  204.8340  151.7340 C   0  0  0  0  0  2  0  0  0  0  0  0
  159.4690  204.1410  151.0590 C   0  0  0  0  0  2  0  0  0  0  0  0
  161.7050  205.3000  147.0100 C   0  0  0  0  0  2  0  0  0  0  0  0
  160.2160  203.0090  148.9230 C   0  0  2  0  0  3  0  0  0  0  0  0
  160.5950  204.0670  150.0010 C   0  0  2  0  0  0  0  0  0  0  0  0
  160.6130  205.4560  149.3210 C   0  0  0  0  0  2  0  0  0  0  0  0
  160.0010  201.3270  146.3020 O   0  0  0  0  0  0  0  0  0  0  0  0
  161.2040  201.5680  146.9870 C   0  0  1  0  0  0  0  0  0  0  0  0
  161.1300  201.6430  145.5160 C   0  0  0  0  0  2  0  0  0  0  0  0
  161.6370  199.1170  146.6280 C   0  0  0  0  0  1  0  0  0  0  0  0
  161.8260  200.2980  147.5620 C   0  0  0  0  0  2  0  0  0  0  0  0
  162.7830  206.5740  153.7860 O   0  0  0  0  0  1  0  0  0  0  0  0
  161.5070  206.0100  153.8310 C   0  0  1  0  0  3  0  0  0  0  0  0
  160.4970  206.9380  156.0000 C   0  0  0  0  0  2  0  0  0  0  0  0
  160.5120  206.9870  154.4820 C   0  0  1  0  0  3  0  0  0  0  0  0
  160.7200  208.4350  154.0680 C   0  0  0  0  0  2  0  0  0  0  0  0
  160.7180  209.2480  155.3510 C   0  0  2  0  0  3  0  0  0  0  0  0
  160.1590  208.3430  156.4420 C   0  0  0  0  0  2  0  0  0  0  0  0
  160.7430  211.7360  155.7490 C   0  0  0  0  0  2  0  0  0  0  0  0
  160.0040  210.5960  155.1530 C   0  0  1  0  0  3  0  0  0  0  0  0
  160.7760  211.4740  154.3660 O   0  0  0  0  0  0  0  0  0  0  0  0
  159.6210  201.7140  149.4330 C   0  0  0  0  0  3  0  0  0  0  0  0
  158.5060  201.3440  149.1030 O   0  0  0  0  0  0  0  0  0  0  0  0
  162.2580  207.1720  148.5270 C   0  0  0  0  0  2  0  0  0  0  0  0
  162.3520  208.4160  150.6410 C   0  0  0  0  0  2  0  0  0  0  0  0
  161.8760  209.2540  149.6160 O   0  0  0  0  0  0  0  0  0  0  0  0
  161.4540  207.9130  149.5810 C   0  0  1  0  0  3  0  0  0  0  0  0
  1  6  1  0  0  0  0
  1 20  1  1  0  0  0
  2 10  1  0  0  0  0
  3  2  1  6  0  0  0
  3 11  1  0  0  0  0
  4 31  1  6  0  0  0
  4 13  1  0  0  0  0
  7  5  1  1  0  0  0
  7  8  1  0  0  0  0
  8  1  1  0  0  0  0
  9  6  1  0  0  0  0
 10  4  1  0  0  0  0
 11 29  1  1  0  0  0
 11 12  1  0  0  0  0
 12 13  1  6  0  0  0
 12  7  1  0  0  0  0
 12  9  1  0  0  0  0
 14 15  1  0  0  0  0
 15 18  1  1  0  0  0
 15  3  1  0  0  0  0
 16 14  1  0  0  0  0
 16 15  1  0  0  0  0
 17 18  1  0  0  0  0
 20 19  1  6  0  0  0
 21 25  1  0  0  0  0
 22 20  1  1  0  0  0
 22 21  1  0  0  0  0
 23 22  1  0  0  0  0
 24 23  1  6  0  0  0
 24 25  1  0  0  0  0
 27 24  1  0  0  0  0
 27 26  1  1  0  0  0
 28 27  1  0  0  0  0
 28 26  1  0  0  0  0
 30 29  2  0  0  0  0
 33 32  1  0  0  0  0
 34 31  1  6  0  0  0
 34 33  1  0  0  0  0
 34 32  1  0  0  0  0
M  END
>  <MODEL>
6

>  <REMARK>
 VINA RESULT:      -3.5      1.716      3.963
  Name = 
  8 active torsions:
  status: ('A' for Active; 'I' for Inactive)
    1  A    between atoms: C_2  and  C_27
    2  A    between atoms: C_5  and  C_12
    3  A    between atoms: C_7  and  C_27
    4  A    between atoms: C_8  and  C_23
    5  A    between atoms: C_12  and  C_29
    6  A    between atoms: C_15  and  C_22
    7  A    between atoms: C_20  and  C_30
    8  A    between atoms: C_23  and  C_34
                            x       y       z     vdW  Elec       q    Type
                         _______ _______ _______ _____ _____    ______ ____

>  <TORSDO>
F 8

$$$$
=
 OpenBabel11072413133D

 34 39  0  0  1  0  0  0  0  0999 V2000
  162.0370  206.5410  147.5180 C   0  0  2  0  0  3  0  0  0  0  0  0
  162.0320  210.2730  152.0540 C   0  0  0  0  0  2  0  0  0  0  0  0
  161.2740  208.9640  152.2330 C   0  0  1  0  0  3  0  0  0  0  0  0
  161.6530  210.0600  149.5020 C   0  0  2  0  0  3  0  0  0  0  0  0
  160.0820  206.0700  150.2300 C   0  0  0  0  0  1  0  0  0  0  0  0
  162.7990  205.7000  148.5420 C   0  0  0  0  0  2  0  0  0  0  0  0
  160.7320  207.2910  149.6020 C   0  0  2  0  0  3  0  0  0  0  0  0
  160.7250  207.1080  148.0770 C   0  0  0  0  0  2  0  0  0  0  0  0
  163.1740  206.5260  149.7770 C   0  0  0  0  0  2  0  0  0  0  0  0
  161.7280  210.9700  150.7290 C   0  0  0  0  0  2  0  0  0  0  0  0
  162.1670  207.8120  151.7110 C   0  0  2  0  0  3  0  0  0  0  0  0
  162.1540  207.6230  150.1650 C   0  0  2  0  0  0  0  0  0  0  0  0
  162.6840  208.9240  149.5200 C   0  0  0  0  0  2  0  0  0  0  0  0
  161.5140  209.6860  154.5610 O   0  0  0  0  0  0  0  0  0  0  0  0
  160.8140  208.8320  153.6920 C   0  0  1  0  0  0  0  0  0  0  0  0
  160.1730  210.0230  154.2810 C   0  0  0  0  0  2  0  0  0  0  0  0
  160.8000  207.4790  155.8120 C   0  0  0  0  0  1  0  0  0  0  0  0
  160.4570  207.4930  154.3330 C   0  0  0  0  0  2  0  0  0  0  0  0
  163.0740  205.5660  145.5790 O   0  0  0  0  0  1  0  0  0  0  0  0
  161.8370  205.8530  146.1600 C   0  0  1  0  0  3  0  0  0  0  0  0
  161.1260  203.7320  144.9000 C   0  0  0  0  0  2  0  0  0  0  0  0
  160.9270  204.6110  146.1220 C   0  0  1  0  0  3  0  0  0  0  0  0
  161.0500  203.7280  147.3520 C   0  0  0  0  0  2  0  0  0  0  0  0
  161.2150  202.3070  146.8400 C   0  0  2  0  0  3  0  0  0  0  0  0
  160.8310  202.3260  145.3660 C   0  0  0  0  0  2  0  0  0  0  0  0
  161.2080  200.9370  148.9540 C   0  0  0  0  0  2  0  0  0  0  0  0
  160.4580  201.3050  147.7280 C   0  0  1  0  0  3  0  0  0  0  0  0
  160.1490  201.8640  148.9840 O   0  0  0  0  0  0  0  0  0  0  0  0
  162.2160  206.5480  152.5410 C   0  0  0  0  0  3  0  0  0  0  0  0
  163.0640  205.6890  152.3590 O   0  0  0  0  0  0  0  0  0  0  0  0
  161.8320  210.9160  148.2600 C   0  0  0  0  0  2  0  0  0  0  0  0
  162.6990  213.1680  147.8080 C   0  0  0  0  0  2  0  0  0  0  0  0
  161.3450  213.0940  147.4320 O   0  0  0  0  0  0  0  0  0  0  0  0
  161.7160  212.3930  148.5930 C   0  0  1  0  0  3  0  0  0  0  0  0
  1 20  1  6  0  0  0
  1  8  1  0  0  0  0
  1  6  1  0  0  0  0
  3  2  1  1  0  0  0
  3 15  1  0  0  0  0
  4 31  1  6  0  0  0
  4 13  1  0  0  0  0
  4 10  1  0  0  0  0
  6  9  1  0  0  0  0
  7 12  1  0  0  0  0
  7  5  1  1  0  0  0
  8  7  1  0  0  0  0
  9 12  1  0  0  0  0
 10  2  1  0  0  0  0
 11  3  1  0  0  0  0
 11 29  1  1  0  0  0
 12 13  1  6  0  0  0
 12 11  1  0  0  0  0
 15 16  1  0  0  0  0
 15 18  1  1  0  0  0
 15 14  1  0  0  0  0
 16 14  1  0  0  0  0
 18 17  1  0  0  0  0
 20 19  1  1  0  0  0
 21 25  1  0  0  0  0
 21 22  1  0  0  0  0
 22 20  1  1  0  0  0
 22 23  1  0  0  0  0
 24 25  1  6  0  0  0
 24 23  1  0  0  0  0
 24 27  1  0  0  0  0
 26 28  1  0  0  0  0
 27 26  1  1  0  0  0
 27 28  1  0  0  0  0
 30 29  2  0  0  0  0
 32 34  1  0  0  0  0
 33 32  1  0  0  0  0
 33 34  1  0  0  0  0
 34 31  1  6  0  0  0
M  END
>  <MODEL>
7

>  <REMARK>
 VINA RESULT:      -3.3      2.083      8.529
  Name = 
  8 active torsions:
  status: ('A' for Active; 'I' for Inactive)
    1  A    between atoms: C_2  and  C_27
    2  A    between atoms: C_5  and  C_12
    3  A    between atoms: C_7  and  C_27
    4  A    between atoms: C_8  and  C_23
    5  A    between atoms: C_12  and  C_29
    6  A    between atoms: C_15  and  C_22
    7  A    between atoms: C_20  and  C_30
    8  A    between atoms: C_23  and  C_34
                            x       y       z     vdW  Elec       q    Type
                         _______ _______ _______ _____ _____    ______ ____

>  <TORSDO>
F 8

$$$$
=
 OpenBabel11072413133D

 34 39  0  0  1  0  0  0  0  0999 V2000
  161.0220  206.0930  153.0310 C   0  0  2  0  0  3  0  0  0  0  0  0
  161.4600  206.4650  147.1860 C   0  0  0  0  0  2  0  0  0  0  0  0
  161.9720  205.1870  147.8380 C   0  0  1  0  0  3  0  0  0  0  0  0
  161.9150  207.7010  149.4140 C   0  0  2  0  0  3  0  0  0  0  0  0
  162.7400  203.8270  151.2100 C   0  0  0  0  0  1  0  0  0  0  0  0
  160.0800  204.9570  152.6320 C   0  0  0  0  0  2  0  0  0  0  0  0
  162.3390  205.2750  150.9810 C   0  0  2  0  0  3  0  0  0  0  0  0
  162.3860  206.0060  152.3310 C   0  0  0  0  0  2  0  0  0  0  0  0
  159.7970  204.9690  151.1250 C   0  0  0  0  0  2  0  0  0  0  0  0
  161.9410  207.7340  147.8850 C   0  0  0  0  0  2  0  0  0  0  0  0
  160.9190  204.7160  148.8720 C   0  0  2  0  0  3  0  0  0  0  0  0
  160.9710  205.4530  150.2420 C   0  0  2  0  0  0  0  0  0  0  0  0
  160.7030  206.9540  149.9880 C   0  0  0  0  0  2  0  0  0  0  0  0
  162.7060  204.7700  145.5390 O   0  0  0  0  0  0  0  0  0  0  0  0
  162.3350  204.1650  146.7520 C   0  0  1  0  0  0  0  0  0  0  0  0
  163.7370  204.1730  146.2960 C   0  0  0  0  0  2  0  0  0  0  0  0
  160.7820  202.8650  145.2610 C   0  0  0  0  0  1  0  0  0  0  0  0
  161.5740  202.8560  146.5560 C   0  0  0  0  0  2  0  0  0  0  0  0
  162.4890  206.5880  154.8730 O   0  0  0  0  0  1  0  0  0  0  0  0
  161.1640  206.2910  154.5480 C   0  0  1  0  0  3  0  0  0  0  0  0
  160.3340  207.3460  156.7360 C   0  0  0  0  0  2  0  0  0  0  0  0
  160.2090  207.2930  155.2230 C   0  0  1  0  0  3  0  0  0  0  0  0
  160.3450  208.7130  154.6970 C   0  0  0  0  0  2  0  0  0  0  0  0
  160.4410  209.6110  155.9190 C   0  0  2  0  0  3  0  0  0  0  0  0
  160.0060  208.7720  157.1140 C   0  0  0  0  0  2  0  0  0  0  0  0
  160.4550  212.1210  156.1270 C   0  0  0  0  0  2  0  0  0  0  0  0
  159.6820  210.9300  155.7000 C   0  0  1  0  0  3  0  0  0  0  0  0
  160.3460  211.7560  154.7720 O   0  0  0  0  0  0  0  0  0  0  0  0
  160.6150  203.2340  148.9170 C   0  0  0  0  0  3  0  0  0  0  0  0
  160.0820  202.7150  149.8840 O   0  0  0  0  0  0  0  0  0  0  0  0
  161.9430  209.1320  149.9240 C   0  0  0  0  0  2  0  0  0  0  0  0
  162.3320  209.9540  152.2050 C   0  0  0  0  0  2  0  0  0  0  0  0
  161.1890  210.5700  151.6640 O   0  0  0  0  0  0  0  0  0  0  0  0
  161.3900  209.2180  151.3360 C   0  0  1  0  0  3  0  0  0  0  0  0
  1 20  1  1  0  0  0
  2 10  1  0  0  0  0
  3  2  1  6  0  0  0
  3 11  1  0  0  0  0
  4 31  1  1  0  0  0
  4 13  1  0  0  0  0
  6  1  1  0  0  0  0
  7  5  1  1  0  0  0
  7  8  1  0  0  0  0
  8  1  1  0  0  0  0
  9  6  1  0  0  0  0
 10  4  1  0  0  0  0
 11 29  1  1  0  0  0
 11 12  1  0  0  0  0
 12 13  1  6  0  0  0
 12  7  1  0  0  0  0
 12  9  1  0  0  0  0
 14 16  1  0  0  0  0
 14 15  1  0  0  0  0
 15 18  1  6  0  0  0
 15  3  1  0  0  0  0
 16 15  1  0  0  0  0
 17 18  1  0  0  0  0
 20 19  1  6  0  0  0
 21 25  1  0  0  0  0
 22 20  1  6  0  0  0
 22 21  1  0  0  0  0
 23 22  1  0  0  0  0
 24 23  1  6  0  0  0
 24 25  1  0  0  0  0
 27 24  1  0  0  0  0
 27 26  1  1  0  0  0
 28 27  1  0  0  0  0
 28 26  1  0  0  0  0
 29 30  2  0  0  0  0
 33 32  1  0  0  0  0
 34 31  1  6  0  0  0
 34 33  1  0  0  0  0
 34 32  1  0  0  0  0
M  END
>  <MODEL>
8

>  <REMARK>
 VINA RESULT:      -3.0      1.838      4.344
  Name = 
  8 active torsions:
  status: ('A' for Active; 'I' for Inactive)
    1  A    between atoms: C_2  and  C_27
    2  A    between atoms: C_5  and  C_12
    3  A    between atoms: C_7  and  C_27
    4  A    between atoms: C_8  and  C_23
    5  A    between atoms: C_12  and  C_29
    6  A    between atoms: C_15  and  C_22
    7  A    between atoms: C_20  and  C_30
    8  A    between atoms: C_23  and  C_34
                            x       y       z     vdW  Elec       q    Type
                         _______ _______ _______ _____ _____    ______ ____

>  <TORSDO>
F 8

$$$$
=
 OpenBabel11072413133D

 34 39  0  0  1  0  0  0  0  0999 V2000
  161.5610  203.4290  150.3480 C   0  0  2  0  0  3  0  0  0  0  0  0
  162.3000  209.2210  150.9760 C   0  0  0  0  0  2  0  0  0  0  0  0
  161.3280  208.5400  151.9310 C   0  0  1  0  0  3  0  0  0  0  0  0
  161.8390  207.3310  149.2700 C   0  0  2  0  0  3  0  0  0  0  0  0
  159.6070  205.2780  152.3880 C   0  0  0  0  0  1  0  0  0  0  0  0
  162.1830  203.4560  151.7440 C   0  0  0  0  0  2  0  0  0  0  0  0
  160.4490  205.5970  151.1640 C   0  0  2  0  0  3  0  0  0  0  0  0
  160.3800  204.3990  150.2070 C   0  0  0  0  0  2  0  0  0  0  0  0
  162.7220  204.8500  152.0880 C   0  0  0  0  0  2  0  0  0  0  0  0
  162.0970  208.8170  149.5180 C   0  0  0  0  0  2  0  0  0  0  0  0
  161.9940  207.2450  152.4580 C   0  0  2  0  0  3  0  0  0  0  0  0
  161.9180  206.0280  151.4900 C   0  0  2  0  0  0  0  0  0  0  0  0
  162.6550  206.4080  150.1850 C   0  0  0  0  0  2  0  0  0  0  0  0
  160.7900  210.8540  152.5250 O   0  0  0  0  0  0  0  0  0  0  0  0
  160.8800  209.5380  153.0080 C   0  0  1  0  0  0  0  0  0  0  0  0
  159.5740  210.1870  152.7890 C   0  0  0  0  0  2  0  0  0  0  0  0
  162.1890  210.6830  154.8250 C   0  0  0  0  0  1  0  0  0  0  0  0
  161.3580  209.4670  154.4560 C   0  0  0  0  0  2  0  0  0  0  0  0
  159.8580  201.7600  150.0290 O   0  0  0  0  0  1  0  0  0  0  0  0
  161.2170  202.0200  149.8390 C   0  0  1  0  0  3  0  0  0  0  0  0
  161.5690  200.1820  148.0840 C   0  0  0  0  0  2  0  0  0  0  0  0
  161.6340  201.6650  148.4010 C   0  0  1  0  0  3  0  0  0  0  0  0
  160.8380  202.4020  147.3360 C   0  0  0  0  0  2  0  0  0  0  0  0
  160.3970  201.3500  146.3320 C   0  0  2  0  0  3  0  0  0  0  0  0
  161.2230  200.1010  146.6150 C   0  0  0  0  0  2  0  0  0  0  0  0
  159.2250  202.6220  144.5010 C   0  0  0  0  0  2  0  0  0  0  0  0
  160.4560  201.8940  144.8950 C   0  0  1  0  0  3  0  0  0  0  0  0
  160.4000  203.3020  144.8770 O   0  0  0  0  0  0  0  0  0  0  0  0
  161.8370  206.9410  153.9320 C   0  0  0  0  0  3  0  0  0  0  0  0
  160.7750  206.5650  154.4020 O   0  0  0  0  0  0  0  0  0  0  0  0
  162.1420  207.0290  147.8120 C   0  0  0  0  0  2  0  0  0  0  0  0
  160.4960  206.4180  146.0960 C   0  0  0  0  0  2  0  0  0  0  0  0
  161.6360  205.6010  145.9760 O   0  0  0  0  0  0  0  0  0  0  0  0
  161.2330  205.9340  147.2810 C   0  0  1  0  0  3  0  0  0  0  0  0
  1 20  1  1  0  0  0
  1  6  1  0  0  0  0
  3  2  1  6  0  0  0
  3 11  1  0  0  0  0
  3 15  1  0  0  0  0
  4 31  1  6  0  0  0
  4 10  1  0  0  0  0
  4 13  1  0  0  0  0
  6  9  1  0  0  0  0
  7 12  1  0  0  0  0
  7  5  1  1  0  0  0
  8  1  1  0  0  0  0
  8  7  1  0  0  0  0
 10  2  1  0  0  0  0
 11 29  1  1  0  0  0
 12 13  1  6  0  0  0
 12  9  1  0  0  0  0
 12 11  1  0  0  0  0
 14 16  1  0  0  0  0
 14 15  1  0  0  0  0
 15 18  1  1  0  0  0
 16 15  1  0  0  0  0
 18 17  1  0  0  0  0
 20 19  1  6  0  0  0
 21 22  1  0  0  0  0
 22 20  1  1  0  0  0
 23 22  1  0  0  0  0
 24 25  1  6  0  0  0
 24 23  1  0  0  0  0
 25 21  1  0  0  0  0
 26 28  1  0  0  0  0
 27 26  1  6  0  0  0
 27 24  1  0  0  0  0
 28 27  1  0  0  0  0
 29 30  2  0  0  0  0
 32 34  1  0  0  0  0
 33 32  1  0  0  0  0
 33 34  1  0  0  0  0
 34 31  1  6  0  0  0
M  END
>  <MODEL>
9

>  <REMARK>
 VINA RESULT:      -2.9      1.632      8.639
  Name = 
  8 active torsions:
  status: ('A' for Active; 'I' for Inactive)
    1  A    between atoms: C_2  and  C_27
    2  A    between atoms: C_5  and  C_12
    3  A    between atoms: C_7  and  C_27
    4  A    between atoms: C_8  and  C_23
    5  A    between atoms: C_12  and  C_29
    6  A    between atoms: C_15  and  C_22
    7  A    between atoms: C_20  and  C_30
    8  A    between atoms: C_23  and  C_34
                            x       y       z     vdW  Elec       q    Type
                         _______ _______ _______ _____ _____    ______ ____

>  <TORSDO>
F 8

$$$$
