=
 OpenBabel11072409533D

 48 51  0  0  1  0  0  0  0  0999 V2000
  161.6260  207.0220  153.3850 N   0  0  0  0  0  2  0  0  0  0  0  0
  160.3740  208.9580  153.5200 C   0  0  1  0  0  3  0  0  0  0  0  0
  161.5350  208.3470  152.8180 C   0  0  2  0  0  3  0  0  0  0  0  0
  161.0870  207.0980  154.6870 N   0  0  0  0  0  2  0  0  0  0  0  0
  160.3000  208.2700  154.7930 N   0  0  0  0  0  2  0  0  0  0  0  0
  159.4600  211.3250  153.4870 N   0  0  0  0  0  2  0  0  0  0  0  0
  161.6650  210.8650  154.1000 O   0  0  0  0  0  0  0  0  0  0  0  0
  160.5480  210.4280  153.7160 C   0  0  0  0  0  0  0  0  0  0  0  0
  158.3720  214.4530  154.8970 C   0  0  0  0  0  2  0  0  0  0  0  0
  157.7170  214.4000  153.5250 C   0  0  1  0  0  3  0  0  0  0  0  0
  159.3920  214.3000  151.6880 C   0  0  0  0  0  2  0  0  0  0  0  0
  157.2870  213.7110  150.7530 O   0  0  0  0  0  1  0  0  0  0  0  0
  158.4760  213.1730  151.2480 C   0  0  2  0  0  3  0  0  0  0  0  0
  159.6180  212.7680  153.6200 C   0  0  1  0  0  3  0  0  0  0  0  0
  158.6370  213.4980  152.7300 C   0  0  2  0  0  0  0  0  0  0  0  0
  159.2340  213.1950  155.0260 C   0  0  0  0  0  2  0  0  0  0  0  0
  156.3340  213.8170  153.6380 C   0  0  0  0  0  0  0  0  0  0  0  0
  155.4850  214.0380  152.7300 O   0  0  0  0  0  0  0  0  0  0  0  0
  155.5250  213.5700  155.9900 C   0  0  0  0  0  3  0  0  0  0  0  0
  155.2700  211.3770  156.9920 C   0  0  0  0  0  3  0  0  0  0  0  0
  155.9670  212.9820  154.7950 C   0  0  0  0  0  0  0  0  0  0  0  0
  155.7110  210.7850  155.8070 C   0  0  0  0  0  3  0  0  0  0  0  0
  156.0570  211.5830  154.7130 C   0  0  0  0  0  3  0  0  0  0  0  0
  155.1750  212.7690  157.0830 C   0  0  0  0  0  3  0  0  0  0  0  0
  162.0770  207.5470  150.5810 C   0  0  0  0  0  3  0  0  0  0  0  0
  161.2740  208.2680  151.3550 C   0  0  0  0  0  3  0  0  0  0  0  0
  161.8390  208.5760  148.4290 C   0  0  0  0  0  2  0  0  0  0  0  0
  161.9170  207.4460  149.1230 C   0  0  0  0  0  0  0  0  0  0  0  0
  160.9880  203.9740  148.4630 O   0  0  0  0  0  0  0  0  0  0  0  0
  161.8030  206.1730  148.4540 N   0  0  0  0  0  0  0  0  0  0  0  0
  161.2900  205.0040  149.1300 C   0  0  0  0  0  0  0  0  0  0  0  0
  159.7280  204.9550  151.1020 C   0  0  0  0  0  1  0  0  0  0  0  0
  161.1760  204.9710  150.6300 C   0  0  1  0  0  3  0  0  0  0  0  0
  162.0180  203.8520  151.2490 C   0  0  0  0  0  2  0  0  0  0  0  0
  161.1880  202.6670  151.7470 C   0  0  0  0  0  2  0  0  0  0  0  0
  161.9770  201.2190  150.0220 O   0  0  0  0  0  0  0  0  0  0  0  0
  160.9820  201.6560  150.6590 C   0  0  0  0  0  0  0  0  0  0  0  0
  159.2020  201.3030  148.9880 C   0  0  0  0  0  1  0  0  0  0  0  0
  159.7060  201.2090  150.3130 O   0  0  0  0  0  0  0  0  0  0  0  0
  162.1140  206.0810  147.0320 C   0  0  0  0  0  2  0  0  0  0  0  0
  162.3620  204.6290  146.6450 C   0  0  0  0  0  2  0  0  0  0  0  0
  161.7670  204.2740  145.2790 C   0  0  2  0  0  3  0  0  0  0  0  0
  161.0970  205.4460  144.6150 C   0  0  0  0  0  0  0  0  0  0  0  0
  160.0220  206.0950  145.2190 O   0  0  0  0  0  1  0  0  0  0  0  0
  161.4760  205.8130  143.4730 O   0  0  0  0  0  0  0  0  0  0  0  0
  161.2040  202.0910  146.0350 O   0  0  0  0  0  0  0  0  0  0  0  0
  160.9180  203.0320  145.3100 C   0  0  0  0  0  0  0  0  0  0  0  0
  159.6960  202.9600  144.4610 C   0  0  0  0  0  1  0  0  0  0  0  0
  1  4  1  0  0  0  0
  2  8  1  1  0  0  0
  2  5  1  0  0  0  0
  3 26  1  6  0  0  0
  3  1  1  0  0  0  0
  3  2  1  0  0  0  0
  4  5  1  0  0  0  0
  6  8  1  0  0  0  0
  8  7  2  0  0  0  0
  9 16  1  0  0  0  0
 10 17  1  1  0  0  0
 10  9  1  0  0  0  0
 13 12  1  6  0  0  0
 13 11  1  0  0  0  0
 13 15  1  0  0  0  0
 14  6  1  1  0  0  0
 14 16  1  0  0  0  0
 15 11  1  6  0  0  0
 15 10  1  0  0  0  0
 15 14  1  0  0  0  0
 17 21  1  0  0  0  0
 18 17  2  0  0  0  0
 19 24  1  0  0  0  0
 20 24  2  0  0  0  0
 21 19  2  0  0  0  0
 22 20  1  0  0  0  0
 23 21  1  0  0  0  0
 23 22  2  0  0  0  0
 25 26  2  0  0  0  0
 27 28  2  0  0  0  0
 28 25  1  0  0  0  0
 29 31  2  0  0  0  0
 30 28  1  0  0  0  0
 30 31  1  0  0  0  0
 31 33  1  0  0  0  0
 33 32  1  6  0  0  0
 33 34  1  0  0  0  0
 34 35  1  0  0  0  0
 36 37  2  0  0  0  0
 37 35  1  0  0  0  0
 38 39  1  0  0  0  0
 39 37  1  0  0  0  0
 40 30  1  0  0  0  0
 41 40  1  0  0  0  0
 42 47  1  0  0  0  0
 42 41  1  1  0  0  0
 43 44  1  0  0  0  0
 43 42  1  0  0  0  0
 45 43  2  0  0  0  0
 47 46  2  0  0  0  0
 48 47  1  0  0  0  0
M  END
>  <MODEL>
1

>  <REMARK>
 VINA RESULT:      -6.4      0.000      0.000
  Name = 
  17 active torsions:
  status: ('A' for Active; 'I' for Inactive)
    1  A    between atoms: C_1  and  C_45
    2  A    between atoms: C_5  and  C_8
    3  A    between atoms: C_6  and  C_41
    4  A    between atoms: C_6  and  C_42
    5  A    between atoms: C_8  and  C_17
    6  A    between atoms: C_9  and  C_11
    7  A    between atoms: C_9  and  C_12
    8  A    between atoms: C_9  and  C_31
    9  A    between atoms: C_12  and  C_20
   10  A    between atoms: N_16  and  C_20
   11  A    between atoms: N_16  and  C_45
   12  A    between atoms: N_21  and  C_38
   13  A    between atoms: C_22  and  C_48
   14  A    between atoms: O_23  and  C_42
   15  A    between atoms: C_24  and  C_43
   16  A    between atoms: C_28  and  C_29
   17  A    between atoms: C_41  and  C_43
                            x       y       z     vdW  Elec       q    Type
                         _______ _______ _______ _____ _____    ______ ____

>  <TORSDO>
F 17

$$$$
=
 OpenBabel11072409533D

 48 51  0  0  1  0  0  0  0  0999 V2000
  160.5850  206.7730  155.9920 N   0  0  0  0  0  2  0  0  0  0  0  0
  159.8430  208.7340  155.0230 C   0  0  1  0  0  3  0  0  0  0  0  0
  161.0730  207.9410  155.2960 C   0  0  2  0  0  3  0  0  0  0  0  0
  159.3950  207.1560  156.6470 N   0  0  0  0  0  2  0  0  0  0  0  0
  158.9090  208.3480  156.0610 N   0  0  0  0  0  2  0  0  0  0  0  0
  159.2850  211.1040  154.3090 N   0  0  0  0  0  2  0  0  0  0  0  0
  161.0500  210.6390  155.7640 O   0  0  0  0  0  0  0  0  0  0  0  0
  160.1040  210.2030  155.0570 C   0  0  0  0  0  0  0  0  0  0  0  0
  158.3730  214.4520  155.2670 C   0  0  0  0  0  2  0  0  0  0  0  0
  157.7970  214.2800  153.8690 C   0  0  1  0  0  3  0  0  0  0  0  0
  159.5630  213.8350  152.1740 C   0  0  0  0  0  2  0  0  0  0  0  0
  157.4750  213.2920  151.1750 O   0  0  0  0  0  1  0  0  0  0  0  0
  158.5850  212.7320  151.8080 C   0  0  2  0  0  3  0  0  0  0  0  0
  159.5510  212.5370  154.2830 C   0  0  1  0  0  3  0  0  0  0  0  0
  158.6860  213.2220  153.2500 C   0  0  2  0  0  0  0  0  0  0  0  0
  159.1210  213.1590  155.6000 C   0  0  0  0  0  2  0  0  0  0  0  0
  156.3680  213.8180  153.9560 C   0  0  0  0  0  0  0  0  0  0  0  0
  155.5200  214.2410  153.1200 O   0  0  0  0  0  0  0  0  0  0  0  0
  155.9530  211.4870  154.7590 C   0  0  0  0  0  3  0  0  0  0  0  0
  155.1540  211.0730  157.0110 C   0  0  0  0  0  3  0  0  0  0  0  0
  155.9510  212.8690  155.0030 C   0  0  0  0  0  0  0  0  0  0  0  0
  155.1480  212.4470  157.2610 C   0  0  0  0  0  3  0  0  0  0  0  0
  155.5450  213.3410  156.2620 C   0  0  0  0  0  3  0  0  0  0  0  0
  155.5580  210.5930  155.7610 C   0  0  0  0  0  3  0  0  0  0  0  0
  161.3770  206.4180  153.4200 C   0  0  0  0  0  3  0  0  0  0  0  0
  161.7300  207.5480  154.0210 C   0  0  0  0  0  3  0  0  0  0  0  0
  163.2120  205.3910  152.2680 C   0  0  0  0  0  2  0  0  0  0  0  0
  162.0020  205.9320  152.1810 C   0  0  0  0  0  0  0  0  0  0  0  0
  159.9670  205.1470  149.2480 O   0  0  0  0  0  0  0  0  0  0  0  0
  161.3580  206.0680  150.8970 N   0  0  0  0  0  0  0  0  0  0  0  0
  160.7150  204.9500  150.2480 C   0  0  0  0  0  0  0  0  0  0  0  0
  160.6160  203.3230  152.1650 C   0  0  0  0  0  1  0  0  0  0  0  0
  160.9810  203.5400  150.7020 C   0  0  1  0  0  3  0  0  0  0  0  0
  160.3500  202.5030  149.7690 C   0  0  0  0  0  2  0  0  0  0  0  0
  161.3410  201.4490  149.2690 C   0  0  0  0  0  2  0  0  0  0  0  0
  161.5370  200.0690  147.3330 O   0  0  0  0  0  0  0  0  0  0  0  0
  161.1390  201.1640  147.8110 C   0  0  0  0  0  0  0  0  0  0  0  0
  161.2240  202.6370  145.8340 C   0  0  0  0  0  1  0  0  0  0  0  0
  160.5470  202.1000  146.9610 O   0  0  0  0  0  0  0  0  0  0  0  0
  161.2570  207.3880  150.2850 C   0  0  0  0  0  2  0  0  0  0  0  0
  162.6260  208.0550  150.2520 C   0  0  0  0  0  2  0  0  0  0  0  0
  162.5420  209.5800  150.3680 C   0  0  2  0  0  3  0  0  0  0  0  0
  161.9020  210.0310  151.6520 C   0  0  0  0  0  0  0  0  0  0  0  0
  160.5460  210.3470  151.7060 O   0  0  0  0  0  0  0  0  0  0  0  0
  162.6110  210.1780  152.6810 O   0  0  0  0  0  1  0  0  0  0  0  0
  161.8830  209.6280  148.0840 O   0  0  0  0  0  0  0  0  0  0  0  0
  161.9610  210.2330  149.1420 C   0  0  0  0  0  0  0  0  0  0  0  0
  161.4520  211.6300  149.2300 C   0  0  0  0  0  1  0  0  0  0  0  0
  1  4  1  0  0  0  0
  2  8  1  1  0  0  0
  2  3  1  0  0  0  0
  2  5  1  0  0  0  0
  3 26  1  6  0  0  0
  3  1  1  0  0  0  0
  5  4  1  0  0  0  0
  6  8  1  0  0  0  0
  8  7  2  0  0  0  0
  9 16  1  0  0  0  0
 10 17  1  1  0  0  0
 10  9  1  0  0  0  0
 13 12  1  6  0  0  0
 13 11  1  0  0  0  0
 13 15  1  0  0  0  0
 14  6  1  1  0  0  0
 14 16  1  0  0  0  0
 15 11  1  6  0  0  0
 15 10  1  0  0  0  0
 15 14  1  0  0  0  0
 17 21  1  0  0  0  0
 18 17  2  0  0  0  0
 19 21  2  0  0  0  0
 19 24  1  0  0  0  0
 20 22  1  0  0  0  0
 21 23  1  0  0  0  0
 23 22  2  0  0  0  0
 24 20  2  0  0  0  0
 25 26  2  0  0  0  0
 28 27  2  0  0  0  0
 28 25  1  0  0  0  0
 29 31  2  0  0  0  0
 30 28  1  0  0  0  0
 31 33  1  0  0  0  0
 31 30  1  0  0  0  0
 33 32  1  1  0  0  0
 34 33  1  0  0  0  0
 35 34  1  0  0  0  0
 36 37  2  0  0  0  0
 37 35  1  0  0  0  0
 38 39  1  0  0  0  0
 39 37  1  0  0  0  0
 40 30  1  0  0  0  0
 41 40  1  0  0  0  0
 42 41  1  6  0  0  0
 42 43  1  0  0  0  0
 43 44  2  0  0  0  0
 43 45  1  0  0  0  0
 46 47  2  0  0  0  0
 47 48  1  0  0  0  0
 47 42  1  0  0  0  0
M  END
>  <MODEL>
2

>  <REMARK>
 VINA RESULT:      -6.0      1.817      3.962
  Name = 
  17 active torsions:
  status: ('A' for Active; 'I' for Inactive)
    1  A    between atoms: C_1  and  C_45
    2  A    between atoms: C_5  and  C_8
    3  A    between atoms: C_6  and  C_41
    4  A    between atoms: C_6  and  C_42
    5  A    between atoms: C_8  and  C_17
    6  A    between atoms: C_9  and  C_11
    7  A    between atoms: C_9  and  C_12
    8  A    between atoms: C_9  and  C_31
    9  A    between atoms: C_12  and  C_20
   10  A    between atoms: N_16  and  C_20
   11  A    between atoms: N_16  and  C_45
   12  A    between atoms: N_21  and  C_38
   13  A    between atoms: C_22  and  C_48
   14  A    between atoms: O_23  and  C_42
   15  A    between atoms: C_24  and  C_43
   16  A    between atoms: C_28  and  C_29
   17  A    between atoms: C_41  and  C_43
                            x       y       z     vdW  Elec       q    Type
                         _______ _______ _______ _____ _____    ______ ____

>  <TORSDO>
F 17

$$$$
=
 OpenBabel11072409533D

 48 51  0  0  1  0  0  0  0  0999 V2000
  161.3820  206.4430  153.8090 N   0  0  0  0  0  2  0  0  0  0  0  0
  160.3200  208.4940  153.8300 C   0  0  1  0  0  3  0  0  0  0  0  0
  161.3300  207.6920  153.0870 C   0  0  2  0  0  3  0  0  0  0  0  0
  161.0180  206.7280  155.1430 N   0  0  0  0  0  2  0  0  0  0  0  0
  160.3490  207.9740  155.1830 N   0  0  0  0  0  2  0  0  0  0  0  0
  159.5900  210.9220  153.7210 N   0  0  0  0  0  2  0  0  0  0  0  0
  161.8390  210.3180  153.8860 O   0  0  0  0  0  0  0  0  0  0  0  0
  160.6360  209.9520  153.8100 C   0  0  0  0  0  0  0  0  0  0  0  0
  158.7610  214.3070  154.6210 C   0  0  0  0  0  2  0  0  0  0  0  0
  158.1320  214.1070  153.2500 C   0  0  1  0  0  3  0  0  0  0  0  0
  159.8280  213.5910  151.5050 C   0  0  0  0  0  2  0  0  0  0  0  0
  157.6980  213.0530  150.5970 O   0  0  0  0  0  1  0  0  0  0  0  0
  158.8230  212.4930  151.2040 C   0  0  2  0  0  3  0  0  0  0  0  0
  159.8750  212.3490  153.6470 C   0  0  1  0  0  3  0  0  0  0  0  0
  158.9820  213.0200  152.6280 C   0  0  2  0  0  0  0  0  0  0  0  0
  159.5030  213.0130  154.9610 C   0  0  0  0  0  2  0  0  0  0  0  0
  156.7000  213.6690  153.4010 C   0  0  0  0  0  0  0  0  0  0  0  0
  155.8660  213.9260  152.4880 O   0  0  0  0  0  0  0  0  0  0  0  0
  155.8520  213.6230  155.7520 C   0  0  0  0  0  3  0  0  0  0  0  0
  155.4400  211.5170  156.8820 C   0  0  0  0  0  3  0  0  0  0  0  0
  156.2660  212.9340  154.6020 C   0  0  0  0  0  0  0  0  0  0  0  0
  155.8520  210.8250  155.7420 C   0  0  0  0  0  3  0  0  0  0  0  0
  156.2620  211.5290  154.6060 C   0  0  0  0  0  3  0  0  0  0  0  0
  155.4380  212.9160  156.8860 C   0  0  0  0  0  3  0  0  0  0  0  0
  161.1520  206.3070  151.0910 C   0  0  0  0  0  3  0  0  0  0  0  0
  160.8820  207.4630  151.6870 C   0  0  0  0  0  3  0  0  0  0  0  0
  159.6080  206.4500  149.2610 C   0  0  0  0  0  2  0  0  0  0  0  0
  160.7830  206.0110  149.6980 C   0  0  0  0  0  0  0  0  0  0  0  0
  163.3670  205.1820  147.2500 O   0  0  0  0  0  0  0  0  0  0  0  0
  161.6370  205.2340  148.8330 N   0  0  0  0  0  0  0  0  0  0  0  0
  162.4680  205.8560  147.8290 C   0  0  0  0  0  0  0  0  0  0  0  0
  160.8450  207.4860  146.8090 C   0  0  0  0  0  1  0  0  0  0  0  0
  162.2300  207.2810  147.4080 C   0  0  1  0  0  3  0  0  0  0  0  0
  162.5500  208.2760  148.5270 C   0  0  0  0  0  2  0  0  0  0  0  0
  161.6350  209.5020  148.5340 C   0  0  0  0  0  2  0  0  0  0  0  0
  162.3560  210.2670  150.6760 O   0  0  0  0  0  0  0  0  0  0  0  0
  162.1490  210.5560  149.4670 C   0  0  0  0  0  0  0  0  0  0  0  0
  162.2090  212.2560  147.6810 C   0  0  0  0  0  1  0  0  0  0  0  0
  162.3760  211.8640  149.0360 O   0  0  0  0  0  0  0  0  0  0  0  0
  161.7490  203.7950  149.0430 C   0  0  0  0  0  2  0  0  0  0  0  0
  161.3690  203.0510  147.7690 C   0  0  0  0  0  2  0  0  0  0  0  0
  161.2150  201.5430  147.9920 C   0  0  2  0  0  3  0  0  0  0  0  0
  160.9640  200.7900  146.7130 C   0  0  0  0  0  0  0  0  0  0  0  0
  161.4420  199.4940  146.5380 O   0  0  0  0  0  1  0  0  0  0  0  0
  160.3610  201.3580  145.7660 O   0  0  0  0  0  0  0  0  0  0  0  0
  159.0390  201.2970  148.9180 O   0  0  0  0  0  0  0  0  0  0  0  0
  160.2450  201.2040  149.0920 C   0  0  0  0  0  0  0  0  0  0  0  0
  160.7640  200.7270  150.4030 C   0  0  0  0  0  1  0  0  0  0  0  0
  1  4  1  0  0  0  0
  2  8  1  1  0  0  0
  2  5  1  0  0  0  0
  3 26  1  6  0  0  0
  3  1  1  0  0  0  0
  3  2  1  0  0  0  0
  4  5  1  0  0  0  0
  6  8  1  0  0  0  0
  8  7  2  0  0  0  0
  9 16  1  0  0  0  0
 10 17  1  1  0  0  0
 10  9  1  0  0  0  0
 13 12  1  6  0  0  0
 13 11  1  0  0  0  0
 13 15  1  0  0  0  0
 14  6  1  1  0  0  0
 14 16  1  0  0  0  0
 15 11  1  6  0  0  0
 15 10  1  0  0  0  0
 15 14  1  0  0  0  0
 17 21  1  0  0  0  0
 18 17  2  0  0  0  0
 19 24  1  0  0  0  0
 20 24  2  0  0  0  0
 21 23  1  0  0  0  0
 21 19  2  0  0  0  0
 22 20  1  0  0  0  0
 23 22  2  0  0  0  0
 25 26  2  0  0  0  0
 27 28  2  0  0  0  0
 28 25  1  0  0  0  0
 29 31  2  0  0  0  0
 30 40  1  0  0  0  0
 30 28  1  0  0  0  0
 31 30  1  0  0  0  0
 33 32  1  1  0  0  0
 33 31  1  0  0  0  0
 33 34  1  0  0  0  0
 34 35  1  0  0  0  0
 35 37  1  0  0  0  0
 37 36  2  0  0  0  0
 38 39  1  0  0  0  0
 39 37  1  0  0  0  0
 41 40  1  0  0  0  0
 42 41  1  6  0  0  0
 42 47  1  0  0  0  0
 43 42  1  0  0  0  0
 44 43  1  0  0  0  0
 45 43  2  0  0  0  0
 46 47  2  0  0  0  0
 47 48  1  0  0  0  0
M  END
>  <MODEL>
3

>  <REMARK>
 VINA RESULT:      -5.5      1.638      4.044
  Name = 
  17 active torsions:
  status: ('A' for Active; 'I' for Inactive)
    1  A    between atoms: C_1  and  C_45
    2  A    between atoms: C_5  and  C_8
    3  A    between atoms: C_6  and  C_41
    4  A    between atoms: C_6  and  C_42
    5  A    between atoms: C_8  and  C_17
    6  A    between atoms: C_9  and  C_11
    7  A    between atoms: C_9  and  C_12
    8  A    between atoms: C_9  and  C_31
    9  A    between atoms: C_12  and  C_20
   10  A    between atoms: N_16  and  C_20
   11  A    between atoms: N_16  and  C_45
   12  A    between atoms: N_21  and  C_38
   13  A    between atoms: C_22  and  C_48
   14  A    between atoms: O_23  and  C_42
   15  A    between atoms: C_24  and  C_43
   16  A    between atoms: C_28  and  C_29
   17  A    between atoms: C_41  and  C_43
                            x       y       z     vdW  Elec       q    Type
                         _______ _______ _______ _____ _____    ______ ____

>  <TORSDO>
F 17

$$$$
=
 OpenBabel11072409533D

 48 51  0  0  1  0  0  0  0  0999 V2000
  161.3430  203.4660  151.4590 N   0  0  0  0  0  2  0  0  0  0  0  0
  160.8180  205.3970  152.6110 C   0  0  1  0  0  3  0  0  0  0  0  0
  161.8070  204.8180  151.6610 C   0  0  2  0  0  3  0  0  0  0  0  0
  160.6440  203.0960  152.6280 N   0  0  0  0  0  2  0  0  0  0  0  0
  160.2950  204.2630  153.3470 N   0  0  0  0  0  2  0  0  0  0  0  0
  160.6330  207.1890  154.3990 N   0  0  0  0  0  2  0  0  0  0  0  0
  162.6970  206.5080  153.5460 O   0  0  0  0  0  0  0  0  0  0  0  0
  161.4430  206.3910  153.5330 C   0  0  0  0  0  0  0  0  0  0  0  0
  160.3570  209.3570  157.2580 C   0  0  0  0  0  2  0  0  0  0  0  0
  159.9810  210.2340  156.0720 C   0  0  1  0  0  3  0  0  0  0  0  0
  161.8440  210.4480  154.4370 C   0  0  0  0  0  2  0  0  0  0  0  0
  159.8690  211.2160  153.3590 O   0  0  0  0  0  1  0  0  0  0  0  0
  160.7130  210.1120  153.4810 C   0  0  2  0  0  3  0  0  0  0  0  0
  161.2140  208.2030  155.2700 C   0  0  1  0  0  3  0  0  0  0  0  0
  160.6960  209.5770  154.9100 C   0  0  2  0  0  0  0  0  0  0  0  0
  160.7350  207.9860  156.6950 C   0  0  0  0  0  2  0  0  0  0  0  0
  158.4890  210.2240  155.8790 C   0  0  0  0  0  0  0  0  0  0  0  0
  157.9140  209.1650  155.4990 O   0  0  0  0  0  0  0  0  0  0  0  0
  158.2960  212.7030  156.1340 C   0  0  0  0  0  3  0  0  0  0  0  0
  156.1600  213.7380  156.6300 C   0  0  0  0  0  3  0  0  0  0  0  0
  157.6930  211.4360  156.1370 C   0  0  0  0  0  0  0  0  0  0  0  0
  155.5530  212.4800  156.6360 C   0  0  0  0  0  3  0  0  0  0  0  0
  156.3150  211.3340  156.3900 C   0  0  0  0  0  3  0  0  0  0  0  0
  157.5310  213.8490  156.3770 C   0  0  0  0  0  3  0  0  0  0  0  0
  160.7110  205.5300  149.6050 C   0  0  0  0  0  3  0  0  0  0  0  0
  161.7920  205.5680  150.3760 C   0  0  0  0  0  3  0  0  0  0  0  0
  159.4150  206.4840  147.8280 C   0  0  0  0  0  2  0  0  0  0  0  0
  160.6240  206.2070  148.3020 C   0  0  0  0  0  0  0  0  0  0  0  0
  162.9890  206.3240  145.5180 O   0  0  0  0  0  0  0  0  0  0  0  0
  161.8000  206.5260  147.5290 N   0  0  0  0  0  0  0  0  0  0  0  0
  162.0880  205.8670  146.2770 C   0  0  0  0  0  0  0  0  0  0  0  0
  160.9000  204.6100  144.4490 C   0  0  0  0  0  1  0  0  0  0  0  0
  161.3780  204.5960  145.8950 C   0  0  1  0  0  3  0  0  0  0  0  0
  162.1970  203.3500  146.2410 C   0  0  0  0  0  2  0  0  0  0  0  0
  161.8190  202.7260  147.5860 C   0  0  0  0  0  2  0  0  0  0  0  0
  159.9130  201.4810  148.3030 O   0  0  0  0  0  0  0  0  0  0  0  0
  160.7900  201.6490  147.4140 C   0  0  0  0  0  0  0  0  0  0  0  0
  159.9650  201.0250  145.1740 C   0  0  0  0  0  1  0  0  0  0  0  0
  160.7990  200.8040  146.3030 O   0  0  0  0  0  0  0  0  0  0  0  0
  162.6670  207.6160  147.9650 C   0  0  0  0  0  2  0  0  0  0  0  0
  161.8670  208.9070  148.0750 C   0  0  0  0  0  2  0  0  0  0  0  0
  162.2960  209.7660  149.2680 C   0  0  2  0  0  3  0  0  0  0  0  0
  162.0310  209.0970  150.5900 C   0  0  0  0  0  0  0  0  0  0  0  0
  160.7740  208.5760  150.8910 O   0  0  0  0  0  0  0  0  0  0  0  0
  162.9400  209.0550  151.4580 O   0  0  0  0  0  1  0  0  0  0  0  0
  161.4070  211.7660  150.1980 O   0  0  0  0  0  0  0  0  0  0  0  0
  161.7820  211.1790  149.1940 C   0  0  0  0  0  0  0  0  0  0  0  0
  161.7530  211.8780  147.8800 C   0  0  0  0  0  1  0  0  0  0  0  0
  1  3  1  0  0  0  0
  1  4  1  0  0  0  0
  2  5  1  0  0  0  0
  2  8  1  1  0  0  0
  3 26  1  6  0  0  0
  3  2  1  0  0  0  0
  4  5  1  0  0  0  0
  8  7  2  0  0  0  0
  8  6  1  0  0  0  0
 10 17  1  6  0  0  0
 10  9  1  0  0  0  0
 13 12  1  1  0  0  0
 13 11  1  0  0  0  0
 13 15  1  0  0  0  0
 14  6  1  6  0  0  0
 14 16  1  0  0  0  0
 15 11  1  1  0  0  0
 15 14  1  0  0  0  0
 15 10  1  0  0  0  0
 16  9  1  0  0  0  0
 17 21  1  0  0  0  0
 18 17  2  0  0  0  0
 19 21  2  0  0  0  0
 19 24  1  0  0  0  0
 20 22  1  0  0  0  0
 21 23  1  0  0  0  0
 23 22  2  0  0  0  0
 24 20  2  0  0  0  0
 25 26  2  0  0  0  0
 27 28  2  0  0  0  0
 28 25  1  0  0  0  0
 29 31  2  0  0  0  0
 30 40  1  0  0  0  0
 30 28  1  0  0  0  0
 31 30  1  0  0  0  0
 33 32  1  6  0  0  0
 33 34  1  0  0  0  0
 33 31  1  0  0  0  0
 34 35  1  0  0  0  0
 37 35  1  0  0  0  0
 37 36  2  0  0  0  0
 38 39  1  0  0  0  0
 39 37  1  0  0  0  0
 40 41  1  0  0  0  0
 42 41  1  6  0  0  0
 42 43  1  0  0  0  0
 43 44  2  0  0  0  0
 43 45  1  0  0  0  0
 47 42  1  0  0  0  0
 47 46  2  0  0  0  0
 48 47  1  0  0  0  0
M  END
>  <MODEL>
4

>  <REMARK>
 VINA RESULT:      -5.2      2.363      4.989
  Name = 
  17 active torsions:
  status: ('A' for Active; 'I' for Inactive)
    1  A    between atoms: C_1  and  C_45
    2  A    between atoms: C_5  and  C_8
    3  A    between atoms: C_6  and  C_41
    4  A    between atoms: C_6  and  C_42
    5  A    between atoms: C_8  and  C_17
    6  A    between atoms: C_9  and  C_11
    7  A    between atoms: C_9  and  C_12
    8  A    between atoms: C_9  and  C_31
    9  A    between atoms: C_12  and  C_20
   10  A    between atoms: N_16  and  C_20
   11  A    between atoms: N_16  and  C_45
   12  A    between atoms: N_21  and  C_38
   13  A    between atoms: C_22  and  C_48
   14  A    between atoms: O_23  and  C_42
   15  A    between atoms: C_24  and  C_43
   16  A    between atoms: C_28  and  C_29
   17  A    between atoms: C_41  and  C_43
                            x       y       z     vdW  Elec       q    Type
                         _______ _______ _______ _____ _____    ______ ____

>  <TORSDO>
F 17

$$$$
=
 OpenBabel11072409533D

 48 51  0  0  1  0  0  0  0  0999 V2000
  160.5200  206.6490  155.7270 N   0  0  0  0  0  2  0  0  0  0  0  0
  159.9750  208.5860  154.5940 C   0  0  1  0  0  3  0  0  0  0  0  0
  161.1270  207.7300  154.9860 C   0  0  2  0  0  3  0  0  0  0  0  0
  159.3290  207.1590  156.2890 N   0  0  0  0  0  2  0  0  0  0  0  0
  158.9630  208.3390  155.6010 N   0  0  0  0  0  2  0  0  0  0  0  0
  159.3690  211.0170  154.1890 N   0  0  0  0  0  2  0  0  0  0  0  0
  161.5170  210.3740  154.8400 O   0  0  0  0  0  0  0  0  0  0  0  0
  160.3410  210.0320  154.5470 C   0  0  0  0  0  0  0  0  0  0  0  0
  158.6790  214.4530  155.0070 C   0  0  0  0  0  2  0  0  0  0  0  0
  158.0490  214.2490  153.6370 C   0  0  1  0  0  3  0  0  0  0  0  0
  159.7300  213.6220  151.9140 C   0  0  0  0  0  2  0  0  0  0  0  0
  157.5840  213.1540  151.0060 O   0  0  0  0  0  1  0  0  0  0  0  0
  158.6810  212.5620  151.6330 C   0  0  2  0  0  3  0  0  0  0  0  0
  159.7150  212.4290  154.0840 C   0  0  1  0  0  3  0  0  0  0  0  0
  158.8560  213.1130  153.0450 C   0  0  2  0  0  0  0  0  0  0  0  0
  159.3640  213.1370  155.3810 C   0  0  0  0  0  2  0  0  0  0  0  0
  156.5990  213.8750  153.7900 C   0  0  0  0  0  0  0  0  0  0  0  0
  155.7690  214.2060  152.8970 O   0  0  0  0  0  0  0  0  0  0  0  0
  156.1010  211.7150  154.9450 C   0  0  0  0  0  3  0  0  0  0  0  0
  155.2690  211.6870  157.2230 C   0  0  0  0  0  3  0  0  0  0  0  0
  156.1420  213.1170  154.9680 C   0  0  0  0  0  0  0  0  0  0  0  0
  155.3060  213.0830  157.2520 C   0  0  0  0  0  3  0  0  0  0  0  0
  155.7420  213.7950  156.1310 C   0  0  0  0  0  3  0  0  0  0  0  0
  155.6680  211.0040  156.0700 C   0  0  0  0  0  3  0  0  0  0  0  0
  161.2980  207.4210  152.5760 C   0  0  0  0  0  3  0  0  0  0  0  0
  161.8190  207.2050  153.7780 C   0  0  0  0  0  3  0  0  0  0  0  0
  163.1700  206.5470  151.3590 C   0  0  0  0  0  2  0  0  0  0  0  0
  161.8910  206.9040  151.3330 C   0  0  0  0  0  0  0  0  0  0  0  0
  160.8890  207.4580  147.8620 O   0  0  0  0  0  0  0  0  0  0  0  0
  161.1370  206.8210  150.1060 N   0  0  0  0  0  0  0  0  0  0  0  0
  161.4000  207.7020  148.9920 C   0  0  0  0  0  0  0  0  0  0  0  0
  163.4170  209.0040  148.2380 C   0  0  0  0  0  1  0  0  0  0  0  0
  162.2180  208.9520  149.1760 C   0  0  1  0  0  3  0  0  0  0  0  0
  161.3600  210.2180  149.1200 C   0  0  0  0  0  2  0  0  0  0  0  0
  161.6290  211.0830  147.8860 C   0  0  0  0  0  2  0  0  0  0  0  0
  161.3750  213.0010  149.2830 O   0  0  0  0  0  0  0  0  0  0  0  0
  161.2410  212.5100  148.1300 C   0  0  0  0  0  0  0  0  0  0  0  0
  161.1010  213.1730  145.7580 C   0  0  0  0  0  1  0  0  0  0  0  0
  160.7020  213.3020  147.1150 O   0  0  0  0  0  0  0  0  0  0  0  0
  160.1550  205.7550  149.9410 C   0  0  0  0  0  2  0  0  0  0  0  0
  160.8260  204.5130  149.3660 C   0  0  0  0  0  2  0  0  0  0  0  0
  160.4300  203.2330  150.1080 C   0  0  2  0  0  3  0  0  0  0  0  0
  161.0710  203.1280  151.4650 C   0  0  0  0  0  0  0  0  0  0  0  0
  162.2930  202.4820  151.6340 O   0  0  0  0  0  0  0  0  0  0  0  0
  160.4680  203.5810  152.4730 O   0  0  0  0  0  1  0  0  0  0  0  0
  160.3350  202.0050  148.0740 O   0  0  0  0  0  0  0  0  0  0  0  0
  160.5860  201.9930  149.2700 C   0  0  0  0  0  0  0  0  0  0  0  0
  161.0770  200.7380  149.9040 C   0  0  0  0  0  1  0  0  0  0  0  0
  1  4  1  0  0  0  0
  2  8  1  1  0  0  0
  2  3  1  0  0  0  0
  2  5  1  0  0  0  0
  3 26  1  6  0  0  0
  3  1  1  0  0  0  0
  5  4  1  0  0  0  0
  6  8  1  0  0  0  0
  8  7  2  0  0  0  0
  9 16  1  0  0  0  0
 10 17  1  1  0  0  0
 10  9  1  0  0  0  0
 13 12  1  6  0  0  0
 13 11  1  0  0  0  0
 13 15  1  0  0  0  0
 14  6  1  1  0  0  0
 14 16  1  0  0  0  0
 15 11  1  6  0  0  0
 15 10  1  0  0  0  0
 15 14  1  0  0  0  0
 17 21  1  0  0  0  0
 18 17  2  0  0  0  0
 19 21  2  0  0  0  0
 19 24  1  0  0  0  0
 20 22  1  0  0  0  0
 21 23  1  0  0  0  0
 23 22  2  0  0  0  0
 24 20  2  0  0  0  0
 25 26  2  0  0  0  0
 28 27  2  0  0  0  0
 28 25  1  0  0  0  0
 29 31  2  0  0  0  0
 30 28  1  0  0  0  0
 31 33  1  0  0  0  0
 31 30  1  0  0  0  0
 33 32  1  6  0  0  0
 34 33  1  0  0  0  0
 35 37  1  0  0  0  0
 35 34  1  0  0  0  0
 37 36  2  0  0  0  0
 38 39  1  0  0  0  0
 39 37  1  0  0  0  0
 40 30  1  0  0  0  0
 41 40  1  0  0  0  0
 42 41  1  6  0  0  0
 42 43  1  0  0  0  0
 43 44  2  0  0  0  0
 43 45  1  0  0  0  0
 46 47  2  0  0  0  0
 47 48  1  0  0  0  0
 47 42  1  0  0  0  0
M  END
>  <MODEL>
5

>  <REMARK>
 VINA RESULT:      -5.2      1.983      4.950
  Name = 
  17 active torsions:
  status: ('A' for Active; 'I' for Inactive)
    1  A    between atoms: C_1  and  C_45
    2  A    between atoms: C_5  and  C_8
    3  A    between atoms: C_6  and  C_41
    4  A    between atoms: C_6  and  C_42
    5  A    between atoms: C_8  and  C_17
    6  A    between atoms: C_9  and  C_11
    7  A    between atoms: C_9  and  C_12
    8  A    between atoms: C_9  and  C_31
    9  A    between atoms: C_12  and  C_20
   10  A    between atoms: N_16  and  C_20
   11  A    between atoms: N_16  and  C_45
   12  A    between atoms: N_21  and  C_38
   13  A    between atoms: C_22  and  C_48
   14  A    between atoms: O_23  and  C_42
   15  A    between atoms: C_24  and  C_43
   16  A    between atoms: C_28  and  C_29
   17  A    between atoms: C_41  and  C_43
                            x       y       z     vdW  Elec       q    Type
                         _______ _______ _______ _____ _____    ______ ____

>  <TORSDO>
F 17

$$$$
=
 OpenBabel11072409533D

 48 51  0  0  1  0  0  0  0  0999 V2000
  161.2050  206.7810  153.3820 N   0  0  0  0  0  2  0  0  0  0  0  0
  161.9050  206.8600  151.1830 C   0  0  1  0  0  3  0  0  0  0  0  0
  160.8780  207.3960  152.1180 C   0  0  2  0  0  3  0  0  0  0  0  0
  161.8440  205.5570  153.0880 N   0  0  0  0  0  2  0  0  0  0  0  0
  162.2980  205.5840  151.7480 N   0  0  0  0  0  2  0  0  0  0  0  0
  162.2240  206.8570  148.6660 N   0  0  0  0  0  2  0  0  0  0  0  0
  160.1580  206.3850  149.6470 O   0  0  0  0  0  0  0  0  0  0  0  0
  161.3710  206.6900  149.8000 C   0  0  0  0  0  0  0  0  0  0  0  0
  159.8480  205.4820  146.3370 C   0  0  0  0  0  2  0  0  0  0  0  0
  161.0700  204.5820  146.2180 C   0  0  1  0  0  3  0  0  0  0  0  0
  163.0840  205.8290  145.4570 C   0  0  0  0  0  2  0  0  0  0  0  0
  163.8300  203.7370  146.3060 O   0  0  0  0  0  1  0  0  0  0  0  0
  163.6850  205.0850  146.6360 C   0  0  2  0  0  3  0  0  0  0  0  0
  161.7150  206.7490  147.3040 C   0  0  1  0  0  3  0  0  0  0  0  0
  162.2110  205.4800  146.6480 C   0  0  2  0  0  0  0  0  0  0  0  0
  160.2050  206.5850  147.3360 C   0  0  0  0  0  2  0  0  0  0  0  0
  160.9250  203.3980  147.1350 C   0  0  0  0  0  0  0  0  0  0  0  0
  160.8270  203.5780  148.3820 O   0  0  0  0  0  0  0  0  0  0  0  0
  160.2340  201.7580  145.3790 C   0  0  0  0  0  3  0  0  0  0  0  0
  160.8310  199.4150  145.5640 C   0  0  0  0  0  3  0  0  0  0  0  0
  160.8900  202.0290  146.5900 C   0  0  0  0  0  0  0  0  0  0  0  0
  161.4840  199.6770  146.7700 C   0  0  0  0  0  3  0  0  0  0  0  0
  161.5150  200.9780  147.2800 C   0  0  0  0  0  3  0  0  0  0  0  0
  160.2080  200.4560  144.8680 C   0  0  0  0  0  3  0  0  0  0  0  0
  160.0770  209.5610  152.8960 C   0  0  0  0  0  3  0  0  0  0  0  0
  160.9900  208.8760  152.2170 C   0  0  0  0  0  3  0  0  0  0  0  0
  161.1100  211.5920  153.6430 C   0  0  0  0  0  2  0  0  0  0  0  0
  160.0870  211.0270  153.0110 C   0  0  0  0  0  0  0  0  0  0  0  0
  158.1240  213.1140  150.7420 O   0  0  0  0  0  0  0  0  0  0  0  0
  159.0090  211.8390  152.5010 N   0  0  0  0  0  0  0  0  0  0  0  0
  159.1460  212.6030  151.2830 C   0  0  0  0  0  0  0  0  0  0  0  0
  161.0650  211.6400  149.9700 C   0  0  0  0  0  1  0  0  0  0  0  0
  160.5030  212.8620  150.6850 C   0  0  1  0  0  3  0  0  0  0  0  0
  160.5210  214.1220  149.8160 C   0  0  0  0  0  2  0  0  0  0  0  0
  161.6130  214.1090  148.7450 C   0  0  0  0  0  2  0  0  0  0  0  0
  161.7820  214.0720  146.3650 O   0  0  0  0  0  0  0  0  0  0  0  0
  161.0200  214.1180  147.3680 C   0  0  0  0  0  0  0  0  0  0  0  0
  158.8430  213.0730  146.8620 C   0  0  0  0  0  1  0  0  0  0  0  0
  159.6420  214.2070  147.1680 O   0  0  0  0  0  0  0  0  0  0  0  0
  157.7130  211.8080  153.1680 C   0  0  0  0  0  2  0  0  0  0  0  0
  157.8860  211.4020  154.6260 C   0  0  0  0  0  2  0  0  0  0  0  0
  157.8550  212.6000  155.5790 C   0  0  2  0  0  3  0  0  0  0  0  0
  159.0300  212.6270  156.5170 C   0  0  0  0  0  0  0  0  0  0  0  0
  159.7960  213.7800  156.6760 O   0  0  0  0  0  0  0  0  0  0  0  0
  159.3620  211.5770  157.1270 O   0  0  0  0  0  1  0  0  0  0  0  0
  156.1580  213.8680  156.6600 O   0  0  0  0  0  0  0  0  0  0  0  0
  156.5280  212.7710  156.2700 C   0  0  0  0  0  0  0  0  0  0  0  0
  155.6440  211.5870  156.4570 C   0  0  0  0  0  1  0  0  0  0  0  0
  2  8  1  6  0  0  0
  2  5  1  0  0  0  0
  2  3  1  0  0  0  0
  3 26  1  1  0  0  0
  3  1  1  0  0  0  0
  4  1  1  0  0  0  0
  5  4  1  0  0  0  0
  6  8  1  0  0  0  0
  7  8  2  0  0  0  0
  9 16  1  0  0  0  0
 10  9  1  0  0  0  0
 10 15  1  0  0  0  0
 10 17  1  1  0  0  0
 11 13  1  0  0  0  0
 13 12  1  6  0  0  0
 13 15  1  0  0  0  0
 14 16  1  0  0  0  0
 14  6  1  1  0  0  0
 15 11  1  6  0  0  0
 15 14  1  0  0  0  0
 17 18  2  0  0  0  0
 19 21  1  0  0  0  0
 20 22  2  0  0  0  0
 21 17  1  0  0  0  0
 21 23  2  0  0  0  0
 22 23  1  0  0  0  0
 24 19  2  0  0  0  0
 24 20  1  0  0  0  0
 25 28  1  0  0  0  0
 26 25  2  0  0  0  0
 28 27  2  0  0  0  0
 29 31  2  0  0  0  0
 30 28  1  0  0  0  0
 30 40  1  0  0  0  0
 31 30  1  0  0  0  0
 33 32  1  6  0  0  0
 33 31  1  0  0  0  0
 34 33  1  0  0  0  0
 35 34  1  0  0  0  0
 36 37  2  0  0  0  0
 37 35  1  0  0  0  0
 38 39  1  0  0  0  0
 39 37  1  0  0  0  0
 40 41  1  0  0  0  0
 42 41  1  1  0  0  0
 42 47  1  0  0  0  0
 42 43  1  0  0  0  0
 43 44  2  0  0  0  0
 43 45  1  0  0  0  0
 47 48  1  0  0  0  0
 47 46  2  0  0  0  0
M  END
>  <MODEL>
6

>  <REMARK>
 VINA RESULT:      -4.7      2.500     11.327
  Name = 
  17 active torsions:
  status: ('A' for Active; 'I' for Inactive)
    1  A    between atoms: C_1  and  C_45
    2  A    between atoms: C_5  and  C_8
    3  A    between atoms: C_6  and  C_41
    4  A    between atoms: C_6  and  C_42
    5  A    between atoms: C_8  and  C_17
    6  A    between atoms: C_9  and  C_11
    7  A    between atoms: C_9  and  C_12
    8  A    between atoms: C_9  and  C_31
    9  A    between atoms: C_12  and  C_20
   10  A    between atoms: N_16  and  C_20
   11  A    between atoms: N_16  and  C_45
   12  A    between atoms: N_21  and  C_38
   13  A    between atoms: C_22  and  C_48
   14  A    between atoms: O_23  and  C_42
   15  A    between atoms: C_24  and  C_43
   16  A    between atoms: C_28  and  C_29
   17  A    between atoms: C_41  and  C_43
                            x       y       z     vdW  Elec       q    Type
                         _______ _______ _______ _____ _____    ______ ____

>  <TORSDO>
F 17

$$$$
=
 OpenBabel11072409533D

 48 51  0  0  1  0  0  0  0  0999 V2000
  161.1740  207.8800  152.8590 N   0  0  0  0  0  2  0  0  0  0  0  0
  162.1470  208.1830  150.7870 C   0  0  1  0  0  3  0  0  0  0  0  0
  160.9490  208.5390  151.5950 C   0  0  2  0  0  3  0  0  0  0  0  0
  161.9860  206.7560  152.5950 N   0  0  0  0  0  2  0  0  0  0  0  0
  162.6090  206.9230  151.3350 N   0  0  0  0  0  2  0  0  0  0  0  0
  161.5710  206.7640  148.7630 N   0  0  0  0  0  2  0  0  0  0  0  0
  161.7690  209.0870  148.6240 O   0  0  0  0  0  0  0  0  0  0  0  0
  161.8250  208.0490  149.3360 C   0  0  0  0  0  0  0  0  0  0  0  0
  159.8060  205.1040  146.1010 C   0  0  0  0  0  2  0  0  0  0  0  0
  161.1410  204.3780  146.1910 C   0  0  1  0  0  3  0  0  0  0  0  0
  163.0650  205.8910  145.7480 C   0  0  0  0  0  2  0  0  0  0  0  0
  163.9390  203.9100  146.7310 O   0  0  0  0  0  1  0  0  0  0  0  0
  163.5630  205.2230  147.0170 C   0  0  2  0  0  3  0  0  0  0  0  0
  161.3060  206.6010  147.3390 C   0  0  1  0  0  3  0  0  0  0  0  0
  162.0670  205.4170  146.7870 C   0  0  2  0  0  0  0  0  0  0  0  0
  159.8470  206.2360  147.1300 C   0  0  0  0  0  2  0  0  0  0  0  0
  161.0110  203.1760  147.0880 C   0  0  0  0  0  0  0  0  0  0  0  0
  160.9520  203.3320  148.3400 O   0  0  0  0  0  0  0  0  0  0  0  0
  161.5890  200.7450  147.1450 C   0  0  0  0  0  3  0  0  0  0  0  0
  160.8050  199.2400  145.4130 C   0  0  0  0  0  3  0  0  0  0  0  0
  160.9440  201.8200  146.5160 C   0  0  0  0  0  0  0  0  0  0  0  0
  160.1610  200.3060  144.7800 C   0  0  0  0  0  3  0  0  0  0  0  0
  160.2290  201.5890  145.3290 C   0  0  0  0  0  3  0  0  0  0  0  0
  161.5170  199.4600  146.5960 C   0  0  0  0  0  3  0  0  0  0  0  0
  160.1020  210.5130  152.7450 C   0  0  0  0  0  3  0  0  0  0  0  0
  160.8710  210.0130  151.7850 C   0  0  0  0  0  3  0  0  0  0  0  0
  160.0460  212.7680  151.9330 C   0  0  0  0  0  2  0  0  0  0  0  0
  159.9340  211.9550  152.9780 C   0  0  0  0  0  0  0  0  0  0  0  0
  160.3930  212.6990  156.5270 O   0  0  0  0  0  0  0  0  0  0  0  0
  159.6980  212.4920  154.2960 N   0  0  0  0  0  0  0  0  0  0  0  0
  160.4600  212.0540  155.4420 C   0  0  0  0  0  0  0  0  0  0  0  0
  162.5840  210.9840  154.6210 C   0  0  0  0  0  1  0  0  0  0  0  0
  161.2800  210.7930  155.3840 C   0  0  1  0  0  3  0  0  0  0  0  0
  161.4830  210.1710  156.7680 C   0  0  0  0  0  2  0  0  0  0  0  0
  160.4800  209.0620  157.0910 C   0  0  0  0  0  2  0  0  0  0  0  0
  162.2410  207.5710  156.4810 O   0  0  0  0  0  0  0  0  0  0  0  0
  161.0050  207.7200  156.6770 C   0  0  0  0  0  0  0  0  0  0  0  0
  158.9320  206.7540  155.7540 C   0  0  0  0  0  1  0  0  0  0  0  0
  160.1510  206.6350  156.4720 O   0  0  0  0  0  0  0  0  0  0  0  0
  158.7410  213.5800  154.4640 C   0  0  0  0  0  2  0  0  0  0  0  0
  157.6760  213.1870  155.4790 C   0  0  0  0  0  2  0  0  0  0  0  0
  156.4360  212.5710  154.8240 C   0  0  2  0  0  3  0  0  0  0  0  0
  155.4390  213.6060  154.3820 C   0  0  0  0  0  0  0  0  0  0  0  0
  155.0370  213.6940  153.0500 O   0  0  0  0  0  0  0  0  0  0  0  0
  155.0000  214.4420  155.2140 O   0  0  0  0  0  1  0  0  0  0  0  0
  155.5510  211.6180  156.8140 O   0  0  0  0  0  0  0  0  0  0  0  0
  155.8310  211.4580  155.6360 C   0  0  0  0  0  0  0  0  0  0  0  0
  155.5470  210.1480  154.9850 C   0  0  0  0  0  1  0  0  0  0  0  0
  2  8  1  6  0  0  0
  2  5  1  0  0  0  0
  2  3  1  0  0  0  0
  3 26  1  1  0  0  0
  3  1  1  0  0  0  0
  4  1  1  0  0  0  0
  5  4  1  0  0  0  0
  6  8  1  0  0  0  0
  7  8  2  0  0  0  0
  9 10  1  0  0  0  0
  9 16  1  0  0  0  0
 10 15  1  0  0  0  0
 10 17  1  1  0  0  0
 11 13  1  0  0  0  0
 13 12  1  6  0  0  0
 14  6  1  1  0  0  0
 15 11  1  6  0  0  0
 15 13  1  0  0  0  0
 15 14  1  0  0  0  0
 16 14  1  0  0  0  0
 17 18  2  0  0  0  0
 20 24  2  0  0  0  0
 21 17  1  0  0  0  0
 21 19  2  0  0  0  0
 22 23  2  0  0  0  0
 22 20  1  0  0  0  0
 23 21  1  0  0  0  0
 24 19  1  0  0  0  0
 25 28  1  0  0  0  0
 26 25  2  0  0  0  0
 27 28  2  0  0  0  0
 28 30  1  0  0  0  0
 30 40  1  0  0  0  0
 30 31  1  0  0  0  0
 31 29  2  0  0  0  0
 33 32  1  1  0  0  0
 33 31  1  0  0  0  0
 33 34  1  0  0  0  0
 34 35  1  0  0  0  0
 36 37  2  0  0  0  0
 37 35  1  0  0  0  0
 38 39  1  0  0  0  0
 39 37  1  0  0  0  0
 40 41  1  0  0  0  0
 42 41  1  1  0  0  0
 42 47  1  0  0  0  0
 43 42  1  0  0  0  0
 43 45  1  0  0  0  0
 44 43  2  0  0  0  0
 47 46  2  0  0  0  0
 48 47  1  0  0  0  0
M  END
>  <MODEL>
7

>  <REMARK>
 VINA RESULT:      -4.6      2.384     10.949
  Name = 
  17 active torsions:
  status: ('A' for Active; 'I' for Inactive)
    1  A    between atoms: C_1  and  C_45
    2  A    between atoms: C_5  and  C_8
    3  A    between atoms: C_6  and  C_41
    4  A    between atoms: C_6  and  C_42
    5  A    between atoms: C_8  and  C_17
    6  A    between atoms: C_9  and  C_11
    7  A    between atoms: C_9  and  C_12
    8  A    between atoms: C_9  and  C_31
    9  A    between atoms: C_12  and  C_20
   10  A    between atoms: N_16  and  C_20
   11  A    between atoms: N_16  and  C_45
   12  A    between atoms: N_21  and  C_38
   13  A    between atoms: C_22  and  C_48
   14  A    between atoms: O_23  and  C_42
   15  A    between atoms: C_24  and  C_43
   16  A    between atoms: C_28  and  C_29
   17  A    between atoms: C_41  and  C_43
                            x       y       z     vdW  Elec       q    Type
                         _______ _______ _______ _____ _____    ______ ____

>  <TORSDO>
F 17

$$$$
=
 OpenBabel11072409533D

 48 51  0  0  1  0  0  0  0  0999 V2000
  160.8570  206.5490  152.5520 N   0  0  0  0  0  2  0  0  0  0  0  0
  161.9870  206.9020  150.5690 C   0  0  1  0  0  3  0  0  0  0  0  0
  160.8890  207.4420  151.4180 C   0  0  2  0  0  3  0  0  0  0  0  0
  161.3440  205.3020  152.1030 N   0  0  0  0  0  2  0  0  0  0  0  0
  162.0560  205.4920  150.8960 N   0  0  0  0  0  2  0  0  0  0  0  0
  161.3830  205.9930  148.2780 N   0  0  0  0  0  2  0  0  0  0  0  0
  161.7850  208.2650  148.6350 O   0  0  0  0  0  0  0  0  0  0  0  0
  161.7200  207.1020  149.1140 C   0  0  0  0  0  0  0  0  0  0  0  0
  159.7160  204.9810  145.2530 C   0  0  0  0  0  2  0  0  0  0  0  0
  161.0460  204.2430  145.2250 C   0  0  1  0  0  3  0  0  0  0  0  0
  162.9850  205.8030  145.1980 C   0  0  0  0  0  2  0  0  0  0  0  0
  163.8240  203.6460  145.7450 O   0  0  0  0  0  1  0  0  0  0  0  0
  163.4370  204.8650  146.3030 C   0  0  2  0  0  3  0  0  0  0  0  0
  161.1700  206.1530  146.8450 C   0  0  1  0  0  3  0  0  0  0  0  0
  161.9500  205.1160  146.0700 C   0  0  2  0  0  0  0  0  0  0  0  0
  159.7190  205.8540  146.5090 C   0  0  0  0  0  2  0  0  0  0  0  0
  160.8850  202.8730  145.8260 C   0  0  0  0  0  0  0  0  0  0  0  0
  160.8480  201.8590  145.0720 O   0  0  0  0  0  0  0  0  0  0  0  0
  161.6900  203.3340  148.1470 C   0  0  0  0  0  3  0  0  0  0  0  0
  160.5640  202.3700  150.0660 C   0  0  0  0  0  3  0  0  0  0  0  0
  160.7800  202.7030  147.2850 C   0  0  0  0  0  0  0  0  0  0  0  0
  159.6550  201.7380  149.2150 C   0  0  0  0  0  3  0  0  0  0  0  0
  159.7610  201.9050  147.8310 C   0  0  0  0  0  3  0  0  0  0  0  0
  161.5800  203.1690  149.5320 C   0  0  0  0  0  3  0  0  0  0  0  0
  160.3750  209.4660  152.6720 C   0  0  0  0  0  3  0  0  0  0  0  0
  161.2070  208.8270  151.8580 C   0  0  0  0  0  3  0  0  0  0  0  0
  161.5800  211.0750  153.9790 C   0  0  0  0  0  2  0  0  0  0  0  0
  160.5890  210.8490  153.1240 C   0  0  0  0  0  0  0  0  0  0  0  0
  158.5690  213.8930  153.2390 O   0  0  0  0  0  0  0  0  0  0  0  0
  159.7340  211.9300  152.6980 N   0  0  0  0  0  0  0  0  0  0  0  0
  159.1170  212.8290  153.6450 C   0  0  0  0  0  0  0  0  0  0  0  0
  158.7990  213.6980  155.9850 C   0  0  0  0  0  1  0  0  0  0  0  0
  159.0530  212.4790  155.1070 C   0  0  1  0  0  3  0  0  0  0  0  0
  158.0810  211.3300  155.3860 C   0  0  0  0  0  2  0  0  0  0  0  0
  156.6830  211.5600  154.8080 C   0  0  0  0  0  2  0  0  0  0  0  0
  155.0230  209.9300  155.3400 O   0  0  0  0  0  0  0  0  0  0  0  0
  155.6260  210.9760  155.6980 C   0  0  0  0  0  0  0  0  0  0  0  0
  155.2740  212.9950  157.0710 C   0  0  0  0  0  1  0  0  0  0  0  0
  155.2710  211.5850  156.9020 O   0  0  0  0  0  0  0  0  0  0  0  0
  159.5710  212.1930  151.2720 C   0  0  0  0  0  2  0  0  0  0  0  0
  160.5020  213.3190  150.8390 C   0  0  0  0  0  2  0  0  0  0  0  0
  160.2140  213.8080  149.4170 C   0  0  2  0  0  3  0  0  0  0  0  0
  158.7610  213.6870  149.0450 C   0  0  0  0  0  0  0  0  0  0  0  0
  157.7780  214.3630  149.7640 O   0  0  0  0  0  1  0  0  0  0  0  0
  158.4210  212.9220  148.1060 O   0  0  0  0  0  0  0  0  0  0  0  0
  161.4350  213.8430  147.3770 O   0  0  0  0  0  0  0  0  0  0  0  0
  161.1490  213.2250  148.3910 C   0  0  0  0  0  0  0  0  0  0  0  0
  161.7540  211.8850  148.6300 C   0  0  0  0  0  1  0  0  0  0  0  0
  2  8  1  6  0  0  0
  2  5  1  0  0  0  0
  2  3  1  0  0  0  0
  3 26  1  1  0  0  0
  3  1  1  0  0  0  0
  4  1  1  0  0  0  0
  5  4  1  0  0  0  0
  6  8  1  0  0  0  0
  7  8  2  0  0  0  0
  9 16  1  0  0  0  0
 10  9  1  0  0  0  0
 10 17  1  1  0  0  0
 10 15  1  0  0  0  0
 11 13  1  0  0  0  0
 13 12  1  6  0  0  0
 14  6  1  1  0  0  0
 15 11  1  6  0  0  0
 15 13  1  0  0  0  0
 15 14  1  0  0  0  0
 16 14  1  0  0  0  0
 17 21  1  0  0  0  0
 18 17  2  0  0  0  0
 19 24  1  0  0  0  0
 21 23  1  0  0  0  0
 21 19  2  0  0  0  0
 22 20  1  0  0  0  0
 23 22  2  0  0  0  0
 24 20  2  0  0  0  0
 25 28  1  0  0  0  0
 26 25  2  0  0  0  0
 28 27  2  0  0  0  0
 29 31  2  0  0  0  0
 30 28  1  0  0  0  0
 30 31  1  0  0  0  0
 31 33  1  0  0  0  0
 33 34  1  0  0  0  0
 33 32  1  1  0  0  0
 35 34  1  0  0  0  0
 35 37  1  0  0  0  0
 36 37  2  0  0  0  0
 37 39  1  0  0  0  0
 39 38  1  0  0  0  0
 40 30  1  0  0  0  0
 41 40  1  0  0  0  0
 42 41  1  1  0  0  0
 43 42  1  0  0  0  0
 43 44  1  0  0  0  0
 45 43  2  0  0  0  0
 46 47  2  0  0  0  0
 47 48  1  0  0  0  0
 47 42  1  0  0  0  0
M  END
>  <MODEL>
8

>  <REMARK>
 VINA RESULT:      -4.6      2.158     10.289
  Name = 
  17 active torsions:
  status: ('A' for Active; 'I' for Inactive)
    1  A    between atoms: C_1  and  C_45
    2  A    between atoms: C_5  and  C_8
    3  A    between atoms: C_6  and  C_41
    4  A    between atoms: C_6  and  C_42
    5  A    between atoms: C_8  and  C_17
    6  A    between atoms: C_9  and  C_11
    7  A    between atoms: C_9  and  C_12
    8  A    between atoms: C_9  and  C_31
    9  A    between atoms: C_12  and  C_20
   10  A    between atoms: N_16  and  C_20
   11  A    between atoms: N_16  and  C_45
   12  A    between atoms: N_21  and  C_38
   13  A    between atoms: C_22  and  C_48
   14  A    between atoms: O_23  and  C_42
   15  A    between atoms: C_24  and  C_43
   16  A    between atoms: C_28  and  C_29
   17  A    between atoms: C_41  and  C_43
                            x       y       z     vdW  Elec       q    Type
                         _______ _______ _______ _____ _____    ______ ____

>  <TORSDO>
F 17

$$$$
=
 OpenBabel11072409533D

 48 51  0  0  1  0  0  0  0  0999 V2000
  161.1840  208.0950  149.5140 N   0  0  0  0  0  2  0  0  0  0  0  0
  162.2890  210.0470  148.9680 C   0  0  1  0  0  3  0  0  0  0  0  0
  161.2510  209.4910  149.8770 C   0  0  2  0  0  3  0  0  0  0  0  0
  161.5750  208.0070  148.1600 N   0  0  0  0  0  2  0  0  0  0  0  0
  162.2700  209.1860  147.8030 N   0  0  0  0  0  2  0  0  0  0  0  0
  160.9700  211.7710  147.6530 N   0  0  0  0  0  2  0  0  0  0  0  0
  162.6790  212.3850  149.1220 O   0  0  0  0  0  0  0  0  0  0  0  0
  162.0040  211.4630  148.5910 C   0  0  0  0  0  0  0  0  0  0  0  0
  159.0030  214.1110  145.7530 C   0  0  0  0  0  2  0  0  0  0  0  0
  160.1980  213.8000  144.8630 C   0  0  1  0  0  3  0  0  0  0  0  0
  162.3520  214.4530  145.9230 C   0  0  0  0  0  2  0  0  0  0  0  0
  162.8710  213.0290  144.0910 O   0  0  0  0  0  1  0  0  0  0  0  0
  162.7120  213.0470  145.4770 C   0  0  2  0  0  3  0  0  0  0  0  0
  160.7070  213.1400  147.2280 C   0  0  1  0  0  3  0  0  0  0  0  0
  161.2720  213.3900  145.8480 C   0  0  2  0  0  0  0  0  0  0  0  0
  159.2110  213.3430  147.0600 C   0  0  0  0  0  2  0  0  0  0  0  0
  159.8570  212.6790  143.9200 C   0  0  0  0  0  0  0  0  0  0  0  0
  159.6970  211.5090  144.3690 O   0  0  0  0  0  0  0  0  0  0  0  0
  160.3050  212.0950  141.5310 C   0  0  0  0  0  3  0  0  0  0  0  0
  159.3900  213.4390  139.7320 C   0  0  0  0  0  3  0  0  0  0  0  0
  159.7000  212.9350  142.4780 C   0  0  0  0  0  0  0  0  0  0  0  0
  158.7860  214.2800  140.6680 C   0  0  0  0  0  3  0  0  0  0  0  0
  158.9380  214.0290  142.0350 C   0  0  0  0  0  3  0  0  0  0  0  0
  160.1480  212.3460  140.1630 C   0  0  0  0  0  3  0  0  0  0  0  0
  160.9950  209.0110  152.2520 C   0  0  0  0  0  3  0  0  0  0  0  0
  161.6730  209.6360  151.2970 C   0  0  0  0  0  3  0  0  0  0  0  0
  161.9340  210.2350  154.0870 C   0  0  0  0  0  2  0  0  0  0  0  0
  161.3150  209.1320  153.6820 C   0  0  0  0  0  0  0  0  0  0  0  0
  159.6850  207.2890  156.3850 O   0  0  0  0  0  0  0  0  0  0  0  0
  161.0150  208.0790  154.6220 N   0  0  0  0  0  0  0  0  0  0  0  0
  160.1030  208.2810  155.7220 C   0  0  0  0  0  0  0  0  0  0  0  0
  160.7920  210.3860  156.9170 C   0  0  0  0  0  1  0  0  0  0  0  0
  159.6960  209.6690  156.1400 C   0  0  1  0  0  3  0  0  0  0  0  0
  159.1600  210.4930  154.9660 C   0  0  0  0  0  2  0  0  0  0  0  0
  157.9730  211.3840  155.3380 C   0  0  0  0  0  2  0  0  0  0  0  0
  158.2840  212.2860  153.1500 O   0  0  0  0  0  0  0  0  0  0  0  0
  157.5660  212.2520  154.1850 C   0  0  0  0  0  0  0  0  0  0  0  0
  155.8130  213.4170  155.4710 C   0  0  0  0  0  1  0  0  0  0  0  0
  156.4220  213.0490  154.2420 O   0  0  0  0  0  0  0  0  0  0  0  0
  161.5620  206.7450  154.4000 C   0  0  0  0  0  2  0  0  0  0  0  0
  160.7430  206.0150  153.3430 C   0  0  0  0  0  2  0  0  0  0  0  0
  161.5690  204.9870  152.5640 C   0  0  2  0  0  3  0  0  0  0  0  0
  162.1500  205.5490  151.2950 C   0  0  0  0  0  0  0  0  0  0  0  0
  163.1650  206.5030  151.3320 O   0  0  0  0  0  1  0  0  0  0  0  0
  161.6760  205.1950  150.1850 O   0  0  0  0  0  0  0  0  0  0  0  0
  159.7220  203.5090  152.8050 O   0  0  0  0  0  0  0  0  0  0  0  0
  160.8510  203.6780  152.3710 C   0  0  0  0  0  0  0  0  0  0  0  0
  161.5210  202.5810  151.6170 C   0  0  0  0  0  1  0  0  0  0  0  0
  1  3  1  0  0  0  0
  2  8  1  6  0  0  0
  2  3  1  0  0  0  0
  3 26  1  1  0  0  0
  4  1  1  0  0  0  0
  5  4  1  0  0  0  0
  5  2  1  0  0  0  0
  6  8  1  0  0  0  0
  8  7  2  0  0  0  0
  9 16  1  0  0  0  0
 10 17  1  6  0  0  0
 10  9  1  0  0  0  0
 10 15  1  0  0  0  0
 13 12  1  6  0  0  0
 13 15  1  0  0  0  0
 13 11  1  0  0  0  0
 14  6  1  6  0  0  0
 15 11  1  1  0  0  0
 15 14  1  0  0  0  0
 16 14  1  0  0  0  0
 17 18  2  0  0  0  0
 19 21  1  0  0  0  0
 20 24  1  0  0  0  0
 20 22  2  0  0  0  0
 21 17  1  0  0  0  0
 22 23  1  0  0  0  0
 23 21  2  0  0  0  0
 24 19  2  0  0  0  0
 25 28  1  0  0  0  0
 26 25  2  0  0  0  0
 28 27  2  0  0  0  0
 28 30  1  0  0  0  0
 30 31  1  0  0  0  0
 31 33  1  0  0  0  0
 31 29  2  0  0  0  0
 33 32  1  6  0  0  0
 34 35  1  0  0  0  0
 34 33  1  0  0  0  0
 36 37  2  0  0  0  0
 37 39  1  0  0  0  0
 37 35  1  0  0  0  0
 39 38  1  0  0  0  0
 40 30  1  0  0  0  0
 41 40  1  0  0  0  0
 42 41  1  6  0  0  0
 43 44  1  0  0  0  0
 43 42  1  0  0  0  0
 45 43  2  0  0  0  0
 47 42  1  0  0  0  0
 47 46  2  0  0  0  0
 48 47  1  0  0  0  0
M  END
>  <MODEL>
9

>  <REMARK>
 VINA RESULT:      -4.5      4.593      9.153
  Name = 
  17 active torsions:
  status: ('A' for Active; 'I' for Inactive)
    1  A    between atoms: C_1  and  C_45
    2  A    between atoms: C_5  and  C_8
    3  A    between atoms: C_6  and  C_41
    4  A    between atoms: C_6  and  C_42
    5  A    between atoms: C_8  and  C_17
    6  A    between atoms: C_9  and  C_11
    7  A    between atoms: C_9  and  C_12
    8  A    between atoms: C_9  and  C_31
    9  A    between atoms: C_12  and  C_20
   10  A    between atoms: N_16  and  C_20
   11  A    between atoms: N_16  and  C_45
   12  A    between atoms: N_21  and  C_38
   13  A    between atoms: C_22  and  C_48
   14  A    between atoms: O_23  and  C_42
   15  A    between atoms: C_24  and  C_43
   16  A    between atoms: C_28  and  C_29
   17  A    between atoms: C_41  and  C_43
                            x       y       z     vdW  Elec       q    Type
                         _______ _______ _______ _____ _____    ______ ____

>  <TORSDO>
F 17

$$$$
