=
 OpenBabel11072411563D

 60 63  0  0  1  0  0  0  0  0999 V2000
  161.6160  207.6540  148.8960 C   0  0  1  0  0  3  0  0  0  0  0  0
  162.1330  207.2390  147.5180 C   0  0  0  0  0  2  0  0  0  0  0  0
  161.3280  206.2270  146.9880 O   0  0  0  0  0  0  0  0  0  0  0  0
  162.0860  205.6570  145.9550 C   0  0  1  0  0  3  0  0  0  0  0  0
  163.3060  204.0610  147.4750 O   0  0  0  0  0  1  0  0  0  0  0  0
  162.1960  203.2840  145.6140 O   0  0  0  0  0  0  0  0  0  0  0  0
  162.5270  204.2670  146.3300 C   0  0  0  0  0  0  0  0  0  0  0  0
  159.8690  206.1690  144.8000 C   0  0  0  0  0  1  0  0  0  0  0  0
  161.3170  205.7450  144.6260 C   0  0  1  0  0  3  0  0  0  0  0  0
  162.0200  206.5080  143.5030 C   0  0  0  0  0  2  0  0  0  0  0  0
  161.4390  206.2040  142.1310 C   0  0  0  0  0  2  0  0  0  0  0  0
  162.3430  206.7180  141.0330 C   0  0  0  0  0  2  0  0  0  0  0  0
  161.5140  207.0820  139.8070 C   0  0  2  0  0  3  0  0  0  0  0  0
  163.0330  205.6590  138.6500 O   0  0  0  0  0  1  0  0  0  0  0  0
  162.1790  206.5820  138.5690 C   0  0  0  0  0  0  0  0  0  0  0  0
  161.8890  207.1440  137.3320 O   0  0  0  0  0  0  0  0  0  0  0  0
  160.4930  209.1000  138.8220 C   0  0  0  0  0  3  0  0  0  0  0  0
  161.3170  208.5630  139.7240 C   0  0  0  0  0  3  0  0  0  0  0  0
  159.7160  211.2620  139.9780 C   0  0  1  0  0  3  0  0  0  0  0  0
  158.8810  211.0630  138.7130 C   0  0  0  0  0  2  0  0  0  0  0  0
  160.3120  210.5800  138.7530 C   0  0  2  0  0  0  0  0  0  0  0  0
  161.2150  211.3450  137.9240 N   0  0  0  0  0  0  0  0  0  0  0  0
  160.7960  211.9850  137.0120 O   0  0  0  0  0  0  0  0  0  0  0  0
  160.1120  212.7270  140.1000 C   0  0  0  0  0  2  0  0  0  0  0  0
  160.5020  212.4430  142.5730 C   0  0  0  0  0  2  0  0  0  0  0  0
  160.9500  212.9300  141.2670 N   0  0  0  0  0  0  0  0  0  0  0  0
  161.5790  212.5480  143.6110 C   0  0  0  0  0  3  0  0  0  0  0  0
  162.0990  213.7720  141.1480 C   0  0  0  0  0  3  0  0  0  0  0  0
  162.8980  213.9350  142.1540 N   0  0  0  0  0  0  0  0  0  0  0  0
  162.6750  213.2730  143.4030 C   0  0  0  0  0  3  0  0  0  0  0  0
  161.8030  206.5390  149.9460 C   0  0  2  0  0  3  0  0  0  0  0  0
  160.6660  205.5220  149.8800 C   0  0  0  0  0  2  0  0  0  0  0  0
  161.1730  204.2310  149.7850 O   0  0  0  0  0  0  0  0  0  0  0  0
  160.2430  203.4480  150.4730 C   0  0  0  0  0  2  0  0  0  0  0  0
  160.7660  203.0620  151.7030 O   0  0  0  0  0  1  0  0  0  0  0  0
  161.9580  207.0990  151.3850 C   0  0  1  0  0  3  0  0  0  0  0  0
  160.5090  207.1520  153.5160 C   0  0  0  0  0  2  0  0  0  0  0  0
  160.0420  208.8910  155.1810 N   0  0  0  0  0  2  0  0  0  0  0  0
  160.3170  209.0320  151.8690 C   0  0  0  0  0  2  0  0  0  0  0  0
  159.5130  210.3310  157.0540 C   0  0  0  0  0  1  0  0  0  0  0  0
  162.0330  209.1850  153.7630 C   0  0  1  0  0  3  0  0  0  0  0  0
  161.1130  208.1840  154.4820 C   0  0  2  0  0  3  0  0  0  0  0  0
  161.3150  209.9200  152.6260 C   0  0  0  0  0  2  0  0  0  0  0  0
  162.6220  210.1680  154.7660 C   0  0  0  0  0  2  0  0  0  0  0  0
  160.6310  209.7060  156.2460 C   0  0  2  0  0  3  0  0  0  0  0  0
  161.5430  210.7940  155.6550 C   0  0  1  0  0  3  0  0  0  0  0  0
  160.6080  207.5330  152.0210 C   0  0  1  0  0  3  0  0  0  0  0  0
  163.4240  211.1980  157.2510 O   0  0  0  0  0  1  0  0  0  0  0  0
  161.6280  212.6150  157.1830 O   0  0  0  0  0  0  0  0  0  0  0  0
  162.1980  211.5940  156.7280 C   0  0  0  0  0  0  0  0  0  0  0  0
  162.0350  205.6030  153.2530 O   0  0  0  0  0  1  0  0  0  0  0  0
  163.9790  205.7610  152.0470 O   0  0  0  0  0  0  0  0  0  0  0  0
  162.6550  206.1070  152.2760 C   0  0  0  0  0  0  0  0  0  0  0  0
  162.2190  208.9720  149.3560 C   0  0  0  0  0  2  0  0  0  0  0  0
  162.3210  209.9310  148.1970 C   0  0  0  0  0  2  0  0  0  0  0  0
  162.2560  211.3630  148.6910 C   0  0  1  0  0  3  0  0  0  0  0  0
  163.3960  212.0390  148.2880 F   0  0  0  0  0  0  0  0  0  0  0  0
  161.1310  211.9930  148.1560 O   0  0  0  0  0  0  0  0  0  0  0  0
  161.6120  213.1930  147.6330 C   0  0  0  0  0  2  0  0  0  0  0  0
  160.5790  214.2730  147.7680 C   0  0  0  0  0  1  0  0  0  0  0  0
  1  2  1  6  0  0  0
  1 54  1  0  0  0  0
  1 31  1  0  0  0  0
  3  2  1  0  0  0  0
  4  7  1  1  0  0  0
  4  3  1  0  0  0  0
  6  7  2  0  0  0  0
  7  5  1  0  0  0  0
  9  8  1  1  0  0  0
  9  4  1  0  0  0  0
 10  9  1  0  0  0  0
 11 10  1  0  0  0  0
 12 11  1  0  0  0  0
 13 18  1  6  0  0  0
 13 12  1  0  0  0  0
 15 14  1  0  0  0  0
 15 13  1  0  0  0  0
 16 15  2  0  0  0  0
 17 18  2  0  0  0  0
 19 24  1  6  0  0  0
 20 21  1  0  0  0  0
 20 19  1  0  0  0  0
 21 17  1  1  0  0  0
 21 19  1  0  0  0  0
 22 21  1  0  0  0  0
 23 22  2  0  0  0  0
 24 26  1  0  0  0  0
 25 27  1  0  0  0  0
 26 25  1  0  0  0  0
 28 26  1  0  0  0  0
 28 29  2  0  0  0  0
 29 30  1  0  0  0  0
 30 27  2  0  0  0  0
 31 32  1  1  0  0  0
 31 36  1  0  0  0  0
 33 32  1  0  0  0  0
 33 34  1  0  0  0  0
 34 35  1  0  0  0  0
 36 53  1  1  0  0  0
 38 45  1  0  0  0  0
 39 47  1  0  0  0  0
 39 43  1  0  0  0  0
 41 43  1  6  0  0  0
 41 42  1  0  0  0  0
 41 44  1  0  0  0  0
 42 37  1  6  0  0  0
 42 38  1  0  0  0  0
 44 46  1  0  0  0  0
 45 40  1  6  0  0  0
 46 45  1  0  0  0  0
 46 50  1  1  0  0  0
 47 36  1  1  0  0  0
 47 37  1  0  0  0  0
 50 49  2  0  0  0  0
 50 48  1  0  0  0  0
 52 53  2  0  0  0  0
 53 51  1  0  0  0  0
 55 56  1  0  0  0  0
 55 54  1  0  0  0  0
 56 57  1  6  0  0  0
 58 56  1  0  0  0  0
 59 60  1  0  0  0  0
 59 58  1  0  0  0  0
M  END
>  <MODEL>
1

>  <REMARK>
 VINA RESULT:      -2.4      0.000      0.000
  Name = 
  28 active torsions:
  status: ('A' for Active; 'I' for Inactive)
    1  A    between atoms: N_2  and  C_30
    2  A    between atoms: C_4  and  C_8
    3  A    between atoms: O_7  and  C_20
    4  A    between atoms: O_7  and  C_26
    5  A    between atoms: C_8  and  N_31
    6  A    between atoms: C_14  and  C_46
    7  A    between atoms: C_14  and  C_60
    8  A    between atoms: C_16  and  C_30
    9  A    between atoms: C_17  and  C_21
   10  A    between atoms: C_17  and  C_50
   11  A    between atoms: C_20  and  C_46
   12  A    between atoms: C_21  and  C_41
   13  A    between atoms: C_24  and  O_57
   14  A    between atoms: C_27  and  C_34
   15  A    between atoms: C_27  and  C_56
   16  A    between atoms: C_27  and  C_58
   17  A    between atoms: C_29  and  C_49
   18  A    between atoms: C_29  and  C_50
   19  A    between atoms: C_33  and  C_41
   20  A    between atoms: C_34  and  C_54
   21  A    between atoms: C_34  and  C_60
   22  A    between atoms: C_39  and  O_53
   23  A    between atoms: C_39  and  C_60
   24  A    between atoms: C_41  and  O_53
   25  A    between atoms: C_43  and  C_55
   26  A    between atoms: C_45  and  C_49
   27  A    between atoms: C_49  and  C_59
   28  A    between atoms: C_54  and  O_57
                            x       y       z     vdW  Elec       q    Type
                         _______ _______ _______ _____ _____    ______ ____

>  <TORSDO>
F 28

$$$$
=
 OpenBabel11072411563D

 60 63  0  0  1  0  0  0  0  0999 V2000
  161.5860  207.6500  148.9340 C   0  0  1  0  0  3  0  0  0  0  0  0
  162.1160  207.3000  147.5420 C   0  0  0  0  0  2  0  0  0  0  0  0
  161.3490  206.2760  146.9810 O   0  0  0  0  0  0  0  0  0  0  0  0
  162.1450  205.7380  145.9600 C   0  0  1  0  0  3  0  0  0  0  0  0
  163.9710  204.2160  146.7940 O   0  0  0  0  0  1  0  0  0  0  0  0
  161.8930  203.3720  146.2760 O   0  0  0  0  0  0  0  0  0  0  0  0
  162.6530  204.3750  146.3490 C   0  0  0  0  0  0  0  0  0  0  0  0
  159.9390  206.2130  144.7690 C   0  0  0  0  0  1  0  0  0  0  0  0
  161.3860  205.7780  144.6220 C   0  0  1  0  0  3  0  0  0  0  0  0
  162.1010  206.4940  143.4760 C   0  0  0  0  0  2  0  0  0  0  0  0
  161.4600  206.2250  142.1240 C   0  0  0  0  0  2  0  0  0  0  0  0
  162.3600  206.6810  140.9960 C   0  0  0  0  0  2  0  0  0  0  0  0
  161.5270  207.3310  139.8980 C   0  0  2  0  0  3  0  0  0  0  0  0
  162.4960  205.7170  138.4410 O   0  0  0  0  0  1  0  0  0  0  0  0
  161.9860  206.8630  138.5590 C   0  0  0  0  0  0  0  0  0  0  0  0
  161.8830  207.6880  137.4460 O   0  0  0  0  0  0  0  0  0  0  0  0
  161.6060  209.5770  138.8800 C   0  0  0  0  0  3  0  0  0  0  0  0
  161.6160  208.8220  139.9810 C   0  0  0  0  0  3  0  0  0  0  0  0
  160.8110  211.8770  138.0520 C   0  0  1  0  0  3  0  0  0  0  0  0
  162.3130  211.7630  137.7930 C   0  0  0  0  0  2  0  0  0  0  0  0
  161.6990  211.0630  138.9830 C   0  0  2  0  0  0  0  0  0  0  0  0
  162.0560  211.6420  140.2570 N   0  0  0  0  0  0  0  0  0  0  0  0
  162.6600  211.0010  141.0590 O   0  0  0  0  0  0  0  0  0  0  0  0
  160.4910  213.2660  138.5900 C   0  0  0  0  0  2  0  0  0  0  0  0
  158.6780  214.2280  140.0500 C   0  0  0  0  0  2  0  0  0  0  0  0
  159.0880  213.3610  138.9450 N   0  0  0  0  0  0  0  0  0  0  0  0
  157.1870  214.3660  140.1340 C   0  0  0  0  0  3  0  0  0  0  0  0
  158.1630  212.4560  138.3350 C   0  0  0  0  0  3  0  0  0  0  0  0
  156.8960  212.5450  138.5890 N   0  0  0  0  0  0  0  0  0  0  0  0
  156.3760  213.5510  139.4650 C   0  0  0  0  0  3  0  0  0  0  0  0
  161.8440  206.5210  149.9540 C   0  0  2  0  0  3  0  0  0  0  0  0
  160.7690  205.4400  149.8640 C   0  0  0  0  0  2  0  0  0  0  0  0
  161.3420  204.2120  149.5530 O   0  0  0  0  0  0  0  0  0  0  0  0
  160.5490  203.2840  150.2330 C   0  0  0  0  0  2  0  0  0  0  0  0
  160.1390  202.2810  149.3600 O   0  0  0  0  0  1  0  0  0  0  0  0
  161.9690  207.0530  151.4070 C   0  0  1  0  0  3  0  0  0  0  0  0
  160.5150  207.0390  153.5340 C   0  0  0  0  0  2  0  0  0  0  0  0
  159.9740  208.7520  155.2050 N   0  0  0  0  0  2  0  0  0  0  0  0
  160.2500  208.9160  151.8940 C   0  0  0  0  0  2  0  0  0  0  0  0
  159.3820  210.1630  157.0810 C   0  0  0  0  0  1  0  0  0  0  0  0
  161.9540  209.1310  153.7920 C   0  0  1  0  0  3  0  0  0  0  0  0
  161.0740  208.0920  154.5060 C   0  0  2  0  0  3  0  0  0  0  0  0
  161.2090  209.8410  152.6560 C   0  0  0  0  0  2  0  0  0  0  0  0
  162.5000  210.1340  154.8000 C   0  0  0  0  0  2  0  0  0  0  0  0
  160.5270  209.5860  156.2730 C   0  0  2  0  0  3  0  0  0  0  0  0
  161.3950  210.7120  155.6880 C   0  0  1  0  0  3  0  0  0  0  0  0
  160.6010  207.4300  152.0410 C   0  0  1  0  0  3  0  0  0  0  0  0
  163.2800  211.2230  157.2490 O   0  0  0  0  0  0  0  0  0  0  0  0
  161.3800  212.4980  157.2610 O   0  0  0  0  0  1  0  0  0  0  0  0
  162.0150  211.5350  156.7660 C   0  0  0  0  0  0  0  0  0  0  0  0
  163.5790  205.3200  151.7810 O   0  0  0  0  0  0  0  0  0  0  0  0
  162.3710  205.9460  153.6260 O   0  0  0  0  0  1  0  0  0  0  0  0
  162.6910  206.0630  152.2810 C   0  0  0  0  0  0  0  0  0  0  0  0
  162.1150  208.9890  149.4240 C   0  0  0  0  0  2  0  0  0  0  0  0
  162.1210  209.9910  148.2970 C   0  0  0  0  0  2  0  0  0  0  0  0
  161.9920  211.3990  148.8430 C   0  0  1  0  0  3  0  0  0  0  0  0
  163.0880  212.1480  148.4460 F   0  0  0  0  0  0  0  0  0  0  0  0
  160.8260  211.9880  148.3520 O   0  0  0  0  0  0  0  0  0  0  0  0
  161.2700  212.9760  147.4750 C   0  0  0  0  0  2  0  0  0  0  0  0
  160.9310  214.3380  148.0070 C   0  0  0  0  0  1  0  0  0  0  0  0
  1  2  1  6  0  0  0
  1 54  1  0  0  0  0
  1 31  1  0  0  0  0
  3  2  1  0  0  0  0
  4  7  1  1  0  0  0
  4  3  1  0  0  0  0
  6  7  2  0  0  0  0
  7  5  1  0  0  0  0
  9  8  1  1  0  0  0
  9  4  1  0  0  0  0
 10  9  1  0  0  0  0
 11 10  1  0  0  0  0
 12 11  1  0  0  0  0
 13 18  1  6  0  0  0
 13 12  1  0  0  0  0
 14 15  1  0  0  0  0
 15 13  1  0  0  0  0
 16 15  2  0  0  0  0
 17 18  2  0  0  0  0
 19 24  1  1  0  0  0
 19 21  1  0  0  0  0
 20 19  1  0  0  0  0
 20 21  1  0  0  0  0
 21 17  1  6  0  0  0
 21 22  1  0  0  0  0
 22 23  2  0  0  0  0
 24 26  1  0  0  0  0
 25 27  1  0  0  0  0
 26 25  1  0  0  0  0
 28 29  2  0  0  0  0
 28 26  1  0  0  0  0
 29 30  1  0  0  0  0
 30 27  2  0  0  0  0
 31 32  1  1  0  0  0
 31 36  1  0  0  0  0
 33 32  1  0  0  0  0
 33 34  1  0  0  0  0
 35 34  1  0  0  0  0
 36 53  1  1  0  0  0
 38 45  1  0  0  0  0
 39 47  1  0  0  0  0
 39 43  1  0  0  0  0
 41 43  1  6  0  0  0
 41 42  1  0  0  0  0
 41 44  1  0  0  0  0
 42 37  1  6  0  0  0
 42 38  1  0  0  0  0
 44 46  1  0  0  0  0
 45 40  1  6  0  0  0
 46 45  1  0  0  0  0
 46 50  1  1  0  0  0
 47 36  1  1  0  0  0
 47 37  1  0  0  0  0
 50 48  2  0  0  0  0
 50 49  1  0  0  0  0
 51 53  2  0  0  0  0
 53 52  1  0  0  0  0
 55 56  1  0  0  0  0
 55 54  1  0  0  0  0
 56 57  1  6  0  0  0
 58 56  1  0  0  0  0
 59 60  1  0  0  0  0
 59 58  1  0  0  0  0
M  END
>  <MODEL>
2

>  <REMARK>
 VINA RESULT:      -1.9      1.418      2.081
  Name = 
  28 active torsions:
  status: ('A' for Active; 'I' for Inactive)
    1  A    between atoms: N_2  and  C_30
    2  A    between atoms: C_4  and  C_8
    3  A    between atoms: O_7  and  C_20
    4  A    between atoms: O_7  and  C_26
    5  A    between atoms: C_8  and  N_31
    6  A    between atoms: C_14  and  C_46
    7  A    between atoms: C_14  and  C_60
    8  A    between atoms: C_16  and  C_30
    9  A    between atoms: C_17  and  C_21
   10  A    between atoms: C_17  and  C_50
   11  A    between atoms: C_20  and  C_46
   12  A    between atoms: C_21  and  C_41
   13  A    between atoms: C_24  and  O_57
   14  A    between atoms: C_27  and  C_34
   15  A    between atoms: C_27  and  C_56
   16  A    between atoms: C_27  and  C_58
   17  A    between atoms: C_29  and  C_49
   18  A    between atoms: C_29  and  C_50
   19  A    between atoms: C_33  and  C_41
   20  A    between atoms: C_34  and  C_54
   21  A    between atoms: C_34  and  C_60
   22  A    between atoms: C_39  and  O_53
   23  A    between atoms: C_39  and  C_60
   24  A    between atoms: C_41  and  O_53
   25  A    between atoms: C_43  and  C_55
   26  A    between atoms: C_45  and  C_49
   27  A    between atoms: C_49  and  C_59
   28  A    between atoms: C_54  and  O_57
                            x       y       z     vdW  Elec       q    Type
                         _______ _______ _______ _____ _____    ______ ____

>  <TORSDO>
F 28

$$$$
=
 OpenBabel11072411563D

 60 63  0  0  1  0  0  0  0  0999 V2000
  161.8350  204.7640  148.3350 C   0  0  1  0  0  3  0  0  0  0  0  0
  160.7380  205.2910  147.4080 C   0  0  0  0  0  2  0  0  0  0  0  0
  160.7570  204.5950  146.1970 O   0  0  0  0  0  0  0  0  0  0  0  0
  161.6270  205.3200  145.3700 C   0  0  1  0  0  3  0  0  0  0  0  0
  163.6740  203.8860  145.0520 O   0  0  0  0  0  0  0  0  0  0  0  0
  163.7110  205.6700  146.5070 O   0  0  0  0  0  1  0  0  0  0  0  0
  163.0590  204.9770  145.6800 C   0  0  0  0  0  0  0  0  0  0  0  0
  159.8480  204.5270  143.7190 C   0  0  0  0  0  1  0  0  0  0  0  0
  161.2310  205.1310  143.8950 C   0  0  1  0  0  3  0  0  0  0  0  0
  161.4630  206.3400  142.9870 C   0  0  0  0  0  2  0  0  0  0  0  0
  161.8400  205.9450  141.5680 C   0  0  0  0  0  2  0  0  0  0  0  0
  162.3560  207.1370  140.7930 C   0  0  0  0  0  2  0  0  0  0  0  0
  161.3300  207.5590  139.7480 C   0  0  2  0  0  3  0  0  0  0  0  0
  161.1970  207.6480  137.3720 O   0  0  0  0  0  0  0  0  0  0  0  0
  161.8210  207.2230  138.3810 C   0  0  0  0  0  0  0  0  0  0  0  0
  162.9420  206.4200  138.2070 O   0  0  0  0  0  1  0  0  0  0  0  0
  162.0340  209.9100  139.9990 C   0  0  0  0  0  3  0  0  0  0  0  0
  161.0470  209.0250  139.8470 C   0  0  0  0  0  3  0  0  0  0  0  0
  161.0420  211.8440  141.3710 C   0  0  1  0  0  3  0  0  0  0  0  0
  160.2670  211.7360  140.0580 C   0  0  0  0  0  2  0  0  0  0  0  0
  161.7320  211.3680  140.1000 C   0  0  2  0  0  0  0  0  0  0  0  0
  162.5940  212.2980  139.4080 N   0  0  0  0  0  0  0  0  0  0  0  0
  163.6950  212.5080  139.8090 O   0  0  0  0  0  0  0  0  0  0  0  0
  161.3080  213.3110  141.6850 C   0  0  0  0  0  2  0  0  0  0  0  0
  162.6750  213.0010  143.7790 C   0  0  0  0  0  2  0  0  0  0  0  0
  161.4700  213.5010  143.1140 N   0  0  0  0  0  0  0  0  0  0  0  0
  162.7700  213.4720  145.1990 C   0  0  0  0  0  3  0  0  0  0  0  0
  160.3630  213.9980  143.8700 C   0  0  0  0  0  3  0  0  0  0  0  0
  160.4870  214.2280  145.1380 N   0  0  0  0  0  0  0  0  0  0  0  0
  161.7270  214.0160  145.8210 C   0  0  0  0  0  3  0  0  0  0  0  0
  161.5480  205.0890  149.8160 C   0  0  2  0  0  3  0  0  0  0  0  0
  160.2340  204.4600  150.2750 C   0  0  0  0  0  2  0  0  0  0  0  0
  160.3080  204.1090  151.6180 O   0  0  0  0  0  0  0  0  0  0  0  0
  160.5480  202.7330  151.5980 C   0  0  0  0  0  2  0  0  0  0  0  0
  161.9130  202.4890  151.7220 O   0  0  0  0  0  1  0  0  0  0  0  0
  161.5570  206.6150  150.1000 C   0  0  1  0  0  3  0  0  0  0  0  0
  162.7680  208.5630  151.2750 C   0  0  0  0  0  2  0  0  0  0  0  0
  162.4270  209.6940  153.4240 N   0  0  0  0  0  2  0  0  0  0  0  0
  162.2660  206.4810  152.5790 C   0  0  0  0  0  2  0  0  0  0  0  0
  162.2540  211.0980  155.3890 C   0  0  0  0  0  1  0  0  0  0  0  0
  160.5500  208.3810  152.5240 C   0  0  1  0  0  3  0  0  0  0  0  0
  161.7600  209.2700  152.1960 C   0  0  2  0  0  3  0  0  0  0  0  0
  160.9630  207.0490  153.1610 C   0  0  0  0  0  2  0  0  0  0  0  0
  159.5740  209.1350  153.4170 C   0  0  0  0  0  2  0  0  0  0  0  0
  161.5150  210.5510  154.1850 C   0  0  2  0  0  3  0  0  0  0  0  0
  160.2710  209.7630  154.6270 C   0  0  1  0  0  3  0  0  0  0  0  0
  162.5920  207.0290  151.1830 C   0  0  1  0  0  3  0  0  0  0  0  0
  159.1640  210.5360  156.7300 O   0  0  0  0  0  1  0  0  0  0  0  0
  158.5920  211.4460  154.7100 O   0  0  0  0  0  0  0  0  0  0  0  0
  159.3040  210.6360  155.3510 C   0  0  0  0  0  0  0  0  0  0  0  0
  160.8060  207.8770  148.2090 O   0  0  0  0  0  0  0  0  0  0  0  0
  163.0740  207.5720  148.3410 O   0  0  0  0  0  1  0  0  0  0  0  0
  161.7900  207.3960  148.8350 C   0  0  0  0  0  0  0  0  0  0  0  0
  162.0970  203.2820  148.1210 C   0  0  0  0  0  2  0  0  0  0  0  0
  160.8110  202.5020  148.2460 C   0  0  0  0  0  2  0  0  0  0  0  0
  160.5830  201.6600  147.0070 C   0  0  1  0  0  3  0  0  0  0  0  0
  161.1950  202.2650  145.9220 F   0  0  0  0  0  0  0  0  0  0  0  0
  161.1280  200.3890  147.1970 O   0  0  0  0  0  0  0  0  0  0  0  0
  160.9440  199.7390  145.9770 C   0  0  0  0  0  2  0  0  0  0  0  0
  161.8530  198.5480  145.8780 C   0  0  0  0  0  1  0  0  0  0  0  0
  1  2  1  6  0  0  0
  1 31  1  0  0  0  0
  3  2  1  0  0  0  0
  4  7  1  6  0  0  0
  4  3  1  0  0  0  0
  5  7  2  0  0  0  0
  7  6  1  0  0  0  0
  9  8  1  1  0  0  0
  9  4  1  0  0  0  0
 10  9  1  0  0  0  0
 11 10  1  0  0  0  0
 12 11  1  0  0  0  0
 13 18  1  6  0  0  0
 13 12  1  0  0  0  0
 14 15  2  0  0  0  0
 15 13  1  0  0  0  0
 16 15  1  0  0  0  0
 18 17  2  0  0  0  0
 19 24  1  6  0  0  0
 20 21  1  0  0  0  0
 20 19  1  0  0  0  0
 21 17  1  6  0  0  0
 21 19  1  0  0  0  0
 22 23  2  0  0  0  0
 22 21  1  0  0  0  0
 24 26  1  0  0  0  0
 25 27  1  0  0  0  0
 26 25  1  0  0  0  0
 26 28  1  0  0  0  0
 27 30  2  0  0  0  0
 28 29  2  0  0  0  0
 29 30  1  0  0  0  0
 31 36  1  0  0  0  0
 31 32  1  6  0  0  0
 32 33  1  0  0  0  0
 34 33  1  0  0  0  0
 34 35  1  0  0  0  0
 36 53  1  6  0  0  0
 38 45  1  0  0  0  0
 39 43  1  0  0  0  0
 41 43  1  1  0  0  0
 41 44  1  0  0  0  0
 42 37  1  6  0  0  0
 42 41  1  0  0  0  0
 42 38  1  0  0  0  0
 44 46  1  0  0  0  0
 45 46  1  0  0  0  0
 45 40  1  1  0  0  0
 46 50  1  6  0  0  0
 47 36  1  6  0  0  0
 47 37  1  0  0  0  0
 47 39  1  0  0  0  0
 49 50  2  0  0  0  0
 50 48  1  0  0  0  0
 51 53  2  0  0  0  0
 52 53  1  0  0  0  0
 54 55  1  0  0  0  0
 54  1  1  0  0  0  0
 56 57  1  6  0  0  0
 56 58  1  0  0  0  0
 56 55  1  0  0  0  0
 59 58  1  0  0  0  0
 60 59  1  0  0  0  0
M  END
>  <MODEL>
3

>  <REMARK>
 VINA RESULT:      -1.9      2.442      4.523
  Name = 
  28 active torsions:
  status: ('A' for Active; 'I' for Inactive)
    1  A    between atoms: N_2  and  C_30
    2  A    between atoms: C_4  and  C_8
    3  A    between atoms: O_7  and  C_20
    4  A    between atoms: O_7  and  C_26
    5  A    between atoms: C_8  and  N_31
    6  A    between atoms: C_14  and  C_46
    7  A    between atoms: C_14  and  C_60
    8  A    between atoms: C_16  and  C_30
    9  A    between atoms: C_17  and  C_21
   10  A    between atoms: C_17  and  C_50
   11  A    between atoms: C_20  and  C_46
   12  A    between atoms: C_21  and  C_41
   13  A    between atoms: C_24  and  O_57
   14  A    between atoms: C_27  and  C_34
   15  A    between atoms: C_27  and  C_56
   16  A    between atoms: C_27  and  C_58
   17  A    between atoms: C_29  and  C_49
   18  A    between atoms: C_29  and  C_50
   19  A    between atoms: C_33  and  C_41
   20  A    between atoms: C_34  and  C_54
   21  A    between atoms: C_34  and  C_60
   22  A    between atoms: C_39  and  O_53
   23  A    between atoms: C_39  and  C_60
   24  A    between atoms: C_41  and  O_53
   25  A    between atoms: C_43  and  C_55
   26  A    between atoms: C_45  and  C_49
   27  A    between atoms: C_49  and  C_59
   28  A    between atoms: C_54  and  O_57
                            x       y       z     vdW  Elec       q    Type
                         _______ _______ _______ _____ _____    ______ ____

>  <TORSDO>
F 28

$$$$
=
 OpenBabel11072411563D

 60 63  0  0  1  0  0  0  0  0999 V2000
  161.7130  204.5900  148.5900 C   0  0  1  0  0  3  0  0  0  0  0  0
  160.6950  205.2430  147.6540 C   0  0  0  0  0  2  0  0  0  0  0  0
  160.6730  204.5740  146.4270 O   0  0  0  0  0  0  0  0  0  0  0  0
  161.6070  205.2460  145.6260 C   0  0  1  0  0  3  0  0  0  0  0  0
  163.4980  203.5870  145.4980 O   0  0  0  0  0  0  0  0  0  0  0  0
  163.7420  205.5480  146.6790 O   0  0  0  0  0  1  0  0  0  0  0  0
  163.0060  204.8120  145.9680 C   0  0  0  0  0  0  0  0  0  0  0  0
  159.8480  204.5110  143.9290 C   0  0  0  0  0  1  0  0  0  0  0  0
  161.2350  205.0910  144.1410 C   0  0  1  0  0  3  0  0  0  0  0  0
  161.5020  206.3120  143.2600 C   0  0  0  0  0  2  0  0  0  0  0  0
  161.6030  205.9620  141.7840 C   0  0  0  0  0  2  0  0  0  0  0  0
  162.3020  207.0590  141.0120 C   0  0  0  0  0  2  0  0  0  0  0  0
  161.3870  207.5840  139.9120 C   0  0  2  0  0  3  0  0  0  0  0  0
  162.4560  206.0930  138.3950 O   0  0  0  0  0  1  0  0  0  0  0  0
  161.9360  207.2260  138.5730 C   0  0  0  0  0  0  0  0  0  0  0  0
  161.9070  208.1410  137.5270 O   0  0  0  0  0  0  0  0  0  0  0  0
  162.2600  209.8540  140.3260 C   0  0  0  0  0  3  0  0  0  0  0  0
  161.2260  209.0670  140.0240 C   0  0  0  0  0  3  0  0  0  0  0  0
  161.5330  212.0530  139.2110 C   0  0  1  0  0  3  0  0  0  0  0  0
  163.0090  212.1690  139.5910 C   0  0  0  0  0  2  0  0  0  0  0  0
  162.0780  211.3310  140.4360 C   0  0  2  0  0  0  0  0  0  0  0  0
  161.7950  211.8930  141.7360 N   0  0  0  0  0  0  0  0  0  0  0  0
  162.6340  212.5030  142.3220 O   0  0  0  0  0  0  0  0  0  0  0  0
  160.8170  213.3540  139.5510 C   0  0  0  0  0  2  0  0  0  0  0  0
  158.7800  212.2120  138.6050 C   0  0  0  0  0  2  0  0  0  0  0  0
  159.3800  213.1560  139.5500 N   0  0  0  0  0  0  0  0  0  0  0  0
  157.3260  211.9790  138.8900 C   0  0  0  0  0  3  0  0  0  0  0  0
  158.5660  214.0310  140.3350 C   0  0  0  0  0  3  0  0  0  0  0  0
  157.2850  213.8520  140.3980 N   0  0  0  0  0  0  0  0  0  0  0  0
  156.6430  212.7760  139.7080 C   0  0  0  0  0  3  0  0  0  0  0  0
  161.5600  205.0800  150.0450 C   0  0  2  0  0  3  0  0  0  0  0  0
  160.3150  204.4860  150.7000 C   0  0  0  0  0  2  0  0  0  0  0  0
  160.6470  203.8710  151.9030 O   0  0  0  0  0  0  0  0  0  0  0  0
  160.5360  202.5060  151.6300 C   0  0  0  0  0  2  0  0  0  0  0  0
  161.7920  201.9090  151.6810 O   0  0  0  0  0  1  0  0  0  0  0  0
  161.5510  206.6290  150.1510 C   0  0  1  0  0  3  0  0  0  0  0  0
  162.5520  208.7140  151.2880 C   0  0  0  0  0  2  0  0  0  0  0  0
  162.3810  209.6290  153.5570 N   0  0  0  0  0  2  0  0  0  0  0  0
  162.6950  206.5040  152.4620 C   0  0  0  0  0  2  0  0  0  0  0  0
  162.2880  210.8550  155.6430 C   0  0  0  0  0  1  0  0  0  0  0  0
  160.6640  208.0120  152.8550 C   0  0  1  0  0  3  0  0  0  0  0  0
  161.6030  209.1470  152.4180 C   0  0  2  0  0  3  0  0  0  0  0  0
  161.4300  206.7590  153.2940 C   0  0  0  0  0  2  0  0  0  0  0  0
  159.7320  208.4980  153.9570 C   0  0  0  0  0  2  0  0  0  0  0  0
  161.4690  210.2370  154.5280 C   0  0  2  0  0  3  0  0  0  0  0  0
  160.4970  209.1860  155.0910 C   0  0  1  0  0  3  0  0  0  0  0  0
  162.6600  207.1850  151.0870 C   0  0  1  0  0  3  0  0  0  0  0  0
  158.6050  210.7420  155.5860 O   0  0  0  0  0  0  0  0  0  0  0  0
  159.5480  209.4880  157.2520 O   0  0  0  0  0  1  0  0  0  0  0  0
  159.5220  209.8010  156.0370 C   0  0  0  0  0  0  0  0  0  0  0  0
  160.6080  207.6130  148.1810 O   0  0  0  0  0  0  0  0  0  0  0  0
  162.8950  207.4400  148.1900 O   0  0  0  0  0  1  0  0  0  0  0  0
  161.6570  207.2610  148.7890 C   0  0  0  0  0  0  0  0  0  0  0  0
  161.6810  203.0730  148.4970 C   0  0  0  0  0  2  0  0  0  0  0  0
  160.3050  202.6050  148.0940 C   0  0  0  0  0  2  0  0  0  0  0  0
  160.4040  201.3650  147.2270 C   0  0  1  0  0  3  0  0  0  0  0  0
  160.9270  201.7100  145.9910 F   0  0  0  0  0  0  0  0  0  0  0  0
  161.2400  200.4300  147.8390 O   0  0  0  0  0  0  0  0  0  0  0  0
  161.9790  199.8780  146.7940 C   0  0  0  0  0  2  0  0  0  0  0  0
  161.1270  198.9380  145.9910 C   0  0  0  0  0  1  0  0  0  0  0  0
  1  2  1  6  0  0  0
  1 31  1  0  0  0  0
  3  2  1  0  0  0  0
  4  7  1  6  0  0  0
  4  3  1  0  0  0  0
  5  7  2  0  0  0  0
  7  6  1  0  0  0  0
  9  8  1  1  0  0  0
  9  4  1  0  0  0  0
 10  9  1  0  0  0  0
 11 10  1  0  0  0  0
 12 11  1  0  0  0  0
 13 18  1  6  0  0  0
 13 12  1  0  0  0  0
 14 15  1  0  0  0  0
 15 13  1  0  0  0  0
 16 15  2  0  0  0  0
 18 17  2  0  0  0  0
 19 24  1  1  0  0  0
 19 20  1  0  0  0  0
 19 21  1  0  0  0  0
 20 21  1  0  0  0  0
 21 17  1  6  0  0  0
 21 22  1  0  0  0  0
 22 23  2  0  0  0  0
 25 27  1  0  0  0  0
 25 26  1  0  0  0  0
 26 24  1  0  0  0  0
 26 28  1  0  0  0  0
 27 30  2  0  0  0  0
 28 29  2  0  0  0  0
 30 29  1  0  0  0  0
 31 36  1  0  0  0  0
 31 32  1  6  0  0  0
 32 33  1  0  0  0  0
 34 35  1  0  0  0  0
 34 33  1  0  0  0  0
 36 53  1  6  0  0  0
 38 45  1  0  0  0  0
 39 43  1  0  0  0  0
 41 43  1  1  0  0  0
 41 44  1  0  0  0  0
 42 37  1  6  0  0  0
 42 41  1  0  0  0  0
 42 38  1  0  0  0  0
 44 46  1  0  0  0  0
 45 46  1  0  0  0  0
 45 40  1  1  0  0  0
 46 50  1  1  0  0  0
 47 36  1  6  0  0  0
 47 37  1  0  0  0  0
 47 39  1  0  0  0  0
 48 50  2  0  0  0  0
 50 49  1  0  0  0  0
 51 53  2  0  0  0  0
 52 53  1  0  0  0  0
 54  1  1  0  0  0  0
 55 54  1  0  0  0  0
 56 57  1  6  0  0  0
 56 58  1  0  0  0  0
 56 55  1  0  0  0  0
 59 58  1  0  0  0  0
 60 59  1  0  0  0  0
M  END
>  <MODEL>
4

>  <REMARK>
 VINA RESULT:      -1.8      2.682      4.787
  Name = 
  28 active torsions:
  status: ('A' for Active; 'I' for Inactive)
    1  A    between atoms: N_2  and  C_30
    2  A    between atoms: C_4  and  C_8
    3  A    between atoms: O_7  and  C_20
    4  A    between atoms: O_7  and  C_26
    5  A    between atoms: C_8  and  N_31
    6  A    between atoms: C_14  and  C_46
    7  A    between atoms: C_14  and  C_60
    8  A    between atoms: C_16  and  C_30
    9  A    between atoms: C_17  and  C_21
   10  A    between atoms: C_17  and  C_50
   11  A    between atoms: C_20  and  C_46
   12  A    between atoms: C_21  and  C_41
   13  A    between atoms: C_24  and  O_57
   14  A    between atoms: C_27  and  C_34
   15  A    between atoms: C_27  and  C_56
   16  A    between atoms: C_27  and  C_58
   17  A    between atoms: C_29  and  C_49
   18  A    between atoms: C_29  and  C_50
   19  A    between atoms: C_33  and  C_41
   20  A    between atoms: C_34  and  C_54
   21  A    between atoms: C_34  and  C_60
   22  A    between atoms: C_39  and  O_53
   23  A    between atoms: C_39  and  C_60
   24  A    between atoms: C_41  and  O_53
   25  A    between atoms: C_43  and  C_55
   26  A    between atoms: C_45  and  C_49
   27  A    between atoms: C_49  and  C_59
   28  A    between atoms: C_54  and  O_57
                            x       y       z     vdW  Elec       q    Type
                         _______ _______ _______ _____ _____    ______ ____

>  <TORSDO>
F 28

$$$$
=
 OpenBabel11072411563D

 60 63  0  0  1  0  0  0  0  0999 V2000
  161.7490  204.9620  148.4520 C   0  0  1  0  0  3  0  0  0  0  0  0
  160.7630  205.4390  147.3830 C   0  0  0  0  0  2  0  0  0  0  0  0
  160.8500  204.6230  146.2520 O   0  0  0  0  0  0  0  0  0  0  0  0
  161.7540  205.2710  145.3990 C   0  0  1  0  0  3  0  0  0  0  0  0
  163.6980  203.7460  144.9060 O   0  0  0  0  0  0  0  0  0  0  0  0
  163.8540  205.3410  146.5590 O   0  0  0  0  0  1  0  0  0  0  0  0
  163.1580  204.7960  145.6600 C   0  0  0  0  0  0  0  0  0  0  0  0
  159.9150  204.5100  143.8020 C   0  0  0  0  0  1  0  0  0  0  0  0
  161.2940  205.1300  143.9380 C   0  0  1  0  0  3  0  0  0  0  0  0
  161.4660  206.3750  143.0670 C   0  0  0  0  0  2  0  0  0  0  0  0
  161.8110  206.0390  141.6240 C   0  0  0  0  0  2  0  0  0  0  0  0
  162.2580  207.2730  140.8720 C   0  0  0  0  0  2  0  0  0  0  0  0
  161.3560  207.5010  139.6650 C   0  0  2  0  0  3  0  0  0  0  0  0
  162.4560  206.0510  138.1290 O   0  0  0  0  0  1  0  0  0  0  0  0
  162.1060  207.2290  138.4050 C   0  0  0  0  0  0  0  0  0  0  0  0
  162.4480  208.2670  137.5460 O   0  0  0  0  0  0  0  0  0  0  0  0
  159.8200  209.2530  138.8540 C   0  0  0  0  0  3  0  0  0  0  0  0
  160.8260  208.9000  139.6580 C   0  0  0  0  0  3  0  0  0  0  0  0
  157.8620  210.8630  138.4260 C   0  0  1  0  0  3  0  0  0  0  0  0
  159.0160  211.2490  137.5020 C   0  0  0  0  0  2  0  0  0  0  0  0
  159.3070  210.6540  138.8600 C   0  0  2  0  0  0  0  0  0  0  0  0
  159.8720  211.5890  139.8050 N   0  0  0  0  0  0  0  0  0  0  0  0
  160.6730  212.3950  139.4450 O   0  0  0  0  0  0  0  0  0  0  0  0
  157.2360  212.1220  139.0110 C   0  0  0  0  0  2  0  0  0  0  0  0
  155.2290  210.5990  139.0340 C   0  0  0  0  0  2  0  0  0  0  0  0
  155.8550  211.8760  139.3820 N   0  0  0  0  0  0  0  0  0  0  0  0
  153.8840  210.4390  139.6780 C   0  0  0  0  0  3  0  0  0  0  0  0
  155.0800  212.9600  139.9020 C   0  0  0  0  0  3  0  0  0  0  0  0
  153.8600  212.7650  140.2900 N   0  0  0  0  0  0  0  0  0  0  0  0
  153.2520  211.4710  140.2320 C   0  0  0  0  0  3  0  0  0  0  0  0
  161.3490  205.4410  149.8630 C   0  0  2  0  0  3  0  0  0  0  0  0
  159.9230  205.0200  150.2060 C   0  0  0  0  0  2  0  0  0  0  0  0
  159.8560  204.5520  151.5140 O   0  0  0  0  0  0  0  0  0  0  0  0
  160.8850  203.6090  151.5910 C   0  0  0  0  0  2  0  0  0  0  0  0
  160.6590  202.7480  152.6600 O   0  0  0  0  0  1  0  0  0  0  0  0
  161.5290  206.9730  150.0420 C   0  0  1  0  0  3  0  0  0  0  0  0
  162.7040  208.8720  151.3290 C   0  0  0  0  0  2  0  0  0  0  0  0
  162.3590  209.8530  153.5500 N   0  0  0  0  0  2  0  0  0  0  0  0
  162.2700  206.6980  152.4990 C   0  0  0  0  0  2  0  0  0  0  0  0
  162.1740  211.1210  155.6040 C   0  0  0  0  0  1  0  0  0  0  0  0
  160.5060  208.5510  152.5860 C   0  0  1  0  0  3  0  0  0  0  0  0
  161.6890  209.4910  152.3030 C   0  0  2  0  0  3  0  0  0  0  0  0
  160.9610  207.1920  153.1300 C   0  0  0  0  0  2  0  0  0  0  0  0
  159.5210  209.2200  153.5350 C   0  0  0  0  0  2  0  0  0  0  0  0
  161.4350  210.6340  154.3740 C   0  0  2  0  0  3  0  0  0  0  0  0
  160.2170  209.7860  154.7760 C   0  0  1  0  0  3  0  0  0  0  0  0
  162.5660  207.3430  151.1390 C   0  0  1  0  0  3  0  0  0  0  0  0
  158.3240  211.4120  154.9210 O   0  0  0  0  0  0  0  0  0  0  0  0
  159.2530  210.5340  156.8190 O   0  0  0  0  0  1  0  0  0  0  0  0
  159.2370  210.5850  155.5650 C   0  0  0  0  0  0  0  0  0  0  0  0
  160.9910  208.0900  147.9930 O   0  0  0  0  0  0  0  0  0  0  0  0
  163.2250  207.7030  148.3380 O   0  0  0  0  0  1  0  0  0  0  0  0
  161.8980  207.6270  148.7370 C   0  0  0  0  0  0  0  0  0  0  0  0
  161.9580  203.4570  148.4020 C   0  0  0  0  0  2  0  0  0  0  0  0
  160.6330  202.7520  148.2420 C   0  0  0  0  0  2  0  0  0  0  0  0
  160.7760  201.5690  147.3050 C   0  0  1  0  0  3  0  0  0  0  0  0
  161.3920  201.9820  146.1350 F   0  0  0  0  0  0  0  0  0  0  0  0
  161.5520  200.5810  147.9130 O   0  0  0  0  0  0  0  0  0  0  0  0
  161.6930  199.5920  146.9410 C   0  0  0  0  0  2  0  0  0  0  0  0
  160.6580  199.7640  145.8680 C   0  0  0  0  0  1  0  0  0  0  0  0
  1  2  1  6  0  0  0
  1 31  1  0  0  0  0
  3  2  1  0  0  0  0
  4  7  1  6  0  0  0
  4  3  1  0  0  0  0
  5  7  2  0  0  0  0
  7  6  1  0  0  0  0
  9  8  1  1  0  0  0
  9  4  1  0  0  0  0
 10  9  1  0  0  0  0
 11 10  1  0  0  0  0
 12 11  1  0  0  0  0
 13 18  1  6  0  0  0
 13 12  1  0  0  0  0
 14 15  1  0  0  0  0
 15 13  1  0  0  0  0
 16 15  2  0  0  0  0
 17 18  2  0  0  0  0
 19 21  1  0  0  0  0
 19 24  1  1  0  0  0
 20 19  1  0  0  0  0
 20 21  1  0  0  0  0
 21 17  1  1  0  0  0
 21 22  1  0  0  0  0
 23 22  2  0  0  0  0
 24 26  1  0  0  0  0
 25 26  1  0  0  0  0
 25 27  1  0  0  0  0
 26 28  1  0  0  0  0
 27 30  2  0  0  0  0
 28 29  2  0  0  0  0
 30 29  1  0  0  0  0
 31 36  1  0  0  0  0
 31 32  1  6  0  0  0
 32 33  1  0  0  0  0
 33 34  1  0  0  0  0
 34 35  1  0  0  0  0
 36 53  1  6  0  0  0
 38 45  1  0  0  0  0
 39 43  1  0  0  0  0
 41 43  1  1  0  0  0
 41 44  1  0  0  0  0
 42 37  1  6  0  0  0
 42 41  1  0  0  0  0
 42 38  1  0  0  0  0
 44 46  1  0  0  0  0
 45 46  1  0  0  0  0
 45 40  1  1  0  0  0
 46 50  1  6  0  0  0
 47 36  1  6  0  0  0
 47 37  1  0  0  0  0
 47 39  1  0  0  0  0
 48 50  2  0  0  0  0
 50 49  1  0  0  0  0
 51 53  2  0  0  0  0
 52 53  1  0  0  0  0
 54  1  1  0  0  0  0
 55 54  1  0  0  0  0
 56 57  1  6  0  0  0
 56 58  1  0  0  0  0
 56 55  1  0  0  0  0
 59 58  1  0  0  0  0
 60 59  1  0  0  0  0
M  END
>  <MODEL>
5

>  <REMARK>
 VINA RESULT:      -1.7      2.856      5.015
  Name = 
  28 active torsions:
  status: ('A' for Active; 'I' for Inactive)
    1  A    between atoms: N_2  and  C_30
    2  A    between atoms: C_4  and  C_8
    3  A    between atoms: O_7  and  C_20
    4  A    between atoms: O_7  and  C_26
    5  A    between atoms: C_8  and  N_31
    6  A    between atoms: C_14  and  C_46
    7  A    between atoms: C_14  and  C_60
    8  A    between atoms: C_16  and  C_30
    9  A    between atoms: C_17  and  C_21
   10  A    between atoms: C_17  and  C_50
   11  A    between atoms: C_20  and  C_46
   12  A    between atoms: C_21  and  C_41
   13  A    between atoms: C_24  and  O_57
   14  A    between atoms: C_27  and  C_34
   15  A    between atoms: C_27  and  C_56
   16  A    between atoms: C_27  and  C_58
   17  A    between atoms: C_29  and  C_49
   18  A    between atoms: C_29  and  C_50
   19  A    between atoms: C_33  and  C_41
   20  A    between atoms: C_34  and  C_54
   21  A    between atoms: C_34  and  C_60
   22  A    between atoms: C_39  and  O_53
   23  A    between atoms: C_39  and  C_60
   24  A    between atoms: C_41  and  O_53
   25  A    between atoms: C_43  and  C_55
   26  A    between atoms: C_45  and  C_49
   27  A    between atoms: C_49  and  C_59
   28  A    between atoms: C_54  and  O_57
                            x       y       z     vdW  Elec       q    Type
                         _______ _______ _______ _____ _____    ______ ____

>  <TORSDO>
F 28

$$$$
=
 OpenBabel11072411563D

 60 63  0  0  1  0  0  0  0  0999 V2000
  161.4720  205.9110  150.3810 C   0  0  1  0  0  3  0  0  0  0  0  0
  161.8150  206.9720  151.4280 C   0  0  0  0  0  2  0  0  0  0  0  0
  160.6860  207.7410  151.7200 O   0  0  0  0  0  0  0  0  0  0  0  0
  160.8570  208.1550  153.0480 C   0  0  1  0  0  3  0  0  0  0  0  0
  160.4990  206.5690  154.9720 O   0  0  0  0  0  1  0  0  0  0  0  0
  162.3950  206.4220  153.6740 O   0  0  0  0  0  0  0  0  0  0  0  0
  161.3000  207.0020  153.9080 C   0  0  0  0  0  0  0  0  0  0  0  0
  161.7940  210.1810  151.8090 C   0  0  0  0  0  1  0  0  0  0  0  0
  161.7830  209.3830  153.1020 C   0  0  1  0  0  3  0  0  0  0  0  0
  161.6340  210.2720  154.3370 C   0  0  0  0  0  2  0  0  0  0  0  0
  160.2310  210.2350  154.9220 C   0  0  0  0  0  2  0  0  0  0  0  0
  159.2320  210.8650  153.9760 C   0  0  0  0  0  2  0  0  0  0  0  0
  158.8510  212.2540  154.4730 C   0  0  2  0  0  3  0  0  0  0  0  0
  156.6240  211.5270  154.8990 O   0  0  0  0  0  0  0  0  0  0  0  0
  157.6190  212.1800  155.3110 C   0  0  0  0  0  0  0  0  0  0  0  0
  157.5480  212.8470  156.5280 O   0  0  0  0  0  1  0  0  0  0  0  0
  158.3330  212.7250  152.1080 C   0  0  0  0  0  3  0  0  0  0  0  0
  158.6360  213.1860  153.3230 C   0  0  0  0  0  3  0  0  0  0  0  0
  158.7990  213.3230  149.6510 C   0  0  1  0  0  3  0  0  0  0  0  0
  159.3470  214.4440  150.5340 C   0  0  0  0  0  2  0  0  0  0  0  0
  158.1260  213.6710  150.9720 C   0  0  2  0  0  0  0  0  0  0  0  0
  156.8980  214.4320  150.9270 N   0  0  0  0  0  0  0  0  0  0  0  0
  155.8790  213.9490  151.3100 O   0  0  0  0  0  0  0  0  0  0  0  0
  158.0950  213.9250  148.4420 C   0  0  0  0  0  2  0  0  0  0  0  0
  157.6950  213.2010  146.0620 C   0  0  0  0  0  2  0  0  0  0  0  0
  158.5860  213.3220  147.2180 N   0  0  0  0  0  0  0  0  0  0  0  0
  158.4280  212.7550  144.8320 C   0  0  0  0  0  3  0  0  0  0  0  0
  159.8640  212.6810  147.2330 C   0  0  0  0  0  3  0  0  0  0  0  0
  160.3570  212.1770  146.1470 N   0  0  0  0  0  0  0  0  0  0  0  0
  159.6580  212.2540  144.9000 C   0  0  0  0  0  3  0  0  0  0  0  0
  161.8870  206.3430  148.9590 C   0  0  2  0  0  3  0  0  0  0  0  0
  160.9610  207.4310  148.4200 C   0  0  0  0  0  2  0  0  0  0  0  0
  161.7000  208.4450  147.8220 O   0  0  0  0  0  0  0  0  0  0  0  0
  161.6600  209.4890  148.7510 C   0  0  0  0  0  2  0  0  0  0  0  0
  162.5990  210.4590  148.4140 O   0  0  0  0  0  1  0  0  0  0  0  0
  161.9610  205.1460  147.9730 C   0  0  1  0  0  3  0  0  0  0  0  0
  160.6280  204.2620  145.9530 C   0  0  0  0  0  2  0  0  0  0  0  0
  159.8040  202.0370  145.3340 N   0  0  0  0  0  2  0  0  0  0  0  0
  159.9080  203.6090  148.2640 C   0  0  0  0  0  2  0  0  0  0  0  0
  159.0020  199.9610  144.3790 C   0  0  0  0  0  1  0  0  0  0  0  0
  161.6020  202.1540  147.0110 C   0  0  1  0  0  3  0  0  0  0  0  0
  160.9900  202.7820  145.7480 C   0  0  2  0  0  3  0  0  0  0  0  0
  160.6800  202.2820  148.2290 C   0  0  0  0  0  2  0  0  0  0  0  0
  161.9630  200.6980  146.7490 C   0  0  0  0  0  2  0  0  0  0  0  0
  160.2100  200.6870  144.9350 C   0  0  2  0  0  3  0  0  0  0  0  0
  160.7970  199.9210  146.1310 C   0  0  1  0  0  3  0  0  0  0  0  0
  160.5700  204.7140  147.4310 C   0  0  1  0  0  3  0  0  0  0  0  0
  161.9550  198.3890  144.5320 O   0  0  0  0  0  0  0  0  0  0  0  0
  161.0270  197.5750  146.4580 O   0  0  0  0  0  1  0  0  0  0  0  0
  161.2710  198.5660  145.7280 C   0  0  0  0  0  0  0  0  0  0  0  0
  163.7560  204.5940  146.4880 O   0  0  0  0  0  1  0  0  0  0  0  0
  162.8240  206.6640  146.1670 O   0  0  0  0  0  0  0  0  0  0  0  0
  162.8930  205.4480  146.8300 C   0  0  0  0  0  0  0  0  0  0  0  0
  162.0380  204.5470  150.7460 C   0  0  0  0  0  2  0  0  0  0  0  0
  161.5260  204.1160  152.0980 C   0  0  0  0  0  2  0  0  0  0  0  0
  160.7540  202.8160  151.9780 C   0  0  1  0  0  3  0  0  0  0  0  0
  159.4970  203.0750  151.4580 F   0  0  0  0  0  0  0  0  0  0  0  0
  161.4360  201.9430  151.1280 O   0  0  0  0  0  0  0  0  0  0  0  0
  160.4520  201.0860  150.6380 C   0  0  0  0  0  2  0  0  0  0  0  0
  161.0060  199.7020  150.4590 C   0  0  0  0  0  1  0  0  0  0  0  0
  1 54  1  1  0  0  0
  1  2  1  0  0  0  0
  2  3  1  0  0  0  0
  4  3  1  6  0  0  0
  4  9  1  0  0  0  0
  4  7  1  0  0  0  0
  6  7  2  0  0  0  0
  7  5  1  0  0  0  0
  9  8  1  6  0  0  0
  9 10  1  0  0  0  0
 10 11  1  0  0  0  0
 12 13  1  0  0  0  0
 12 11  1  0  0  0  0
 13 18  1  6  0  0  0
 13 15  1  0  0  0  0
 14 15  2  0  0  0  0
 15 16  1  0  0  0  0
 17 18  2  0  0  0  0
 19 24  1  6  0  0  0
 19 20  1  0  0  0  0
 19 21  1  0  0  0  0
 20 21  1  0  0  0  0
 21 17  1  1  0  0  0
 22 21  1  0  0  0  0
 22 23  2  0  0  0  0
 25 26  1  0  0  0  0
 26 28  1  0  0  0  0
 26 24  1  0  0  0  0
 27 30  2  0  0  0  0
 27 25  1  0  0  0  0
 29 28  2  0  0  0  0
 30 29  1  0  0  0  0
 31 32  1  6  0  0  0
 31  1  1  0  0  0  0
 33 32  1  0  0  0  0
 33 34  1  0  0  0  0
 35 34  1  0  0  0  0
 36 53  1  6  0  0  0
 36 31  1  0  0  0  0
 37 47  1  0  0  0  0
 38 42  1  0  0  0  0
 41 44  1  6  0  0  0
 41 43  1  0  0  0  0
 42 37  1  1  0  0  0
 42 41  1  0  0  0  0
 43 39  1  0  0  0  0
 45 40  1  1  0  0  0
 45 38  1  0  0  0  0
 45 46  1  0  0  0  0
 46 50  1  6  0  0  0
 46 44  1  0  0  0  0
 47 36  1  1  0  0  0
 47 39  1  0  0  0  0
 48 50  2  0  0  0  0
 50 49  1  0  0  0  0
 51 53  1  0  0  0  0
 52 53  2  0  0  0  0
 54 55  1  0  0  0  0
 56 57  1  6  0  0  0
 56 55  1  0  0  0  0
 58 56  1  0  0  0  0
 59 58  1  0  0  0  0
 60 59  1  0  0  0  0
M  END
>  <MODEL>
6

>  <REMARK>
 VINA RESULT:       0.3      4.323     10.941
  Name = 
  28 active torsions:
  status: ('A' for Active; 'I' for Inactive)
    1  A    between atoms: N_2  and  C_30
    2  A    between atoms: C_4  and  C_8
    3  A    between atoms: O_7  and  C_20
    4  A    between atoms: O_7  and  C_26
    5  A    between atoms: C_8  and  N_31
    6  A    between atoms: C_14  and  C_46
    7  A    between atoms: C_14  and  C_60
    8  A    between atoms: C_16  and  C_30
    9  A    between atoms: C_17  and  C_21
   10  A    between atoms: C_17  and  C_50
   11  A    between atoms: C_20  and  C_46
   12  A    between atoms: C_21  and  C_41
   13  A    between atoms: C_24  and  O_57
   14  A    between atoms: C_27  and  C_34
   15  A    between atoms: C_27  and  C_56
   16  A    between atoms: C_27  and  C_58
   17  A    between atoms: C_29  and  C_49
   18  A    between atoms: C_29  and  C_50
   19  A    between atoms: C_33  and  C_41
   20  A    between atoms: C_34  and  C_54
   21  A    between atoms: C_34  and  C_60
   22  A    between atoms: C_39  and  O_53
   23  A    between atoms: C_39  and  C_60
   24  A    between atoms: C_41  and  O_53
   25  A    between atoms: C_43  and  C_55
   26  A    between atoms: C_45  and  C_49
   27  A    between atoms: C_49  and  C_59
   28  A    between atoms: C_54  and  O_57
                            x       y       z     vdW  Elec       q    Type
                         _______ _______ _______ _____ _____    ______ ____

>  <TORSDO>
F 28

$$$$
