=
 OpenBabel11072413183D

 27 29  0  0  1  0  0  0  0  0999 V2000
  161.0520  207.4560  151.3020 C   0  0  0  0  0  0  0  0  0  0  0  0
  160.6230  206.1070  151.5300 N   0  0  0  0  0  2  0  0  0  0  0  0
  162.0750  209.1560  149.9050 C   0  0  0  0  0  2  0  0  0  0  0  0
  161.6690  207.7850  150.2040 N   0  0  0  0  0  0  0  0  0  0  0  0
  160.8690  209.8130  151.8680 O   0  0  0  0  0  0  0  0  0  0  0  0
  160.8300  208.4930  152.3850 C   0  0  2  0  0  3  0  0  0  0  0  0
  162.0860  209.9940  151.1780 C   0  0  0  0  0  2  0  0  0  0  0  0
  161.0650  202.8400  148.9080 C   0  0  0  0  0  0  0  0  0  0  0  0
  160.7360  202.6210  150.2470 C   0  0  0  0  0  3  0  0  0  0  0  0
  160.5890  203.7030  151.1150 C   0  0  0  0  0  3  0  0  0  0  0  0
  161.0960  205.1940  149.3220 N   0  0  0  0  0  0  0  0  0  0  0  0
  161.2420  204.1560  148.4540 C   0  0  0  0  0  0  0  0  0  0  0  0
  160.7740  205.0010  150.6320 C   0  0  0  0  0  0  0  0  0  0  0  0
  161.2150  201.7310  148.0280 N   0  0  0  0  0  1  0  0  0  0  0  0
  161.3240  206.2710  146.9310 C   0  0  0  0  0  1  0  0  0  0  0  0
  161.6730  204.4990  146.7490 S   0  0  0  0  0  0  0  0  0  0  0  0
  161.7730  208.3140  153.5940 C   0  0  2  0  0  3  0  0  0  0  0  0
  161.8620  206.9660  153.9550 O   0  0  0  0  0  1  0  0  0  0  0  0
  161.5360  208.4070  156.1310 C   0  0  0  0  0  2  0  0  0  0  0  0
  159.8690  209.1680  155.0160 C   0  0  0  0  0  2  0  0  0  0  0  0
  160.0300  208.4060  156.3200 C   0  0  1  0  0  3  0  0  0  0  0  0
  159.4940  206.9960  156.1580 C   0  0  0  0  0  1  0  0  0  0  0  0
  161.3790  209.1650  154.8220 C   0  0  2  0  0  0  0  0  0  0  0  0
  161.9810  210.5860  154.8760 C   0  0  0  0  0  0  0  0  0  0  0  0
  162.2920  210.9340  156.1800 F   0  0  0  0  0  0  0  0  0  0  0  0
  161.0740  211.5070  154.3810 F   0  0  0  0  0  0  0  0  0  0  0  0
  163.1380  210.6480  154.1210 F   0  0  0  0  0  0  0  0  0  0  0  0
  1  2  1  0  0  0  0
  1  6  1  0  0  0  0
  3  4  1  0  0  0  0
  3  7  1  0  0  0  0
  4  1  2  0  0  0  0
  5  6  1  0  0  0  0
  6 17  1  1  0  0  0
  7  5  1  0  0  0  0
  8  9  1  0  0  0  0
  9 10  2  0  0  0  0
 11 13  2  0  0  0  0
 12  8  2  0  0  0  0
 12 11  1  0  0  0  0
 13 10  1  0  0  0  0
 13  2  1  0  0  0  0
 14  8  1  0  0  0  0
 16 15  1  0  0  0  0
 16 12  1  0  0  0  0
 17 18  1  1  0  0  0
 17 23  1  0  0  0  0
 19 21  1  0  0  0  0
 20 21  1  0  0  0  0
 21 22  1  6  0  0  0
 23 24  1  1  0  0  0
 23 20  1  0  0  0  0
 23 19  1  0  0  0  0
 24 25  1  0  0  0  0
 26 24  1  0  0  0  0
 27 24  1  0  0  0  0
M  END
>  <MODEL>
1

>  <REMARK>
 VINA RESULT:      -7.4      0.000      0.000
  Name = 
  5 active torsions:
  status: ('A' for Active; 'I' for Inactive)
    1  A    between atoms: C_1  and  C_23
    2  A    between atoms: C_7  and  C_20
    3  A    between atoms: C_7  and  C_23
    4  A    between atoms: N_11  and  C_22
    5  A    between atoms: C_21  and  S_27
                            x       y       z     vdW  Elec       q    Type
                         _______ _______ _______ _____ _____    ______ ____

>  <TORSDO>
F 5

$$$$
=
 OpenBabel11072413183D

 27 29  0  0  1  0  0  0  0  0999 V2000
  160.7500  203.7060  149.4730 C   0  0  0  0  0  0  0  0  0  0  0  0
  160.6510  205.0990  149.7960 N   0  0  0  0  0  2  0  0  0  0  0  0
  161.1290  201.3950  150.1090 C   0  0  0  0  0  2  0  0  0  0  0  0
  161.0710  202.8300  150.3800 N   0  0  0  0  0  0  0  0  0  0  0  0
  160.2060  201.8880  147.9540 O   0  0  0  0  0  0  0  0  0  0  0  0
  160.5310  203.2660  148.0390 C   0  0  2  0  0  3  0  0  0  0  0  0
  161.2100  201.1430  148.6080 C   0  0  0  0  0  2  0  0  0  0  0  0
  161.2390  206.8150  153.5980 C   0  0  0  0  0  0  0  0  0  0  0  0
  161.2530  205.4280  153.4490 C   0  0  0  0  0  3  0  0  0  0  0  0
  161.0580  204.8600  152.1900 C   0  0  0  0  0  3  0  0  0  0  0  0
  160.8420  207.0430  151.2530 N   0  0  0  0  0  0  0  0  0  0  0  0
  161.0320  207.6220  152.4690 C   0  0  0  0  0  0  0  0  0  0  0  0
  160.8510  205.6900  151.0860 C   0  0  0  0  0  0  0  0  0  0  0  0
  161.4370  207.3880  154.8860 N   0  0  0  0  0  1  0  0  0  0  0  0
  162.1440  209.6150  151.2070 C   0  0  0  0  0  1  0  0  0  0  0  0
  160.9970  209.4090  152.5990 S   0  0  0  0  0  0  0  0  0  0  0  0
  161.7000  203.6450  147.1060 C   0  0  2  0  0  3  0  0  0  0  0  0
  162.8390  203.9750  147.8490 O   0  0  0  0  0  1  0  0  0  0  0  0
  162.5280  205.7480  145.9230 C   0  0  0  0  0  2  0  0  0  0  0  0
  160.5820  205.8900  146.8160 C   0  0  0  0  0  2  0  0  0  0  0  0
  161.7470  206.8460  146.6230 C   0  0  1  0  0  3  0  0  0  0  0  0
  162.3860  207.1520  147.9640 C   0  0  0  0  0  1  0  0  0  0  0  0
  161.3650  204.7860  146.1190 C   0  0  2  0  0  0  0  0  0  0  0  0
  160.7130  204.3540  144.7880 C   0  0  0  0  0  0  0  0  0  0  0  0
  159.4320  204.8700  144.6840 F   0  0  0  0  0  0  0  0  0  0  0  0
  160.6370  202.9740  144.7200 F   0  0  0  0  0  0  0  0  0  0  0  0
  161.4560  204.8150  143.7160 F   0  0  0  0  0  0  0  0  0  0  0  0
  1  2  1  0  0  0  0
  1  4  2  0  0  0  0
  2 13  1  0  0  0  0
  3  4  1  0  0  0  0
  5  6  1  0  0  0  0
  5  7  1  0  0  0  0
  6 17  1  6  0  0  0
  6  1  1  0  0  0  0
  7  3  1  0  0  0  0
  8 14  1  0  0  0  0
  9  8  1  0  0  0  0
 10  9  2  0  0  0  0
 11 12  1  0  0  0  0
 12 16  1  0  0  0  0
 12  8  2  0  0  0  0
 13 11  2  0  0  0  0
 13 10  1  0  0  0  0
 15 16  1  0  0  0  0
 17 18  1  1  0  0  0
 19 23  1  0  0  0  0
 19 21  1  0  0  0  0
 21 20  1  0  0  0  0
 21 22  1  1  0  0  0
 23 24  1  6  0  0  0
 23 20  1  0  0  0  0
 23 17  1  0  0  0  0
 25 24  1  0  0  0  0
 26 24  1  0  0  0  0
 27 24  1  0  0  0  0
M  END
>  <MODEL>
2

>  <REMARK>
 VINA RESULT:      -7.3      5.094      8.128
  Name = 
  5 active torsions:
  status: ('A' for Active; 'I' for Inactive)
    1  A    between atoms: C_1  and  C_23
    2  A    between atoms: C_7  and  C_20
    3  A    between atoms: C_7  and  C_23
    4  A    between atoms: N_11  and  C_22
    5  A    between atoms: C_21  and  S_27
                            x       y       z     vdW  Elec       q    Type
                         _______ _______ _______ _____ _____    ______ ____

>  <TORSDO>
F 5

$$$$
=
 OpenBabel11072413183D

 27 29  0  0  1  0  0  0  0  0999 V2000
  161.8700  207.7470  150.6200 C   0  0  0  0  0  0  0  0  0  0  0  0
  161.6330  206.9590  151.7950 N   0  0  0  0  0  2  0  0  0  0  0  0
  162.0090  209.8880  149.4870 C   0  0  0  0  0  2  0  0  0  0  0  0
  161.7250  209.0400  150.6430 N   0  0  0  0  0  0  0  0  0  0  0  0
  162.8740  207.9290  148.4150 O   0  0  0  0  0  0  0  0  0  0  0  0
  162.2380  207.0490  149.3270 C   0  0  2  0  0  3  0  0  0  0  0  0
  162.0450  209.0520  148.2130 C   0  0  0  0  0  2  0  0  0  0  0  0
  160.5120  208.3740  155.6000 C   0  0  0  0  0  0  0  0  0  0  0  0
  160.4830  207.0050  155.3280 C   0  0  0  0  0  3  0  0  0  0  0  0
  160.8540  206.5370  154.0680 C   0  0  0  0  0  3  0  0  0  0  0  0
  161.2760  208.7800  153.3730 N   0  0  0  0  0  0  0  0  0  0  0  0
  160.9210  209.2630  154.5950 C   0  0  0  0  0  0  0  0  0  0  0  0
  161.2530  207.4480  153.0870 C   0  0  0  0  0  0  0  0  0  0  0  0
  160.1300  208.8450  156.8890 N   0  0  0  0  0  1  0  0  0  0  0  0
  160.5170  211.4070  153.1660 C   0  0  0  0  0  1  0  0  0  0  0  0
  160.9720  211.0310  154.8830 S   0  0  0  0  0  0  0  0  0  0  0  0
  161.0490  206.3050  148.6830 C   0  0  2  0  0  3  0  0  0  0  0  0
  159.9600  206.2620  149.5600 O   0  0  0  0  0  1  0  0  0  0  0  0
  162.7530  204.8070  147.5190 C   0  0  0  0  0  2  0  0  0  0  0  0
  160.7220  204.5830  146.8660 C   0  0  0  0  0  2  0  0  0  0  0  0
  162.0800  204.5160  146.1900 C   0  0  1  0  0  3  0  0  0  0  0  0
  162.2480  205.7050  145.2610 C   0  0  0  0  0  1  0  0  0  0  0  0
  161.3940  204.8790  148.1990 C   0  0  2  0  0  0  0  0  0  0  0  0
  161.1780  203.7490  149.2300 C   0  0  0  0  0  0  0  0  0  0  0  0
  159.8310  203.6070  149.5210 F   0  0  0  0  0  0  0  0  0  0  0  0
  161.8520  204.0370  150.4030 F   0  0  0  0  0  0  0  0  0  0  0  0
  161.6440  202.5460  148.7300 F   0  0  0  0  0  0  0  0  0  0  0  0
  1  4  2  0  0  0  0
  1  2  1  0  0  0  0
  2 13  1  0  0  0  0
  3  4  1  0  0  0  0
  5  6  1  0  0  0  0
  6 17  1  6  0  0  0
  6  1  1  0  0  0  0
  7  5  1  0  0  0  0
  7  3  1  0  0  0  0
  8 14  1  0  0  0  0
  9  8  1  0  0  0  0
 10  9  2  0  0  0  0
 11 12  1  0  0  0  0
 12 16  1  0  0  0  0
 12  8  2  0  0  0  0
 13 11  2  0  0  0  0
 13 10  1  0  0  0  0
 15 16  1  0  0  0  0
 17 18  1  1  0  0  0
 19 23  1  0  0  0  0
 20 23  1  0  0  0  0
 21 22  1  6  0  0  0
 21 20  1  0  0  0  0
 21 19  1  0  0  0  0
 23 17  1  0  0  0  0
 23 24  1  1  0  0  0
 24 25  1  0  0  0  0
 24 26  1  0  0  0  0
 27 24  1  0  0  0  0
M  END
>  <MODEL>
3

>  <REMARK>
 VINA RESULT:      -7.1      4.213      7.430
  Name = 
  5 active torsions:
  status: ('A' for Active; 'I' for Inactive)
    1  A    between atoms: C_1  and  C_23
    2  A    between atoms: C_7  and  C_20
    3  A    between atoms: C_7  and  C_23
    4  A    between atoms: N_11  and  C_22
    5  A    between atoms: C_21  and  S_27
                            x       y       z     vdW  Elec       q    Type
                         _______ _______ _______ _____ _____    ______ ____

>  <TORSDO>
F 5

$$$$
=
 OpenBabel11072413183D

 27 29  0  0  1  0  0  0  0  0999 V2000
  161.7340  207.6320  151.0220 C   0  0  0  0  0  0  0  0  0  0  0  0
  161.4450  206.9930  152.2730 N   0  0  0  0  0  2  0  0  0  0  0  0
  161.9680  209.6230  149.6550 C   0  0  0  0  0  2  0  0  0  0  0  0
  161.6310  208.9230  150.8920 N   0  0  0  0  0  0  0  0  0  0  0  0
  162.7930  207.5270  148.8370 O   0  0  0  0  0  0  0  0  0  0  0  0
  162.1080  206.7780  149.8280 C   0  0  2  0  0  3  0  0  0  0  0  0
  162.0060  208.6440  148.4870 C   0  0  0  0  0  2  0  0  0  0  0  0
  160.2870  208.8720  155.8600 C   0  0  0  0  0  0  0  0  0  0  0  0
  160.2720  207.4790  155.7660 C   0  0  0  0  0  3  0  0  0  0  0  0
  160.6560  206.8570  154.5780 C   0  0  0  0  0  3  0  0  0  0  0  0
  161.0610  208.9970  153.6030 N   0  0  0  0  0  0  0  0  0  0  0  0
  160.6940  209.6290  154.7520 C   0  0  0  0  0  0  0  0  0  0  0  0
  161.0530  207.6390  153.4900 C   0  0  0  0  0  0  0  0  0  0  0  0
  159.8930  209.5000  157.0760 N   0  0  0  0  0  1  0  0  0  0  0  0
  160.3480  211.5670  153.0420 C   0  0  0  0  0  1  0  0  0  0  0  0
  160.7270  211.4190  154.8110 S   0  0  0  0  0  0  0  0  0  0  0  0
  160.9100  206.0010  149.2430 C   0  0  2  0  0  3  0  0  0  0  0  0
  159.7500  206.2500  149.9840 O   0  0  0  0  0  1  0  0  0  0  0  0
  160.0500  203.6660  149.8020 C   0  0  0  0  0  2  0  0  0  0  0  0
  162.1310  204.0080  150.1960 C   0  0  0  0  0  2  0  0  0  0  0  0
  161.0300  203.2010  150.8640 C   0  0  1  0  0  3  0  0  0  0  0  0
  160.6740  203.8300  152.1980 C   0  0  0  0  0  1  0  0  0  0  0  0
  161.1490  204.4780  149.1330 C   0  0  2  0  0  0  0  0  0  0  0  0
  161.5110  203.9540  147.7260 C   0  0  0  0  0  0  0  0  0  0  0  0
  160.8030  204.6410  146.7530 F   0  0  0  0  0  0  0  0  0  0  0  0
  161.2030  202.6090  147.6240 F   0  0  0  0  0  0  0  0  0  0  0  0
  162.8610  204.1240  147.4820 F   0  0  0  0  0  0  0  0  0  0  0  0
  1  2  1  0  0  0  0
  2 13  1  0  0  0  0
  3  4  1  0  0  0  0
  4  1  2  0  0  0  0
  5  6  1  0  0  0  0
  6 17  1  6  0  0  0
  6  1  1  0  0  0  0
  7  5  1  0  0  0  0
  7  3  1  0  0  0  0
  8 14  1  0  0  0  0
  9  8  1  0  0  0  0
 10  9  2  0  0  0  0
 11 12  1  0  0  0  0
 12 16  1  0  0  0  0
 12  8  2  0  0  0  0
 13 11  2  0  0  0  0
 13 10  1  0  0  0  0
 15 16  1  0  0  0  0
 17 18  1  1  0  0  0
 19 21  1  0  0  0  0
 20 21  1  0  0  0  0
 21 22  1  1  0  0  0
 23 24  1  6  0  0  0
 23 17  1  0  0  0  0
 23 19  1  0  0  0  0
 23 20  1  0  0  0  0
 25 24  1  0  0  0  0
 26 24  1  0  0  0  0
 27 24  1  0  0  0  0
M  END
>  <MODEL>
4

>  <REMARK>
 VINA RESULT:      -7.0      4.532      7.172
  Name = 
  5 active torsions:
  status: ('A' for Active; 'I' for Inactive)
    1  A    between atoms: C_1  and  C_23
    2  A    between atoms: C_7  and  C_20
    3  A    between atoms: C_7  and  C_23
    4  A    between atoms: N_11  and  C_22
    5  A    between atoms: C_21  and  S_27
                            x       y       z     vdW  Elec       q    Type
                         _______ _______ _______ _____ _____    ______ ____

>  <TORSDO>
F 5

$$$$
=
 OpenBabel11072413183D

 27 29  0  0  1  0  0  0  0  0999 V2000
  161.0760  207.3230  151.3000 C   0  0  0  0  0  0  0  0  0  0  0  0
  160.5530  205.9950  151.4410 N   0  0  0  0  0  2  0  0  0  0  0  0
  162.3300  208.9960  150.0700 C   0  0  0  0  0  2  0  0  0  0  0  0
  161.8210  207.6430  150.2830 N   0  0  0  0  0  0  0  0  0  0  0  0
  160.9630  209.6700  151.9180 O   0  0  0  0  0  0  0  0  0  0  0  0
  160.7990  208.3420  152.3870 C   0  0  2  0  0  3  0  0  0  0  0  0
  162.2540  209.8000  151.3630 C   0  0  0  0  0  2  0  0  0  0  0  0
  161.0920  202.7770  148.7780 C   0  0  0  0  0  0  0  0  0  0  0  0
  160.7890  202.5300  150.1180 C   0  0  0  0  0  3  0  0  0  0  0  0
  160.6100  203.5960  151.0000 C   0  0  0  0  0  3  0  0  0  0  0  0
  161.0320  205.1250  149.2170 N   0  0  0  0  0  0  0  0  0  0  0  0
  161.2090  204.1030  148.3350 C   0  0  0  0  0  0  0  0  0  0  0  0
  160.7370  204.9060  150.5290 C   0  0  0  0  0  0  0  0  0  0  0  0
  161.2740  201.6830  147.8840 N   0  0  0  0  0  1  0  0  0  0  0  0
  161.0550  206.2030  146.7980 C   0  0  0  0  0  1  0  0  0  0  0  0
  161.6020  204.4810  146.6290 S   0  0  0  0  0  0  0  0  0  0  0  0
  161.5990  208.0790  153.6800 C   0  0  2  0  0  3  0  0  0  0  0  0
  162.1840  206.8080  153.6490 O   0  0  0  0  0  1  0  0  0  0  0  0
  159.7680  209.3880  154.8770 C   0  0  0  0  0  2  0  0  0  0  0  0
  161.5500  209.0330  156.0170 C   0  0  0  0  0  2  0  0  0  0  0  0
  160.5500  210.1720  155.9160 C   0  0  1  0  0  3  0  0  0  0  0  0
  161.2070  211.3730  155.2620 C   0  0  0  0  0  1  0  0  0  0  0  0
  160.7690  208.2480  154.9720 C   0  0  2  0  0  0  0  0  0  0  0  0
  160.1530  206.9540  155.5490 C   0  0  0  0  0  0  0  0  0  0  0  0
  160.3290  205.8980  154.6710 F   0  0  0  0  0  0  0  0  0  0  0  0
  158.7970  207.1260  155.7620 F   0  0  0  0  0  0  0  0  0  0  0  0
  160.7570  206.6280  156.7500 F   0  0  0  0  0  0  0  0  0  0  0  0
  1  2  1  0  0  0  0
  1  6  1  0  0  0  0
  3  4  1  0  0  0  0
  3  7  1  0  0  0  0
  4  1  2  0  0  0  0
  5  6  1  0  0  0  0
  6 17  1  1  0  0  0
  7  5  1  0  0  0  0
  8  9  1  0  0  0  0
  9 10  2  0  0  0  0
 11 13  2  0  0  0  0
 12  8  2  0  0  0  0
 12 11  1  0  0  0  0
 13 10  1  0  0  0  0
 13  2  1  0  0  0  0
 14  8  1  0  0  0  0
 16 15  1  0  0  0  0
 16 12  1  0  0  0  0
 17 18  1  6  0  0  0
 17 23  1  0  0  0  0
 19 23  1  0  0  0  0
 19 21  1  0  0  0  0
 21 22  1  6  0  0  0
 21 20  1  0  0  0  0
 23 24  1  1  0  0  0
 23 20  1  0  0  0  0
 24 26  1  0  0  0  0
 24 27  1  0  0  0  0
 25 24  1  0  0  0  0
M  END
>  <MODEL>
5

>  <REMARK>
 VINA RESULT:      -7.0      1.778      2.291
  Name = 
  5 active torsions:
  status: ('A' for Active; 'I' for Inactive)
    1  A    between atoms: C_1  and  C_23
    2  A    between atoms: C_7  and  C_20
    3  A    between atoms: C_7  and  C_23
    4  A    between atoms: N_11  and  C_22
    5  A    between atoms: C_21  and  S_27
                            x       y       z     vdW  Elec       q    Type
                         _______ _______ _______ _____ _____    ______ ____

>  <TORSDO>
F 5

$$$$
=
 OpenBabel11072413183D

 27 29  0  0  1  0  0  0  0  0999 V2000
  160.8840  204.4680  149.7440 C   0  0  0  0  0  0  0  0  0  0  0  0
  160.8840  205.8440  149.3420 N   0  0  0  0  0  2  0  0  0  0  0  0
  161.1810  202.7420  151.4240 C   0  0  0  0  0  2  0  0  0  0  0  0
  161.2190  204.1250  150.9540 N   0  0  0  0  0  0  0  0  0  0  0  0
  160.1410  202.1900  149.3370 O   0  0  0  0  0  0  0  0  0  0  0  0
  160.5440  203.4020  148.7220 C   0  0  2  0  0  3  0  0  0  0  0  0
  161.1450  201.7820  150.2400 C   0  0  0  0  0  2  0  0  0  0  0  0
  161.8320  209.1720  151.7420 C   0  0  0  0  0  0  0  0  0  0  0  0
  162.0860  209.2070  150.3700 C   0  0  0  0  0  3  0  0  0  0  0  0
  161.7710  208.1040  149.5760 C   0  0  0  0  0  3  0  0  0  0  0  0
  160.9630  206.9590  151.5060 N   0  0  0  0  0  0  0  0  0  0  0  0
  161.2570  208.0220  152.3030 C   0  0  0  0  0  0  0  0  0  0  0  0
  161.2030  206.9720  150.1650 C   0  0  0  0  0  0  0  0  0  0  0  0
  162.1570  210.3010  152.5480 N   0  0  0  0  0  1  0  0  0  0  0  0
  161.1350  206.1150  154.0770 C   0  0  0  0  0  1  0  0  0  0  0  0
  160.9150  207.9170  154.0590 S   0  0  0  0  0  0  0  0  0  0  0  0
  161.6660  203.1800  147.6840 C   0  0  2  0  0  3  0  0  0  0  0  0
  162.6270  204.1940  147.7720 O   0  0  0  0  0  1  0  0  0  0  0  0
  162.1940  203.5020  145.2110 C   0  0  0  0  0  2  0  0  0  0  0  0
  160.2960  204.2600  145.8600 C   0  0  0  0  0  2  0  0  0  0  0  0
  161.3370  204.7010  144.8450 C   0  0  1  0  0  3  0  0  0  0  0  0
  162.0090  205.9750  145.3220 C   0  0  0  0  0  1  0  0  0  0  0  0
  161.1560  203.0610  146.2310 C   0  0  2  0  0  0  0  0  0  0  0  0
  160.4850  201.7200  145.8620 C   0  0  0  0  0  0  0  0  0  0  0  0
  161.2370  200.6540  146.3280 F   0  0  0  0  0  0  0  0  0  0  0  0
  160.3680  201.6060  144.4880 F   0  0  0  0  0  0  0  0  0  0  0  0
  159.2240  201.6420  146.4260 F   0  0  0  0  0  0  0  0  0  0  0  0
  1  4  2  0  0  0  0
  2  1  1  0  0  0  0
  2 13  1  0  0  0  0
  4  3  1  0  0  0  0
  5  7  1  0  0  0  0
  6 17  1  1  0  0  0
  6  5  1  0  0  0  0
  6  1  1  0  0  0  0
  7  3  1  0  0  0  0
  8 12  2  0  0  0  0
  8 14  1  0  0  0  0
  9  8  1  0  0  0  0
 10 13  1  0  0  0  0
 10  9  2  0  0  0  0
 11 12  1  0  0  0  0
 12 16  1  0  0  0  0
 13 11  2  0  0  0  0
 16 15  1  0  0  0  0
 17 18  1  6  0  0  0
 19 23  1  0  0  0  0
 20 23  1  0  0  0  0
 21 19  1  0  0  0  0
 21 22  1  1  0  0  0
 21 20  1  0  0  0  0
 23 24  1  6  0  0  0
 23 17  1  0  0  0  0
 24 25  1  0  0  0  0
 24 27  1  0  0  0  0
 26 24  1  0  0  0  0
M  END
>  <MODEL>
6

>  <REMARK>
 VINA RESULT:      -6.6      5.323      8.776
  Name = 
  5 active torsions:
  status: ('A' for Active; 'I' for Inactive)
    1  A    between atoms: C_1  and  C_23
    2  A    between atoms: C_7  and  C_20
    3  A    between atoms: C_7  and  C_23
    4  A    between atoms: N_11  and  C_22
    5  A    between atoms: C_21  and  S_27
                            x       y       z     vdW  Elec       q    Type
                         _______ _______ _______ _____ _____    ______ ____

>  <TORSDO>
F 5

$$$$
=
 OpenBabel11072413183D

 27 29  0  0  1  0  0  0  0  0999 V2000
  161.6250  206.6330  149.9480 C   0  0  0  0  0  0  0  0  0  0  0  0
  161.7770  206.6830  151.3730 N   0  0  0  0  0  2  0  0  0  0  0  0
  161.1870  207.7050  147.8160 C   0  0  0  0  0  2  0  0  0  0  0  0
  161.2990  207.6960  149.2720 N   0  0  0  0  0  0  0  0  0  0  0  0
  162.0700  205.4780  147.8560 O   0  0  0  0  0  0  0  0  0  0  0  0
  161.7930  205.3050  149.2360 C   0  0  2  0  0  3  0  0  0  0  0  0
  161.0600  206.2810  147.2860 C   0  0  0  0  0  2  0  0  0  0  0  0
  161.3560  210.0970  153.8030 C   0  0  0  0  0  0  0  0  0  0  0  0
  161.9510  210.2050  152.5450 C   0  0  0  0  0  3  0  0  0  0  0  0
  162.0900  209.0750  151.7400 C   0  0  0  0  0  3  0  0  0  0  0  0
  161.0510  207.7560  153.4360 N   0  0  0  0  0  0  0  0  0  0  0  0
  160.9010  208.8440  154.2400 C   0  0  0  0  0  0  0  0  0  0  0  0
  161.6300  207.8400  152.2050 C   0  0  0  0  0  0  0  0  0  0  0  0
  161.2180  211.2560  154.6200 N   0  0  0  0  0  1  0  0  0  0  0  0
  161.7120  208.2030  156.6330 C   0  0  0  0  0  1  0  0  0  0  0  0
  160.1360  208.6420  155.8470 S   0  0  0  0  0  0  0  0  0  0  0  0
  160.6130  204.3390  149.4750 C   0  0  2  0  0  3  0  0  0  0  0  0
  159.7090  204.8810  150.3950 O   0  0  0  0  0  1  0  0  0  0  0  0
  162.0480  202.2910  148.9770 C   0  0  0  0  0  2  0  0  0  0  0  0
  160.0120  201.8880  149.5200 C   0  0  0  0  0  2  0  0  0  0  0  0
  161.0130  201.2570  148.5680 C   0  0  1  0  0  3  0  0  0  0  0  0
  160.5820  201.5060  147.1340 C   0  0  0  0  0  1  0  0  0  0  0  0
  161.0460  202.9270  149.9280 C   0  0  2  0  0  0  0  0  0  0  0  0
  161.4580  202.7950  151.4110 C   0  0  0  0  0  0  0  0  0  0  0  0
  160.3470  202.8700  152.2340 F   0  0  0  0  0  0  0  0  0  0  0  0
  162.3300  203.8120  151.7570 F   0  0  0  0  0  0  0  0  0  0  0  0
  162.0800  201.5790  151.6300 F   0  0  0  0  0  0  0  0  0  0  0  0
  1  2  1  0  0  0  0
  2 13  1  0  0  0  0
  3  4  1  0  0  0  0
  4  1  2  0  0  0  0
  5  6  1  0  0  0  0
  6 17  1  6  0  0  0
  6  1  1  0  0  0  0
  7  3  1  0  0  0  0
  7  5  1  0  0  0  0
  8 12  2  0  0  0  0
  8 14  1  0  0  0  0
  9  8  1  0  0  0  0
 10 13  1  0  0  0  0
 10  9  2  0  0  0  0
 11 12  1  0  0  0  0
 12 16  1  0  0  0  0
 13 11  2  0  0  0  0
 16 15  1  0  0  0  0
 17 23  1  0  0  0  0
 17 18  1  1  0  0  0
 19 23  1  0  0  0  0
 20 23  1  0  0  0  0
 21 22  1  6  0  0  0
 21 19  1  0  0  0  0
 21 20  1  0  0  0  0
 23 24  1  1  0  0  0
 24 27  1  0  0  0  0
 24 26  1  0  0  0  0
 24 25  1  0  0  0  0
M  END
>  <MODEL>
7

>  <REMARK>
 VINA RESULT:      -6.6      4.059      7.522
  Name = 
  5 active torsions:
  status: ('A' for Active; 'I' for Inactive)
    1  A    between atoms: C_1  and  C_23
    2  A    between atoms: C_7  and  C_20
    3  A    between atoms: C_7  and  C_23
    4  A    between atoms: N_11  and  C_22
    5  A    between atoms: C_21  and  S_27
                            x       y       z     vdW  Elec       q    Type
                         _______ _______ _______ _____ _____    ______ ____

>  <TORSDO>
F 5

$$$$
=
 OpenBabel11072413183D

 27 29  0  0  1  0  0  0  0  0999 V2000
  160.7870  207.4130  152.3440 C   0  0  0  0  0  0  0  0  0  0  0  0
  160.5440  208.8100  152.1340 N   0  0  0  0  0  2  0  0  0  0  0  0
  161.2150  205.5240  153.8060 C   0  0  0  0  0  2  0  0  0  0  0  0
  161.0170  206.9470  153.5380 N   0  0  0  0  0  0  0  0  0  0  0  0
  160.6190  205.1330  151.5190 O   0  0  0  0  0  0  0  0  0  0  0  0
  160.8320  206.4850  151.1470 C   0  0  2  0  0  3  0  0  0  0  0  0
  161.5530  204.7840  152.5170 C   0  0  0  0  0  2  0  0  0  0  0  0
  160.3780  211.8120  155.0840 C   0  0  0  0  0  0  0  0  0  0  0  0
  159.5000  211.8500  154.0000 C   0  0  0  0  0  3  0  0  0  0  0  0
  159.5550  210.8560  153.0230 C   0  0  0  0  0  3  0  0  0  0  0  0
  161.3410  209.8090  154.2080 N   0  0  0  0  0  0  0  0  0  0  0  0
  161.3060  210.7650  155.1760 C   0  0  0  0  0  0  0  0  0  0  0  0
  160.4930  209.8280  153.1420 C   0  0  0  0  0  0  0  0  0  0  0  0
  160.3170  212.8320  156.0770 N   0  0  0  0  0  1  0  0  0  0  0  0
  162.1350  208.9010  156.8010 C   0  0  0  0  0  1  0  0  0  0  0  0
  162.4640  210.6680  156.5410 S   0  0  0  0  0  0  0  0  0  0  0  0
  162.1080  206.6590  150.2960 C   0  0  2  0  0  3  0  0  0  0  0  0
  162.9690  207.5930  150.8820 O   0  0  0  0  0  1  0  0  0  0  0  0
  160.5470  206.4260  148.2930 C   0  0  0  0  0  2  0  0  0  0  0  0
  162.6370  206.1780  147.8750 C   0  0  0  0  0  2  0  0  0  0  0  0
  161.3550  205.5560  147.3470 C   0  0  1  0  0  3  0  0  0  0  0  0
  161.2710  204.1070  147.7880 C   0  0  0  0  0  1  0  0  0  0  0  0
  161.8280  207.0480  148.8270 C   0  0  2  0  0  0  0  0  0  0  0  0
  161.9500  208.5520  148.4950 C   0  0  0  0  0  0  0  0  0  0  0  0
  161.7490  209.3190  149.6300 F   0  0  0  0  0  0  0  0  0  0  0  0
  161.0040  208.9100  147.5510 F   0  0  0  0  0  0  0  0  0  0  0  0
  163.2090  208.8340  147.9960 F   0  0  0  0  0  0  0  0  0  0  0  0
  1  4  2  0  0  0  0
  2  1  1  0  0  0  0
  2 13  1  0  0  0  0
  4  3  1  0  0  0  0
  5  7  1  0  0  0  0
  6 17  1  1  0  0  0
  6  5  1  0  0  0  0
  6  1  1  0  0  0  0
  7  3  1  0  0  0  0
  8 12  2  0  0  0  0
  8 14  1  0  0  0  0
  9  8  1  0  0  0  0
 10 13  1  0  0  0  0
 10  9  2  0  0  0  0
 11 12  1  0  0  0  0
 12 16  1  0  0  0  0
 13 11  2  0  0  0  0
 16 15  1  0  0  0  0
 17 18  1  1  0  0  0
 19 23  1  0  0  0  0
 20 23  1  0  0  0  0
 21 22  1  1  0  0  0
 21 20  1  0  0  0  0
 21 19  1  0  0  0  0
 23 24  1  6  0  0  0
 23 17  1  0  0  0  0
 24 25  1  0  0  0  0
 26 24  1  0  0  0  0
 27 24  1  0  0  0  0
M  END
>  <MODEL>
8

>  <REMARK>
 VINA RESULT:      -6.4      3.934      7.531
  Name = 
  5 active torsions:
  status: ('A' for Active; 'I' for Inactive)
    1  A    between atoms: C_1  and  C_23
    2  A    between atoms: C_7  and  C_20
    3  A    between atoms: C_7  and  C_23
    4  A    between atoms: N_11  and  C_22
    5  A    between atoms: C_21  and  S_27
                            x       y       z     vdW  Elec       q    Type
                         _______ _______ _______ _____ _____    ______ ____

>  <TORSDO>
F 5

$$$$
=
 OpenBabel11072413183D

 27 29  0  0  1  0  0  0  0  0999 V2000
  161.6950  207.8290  150.6520 C   0  0  0  0  0  0  0  0  0  0  0  0
  161.4060  207.4630  152.0080 N   0  0  0  0  0  2  0  0  0  0  0  0
  161.9570  209.4960  148.9080 C   0  0  0  0  0  2  0  0  0  0  0  0
  161.6190  209.0690  150.2640 N   0  0  0  0  0  0  0  0  0  0  0  0
  162.7250  207.2590  148.5260 O   0  0  0  0  0  0  0  0  0  0  0  0
  162.0360  206.7420  149.6520 C   0  0  2  0  0  3  0  0  0  0  0  0
  161.9590  208.3000  147.9620 C   0  0  0  0  0  2  0  0  0  0  0  0
  160.3320  210.0910  155.1190 C   0  0  0  0  0  0  0  0  0  0  0  0
  160.0950  210.4480  153.7910 C   0  0  0  0  0  3  0  0  0  0  0  0
  160.4500  209.5770  152.7610 C   0  0  0  0  0  3  0  0  0  0  0  0
  161.2650  208.0210  154.3750 N   0  0  0  0  0  0  0  0  0  0  0  0
  160.9260  208.8510  155.3980 C   0  0  0  0  0  0  0  0  0  0  0  0
  161.0430  208.3510  153.0720 C   0  0  0  0  0  0  0  0  0  0  0  0
  159.9670  210.9850  156.1660 N   0  0  0  0  0  1  0  0  0  0  0  0
  160.0960  206.9530  156.9820 C   0  0  0  0  0  1  0  0  0  0  0  0
  161.2610  208.3410  157.0830 S   0  0  0  0  0  0  0  0  0  0  0  0
  160.8140  205.8920  149.2450 C   0  0  2  0  0  3  0  0  0  0  0  0
  159.7140  206.1850  150.0580 O   0  0  0  0  0  1  0  0  0  0  0  0
  160.0540  203.5990  150.0610 C   0  0  0  0  0  2  0  0  0  0  0  0
  162.1470  204.0150  150.2790 C   0  0  0  0  0  2  0  0  0  0  0  0
  161.1150  203.2480  151.0890 C   0  0  1  0  0  3  0  0  0  0  0  0
  160.8330  203.9840  152.3860 C   0  0  0  0  0  1  0  0  0  0  0  0
  161.0840  204.3710  149.2500 C   0  0  2  0  0  0  0  0  0  0  0  0
  161.3630  203.7320  147.8720 C   0  0  0  0  0  0  0  0  0  0  0  0
  160.7530  204.4610  146.8650 F   0  0  0  0  0  0  0  0  0  0  0  0
  160.8730  202.4390  147.8360 F   0  0  0  0  0  0  0  0  0  0  0  0
  162.7240  203.7020  147.6240 F   0  0  0  0  0  0  0  0  0  0  0  0
  1  2  1  0  0  0  0
  2 13  1  0  0  0  0
  3  4  1  0  0  0  0
  4  1  2  0  0  0  0
  5  6  1  0  0  0  0
  6 17  1  6  0  0  0
  6  1  1  0  0  0  0
  7  5  1  0  0  0  0
  7  3  1  0  0  0  0
  8 12  2  0  0  0  0
  8 14  1  0  0  0  0
  9  8  1  0  0  0  0
 10 13  1  0  0  0  0
 10  9  2  0  0  0  0
 11 12  1  0  0  0  0
 12 16  1  0  0  0  0
 13 11  2  0  0  0  0
 15 16  1  0  0  0  0
 17 23  1  0  0  0  0
 17 18  1  1  0  0  0
 19 21  1  0  0  0  0
 20 21  1  0  0  0  0
 21 22  1  1  0  0  0
 23 24  1  6  0  0  0
 23 19  1  0  0  0  0
 23 20  1  0  0  0  0
 25 24  1  0  0  0  0
 26 24  1  0  0  0  0
 27 24  1  0  0  0  0
M  END
>  <MODEL>
9

>  <REMARK>
 VINA RESULT:      -6.4      4.625      7.442
  Name = 
  5 active torsions:
  status: ('A' for Active; 'I' for Inactive)
    1  A    between atoms: C_1  and  C_23
    2  A    between atoms: C_7  and  C_20
    3  A    between atoms: C_7  and  C_23
    4  A    between atoms: N_11  and  C_22
    5  A    between atoms: C_21  and  S_27
                            x       y       z     vdW  Elec       q    Type
                         _______ _______ _______ _____ _____    ______ ____

>  <TORSDO>
F 5

$$$$
