=
 OpenBabel11072414053D

 62 69  0  0  1  0  0  0  0  0999 V2000
  162.9270  210.4110  150.1090 C   0  0  0  0  0  2  0  0  0  0  0  0
  160.5810  212.6270  151.4860 O   0  0  0  0  0  0  0  0  0  0  0  0
  161.2410  211.6130  151.1040 C   0  0  0  0  0  0  0  0  0  0  0  0
  161.9930  209.3900  150.7920 C   0  0  1  0  0  3  0  0  0  0  0  0
  162.1770  211.6610  150.0440 N   0  0  0  0  0  0  0  0  0  0  0  0
  161.1450  210.2760  151.7370 C   0  0  2  0  0  3  0  0  0  0  0  0
  159.3320  213.6070  146.9230 C   0  0  0  0  0  0  0  0  0  0  0  0
  160.8180  213.3360  148.8760 C   0  0  0  0  0  2  0  0  0  0  0  0
  161.6910  214.4530  146.8160 C   0  0  0  0  0  2  0  0  0  0  0  0
  162.7030  213.3250  146.6260 C   0  0  0  0  0  2  0  0  0  0  0  0
  158.3370  214.3760  147.0350 O   0  0  0  0  0  0  0  0  0  0  0  0
  160.5580  213.9430  147.5820 N   0  0  0  0  0  0  0  0  0  0  0  0
  163.1000  212.7100  147.9810 C   0  0  0  0  0  2  0  0  0  0  0  0
  161.8500  212.2150  148.7300 C   0  0  1  0  0  3  0  0  0  0  0  0
  159.1370  212.2650  146.2960 C   0  0  0  0  0  2  0  0  0  0  0  0
  158.9050  212.4020  144.8050 C   0  0  0  0  0  2  0  0  0  0  0  0
  160.6730  213.3350  143.5180 C   0  0  0  0  0  0  0  0  0  0  0  0
  159.9450  212.2930  142.6620 N   0  0  0  0  0  0  0  0  0  0  0  0
  160.1820  212.1390  144.0310 C   0  0  2  0  0  3  0  0  0  0  0  0
  161.2540  214.4510  143.6430 O   0  0  0  0  0  0  0  0  0  0  0  0
  160.5330  211.8120  140.3890 N   0  0  0  0  0  0  0  0  0  0  0  0
  159.4480  211.8690  141.3640 C   0  0  2  0  0  3  0  0  0  0  0  0
  158.8520  212.9000  139.0680 C   0  0  2  0  0  3  0  0  0  0  0  0
  159.8990  211.8080  139.0790 C   0  0  0  0  0  2  0  0  0  0  0  0
  158.1980  213.0440  140.7520 S   0  0  0  0  0  0  0  0  0  0  0  0
  162.6660  210.8270  140.2610 O   0  0  0  0  0  1  0  0  0  0  0  0
  161.3290  210.5920  140.5830 C   0  0  2  0  0  3  0  0  0  0  0  0
  160.8310  209.4590  139.7990 N   0  0  0  0  0  2  0  0  0  0  0  0
  161.8340  207.4130  139.5570 C   0  0  0  0  0  1  0  0  0  0  0  0
  161.9400  208.8220  139.2300 N   0  0  0  0  0  0  0  0  0  0  0  0
  161.8210  208.9420  137.8380 N   0  0  0  0  0  1  0  0  0  0  0  0
  157.8240  212.5630  138.1870 O   0  0  0  0  0  0  0  0  0  0  0  0
  155.6380  211.6270  138.1650 C   0  0  0  0  0  1  0  0  0  0  0  0
  156.7610  212.1840  139.0140 C   0  0  0  0  0  2  0  0  0  0  0  0
  159.6610  209.4110  153.0340 O   0  0  0  0  0  1  0  0  0  0  0  0
  159.8060  209.8800  151.8130 O   0  0  0  0  0  0  0  0  0  0  0  0
  161.1610  208.6330  149.7330 C   0  0  1  0  0  3  0  0  0  0  0  0
  161.8950  208.6090  148.3850 C   0  0  0  0  0  1  0  0  0  0  0  0
  160.3460  206.4220  148.9810 C   0  0  0  0  0  2  0  0  0  0  0  0
  160.8050  207.2100  150.1910 C   0  0  1  0  0  3  0  0  0  0  0  0
  161.7300  206.1750  149.5340 C   0  0  1  0  0  3  0  0  0  0  0  0
  161.7350  204.7890  150.2120 C   0  0  1  0  0  3  0  0  0  0  0  0
  162.2530  206.4540  153.3960 N   0  0  0  0  0  0  0  0  0  0  0  0
  162.7690  205.7120  152.3650 O   0  0  0  0  0  0  0  0  0  0  0  0
  160.4950  205.2190  152.4760 C   0  0  1  0  0  3  0  0  0  0  0  0
  161.1380  203.8390  152.6440 C   0  0  0  0  0  2  0  0  0  0  0  0
  160.9980  206.1880  153.5070 C   0  0  0  0  0  0  0  0  0  0  0  0
  161.7960  204.8790  151.7560 C   0  0  1  0  0  0  0  0  0  0  0  0
  160.7140  207.0560  155.7900 C   0  0  0  0  0  1  0  0  0  0  0  0
  160.2120  206.7910  154.4850 O   0  0  0  0  0  0  0  0  0  0  0  0
  160.5580  203.9150  149.7090 C   0  0  0  0  0  2  0  0  0  0  0  0
  160.2620  201.2190  150.1700 O   0  0  0  0  0  0  0  0  0  0  0  0
  161.7320  200.5360  148.5320 N   0  0  0  0  0  1  0  0  0  0  0  0
  160.9600  202.9160  148.7100 N   0  0  0  0  0  0  0  0  0  0  0  0
  160.9470  201.5410  149.1630 C   0  0  0  0  0  0  0  0  0  0  0  0
  161.9430  204.2060  144.7760 C   0  0  0  0  0  3  0  0  0  0  0  0
  161.0220  203.2270  144.9660 N   0  0  0  0  0  0  0  0  0  0  0  0
  160.7270  202.7450  146.2010 C   0  0  0  0  0  0  0  0  0  0  0  0
  162.3130  204.2910  147.1450 C   0  0  0  0  0  3  0  0  0  0  0  0
  161.3390  203.3020  147.3550 C   0  0  0  0  0  0  0  0  0  0  0  0
  162.6170  204.7460  145.8670 C   0  0  0  0  0  3  0  0  0  0  0  0
  159.8330  201.7310  146.2800 F   0  0  0  0  0  0  0  0  0  0  0  0
  1  4  1  0  0  0  0
  3  2  2  0  0  0  0
  3  6  1  0  0  0  0
  4 37  1  6  0  0  0
  4  6  1  0  0  0  0
  5  1  1  0  0  0  0
  5  3  1  0  0  0  0
  6 36  1  6  0  0  0
  7 11  2  0  0  0  0
  7 12  1  0  0  0  0
  9 12  1  0  0  0  0
 10  9  1  0  0  0  0
 10 13  1  0  0  0  0
 12  8  1  0  0  0  0
 14 13  1  1  0  0  0
 14  8  1  0  0  0  0
 14  5  1  0  0  0  0
 15  7  1  0  0  0  0
 16 15  1  0  0  0  0
 17 20  2  0  0  0  0
 17 19  1  0  0  0  0
 18 17  1  0  0  0  0
 18 19  1  0  0  0  0
 19 16  1  1  0  0  0
 21 27  1  0  0  0  0
 21 22  1  0  0  0  0
 22 18  1  1  0  0  0
 23 32  1  6  0  0  0
 23 24  1  0  0  0  0
 23 25  1  0  0  0  0
 24 21  1  0  0  0  0
 25 22  1  0  0  0  0
 27 26  1  6  0  0  0
 28 27  1  0  0  0  0
 30 29  1  0  0  0  0
 30 28  1  0  0  0  0
 31 30  1  0  0  0  0
 32 34  1  0  0  0  0
 33 34  1  0  0  0  0
 36 35  1  0  0  0  0
 37 38  1  6  0  0  0
 39 41  1  0  0  0  0
 39 40  1  0  0  0  0
 40 37  1  6  0  0  0
 41 40  1  0  0  0  0
 41 42  1  1  0  0  0
 42 51  1  1  0  0  0
 43 47  2  0  0  0  0
 44 43  1  0  0  0  0
 45 46  1  1  0  0  0
 45 47  1  0  0  0  0
 47 50  1  0  0  0  0
 48 42  1  6  0  0  0
 48 44  1  0  0  0  0
 48 45  1  0  0  0  0
 48 46  1  0  0  0  0
 50 49  1  0  0  0  0
 53 55  1  0  0  0  0
 54 55  1  0  0  0  0
 54 51  1  0  0  0  0
 55 52  2  0  0  0  0
 56 57  2  0  0  0  0
 56 61  1  0  0  0  0
 57 58  1  0  0  0  0
 58 62  1  0  0  0  0
 58 60  2  0  0  0  0
 59 60  1  0  0  0  0
 60 54  1  0  0  0  0
 61 59  2  0  0  0  0
M  END
>  <MODEL>
1

>  <REMARK>
 VINA RESULT:      -5.7      0.000      0.000
  Name = 
  19 active torsions:
  status: ('A' for Active; 'I' for Inactive)
    1  A    between atoms: O_2  and  C_22
    2  A    between atoms: O_2  and  C_54
    3  A    between atoms: C_4  and  C_29
    4  A    between atoms: N_9  and  C_45
    5  A    between atoms: C_10  and  C_29
    6  A    between atoms: C_10  and  C_30
    7  A    between atoms: C_13  and  C_34
    8  A    between atoms: C_13  and  C_42
    9  A    between atoms: C_14  and  N_20
   10  A    between atoms: C_25  and  N_36
   11  A    between atoms: O_26  and  C_56
   12  A    between atoms: C_28  and  C_50
   13  A    between atoms: C_28  and  C_52
   14  A    between atoms: C_28  and  C_61
   15  A    between atoms: N_36  and  C_52
   16  A    between atoms: N_44  and  C_58
   17  A    between atoms: C_45  and  N_51
   18  A    between atoms: N_51  and  N_55
   19  A    between atoms: C_57  and  O_60
                            x       y       z     vdW  Elec       q    Type
                         _______ _______ _______ _____ _____    ______ ____

>  <TORSDO>
F 19

$$$$
=
 OpenBabel11072414053D

 62 69  0  0  1  0  0  0  0  0999 V2000
  162.4830  212.1200  148.5170 C   0  0  0  0  0  2  0  0  0  0  0  0
  160.2690  213.9020  150.5740 O   0  0  0  0  0  0  0  0  0  0  0  0
  161.0250  213.0360  150.0380 C   0  0  0  0  0  0  0  0  0  0  0  0
  162.2970  211.0790  149.6400 C   0  0  1  0  0  3  0  0  0  0  0  0
  161.3940  213.0780  148.6730 N   0  0  0  0  0  0  0  0  0  0  0  0
  161.6440  211.9070  150.7730 C   0  0  2  0  0  3  0  0  0  0  0  0
  159.8370  212.4170  144.3410 C   0  0  0  0  0  0  0  0  0  0  0  0
  160.4690  211.9750  146.6870 C   0  0  0  0  0  2  0  0  0  0  0  0
  158.0540  212.2560  146.0980 C   0  0  0  0  0  2  0  0  0  0  0  0
  157.9820  213.5100  146.9680 C   0  0  0  0  0  2  0  0  0  0  0  0
  160.0390  211.5070  143.4900 O   0  0  0  0  0  0  0  0  0  0  0  0
  159.4360  212.0610  145.6690 N   0  0  0  0  0  0  0  0  0  0  0  0
  158.9860  213.4280  148.1330 C   0  0  0  0  0  2  0  0  0  0  0  0
  160.4110  213.2050  147.5960 C   0  0  1  0  0  3  0  0  0  0  0  0
  160.2380  213.8170  144.0070 C   0  0  0  0  0  2  0  0  0  0  0  0
  161.3720  213.8200  143.0010 C   0  0  0  0  0  2  0  0  0  0  0  0
  159.5920  214.1580  141.4610 C   0  0  0  0  0  0  0  0  0  0  0  0
  160.7390  213.4500  140.7320 N   0  0  0  0  0  0  0  0  0  0  0  0
  160.9330  214.4470  141.6920 C   0  0  2  0  0  3  0  0  0  0  0  0
  158.3580  214.3210  141.6840 O   0  0  0  0  0  0  0  0  0  0  0  0
  160.1440  212.2430  138.7490 N   0  0  0  0  0  0  0  0  0  0  0  0
  161.1820  212.4750  139.7500 C   0  0  2  0  0  3  0  0  0  0  0  0
  160.8190  209.9790  139.1720 C   0  0  2  0  0  3  0  0  0  0  0  0
  160.4880  210.9890  138.0950 C   0  0  0  0  0  2  0  0  0  0  0  0
  161.5530  210.8860  140.5590 S   0  0  0  0  0  0  0  0  0  0  0  0
  161.0040  214.3520  138.1600 O   0  0  0  0  0  1  0  0  0  0  0  0
  160.1180  213.3440  137.7770 C   0  0  2  0  0  3  0  0  0  0  0  0
  158.7800  213.9140  137.5980 N   0  0  0  0  0  2  0  0  0  0  0  0
  156.5370  213.5400  137.8750 C   0  0  0  0  0  1  0  0  0  0  0  0
  157.8540  212.9500  138.0130 N   0  0  0  0  0  0  0  0  0  0  0  0
  157.9330  211.8800  137.1100 N   0  0  0  0  0  1  0  0  0  0  0  0
  161.7300  209.0440  138.6820 O   0  0  0  0  0  0  0  0  0  0  0  0
  160.1360  208.2680  137.0960 C   0  0  0  0  0  1  0  0  0  0  0  0
  160.9480  207.9390  138.3310 C   0  0  0  0  0  2  0  0  0  0  0  0
  160.7890  211.6020  152.7250 O   0  0  0  0  0  1  0  0  0  0  0  0
  160.6610  211.2030  151.4780 O   0  0  0  0  0  0  0  0  0  0  0  0
  161.4240  209.9050  149.1430 C   0  0  1  0  0  3  0  0  0  0  0  0
  161.2800  209.9470  147.6160 C   0  0  0  0  0  1  0  0  0  0  0  0
  161.1230  208.0620  150.7660 C   0  0  0  0  0  2  0  0  0  0  0  0
  161.9710  208.5450  149.6070 C   0  0  1  0  0  3  0  0  0  0  0  0
  160.9280  207.4360  149.4040 C   0  0  1  0  0  3  0  0  0  0  0  0
  161.4910  206.0010  149.4510 C   0  0  1  0  0  3  0  0  0  0  0  0
  162.4910  206.1930  152.9350 N   0  0  0  0  0  0  0  0  0  0  0  0
  162.8000  205.8450  151.6460 O   0  0  0  0  0  0  0  0  0  0  0  0
  160.4850  205.6920  151.8470 C   0  0  1  0  0  3  0  0  0  0  0  0
  160.8690  204.2770  151.4040 C   0  0  0  0  0  2  0  0  0  0  0  0
  161.2170  206.0960  153.0950 C   0  0  0  0  0  0  0  0  0  0  0  0
  161.6560  205.4710  150.8960 C   0  0  1  0  0  0  0  0  0  0  0  0
  160.5250  207.7080  154.8160 C   0  0  0  0  0  1  0  0  0  0  0  0
  160.6140  206.3780  154.3160 O   0  0  0  0  0  0  0  0  0  0  0  0
  160.6650  205.0450  148.5530 C   0  0  0  0  0  2  0  0  0  0  0  0
  162.8450  206.1390  147.2800 O   0  0  0  0  0  0  0  0  0  0  0  0
  162.9950  204.5260  145.6400 N   0  0  0  0  0  1  0  0  0  0  0  0
  161.4920  204.2550  147.6300 N   0  0  0  0  0  0  0  0  0  0  0  0
  162.4710  205.0060  146.8730 C   0  0  0  0  0  0  0  0  0  0  0  0
  161.2140  200.0270  147.2390 C   0  0  0  0  0  3  0  0  0  0  0  0
  160.9560  200.8310  146.1770 N   0  0  0  0  0  0  0  0  0  0  0  0
  160.9740  202.1860  146.2770 C   0  0  0  0  0  0  0  0  0  0  0  0
  161.5590  201.9710  148.6030 C   0  0  0  0  0  3  0  0  0  0  0  0
  161.3270  202.8120  147.5030 C   0  0  0  0  0  0  0  0  0  0  0  0
  161.5070  200.5870  148.4790 C   0  0  0  0  0  3  0  0  0  0  0  0
  160.6500  202.9000  145.1740 F   0  0  0  0  0  0  0  0  0  0  0  0
  1  5  1  0  0  0  0
  1  4  1  0  0  0  0
  3  2  2  0  0  0  0
  3  6  1  0  0  0  0
  4 37  1  6  0  0  0
  4  6  1  0  0  0  0
  5  3  1  0  0  0  0
  6 36  1  6  0  0  0
  7 12  1  0  0  0  0
  9 10  1  0  0  0  0
 10 13  1  0  0  0  0
 11  7  2  0  0  0  0
 12  9  1  0  0  0  0
 12  8  1  0  0  0  0
 14  8  1  1  0  0  0
 14 13  1  0  0  0  0
 14  5  1  0  0  0  0
 15  7  1  0  0  0  0
 16 15  1  0  0  0  0
 17 20  2  0  0  0  0
 17 19  1  0  0  0  0
 18 17  1  0  0  0  0
 18 19  1  0  0  0  0
 19 16  1  1  0  0  0
 21 22  1  0  0  0  0
 22 25  1  0  0  0  0
 22 18  1  1  0  0  0
 23 32  1  6  0  0  0
 23 25  1  0  0  0  0
 24 21  1  0  0  0  0
 24 23  1  0  0  0  0
 27 26  1  1  0  0  0
 27 21  1  0  0  0  0
 28 27  1  0  0  0  0
 28 30  1  0  0  0  0
 29 30  1  0  0  0  0
 31 30  1  0  0  0  0
 33 34  1  0  0  0  0
 34 32  1  0  0  0  0
 36 35  1  0  0  0  0
 37 38  1  6  0  0  0
 40 37  1  6  0  0  0
 40 39  1  0  0  0  0
 41 42  1  1  0  0  0
 41 40  1  0  0  0  0
 41 39  1  0  0  0  0
 42 51  1  6  0  0  0
 43 47  2  0  0  0  0
 44 43  1  0  0  0  0
 45 46  1  1  0  0  0
 45 47  1  0  0  0  0
 47 50  1  0  0  0  0
 48 42  1  6  0  0  0
 48 46  1  0  0  0  0
 48 44  1  0  0  0  0
 48 45  1  0  0  0  0
 50 49  1  0  0  0  0
 53 55  1  0  0  0  0
 54 51  1  0  0  0  0
 55 52  2  0  0  0  0
 55 54  1  0  0  0  0
 56 61  1  0  0  0  0
 57 58  1  0  0  0  0
 57 56  2  0  0  0  0
 58 60  2  0  0  0  0
 60 54  1  0  0  0  0
 60 59  1  0  0  0  0
 61 59  2  0  0  0  0
 62 58  1  0  0  0  0
M  END
>  <MODEL>
2

>  <REMARK>
 VINA RESULT:      -2.8      2.004      3.390
  Name = 
  19 active torsions:
  status: ('A' for Active; 'I' for Inactive)
    1  A    between atoms: O_2  and  C_22
    2  A    between atoms: O_2  and  C_54
    3  A    between atoms: C_4  and  C_29
    4  A    between atoms: N_9  and  C_45
    5  A    between atoms: C_10  and  C_29
    6  A    between atoms: C_10  and  C_30
    7  A    between atoms: C_13  and  C_34
    8  A    between atoms: C_13  and  C_42
    9  A    between atoms: C_14  and  N_20
   10  A    between atoms: C_25  and  N_36
   11  A    between atoms: O_26  and  C_56
   12  A    between atoms: C_28  and  C_50
   13  A    between atoms: C_28  and  C_52
   14  A    between atoms: C_28  and  C_61
   15  A    between atoms: N_36  and  C_52
   16  A    between atoms: N_44  and  C_58
   17  A    between atoms: C_45  and  N_51
   18  A    between atoms: N_51  and  N_55
   19  A    between atoms: C_57  and  O_60
                            x       y       z     vdW  Elec       q    Type
                         _______ _______ _______ _____ _____    ______ ____

>  <TORSDO>
F 19

$$$$
