=
 OpenBabel11072413263D

 41 46  0  0  1  0  0  0  0  0999 V2000
  159.7000  212.6850  152.1890 C   0  0  0  0  0  0  0  0  0  0  0  0
  158.8970  213.6740  150.1000 C   0  0  0  0  0  0  0  0  0  0  0  0
  157.9880  214.4040  152.2790 C   0  0  0  0  0  2  0  0  0  0  0  0
  158.8380  213.6690  148.7900 C   0  0  0  0  0  0  0  0  0  0  0  0
  160.7530  209.0360  151.9140 C   0  0  0  0  0  1  0  0  0  0  0  0
  158.9610  213.6730  151.4030 C   0  0  0  0  0  0  0  0  0  0  0  0
  157.7270  212.8730  155.8470 C   0  0  0  0  0  2  0  0  0  0  0  0
  160.2460  210.4410  153.9770 C   0  0  1  0  0  3  0  0  0  0  0  0
  158.2950  210.5800  156.0350 O   0  0  0  0  0  0  0  0  0  0  0  0
  159.6870  211.7810  154.5200 C   0  0  1  0  0  3  0  0  0  0  0  0
  159.3330  212.7770  153.4510 C   0  0  0  0  0  0  0  0  0  0  0  0
  160.0540  210.2720  152.4490 C   0  0  1  0  0  3  0  0  0  0  0  0
  158.5270  211.6420  155.4790 C   0  0  0  0  0  0  0  0  0  0  0  0
  160.4880  211.5210  151.6780 C   0  0  0  0  0  2  0  0  0  0  0  0
  158.2600  213.7450  153.5900 C   0  0  0  0  0  0  0  0  0  0  0  0
  157.4470  213.7490  154.6470 C   0  0  0  0  0  3  0  0  0  0  0  0
  161.3320  214.0490  148.6440 C   0  0  0  0  0  2  0  0  0  0  0  0
  161.0970  213.3880  145.8570 C   0  0  0  0  0  0  0  0  0  0  0  0
  163.3120  214.4530  145.4850 O   0  0  0  0  0  1  0  0  0  0  0  0
  160.0370  213.2260  146.6480 C   0  0  0  0  0  3  0  0  0  0  0  0
  162.2860  214.1070  146.3560 C   0  0  0  0  0  0  0  0  0  0  0  0
  162.3770  214.4520  147.6410 C   0  0  0  0  0  3  0  0  0  0  0  0
  160.0510  213.6970  148.0070 N   0  0  0  0  0  0  0  0  0  0  0  0
  160.9980  212.5380  143.4080 N   0  0  0  0  0  0  0  0  0  0  0  0
  161.0420  212.9170  144.5010 C   0  0  0  0  0  0  0  0  0  0  0  0
  156.3930  213.7910  149.1290 C   0  0  0  0  0  2  0  0  0  0  0  0
  156.7280  212.6630  148.3620 O   0  0  0  0  0  0  0  0  0  0  0  0
  157.4940  213.8230  148.1330 C   0  0  2  0  0  3  0  0  0  0  0  0
  161.6560  210.3330  154.3330 N   0  0  0  0  0  2  0  0  0  0  0  0
  161.7850  209.2300  155.2720 C   0  0  1  0  0  3  0  0  0  0  0  0
  163.1860  210.7330  156.9070 C   0  0  0  0  0  1  0  0  0  0  0  0
  161.5980  209.8550  156.9690 S   0  0  0  0  0  0  0  0  0  0  0  0
  160.7120  208.1940  154.9840 C   0  0  0  0  0  2  0  0  0  0  0  0
  161.3460  206.8300  154.7740 C   0  0  0  0  0  2  0  0  0  0  0  0
  160.6390  206.0860  153.6530 C   0  0  0  0  0  2  0  0  0  0  0  0
  160.9730  205.0760  148.8740 S   0  0  0  0  0  0  0  0  0  0  0  0
  161.6370  206.0670  151.3540 C   0  0  0  0  0  2  0  0  0  0  0  0
  161.2100  204.9480  150.4850 C   0  0  0  0  0  0  0  0  0  0  0  0
  160.9520  203.7650  151.2090 N   0  0  0  0  0  0  0  0  0  0  0  0
  161.6380  205.4010  152.7310 C   0  0  2  0  0  3  0  0  0  0  0  0
  161.1850  203.9990  152.4540 C   0  0  0  0  0  3  0  0  0  0  0  0
  1 11  2  0  0  0  0
  2  6  2  0  0  0  0
  3 15  1  0  0  0  0
  4  2  2  0  0  0  0
  6  1  1  0  0  0  0
  6  3  1  0  0  0  0
  8 29  1  6  0  0  0
  8 10  1  0  0  0  0
 10 11  1  6  0  0  0
 10 13  1  0  0  0  0
 11 15  1  0  0  0  0
 12  5  1  6  0  0  0
 12  8  1  0  0  0  0
 13  7  1  0  0  0  0
 13  9  2  0  0  0  0
 14  1  1  0  0  0  0
 14 12  1  0  0  0  0
 15 16  2  0  0  0  0
 16  7  1  0  0  0  0
 18 21  1  0  0  0  0
 18 20  2  0  0  0  0
 19 21  1  0  0  0  0
 20 23  1  0  0  0  0
 21 22  2  0  0  0  0
 22 17  1  0  0  0  0
 23 17  1  0  0  0  0
 23  4  1  0  0  0  0
 24 25  3  0  0  0  0
 25 18  1  0  0  0  0
 27 26  1  0  0  0  0
 28 27  1  0  0  0  0
 28  4  1  1  0  0  0
 28 26  1  0  0  0  0
 29 30  1  0  0  0  0
 30 33  1  6  0  0  0
 30 32  1  0  0  0  0
 31 32  1  0  0  0  0
 34 33  1  0  0  0  0
 35 34  1  0  0  0  0
 36 38  2  0  0  0  0
 37 40  1  0  0  0  0
 38 39  1  0  0  0  0
 38 37  1  0  0  0  0
 39 41  2  0  0  0  0
 40 35  1  1  0  0  0
 41 40  1  0  0  0  0
M  END
>  <MODEL>
1

>  <REMARK>
 VINA RESULT:      -6.6      0.000      0.000
  Name = 
  10 active torsions:
  status: ('A' for Active; 'I' for Inactive)
    1  A    between atoms: C_1  and  C_6
    2  A    between atoms: C_1  and  C_37
    3  A    between atoms: C_6  and  C_29
    4  A    between atoms: C_7  and  N_33
    5  A    between atoms: C_7  and  C_38
    6  A    between atoms: S_10  and  C_29
    7  A    between atoms: C_16  and  C_41
    8  A    between atoms: C_19  and  N_22
    9  A    between atoms: N_22  and  C_29
   10  A    between atoms: C_25  and  C_37
                            x       y       z     vdW  Elec       q    Type
                         _______ _______ _______ _____ _____    ______ ____

>  <TORSDO>
F 10

$$$$
=
 OpenBabel11072413263D

 41 46  0  0  1  0  0  0  0  0999 V2000
  160.7760  207.9570  153.1400 C   0  0  0  0  0  0  0  0  0  0  0  0
  161.1430  205.8060  152.0340 C   0  0  0  0  0  0  0  0  0  0  0  0
  160.1090  205.9190  154.2770 C   0  0  0  0  0  2  0  0  0  0  0  0
  161.6810  205.1030  151.0670 C   0  0  0  0  0  0  0  0  0  0  0  0
  163.3660  210.6260  152.3160 C   0  0  0  0  0  1  0  0  0  0  0  0
  160.6100  206.5120  152.9930 C   0  0  0  0  0  0  0  0  0  0  0  0
  160.0780  208.4780  157.2080 C   0  0  0  0  0  2  0  0  0  0  0  0
  161.6550  210.5340  154.2010 C   0  0  1  0  0  3  0  0  0  0  0  0
  161.6070  210.2800  157.0280 O   0  0  0  0  0  0  0  0  0  0  0  0
  160.6080  209.6720  154.9530 C   0  0  1  0  0  3  0  0  0  0  0  0
  160.3740  208.3180  154.3420 C   0  0  0  0  0  0  0  0  0  0  0  0
  162.4690  209.7330  153.1550 C   0  0  1  0  0  3  0  0  0  0  0  0
  160.8620  209.5160  156.4340 C   0  0  0  0  0  0  0  0  0  0  0  0
  161.5650  208.8760  152.2630 C   0  0  0  0  0  2  0  0  0  0  0  0
  160.0130  207.1470  155.1200 C   0  0  0  0  0  0  0  0  0  0  0  0
  159.9600  207.1740  156.4520 C   0  0  0  0  0  3  0  0  0  0  0  0
  161.2350  206.8560  149.3030 C   0  0  0  0  0  2  0  0  0  0  0  0
  161.1320  204.6890  147.4200 C   0  0  0  0  0  0  0  0  0  0  0  0
  159.9690  206.2090  145.8330 O   0  0  0  0  0  1  0  0  0  0  0  0
  161.5160  204.4360  148.6700 C   0  0  0  0  0  3  0  0  0  0  0  0
  160.5530  206.0030  147.0780 C   0  0  0  0  0  0  0  0  0  0  0  0
  160.5610  206.9970  147.9660 C   0  0  0  0  0  3  0  0  0  0  0  0
  161.4250  205.4470  149.6890 N   0  0  0  0  0  0  0  0  0  0  0  0
  161.2980  202.8130  145.6350 N   0  0  0  0  0  0  0  0  0  0  0  0
  161.2240  203.6500  146.4310 C   0  0  0  0  0  0  0  0  0  0  0  0
  161.5770  202.6350  151.1450 C   0  0  0  0  0  2  0  0  0  0  0  0
  161.7000  203.1630  152.4400 O   0  0  0  0  0  0  0  0  0  0  0  0
  162.4070  203.8340  151.4230 C   0  0  2  0  0  3  0  0  0  0  0  0
  160.9790  211.6630  153.5720 N   0  0  0  0  0  2  0  0  0  0  0  0
  159.5990  211.6570  154.0330 C   0  0  1  0  0  3  0  0  0  0  0  0
  157.5380  213.0280  154.9080 C   0  0  0  0  0  1  0  0  0  0  0  0
  159.3350  213.0550  155.1660 S   0  0  0  0  0  0  0  0  0  0  0  0
  158.6690  211.7790  152.8390 C   0  0  0  0  0  2  0  0  0  0  0  0
  159.3650  212.5160  151.7070 C   0  0  0  0  0  2  0  0  0  0  0  0
  158.3530  213.3010  150.8880 C   0  0  0  0  0  2  0  0  0  0  0  0
  159.8910  212.4940  146.3110 S   0  0  0  0  0  0  0  0  0  0  0  0
  158.5460  213.6510  148.4140 C   0  0  0  0  0  2  0  0  0  0  0  0
  159.7990  213.1620  147.7980 C   0  0  0  0  0  0  0  0  0  0  0  0
  160.9070  213.2630  148.6670 N   0  0  0  0  0  0  0  0  0  0  0  0
  159.0370  214.1030  149.7900 C   0  0  2  0  0  3  0  0  0  0  0  0
  160.5020  213.7820  149.7740 C   0  0  0  0  0  3  0  0  0  0  0  0
  1 11  2  0  0  0  0
  2  6  2  0  0  0  0
  3 15  1  0  0  0  0
  4  2  2  0  0  0  0
  6  1  1  0  0  0  0
  6  3  1  0  0  0  0
  8 29  1  6  0  0  0
  8 10  1  0  0  0  0
 10 11  1  6  0  0  0
 10 13  1  0  0  0  0
 11 15  1  0  0  0  0
 12  5  1  6  0  0  0
 12  8  1  0  0  0  0
 13  9  2  0  0  0  0
 13  7  1  0  0  0  0
 14  1  1  0  0  0  0
 14 12  1  0  0  0  0
 15 16  2  0  0  0  0
 16  7  1  0  0  0  0
 17 23  1  0  0  0  0
 18 20  2  0  0  0  0
 19 21  1  0  0  0  0
 20 23  1  0  0  0  0
 21 18  1  0  0  0  0
 21 22  2  0  0  0  0
 22 17  1  0  0  0  0
 23  4  1  0  0  0  0
 24 25  3  0  0  0  0
 25 18  1  0  0  0  0
 26 28  1  0  0  0  0
 26 27  1  0  0  0  0
 28  4  1  6  0  0  0
 28 27  1  0  0  0  0
 29 30  1  0  0  0  0
 30 33  1  6  0  0  0
 30 32  1  0  0  0  0
 31 32  1  0  0  0  0
 34 33  1  0  0  0  0
 35 34  1  0  0  0  0
 36 38  2  0  0  0  0
 37 40  1  0  0  0  0
 38 37  1  0  0  0  0
 38 39  1  0  0  0  0
 39 41  2  0  0  0  0
 40 35  1  1  0  0  0
 41 40  1  0  0  0  0
M  END
>  <MODEL>
2

>  <REMARK>
 VINA RESULT:      -5.4      3.066      7.559
  Name = 
  10 active torsions:
  status: ('A' for Active; 'I' for Inactive)
    1  A    between atoms: C_1  and  C_6
    2  A    between atoms: C_1  and  C_37
    3  A    between atoms: C_6  and  C_29
    4  A    between atoms: C_7  and  N_33
    5  A    between atoms: C_7  and  C_38
    6  A    between atoms: S_10  and  C_29
    7  A    between atoms: C_16  and  C_41
    8  A    between atoms: C_19  and  N_22
    9  A    between atoms: N_22  and  C_29
   10  A    between atoms: C_25  and  C_37
                            x       y       z     vdW  Elec       q    Type
                         _______ _______ _______ _____ _____    ______ ____

>  <TORSDO>
F 10

$$$$
=
 OpenBabel11072413263D

 41 46  0  0  1  0  0  0  0  0999 V2000
  161.0240  206.7580  150.7690 C   0  0  0  0  0  0  0  0  0  0  0  0
  161.1860  204.3190  150.6850 C   0  0  0  0  0  0  0  0  0  0  0  0
  160.5820  205.4780  152.7830 C   0  0  0  0  0  2  0  0  0  0  0  0
  161.5400  203.2250  150.0550 C   0  0  0  0  0  0  0  0  0  0  0  0
  163.4130  208.5870  148.4330 C   0  0  0  0  0  1  0  0  0  0  0  0
  160.8370  205.4110  151.3060 C   0  0  0  0  0  0  0  0  0  0  0  0
  161.0830  209.0520  154.2390 C   0  0  0  0  0  2  0  0  0  0  0  0
  162.0770  209.4610  150.4180 C   0  0  1  0  0  3  0  0  0  0  0  0
  162.5490  210.4670  153.0300 O   0  0  0  0  0  0  0  0  0  0  0  0
  161.1870  209.0980  151.6350 C   0  0  1  0  0  3  0  0  0  0  0  0
  160.8480  207.6370  151.7340 C   0  0  0  0  0  0  0  0  0  0  0  0
  162.6870  208.2230  149.7150 C   0  0  1  0  0  3  0  0  0  0  0  0
  161.7090  209.5830  152.9680 C   0  0  0  0  0  0  0  0  0  0  0  0
  161.6370  207.1380  149.4580 C   0  0  0  0  0  2  0  0  0  0  0  0
  160.6380  206.9540  152.9980 C   0  0  0  0  0  0  0  0  0  0  0  0
  160.8310  207.5620  154.1690 C   0  0  0  0  0  3  0  0  0  0  0  0
  160.0940  201.8420  148.5120 C   0  0  0  0  0  2  0  0  0  0  0  0
  161.0040  203.5600  146.3970 C   0  0  0  0  0  0  0  0  0  0  0  0
  160.2500  201.8430  144.7650 O   0  0  0  0  0  1  0  0  0  0  0  0
  161.3210  203.8650  147.6540 C   0  0  0  0  0  3  0  0  0  0  0  0
  160.4010  202.2490  146.0860 C   0  0  0  0  0  0  0  0  0  0  0  0
  160.0170  201.4320  147.0680 C   0  0  0  0  0  3  0  0  0  0  0  0
  161.0350  202.9530  148.7300 N   0  0  0  0  0  0  0  0  0  0  0  0
  161.5710  205.2380  144.5000 N   0  0  0  0  0  0  0  0  0  0  0  0
  161.3180  204.4890  145.3460 C   0  0  0  0  0  0  0  0  0  0  0  0
  161.4270  201.1830  151.4430 C   0  0  0  0  0  2  0  0  0  0  0  0
  161.9810  202.2460  152.1750 O   0  0  0  0  0  0  0  0  0  0  0  0
  162.3220  202.1840  150.8090 C   0  0  2  0  0  3  0  0  0  0  0  0
  161.2950  210.2530  149.4760 N   0  0  0  0  0  2  0  0  0  0  0  0
  161.6990  211.6410  149.6330 C   0  0  1  0  0  3  0  0  0  0  0  0
  160.9620  212.3410  147.2120 C   0  0  0  0  0  1  0  0  0  0  0  0
  162.5300  212.2040  148.1160 S   0  0  0  0  0  0  0  0  0  0  0  0
  160.4720  212.4970  149.8960 C   0  0  0  0  0  2  0  0  0  0  0  0
  160.3270  212.7580  151.3850 C   0  0  0  0  0  2  0  0  0  0  0  0
  159.0620  212.1020  151.9150 C   0  0  0  0  0  2  0  0  0  0  0  0
  155.8550  210.9550  155.4300 S   0  0  0  0  0  0  0  0  0  0  0  0
  158.2670  211.4150  154.1900 C   0  0  0  0  0  2  0  0  0  0  0  0
  156.8960  211.8440  154.5410 C   0  0  0  0  0  0  0  0  0  0  0  0
  156.5470  213.0810  153.9570 N   0  0  0  0  0  0  0  0  0  0  0  0
  158.7410  212.5830  153.3230 C   0  0  2  0  0  3  0  0  0  0  0  0
  157.5590  213.5040  153.2800 C   0  0  0  0  0  3  0  0  0  0  0  0
  1  6  1  0  0  0  0
  1 11  2  0  0  0  0
  2  6  2  0  0  0  0
  3 15  1  0  0  0  0
  4  2  2  0  0  0  0
  6  3  1  0  0  0  0
  8 29  1  6  0  0  0
  8 10  1  0  0  0  0
 10 11  1  1  0  0  0
 10 13  1  0  0  0  0
 11 15  1  0  0  0  0
 12  5  1  6  0  0  0
 12  8  1  0  0  0  0
 13  9  2  0  0  0  0
 13  7  1  0  0  0  0
 14 12  1  0  0  0  0
 14  1  1  0  0  0  0
 15 16  2  0  0  0  0
 16  7  1  0  0  0  0
 17 23  1  0  0  0  0
 18 20  2  0  0  0  0
 19 21  1  0  0  0  0
 20 23  1  0  0  0  0
 21 18  1  0  0  0  0
 21 22  2  0  0  0  0
 22 17  1  0  0  0  0
 23  4  1  0  0  0  0
 24 25  3  0  0  0  0
 25 18  1  0  0  0  0
 26 27  1  0  0  0  0
 28  4  1  6  0  0  0
 28 26  1  0  0  0  0
 28 27  1  0  0  0  0
 29 30  1  0  0  0  0
 30 33  1  6  0  0  0
 31 32  1  0  0  0  0
 32 30  1  0  0  0  0
 33 34  1  0  0  0  0
 34 35  1  0  0  0  0
 37 38  1  0  0  0  0
 38 36  2  0  0  0  0
 39 38  1  0  0  0  0
 40 35  1  6  0  0  0
 40 37  1  0  0  0  0
 41 40  1  0  0  0  0
 41 39  2  0  0  0  0
M  END
>  <MODEL>
3

>  <REMARK>
 VINA RESULT:      -4.7      4.043      8.816
  Name = 
  10 active torsions:
  status: ('A' for Active; 'I' for Inactive)
    1  A    between atoms: C_1  and  C_6
    2  A    between atoms: C_1  and  C_37
    3  A    between atoms: C_6  and  C_29
    4  A    between atoms: C_7  and  N_33
    5  A    between atoms: C_7  and  C_38
    6  A    between atoms: S_10  and  C_29
    7  A    between atoms: C_16  and  C_41
    8  A    between atoms: C_19  and  N_22
    9  A    between atoms: N_22  and  C_29
   10  A    between atoms: C_25  and  C_37
                            x       y       z     vdW  Elec       q    Type
                         _______ _______ _______ _____ _____    ______ ____

>  <TORSDO>
F 10

$$$$
=
 OpenBabel11072413263D

 41 46  0  0  1  0  0  0  0  0999 V2000
  161.4410  209.5410  151.7440 C   0  0  0  0  0  0  0  0  0  0  0  0
  160.6940  211.7480  150.9960 C   0  0  0  0  0  0  0  0  0  0  0  0
  161.0610  211.2790  153.3950 C   0  0  0  0  0  2  0  0  0  0  0  0
  160.2350  212.5310  150.0500 C   0  0  0  0  0  0  0  0  0  0  0  0
  160.2070  206.6410  149.6050 C   0  0  0  0  0  1  0  0  0  0  0  0
  161.1510  210.9620  151.9320 C   0  0  0  0  0  0  0  0  0  0  0  0
  161.1460  208.0970  155.6340 C   0  0  0  0  0  2  0  0  0  0  0  0
  161.2140  206.6350  151.9450 C   0  0  1  0  0  3  0  0  0  0  0  0
  160.4100  206.0900  154.6120 O   0  0  0  0  0  0  0  0  0  0  0  0
  161.6720  207.4900  153.1550 C   0  0  1  0  0  3  0  0  0  0  0  0
  161.5990  208.9730  152.9220 C   0  0  0  0  0  0  0  0  0  0  0  0
  160.4950  207.4610  150.8490 C   0  0  1  0  0  3  0  0  0  0  0  0
  160.9910  207.1530  154.4610 C   0  0  0  0  0  0  0  0  0  0  0  0
  161.2680  208.7350  150.4960 C   0  0  0  0  0  2  0  0  0  0  0  0
  161.3280  209.9310  153.9790 C   0  0  0  0  0  0  0  0  0  0  0  0
  161.0240  209.5460  155.2180 C   0  0  0  0  0  3  0  0  0  0  0  0
  162.3440  212.1900  148.7000 C   0  0  0  0  0  2  0  0  0  0  0  0
  160.9300  213.3940  146.5070 C   0  0  0  0  0  0  0  0  0  0  0  0
  163.1190  213.7840  145.3950 O   0  0  0  0  0  1  0  0  0  0  0  0
  160.2620  213.1110  147.6240 C   0  0  0  0  0  3  0  0  0  0  0  0
  162.4030  213.3040  146.4860 C   0  0  0  0  0  0  0  0  0  0  0  0
  163.0640  212.7850  147.5220 C   0  0  0  0  0  3  0  0  0  0  0  0
  160.9530  212.6650  148.8050 N   0  0  0  0  0  0  0  0  0  0  0  0
  159.6260  214.2170  144.4200 N   0  0  0  0  0  0  0  0  0  0  0  0
  160.2080  213.8500  145.3510 C   0  0  0  0  0  0  0  0  0  0  0  0
  159.3860  214.3930  151.4370 C   0  0  0  0  0  2  0  0  0  0  0  0
  158.6670  213.2150  151.7000 O   0  0  0  0  0  0  0  0  0  0  0  0
  159.0630  213.4200  150.3630 C   0  0  2  0  0  3  0  0  0  0  0  0
  162.3690  205.9400  151.3890 N   0  0  0  0  0  2  0  0  0  0  0  0
  162.1220  204.5120  151.5170 C   0  0  1  0  0  3  0  0  0  0  0  0
  160.7120  202.4470  152.3190 C   0  0  0  0  0  1  0  0  0  0  0  0
  160.4810  204.2470  152.2560 S   0  0  0  0  0  0  0  0  0  0  0  0
  162.1790  203.8650  150.1440 C   0  0  0  0  0  2  0  0  0  0  0  0
  160.8070  203.8960  149.4940 C   0  0  0  0  0  2  0  0  0  0  0  0
  160.5940  202.6500  148.6510 C   0  0  0  0  0  2  0  0  0  0  0  0
  161.1300  205.0930  144.4430 S   0  0  0  0  0  0  0  0  0  0  0  0
  161.7470  204.0280  146.9040 C   0  0  0  0  0  2  0  0  0  0  0  0
  161.2250  203.8770  145.5280 C   0  0  0  0  0  0  0  0  0  0  0  0
  160.7420  202.5750  145.2700 N   0  0  0  0  0  0  0  0  0  0  0  0
  161.5470  202.6190  147.4640 C   0  0  2  0  0  3  0  0  0  0  0  0
  160.9140  201.8670  146.3320 C   0  0  0  0  0  3  0  0  0  0  0  0
  1  6  1  0  0  0  0
  1 11  2  0  0  0  0
  2  6  2  0  0  0  0
  3 15  1  0  0  0  0
  4  2  2  0  0  0  0
  6  3  1  0  0  0  0
  8 29  1  6  0  0  0
  8 10  1  0  0  0  0
 10 11  1  6  0  0  0
 10 13  1  0  0  0  0
 11 15  1  0  0  0  0
 12  5  1  6  0  0  0
 12  8  1  0  0  0  0
 13  9  2  0  0  0  0
 13  7  1  0  0  0  0
 14 12  1  0  0  0  0
 14  1  1  0  0  0  0
 15 16  2  0  0  0  0
 16  7  1  0  0  0  0
 17 23  1  0  0  0  0
 18 20  2  0  0  0  0
 19 21  1  0  0  0  0
 20 23  1  0  0  0  0
 21 18  1  0  0  0  0
 21 22  2  0  0  0  0
 22 17  1  0  0  0  0
 23  4  1  0  0  0  0
 24 25  3  0  0  0  0
 25 18  1  0  0  0  0
 26 27  1  0  0  0  0
 28  4  1  1  0  0  0
 28 26  1  0  0  0  0
 28 27  1  0  0  0  0
 29 30  1  0  0  0  0
 30 33  1  6  0  0  0
 30 32  1  0  0  0  0
 32 31  1  0  0  0  0
 34 33  1  0  0  0  0
 35 34  1  0  0  0  0
 36 38  2  0  0  0  0
 37 40  1  0  0  0  0
 38 37  1  0  0  0  0
 39 38  1  0  0  0  0
 39 41  2  0  0  0  0
 40 35  1  1  0  0  0
 41 40  1  0  0  0  0
M  END
>  <MODEL>
4

>  <REMARK>
 VINA RESULT:      -4.7      2.577      4.614
  Name = 
  10 active torsions:
  status: ('A' for Active; 'I' for Inactive)
    1  A    between atoms: C_1  and  C_6
    2  A    between atoms: C_1  and  C_37
    3  A    between atoms: C_6  and  C_29
    4  A    between atoms: C_7  and  N_33
    5  A    between atoms: C_7  and  C_38
    6  A    between atoms: S_10  and  C_29
    7  A    between atoms: C_16  and  C_41
    8  A    between atoms: C_19  and  N_22
    9  A    between atoms: N_22  and  C_29
   10  A    between atoms: C_25  and  C_37
                            x       y       z     vdW  Elec       q    Type
                         _______ _______ _______ _____ _____    ______ ____

>  <TORSDO>
F 10

$$$$
=
 OpenBabel11072413263D

 41 46  0  0  1  0  0  0  0  0999 V2000
  161.0710  210.0430  152.4620 C   0  0  0  0  0  0  0  0  0  0  0  0
  160.0080  212.1800  151.9240 C   0  0  0  0  0  0  0  0  0  0  0  0
  160.4590  211.5440  154.2690 C   0  0  0  0  0  2  0  0  0  0  0  0
  159.4320  212.9760  151.0550 C   0  0  0  0  0  0  0  0  0  0  0  0
  160.2470  207.2120  150.0510 C   0  0  0  0  0  1  0  0  0  0  0  0
  160.5810  211.3830  152.7830 C   0  0  0  0  0  0  0  0  0  0  0  0
  161.0220  208.2090  156.1950 C   0  0  0  0  0  2  0  0  0  0  0  0
  161.2660  207.1300  152.3830 C   0  0  1  0  0  3  0  0  0  0  0  0
  160.5730  206.2230  154.9830 O   0  0  0  0  0  0  0  0  0  0  0  0
  161.6070  207.9220  153.6720 C   0  0  1  0  0  3  0  0  0  0  0  0
  161.3200  209.3950  153.5810 C   0  0  0  0  0  0  0  0  0  0  0  0
  160.4260  207.9430  151.3690 C   0  0  1  0  0  3  0  0  0  0  0  0
  160.9930  207.3690  154.9370 C   0  0  0  0  0  0  0  0  0  0  0  0
  161.0040  209.3430  151.1410 C   0  0  0  0  0  2  0  0  0  0  0  0
  160.9230  210.1990  154.7230 C   0  0  0  0  0  0  0  0  0  0  0  0
  160.6900  209.6580  155.9190 C   0  0  0  0  0  3  0  0  0  0  0  0
  159.6240  214.4530  149.0140 C   0  0  0  0  0  2  0  0  0  0  0  0
  161.9200  212.8800  148.3020 C   0  0  0  0  0  0  0  0  0  0  0  0
  161.7180  213.7520  145.9840 O   0  0  0  0  0  1  0  0  0  0  0  0
  161.3560  212.6900  149.4940 C   0  0  0  0  0  3  0  0  0  0  0  0
  161.2410  213.7100  147.2890 C   0  0  0  0  0  0  0  0  0  0  0  0
  160.1500  214.4070  147.6060 C   0  0  0  0  0  3  0  0  0  0  0  0
  160.1120  213.3290  149.8310 N   0  0  0  0  0  0  0  0  0  0  0  0
  164.1530  211.6790  147.7490 N   0  0  0  0  0  0  0  0  0  0  0  0
  163.1570  212.2150  147.9950 C   0  0  0  0  0  0  0  0  0  0  0  0
  158.2850  214.3900  152.7270 C   0  0  0  0  0  2  0  0  0  0  0  0
  157.6910  213.1180  152.6670 O   0  0  0  0  0  0  0  0  0  0  0  0
  158.1470  213.6530  151.4460 C   0  0  2  0  0  3  0  0  0  0  0  0
  162.5040  206.6630  151.7690 N   0  0  0  0  0  2  0  0  0  0  0  0
  162.4050  205.2190  151.6290 C   0  0  1  0  0  3  0  0  0  0  0  0
  161.2960  202.8990  152.1590 C   0  0  0  0  0  1  0  0  0  0  0  0
  160.8490  204.6450  152.3760 S   0  0  0  0  0  0  0  0  0  0  0  0
  162.4340  204.8530  150.1560 C   0  0  0  0  0  2  0  0  0  0  0  0
  161.0200  204.7850  149.6050 C   0  0  0  0  0  2  0  0  0  0  0  0
  160.8370  203.5240  148.7760 C   0  0  0  0  0  2  0  0  0  0  0  0
  161.2000  205.4550  144.2930 S   0  0  0  0  0  0  0  0  0  0  0  0
  161.8590  204.8130  146.8860 C   0  0  0  0  0  2  0  0  0  0  0  0
  161.4170  204.4140  145.5310 C   0  0  0  0  0  0  0  0  0  0  0  0
  161.1250  203.0360  145.4390 N   0  0  0  0  0  0  0  0  0  0  0  0
  161.8310  203.4740  147.6240 C   0  0  2  0  0  3  0  0  0  0  0  0
  161.3490  202.5010  146.5890 C   0  0  0  0  0  3  0  0  0  0  0  0
  1  6  1  0  0  0  0
  1 11  2  0  0  0  0
  2  6  2  0  0  0  0
  3 15  1  0  0  0  0
  4  2  2  0  0  0  0
  6  3  1  0  0  0  0
  8 29  1  6  0  0  0
  8 10  1  0  0  0  0
 10 11  1  6  0  0  0
 10 13  1  0  0  0  0
 11 15  1  0  0  0  0
 12  5  1  6  0  0  0
 12  8  1  0  0  0  0
 13  9  2  0  0  0  0
 13  7  1  0  0  0  0
 14 12  1  0  0  0  0
 14  1  1  0  0  0  0
 15 16  2  0  0  0  0
 16  7  1  0  0  0  0
 17 23  1  0  0  0  0
 18 20  2  0  0  0  0
 19 21  1  0  0  0  0
 20 23  1  0  0  0  0
 21 22  2  0  0  0  0
 21 18  1  0  0  0  0
 22 17  1  0  0  0  0
 23  4  1  0  0  0  0
 24 25  3  0  0  0  0
 25 18  1  0  0  0  0
 27 26  1  0  0  0  0
 28  4  1  1  0  0  0
 28 27  1  0  0  0  0
 28 26  1  0  0  0  0
 30 33  1  6  0  0  0
 30 29  1  0  0  0  0
 30 32  1  0  0  0  0
 31 32  1  0  0  0  0
 34 33  1  0  0  0  0
 35 34  1  0  0  0  0
 36 38  2  0  0  0  0
 37 40  1  0  0  0  0
 38 37  1  0  0  0  0
 39 38  1  0  0  0  0
 39 41  2  0  0  0  0
 40 35  1  1  0  0  0
 41 40  1  0  0  0  0
M  END
>  <MODEL>
5

>  <REMARK>
 VINA RESULT:      -4.3      2.569      4.507
  Name = 
  10 active torsions:
  status: ('A' for Active; 'I' for Inactive)
    1  A    between atoms: C_1  and  C_6
    2  A    between atoms: C_1  and  C_37
    3  A    between atoms: C_6  and  C_29
    4  A    between atoms: C_7  and  N_33
    5  A    between atoms: C_7  and  C_38
    6  A    between atoms: S_10  and  C_29
    7  A    between atoms: C_16  and  C_41
    8  A    between atoms: C_19  and  N_22
    9  A    between atoms: N_22  and  C_29
   10  A    between atoms: C_25  and  C_37
                            x       y       z     vdW  Elec       q    Type
                         _______ _______ _______ _____ _____    ______ ____

>  <TORSDO>
F 10

$$$$
