=
 OpenBabel11072414123D

 28 33  0  0  1  0  0  0  0  0999 V2000
  160.1240  208.6620  156.9700 C   0  0  0  0  0  2  0  0  0  0  0  0
  158.7170  211.4870  155.6860 C   0  0  1  0  0  0  0  0  0  0  0  0
  160.7470  210.0330  154.9680 C   0  0  2  0  0  3  0  0  0  0  0  0
  159.5270  212.7210  155.8640 N   0  0  2  0  0  0  0  0  0  0  0  0
  161.3450  208.8260  152.8160 C   0  0  0  0  0  0  0  0  0  0  0  0
  160.9990  209.8150  156.4680 C   0  0  2  0  0  0  0  0  0  0  0  0
  159.3560  211.7600  156.9790 C   0  0  2  0  0  3  0  0  0  0  0  0
  162.4700  209.4970  156.7080 C   0  0  0  0  0  1  0  0  0  0  0  0
  157.6160  214.0260  155.2660 N   0  0  0  0  0  0  0  0  0  0  0  0
  158.7100  213.8920  156.2010 C   0  0  0  0  0  2  0  0  0  0  0  0
  157.1960  211.6880  155.6320 C   0  0  0  0  0  2  0  0  0  0  0  0
  162.4270  208.9570  148.7960 F   0  0  0  0  0  0  0  0  0  0  0  0
  161.4600  207.6310  152.0650 C   0  0  0  0  0  0  0  0  0  0  0  0
  160.8490  206.3370  154.0110 C   0  0  0  0  0  3  0  0  0  0  0  0
  160.7090  211.0950  157.2460 C   0  0  0  0  0  2  0  0  0  0  0  0
  161.9620  210.0970  150.8370 C   0  0  0  0  0  3  0  0  0  0  0  0
  161.2090  206.3990  152.6660 C   0  0  0  0  0  3  0  0  0  0  0  0
  156.8760  213.0110  154.9880 C   0  0  0  0  0  0  0  0  0  0  0  0
  159.3190  210.5060  154.6790 C   0  0  0  0  0  2  0  0  0  0  0  0
  162.0750  208.9130  150.1030 C   0  0  0  0  0  0  0  0  0  0  0  0
  161.8240  207.6820  150.7160 C   0  0  0  0  0  3  0  0  0  0  0  0
  160.4280  207.3460  156.2420 C   0  0  0  0  0  2  0  0  0  0  0  0
  160.9740  208.7640  154.1780 C   0  0  0  0  0  0  0  0  0  0  0  0
  160.7180  207.5020  154.7710 C   0  0  0  0  0  0  0  0  0  0  0  0
  161.5990  210.0550  152.1850 C   0  0  0  0  0  3  0  0  0  0  0  0
  155.7720  213.1710  153.9820 C   0  0  0  0  0  2  0  0  0  0  0  0
  156.4810  214.1750  151.9440 O   0  0  0  0  0  1  0  0  0  0  0  0
  155.8840  214.4530  153.1730 C   0  0  0  0  0  2  0  0  0  0  0  0
  2 19  1  6  0  0  0
  2  4  1  0  0  0  0
  2  7  1  0  0  0  0
  3 19  1  1  0  0  0
  3  6  1  0  0  0  0
  4 10  1  1  0  0  0
  4  7  1  0  0  0  0
  5 23  1  0  0  0  0
  6  8  1  1  0  0  0
  6  1  1  0  0  0  0
  6 15  1  0  0  0  0
  7 15  1  6  0  0  0
  9 10  1  0  0  0  0
 11  2  1  0  0  0  0
 12 20  1  0  0  0  0
 13 17  1  0  0  0  0
 13  5  2  0  0  0  0
 14 24  1  0  0  0  0
 16 25  2  0  0  0  0
 17 14  2  0  0  0  0
 18  9  2  0  0  0  0
 18 11  1  0  0  0  0
 20 21  2  0  0  0  0
 20 16  1  0  0  0  0
 21 13  1  0  0  0  0
 22  1  1  0  0  0  0
 23 24  2  0  0  0  0
 23  3  1  0  0  0  0
 24 22  1  0  0  0  0
 25  5  1  0  0  0  0
 26 18  1  0  0  0  0
 27 28  1  0  0  0  0
 28 26  1  0  0  0  0
M  END
>  <MODEL>
1

>  <REMARK>
 VINA RESULT:      -7.7      0.000      0.000
  Name = 
  2 active torsions:
  status: ('A' for Active; 'I' for Inactive)
    1  A    between atoms: C_5  and  C_16
    2  A    between atoms: C_5  and  C_21
                            x       y       z     vdW  Elec       q    Type
                         _______ _______ _______ _____ _____    ______ ____

>  <TORSDO>
F 2

$$$$
=
 OpenBabel11072414123D

 28 33  0  0  1  0  0  0  0  0999 V2000
  162.0310  208.6170  155.6380 C   0  0  0  0  0  2  0  0  0  0  0  0
  161.4640  208.5410  152.2790 C   0  0  1  0  0  0  0  0  0  0  0  0
  160.0410  209.3440  154.3000 C   0  0  2  0  0  3  0  0  0  0  0  0
  160.4650  207.5310  151.8410 N   0  0  2  0  0  0  0  0  0  0  0  0
  158.9400  211.5580  154.8780 C   0  0  0  0  0  0  0  0  0  0  0  0
  160.6710  208.1820  155.0820 C   0  0  2  0  0  0  0  0  0  0  0  0
  161.5060  207.1830  152.8350 C   0  0  2  0  0  3  0  0  0  0  0  0
  159.7500  207.7630  156.2220 C   0  0  0  0  0  1  0  0  0  0  0  0
  161.1920  207.8370  149.5840 N   0  0  0  0  0  0  0  0  0  0  0  0
  160.8470  206.8610  150.5920 C   0  0  0  0  0  2  0  0  0  0  0  0
  162.5590  208.8840  151.2600 C   0  0  0  0  0  2  0  0  0  0  0  0
  156.0380  214.4440  154.1080 F   0  0  0  0  0  0  0  0  0  0  0  0
  158.9110  212.7630  155.6220 C   0  0  0  0  0  0  0  0  0  0  0  0
  160.8350  212.0370  156.8900 C   0  0  0  0  0  3  0  0  0  0  0  0
  160.8180  206.9570  154.1840 C   0  0  0  0  0  2  0  0  0  0  0  0
  157.0040  212.3210  153.6210 C   0  0  0  0  0  3  0  0  0  0  0  0
  159.8590  212.9930  156.6180 C   0  0  0  0  0  3  0  0  0  0  0  0
  162.0050  208.7930  149.8620 C   0  0  0  0  0  0  0  0  0  0  0  0
  160.8470  209.7100  153.0490 C   0  0  0  0  0  2  0  0  0  0  0  0
  156.9820  213.5070  154.3590 C   0  0  0  0  0  0  0  0  0  0  0  0
  157.9350  213.7270  155.3580 C   0  0  0  0  0  3  0  0  0  0  0  0
  161.9090  209.8170  156.5870 C   0  0  0  0  0  2  0  0  0  0  0  0
  159.9330  210.5910  155.1500 C   0  0  0  0  0  0  0  0  0  0  0  0
  160.8910  210.8450  156.1630 C   0  0  0  0  0  0  0  0  0  0  0  0
  157.9760  211.3520  153.8770 C   0  0  0  0  0  3  0  0  0  0  0  0
  162.3130  209.8150  148.8060 C   0  0  0  0  0  2  0  0  0  0  0  0
  162.6600  212.1420  148.4490 O   0  0  0  0  0  1  0  0  0  0  0  0
  161.9390  211.2300  149.2170 C   0  0  0  0  0  2  0  0  0  0  0  0
  1 22  1  0  0  0  0
  2 11  1  6  0  0  0
  2  7  1  0  0  0  0
  2 19  1  0  0  0  0
  3 19  1  6  0  0  0
  3  6  1  0  0  0  0
  3 23  1  0  0  0  0
  4 10  1  6  0  0  0
  4  2  1  0  0  0  0
  4  7  1  0  0  0  0
  5 23  2  0  0  0  0
  5 13  1  0  0  0  0
  6  1  1  0  0  0  0
  6  8  1  1  0  0  0
  7 15  1  1  0  0  0
  9 18  2  0  0  0  0
  9 10  1  0  0  0  0
 12 20  1  0  0  0  0
 13 17  2  0  0  0  0
 15  6  1  0  0  0  0
 16 25  2  0  0  0  0
 16 20  1  0  0  0  0
 17 14  1  0  0  0  0
 18 11  1  0  0  0  0
 20 21  2  0  0  0  0
 21 13  1  0  0  0  0
 23 24  1  0  0  0  0
 24 22  1  0  0  0  0
 24 14  2  0  0  0  0
 25  5  1  0  0  0  0
 26 28  1  0  0  0  0
 26 18  1  0  0  0  0
 27 28  1  0  0  0  0
M  END
>  <MODEL>
2

>  <REMARK>
 VINA RESULT:      -6.1      3.249      6.398
  Name = 
  2 active torsions:
  status: ('A' for Active; 'I' for Inactive)
    1  A    between atoms: C_5  and  C_16
    2  A    between atoms: C_5  and  C_21
                            x       y       z     vdW  Elec       q    Type
                         _______ _______ _______ _____ _____    ______ ____

>  <TORSDO>
F 2

$$$$
