=
 OpenBabel11072414393D

 26 30  0  0  1  0  0  0  0  0999 V2000
  161.9570  207.2500  148.8460 C   0  0  0  0  0  3  0  0  0  0  0  0
  160.6170  204.5770  152.1970 C   0  0  0  0  0  2  0  0  0  0  0  0
  161.9800  208.8430  151.1890 C   0  0  0  0  0  0  0  0  0  0  0  0
  162.0010  207.4480  151.2430 C   0  0  0  0  0  0  0  0  0  0  0  0
  161.9630  209.4460  149.9130 C   0  0  0  0  0  3  0  0  0  0  0  0
  161.9370  205.2440  151.9060 C   0  0  1  0  0  3  0  0  0  0  0  0
  161.9540  205.3080  150.4620 N   0  0  0  0  0  0  0  0  0  0  0  0
  161.9390  206.6310  152.3970 N   0  0  0  0  0  2  0  0  0  0  0  0
  162.0010  206.6840  150.1200 C   0  0  0  0  0  0  0  0  0  0  0  0
  160.1360  203.9740  151.0110 O   0  0  0  0  0  0  0  0  0  0  0  0
  160.9250  204.4390  149.9310 C   0  0  2  0  0  3  0  0  0  0  0  0
  161.9480  208.6510  148.7490 C   0  0  0  0  0  3  0  0  0  0  0  0
  161.1490  202.7920  145.4630 C   0  0  0  0  0  2  0  0  0  0  0  0
  161.8760  203.5610  147.7690 C   0  0  0  0  0  0  0  0  0  0  0  0
  162.1720  205.6360  145.2250 C   0  0  0  0  0  2  0  0  0  0  0  0
  161.1340  202.7980  146.9620 C   0  0  0  0  0  0  0  0  0  0  0  0
  160.5130  202.1710  149.0290 C   0  0  0  0  0  3  0  0  0  0  0  0
  161.5450  203.2450  149.1960 C   0  0  2  0  0  3  0  0  0  0  0  0
  160.4370  204.0130  144.8710 C   0  0  0  0  0  2  0  0  0  0  0  0
  160.2790  201.9310  147.7480 C   0  0  0  0  0  3  0  0  0  0  0  0
  160.8020  205.2500  145.5610 N   0  0  0  0  0  0  0  0  0  0  0  0
  159.9370  206.2900  145.0340 C   0  0  0  0  0  1  0  0  0  0  0  0
  162.9710  204.5390  147.3880 C   0  0  0  0  0  2  0  0  0  0  0  0
  163.2110  204.7270  145.8890 C   0  0  0  0  0  2  0  0  0  0  0  0
  160.7890  210.1730  152.8970 C   0  0  0  0  0  1  0  0  0  0  0  0
  161.9720  209.5910  152.3700 O   0  0  0  0  0  0  0  0  0  0  0  0
  1  9  1  0  0  0  0
  3  4  1  0  0  0  0
  3 26  1  0  0  0  0
  4  8  1  0  0  0  0
  5  3  2  0  0  0  0
  6  2  1  6  0  0  0
  6  8  1  0  0  0  0
  7  6  1  0  0  0  0
  9  7  1  0  0  0  0
  9  4  2  0  0  0  0
 10  2  1  0  0  0  0
 11  7  1  0  0  0  0
 11 10  1  1  0  0  0
 12  1  2  0  0  0  0
 12  5  1  0  0  0  0
 13 16  1  0  0  0  0
 14 18  1  0  0  0  0
 15 21  1  0  0  0  0
 15 24  1  0  0  0  0
 16 20  1  0  0  0  0
 16 14  2  0  0  0  0
 18 17  1  6  0  0  0
 18 11  1  0  0  0  0
 19 13  1  0  0  0  0
 19 21  1  0  0  0  0
 20 17  2  0  0  0  0
 22 21  1  0  0  0  0
 23 14  1  0  0  0  0
 24 23  1  0  0  0  0
 26 25  1  0  0  0  0
M  END
>  <MODEL>
1

>  <REMARK>
 VINA RESULT:      -8.3      0.000      0.000
  Name = 
  2 active torsions:
  status: ('A' for Active; 'I' for Inactive)
    1  A    between atoms: C_7  and  O_16
    2  A    between atoms: C_12  and  C_24
                            x       y       z     vdW  Elec       q    Type
                         _______ _______ _______ _____ _____    ______ ____

>  <TORSDO>
F 2

$$$$
=
 OpenBabel11072414393D

 26 30  0  0  1  0  0  0  0  0999 V2000
  161.0120  206.5420  152.5440 C   0  0  0  0  0  3  0  0  0  0  0  0
  160.7470  211.0100  152.1700 C   0  0  0  0  0  2  0  0  0  0  0  0
  161.9920  207.1810  149.9630 C   0  0  0  0  0  0  0  0  0  0  0  0
  161.9210  208.1310  150.9840 C   0  0  0  0  0  0  0  0  0  0  0  0
  161.5690  205.8680  150.2640 C   0  0  0  0  0  3  0  0  0  0  0  0
  161.9260  210.0710  152.2250 C   0  0  1  0  0  3  0  0  0  0  0  0
  161.4330  208.9830  153.0390 N   0  0  0  0  0  0  0  0  0  0  0  0
  162.2100  209.5140  150.8930 N   0  0  0  0  0  2  0  0  0  0  0  0
  161.4630  207.8230  152.2240 C   0  0  0  0  0  0  0  0  0  0  0  0
  159.8310  210.6550  153.1870 O   0  0  0  0  0  0  0  0  0  0  0  0
  160.2180  209.3970  153.7090 C   0  0  2  0  0  3  0  0  0  0  0  0
  161.0790  205.5540  151.5480 C   0  0  0  0  0  3  0  0  0  0  0  0
  160.1910  212.8380  157.0090 C   0  0  0  0  0  2  0  0  0  0  0  0
  159.6750  210.6540  155.8250 C   0  0  0  0  0  0  0  0  0  0  0  0
  157.4820  213.1100  155.6740 C   0  0  0  0  0  2  0  0  0  0  0  0
  160.5320  211.5520  156.3190 C   0  0  0  0  0  0  0  0  0  0  0  0
  161.8540  209.9350  155.4880 C   0  0  0  0  0  3  0  0  0  0  0  0
  160.4410  209.5150  155.2210 C   0  0  2  0  0  3  0  0  0  0  0  0
  159.7170  213.9150  156.0260 C   0  0  0  0  0  2  0  0  0  0  0  0
  161.8950  211.1050  156.1060 C   0  0  0  0  0  3  0  0  0  0  0  0
  158.7720  213.3840  155.0430 N   0  0  0  0  0  0  0  0  0  0  0  0
  158.5440  214.4420  154.0750 C   0  0  0  0  0  1  0  0  0  0  0  0
  158.1610  210.6600  155.9080 C   0  0  0  0  0  2  0  0  0  0  0  0
  157.5310  211.8780  156.5840 C   0  0  0  0  0  2  0  0  0  0  0  0
  162.1540  206.8010  147.5270 C   0  0  0  0  0  1  0  0  0  0  0  0
  162.4630  207.5430  148.6980 O   0  0  0  0  0  0  0  0  0  0  0  0
  2 10  1  0  0  0  0
  3  5  2  0  0  0  0
  3  4  1  0  0  0  0
  4  9  2  0  0  0  0
  5 12  1  0  0  0  0
  6  2  1  6  0  0  0
  6  7  1  0  0  0  0
  7 11  1  0  0  0  0
  8  4  1  0  0  0  0
  8  6  1  0  0  0  0
  9  1  1  0  0  0  0
  9  7  1  0  0  0  0
 11 10  1  6  0  0  0
 11 18  1  0  0  0  0
 12  1  2  0  0  0  0
 14 23  1  0  0  0  0
 14 16  2  0  0  0  0
 15 24  1  0  0  0  0
 16 13  1  0  0  0  0
 17 20  2  0  0  0  0
 18 17  1  6  0  0  0
 18 14  1  0  0  0  0
 19 13  1  0  0  0  0
 20 16  1  0  0  0  0
 21 15  1  0  0  0  0
 21 19  1  0  0  0  0
 22 21  1  0  0  0  0
 23 24  1  0  0  0  0
 25 26  1  0  0  0  0
 26  3  1  0  0  0  0
M  END
>  <MODEL>
2

>  <REMARK>
 VINA RESULT:      -6.5      3.463      9.220
  Name = 
  2 active torsions:
  status: ('A' for Active; 'I' for Inactive)
    1  A    between atoms: C_7  and  O_16
    2  A    between atoms: C_12  and  C_24
                            x       y       z     vdW  Elec       q    Type
                         _______ _______ _______ _____ _____    ______ ____

>  <TORSDO>
F 2

$$$$
=
 OpenBabel11072414393D

 26 30  0  0  1  0  0  0  0  0999 V2000
  160.9110  207.0400  153.6200 C   0  0  0  0  0  3  0  0  0  0  0  0
  160.1470  211.2880  152.3770 C   0  0  0  0  0  2  0  0  0  0  0  0
  162.1880  207.3750  151.1130 C   0  0  0  0  0  0  0  0  0  0  0  0
  161.8430  208.4620  151.9180 C   0  0  0  0  0  0  0  0  0  0  0  0
  161.8930  206.0830  151.6000 C   0  0  0  0  0  3  0  0  0  0  0  0
  161.4120  210.5620  152.7600 C   0  0  1  0  0  3  0  0  0  0  0  0
  160.9400  209.5650  153.6950 N   0  0  0  0  0  0  0  0  0  0  0  0
  161.9650  209.8370  151.6060 N   0  0  0  0  0  2  0  0  0  0  0  0
  161.2410  208.3020  153.1250 C   0  0  0  0  0  0  0  0  0  0  0  0
  159.1370  210.9760  153.3170 O   0  0  0  0  0  0  0  0  0  0  0  0
  159.5940  209.8970  154.1120 C   0  0  2  0  0  3  0  0  0  0  0  0
  161.2550  205.9200  152.8460 C   0  0  0  0  0  3  0  0  0  0  0  0
  158.2940  213.6880  156.6950 C   0  0  0  0  0  2  0  0  0  0  0  0
  158.4770  211.2880  155.8930 C   0  0  0  0  0  0  0  0  0  0  0  0
  155.8160  213.0510  155.0680 C   0  0  0  0  0  2  0  0  0  0  0  0
  159.0210  212.4390  156.2950 C   0  0  0  0  0  0  0  0  0  0  0  0
  160.7880  211.1030  155.9150 C   0  0  0  0  0  3  0  0  0  0  0  0
  159.5650  210.3010  155.5910 C   0  0  2  0  0  3  0  0  0  0  0  0
  157.7280  214.4420  155.4870 C   0  0  0  0  0  2  0  0  0  0  0  0
  160.4660  212.3270  156.3060 C   0  0  0  0  0  3  0  0  0  0  0  0
  157.0830  213.5430  154.5310 N   0  0  0  0  0  0  0  0  0  0  0  0
  156.7560  214.3440  153.3650 C   0  0  0  0  0  1  0  0  0  0  0  0
  157.0070  210.9210  155.8210 C   0  0  0  0  0  2  0  0  0  0  0  0
  156.0200  212.0290  156.1920 C   0  0  0  0  0  2  0  0  0  0  0  0
  162.0580  207.7080  148.6680 C   0  0  0  0  0  1  0  0  0  0  0  0
  162.7990  207.5860  149.8740 O   0  0  0  0  0  0  0  0  0  0  0  0
  2 10  1  0  0  0  0
  3  5  2  0  0  0  0
  3  4  1  0  0  0  0
  4  9  2  0  0  0  0
  5 12  1  0  0  0  0
  6  2  1  6  0  0  0
  6  7  1  0  0  0  0
  7 11  1  0  0  0  0
  8  4  1  0  0  0  0
  8  6  1  0  0  0  0
  9  1  1  0  0  0  0
  9  7  1  0  0  0  0
 11 10  1  6  0  0  0
 11 18  1  0  0  0  0
 12  1  2  0  0  0  0
 14 16  2  0  0  0  0
 15 24  1  0  0  0  0
 16 20  1  0  0  0  0
 16 13  1  0  0  0  0
 17 20  2  0  0  0  0
 18 14  1  0  0  0  0
 18 17  1  6  0  0  0
 19 13  1  0  0  0  0
 21 15  1  0  0  0  0
 21 19  1  0  0  0  0
 22 21  1  0  0  0  0
 23 14  1  0  0  0  0
 23 24  1  0  0  0  0
 25 26  1  0  0  0  0
 26  3  1  0  0  0  0
M  END
>  <MODEL>
3

>  <REMARK>
 VINA RESULT:      -6.2      3.969      9.607
  Name = 
  2 active torsions:
  status: ('A' for Active; 'I' for Inactive)
    1  A    between atoms: C_7  and  O_16
    2  A    between atoms: C_12  and  C_24
                            x       y       z     vdW  Elec       q    Type
                         _______ _______ _______ _____ _____    ______ ____

>  <TORSDO>
F 2

$$$$
=
 OpenBabel11072414393D

 26 30  0  0  1  0  0  0  0  0999 V2000
  162.0030  208.4930  149.0950 C   0  0  0  0  0  3  0  0  0  0  0  0
  161.5890  206.9380  153.2880 C   0  0  0  0  0  2  0  0  0  0  0  0
  161.4680  205.7200  148.8640 C   0  0  0  0  0  0  0  0  0  0  0  0
  161.1730  206.4360  150.0250 C   0  0  0  0  0  0  0  0  0  0  0  0
  162.0340  206.4320  147.7850 C   0  0  0  0  0  3  0  0  0  0  0  0
  160.5960  207.0750  152.1610 C   0  0  1  0  0  3  0  0  0  0  0  0
  161.0910  208.2240  151.4350 N   0  0  0  0  0  0  0  0  0  0  0  0
  160.6820  205.9230  151.2500 N   0  0  0  0  0  2  0  0  0  0  0  0
  161.4190  207.7670  150.1330 C   0  0  0  0  0  0  0  0  0  0  0  0
  162.3290  208.1390  153.3960 O   0  0  0  0  0  0  0  0  0  0  0  0
  162.0610  208.9250  152.2500 C   0  0  2  0  0  3  0  0  0  0  0  0
  162.3030  207.8110  147.9040 C   0  0  0  0  0  3  0  0  0  0  0  0
  159.7000  210.7660  155.9600 C   0  0  0  0  0  2  0  0  0  0  0  0
  161.4710  210.4450  154.1720 C   0  0  0  0  0  0  0  0  0  0  0  0
  162.0930  209.4110  157.2390 C   0  0  0  0  0  2  0  0  0  0  0  0
  160.2010  210.5870  154.5590 C   0  0  0  0  0  0  0  0  0  0  0  0
  160.0720  210.3980  152.3220 C   0  0  0  0  0  3  0  0  0  0  0  0
  161.5230  210.2950  152.6810 C   0  0  2  0  0  3  0  0  0  0  0  0
  159.7400  209.4600  156.7610 C   0  0  0  0  0  2  0  0  0  0  0  0
  159.3250  210.5550  153.4040 C   0  0  0  0  0  3  0  0  0  0  0  0
  160.9920  208.7300  156.5610 N   0  0  0  0  0  0  0  0  0  0  0  0
  160.8310  207.4450  157.2180 C   0  0  0  0  0  1  0  0  0  0  0  0
  162.7230  210.5140  155.0240 C   0  0  0  0  0  2  0  0  0  0  0  0
  162.5030  210.7030  156.5250 C   0  0  0  0  0  2  0  0  0  0  0  0
  161.5810  203.5520  147.6840 C   0  0  0  0  0  1  0  0  0  0  0  0
  161.2050  204.3490  148.7980 O   0  0  0  0  0  0  0  0  0  0  0  0
  1  9  1  0  0  0  0
  2 10  1  0  0  0  0
  3  4  1  0  0  0  0
  4  9  2  0  0  0  0
  4  8  1  0  0  0  0
  5 12  1  0  0  0  0
  5  3  2  0  0  0  0
  6  2  1  1  0  0  0
  7  6  1  0  0  0  0
  7 11  1  0  0  0  0
  8  6  1  0  0  0  0
  9  7  1  0  0  0  0
 11 18  1  0  0  0  0
 11 10  1  1  0  0  0
 12  1  2  0  0  0  0
 13 19  1  0  0  0  0
 14 16  2  0  0  0  0
 14 23  1  0  0  0  0
 16 13  1  0  0  0  0
 17 20  2  0  0  0  0
 18 17  1  1  0  0  0
 18 14  1  0  0  0  0
 20 16  1  0  0  0  0
 21 19  1  0  0  0  0
 21 22  1  0  0  0  0
 21 15  1  0  0  0  0
 23 24  1  0  0  0  0
 24 15  1  0  0  0  0
 25 26  1  0  0  0  0
 26  3  1  0  0  0  0
M  END
>  <MODEL>
4

>  <REMARK>
 VINA RESULT:      -5.8      2.517      8.132
  Name = 
  2 active torsions:
  status: ('A' for Active; 'I' for Inactive)
    1  A    between atoms: C_7  and  O_16
    2  A    between atoms: C_12  and  C_24
                            x       y       z     vdW  Elec       q    Type
                         _______ _______ _______ _____ _____    ______ ____

>  <TORSDO>
F 2

$$$$
=
 OpenBabel11072414393D

 26 30  0  0  1  0  0  0  0  0999 V2000
  160.6770  205.4950  152.1080 C   0  0  0  0  0  3  0  0  0  0  0  0
  161.2040  209.8520  151.1550 C   0  0  0  0  0  2  0  0  0  0  0  0
  161.5090  205.6210  149.4020 C   0  0  0  0  0  0  0  0  0  0  0  0
  161.7110  206.6800  150.2880 C   0  0  0  0  0  0  0  0  0  0  0  0
  160.8820  204.4600  149.9060 C   0  0  0  0  0  3  0  0  0  0  0  0
  162.1900  208.7150  151.2530 C   0  0  1  0  0  3  0  0  0  0  0  0
  161.5840  207.8490  152.2400 N   0  0  0  0  0  0  0  0  0  0  0  0
  162.2390  207.9600  149.9920 N   0  0  0  0  0  2  0  0  0  0  0  0
  161.3230  206.6160  151.5880 C   0  0  0  0  0  0  0  0  0  0  0  0
  160.3390  209.8060  152.2730 O   0  0  0  0  0  0  0  0  0  0  0  0
  160.5350  208.5680  152.9310 C   0  0  2  0  0  3  0  0  0  0  0  0
  160.4670  204.4020  151.2520 C   0  0  0  0  0  3  0  0  0  0  0  0
  160.3560  212.1760  156.0420 C   0  0  0  0  0  2  0  0  0  0  0  0
  160.0580  209.8650  155.0390 C   0  0  0  0  0  0  0  0  0  0  0  0
  157.4970  211.9400  155.0600 C   0  0  0  0  0  2  0  0  0  0  0  0
  160.8130  210.9140  155.3750 C   0  0  0  0  0  0  0  0  0  0  0  0
  162.2670  209.4680  154.4540 C   0  0  0  0  0  3  0  0  0  0  0  0
  160.9180  208.8190  154.3940 C   0  0  2  0  0  3  0  0  0  0  0  0
  159.6000  213.0990  155.0800 C   0  0  0  0  0  2  0  0  0  0  0  0
  162.1940  210.6690  155.0070 C   0  0  0  0  0  3  0  0  0  0  0  0
  158.6400  212.3660  154.2550 N   0  0  0  0  0  0  0  0  0  0  0  0
  158.1300  213.3090  153.2760 C   0  0  0  0  0  1  0  0  0  0  0  0
  158.5840  209.6440  155.3180 C   0  0  0  0  0  2  0  0  0  0  0  0
  157.8530  210.7940  156.0120 C   0  0  0  0  0  2  0  0  0  0  0  0
  161.8960  204.6310  147.1720 C   0  0  0  0  0  1  0  0  0  0  0  0
  161.9170  205.7310  148.0700 O   0  0  0  0  0  0  0  0  0  0  0  0
  2 10  1  0  0  0  0
  3  5  2  0  0  0  0
  3  4  1  0  0  0  0
  4  9  2  0  0  0  0
  5 12  1  0  0  0  0
  6  2  1  6  0  0  0
  6  7  1  0  0  0  0
  7 11  1  0  0  0  0
  8  4  1  0  0  0  0
  8  6  1  0  0  0  0
  9  1  1  0  0  0  0
  9  7  1  0  0  0  0
 11 10  1  6  0  0  0
 11 18  1  0  0  0  0
 12  1  2  0  0  0  0
 14 23  1  0  0  0  0
 14 16  2  0  0  0  0
 15 24  1  0  0  0  0
 16 13  1  0  0  0  0
 17 20  2  0  0  0  0
 18 17  1  6  0  0  0
 18 14  1  0  0  0  0
 19 13  1  0  0  0  0
 20 16  1  0  0  0  0
 21 15  1  0  0  0  0
 21 19  1  0  0  0  0
 22 21  1  0  0  0  0
 23 24  1  0  0  0  0
 25 26  1  0  0  0  0
 26  3  1  0  0  0  0
M  END
>  <MODEL>
5

>  <REMARK>
 VINA RESULT:      -5.5      2.818      8.523
  Name = 
  2 active torsions:
  status: ('A' for Active; 'I' for Inactive)
    1  A    between atoms: C_7  and  O_16
    2  A    between atoms: C_12  and  C_24
                            x       y       z     vdW  Elec       q    Type
                         _______ _______ _______ _____ _____    ______ ____

>  <TORSDO>
F 2

$$$$
=
 OpenBabel11072414393D

 26 30  0  0  1  0  0  0  0  0999 V2000
  161.3640  209.2580  150.9660 C   0  0  0  0  0  3  0  0  0  0  0  0
  161.8190  205.0430  152.4480 C   0  0  0  0  0  2  0  0  0  0  0  0
  162.2580  207.7310  148.7530 C   0  0  0  0  0  0  0  0  0  0  0  0
  161.6640  207.1390  149.8680 C   0  0  0  0  0  0  0  0  0  0  0  0
  162.3880  209.1370  148.7530 C   0  0  0  0  0  3  0  0  0  0  0  0
  160.8730  205.6640  151.4510 C   0  0  1  0  0  3  0  0  0  0  0  0
  160.7310  207.0160  151.9430 N   0  0  0  0  0  0  0  0  0  0  0  0
  161.5030  205.7560  150.1250 N   0  0  0  0  0  2  0  0  0  0  0  0
  161.2250  207.8710  150.9240 C   0  0  0  0  0  0  0  0  0  0  0  0
  161.8740  205.8620  153.6000 O   0  0  0  0  0  0  0  0  0  0  0  0
  161.2400  207.0910  153.2960 C   0  0  2  0  0  3  0  0  0  0  0  0
  161.9450  209.8930  149.8560 C   0  0  0  0  0  3  0  0  0  0  0  0
  160.5470  209.6460  157.2610 C   0  0  0  0  0  2  0  0  0  0  0  0
  160.1950  208.6950  154.9350 C   0  0  0  0  0  0  0  0  0  0  0  0
  161.5150  211.6990  155.2500 C   0  0  0  0  0  2  0  0  0  0  0  0
  160.3980  208.5520  156.2470 C   0  0  0  0  0  0  0  0  0  0  0  0
  160.2720  206.4430  155.4810 C   0  0  0  0  0  3  0  0  0  0  0  0
  160.1040  207.3430  154.2940 C   0  0  2  0  0  3  0  0  0  0  0  0
  161.9180  210.3280  157.1800 C   0  0  0  0  0  2  0  0  0  0  0  0
  160.4490  207.1440  156.5900 C   0  0  0  0  0  3  0  0  0  0  0  0
  162.3140  210.6050  155.7990 N   0  0  0  0  0  0  0  0  0  0  0  0
  163.6860  211.0760  155.8490 C   0  0  0  0  0  1  0  0  0  0  0  0
  159.9800  209.9780  154.1550 C   0  0  0  0  0  2  0  0  0  0  0  0
  160.0720  211.2750  154.9590 C   0  0  0  0  0  2  0  0  0  0  0  0
  161.8110  206.2940  146.7930 C   0  0  0  0  0  1  0  0  0  0  0  0
  162.7030  206.9390  147.6910 O   0  0  0  0  0  0  0  0  0  0  0  0
  2 10  1  0  0  0  0
  3  5  2  0  0  0  0
  3  4  1  0  0  0  0
  4  8  1  0  0  0  0
  4  9  2  0  0  0  0
  5 12  1  0  0  0  0
  6  7  1  0  0  0  0
  6  2  1  1  0  0  0
  7 11  1  0  0  0  0
  8  6  1  0  0  0  0
  9  1  1  0  0  0  0
  9  7  1  0  0  0  0
 11 10  1  1  0  0  0
 11 18  1  0  0  0  0
 12  1  2  0  0  0  0
 14 16  2  0  0  0  0
 15 21  1  0  0  0  0
 16 20  1  0  0  0  0
 16 13  1  0  0  0  0
 17 20  2  0  0  0  0
 18 14  1  0  0  0  0
 18 17  1  1  0  0  0
 19 13  1  0  0  0  0
 21 22  1  0  0  0  0
 21 19  1  0  0  0  0
 23 14  1  0  0  0  0
 23 24  1  0  0  0  0
 24 15  1  0  0  0  0
 25 26  1  0  0  0  0
 26  3  1  0  0  0  0
M  END
>  <MODEL>
6

>  <REMARK>
 VINA RESULT:      -5.4      2.936      7.828
  Name = 
  2 active torsions:
  status: ('A' for Active; 'I' for Inactive)
    1  A    between atoms: C_7  and  O_16
    2  A    between atoms: C_12  and  C_24
                            x       y       z     vdW  Elec       q    Type
                         _______ _______ _______ _____ _____    ______ ____

>  <TORSDO>
F 2

$$$$
=
 OpenBabel11072414393D

 26 30  0  0  1  0  0  0  0  0999 V2000
  161.1390  209.5060  152.7730 C   0  0  0  0  0  3  0  0  0  0  0  0
  161.9940  208.3930  148.5070 C   0  0  0  0  0  2  0  0  0  0  0  0
  161.4730  206.6920  152.7390 C   0  0  0  0  0  0  0  0  0  0  0  0
  161.9570  207.5070  151.7140 C   0  0  0  0  0  0  0  0  0  0  0  0
  160.8160  207.3220  153.8180 C   0  0  0  0  0  3  0  0  0  0  0  0
  162.8400  208.3320  149.7530 C   0  0  1  0  0  3  0  0  0  0  0  0
  162.3260  209.4270  150.5450 N   0  0  0  0  0  0  0  0  0  0  0  0
  162.5690  207.0970  150.5050 N   0  0  0  0  0  2  0  0  0  0  0  0
  161.8070  208.8560  151.7350 C   0  0  0  0  0  0  0  0  0  0  0  0
  161.3470  209.6500  148.4530 O   0  0  0  0  0  0  0  0  0  0  0  0
  161.5120  210.2840  149.7080 C   0  0  2  0  0  3  0  0  0  0  0  0
  160.6490  208.7220  153.8310 C   0  0  0  0  0  3  0  0  0  0  0  0
  160.6130  214.3300  147.3540 C   0  0  0  0  0  2  0  0  0  0  0  0
  161.1880  212.7400  149.2450 C   0  0  0  0  0  0  0  0  0  0  0  0
  158.1120  213.9010  149.0140 C   0  0  0  0  0  2  0  0  0  0  0  0
  161.3840  213.2300  148.0180 C   0  0  0  0  0  0  0  0  0  0  0  0
  162.9610  211.6420  148.2290 C   0  0  0  0  0  3  0  0  0  0  0  0
  162.1820  211.6490  149.5090 C   0  0  2  0  0  3  0  0  0  0  0  0
  159.2280  213.8680  146.8870 C   0  0  0  0  0  2  0  0  0  0  0  0
  162.4900  212.5430  147.3810 C   0  0  0  0  0  3  0  0  0  0  0  0
  158.5480  213.0610  147.9000 N   0  0  0  0  0  0  0  0  0  0  0  0
  157.3450  212.5410  147.2760 C   0  0  0  0  0  1  0  0  0  0  0  0
  160.2100  213.2190  150.2990 C   0  0  0  0  0  2  0  0  0  0  0  0
  159.2840  214.3630  149.8850 C   0  0  0  0  0  2  0  0  0  0  0  0
  160.7990  204.4710  151.8920 C   0  0  0  0  0  1  0  0  0  0  0  0
  161.6420  205.3060  152.6730 O   0  0  0  0  0  0  0  0  0  0  0  0
  1 12  1  0  0  0  0
  3  5  1  0  0  0  0
  4  9  1  0  0  0  0
  4  3  2  0  0  0  0
  5 12  2  0  0  0  0
  6  2  1  6  0  0  0
  6  8  1  0  0  0  0
  6  7  1  0  0  0  0
  7  9  1  0  0  0  0
  8  4  1  0  0  0  0
  9  1  2  0  0  0  0
 10  2  1  0  0  0  0
 11 10  1  6  0  0  0
 11  7  1  0  0  0  0
 13 16  1  0  0  0  0
 14 18  1  0  0  0  0
 14 23  1  0  0  0  0
 15 24  1  0  0  0  0
 16 14  2  0  0  0  0
 18 17  1  6  0  0  0
 18 11  1  0  0  0  0
 19 13  1  0  0  0  0
 19 21  1  0  0  0  0
 20 16  1  0  0  0  0
 20 17  2  0  0  0  0
 21 15  1  0  0  0  0
 22 21  1  0  0  0  0
 24 23  1  0  0  0  0
 25 26  1  0  0  0  0
 26  3  1  0  0  0  0
M  END
>  <MODEL>
7

>  <REMARK>
 VINA RESULT:      -5.3      3.796      7.434
  Name = 
  2 active torsions:
  status: ('A' for Active; 'I' for Inactive)
    1  A    between atoms: C_7  and  O_16
    2  A    between atoms: C_12  and  C_24
                            x       y       z     vdW  Elec       q    Type
                         _______ _______ _______ _____ _____    ______ ____

>  <TORSDO>
F 2

$$$$
