=
 OpenBabel11072412343D

 51 58  0  0  1  0  0  0  0  0999 V2000
  162.0010  205.8960  151.4010 C   0  0  0  0  0  0  0  0  0  0  0  0
  160.5060  209.2910  154.9390 C   0  0  0  0  0  0  0  0  0  0  0  0
  161.6790  205.7150  152.7460 C   0  0  0  0  0  3  0  0  0  0  0  0
  161.5020  208.1320  153.0550 C   0  0  0  0  0  0  0  0  0  0  0  0
  161.8430  208.2920  151.7040 C   0  0  0  0  0  3  0  0  0  0  0  0
  159.6430  206.6230  155.3150 C   0  0  0  0  0  2  0  0  0  0  0  0
  161.2310  209.3620  153.8590 C   0  0  0  0  0  0  0  0  0  0  0  0
  159.3750  207.6820  156.3920 C   0  0  0  0  0  2  0  0  0  0  0  0
  161.4290  206.8080  153.5830 C   0  0  0  0  0  0  0  0  0  0  0  0
  159.7860  209.0790  156.0040 C   0  0  0  0  0  3  0  0  0  0  0  0
  162.0930  207.1940  150.8810 C   0  0  0  0  0  0  0  0  0  0  0  0
  162.4370  207.4060  149.5510 O   0  0  0  0  0  1  0  0  0  0  0  0
  161.1350  206.4990  155.0230 C   0  0  0  0  0  2  0  0  0  0  0  0
  162.2640  204.6950  150.5390 C   0  0  0  0  0  2  0  0  0  0  0  0
  161.4110  201.6190  151.6670 S   0  0  0  0  0  0  0  0  0  0  0  0
  159.9040  204.8150  149.7580 C   0  0  0  0  0  1  0  0  0  0  0  0
  161.0070  203.8670  150.2290 C   0  0  1  0  0  0  0  0  0  0  0  0
  161.3210  202.8160  149.2400 N   0  0  0  0  0  0  0  0  0  0  0  0
  160.5520  203.2040  151.5120 C   0  0  0  0  0  2  0  0  0  0  0  0
  161.9930  201.7260  149.9480 C   0  0  0  0  0  2  0  0  0  0  0  0
  160.1170  202.2450  148.6380 C   0  0  0  0  0  2  0  0  0  0  0  0
  160.4100  202.0060  145.9010 C   0  0  1  0  0  3  0  0  0  0  0  0
  160.8210  200.7350  146.2810 C   0  0  0  0  0  0  0  0  0  0  0  0
  160.4080  201.8140  147.2820 N   0  0  0  0  0  0  0  0  0  0  0  0
  161.2290  199.5730  146.0130 O   0  0  0  0  0  0  0  0  0  0  0  0
  161.5240  202.7650  145.5350 O   0  0  0  0  0  0  0  0  0  0  0  0
  162.1160  204.9870  144.9270 C   0  0  0  0  0  2  0  0  0  0  0  0
  161.2260  205.0360  146.1510 C   0  0  0  0  0  2  0  0  0  0  0  0
  160.9950  203.9780  145.0890 C   0  0  0  0  0  3  0  0  0  0  0  0
  161.6080  210.7210  153.3650 C   0  0  0  0  0  2  0  0  0  0  0  0
  160.6150  211.7610  153.8570 C   0  0  0  0  0  2  0  0  0  0  0  0
  157.9770  210.5230  153.1060 C   0  0  0  0  0  1  0  0  0  0  0  0
  159.5100  212.6420  147.9390 C   0  0  0  0  0  0  0  0  0  0  0  0
  160.1100  211.3920  145.8860 C   0  0  0  0  0  2  0  0  0  0  0  0
  159.3360  212.6370  149.2310 C   0  0  0  0  0  0  0  0  0  0  0  0
  158.9920  213.6080  145.7090 C   0  0  0  0  0  0  0  0  0  0  0  0
  159.1610  212.6310  150.5240 C   0  0  0  0  0  0  0  0  0  0  0  0
  157.9150  212.1390  151.1870 C   0  0  1  0  0  3  0  0  0  0  0  0
  160.5170  211.7230  147.3200 C   0  0  0  0  0  2  0  0  0  0  0  0
  159.7530  212.2000  152.7650 N   0  0  0  0  0  0  0  0  0  0  0  0
  158.3060  211.9490  152.6850 C   0  0  2  0  0  0  0  0  0  0  0  0
  156.6180  213.5980  152.4650 C   0  0  0  0  0  0  0  0  0  0  0  0
  158.8150  213.5940  147.1300 N   0  0  0  0  0  2  0  0  0  0  0  0
  158.2470  214.0080  154.2510 C   0  0  0  0  0  1  0  0  0  0  0  0
  156.8880  213.1610  151.1490 N   0  0  0  0  0  2  0  0  0  0  0  0
  161.4510  212.7850  151.2290 O   0  0  0  0  0  0  0  0  0  0  0  0
  158.3650  214.4430  145.0090 O   0  0  0  0  0  0  0  0  0  0  0  0
  159.9600  212.6660  145.0580 C   0  0  0  0  0  2  0  0  0  0  0  0
  160.2330  212.5760  151.4870 C   0  0  0  0  0  0  0  0  0  0  0  0
  157.4500  212.9500  153.5010 C   0  0  2  0  0  3  0  0  0  0  0  0
  155.7190  214.4440  152.7200 O   0  0  0  0  0  0  0  0  0  0  0  0
  1  3  1  0  0  0  0
  2 10  2  0  0  0  0
  3  9  2  0  0  0  0
  4  9  1  0  0  0  0
  4  7  1  0  0  0  0
  5  4  2  0  0  0  0
  6  8  1  0  0  0  0
  7  2  2  0  0  0  0
  9 13  1  0  0  0  0
 10  8  1  0  0  0  0
 11  1  2  0  0  0  0
 11  5  1  0  0  0  0
 12 11  1  0  0  0  0
 13  6  1  0  0  0  0
 14  1  1  0  0  0  0
 17 16  1  6  0  0  0
 17 14  1  0  0  0  0
 17 19  1  0  0  0  0
 18 20  1  0  0  0  0
 18 17  1  0  0  0  0
 19 15  1  0  0  0  0
 20 15  1  0  0  0  0
 21 18  1  0  0  0  0
 22 26  1  1  0  0  0
 22 23  1  0  0  0  0
 22 24  1  0  0  0  0
 23 24  1  0  0  0  0
 24 21  1  0  0  0  0
 25 23  2  0  0  0  0
 27 29  1  0  0  0  0
 27 28  1  0  0  0  0
 29 26  1  0  0  0  0
 29 28  1  0  0  0  0
 30 31  1  0  0  0  0
 30  7  1  0  0  0  0
 33 35  2  0  0  0  0
 34 39  1  0  0  0  0
 35 37  2  0  0  0  0
 36 43  1  0  0  0  0
 37 49  1  0  0  0  0
 38 37  1  6  0  0  0
 38 41  1  0  0  0  0
 39 33  1  0  0  0  0
 40 31  1  0  0  0  0
 41 40  1  0  0  0  0
 41 32  1  1  0  0  0
 41 50  1  0  0  0  0
 42 51  2  0  0  0  0
 42 50  1  0  0  0  0
 43 33  1  0  0  0  0
 45 38  1  0  0  0  0
 45 42  1  0  0  0  0
 46 49  2  0  0  0  0
 47 36  2  0  0  0  0
 48 36  1  0  0  0  0
 48 34  1  0  0  0  0
 49 40  1  0  0  0  0
 50 44  1  6  0  0  0
M  END
>  <MODEL>
1

>  <REMARK>
 VINA RESULT:      -1.6      0.000      0.000
  Name = 
  9 active torsions:
  status: ('A' for Active; 'I' for Inactive)
    1  A    between atoms: C_2  and  O_50
    2  A    between atoms: C_10  and  N_15
    3  A    between atoms: C_10  and  N_23
    4  A    between atoms: C_11  and  C_42
    5  A    between atoms: C_13  and  C_42
    6  A    between atoms: N_25  and  C_38
    7  A    between atoms: C_26  and  C_47
    8  A    between atoms: C_27  and  O_50
    9  A    between atoms: C_38  and  C_47
                            x       y       z     vdW  Elec       q    Type
                         _______ _______ _______ _____ _____    ______ ____

>  <TORSDO>
F 9

$$$$
=
 OpenBabel11072412343D

 51 58  0  0  1  0  0  0  0  0999 V2000
  160.9250  206.7570  148.3630 C   0  0  0  0  0  0  0  0  0  0  0  0
  161.9880  209.1910  152.7480 C   0  0  0  0  0  0  0  0  0  0  0  0
  161.1470  206.2530  149.6450 C   0  0  0  0  0  3  0  0  0  0  0  0
  161.7720  208.4770  150.4410 C   0  0  0  0  0  0  0  0  0  0  0  0
  161.5580  208.9610  149.1410 C   0  0  0  0  0  3  0  0  0  0  0  0
  160.6700  206.6980  152.9830 C   0  0  0  0  0  2  0  0  0  0  0  0
  162.1960  209.4520  151.4900 C   0  0  0  0  0  0  0  0  0  0  0  0
  161.1630  207.4330  154.2350 C   0  0  0  0  0  2  0  0  0  0  0  0
  161.5670  207.0860  150.6870 C   0  0  0  0  0  0  0  0  0  0  0  0
  161.7390  208.8000  153.9670 C   0  0  0  0  0  3  0  0  0  0  0  0
  161.1430  208.1180  148.1100 C   0  0  0  0  0  0  0  0  0  0  0  0
  160.9550  208.6450  146.8370 O   0  0  0  0  0  1  0  0  0  0  0  0
  161.8170  206.4280  152.0140 C   0  0  0  0  0  2  0  0  0  0  0  0
  160.4780  205.8270  147.2730 C   0  0  0  0  0  2  0  0  0  0  0  0
  161.3980  205.5160  144.0300 S   0  0  0  0  0  0  0  0  0  0  0  0
  162.6470  204.7060  147.7610 C   0  0  0  0  0  1  0  0  0  0  0  0
  161.6150  204.9880  146.6680 C   0  0  1  0  0  0  0  0  0  0  0  0
  161.0710  203.7560  146.0620 N   0  0  0  0  0  0  0  0  0  0  0  0
  162.2800  205.8090  145.5830 C   0  0  0  0  0  2  0  0  0  0  0  0
  160.5020  204.1140  144.7630 C   0  0  0  0  0  2  0  0  0  0  0  0
  162.1110  202.7610  145.8040 C   0  0  0  0  0  2  0  0  0  0  0  0
  161.6630  200.6140  147.4830 C   0  0  1  0  0  3  0  0  0  0  0  0
  161.2300  200.0550  146.2880 C   0  0  0  0  0  0  0  0  0  0  0  0
  161.7330  201.4940  146.4050 N   0  0  0  0  0  0  0  0  0  0  0  0
  160.7690  199.0960  145.6130 O   0  0  0  0  0  0  0  0  0  0  0  0
  160.5580  200.9310  148.2770 O   0  0  0  0  0  0  0  0  0  0  0  0
  160.0400  201.3250  150.5640 C   0  0  0  0  0  2  0  0  0  0  0  0
  160.3870  202.6440  149.9070 C   0  0  0  0  0  2  0  0  0  0  0  0
  161.1020  201.3760  149.4820 C   0  0  0  0  0  3  0  0  0  0  0  0
  162.6890  210.8180  151.1370 C   0  0  0  0  0  2  0  0  0  0  0  0
  162.0980  211.2710  149.8120 C   0  0  0  0  0  2  0  0  0  0  0  0
  161.9340  214.2580  149.4840 C   0  0  0  0  0  1  0  0  0  0  0  0
  157.7700  213.5300  153.4420 C   0  0  0  0  0  0  0  0  0  0  0  0
  157.7460  214.2920  155.7990 C   0  0  0  0  0  2  0  0  0  0  0  0
  158.4580  213.2800  152.3630 C   0  0  0  0  0  0  0  0  0  0  0  0
  155.6170  214.1480  154.5180 C   0  0  0  0  0  0  0  0  0  0  0  0
  159.1470  213.0320  151.2830 C   0  0  0  0  0  0  0  0  0  0  0  0
  159.5720  214.0870  150.3130 C   0  0  1  0  0  3  0  0  0  0  0  0
  158.4070  213.3610  154.7870 C   0  0  0  0  0  2  0  0  0  0  0  0
  160.9070  212.0840  150.0350 N   0  0  0  0  0  0  0  0  0  0  0  0
  160.6720  213.4080  149.4400 C   0  0  2  0  0  0  0  0  0  0  0  0
  158.8080  214.0220  148.1090 C   0  0  0  0  0  0  0  0  0  0  0  0
  156.3830  213.8650  153.3430 N   0  0  0  0  0  2  0  0  0  0  0  0
  159.9350  211.9510  147.4320 C   0  0  0  0  0  1  0  0  0  0  0  0
  158.4780  214.4220  149.4230 N   0  0  0  0  0  2  0  0  0  0  0  0
  160.0380  210.8820  151.8740 O   0  0  0  0  0  0  0  0  0  0  0  0
  154.4020  214.4530  154.4140 O   0  0  0  0  0  0  0  0  0  0  0  0
  156.2430  214.0300  155.8760 C   0  0  0  0  0  2  0  0  0  0  0  0
  160.0200  211.8960  151.1230 C   0  0  0  0  0  0  0  0  0  0  0  0
  160.1220  213.3550  147.9920 C   0  0  2  0  0  3  0  0  0  0  0  0
  158.0520  214.2510  147.1270 O   0  0  0  0  0  0  0  0  0  0  0  0
  1  3  1  0  0  0  0
  2 10  2  0  0  0  0
  3  9  2  0  0  0  0
  4  9  1  0  0  0  0
  4  7  1  0  0  0  0
  5  4  2  0  0  0  0
  6  8  1  0  0  0  0
  7  2  2  0  0  0  0
  9 13  1  0  0  0  0
 10  8  1  0  0  0  0
 11  1  2  0  0  0  0
 11  5  1  0  0  0  0
 12 11  1  0  0  0  0
 13  6  1  0  0  0  0
 14  1  1  0  0  0  0
 15 20  1  0  0  0  0
 15 19  1  0  0  0  0
 17 14  1  0  0  0  0
 17 16  1  1  0  0  0
 18 17  1  0  0  0  0
 19 17  1  0  0  0  0
 20 18  1  0  0  0  0
 21 18  1  0  0  0  0
 21 24  1  0  0  0  0
 22 26  1  1  0  0  0
 23 24  1  0  0  0  0
 23 22  1  0  0  0  0
 24 22  1  0  0  0  0
 25 23  2  0  0  0  0
 26 29  1  0  0  0  0
 28 27  1  0  0  0  0
 29 28  1  0  0  0  0
 29 27  1  0  0  0  0
 30  7  1  0  0  0  0
 31 40  1  0  0  0  0
 31 30  1  0  0  0  0
 33 39  1  0  0  0  0
 34 48  1  0  0  0  0
 35 33  2  0  0  0  0
 36 48  1  0  0  0  0
 37 35  2  0  0  0  0
 38 45  1  6  0  0  0
 38 37  1  0  0  0  0
 39 34  1  0  0  0  0
 40 49  1  0  0  0  0
 41 32  1  1  0  0  0
 41 40  1  0  0  0  0
 41 38  1  0  0  0  0
 42 45  1  0  0  0  0
 43 33  1  0  0  0  0
 43 36  1  0  0  0  0
 47 36  2  0  0  0  0
 49 37  1  0  0  0  0
 49 46  2  0  0  0  0
 50 44  1  1  0  0  0
 50 42  1  0  0  0  0
 50 41  1  0  0  0  0
 51 42  2  0  0  0  0
M  END
>  <MODEL>
2

>  <REMARK>
 VINA RESULT:      -1.4      2.189      5.058
  Name = 
  9 active torsions:
  status: ('A' for Active; 'I' for Inactive)
    1  A    between atoms: C_2  and  O_50
    2  A    between atoms: C_10  and  N_15
    3  A    between atoms: C_10  and  N_23
    4  A    between atoms: C_11  and  C_42
    5  A    between atoms: C_13  and  C_42
    6  A    between atoms: N_25  and  C_38
    7  A    between atoms: C_26  and  C_47
    8  A    between atoms: C_27  and  O_50
    9  A    between atoms: C_38  and  C_47
                            x       y       z     vdW  Elec       q    Type
                         _______ _______ _______ _____ _____    ______ ____

>  <TORSDO>
F 9

$$$$
=
 OpenBabel11072412343D

 51 58  0  0  1  0  0  0  0  0999 V2000
  161.9110  207.0350  150.9520 C   0  0  0  0  0  0  0  0  0  0  0  0
  160.1560  211.5410  152.6560 C   0  0  0  0  0  0  0  0  0  0  0  0
  161.5700  207.4430  152.2430 C   0  0  0  0  0  3  0  0  0  0  0  0
  161.2540  209.7370  151.4640 C   0  0  0  0  0  0  0  0  0  0  0  0
  161.6140  209.3090  150.1770 C   0  0  0  0  0  3  0  0  0  0  0  0
  159.4340  209.2600  154.1660 C   0  0  0  0  0  2  0  0  0  0  0  0
  160.8990  211.1750  151.6500 C   0  0  0  0  0  0  0  0  0  0  0  0
  159.0860  210.6660  154.6720 C   0  0  0  0  0  2  0  0  0  0  0  0
  161.2440  208.7750  152.5180 C   0  0  0  0  0  0  0  0  0  0  0  0
  159.4260  211.7750  153.7100 C   0  0  0  0  0  3  0  0  0  0  0  0
  161.9420  207.9790  149.9170 C   0  0  0  0  0  0  0  0  0  0  0  0
  162.3010  207.6080  148.6270 O   0  0  0  0  0  1  0  0  0  0  0  0
  160.9360  209.1090  153.9500 C   0  0  0  0  0  2  0  0  0  0  0  0
  162.2580  205.5970  150.7020 C   0  0  0  0  0  2  0  0  0  0  0  0
  160.7060  203.5320  152.8910 S   0  0  0  0  0  0  0  0  0  0  0  0
  160.2480  205.2280  149.2800 C   0  0  0  0  0  1  0  0  0  0  0  0
  161.0340  204.6930  150.4770 C   0  0  1  0  0  0  0  0  0  0  0  0
  161.4620  203.2910  150.3030 N   0  0  0  0  0  0  0  0  0  0  0  0
  160.1520  204.7810  151.7050 C   0  0  0  0  0  2  0  0  0  0  0  0
  161.7530  202.7460  151.6290 C   0  0  0  0  0  2  0  0  0  0  0  0
  160.4060  202.4580  149.7290 C   0  0  0  0  0  2  0  0  0  0  0  0
  160.8190  202.3810  146.9980 C   0  0  1  0  0  3  0  0  0  0  0  0
  161.1940  201.0820  147.3160 C   0  0  0  0  0  0  0  0  0  0  0  0
  160.7510  202.1050  148.3630 N   0  0  0  0  0  0  0  0  0  0  0  0
  161.5950  199.9320  146.9950 O   0  0  0  0  0  0  0  0  0  0  0  0
  161.9590  203.1420  146.7290 O   0  0  0  0  0  0  0  0  0  0  0  0
  162.3470  205.2360  145.6700 C   0  0  0  0  0  2  0  0  0  0  0  0
  160.8890  205.1510  146.0670 C   0  0  0  0  0  2  0  0  0  0  0  0
  161.6210  203.9050  145.6100 C   0  0  0  0  0  3  0  0  0  0  0  0
  161.2110  212.2020  150.6090 C   0  0  0  0  0  2  0  0  0  0  0  0
  160.1110  212.2470  149.5600 C   0  0  0  0  0  2  0  0  0  0  0  0
  161.9460  214.4520  148.6510 C   0  0  0  0  0  1  0  0  0  0  0  0
  159.5500  213.0830  143.5600 C   0  0  0  0  0  0  0  0  0  0  0  0
  158.0310  214.4530  142.1630 C   0  0  0  0  0  2  0  0  0  0  0  0
  160.1020  212.8730  144.7220 C   0  0  0  0  0  0  0  0  0  0  0  0
  159.6060  212.8540  141.0870 C   0  0  0  0  0  0  0  0  0  0  0  0
  160.6560  212.6650  145.8860 C   0  0  0  0  0  0  0  0  0  0  0  0
  161.8590  213.4050  146.3730 C   0  0  1  0  0  3  0  0  0  0  0  0
  158.1900  213.7050  143.4830 C   0  0  0  0  0  2  0  0  0  0  0  0
  160.6840  212.3770  148.2250 N   0  0  0  0  0  0  0  0  0  0  0  0
  161.9080  213.1250  147.9060 C   0  0  2  0  0  0  0  0  0  0  0  0
  163.8330  212.2500  146.8340 C   0  0  0  0  0  0  0  0  0  0  0  0
  160.1970  212.6260  142.3700 N   0  0  0  0  0  2  0  0  0  0  0  0
  163.0070  210.9320  148.7300 C   0  0  0  0  0  1  0  0  0  0  0  0
  163.0650  212.8360  145.8040 N   0  0  0  0  0  2  0  0  0  0  0  0
  158.8260  211.5810  147.0000 O   0  0  0  0  0  0  0  0  0  0  0  0
  160.1920  212.4570  140.0470 O   0  0  0  0  0  0  0  0  0  0  0  0
  158.2650  213.5170  140.9780 C   0  0  0  0  0  2  0  0  0  0  0  0
  159.9580  212.1390  147.0320 C   0  0  0  0  0  0  0  0  0  0  0  0
  163.2140  212.3340  148.1740 C   0  0  2  0  0  3  0  0  0  0  0  0
  164.9630  211.7350  146.6190 O   0  0  0  0  0  0  0  0  0  0  0  0
  1  3  1  0  0  0  0
  2 10  2  0  0  0  0
  3  9  2  0  0  0  0
  4  7  1  0  0  0  0
  4  9  1  0  0  0  0
  5  4  2  0  0  0  0
  6  8  1  0  0  0  0
  7  2  2  0  0  0  0
  9 13  1  0  0  0  0
 10  8  1  0  0  0  0
 11  5  1  0  0  0  0
 11  1  2  0  0  0  0
 12 11  1  0  0  0  0
 13  6  1  0  0  0  0
 14  1  1  0  0  0  0
 17 16  1  6  0  0  0
 17 14  1  0  0  0  0
 17 19  1  0  0  0  0
 18 17  1  0  0  0  0
 18 20  1  0  0  0  0
 19 15  1  0  0  0  0
 20 15  1  0  0  0  0
 21 18  1  0  0  0  0
 22 26  1  1  0  0  0
 22 23  1  0  0  0  0
 22 24  1  0  0  0  0
 23 24  1  0  0  0  0
 24 21  1  0  0  0  0
 25 23  2  0  0  0  0
 27 28  1  0  0  0  0
 29 27  1  0  0  0  0
 29 28  1  0  0  0  0
 29 26  1  0  0  0  0
 30  7  1  0  0  0  0
 31 30  1  0  0  0  0
 33 35  2  0  0  0  0
 34 39  1  0  0  0  0
 35 37  2  0  0  0  0
 36 43  1  0  0  0  0
 37 38  1  0  0  0  0
 37 49  1  0  0  0  0
 38 45  1  6  0  0  0
 38 41  1  0  0  0  0
 39 33  1  0  0  0  0
 40 31  1  0  0  0  0
 41 50  1  0  0  0  0
 41 40  1  0  0  0  0
 41 32  1  1  0  0  0
 42 50  1  0  0  0  0
 43 33  1  0  0  0  0
 45 42  1  0  0  0  0
 46 49  2  0  0  0  0
 47 36  2  0  0  0  0
 48 36  1  0  0  0  0
 48 34  1  0  0  0  0
 49 40  1  0  0  0  0
 50 44  1  6  0  0  0
 51 42  2  0  0  0  0
M  END
>  <MODEL>
3

>  <REMARK>
 VINA RESULT:      -1.4      2.369      4.325
  Name = 
  9 active torsions:
  status: ('A' for Active; 'I' for Inactive)
    1  A    between atoms: C_2  and  O_50
    2  A    between atoms: C_10  and  N_15
    3  A    between atoms: C_10  and  N_23
    4  A    between atoms: C_11  and  C_42
    5  A    between atoms: C_13  and  C_42
    6  A    between atoms: N_25  and  C_38
    7  A    between atoms: C_26  and  C_47
    8  A    between atoms: C_27  and  O_50
    9  A    between atoms: C_38  and  C_47
                            x       y       z     vdW  Elec       q    Type
                         _______ _______ _______ _____ _____    ______ ____

>  <TORSDO>
F 9

$$$$
=
 OpenBabel11072412343D

 51 58  0  0  1  0  0  0  0  0999 V2000
  161.2820  203.0930  150.0740 C   0  0  0  0  0  0  0  0  0  0  0  0
  161.3590  208.1720  150.7640 C   0  0  0  0  0  0  0  0  0  0  0  0
  161.1260  204.1320  149.1560 C   0  0  0  0  0  3  0  0  0  0  0  0
  161.1110  205.7690  150.9700 C   0  0  0  0  0  0  0  0  0  0  0  0
  161.2520  204.7090  151.8770 C   0  0  0  0  0  3  0  0  0  0  0  0
  162.1210  207.2410  148.2040 C   0  0  0  0  0  2  0  0  0  0  0  0
  161.0500  207.1570  151.5180 C   0  0  0  0  0  0  0  0  0  0  0  0
  161.9680  208.7450  148.4670 C   0  0  0  0  0  2  0  0  0  0  0  0
  161.0380  205.4630  149.5780 C   0  0  0  0  0  0  0  0  0  0  0  0
  161.6740  209.0980  149.9020 C   0  0  0  0  0  3  0  0  0  0  0  0
  161.3350  203.3850  151.4440 C   0  0  0  0  0  0  0  0  0  0  0  0
  161.4650  202.3700  152.3840 O   0  0  0  0  0  1  0  0  0  0  0  0
  160.8270  206.4950  148.5060 C   0  0  0  0  0  2  0  0  0  0  0  0
  161.3690  201.6790  149.5780 C   0  0  0  0  0  2  0  0  0  0  0  0
  161.6480  199.7290  146.8240 S   0  0  0  0  0  0  0  0  0  0  0  0
  158.9190  201.5150  149.1700 C   0  0  0  0  0  1  0  0  0  0  0  0
  160.2970  201.3200  148.5370 C   0  0  1  0  0  0  0  0  0  0  0  0
  160.4860  202.1260  147.3140 N   0  0  0  0  0  0  0  0  0  0  0  0
  160.4580  199.8560  148.1820 C   0  0  0  0  0  2  0  0  0  0  0  0
  161.5800  201.5260  146.5500 C   0  0  0  0  0  2  0  0  0  0  0  0
  159.3080  202.1020  146.4480 C   0  0  0  0  0  2  0  0  0  0  0  0
  159.9100  204.3110  144.9020 C   0  0  1  0  0  3  0  0  0  0  0  0
  159.1180  203.6160  143.9980 C   0  0  0  0  0  0  0  0  0  0  0  0
  159.4590  203.0850  145.3910 N   0  0  0  0  0  0  0  0  0  0  0  0
  158.5480  203.5010  142.8800 O   0  0  0  0  0  0  0  0  0  0  0  0
  161.2510  204.2010  144.5270 O   0  0  0  0  0  0  0  0  0  0  0  0
  163.3770  205.2080  144.8800 C   0  0  0  0  0  2  0  0  0  0  0  0
  162.8880  204.6250  146.1890 C   0  0  0  0  0  2  0  0  0  0  0  0
  161.8970  205.2310  145.2140 C   0  0  0  0  0  3  0  0  0  0  0  0
  160.8250  207.4160  152.9740 C   0  0  0  0  0  2  0  0  0  0  0  0
  161.9360  208.2860  153.5370 C   0  0  0  0  0  2  0  0  0  0  0  0
  161.9300  208.1390  156.5420 C   0  0  0  0  0  1  0  0  0  0  0  0
  157.2700  211.4880  155.7700 C   0  0  0  0  0  0  0  0  0  0  0  0
  154.8980  210.9470  156.2400 C   0  0  0  0  0  2  0  0  0  0  0  0
  158.4890  211.0660  155.5830 C   0  0  0  0  0  0  0  0  0  0  0  0
  155.7070  213.2890  156.4700 C   0  0  0  0  0  0  0  0  0  0  0  0
  159.7090  210.6420  155.3990 C   0  0  0  0  0  0  0  0  0  0  0  0
  160.6400  210.2910  156.5140 C   0  0  1  0  0  3  0  0  0  0  0  0
  156.1130  210.6230  155.3750 C   0  0  0  0  0  2  0  0  0  0  0  0
  161.3880  209.2970  154.4340 N   0  0  0  0  0  0  0  0  0  0  0  0
  161.7880  209.4800  155.8370 C   0  0  2  0  0  0  0  0  0  0  0  0
  162.6280  211.4800  156.7940 C   0  0  0  0  0  0  0  0  0  0  0  0
  157.0400  212.8140  156.2540 N   0  0  0  0  0  2  0  0  0  0  0  0
  163.7260  210.7780  154.7170 C   0  0  0  0  0  1  0  0  0  0  0  0
  161.2420  211.4890  157.0640 N   0  0  0  0  0  2  0  0  0  0  0  0
  159.5320  209.9260  153.1140 O   0  0  0  0  0  0  0  0  0  0  0  0
  155.5210  214.4530  156.9080 O   0  0  0  0  0  0  0  0  0  0  0  0
  154.5310  212.4250  156.1250 C   0  0  0  0  0  2  0  0  0  0  0  0
  160.1600  209.9660  154.2080 C   0  0  0  0  0  0  0  0  0  0  0  0
  163.0850  210.3090  156.0160 C   0  0  2  0  0  3  0  0  0  0  0  0
  163.4000  212.3810  157.2170 O   0  0  0  0  0  0  0  0  0  0  0  0
  1 11  1  0  0  0  0
  2  7  2  0  0  0  0
  3  9  1  0  0  0  0
  3  1  2  0  0  0  0
  4  7  1  0  0  0  0
  4  5  1  0  0  0  0
  6  8  1  0  0  0  0
  6 13  1  0  0  0  0
  7 30  1  0  0  0  0
  8 10  1  0  0  0  0
  9  4  2  0  0  0  0
 10  2  2  0  0  0  0
 11  5  2  0  0  0  0
 11 12  1  0  0  0  0
 13  9  1  0  0  0  0
 14  1  1  0  0  0  0
 15 19  1  0  0  0  0
 17 16  1  1  0  0  0
 17 14  1  0  0  0  0
 18 17  1  0  0  0  0
 19 17  1  0  0  0  0
 20 15  1  0  0  0  0
 20 18  1  0  0  0  0
 21 18  1  0  0  0  0
 22 26  1  6  0  0  0
 22 24  1  0  0  0  0
 23 22  1  0  0  0  0
 23 24  1  0  0  0  0
 24 21  1  0  0  0  0
 25 23  2  0  0  0  0
 26 29  1  0  0  0  0
 27 29  1  0  0  0  0
 27 28  1  0  0  0  0
 29 28  1  0  0  0  0
 30 31  1  0  0  0  0
 31 40  1  0  0  0  0
 33 43  1  0  0  0  0
 35 33  2  0  0  0  0
 36 47  2  0  0  0  0
 37 35  2  0  0  0  0
 38 37  1  6  0  0  0
 38 45  1  0  0  0  0
 39 33  1  0  0  0  0
 39 34  1  0  0  0  0
 40 41  1  0  0  0  0
 41 50  1  0  0  0  0
 41 38  1  0  0  0  0
 41 32  1  1  0  0  0
 42 45  1  0  0  0  0
 42 51  2  0  0  0  0
 43 36  1  0  0  0  0
 46 49  2  0  0  0  0
 48 34  1  0  0  0  0
 48 36  1  0  0  0  0
 49 40  1  0  0  0  0
 49 37  1  0  0  0  0
 50 44  1  6  0  0  0
 50 42  1  0  0  0  0
M  END
>  <MODEL>
4

>  <REMARK>
 VINA RESULT:      -0.0      3.479      6.045
  Name = 
  9 active torsions:
  status: ('A' for Active; 'I' for Inactive)
    1  A    between atoms: C_2  and  O_50
    2  A    between atoms: C_10  and  N_15
    3  A    between atoms: C_10  and  N_23
    4  A    between atoms: C_11  and  C_42
    5  A    between atoms: C_13  and  C_42
    6  A    between atoms: N_25  and  C_38
    7  A    between atoms: C_26  and  C_47
    8  A    between atoms: C_27  and  O_50
    9  A    between atoms: C_38  and  C_47
                            x       y       z     vdW  Elec       q    Type
                         _______ _______ _______ _____ _____    ______ ____

>  <TORSDO>
F 9

$$$$
