=
 OpenBabel11072413393D

 59 62  0  0  1  0  0  0  0  0999 V2000
  161.7890  209.4750  149.5700 C   0  0  0  0  0  2  0  0  0  0  0  0
  161.6750  208.6070  150.7340 N   0  0  0  0  0  0  0  0  0  0  0  0
  161.0990  209.0970  151.9590 C   0  0  0  0  0  0  0  0  0  0  0  0
  160.5230  210.2200  151.9830 O   0  0  0  0  0  0  0  0  0  0  0  0
  162.3330  207.3090  150.6670 C   0  0  0  0  0  2  0  0  0  0  0  0
  161.6330  206.4130  149.6520 C   0  0  2  0  0  3  0  0  0  0  0  0
  161.3640  205.0580  150.2210 C   0  0  0  0  0  0  0  0  0  0  0  0
  159.8440  201.8640  149.2780 F   0  0  0  0  0  0  0  0  0  0  0  0
  161.5160  203.5140  152.0860 C   0  0  0  0  0  3  0  0  0  0  0  0
  160.4750  202.8120  150.0120 C   0  0  0  0  0  0  0  0  0  0  0  0
  161.7580  204.7750  151.5350 C   0  0  0  0  0  3  0  0  0  0  0  0
  160.8710  202.5330  151.3250 C   0  0  0  0  0  3  0  0  0  0  0  0
  160.7210  204.0720  149.4590 C   0  0  0  0  0  3  0  0  0  0  0  0
  162.4260  206.3020  148.4730 O   0  0  0  0  0  0  0  0  0  0  0  0
  160.1550  206.2450  145.4910 C   0  0  0  0  0  3  0  0  0  0  0  0
  162.6220  205.0650  146.3120 C   0  0  2  0  0  3  0  0  0  0  0  0
  160.9130  205.6570  144.5610 C   0  0  0  0  0  3  0  0  0  0  0  0
  162.2280  203.7560  146.5990 O   0  0  0  0  0  1  0  0  0  0  0  0
  160.7080  206.5450  146.8240 C   0  0  0  0  0  3  0  0  0  0  0  0
  161.8860  206.0250  147.2130 C   0  0  0  0  0  0  0  0  0  0  0  0
  162.3690  205.3760  144.8290 C   0  0  0  0  0  2  0  0  0  0  0  0
  161.2090  208.3170  153.2320 C   0  0  0  0  0  2  0  0  0  0  0  0
  160.7150  209.1410  154.4210 C   0  0  1  0  0  3  0  0  0  0  0  0
  160.1810  206.9950  155.6850 C   0  0  0  0  0  1  0  0  0  0  0  0
  159.7230  208.4010  155.3280 C   0  0  0  0  0  2  0  0  0  0  0  0
  161.8590  209.8220  155.1730 C   0  0  0  0  0  2  0  0  0  0  0  0
  161.6530  211.3840  156.9780 O   0  0  0  0  0  1  0  0  0  0  0  0
  161.5440  211.2540  155.5920 C   0  0  2  0  0  3  0  0  0  0  0  0
  160.1450  211.6480  155.1430 C   0  0  0  0  0  2  0  0  0  0  0  0
  159.8570  212.9660  155.5110 O   0  0  0  0  0  1  0  0  0  0  0  0
  162.1820  210.8790  149.9950 C   0  0  0  0  0  2  0  0  0  0  0  0
  162.2020  211.7920  148.7830 C   0  0  0  0  0  2  0  0  0  0  0  0
  161.1750  211.3380  147.7600 C   0  0  0  0  0  2  0  0  0  0  0  0
  161.0760  212.3280  146.6000 C   0  0  0  0  0  2  0  0  0  0  0  0
  159.8460  213.2680  146.6550 C   0  0  1  0  0  0  0  0  0  0  0  0
  160.1290  214.4360  147.6050 C   0  0  0  0  0  1  0  0  0  0  0  0
  159.5520  213.8760  145.2640 C   0  0  2  0  0  3  0  0  0  0  0  0
  158.3030  213.4540  144.7890 O   0  0  0  0  0  1  0  0  0  0  0  0
  160.6440  213.6410  144.2030 C   0  0  2  0  0  3  0  0  0  0  0  0
  161.9180  214.4040  144.5430 C   0  0  0  0  0  2  0  0  0  0  0  0
  163.1390  213.6820  144.0050 C   0  0  0  0  0  1  0  0  0  0  0  0
  160.1810  214.0060  142.7970 C   0  0  0  0  0  2  0  0  0  0  0  0
  160.2140  211.6080  139.9670 C   0  0  1  0  0  3  0  0  0  0  0  0
  160.0490  212.8960  140.5320 O   0  0  0  0  0  0  0  0  0  0  0  0
  160.6980  211.6740  142.2840 N   0  0  0  0  0  0  0  0  0  0  0  0
  160.3270  212.8370  141.8810 C   0  0  0  0  0  0  0  0  0  0  0  0
  160.7410  210.7740  141.1400 C   0  0  0  0  0  2  0  0  0  0  0  0
  157.7980  213.1420  139.7640 O   0  0  0  0  0  0  0  0  0  0  0  0
  158.9140  211.0980  139.5520 N   0  0  0  0  0  2  0  0  0  0  0  0
  157.7500  211.9260  139.4420 C   0  0  0  0  0  0  0  0  0  0  0  0
  154.8350  211.3620  137.0570 C   0  0  0  0  0  2  0  0  0  0  0  0
  156.5130  209.8280  138.9870 C   0  0  0  0  0  2  0  0  0  0  0  0
  155.3550  209.2080  138.2650 C   0  0  0  0  0  0  0  0  0  0  0  0
  156.2150  211.8350  137.5020 C   0  0  0  0  0  2  0  0  0  0  0  0
  156.4720  211.3530  138.9270 C   0  0  2  0  0  3  0  0  0  0  0  0
  155.1260  207.9130  138.4080 C   0  0  0  0  0  2  0  0  0  0  0  0
  154.7260  209.9130  137.1860 N   0  0  0  0  0  2  0  0  0  0  0  0
  158.0390  213.2350  148.1190 C   0  0  0  0  0  1  0  0  0  0  0  0
  158.6910  212.5540  147.0730 O   0  0  0  0  0  0  0  0  0  0  0  0
  1 31  1  0  0  0  0
  1  2  1  0  0  0  0
  2  3  1  0  0  0  0
  3  4  2  0  0  0  0
  3 22  1  0  0  0  0
  5  2  1  0  0  0  0
  6  7  1  0  0  0  0
  6  5  1  1  0  0  0
  7 11  1  0  0  0  0
  8 10  1  0  0  0  0
 10 12  2  0  0  0  0
 11  9  2  0  0  0  0
 12  9  1  0  0  0  0
 13 10  1  0  0  0  0
 13  7  2  0  0  0  0
 14  6  1  0  0  0  0
 15 19  1  0  0  0  0
 16 18  1  1  0  0  0
 16 20  1  0  0  0  0
 17 21  1  0  0  0  0
 17 15  2  0  0  0  0
 19 20  2  0  0  0  0
 20 14  1  0  0  0  0
 21 16  1  0  0  0  0
 23 22  1  6  0  0  0
 23 26  1  0  0  0  0
 23 25  1  0  0  0  0
 25 24  1  0  0  0  0
 26 28  1  0  0  0  0
 28 27  1  1  0  0  0
 29 30  1  0  0  0  0
 29 28  1  0  0  0  0
 32 31  1  0  0  0  0
 33 32  1  0  0  0  0
 34 35  1  0  0  0  0
 34 33  1  0  0  0  0
 35 59  1  0  0  0  0
 35 36  1  1  0  0  0
 37 38  1  6  0  0  0
 37 35  1  0  0  0  0
 39 42  1  6  0  0  0
 39 40  1  0  0  0  0
 39 37  1  0  0  0  0
 41 40  1  0  0  0  0
 43 49  1  1  0  0  0
 43 44  1  0  0  0  0
 43 47  1  0  0  0  0
 44 46  1  0  0  0  0
 46 45  2  0  0  0  0
 46 42  1  0  0  0  0
 47 45  1  0  0  0  0
 50 49  1  0  0  0  0
 50 48  2  0  0  0  0
 51 57  1  0  0  0  0
 51 54  1  0  0  0  0
 53 56  2  0  0  0  0
 53 52  1  0  0  0  0
 54 55  1  0  0  0  0
 55 52  1  0  0  0  0
 55 50  1  6  0  0  0
 57 53  1  0  0  0  0
 59 58  1  0  0  0  0
M  END
>  <MODEL>
1

>  <REMARK>
 VINA RESULT:      -6.9      0.000      0.000
  Name = 
  25 active torsions:
  status: ('A' for Active; 'I' for Inactive)
    1  A    between atoms: C_1  and  N_12
    2  A    between atoms: C_3  and  C_50
    3  A    between atoms: N_6  and  C_23
    4  A    between atoms: N_6  and  C_42
    5  A    between atoms: C_8  and  C_29
    6  A    between atoms: C_8  and  C_43
    7  A    between atoms: C_10  and  C_40
    8  A    between atoms: C_14  and  C_32
    9  A    between atoms: C_14  and  C_41
   10  A    between atoms: C_15  and  C_43
   11  A    between atoms: C_16  and  C_55
   12  A    between atoms: C_23  and  C_50
   13  A    between atoms: C_25  and  C_36
   14  A    between atoms: C_28  and  C_37
   15  A    between atoms: C_32  and  C_39
   16  A    between atoms: O_34  and  C_47
   17  A    between atoms: O_34  and  C_50
   18  A    between atoms: C_36  and  C_51
   19  A    between atoms: O_38  and  C_41
   20  A    between atoms: C_39  and  C_59
   21  A    between atoms: C_40  and  C_55
   22  A    between atoms: C_41  and  C_48
   23  A    between atoms: C_42  and  C_59
   24  A    between atoms: C_43  and  C_48
   25  A    between atoms: C_51  and  C_55
                            x       y       z     vdW  Elec       q    Type
                         _______ _______ _______ _____ _____    ______ ____

>  <TORSDO>
F 25

$$$$
