=
 OpenBabel11072410013D

 54 59  0  0  1  0  0  0  0  0999 V2000
  160.4510  210.8880  154.1040 C   0  0  0  0  0  2  0  0  0  0  0  0
  161.2240  208.4290  152.5270 C   0  0  1  0  0  3  0  0  0  0  0  0
  161.7460  207.3960  156.8220 O   0  0  0  0  0  1  0  0  0  0  0  0
  160.6430  207.8090  156.1460 N   0  0  0  0  0  0  0  0  0  0  0  0
  161.0800  209.6100  154.6270 C   0  0  1  0  0  3  0  0  0  0  0  0
  160.7710  207.3050  154.7780 C   0  0  0  0  0  2  0  0  0  0  0  0
  160.5380  211.0060  152.5610 C   0  0  1  0  0  3  0  0  0  0  0  0
  161.1040  209.7770  151.7790 C   0  0  1  0  0  3  0  0  0  0  0  0
  160.7190  209.2700  156.0570 C   0  0  0  0  0  2  0  0  0  0  0  0
  160.5080  208.4750  153.8650 C   0  0  2  0  0  3  0  0  0  0  0  0
  162.2420  211.2100  150.0650 C   0  0  0  0  0  1  0  0  0  0  0  0
  163.4050  210.4530  152.0100 O   0  0  0  0  0  1  0  0  0  0  0  0
  162.4230  210.0970  151.0810 C   0  0  1  0  0  3  0  0  0  0  0  0
  159.1610  211.3460  152.0010 C   0  0  0  0  0  2  0  0  0  0  0  0
  158.9530  212.8260  151.8630 C   0  0  0  0  0  0  0  0  0  0  0  0
  159.5290  213.6680  152.7250 C   0  0  0  0  0  2  0  0  0  0  0  0
  157.8080  213.3080  151.0210 C   0  0  0  0  0  2  0  0  0  0  0  0
  158.3330  213.9530  149.7480 C   0  0  0  0  0  2  0  0  0  0  0  0
  158.1170  213.0050  148.5750 C   0  0  1  0  0  3  0  0  0  0  0  0
  156.7730  212.6350  148.5080 O   0  0  0  0  0  1  0  0  0  0  0  0
  160.2450  213.6950  145.3950 C   0  0  1  0  0  3  0  0  0  0  0  0
  157.7660  214.4250  146.6780 O   0  0  0  0  0  0  0  0  0  0  0  0
  160.9660  212.9260  147.5800 C   0  0  0  0  0  2  0  0  0  0  0  0
  158.5510  213.6520  147.2940 C   0  0  0  0  0  0  0  0  0  0  0  0
  159.8650  213.4070  146.7700 N   0  0  0  0  0  0  0  0  0  0  0  0
  162.2170  213.0950  146.7350 C   0  0  1  0  0  3  0  0  0  0  0  0
  161.7250  213.3460  145.3020 C   0  0  2  0  0  3  0  0  0  0  0  0
  162.9420  214.1900  147.2200 O   0  0  0  0  0  1  0  0  0  0  0  0
  163.1880  213.7610  143.6940 C   0  0  0  0  0  1  0  0  0  0  0  0
  162.4220  214.3840  144.6810 O   0  0  0  0  0  0  0  0  0  0  0  0
  159.4480  212.7930  144.4500 C   0  0  0  0  0  2  0  0  0  0  0  0
  158.7450  213.3290  142.1120 C   0  0  0  0  0  2  0  0  0  0  0  0
  159.2000  213.4240  140.6570 C   0  0  0  0  0  2  0  0  0  0  0  0
  159.8020  212.0930  140.2010 C   0  0  0  0  0  2  0  0  0  0  0  0
  160.5080  211.6060  142.5500 C   0  0  0  0  0  2  0  0  0  0  0  0
  160.9720  211.7090  141.0990 C   0  0  0  0  0  2  0  0  0  0  0  0
  159.9130  212.9360  143.0090 C   0  0  0  0  0  3  0  0  0  0  0  0
  160.7020  207.3980  151.7360 O   0  0  0  0  0  0  0  0  0  0  0  0
  160.7930  207.8670  150.4230 C   0  0  0  0  0  2  0  0  0  0  0  0
  160.8720  206.7020  149.4530 C   0  0  0  0  0  2  0  0  0  0  0  0
  161.0730  205.3990  150.2020 C   0  0  0  0  0  2  0  0  0  0  0  0
  160.6300  204.2470  149.3200 C   0  0  2  0  0  3  0  0  0  0  0  0
  160.8670  202.0100  146.9760 C   0  0  0  0  0  3  0  0  0  0  0  0
  161.4880  203.0320  149.6270 C   0  0  2  0  0  3  0  0  0  0  0  0
  161.7500  203.8710  148.3640 C   0  0  1  0  0  3  0  0  0  0  0  0
  161.1760  203.3120  147.0820 C   0  0  0  0  0  0  0  0  0  0  0  0
  161.0760  201.0710  148.1160 C   0  0  0  0  0  2  0  0  0  0  0  0
  160.6570  201.7630  149.4030 C   0  0  1  0  0  3  0  0  0  0  0  0
  162.0040  204.9370  145.2710 C   0  0  0  0  0  0  0  0  0  0  0  0
  163.2280  204.7930  145.5390 O   0  0  0  0  0  0  0  0  0  0  0  0
  160.9880  204.2150  145.9830 N   0  0  0  0  0  2  0  0  0  0  0  0
  161.6030  205.8610  144.1800 C   0  0  0  0  0  1  0  0  0  0  0  0
  160.8330  200.8110  150.5680 C   0  0  0  0  0  2  0  0  0  0  0  0
  160.6040  201.4680  151.7620 F   0  0  0  0  0  0  0  0  0  0  0  0
  2 38  1  6  0  0  0
  2 10  1  0  0  0  0
  4  3  1  0  0  0  0
  5  1  1  6  0  0  0
  5  9  1  0  0  0  0
  6  4  1  0  0  0  0
  7 14  1  6  0  0  0
  7  1  1  0  0  0  0
  8 13  1  1  0  0  0
  8  2  1  0  0  0  0
  8  7  1  0  0  0  0
  9  4  1  0  0  0  0
 10  5  1  0  0  0  0
 10  6  1  1  0  0  0
 13 11  1  6  0  0  0
 13 12  1  0  0  0  0
 15 14  1  0  0  0  0
 15 16  2  0  0  0  0
 17 15  1  0  0  0  0
 18 17  1  0  0  0  0
 19 20  1  6  0  0  0
 19 18  1  0  0  0  0
 21 31  1  6  0  0  0
 21 25  1  0  0  0  0
 22 24  2  0  0  0  0
 24 19  1  0  0  0  0
 25 24  1  0  0  0  0
 25 23  1  0  0  0  0
 26 28  1  1  0  0  0
 26 23  1  0  0  0  0
 27 30  1  1  0  0  0
 27 21  1  0  0  0  0
 27 26  1  0  0  0  0
 29 30  1  0  0  0  0
 32 37  1  0  0  0  0
 33 32  1  0  0  0  0
 34 33  1  0  0  0  0
 34 36  1  0  0  0  0
 35 37  1  0  0  0  0
 36 35  1  0  0  0  0
 37 31  1  0  0  0  0
 39 38  1  0  0  0  0
 40 41  1  0  0  0  0
 40 39  1  0  0  0  0
 42 44  1  0  0  0  0
 42 41  1  1  0  0  0
 43 46  2  0  0  0  0
 43 47  1  0  0  0  0
 45 42  1  0  0  0  0
 45 44  1  0  0  0  0
 46 45  1  0  0  0  0
 47 48  1  0  0  0  0
 48 44  1  0  0  0  0
 48 53  1  0  0  0  0
 49 50  2  0  0  0  0
 49 51  1  0  0  0  0
 51 46  1  0  0  0  0
 52 49  1  0  0  0  0
 53 54  1  0  0  0  0
M  END
>  <MODEL>
1

>  <REMARK>
 VINA RESULT:      -6.4      0.000      0.000
  Name = 
  17 active torsions:
  status: ('A' for Active; 'I' for Inactive)
    1  A    between atoms: C_1  and  C_54
    2  A    between atoms: C_2  and  C_13
    3  A    between atoms: C_3  and  C_17
    4  A    between atoms: C_3  and  C_18
    5  A    between atoms: C_6  and  C_9
    6  A    between atoms: C_6  and  C_48
    7  A    between atoms: C_7  and  C_17
    8  A    between atoms: C_8  and  C_20
    9  A    between atoms: C_8  and  C_53
   10  A    between atoms: C_13  and  C_44
   11  A    between atoms: C_18  and  O_26
   12  A    between atoms: C_20  and  C_48
   13  A    between atoms: O_26  and  C_29
   14  A    between atoms: C_37  and  C_53
   15  A    between atoms: C_38  and  O_47
   16  A    between atoms: N_42  and  C_45
   17  A    between atoms: C_43  and  C_50
                            x       y       z     vdW  Elec       q    Type
                         _______ _______ _______ _____ _____    ______ ____

>  <TORSDO>
F 17

$$$$
=
 OpenBabel11072410013D

 54 59  0  0  1  0  0  0  0  0999 V2000
  159.3860  214.0320  148.1930 C   0  0  0  0  0  2  0  0  0  0  0  0
  161.5330  212.2630  149.3740 C   0  0  1  0  0  3  0  0  0  0  0  0
  159.1730  213.8490  152.7950 O   0  0  0  0  0  1  0  0  0  0  0  0
  158.7790  213.1110  151.7240 N   0  0  0  0  0  0  0  0  0  0  0  0
  159.7390  213.8530  149.6580 C   0  0  1  0  0  3  0  0  0  0  0  0
  159.9150  212.2650  151.3550 C   0  0  0  0  0  2  0  0  0  0  0  0
  160.4790  213.4750  147.2450 C   0  0  1  0  0  3  0  0  0  0  0  0
  161.6730  212.7080  147.9000 C   0  0  1  0  0  3  0  0  0  0  0  0
  158.5800  214.0450  150.6130 C   0  0  0  0  0  2  0  0  0  0  0  0
  160.1070  212.4330  149.8690 C   0  0  2  0  0  3  0  0  0  0  0  0
  164.0980  212.4650  147.3130 C   0  0  0  0  0  1  0  0  0  0  0  0
  162.8820  214.4410  146.7410 O   0  0  0  0  0  1  0  0  0  0  0  0
  163.0000  213.4360  147.7070 C   0  0  1  0  0  3  0  0  0  0  0  0
  159.8320  212.5700  146.2030 C   0  0  0  0  0  2  0  0  0  0  0  0
  160.1650  212.9880  144.8010 C   0  0  0  0  0  0  0  0  0  0  0  0
  161.2420  212.4880  144.1890 C   0  0  0  0  0  2  0  0  0  0  0  0
  159.5280  214.2350  144.2600 C   0  0  0  0  0  2  0  0  0  0  0  0
  159.9550  214.4530  142.8170 C   0  0  0  0  0  2  0  0  0  0  0  0
  159.3150  213.3890  141.9340 C   0  0  1  0  0  3  0  0  0  0  0  0
  157.9450  213.6310  141.8190 O   0  0  0  0  0  1  0  0  0  0  0  0
  160.7830  211.9650  138.6270 C   0  0  1  0  0  3  0  0  0  0  0  0
  160.0780  214.4440  139.9230 O   0  0  0  0  0  0  0  0  0  0  0  0
  160.7920  210.9890  140.8480 C   0  0  0  0  0  2  0  0  0  0  0  0
  159.9630  213.3740  140.5820 C   0  0  0  0  0  0  0  0  0  0  0  0
  160.4680  212.1460  140.0370 N   0  0  0  0  0  0  0  0  0  0  0  0
  161.5650  210.0430  139.9460 C   0  0  1  0  0  3  0  0  0  0  0  0
  161.3430  210.5530  138.5140 C   0  0  2  0  0  3  0  0  0  0  0  0
  162.9190  210.0940  140.2980 O   0  0  0  0  0  1  0  0  0  0  0  0
  163.0890  211.8180  138.0170 C   0  0  0  0  0  1  0  0  0  0  0  0
  162.5250  210.5640  137.7720 O   0  0  0  0  0  0  0  0  0  0  0  0
  159.4990  212.0720  137.8030 C   0  0  0  0  0  2  0  0  0  0  0  0
  157.9730  210.1130  137.5260 C   0  0  0  0  0  2  0  0  0  0  0  0
  156.7970  209.3450  138.1280 C   0  0  0  0  0  2  0  0  0  0  0  0
  155.6040  210.2790  138.3390 C   0  0  0  0  0  2  0  0  0  0  0  0
  157.1670  212.2100  138.6310 C   0  0  0  0  0  2  0  0  0  0  0  0
  155.9980  211.4410  139.2440 C   0  0  0  0  0  2  0  0  0  0  0  0
  158.3610  211.2790  138.4270 C   0  0  0  0  0  3  0  0  0  0  0  0
  161.9320  210.9280  149.5080 O   0  0  0  0  0  0  0  0  0  0  0  0
  161.5950  210.3250  148.2940 C   0  0  0  0  0  2  0  0  0  0  0  0
  161.4460  208.8250  148.4740 C   0  0  0  0  0  2  0  0  0  0  0  0
  162.6590  208.2520  149.1810 C   0  0  0  0  0  2  0  0  0  0  0  0
  162.4520  206.7640  149.3930 C   0  0  2  0  0  3  0  0  0  0  0  0
  160.8220  204.0350  150.0650 C   0  0  0  0  0  3  0  0  0  0  0  0
  161.5410  206.2320  148.3000 C   0  0  2  0  0  3  0  0  0  0  0  0
  160.9930  206.4890  149.7150 C   0  0  1  0  0  3  0  0  0  0  0  0
  160.8750  205.2660  150.5970 C   0  0  0  0  0  0  0  0  0  0  0  0
  160.8800  203.8280  148.5880 C   0  0  0  0  0  2  0  0  0  0  0  0
  161.9150  204.7750  148.0020 C   0  0  1  0  0  3  0  0  0  0  0  0
  161.1720  206.6530  152.7400 C   0  0  0  0  0  0  0  0  0  0  0  0
  161.5660  207.6940  152.1480 O   0  0  0  0  0  0  0  0  0  0  0  0
  160.8070  205.4690  152.0160 N   0  0  0  0  0  2  0  0  0  0  0  0
  161.0660  206.6550  154.2210 C   0  0  0  0  0  1  0  0  0  0  0  0
  162.0080  204.5570  146.5060 C   0  0  0  0  0  2  0  0  0  0  0  0
  161.1690  203.5280  146.1190 F   0  0  0  0  0  0  0  0  0  0  0  0
  2 38  1  6  0  0  0
  2 10  1  0  0  0  0
  4  3  1  0  0  0  0
  5  1  1  6  0  0  0
  5 10  1  0  0  0  0
  5  9  1  0  0  0  0
  6  4  1  0  0  0  0
  7 14  1  6  0  0  0
  7  8  1  0  0  0  0
  7  1  1  0  0  0  0
  8 13  1  1  0  0  0
  8  2  1  0  0  0  0
  9  4  1  0  0  0  0
 10  6  1  1  0  0  0
 12 13  1  0  0  0  0
 13 11  1  6  0  0  0
 15 14  1  0  0  0  0
 16 15  2  0  0  0  0
 17 15  1  0  0  0  0
 18 17  1  0  0  0  0
 19 20  1  6  0  0  0
 19 18  1  0  0  0  0
 21 31  1  6  0  0  0
 21 25  1  0  0  0  0
 22 24  2  0  0  0  0
 24 19  1  0  0  0  0
 25 24  1  0  0  0  0
 25 23  1  0  0  0  0
 26 28  1  1  0  0  0
 26 23  1  0  0  0  0
 27 30  1  6  0  0  0
 27 21  1  0  0  0  0
 27 26  1  0  0  0  0
 30 29  1  0  0  0  0
 31 37  1  0  0  0  0
 32 33  1  0  0  0  0
 32 37  1  0  0  0  0
 33 34  1  0  0  0  0
 34 36  1  0  0  0  0
 35 36  1  0  0  0  0
 37 35  1  0  0  0  0
 39 40  1  0  0  0  0
 39 38  1  0  0  0  0
 40 41  1  0  0  0  0
 42 41  1  6  0  0  0
 42 45  1  0  0  0  0
 43 46  2  0  0  0  0
 44 42  1  0  0  0  0
 44 45  1  0  0  0  0
 45 46  1  0  0  0  0
 46 51  1  0  0  0  0
 47 43  1  0  0  0  0
 48 44  1  0  0  0  0
 48 47  1  0  0  0  0
 49 52  1  0  0  0  0
 50 49  2  0  0  0  0
 51 49  1  0  0  0  0
 53 48  1  0  0  0  0
 54 53  1  0  0  0  0
M  END
>  <MODEL>
2

>  <REMARK>
 VINA RESULT:      -5.3      3.060      6.132
  Name = 
  17 active torsions:
  status: ('A' for Active; 'I' for Inactive)
    1  A    between atoms: C_1  and  C_54
    2  A    between atoms: C_2  and  C_13
    3  A    between atoms: C_3  and  C_17
    4  A    between atoms: C_3  and  C_18
    5  A    between atoms: C_6  and  C_9
    6  A    between atoms: C_6  and  C_48
    7  A    between atoms: C_7  and  C_17
    8  A    between atoms: C_8  and  C_20
    9  A    between atoms: C_8  and  C_53
   10  A    between atoms: C_13  and  C_44
   11  A    between atoms: C_18  and  O_26
   12  A    between atoms: C_20  and  C_48
   13  A    between atoms: O_26  and  C_29
   14  A    between atoms: C_37  and  C_53
   15  A    between atoms: C_38  and  O_47
   16  A    between atoms: N_42  and  C_45
   17  A    between atoms: C_43  and  C_50
                            x       y       z     vdW  Elec       q    Type
                         _______ _______ _______ _____ _____    ______ ____

>  <TORSDO>
F 17

$$$$
=
 OpenBabel11072410013D

 54 59  0  0  1  0  0  0  0  0999 V2000
  159.8320  210.7870  153.9610 C   0  0  0  0  0  2  0  0  0  0  0  0
  160.9720  208.3420  152.5990 C   0  0  1  0  0  3  0  0  0  0  0  0
  160.6660  207.3560  156.9260 O   0  0  0  0  0  1  0  0  0  0  0  0
  159.7060  207.7300  156.0400 N   0  0  0  0  0  0  0  0  0  0  0  0
  160.3820  209.5320  154.6140 C   0  0  1  0  0  3  0  0  0  0  0  0
  160.1160  207.2200  154.7310 C   0  0  0  0  0  2  0  0  0  0  0  0
  160.2180  210.8960  152.4630 C   0  0  1  0  0  3  0  0  0  0  0  0
  160.9630  209.6800  151.8240 C   0  0  1  0  0  3  0  0  0  0  0  0
  159.7560  209.1920  155.9490 C   0  0  0  0  0  2  0  0  0  0  0  0
  160.0040  208.3750  153.7690 C   0  0  2  0  0  3  0  0  0  0  0  0
  162.3710  210.9630  150.1940 C   0  0  0  0  0  1  0  0  0  0  0  0
  163.0890  210.6270  152.4490 O   0  0  0  0  0  1  0  0  0  0  0  0
  162.3840  210.0360  151.3950 C   0  0  1  0  0  3  0  0  0  0  0  0
  158.9700  211.1900  151.6390 C   0  0  0  0  0  2  0  0  0  0  0  0
  158.9940  212.5660  151.0420 C   0  0  0  0  0  0  0  0  0  0  0  0
  159.9630  213.4250  151.3710 C   0  0  0  0  0  2  0  0  0  0  0  0
  157.7380  213.0880  150.4050 C   0  0  0  0  0  2  0  0  0  0  0  0
  158.0810  213.8880  149.1580 C   0  0  0  0  0  2  0  0  0  0  0  0
  157.4910  213.1960  147.9360 C   0  0  1  0  0  3  0  0  0  0  0  0
  156.1070  213.3790  147.9110 O   0  0  0  0  0  1  0  0  0  0  0  0
  160.0640  213.5970  145.0490 C   0  0  1  0  0  3  0  0  0  0  0  0
  157.4430  214.4520  145.8970 O   0  0  0  0  0  0  0  0  0  0  0  0
  160.4510  213.0110  147.3720 C   0  0  0  0  0  2  0  0  0  0  0  0
  158.1160  213.7280  146.6820 C   0  0  0  0  0  0  0  0  0  0  0  0
  159.4860  213.4300  146.3750 N   0  0  0  0  0  0  0  0  0  0  0  0
  161.8120  213.0990  146.7040 C   0  0  1  0  0  3  0  0  0  0  0  0
  161.5360  213.2310  145.2000 C   0  0  2  0  0  3  0  0  0  0  0  0
  162.4820  214.2250  147.1970 O   0  0  0  0  0  1  0  0  0  0  0  0
  163.3760  213.4980  144.0000 C   0  0  0  0  0  1  0  0  0  0  0  0
  162.3350  214.2070  144.6020 O   0  0  0  0  0  0  0  0  0  0  0  0
  159.3930  212.6250  144.0770 C   0  0  0  0  0  2  0  0  0  0  0  0
  158.9780  212.7150  141.6150 C   0  0  0  0  0  2  0  0  0  0  0  0
  159.6280  212.7030  140.2330 C   0  0  0  0  0  2  0  0  0  0  0  0
  160.5030  211.4590  140.0680 C   0  0  0  0  0  2  0  0  0  0  0  0
  160.9110  211.4180  142.5350 C   0  0  0  0  0  2  0  0  0  0  0  0
  161.5690  211.4160  141.1560 C   0  0  0  0  0  2  0  0  0  0  0  0
  160.0430  212.6630  142.7030 C   0  0  0  0  0  3  0  0  0  0  0  0
  160.6460  207.2900  151.7340 O   0  0  0  0  0  0  0  0  0  0  0  0
  161.4080  206.2060  152.1790 C   0  0  0  0  0  2  0  0  0  0  0  0
  161.5450  205.1720  151.0770 C   0  0  0  0  0  2  0  0  0  0  0  0
  161.0590  205.7360  149.7550 C   0  0  0  0  0  2  0  0  0  0  0  0
  161.6040  204.8860  148.6240 C   0  0  2  0  0  3  0  0  0  0  0  0
  161.6090  202.5380  146.3770 C   0  0  0  0  0  3  0  0  0  0  0  0
  160.7820  205.1430  147.3720 C   0  0  2  0  0  3  0  0  0  0  0  0
  160.5620  203.8640  148.1990 C   0  0  1  0  0  3  0  0  0  0  0  0
  161.2380  202.6210  147.6640 C   0  0  0  0  0  0  0  0  0  0  0  0
  161.3710  203.6670  145.4300 C   0  0  0  0  0  2  0  0  0  0  0  0
  161.6800  204.9750  146.1400 C   0  0  1  0  0  3  0  0  0  0  0  0
  160.5660  201.0780  149.6070 C   0  0  0  0  0  0  0  0  0  0  0  0
  159.4310  201.6010  149.7810 O   0  0  0  0  0  0  0  0  0  0  0  0
  161.4530  201.5330  148.5750 N   0  0  0  0  0  2  0  0  0  0  0  0
  160.9880  199.9520  150.4780 C   0  0  0  0  0  1  0  0  0  0  0  0
  161.4730  206.1290  145.1830 C   0  0  0  0  0  2  0  0  0  0  0  0
  160.2990  206.7940  145.4800 F   0  0  0  0  0  0  0  0  0  0  0  0
  2 38  1  6  0  0  0
  2 10  1  0  0  0  0
  4  3  1  0  0  0  0
  5  1  1  6  0  0  0
  5  9  1  0  0  0  0
  6  4  1  0  0  0  0
  7 14  1  6  0  0  0
  7  1  1  0  0  0  0
  8 13  1  1  0  0  0
  8  7  1  0  0  0  0
  8  2  1  0  0  0  0
  9  4  1  0  0  0  0
 10  5  1  0  0  0  0
 10  6  1  1  0  0  0
 13 11  1  6  0  0  0
 13 12  1  0  0  0  0
 15 16  2  0  0  0  0
 15 14  1  0  0  0  0
 17 15  1  0  0  0  0
 18 17  1  0  0  0  0
 19 20  1  6  0  0  0
 19 18  1  0  0  0  0
 21 31  1  6  0  0  0
 21 27  1  0  0  0  0
 21 25  1  0  0  0  0
 22 24  2  0  0  0  0
 24 19  1  0  0  0  0
 25 24  1  0  0  0  0
 25 23  1  0  0  0  0
 26 28  1  1  0  0  0
 26 23  1  0  0  0  0
 27 30  1  1  0  0  0
 27 26  1  0  0  0  0
 29 30  1  0  0  0  0
 32 37  1  0  0  0  0
 33 32  1  0  0  0  0
 34 33  1  0  0  0  0
 34 36  1  0  0  0  0
 35 37  1  0  0  0  0
 36 35  1  0  0  0  0
 37 31  1  0  0  0  0
 38 39  1  0  0  0  0
 40 39  1  0  0  0  0
 41 40  1  0  0  0  0
 42 41  1  1  0  0  0
 43 46  2  0  0  0  0
 44 45  1  0  0  0  0
 44 42  1  0  0  0  0
 45 42  1  0  0  0  0
 46 45  1  0  0  0  0
 46 51  1  0  0  0  0
 47 48  1  0  0  0  0
 47 43  1  0  0  0  0
 48 44  1  0  0  0  0
 49 50  2  0  0  0  0
 49 52  1  0  0  0  0
 51 49  1  0  0  0  0
 53 54  1  0  0  0  0
 53 48  1  0  0  0  0
M  END
>  <MODEL>
3

>  <REMARK>
 VINA RESULT:      -4.2      1.731      2.632
  Name = 
  17 active torsions:
  status: ('A' for Active; 'I' for Inactive)
    1  A    between atoms: C_1  and  C_54
    2  A    between atoms: C_2  and  C_13
    3  A    between atoms: C_3  and  C_17
    4  A    between atoms: C_3  and  C_18
    5  A    between atoms: C_6  and  C_9
    6  A    between atoms: C_6  and  C_48
    7  A    between atoms: C_7  and  C_17
    8  A    between atoms: C_8  and  C_20
    9  A    between atoms: C_8  and  C_53
   10  A    between atoms: C_13  and  C_44
   11  A    between atoms: C_18  and  O_26
   12  A    between atoms: C_20  and  C_48
   13  A    between atoms: O_26  and  C_29
   14  A    between atoms: C_37  and  C_53
   15  A    between atoms: C_38  and  O_47
   16  A    between atoms: N_42  and  C_45
   17  A    between atoms: C_43  and  C_50
                            x       y       z     vdW  Elec       q    Type
                         _______ _______ _______ _____ _____    ______ ____

>  <TORSDO>
F 17

$$$$
