=
 OpenBabel11072412193D

 38 40  0  0  1  0  0  0  0  0999 V2000
  158.0190  213.0600  152.6120 C   0  0  0  0  0  0  0  0  0  0  0  0
  157.1140  213.8150  154.7000 N   0  0  0  0  0  1  0  0  0  0  0  0
  157.3360  213.6890  151.5700 C   0  0  0  0  0  3  0  0  0  0  0  0
  160.0470  212.9520  151.3220 C   0  0  0  0  0  3  0  0  0  0  0  0
  157.4960  212.6440  153.9270 C   0  0  2  0  0  3  0  0  0  0  0  0
  158.6070  211.9510  154.6030 N   0  0  0  0  0  2  0  0  0  0  0  0
  159.3260  212.7020  152.4920 C   0  0  0  0  0  0  0  0  0  0  0  0
  158.0360  213.9530  150.3810 C   0  0  0  0  0  3  0  0  0  0  0  0
  159.7790  212.0060  153.7130 C   0  0  2  0  0  3  0  0  0  0  0  0
  159.3960  213.5900  150.2540 C   0  0  0  0  0  0  0  0  0  0  0  0
  160.2070  210.6460  153.3730 C   0  0  0  0  0  0  0  0  0  0  0  0
  160.5820  209.5250  153.1420 C   0  0  0  0  0  0  0  0  0  0  0  0
  161.0520  208.1780  152.9140 C   0  0  0  0  0  0  0  0  0  0  0  0
  161.4510  207.7830  151.6950 C   0  0  0  0  0  3  0  0  0  0  0  0
  162.3450  209.7080  150.5710 O   0  0  0  0  0  1  0  0  0  0  0  0
  161.4690  208.6290  150.4460 C   0  0  1  0  0  3  0  0  0  0  0  0
  161.2530  205.6920  150.3860 C   0  0  0  0  0  2  0  0  0  0  0  0
  161.5360  204.4000  147.8760 C   0  0  0  0  0  3  0  0  0  0  0  0
  161.5470  206.4310  149.1540 N   0  0  0  0  0  0  0  0  0  0  0  0
  160.4190  204.4550  150.0720 C   0  0  0  0  0  2  0  0  0  0  0  0
  162.1160  208.4590  148.1460 O   0  0  0  0  0  0  0  0  0  0  0  0
  161.7490  207.8520  149.1900 C   0  0  0  0  0  0  0  0  0  0  0  0
  161.7880  205.7060  147.9380 C   0  0  0  0  0  3  0  0  0  0  0  0
  160.9930  203.7360  148.9820 O   0  0  0  0  0  0  0  0  0  0  0  0
  161.0820  207.2280  154.0470 C   0  0  0  0  0  0  0  0  0  0  0  0
  161.1630  205.9880  153.8290 O   0  0  0  0  0  0  0  0  0  0  0  0
  161.0470  207.7040  155.4640 C   0  0  0  0  0  2  0  0  0  0  0  0
  159.7250  207.3280  156.1060 C   0  0  0  0  0  1  0  0  0  0  0  0
  160.1470  213.7940  148.9740 C   0  0  1  0  0  3  0  0  0  0  0  0
  161.1980  212.7060  148.7420 C   0  0  0  0  0  2  0  0  0  0  0  0
  162.4830  213.2460  148.1290 C   0  0  0  0  0  2  0  0  0  0  0  0
  162.5280  212.9310  146.6460 C   0  0  0  0  0  2  0  0  0  0  0  0
  162.3570  214.1020  145.9070 O   0  0  0  0  0  1  0  0  0  0  0  0
  159.2230  213.9980  147.7730 C   0  0  0  0  0  2  0  0  0  0  0  0
  158.8700  212.6720  147.1220 C   0  0  0  0  0  2  0  0  0  0  0  0
  158.6960  212.8330  145.6520 C   0  0  0  0  0  0  0  0  0  0  0  0
  159.5830  212.2210  144.7770 O   0  0  0  0  0  0  0  0  0  0  0  0
  157.7290  213.5010  145.2000 O   0  0  0  0  0  1  0  0  0  0  0  0
  1  5  1  0  0  0  0
  3  1  2  0  0  0  0
  4  7  2  0  0  0  0
  5  6  1  0  0  0  0
  5  2  1  1  0  0  0
  7  1  1  0  0  0  0
  7  9  1  0  0  0  0
  8  3  1  0  0  0  0
  9 11  1  6  0  0  0
  9  6  1  0  0  0  0
 10  8  2  0  0  0  0
 10  4  1  0  0  0  0
 12 11  3  0  0  0  0
 13 12  1  0  0  0  0
 13 25  1  0  0  0  0
 14 13  2  0  0  0  0
 16 15  1  1  0  0  0
 16 14  1  0  0  0  0
 18 23  2  0  0  0  0
 18 24  1  0  0  0  0
 19 22  1  0  0  0  0
 19 17  1  0  0  0  0
 20 17  1  0  0  0  0
 21 22  2  0  0  0  0
 22 16  1  0  0  0  0
 23 19  1  0  0  0  0
 24 20  1  0  0  0  0
 25 27  1  0  0  0  0
 26 25  2  0  0  0  0
 27 28  1  0  0  0  0
 29 34  1  6  0  0  0
 29 10  1  0  0  0  0
 30 29  1  0  0  0  0
 31 30  1  0  0  0  0
 32 31  1  0  0  0  0
 33 32  1  0  0  0  0
 35 34  1  0  0  0  0
 36 35  1  0  0  0  0
 37 36  2  0  0  0  0
 38 36  1  0  0  0  0
M  END
>  <MODEL>
1

>  <REMARK>
 VINA RESULT:      -6.7      0.000      0.000
  Name = 
  13 active torsions:
  status: ('A' for Active; 'I' for Inactive)
    1  A    between atoms: C_2  and  C_8
    2  A    between atoms: C_2  and  C_20
    3  A    between atoms: C_5  and  C_12
    4  A    between atoms: C_6  and  C_16
    5  A    between atoms: C_8  and  C_14
    6  A    between atoms: C_12  and  C_21
    7  A    between atoms: C_16  and  C_38
    8  A    between atoms: C_17  and  C_27
    9  A    between atoms: C_19  and  C_33
   10  A    between atoms: C_21  and  C_24
   11  A    between atoms: C_24  and  C_34
   12  A    between atoms: C_24  and  C_38
   13  A    between atoms: C_27  and  C_32
                            x       y       z     vdW  Elec       q    Type
                         _______ _______ _______ _____ _____    ______ ____

>  <TORSDO>
F 13

$$$$
=
 OpenBabel11072412193D

 38 40  0  0  1  0  0  0  0  0999 V2000
  158.0950  212.9590  153.5760 C   0  0  0  0  0  0  0  0  0  0  0  0
  157.7080  213.7450  155.8080 N   0  0  0  0  0  1  0  0  0  0  0  0
  157.1590  213.5440  152.7220 C   0  0  0  0  0  3  0  0  0  0  0  0
  159.7480  212.8670  151.8300 C   0  0  0  0  0  3  0  0  0  0  0  0
  157.9230  212.5640  154.9870 C   0  0  2  0  0  3  0  0  0  0  0  0
  159.1860  211.9160  155.3820 N   0  0  0  0  0  2  0  0  0  0  0  0
  159.3430  212.6300  153.1460 C   0  0  0  0  0  0  0  0  0  0  0  0
  157.5380  213.7940  151.3930 C   0  0  0  0  0  3  0  0  0  0  0  0
  160.1020  211.9770  154.2310 C   0  0  2  0  0  3  0  0  0  0  0  0
  158.8360  213.4610  150.9430 C   0  0  0  0  0  0  0  0  0  0  0  0
  160.4740  210.6190  153.8210 C   0  0  0  0  0  0  0  0  0  0  0  0
  160.7510  209.4840  153.5270 C   0  0  0  0  0  0  0  0  0  0  0  0
  161.0520  208.1070  153.2130 C   0  0  0  0  0  0  0  0  0  0  0  0
  161.3610  207.7360  151.9600 C   0  0  0  0  0  3  0  0  0  0  0  0
  162.4650  209.5760  150.8810 O   0  0  0  0  0  1  0  0  0  0  0  0
  161.4370  208.6410  150.7560 C   0  0  1  0  0  3  0  0  0  0  0  0
  161.4430  205.6980  150.6560 C   0  0  0  0  0  2  0  0  0  0  0  0
  161.3470  204.4650  148.1020 C   0  0  0  0  0  3  0  0  0  0  0  0
  161.4400  206.4730  149.4120 N   0  0  0  0  0  0  0  0  0  0  0  0
  160.6640  204.4000  150.4680 C   0  0  0  0  0  2  0  0  0  0  0  0
  161.6480  208.5540  148.3720 O   0  0  0  0  0  0  0  0  0  0  0  0
  161.5340  207.9060  149.4490 C   0  0  0  0  0  0  0  0  0  0  0  0
  161.5030  205.7870  148.1510 C   0  0  0  0  0  3  0  0  0  0  0  0
  161.0760  203.7450  149.2710 O   0  0  0  0  0  0  0  0  0  0  0  0
  161.0100  207.0990  154.2950 C   0  0  0  0  0  0  0  0  0  0  0  0
  160.9990  205.8700  154.0120 O   0  0  0  0  0  0  0  0  0  0  0  0
  161.0080  207.5020  155.7350 C   0  0  0  0  0  2  0  0  0  0  0  0
  159.6450  207.2370  156.3460 C   0  0  0  0  0  1  0  0  0  0  0  0
  159.2430  213.6510  149.5130 C   0  0  1  0  0  3  0  0  0  0  0  0
  158.1250  214.2730  148.6730 C   0  0  0  0  0  2  0  0  0  0  0  0
  157.4550  213.2700  147.7440 C   0  0  0  0  0  2  0  0  0  0  0  0
  157.8600  213.5380  146.3070 C   0  0  0  0  0  2  0  0  0  0  0  0
  158.2330  212.3440  145.6890 O   0  0  0  0  0  1  0  0  0  0  0  0
  160.5760  214.3860  149.3710 C   0  0  0  0  0  2  0  0  0  0  0  0
  161.0430  214.3990  147.9260 C   0  0  0  0  0  2  0  0  0  0  0  0
  161.6050  213.0750  147.5390 C   0  0  0  0  0  0  0  0  0  0  0  0
  162.1600  212.2470  148.5070 O   0  0  0  0  0  1  0  0  0  0  0  0
  161.5520  212.6920  146.3410 O   0  0  0  0  0  0  0  0  0  0  0  0
  1  5  1  0  0  0  0
  3  1  2  0  0  0  0
  4  7  2  0  0  0  0
  5  6  1  0  0  0  0
  5  2  1  1  0  0  0
  7  1  1  0  0  0  0
  7  9  1  0  0  0  0
  8  3  1  0  0  0  0
  9 11  1  6  0  0  0
  9  6  1  0  0  0  0
 10  8  2  0  0  0  0
 10  4  1  0  0  0  0
 12 11  3  0  0  0  0
 13 12  1  0  0  0  0
 13 25  1  0  0  0  0
 14 13  2  0  0  0  0
 16 15  1  1  0  0  0
 16 14  1  0  0  0  0
 18 23  2  0  0  0  0
 18 24  1  0  0  0  0
 19 22  1  0  0  0  0
 19 17  1  0  0  0  0
 20 17  1  0  0  0  0
 21 22  2  0  0  0  0
 22 16  1  0  0  0  0
 23 19  1  0  0  0  0
 24 20  1  0  0  0  0
 25 27  1  0  0  0  0
 26 25  2  0  0  0  0
 27 28  1  0  0  0  0
 29 30  1  6  0  0  0
 29 10  1  0  0  0  0
 31 30  1  0  0  0  0
 32 31  1  0  0  0  0
 33 32  1  0  0  0  0
 34 29  1  0  0  0  0
 35 34  1  0  0  0  0
 36 35  1  0  0  0  0
 36 37  1  0  0  0  0
 38 36  2  0  0  0  0
M  END
>  <MODEL>
2

>  <REMARK>
 VINA RESULT:      -6.7      0.971      2.018
  Name = 
  13 active torsions:
  status: ('A' for Active; 'I' for Inactive)
    1  A    between atoms: C_2  and  C_8
    2  A    between atoms: C_2  and  C_20
    3  A    between atoms: C_5  and  C_12
    4  A    between atoms: C_6  and  C_16
    5  A    between atoms: C_8  and  C_14
    6  A    between atoms: C_12  and  C_21
    7  A    between atoms: C_16  and  C_38
    8  A    between atoms: C_17  and  C_27
    9  A    between atoms: C_19  and  C_33
   10  A    between atoms: C_21  and  C_24
   11  A    between atoms: C_24  and  C_34
   12  A    between atoms: C_24  and  C_38
   13  A    between atoms: C_27  and  C_32
                            x       y       z     vdW  Elec       q    Type
                         _______ _______ _______ _____ _____    ______ ____

>  <TORSDO>
F 13

$$$$
=
 OpenBabel11072412193D

 38 40  0  0  1  0  0  0  0  0999 V2000
  159.5660  210.6640  154.4680 C   0  0  0  0  0  0  0  0  0  0  0  0
  160.2510  210.6340  156.7660 N   0  0  0  0  0  1  0  0  0  0  0  0
  158.5330  211.5910  154.3170 C   0  0  0  0  0  3  0  0  0  0  0  0
  160.3570  211.0620  152.2310 C   0  0  0  0  0  3  0  0  0  0  0  0
  159.8620  209.8090  155.6340 C   0  0  2  0  0  3  0  0  0  0  0  0
  160.9970  208.9590  155.2330 N   0  0  0  0  0  2  0  0  0  0  0  0
  160.4440  210.4070  153.4630 C   0  0  0  0  0  0  0  0  0  0  0  0
  158.4210  212.2650  153.0900 C   0  0  0  0  0  3  0  0  0  0  0  0
  161.3910  209.3490  153.8690 C   0  0  2  0  0  3  0  0  0  0  0  0
  159.3360  212.0070  152.0440 C   0  0  0  0  0  0  0  0  0  0  0  0
  161.2590  208.1990  152.9680 C   0  0  0  0  0  0  0  0  0  0  0  0
  161.1970  207.2350  152.2500 C   0  0  0  0  0  0  0  0  0  0  0  0
  161.1630  206.0580  151.4130 C   0  0  0  0  0  0  0  0  0  0  0  0
  161.3520  206.1480  150.0870 C   0  0  0  0  0  3  0  0  0  0  0  0
  162.8950  207.9050  149.5410 O   0  0  0  0  0  1  0  0  0  0  0  0
  161.6100  207.4120  149.3080 C   0  0  1  0  0  3  0  0  0  0  0  0
  162.0040  204.8560  147.9010 C   0  0  0  0  0  2  0  0  0  0  0  0
  161.1880  204.7030  145.1880 C   0  0  0  0  0  3  0  0  0  0  0  0
  161.4490  206.0080  147.1840 N   0  0  0  0  0  0  0  0  0  0  0  0
  161.4050  203.5610  147.3610 C   0  0  0  0  0  2  0  0  0  0  0  0
  160.9730  208.2940  147.1730 O   0  0  0  0  0  0  0  0  0  0  0  0
  161.3430  207.2840  147.8340 C   0  0  0  0  0  0  0  0  0  0  0  0
  161.1600  205.8940  145.7820 C   0  0  0  0  0  3  0  0  0  0  0  0
  161.4570  203.5510  145.9350 O   0  0  0  0  0  0  0  0  0  0  0  0
  160.9110  204.7410  152.0380 C   0  0  0  0  0  0  0  0  0  0  0  0
  160.9970  204.6100  153.2890 O   0  0  0  0  0  0  0  0  0  0  0  0
  160.5240  203.5520  151.2180 C   0  0  0  0  0  2  0  0  0  0  0  0
  161.4180  202.3750  151.5560 C   0  0  0  0  0  1  0  0  0  0  0  0
  159.1960  212.6580  150.7020 C   0  0  1  0  0  3  0  0  0  0  0  0
  157.9410  213.5290  150.6110 C   0  0  0  0  0  2  0  0  0  0  0  0
  157.0140  213.1150  149.4760 C   0  0  0  0  0  2  0  0  0  0  0  0
  157.1100  214.1070  148.3340 C   0  0  0  0  0  2  0  0  0  0  0  0
  157.5620  213.4620  147.1830 O   0  0  0  0  0  1  0  0  0  0  0  0
  160.4650  213.3920  150.2660 C   0  0  0  0  0  2  0  0  0  0  0  0
  160.7570  213.1550  148.7940 C   0  0  0  0  0  2  0  0  0  0  0  0
  161.9540  212.2860  148.6250 C   0  0  0  0  0  0  0  0  0  0  0  0
  163.0850  212.7790  147.9870 O   0  0  0  0  0  0  0  0  0  0  0  0
  161.9540  211.1140  149.0850 O   0  0  0  0  0  1  0  0  0  0  0  0
  1  5  1  0  0  0  0
  3  1  1  0  0  0  0
  4  7  1  0  0  0  0
  5  2  1  1  0  0  0
  6  5  1  0  0  0  0
  7  9  1  0  0  0  0
  7  1  2  0  0  0  0
  8  3  2  0  0  0  0
  9 11  1  6  0  0  0
  9  6  1  0  0  0  0
 10  4  2  0  0  0  0
 10  8  1  0  0  0  0
 12 11  3  0  0  0  0
 13 25  1  0  0  0  0
 13 12  1  0  0  0  0
 14 13  2  0  0  0  0
 16 15  1  6  0  0  0
 16 14  1  0  0  0  0
 18 23  2  0  0  0  0
 18 24  1  0  0  0  0
 19 22  1  0  0  0  0
 19 17  1  0  0  0  0
 20 17  1  0  0  0  0
 21 22  2  0  0  0  0
 22 16  1  0  0  0  0
 23 19  1  0  0  0  0
 24 20  1  0  0  0  0
 25 26  2  0  0  0  0
 27 28  1  0  0  0  0
 27 25  1  0  0  0  0
 29 34  1  1  0  0  0
 29 10  1  0  0  0  0
 30 29  1  0  0  0  0
 31 30  1  0  0  0  0
 32 31  1  0  0  0  0
 33 32  1  0  0  0  0
 35 34  1  0  0  0  0
 36 35  1  0  0  0  0
 36 38  1  0  0  0  0
 37 36  2  0  0  0  0
M  END
>  <MODEL>
3

>  <REMARK>
 VINA RESULT:      -6.5      1.911      3.632
  Name = 
  13 active torsions:
  status: ('A' for Active; 'I' for Inactive)
    1  A    between atoms: C_2  and  C_8
    2  A    between atoms: C_2  and  C_20
    3  A    between atoms: C_5  and  C_12
    4  A    between atoms: C_6  and  C_16
    5  A    between atoms: C_8  and  C_14
    6  A    between atoms: C_12  and  C_21
    7  A    between atoms: C_16  and  C_38
    8  A    between atoms: C_17  and  C_27
    9  A    between atoms: C_19  and  C_33
   10  A    between atoms: C_21  and  C_24
   11  A    between atoms: C_24  and  C_34
   12  A    between atoms: C_24  and  C_38
   13  A    between atoms: C_27  and  C_32
                            x       y       z     vdW  Elec       q    Type
                         _______ _______ _______ _____ _____    ______ ____

>  <TORSDO>
F 13

$$$$
=
 OpenBabel11072412193D

 38 40  0  0  1  0  0  0  0  0999 V2000
  159.5510  210.5490  154.4370 C   0  0  0  0  0  0  0  0  0  0  0  0
  160.2430  210.0890  156.6870 N   0  0  0  0  0  1  0  0  0  0  0  0
  158.3520  211.2610  154.4700 C   0  0  0  0  0  3  0  0  0  0  0  0
  160.2310  211.6350  152.4010 C   0  0  0  0  0  3  0  0  0  0  0  0
  160.0220  209.5080  155.3720 C   0  0  2  0  0  3  0  0  0  0  0  0
  161.3030  209.0260  154.8270 N   0  0  0  0  0  2  0  0  0  0  0  0
  160.4570  210.7260  153.4380 C   0  0  0  0  0  0  0  0  0  0  0  0
  158.0970  212.1810  153.4400 C   0  0  0  0  0  3  0  0  0  0  0  0
  161.6010  209.8100  153.6170 C   0  0  2  0  0  3  0  0  0  0  0  0
  159.0390  212.3750  152.4030 C   0  0  0  0  0  0  0  0  0  0  0  0
  161.7000  208.9160  152.4590 C   0  0  0  0  0  0  0  0  0  0  0  0
  161.7270  208.1860  151.5020 C   0  0  0  0  0  0  0  0  0  0  0  0
  161.7090  207.3190  150.3460 C   0  0  0  0  0  0  0  0  0  0  0  0
  161.5820  205.9900  150.4820 C   0  0  0  0  0  3  0  0  0  0  0  0
  160.5980  205.8920  152.6700 O   0  0  0  0  0  1  0  0  0  0  0  0
  161.4500  205.2360  151.7810 C   0  0  1  0  0  3  0  0  0  0  0  0
  161.0060  204.0800  149.1090 C   0  0  0  0  0  2  0  0  0  0  0  0
  160.5250  201.2890  148.9420 C   0  0  0  0  0  3  0  0  0  0  0  0
  160.9260  203.2270  150.2980 N   0  0  0  0  0  0  0  0  0  0  0  0
  161.5530  203.2850  147.9270 C   0  0  0  0  0  2  0  0  0  0  0  0
  160.8590  203.0740  152.6280 O   0  0  0  0  0  0  0  0  0  0  0  0
  161.0450  203.7980  151.6110 C   0  0  0  0  0  0  0  0  0  0  0  0
  160.5700  201.8430  150.1520 C   0  0  0  0  0  3  0  0  0  0  0  0
  160.8680  202.0400  147.8110 O   0  0  0  0  0  0  0  0  0  0  0  0
  161.8380  207.9180  148.9990 C   0  0  0  0  0  0  0  0  0  0  0  0
  161.5540  209.1330  148.8190 O   0  0  0  0  0  0  0  0  0  0  0  0
  162.3310  207.1180  147.8360 C   0  0  0  0  0  2  0  0  0  0  0  0
  161.1830  206.8150  146.8910 C   0  0  0  0  0  1  0  0  0  0  0  0
  158.7620  213.2960  151.2540 C   0  0  1  0  0  3  0  0  0  0  0  0
  157.7540  214.3880  151.6210 C   0  0  0  0  0  2  0  0  0  0  0  0
  156.3540  214.1030  151.0950 C   0  0  0  0  0  2  0  0  0  0  0  0
  156.2720  214.4410  149.6190 C   0  0  0  0  0  2  0  0  0  0  0  0
  156.4940  213.2940  148.8570 O   0  0  0  0  0  1  0  0  0  0  0  0
  160.0380  213.8500  150.6200 C   0  0  0  0  0  2  0  0  0  0  0  0
  159.8810  214.0020  149.1170 C   0  0  0  0  0  2  0  0  0  0  0  0
  160.7820  213.0630  148.3920 C   0  0  0  0  0  0  0  0  0  0  0  0
  160.7190  212.9700  147.0080 O   0  0  0  0  0  0  0  0  0  0  0  0
  161.6200  212.3740  149.0300 O   0  0  0  0  0  1  0  0  0  0  0  0
  1  3  1  0  0  0  0
  1  5  1  0  0  0  0
  4 10  2  0  0  0  0
  4  7  1  0  0  0  0
  5  2  1  1  0  0  0
  6  5  1  0  0  0  0
  7  9  1  0  0  0  0
  7  1  2  0  0  0  0
  8  3  2  0  0  0  0
  9 11  1  6  0  0  0
  9  6  1  0  0  0  0
 10  8  1  0  0  0  0
 12 11  3  0  0  0  0
 13 14  2  0  0  0  0
 13 12  1  0  0  0  0
 14 16  1  0  0  0  0
 16 15  1  1  0  0  0
 17 19  1  0  0  0  0
 18 23  2  0  0  0  0
 19 22  1  0  0  0  0
 20 17  1  0  0  0  0
 22 16  1  0  0  0  0
 22 21  2  0  0  0  0
 23 19  1  0  0  0  0
 24 20  1  0  0  0  0
 24 18  1  0  0  0  0
 25 13  1  0  0  0  0
 26 25  2  0  0  0  0
 27 25  1  0  0  0  0
 28 27  1  0  0  0  0
 29 34  1  1  0  0  0
 29 30  1  0  0  0  0
 29 10  1  0  0  0  0
 31 30  1  0  0  0  0
 32 31  1  0  0  0  0
 33 32  1  0  0  0  0
 35 34  1  0  0  0  0
 36 38  1  0  0  0  0
 36 35  1  0  0  0  0
 37 36  2  0  0  0  0
M  END
>  <MODEL>
4

>  <REMARK>
 VINA RESULT:      -6.5      1.978      4.487
  Name = 
  13 active torsions:
  status: ('A' for Active; 'I' for Inactive)
    1  A    between atoms: C_2  and  C_8
    2  A    between atoms: C_2  and  C_20
    3  A    between atoms: C_5  and  C_12
    4  A    between atoms: C_6  and  C_16
    5  A    between atoms: C_8  and  C_14
    6  A    between atoms: C_12  and  C_21
    7  A    between atoms: C_16  and  C_38
    8  A    between atoms: C_17  and  C_27
    9  A    between atoms: C_19  and  C_33
   10  A    between atoms: C_21  and  C_24
   11  A    between atoms: C_24  and  C_34
   12  A    between atoms: C_24  and  C_38
   13  A    between atoms: C_27  and  C_32
                            x       y       z     vdW  Elec       q    Type
                         _______ _______ _______ _____ _____    ______ ____

>  <TORSDO>
F 13

$$$$
=
 OpenBabel11072412193D

 38 40  0  0  1  0  0  0  0  0999 V2000
  159.9690  209.0630  154.9490 C   0  0  0  0  0  0  0  0  0  0  0  0
  160.1160  208.4440  157.2610 N   0  0  0  0  0  1  0  0  0  0  0  0
  159.1850  210.2120  154.8370 C   0  0  0  0  0  3  0  0  0  0  0  0
  161.2920  209.6850  153.0370 C   0  0  0  0  0  3  0  0  0  0  0  0
  159.8390  207.9580  155.9180 C   0  0  2  0  0  3  0  0  0  0  0  0
  160.8570  206.9640  155.5360 N   0  0  0  0  0  2  0  0  0  0  0  0
  160.9830  208.8070  154.0800 C   0  0  0  0  0  0  0  0  0  0  0  0
  159.4720  211.1130  153.7990 C   0  0  0  0  0  3  0  0  0  0  0  0
  161.6060  207.5040  154.3900 C   0  0  2  0  0  3  0  0  0  0  0  0
  160.5300  210.8560  152.8980 C   0  0  0  0  0  0  0  0  0  0  0  0
  161.4650  206.6060  153.2390 C   0  0  0  0  0  0  0  0  0  0  0  0
  161.2950  205.8710  152.3000 C   0  0  0  0  0  0  0  0  0  0  0  0
  161.0400  204.9970  151.1790 C   0  0  0  0  0  0  0  0  0  0  0  0
  161.1060  205.4540  149.9180 C   0  0  0  0  0  3  0  0  0  0  0  0
  162.6560  207.2850  150.0250 O   0  0  0  0  0  1  0  0  0  0  0  0
  161.4340  206.8640  149.4970 C   0  0  1  0  0  3  0  0  0  0  0  0
  161.9660  204.6640  147.6130 C   0  0  0  0  0  2  0  0  0  0  0  0
  161.5610  205.1670  144.8500 C   0  0  0  0  0  3  0  0  0  0  0  0
  161.5550  205.9780  147.1090 N   0  0  0  0  0  0  0  0  0  0  0  0
  161.4210  203.5600  146.7140 C   0  0  0  0  0  2  0  0  0  0  0  0
  161.1460  208.2340  147.5530 O   0  0  0  0  0  0  0  0  0  0  0  0
  161.3860  207.0820  148.0110 C   0  0  0  0  0  0  0  0  0  0  0  0
  161.4750  206.1960  145.6910 C   0  0  0  0  0  3  0  0  0  0  0  0
  161.6840  203.8630  145.3450 O   0  0  0  0  0  0  0  0  0  0  0  0
  160.6960  203.5820  151.4370 C   0  0  0  0  0  0  0  0  0  0  0  0
  160.7000  203.1370  152.6170 O   0  0  0  0  0  0  0  0  0  0  0  0
  160.3110  202.6590  150.3250 C   0  0  0  0  0  2  0  0  0  0  0  0
  161.0960  201.3650  150.4290 C   0  0  0  0  0  1  0  0  0  0  0  0
  160.8110  211.7630  151.7390 C   0  0  1  0  0  3  0  0  0  0  0  0
  160.9110  210.9970  150.4180 C   0  0  0  0  0  2  0  0  0  0  0  0
  162.3070  211.0430  149.8110 C   0  0  0  0  0  2  0  0  0  0  0  0
  162.2350  211.5140  148.3710 C   0  0  0  0  0  2  0  0  0  0  0  0
  162.8350  212.7680  148.2530 O   0  0  0  0  0  1  0  0  0  0  0  0
  159.8500  212.9500  151.6700 C   0  0  0  0  0  2  0  0  0  0  0  0
  159.8500  213.5750  150.2860 C   0  0  0  0  0  2  0  0  0  0  0  0
  158.4640  213.6750  149.7490 C   0  0  0  0  0  0  0  0  0  0  0  0
  157.3850  213.7210  150.6220 O   0  0  0  0  0  1  0  0  0  0  0  0
  158.2710  213.7450  148.5080 O   0  0  0  0  0  0  0  0  0  0  0  0
  1  5  1  0  0  0  0
  3  1  1  0  0  0  0
  4  7  1  0  0  0  0
  5  2  1  1  0  0  0
  6  5  1  0  0  0  0
  7  9  1  0  0  0  0
  7  1  2  0  0  0  0
  8  3  2  0  0  0  0
  9 11  1  6  0  0  0
  9  6  1  0  0  0  0
 10  4  2  0  0  0  0
 10  8  1  0  0  0  0
 12 11  3  0  0  0  0
 13 25  1  0  0  0  0
 13 12  1  0  0  0  0
 14 13  2  0  0  0  0
 16 14  1  0  0  0  0
 16 15  1  6  0  0  0
 18 24  1  0  0  0  0
 18 23  2  0  0  0  0
 19 17  1  0  0  0  0
 19 22  1  0  0  0  0
 20 17  1  0  0  0  0
 21 22  2  0  0  0  0
 22 16  1  0  0  0  0
 23 19  1  0  0  0  0
 24 20  1  0  0  0  0
 25 26  2  0  0  0  0
 27 28  1  0  0  0  0
 27 25  1  0  0  0  0
 29 30  1  6  0  0  0
 29 10  1  0  0  0  0
 31 30  1  0  0  0  0
 32 31  1  0  0  0  0
 33 32  1  0  0  0  0
 34 29  1  0  0  0  0
 35 34  1  0  0  0  0
 36 35  1  0  0  0  0
 36 37  1  0  0  0  0
 38 36  2  0  0  0  0
M  END
>  <MODEL>
5

>  <REMARK>
 VINA RESULT:      -6.1      2.388      4.193
  Name = 
  13 active torsions:
  status: ('A' for Active; 'I' for Inactive)
    1  A    between atoms: C_2  and  C_8
    2  A    between atoms: C_2  and  C_20
    3  A    between atoms: C_5  and  C_12
    4  A    between atoms: C_6  and  C_16
    5  A    between atoms: C_8  and  C_14
    6  A    between atoms: C_12  and  C_21
    7  A    between atoms: C_16  and  C_38
    8  A    between atoms: C_17  and  C_27
    9  A    between atoms: C_19  and  C_33
   10  A    between atoms: C_21  and  C_24
   11  A    between atoms: C_24  and  C_34
   12  A    between atoms: C_24  and  C_38
   13  A    between atoms: C_27  and  C_32
                            x       y       z     vdW  Elec       q    Type
                         _______ _______ _______ _____ _____    ______ ____

>  <TORSDO>
F 13

$$$$
=
 OpenBabel11072412193D

 38 40  0  0  1  0  0  0  0  0999 V2000
  159.4140  211.1820  153.9590 C   0  0  0  0  0  0  0  0  0  0  0  0
  159.8630  210.7950  156.2830 N   0  0  0  0  0  1  0  0  0  0  0  0
  158.2670  211.9690  153.8450 C   0  0  0  0  0  3  0  0  0  0  0  0
  160.3500  212.1160  151.9490 C   0  0  0  0  0  3  0  0  0  0  0  0
  159.7250  210.1630  154.9810 C   0  0  2  0  0  3  0  0  0  0  0  0
  161.0150  209.5730  154.5820 N   0  0  0  0  0  2  0  0  0  0  0  0
  160.4170  211.2500  153.0440 C   0  0  0  0  0  0  0  0  0  0  0  0
  158.1720  212.8490  152.7550 C   0  0  0  0  0  3  0  0  0  0  0  0
  161.4760  210.2730  153.3720 C   0  0  2  0  0  3  0  0  0  0  0  0
  159.2150  212.9290  151.8050 C   0  0  0  0  0  0  0  0  0  0  0  0
  161.6190  209.3160  152.2700 C   0  0  0  0  0  0  0  0  0  0  0  0
  161.7410  208.5710  151.3320 C   0  0  0  0  0  0  0  0  0  0  0  0
  161.8960  207.7200  150.1750 C   0  0  0  0  0  0  0  0  0  0  0  0
  161.8720  206.3830  150.2940 C   0  0  0  0  0  3  0  0  0  0  0  0
  160.8080  206.2420  152.4420 O   0  0  0  0  0  1  0  0  0  0  0  0
  161.6950  205.6050  151.5730 C   0  0  1  0  0  3  0  0  0  0  0  0
  161.1430  204.5520  148.8790 C   0  0  0  0  0  2  0  0  0  0  0  0
  160.6940  201.7630  148.6200 C   0  0  0  0  0  3  0  0  0  0  0  0
  161.1310  203.6500  150.0350 N   0  0  0  0  0  0  0  0  0  0  0  0
  161.6440  203.8160  147.6410 C   0  0  0  0  0  2  0  0  0  0  0  0
  161.1770  203.4020  152.3570 O   0  0  0  0  0  0  0  0  0  0  0  0
  161.3040  204.1690  151.3630 C   0  0  0  0  0  0  0  0  0  0  0  0
  160.7880  202.2680  149.8480 C   0  0  0  0  0  3  0  0  0  0  0  0
  160.9730  202.5640  147.5060 O   0  0  0  0  0  0  0  0  0  0  0  0
  162.0870  208.3430  148.8470 C   0  0  0  0  0  0  0  0  0  0  0  0
  162.6630  207.7010  147.9270 O   0  0  0  0  0  0  0  0  0  0  0  0
  161.5860  209.7200  148.5530 C   0  0  0  0  0  2  0  0  0  0  0  0
  162.5720  210.7520  149.0660 C   0  0  0  0  0  1  0  0  0  0  0  0
  159.1090  213.8060  150.5950 C   0  0  1  0  0  3  0  0  0  0  0  0
  159.9560  213.2870  149.4300 C   0  0  0  0  0  2  0  0  0  0  0  0
  161.0090  214.2870  148.9720 C   0  0  0  0  0  2  0  0  0  0  0  0
  160.9510  214.4530  147.4660 C   0  0  0  0  0  2  0  0  0  0  0  0
  161.5010  213.3320  146.8440 O   0  0  0  0  0  1  0  0  0  0  0  0
  157.6600  214.0930  150.1980 C   0  0  0  0  0  2  0  0  0  0  0  0
  157.0490  212.9110  149.4650 C   0  0  0  0  0  2  0  0  0  0  0  0
  157.1380  213.0990  147.9900 C   0  0  0  0  0  0  0  0  0  0  0  0
  157.0720  214.3750  147.4480 O   0  0  0  0  0  1  0  0  0  0  0  0
  157.3020  212.1040  147.2360 O   0  0  0  0  0  0  0  0  0  0  0  0
  1  5  1  0  0  0  0
  3  1  1  0  0  0  0
  4  7  1  0  0  0  0
  5  2  1  1  0  0  0
  6  5  1  0  0  0  0
  7  9  1  0  0  0  0
  7  1  2  0  0  0  0
  8  3  2  0  0  0  0
  9 11  1  6  0  0  0
  9  6  1  0  0  0  0
 10  4  2  0  0  0  0
 10  8  1  0  0  0  0
 12 11  3  0  0  0  0
 13 14  2  0  0  0  0
 13 12  1  0  0  0  0
 14 16  1  0  0  0  0
 16 15  1  1  0  0  0
 17 19  1  0  0  0  0
 18 23  2  0  0  0  0
 19 22  1  0  0  0  0
 20 17  1  0  0  0  0
 22 16  1  0  0  0  0
 22 21  2  0  0  0  0
 23 19  1  0  0  0  0
 24 20  1  0  0  0  0
 24 18  1  0  0  0  0
 25 13  1  0  0  0  0
 26 25  2  0  0  0  0
 27 25  1  0  0  0  0
 27 28  1  0  0  0  0
 29 30  1  6  0  0  0
 29 10  1  0  0  0  0
 31 30  1  0  0  0  0
 32 31  1  0  0  0  0
 33 32  1  0  0  0  0
 34 29  1  0  0  0  0
 35 34  1  0  0  0  0
 36 35  1  0  0  0  0
 37 36  1  0  0  0  0
 38 36  2  0  0  0  0
M  END
>  <MODEL>
6

>  <REMARK>
 VINA RESULT:      -6.0      1.917      3.628
  Name = 
  13 active torsions:
  status: ('A' for Active; 'I' for Inactive)
    1  A    between atoms: C_2  and  C_8
    2  A    between atoms: C_2  and  C_20
    3  A    between atoms: C_5  and  C_12
    4  A    between atoms: C_6  and  C_16
    5  A    between atoms: C_8  and  C_14
    6  A    between atoms: C_12  and  C_21
    7  A    between atoms: C_16  and  C_38
    8  A    between atoms: C_17  and  C_27
    9  A    between atoms: C_19  and  C_33
   10  A    between atoms: C_21  and  C_24
   11  A    between atoms: C_24  and  C_34
   12  A    between atoms: C_24  and  C_38
   13  A    between atoms: C_27  and  C_32
                            x       y       z     vdW  Elec       q    Type
                         _______ _______ _______ _____ _____    ______ ____

>  <TORSDO>
F 13

$$$$
=
 OpenBabel11072412193D

 38 40  0  0  1  0  0  0  0  0999 V2000
  161.4900  212.1160  148.5250 C   0  0  0  0  0  0  0  0  0  0  0  0
  162.3370  213.9420  147.2210 N   0  0  0  0  0  1  0  0  0  0  0  0
  161.7110  210.9260  147.8320 C   0  0  0  0  0  3  0  0  0  0  0  0
  161.7020  211.0100  150.6510 C   0  0  0  0  0  3  0  0  0  0  0  0
  161.1930  213.4530  147.9730 C   0  0  2  0  0  3  0  0  0  0  0  0
  160.9600  214.3270  149.1370 N   0  0  0  0  0  2  0  0  0  0  0  0
  161.4820  212.1580  149.8840 C   0  0  0  0  0  0  0  0  0  0  0  0
  161.9340  209.7560  148.5760 C   0  0  0  0  0  3  0  0  0  0  0  0
  161.1680  213.5220  150.3520 C   0  0  2  0  0  3  0  0  0  0  0  0
  161.9350  209.7950  149.9890 C   0  0  0  0  0  0  0  0  0  0  0  0
  159.9350  213.4980  151.1460 C   0  0  0  0  0  0  0  0  0  0  0  0
  158.9170  213.5300  151.7890 C   0  0  0  0  0  0  0  0  0  0  0  0
  157.6910  213.6200  152.5470 C   0  0  0  0  0  0  0  0  0  0  0  0
  157.6650  213.3210  153.8560 C   0  0  0  0  0  3  0  0  0  0  0  0
  159.1570  213.8090  155.6720 O   0  0  0  0  0  1  0  0  0  0  0  0
  158.8370  212.8710  154.6900 C   0  0  1  0  0  3  0  0  0  0  0  0
  161.1640  211.1760  155.3100 C   0  0  0  0  0  2  0  0  0  0  0  0
  160.6930  208.7430  156.6920 C   0  0  0  0  0  3  0  0  0  0  0  0
  159.8150  210.7290  155.6710 N   0  0  0  0  0  0  0  0  0  0  0  0
  162.1760  210.6790  156.3370 C   0  0  0  0  0  2  0  0  0  0  0  0
  157.5080  211.0500  155.5020 O   0  0  0  0  0  0  0  0  0  0  0  0
  158.6670  211.5020  155.2890 C   0  0  0  0  0  0  0  0  0  0  0  0
  159.6370  209.4360  156.2710 C   0  0  0  0  0  3  0  0  0  0  0  0
  161.9780  209.2900  156.5940 O   0  0  0  0  0  0  0  0  0  0  0  0
  156.4520  214.0420  151.8580 C   0  0  0  0  0  0  0  0  0  0  0  0
  155.3680  214.1160  152.4990 O   0  0  0  0  0  0  0  0  0  0  0  0
  156.4540  214.4150  150.4110 C   0  0  0  0  0  2  0  0  0  0  0  0
  155.0980  214.1240  149.7970 C   0  0  0  0  0  1  0  0  0  0  0  0
  162.1000  208.5510  150.8080 C   0  0  1  0  0  3  0  0  0  0  0  0
  160.9530  208.3610  151.8040 C   0  0  0  0  0  2  0  0  0  0  0  0
  161.4390  208.1100  153.2250 C   0  0  0  0  0  2  0  0  0  0  0  0
  160.9770  206.7470  153.7020 C   0  0  0  0  0  2  0  0  0  0  0  0
  161.7980  205.7540  153.1690 O   0  0  0  0  0  1  0  0  0  0  0  0
  162.3600  207.3100  149.9530 C   0  0  0  0  0  2  0  0  0  0  0  0
  161.1110  206.4530  149.8380 C   0  0  0  0  0  2  0  0  0  0  0  0
  161.0980  205.7070  148.5480 C   0  0  0  0  0  0  0  0  0  0  0  0
  160.8210  204.3460  148.5370 O   0  0  0  0  0  1  0  0  0  0  0  0
  161.3100  206.3130  147.4660 O   0  0  0  0  0  0  0  0  0  0  0  0
  1  7  1  0  0  0  0
  3  1  2  0  0  0  0
  3  8  1  0  0  0  0
  5  2  1  1  0  0  0
  5  1  1  0  0  0  0
  5  6  1  0  0  0  0
  6  9  1  0  0  0  0
  7  9  1  0  0  0  0
  7  4  2  0  0  0  0
  8 10  2  0  0  0  0
  9 11  1  1  0  0  0
 10  4  1  0  0  0  0
 10 29  1  0  0  0  0
 11 12  3  0  0  0  0
 12 13  1  0  0  0  0
 13 14  2  0  0  0  0
 14 16  1  0  0  0  0
 16 22  1  0  0  0  0
 16 15  1  1  0  0  0
 17 19  1  0  0  0  0
 17 20  1  0  0  0  0
 19 23  1  0  0  0  0
 20 24  1  0  0  0  0
 22 21  2  0  0  0  0
 22 19  1  0  0  0  0
 23 18  2  0  0  0  0
 24 18  1  0  0  0  0
 25 26  2  0  0  0  0
 25 13  1  0  0  0  0
 27 25  1  0  0  0  0
 28 27  1  0  0  0  0
 29 34  1  6  0  0  0
 29 30  1  0  0  0  0
 30 31  1  0  0  0  0
 31 32  1  0  0  0  0
 33 32  1  0  0  0  0
 35 34  1  0  0  0  0
 36 35  1  0  0  0  0
 37 36  1  0  0  0  0
 38 36  2  0  0  0  0
M  END
>  <MODEL>
7

>  <REMARK>
 VINA RESULT:      -5.9      3.064      7.605
  Name = 
  13 active torsions:
  status: ('A' for Active; 'I' for Inactive)
    1  A    between atoms: C_2  and  C_8
    2  A    between atoms: C_2  and  C_20
    3  A    between atoms: C_5  and  C_12
    4  A    between atoms: C_6  and  C_16
    5  A    between atoms: C_8  and  C_14
    6  A    between atoms: C_12  and  C_21
    7  A    between atoms: C_16  and  C_38
    8  A    between atoms: C_17  and  C_27
    9  A    between atoms: C_19  and  C_33
   10  A    between atoms: C_21  and  C_24
   11  A    between atoms: C_24  and  C_34
   12  A    between atoms: C_24  and  C_38
   13  A    between atoms: C_27  and  C_32
                            x       y       z     vdW  Elec       q    Type
                         _______ _______ _______ _____ _____    ______ ____

>  <TORSDO>
F 13

$$$$
=
 OpenBabel11072412193D

 38 40  0  0  1  0  0  0  0  0999 V2000
  159.6410  209.3820  155.3390 C   0  0  0  0  0  0  0  0  0  0  0  0
  160.3080  208.1110  157.2600 N   0  0  0  0  0  1  0  0  0  0  0  0
  158.5040  210.1240  155.6600 C   0  0  0  0  0  3  0  0  0  0  0  0
  160.3940  211.0610  153.7890 C   0  0  0  0  0  3  0  0  0  0  0  0
  160.0320  208.0480  155.8340 C   0  0  2  0  0  3  0  0  0  0  0  0
  161.2660  207.6950  155.1100 N   0  0  0  0  0  2  0  0  0  0  0  0
  160.5520  209.8320  154.4350 C   0  0  0  0  0  0  0  0  0  0  0  0
  158.3180  211.3640  155.0270 C   0  0  0  0  0  3  0  0  0  0  0  0
  161.6190  208.8300  154.2410 C   0  0  2  0  0  3  0  0  0  0  0  0
  159.2660  211.8390  154.0920 C   0  0  0  0  0  0  0  0  0  0  0  0
  161.6370  208.3950  152.8410 C   0  0  0  0  0  0  0  0  0  0  0  0
  161.6490  208.0900  151.6760 C   0  0  0  0  0  0  0  0  0  0  0  0
  161.6640  207.7740  150.2660 C   0  0  0  0  0  0  0  0  0  0  0  0
  161.5510  206.5060  149.8410 C   0  0  0  0  0  3  0  0  0  0  0  0
  160.3950  205.4530  151.6640 O   0  0  0  0  0  1  0  0  0  0  0  0
  161.4020  205.2840  150.7130 C   0  0  1  0  0  3  0  0  0  0  0  0
  161.4210  205.2600  147.7680 C   0  0  0  0  0  2  0  0  0  0  0  0
  161.3200  202.7400  146.4690 C   0  0  0  0  0  3  0  0  0  0  0  0
  161.3120  204.0010  148.5100 N   0  0  0  0  0  0  0  0  0  0  0  0
  162.1960  205.0430  146.4730 C   0  0  0  0  0  2  0  0  0  0  0  0
  160.9960  202.9280  150.5610 O   0  0  0  0  0  0  0  0  0  0  0  0
  161.2060  204.0080  149.9420 C   0  0  0  0  0  0  0  0  0  0  0  0
  161.1540  202.7680  147.7900 C   0  0  0  0  0  3  0  0  0  0  0  0
  161.6940  203.9010  145.7820 O   0  0  0  0  0  0  0  0  0  0  0  0
  161.8140  208.8730  149.2880 C   0  0  0  0  0  0  0  0  0  0  0  0
  161.6180  208.6560  148.0610 O   0  0  0  0  0  0  0  0  0  0  0  0
  162.1680  210.2590  149.7220 C   0  0  0  0  0  2  0  0  0  0  0  0
  162.0980  211.2080  148.5400 C   0  0  0  0  0  1  0  0  0  0  0  0
  159.0570  213.1240  153.3480 C   0  0  1  0  0  3  0  0  0  0  0  0
  158.7380  212.8890  151.8700 C   0  0  0  0  0  2  0  0  0  0  0  0
  159.8860  213.2740  150.9470 C   0  0  0  0  0  2  0  0  0  0  0  0
  159.3940  213.3790  149.5170 C   0  0  0  0  0  2  0  0  0  0  0  0
  158.0810  213.8490  149.5000 O   0  0  0  0  0  1  0  0  0  0  0  0
  158.0540  214.0490  154.0370 C   0  0  0  0  0  2  0  0  0  0  0  0
  156.9400  214.4530  153.0860 C   0  0  0  0  0  2  0  0  0  0  0  0
  155.6340  213.8950  153.5330 C   0  0  0  0  0  0  0  0  0  0  0  0
  154.5250  213.9720  152.7000 O   0  0  0  0  0  0  0  0  0  0  0  0
  155.5390  213.3280  154.6530 O   0  0  0  0  0  1  0  0  0  0  0  0
  1  3  1  0  0  0  0
  1  5  1  0  0  0  0
  4 10  2  0  0  0  0
  4  7  1  0  0  0  0
  5  2  1  1  0  0  0
  6  5  1  0  0  0  0
  7  1  2  0  0  0  0
  8  3  2  0  0  0  0
  9 11  1  6  0  0  0
  9  7  1  0  0  0  0
  9  6  1  0  0  0  0
 10  8  1  0  0  0  0
 12 11  3  0  0  0  0
 13 12  1  0  0  0  0
 14 13  2  0  0  0  0
 14 16  1  0  0  0  0
 16 15  1  1  0  0  0
 17 19  1  0  0  0  0
 18 23  2  0  0  0  0
 19 22  1  0  0  0  0
 20 17  1  0  0  0  0
 22 21  2  0  0  0  0
 22 16  1  0  0  0  0
 23 19  1  0  0  0  0
 24 18  1  0  0  0  0
 24 20  1  0  0  0  0
 25 27  1  0  0  0  0
 25 13  1  0  0  0  0
 26 25  2  0  0  0  0
 28 27  1  0  0  0  0
 29 30  1  6  0  0  0
 29 34  1  0  0  0  0
 29 10  1  0  0  0  0
 31 30  1  0  0  0  0
 32 31  1  0  0  0  0
 33 32  1  0  0  0  0
 35 36  1  0  0  0  0
 35 34  1  0  0  0  0
 36 38  1  0  0  0  0
 37 36  2  0  0  0  0
M  END
>  <MODEL>
8

>  <REMARK>
 VINA RESULT:      -5.9      2.789      5.228
  Name = 
  13 active torsions:
  status: ('A' for Active; 'I' for Inactive)
    1  A    between atoms: C_2  and  C_8
    2  A    between atoms: C_2  and  C_20
    3  A    between atoms: C_5  and  C_12
    4  A    between atoms: C_6  and  C_16
    5  A    between atoms: C_8  and  C_14
    6  A    between atoms: C_12  and  C_21
    7  A    between atoms: C_16  and  C_38
    8  A    between atoms: C_17  and  C_27
    9  A    between atoms: C_19  and  C_33
   10  A    between atoms: C_21  and  C_24
   11  A    between atoms: C_24  and  C_34
   12  A    between atoms: C_24  and  C_38
   13  A    between atoms: C_27  and  C_32
                            x       y       z     vdW  Elec       q    Type
                         _______ _______ _______ _____ _____    ______ ____

>  <TORSDO>
F 13

$$$$
=
 OpenBabel11072412193D

 38 40  0  0  1  0  0  0  0  0999 V2000
  160.3490  211.5490  154.2630 C   0  0  0  0  0  0  0  0  0  0  0  0
  159.2960  212.5340  156.1790 N   0  0  0  0  0  1  0  0  0  0  0  0
  161.5440  210.9500  154.6630 C   0  0  0  0  0  3  0  0  0  0  0  0
  160.0290  209.9280  152.5150 C   0  0  0  0  0  3  0  0  0  0  0  0
  159.7110  212.7650  154.8050 C   0  0  2  0  0  3  0  0  0  0  0  0
  158.5230  213.0040  153.9670 N   0  0  0  0  0  2  0  0  0  0  0  0
  159.6190  211.0590  153.2260 C   0  0  0  0  0  0  0  0  0  0  0  0
  161.9810  209.8110  153.9660 C   0  0  0  0  0  3  0  0  0  0  0  0
  158.4400  211.9140  152.9810 C   0  0  2  0  0  3  0  0  0  0  0  0
  161.2220  209.2930  152.8920 C   0  0  0  0  0  0  0  0  0  0  0  0
  158.5080  212.4670  151.6240 C   0  0  0  0  0  0  0  0  0  0  0  0
  158.5090  212.9250  150.5100 C   0  0  0  0  0  0  0  0  0  0  0  0
  158.4590  213.4800  149.1780 C   0  0  0  0  0  0  0  0  0  0  0  0
  159.5860  213.7370  148.4940 C   0  0  0  0  0  3  0  0  0  0  0  0
  161.1480  212.2220  149.5080 O   0  0  0  0  0  1  0  0  0  0  0  0
  160.9950  213.5030  148.9780 C   0  0  1  0  0  3  0  0  0  0  0  0
  160.7540  212.4720  146.2300 C   0  0  0  0  0  2  0  0  0  0  0  0
  162.6770  213.3300  144.3270 C   0  0  0  0  0  3  0  0  0  0  0  0
  161.8680  213.3570  146.5860 N   0  0  0  0  0  0  0  0  0  0  0  0
  160.3360  212.7090  144.7830 C   0  0  0  0  0  2  0  0  0  0  0  0
  163.0730  214.4530  148.2600 O   0  0  0  0  0  0  0  0  0  0  0  0
  162.0480  213.7880  147.9440 C   0  0  0  0  0  0  0  0  0  0  0  0
  162.8680  213.6640  145.6020 C   0  0  0  0  0  3  0  0  0  0  0  0
  161.4810  212.7180  143.9330 O   0  0  0  0  0  0  0  0  0  0  0  0
  157.1420  213.7720  148.5720 C   0  0  0  0  0  0  0  0  0  0  0  0
  156.1140  213.8380  149.2990 O   0  0  0  0  0  0  0  0  0  0  0  0
  156.9980  214.0220  147.1050 C   0  0  0  0  0  2  0  0  0  0  0  0
  156.9710  212.7040  146.3540 C   0  0  0  0  0  1  0  0  0  0  0  0
  161.7010  208.1240  152.0860 C   0  0  1  0  0  3  0  0  0  0  0  0
  161.5830  206.8060  152.8570 C   0  0  0  0  0  2  0  0  0  0  0  0
  162.3310  205.6610  152.1880 C   0  0  0  0  0  2  0  0  0  0  0  0
  161.3500  204.6290  151.6670 C   0  0  0  0  0  2  0  0  0  0  0  0
  160.8180  203.9000  152.7310 O   0  0  0  0  0  1  0  0  0  0  0  0
  161.0640  208.0620  150.6980 C   0  0  0  0  0  2  0  0  0  0  0  0
  162.0980  207.7340  149.6350 C   0  0  0  0  0  2  0  0  0  0  0  0
  161.4740  207.0000  148.4980 C   0  0  0  0  0  0  0  0  0  0  0  0
  161.0790  205.6790  148.6600 O   0  0  0  0  0  1  0  0  0  0  0  0
  161.2790  207.5840  147.4000 O   0  0  0  0  0  0  0  0  0  0  0  0
  1  3  1  0  0  0  0
  1  5  1  0  0  0  0
  4 10  2  0  0  0  0
  4  7  1  0  0  0  0
  5  2  1  1  0  0  0
  6  5  1  0  0  0  0
  7  1  2  0  0  0  0
  8  3  2  0  0  0  0
  9 11  1  6  0  0  0
  9  7  1  0  0  0  0
  9  6  1  0  0  0  0
 10  8  1  0  0  0  0
 12 11  3  0  0  0  0
 13 12  1  0  0  0  0
 14 16  1  0  0  0  0
 14 13  2  0  0  0  0
 16 15  1  6  0  0  0
 17 19  1  0  0  0  0
 18 23  2  0  0  0  0
 19 22  1  0  0  0  0
 20 17  1  0  0  0  0
 22 21  2  0  0  0  0
 22 16  1  0  0  0  0
 23 19  1  0  0  0  0
 24 18  1  0  0  0  0
 24 20  1  0  0  0  0
 25 13  1  0  0  0  0
 25 26  2  0  0  0  0
 27 25  1  0  0  0  0
 28 27  1  0  0  0  0
 29 34  1  6  0  0  0
 29 30  1  0  0  0  0
 29 10  1  0  0  0  0
 31 30  1  0  0  0  0
 32 31  1  0  0  0  0
 32 33  1  0  0  0  0
 35 34  1  0  0  0  0
 36 37  1  0  0  0  0
 36 35  1  0  0  0  0
 38 36  2  0  0  0  0
M  END
>  <MODEL>
9

>  <REMARK>
 VINA RESULT:      -5.8      2.146      7.251
  Name = 
  13 active torsions:
  status: ('A' for Active; 'I' for Inactive)
    1  A    between atoms: C_2  and  C_8
    2  A    between atoms: C_2  and  C_20
    3  A    between atoms: C_5  and  C_12
    4  A    between atoms: C_6  and  C_16
    5  A    between atoms: C_8  and  C_14
    6  A    between atoms: C_12  and  C_21
    7  A    between atoms: C_16  and  C_38
    8  A    between atoms: C_17  and  C_27
    9  A    between atoms: C_19  and  C_33
   10  A    between atoms: C_21  and  C_24
   11  A    between atoms: C_24  and  C_34
   12  A    between atoms: C_24  and  C_38
   13  A    between atoms: C_27  and  C_32
                            x       y       z     vdW  Elec       q    Type
                         _______ _______ _______ _____ _____    ______ ____

>  <TORSDO>
F 13

$$$$
