=
 OpenBabel11072413253D

 41 45  0  0  1  0  0  0  0  0999 V2000
  161.5690  208.3260  149.5970 C   0  0  2  0  0  3  0  0  0  0  0  0
  162.1790  210.7330  149.4650 C   0  0  0  0  0  3  0  0  0  0  0  0
  160.9750  205.1710  152.1000 C   0  0  0  0  0  1  0  0  0  0  0  0
  159.0490  211.0500  152.7700 C   0  0  0  0  0  3  0  0  0  0  0  0
  161.3090  211.0130  150.6160 C   0  0  0  0  0  0  0  0  0  0  0  0
  161.5050  206.5920  152.1750 C   0  0  2  0  0  3  0  0  0  0  0  0
  162.3190  209.4900  149.0020 C   0  0  0  0  0  3  0  0  0  0  0  0
  158.4590  211.6080  153.9870 C   0  0  0  0  0  3  0  0  0  0  0  0
  162.1070  208.2680  156.0480 O   0  0  0  0  0  1  0  0  0  0  0  0
  160.0670  210.1950  152.6540 C   0  0  0  0  0  0  0  0  0  0  0  0
  159.2980  209.9540  155.6340 C   0  0  0  0  0  3  0  0  0  0  0  0
  159.9970  207.5160  156.8140 C   0  0  0  0  0  1  0  0  0  0  0  0
  161.9450  206.9630  153.5900 C   0  0  0  0  0  2  0  0  0  0  0  0
  160.5600  207.4950  151.6580 O   0  0  0  0  0  0  0  0  0  0  0  0
  160.8050  208.0010  155.6140 C   0  0  2  0  0  0  0  0  0  0  0  0
  160.7580  209.6410  153.7370 O   0  0  0  0  0  0  0  0  0  0  0  0
  161.1890  212.2010  151.0190 O   0  0  0  0  0  0  0  0  0  0  0  0
  160.8060  206.8570  154.5990 C   0  0  0  0  0  2  0  0  0  0  0  0
  161.2980  208.5560  151.1010 C   0  0  2  0  0  3  0  0  0  0  0  0
  160.2250  209.2500  154.9750 C   0  0  0  0  0  0  0  0  0  0  0  0
  160.5260  209.8840  151.2510 C   0  0  2  0  0  3  0  0  0  0  0  0
  158.5960  211.1830  155.2380 C   0  0  0  0  0  0  0  0  0  0  0  0
  155.1480  214.4500  157.0510 C   0  0  0  0  0  1  0  0  0  0  0  0
  157.8340  211.9290  156.2870 C   0  0  1  0  0  3  0  0  0  0  0  0
  155.6720  213.2250  156.3320 C   0  0  1  0  0  3  0  0  0  0  0  0
  157.3240  213.5590  155.6800 S   0  0  0  0  0  0  0  0  0  0  0  0
  156.6490  211.1850  156.6890 N   0  0  0  0  0  2  0  0  0  0  0  0
  155.7640  212.1120  157.2600 N   0  0  0  0  0  2  0  0  0  0  0  0
  162.3540  207.0440  149.3420 C   0  0  0  0  0  2  0  0  0  0  0  0
  161.7360  206.2420  148.2420 C   0  0  0  0  0  0  0  0  0  0  0  0
  160.7400  206.6570  147.6700 O   0  0  0  0  0  0  0  0  0  0  0  0
  163.1710  205.0700  146.7500 O   0  0  0  0  0  1  0  0  0  0  0  0
  162.3430  204.9250  147.8630 C   0  0  2  0  0  3  0  0  0  0  0  0
  161.2820  203.8580  147.6160 C   0  0  0  0  0  2  0  0  0  0  0  0
  160.7540  201.5650  147.7190 C   0  0  1  0  0  3  0  0  0  0  0  0
  160.6610  202.5030  149.7220 S   0  0  0  0  0  0  0  0  0  0  0  0
  161.4140  201.9620  150.9040 O   0  0  0  0  0  0  0  0  0  0  0  0
  161.5800  200.3250  147.4260 C   0  0  0  0  0  1  0  0  0  0  0  0
  159.8320  201.3010  148.8420 N   0  0  0  0  0  2  0  0  0  0  0  0
  161.6120  202.6150  148.3030 N   0  0  0  0  0  0  0  0  0  0  0  0
  159.8180  203.7110  150.0280 O   0  0  0  0  0  0  0  0  0  0  0  0
  1 29  1  1  0  0  0
  1 19  1  0  0  0  0
  2  5  1  0  0  0  0
  4  8  1  0  0  0  0
  5 17  2  0  0  0  0
  6  3  1  1  0  0  0
  6 13  1  0  0  0  0
  7  2  2  0  0  0  0
  7  1  1  0  0  0  0
  8 22  2  0  0  0  0
 10  4  2  0  0  0  0
 10 16  1  0  0  0  0
 13 18  1  0  0  0  0
 14  6  1  0  0  0  0
 15  9  1  0  0  0  0
 15 12  1  1  0  0  0
 16 20  1  0  0  0  0
 18 15  1  0  0  0  0
 19 21  1  0  0  0  0
 19 14  1  6  0  0  0
 20 15  1  0  0  0  0
 20 11  2  0  0  0  0
 21  5  1  1  0  0  0
 21 10  1  0  0  0  0
 22 11  1  0  0  0  0
 24 22  1  6  0  0  0
 24 27  1  0  0  0  0
 25 23  1  1  0  0  0
 25 28  1  0  0  0  0
 26 24  1  0  0  0  0
 26 25  1  0  0  0  0
 27 28  1  0  0  0  0
 30 29  1  0  0  0  0
 31 30  2  0  0  0  0
 33 32  1  6  0  0  0
 33 30  1  0  0  0  0
 34 33  1  0  0  0  0
 34 40  1  0  0  0  0
 35 38  1  1  0  0  0
 35 40  1  0  0  0  0
 35 39  1  0  0  0  0
 36 41  2  0  0  0  0
 36 37  2  0  0  0  0
 39 36  1  0  0  0  0
 40 36  1  0  0  0  0
M  END
>  <MODEL>
1

>  <REMARK>
 VINA RESULT:      -6.6      0.000      0.000
  Name = 
  6 active torsions:
  status: ('A' for Active; 'I' for Inactive)
    1  A    between atoms: C_1  and  C_28
    2  A    between atoms: C_4  and  C_28
    3  A    between atoms: C_4  and  C_34
    4  A    between atoms: C_19  and  C_40
    5  A    between atoms: N_33  and  C_38
    6  A    between atoms: C_34  and  C_38
                            x       y       z     vdW  Elec       q    Type
                         _______ _______ _______ _____ _____    ______ ____

>  <TORSDO>
F 6

$$$$
=
 OpenBabel11072413253D

 41 45  0  0  1  0  0  0  0  0999 V2000
  161.5640  206.4120  150.3390 C   0  0  2  0  0  3  0  0  0  0  0  0
  162.6510  208.4080  149.3310 C   0  0  0  0  0  3  0  0  0  0  0  0
  160.4410  204.6330  153.8240 C   0  0  0  0  0  1  0  0  0  0  0  0
  159.7990  210.5900  152.1450 C   0  0  0  0  0  3  0  0  0  0  0  0
  161.9080  209.2760  150.2550 C   0  0  0  0  0  0  0  0  0  0  0  0
  161.2560  205.8350  153.3770 C   0  0  2  0  0  3  0  0  0  0  0  0
  162.5120  207.0820  149.3780 C   0  0  0  0  0  3  0  0  0  0  0  0
  159.3900  211.6760  153.0370 C   0  0  0  0  0  3  0  0  0  0  0  0
  162.3570  208.6850  156.3480 O   0  0  0  0  0  1  0  0  0  0  0  0
  160.6130  209.5640  152.4020 C   0  0  0  0  0  0  0  0  0  0  0  0
  159.9400  210.6320  155.2180 C   0  0  0  0  0  3  0  0  0  0  0  0
  160.1720  208.7320  157.2600 C   0  0  0  0  0  1  0  0  0  0  0  0
  161.8230  206.6120  154.5630 C   0  0  0  0  0  2  0  0  0  0  0  0
  160.4960  206.6490  152.5200 O   0  0  0  0  0  0  0  0  0  0  0  0
  161.0110  208.5500  155.9970 C   0  0  2  0  0  0  0  0  0  0  0  0
  161.2220  209.3300  153.6400 O   0  0  0  0  0  0  0  0  0  0  0  0
  162.0530  210.5250  150.1750 O   0  0  0  0  0  0  0  0  0  0  0  0
  160.7320  207.1330  155.4920 C   0  0  0  0  0  2  0  0  0  0  0  0
  161.4120  207.2440  151.6320 C   0  0  2  0  0  3  0  0  0  0  0  0
  160.6730  209.5560  154.9110 C   0  0  0  0  0  0  0  0  0  0  0  0
  160.9380  208.6590  151.2400 C   0  0  2  0  0  3  0  0  0  0  0  0
  159.4900  211.7360  154.3600 C   0  0  0  0  0  0  0  0  0  0  0  0
  156.2770  214.4520  157.2140 C   0  0  0  0  0  1  0  0  0  0  0  0
  158.9440  212.9640  155.0190 C   0  0  1  0  0  3  0  0  0  0  0  0
  157.3190  213.4010  156.8960 C   0  0  1  0  0  3  0  0  0  0  0  0
  157.1420  212.8650  155.1800 S   0  0  0  0  0  0  0  0  0  0  0  0
  159.5260  213.1380  156.3430 N   0  0  0  0  0  2  0  0  0  0  0  0
  158.6480  213.9620  157.0640 N   0  0  0  0  0  2  0  0  0  0  0  0
  162.0560  204.9960  150.6190 C   0  0  0  0  0  2  0  0  0  0  0  0
  161.0010  203.9850  150.3040 C   0  0  0  0  0  0  0  0  0  0  0  0
  160.1330  203.7340  151.1260 O   0  0  0  0  0  0  0  0  0  0  0  0
  161.6980  202.0580  149.0960 O   0  0  0  0  0  1  0  0  0  0  0  0
  161.0320  203.2790  148.9830 C   0  0  2  0  0  3  0  0  0  0  0  0
  161.6570  204.1400  147.8900 C   0  0  0  0  0  2  0  0  0  0  0  0
  161.4670  203.2340  145.7240 C   0  0  1  0  0  3  0  0  0  0  0  0
  161.3360  205.4430  145.6870 S   0  0  0  0  0  0  0  0  0  0  0  0
  160.1970  206.1760  145.0350 O   0  0  0  0  0  0  0  0  0  0  0  0
  160.4170  202.3350  145.0940 C   0  0  0  0  0  1  0  0  0  0  0  0
  161.9750  204.1920  144.7210 N   0  0  0  0  0  2  0  0  0  0  0  0
  160.8290  204.1520  146.6890 N   0  0  0  0  0  0  0  0  0  0  0  0
  162.3890  206.3420  146.2770 O   0  0  0  0  0  0  0  0  0  0  0  0
  1 29  1  1  0  0  0
  1 19  1  0  0  0  0
  2  7  2  0  0  0  0
  2  5  1  0  0  0  0
  4 10  2  0  0  0  0
  4  8  1  0  0  0  0
  6  3  1  1  0  0  0
  6 13  1  0  0  0  0
  7  1  1  0  0  0  0
  8 22  2  0  0  0  0
 10 16  1  0  0  0  0
 13 18  1  0  0  0  0
 14  6  1  0  0  0  0
 15  9  1  0  0  0  0
 15 12  1  1  0  0  0
 16 20  1  0  0  0  0
 17  5  2  0  0  0  0
 18 15  1  0  0  0  0
 19 14  1  1  0  0  0
 20 11  2  0  0  0  0
 20 15  1  0  0  0  0
 21  5  1  1  0  0  0
 21 19  1  0  0  0  0
 21 10  1  0  0  0  0
 22 11  1  0  0  0  0
 24 22  1  1  0  0  0
 24 26  1  0  0  0  0
 24 27  1  0  0  0  0
 25 28  1  0  0  0  0
 25 23  1  6  0  0  0
 26 25  1  0  0  0  0
 27 28  1  0  0  0  0
 30 29  1  0  0  0  0
 30 31  2  0  0  0  0
 33 32  1  1  0  0  0
 33 30  1  0  0  0  0
 34 33  1  0  0  0  0
 35 38  1  6  0  0  0
 35 40  1  0  0  0  0
 36 41  2  0  0  0  0
 36 40  1  0  0  0  0
 37 36  2  0  0  0  0
 39 36  1  0  0  0  0
 39 35  1  0  0  0  0
 40 34  1  0  0  0  0
M  END
>  <MODEL>
2

>  <REMARK>
 VINA RESULT:      -6.2      1.854      2.700
  Name = 
  6 active torsions:
  status: ('A' for Active; 'I' for Inactive)
    1  A    between atoms: C_1  and  C_28
    2  A    between atoms: C_4  and  C_28
    3  A    between atoms: C_4  and  C_34
    4  A    between atoms: C_19  and  C_40
    5  A    between atoms: N_33  and  C_38
    6  A    between atoms: C_34  and  C_38
                            x       y       z     vdW  Elec       q    Type
                         _______ _______ _______ _____ _____    ______ ____

>  <TORSDO>
F 6

$$$$
=
 OpenBabel11072413253D

 41 45  0  0  1  0  0  0  0  0999 V2000
  160.9960  208.0790  151.7880 C   0  0  2  0  0  3  0  0  0  0  0  0
  161.6810  206.3430  153.4310 C   0  0  0  0  0  3  0  0  0  0  0  0
  161.2030  209.2510  147.8950 C   0  0  0  0  0  1  0  0  0  0  0  0
  160.1390  203.5550  150.1650 C   0  0  0  0  0  3  0  0  0  0  0  0
  161.3590  205.2950  152.4530 C   0  0  0  0  0  0  0  0  0  0  0  0
  161.8240  208.1970  148.7950 C   0  0  2  0  0  3  0  0  0  0  0  0
  161.5340  207.6330  153.1230 C   0  0  0  0  0  3  0  0  0  0  0  0
  160.1200  202.3250  149.3720 C   0  0  0  0  0  3  0  0  0  0  0  0
  164.0260  205.0600  146.9290 O   0  0  0  0  0  1  0  0  0  0  0  0
  160.9630  204.6000  150.0590 C   0  0  0  0  0  0  0  0  0  0  0  0
  161.4140  203.0950  147.4030 C   0  0  0  0  0  3  0  0  0  0  0  0
  162.3390  204.7020  145.3070 C   0  0  0  0  0  1  0  0  0  0  0  0
  162.8120  207.3100  148.0390 C   0  0  0  0  0  2  0  0  0  0  0  0
  160.8210  207.4490  149.4370 O   0  0  0  0  0  0  0  0  0  0  0  0
  162.6430  205.1300  146.7410 C   0  0  2  0  0  0  0  0  0  0  0  0
  161.9820  204.7080  149.1060 O   0  0  0  0  0  0  0  0  0  0  0  0
  161.4950  204.0860  152.7810 O   0  0  0  0  0  0  0  0  0  0  0  0
  162.1590  206.5740  146.8740 C   0  0  0  0  0  2  0  0  0  0  0  0
  161.3570  207.0640  150.6800 C   0  0  2  0  0  3  0  0  0  0  0  0
  161.9520  204.2610  147.7770 C   0  0  0  0  0  0  0  0  0  0  0  0
  160.8080  205.6840  151.0970 C   0  0  2  0  0  3  0  0  0  0  0  0
  160.7060  202.0880  148.2050 C   0  0  0  0  0  0  0  0  0  0  0  0
  161.0040  198.4670  144.6490 C   0  0  0  0  0  1  0  0  0  0  0  0
  160.4770  200.7380  147.6010 C   0  0  1  0  0  3  0  0  0  0  0  0
  161.4980  199.4500  145.6890 C   0  0  1  0  0  3  0  0  0  0  0  0
  160.3610  200.8500  145.7960 S   0  0  0  0  0  0  0  0  0  0  0  0
  161.5620  199.8300  147.9460 N   0  0  0  0  0  2  0  0  0  0  0  0
  161.5500  198.8040  146.9890 N   0  0  0  0  0  2  0  0  0  0  0  0
  161.5190  209.4780  151.4820 C   0  0  0  0  0  2  0  0  0  0  0  0
  161.2840  210.4060  152.6300 C   0  0  0  0  0  0  0  0  0  0  0  0
  162.1020  210.4780  153.5340 O   0  0  0  0  0  0  0  0  0  0  0  0
  160.0690  212.2160  151.6780 O   0  0  0  0  0  1  0  0  0  0  0  0
  160.0330  211.2300  152.6640 C   0  0  2  0  0  3  0  0  0  0  0  0
  159.7920  211.8450  154.0390 C   0  0  0  0  0  2  0  0  0  0  0  0
  158.0170  211.7290  155.5830 C   0  0  1  0  0  3  0  0  0  0  0  0
  159.8650  210.8380  156.4130 S   0  0  0  0  0  0  0  0  0  0  0  0
  159.9090  209.4490  156.9830 O   0  0  0  0  0  0  0  0  0  0  0  0
  156.6910  210.9890  155.5420 C   0  0  0  0  0  1  0  0  0  0  0  0
  158.5370  211.7530  156.9650 N   0  0  0  0  0  2  0  0  0  0  0  0
  159.0590  210.9300  154.9060 N   0  0  0  0  0  0  0  0  0  0  0  0
  161.1750  211.5770  156.4890 O   0  0  0  0  0  0  0  0  0  0  0  0
  1 29  1  6  0  0  0
  1  7  1  0  0  0  0
  5 17  2  0  0  0  0
  5  2  1  0  0  0  0
  6  3  1  6  0  0  0
  6 14  1  0  0  0  0
  7  2  2  0  0  0  0
  8  4  1  0  0  0  0
 10  4  2  0  0  0  0
 11 20  2  0  0  0  0
 11 22  1  0  0  0  0
 13  6  1  0  0  0  0
 15 12  1  6  0  0  0
 15 18  1  0  0  0  0
 15  9  1  0  0  0  0
 15 20  1  0  0  0  0
 16 10  1  0  0  0  0
 18 13  1  0  0  0  0
 19 14  1  6  0  0  0
 19 21  1  0  0  0  0
 19  1  1  0  0  0  0
 20 16  1  0  0  0  0
 21 10  1  6  0  0  0
 21  5  1  0  0  0  0
 22  8  2  0  0  0  0
 24 27  1  0  0  0  0
 24 22  1  1  0  0  0
 25 23  1  6  0  0  0
 25 26  1  0  0  0  0
 25 28  1  0  0  0  0
 26 24  1  0  0  0  0
 28 27  1  0  0  0  0
 29 30  1  0  0  0  0
 30 33  1  0  0  0  0
 30 31  2  0  0  0  0
 33 32  1  6  0  0  0
 33 34  1  0  0  0  0
 34 40  1  0  0  0  0
 35 38  1  1  0  0  0
 35 39  1  0  0  0  0
 36 41  2  0  0  0  0
 36 39  1  0  0  0  0
 36 37  2  0  0  0  0
 40 35  1  0  0  0  0
 40 36  1  0  0  0  0
M  END
>  <MODEL>
3

>  <REMARK>
 VINA RESULT:      -6.2      2.112     10.374
  Name = 
  6 active torsions:
  status: ('A' for Active; 'I' for Inactive)
    1  A    between atoms: C_1  and  C_28
    2  A    between atoms: C_4  and  C_28
    3  A    between atoms: C_4  and  C_34
    4  A    between atoms: C_19  and  C_40
    5  A    between atoms: N_33  and  C_38
    6  A    between atoms: C_34  and  C_38
                            x       y       z     vdW  Elec       q    Type
                         _______ _______ _______ _____ _____    ______ ____

>  <TORSDO>
F 6

$$$$
=
 OpenBabel11072413253D

 41 45  0  0  1  0  0  0  0  0999 V2000
  160.9250  208.3210  152.0210 C   0  0  2  0  0  3  0  0  0  0  0  0
  161.5700  206.5830  153.6780 C   0  0  0  0  0  3  0  0  0  0  0  0
  161.2200  209.4910  148.1340 C   0  0  0  0  0  1  0  0  0  0  0  0
  160.0900  203.7990  150.3810 C   0  0  0  0  0  3  0  0  0  0  0  0
  161.2650  205.5350  152.6940 C   0  0  0  0  0  0  0  0  0  0  0  0
  161.8180  208.4350  149.0470 C   0  0  2  0  0  3  0  0  0  0  0  0
  161.4340  207.8730  153.3670 C   0  0  0  0  0  3  0  0  0  0  0  0
  160.0830  202.5680  149.5880 C   0  0  0  0  0  3  0  0  0  0  0  0
  164.0500  205.2920  147.2290 O   0  0  0  0  0  1  0  0  0  0  0  0
  160.9190  204.8410  150.2930 C   0  0  0  0  0  0  0  0  0  0  0  0
  161.4220  203.3340  147.6470 C   0  0  0  0  0  3  0  0  0  0  0  0
  162.3970  204.9380  145.5710 C   0  0  0  0  0  1  0  0  0  0  0  0
  162.8190  207.5460  148.3130 C   0  0  0  0  0  2  0  0  0  0  0  0
  160.7990  207.6910  149.6670 O   0  0  0  0  0  0  0  0  0  0  0  0
  162.6710  205.3650  147.0110 C   0  0  2  0  0  0  0  0  0  0  0  0
  161.9580  204.9460  149.3620 O   0  0  0  0  0  0  0  0  0  0  0  0
  161.3910  204.3260  153.0250 O   0  0  0  0  0  0  0  0  0  0  0  0
  162.1880  206.8110  147.1340 C   0  0  0  0  0  2  0  0  0  0  0  0
  161.3070  207.3040  150.9220 C   0  0  2  0  0  3  0  0  0  0  0  0
  161.9550  204.4990  148.0320 C   0  0  0  0  0  0  0  0  0  0  0  0
  160.7450  205.9260  151.3270 C   0  0  2  0  0  3  0  0  0  0  0  0
  160.6940  202.3290  148.4340 C   0  0  0  0  0  0  0  0  0  0  0  0
  161.0090  198.7250  144.8620 C   0  0  0  0  0  1  0  0  0  0  0  0
  160.4740  200.9810  147.8250 C   0  0  1  0  0  3  0  0  0  0  0  0
  161.4990  199.7080  145.9050 C   0  0  1  0  0  3  0  0  0  0  0  0
  160.3500  201.0980  146.0210 S   0  0  0  0  0  0  0  0  0  0  0  0
  161.5670  200.0790  148.1630 N   0  0  0  0  0  2  0  0  0  0  0  0
  161.5610  199.0580  147.2020 N   0  0  0  0  0  2  0  0  0  0  0  0
  161.4590  209.7180  151.7260 C   0  0  0  0  0  2  0  0  0  0  0  0
  161.5530  210.5350  152.9740 C   0  0  0  0  0  0  0  0  0  0  0  0
  162.4460  210.3200  153.7790 O   0  0  0  0  0  0  0  0  0  0  0  0
  160.4390  211.8730  154.5960 O   0  0  0  0  0  1  0  0  0  0  0  0
  160.5340  211.6040  153.2300 C   0  0  2  0  0  3  0  0  0  0  0  0
  159.1690  211.2410  152.6520 C   0  0  0  0  0  2  0  0  0  0  0  0
  159.7600  213.2890  151.6500 C   0  0  1  0  0  3  0  0  0  0  0  0
  157.7510  213.3950  152.5720 S   0  0  0  0  0  0  0  0  0  0  0  0
  156.5350  213.8460  151.8130 O   0  0  0  0  0  0  0  0  0  0  0  0
  160.0250  213.6650  150.2020 C   0  0  0  0  0  1  0  0  0  0  0  0
  159.1020  214.4110  152.3490 N   0  0  0  0  0  2  0  0  0  0  0  0
  158.7040  212.2590  151.7170 N   0  0  0  0  0  0  0  0  0  0  0  0
  157.4870  213.0580  154.0150 O   0  0  0  0  0  0  0  0  0  0  0  0
  1 29  1  6  0  0  0
  1  7  1  0  0  0  0
  5 17  2  0  0  0  0
  5  2  1  0  0  0  0
  6  3  1  6  0  0  0
  6 14  1  0  0  0  0
  7  2  2  0  0  0  0
  8  4  1  0  0  0  0
 10  4  2  0  0  0  0
 11 20  2  0  0  0  0
 11 22  1  0  0  0  0
 13  6  1  0  0  0  0
 15 12  1  6  0  0  0
 15 18  1  0  0  0  0
 15  9  1  0  0  0  0
 15 20  1  0  0  0  0
 16 10  1  0  0  0  0
 18 13  1  0  0  0  0
 19 14  1  6  0  0  0
 19 21  1  0  0  0  0
 19  1  1  0  0  0  0
 20 16  1  0  0  0  0
 21 10  1  6  0  0  0
 21  5  1  0  0  0  0
 22  8  2  0  0  0  0
 24 27  1  0  0  0  0
 24 22  1  1  0  0  0
 25 23  1  6  0  0  0
 25 26  1  0  0  0  0
 25 28  1  0  0  0  0
 26 24  1  0  0  0  0
 28 27  1  0  0  0  0
 29 30  1  0  0  0  0
 30 33  1  0  0  0  0
 30 31  2  0  0  0  0
 33 32  1  1  0  0  0
 34 33  1  0  0  0  0
 35 38  1  6  0  0  0
 35 40  1  0  0  0  0
 35 39  1  0  0  0  0
 36 41  2  0  0  0  0
 37 36  2  0  0  0  0
 39 36  1  0  0  0  0
 40 36  1  0  0  0  0
 40 34  1  0  0  0  0
M  END
>  <MODEL>
4

>  <REMARK>
 VINA RESULT:      -5.6      2.780     10.313
  Name = 
  6 active torsions:
  status: ('A' for Active; 'I' for Inactive)
    1  A    between atoms: C_1  and  C_28
    2  A    between atoms: C_4  and  C_28
    3  A    between atoms: C_4  and  C_34
    4  A    between atoms: C_19  and  C_40
    5  A    between atoms: N_33  and  C_38
    6  A    between atoms: C_34  and  C_38
                            x       y       z     vdW  Elec       q    Type
                         _______ _______ _______ _____ _____    ______ ____

>  <TORSDO>
F 6

$$$$
=
 OpenBabel11072413253D

 41 45  0  0  1  0  0  0  0  0999 V2000
  160.9520  208.0580  151.6970 C   0  0  2  0  0  3  0  0  0  0  0  0
  161.6290  206.3460  153.3690 C   0  0  0  0  0  3  0  0  0  0  0  0
  161.1930  209.1790  147.7920 C   0  0  0  0  0  1  0  0  0  0  0  0
  160.1330  203.5090  150.1250 C   0  0  0  0  0  3  0  0  0  0  0  0
  161.3220  205.2840  152.4020 C   0  0  0  0  0  0  0  0  0  0  0  0
  161.8090  208.1400  148.7120 C   0  0  2  0  0  3  0  0  0  0  0  0
  161.4800  207.6310  153.0430 C   0  0  0  0  0  3  0  0  0  0  0  0
  160.1260  202.2680  149.3490 C   0  0  0  0  0  3  0  0  0  0  0  0
  164.0440  204.9900  146.9080 O   0  0  0  0  0  1  0  0  0  0  0  0
  160.9530  204.5560  150.0140 C   0  0  0  0  0  0  0  0  0  0  0  0
  161.4370  203.0190  147.3820 C   0  0  0  0  0  3  0  0  0  0  0  0
  162.3750  204.6030  145.2750 C   0  0  0  0  0  1  0  0  0  0  0  0
  162.8090  207.2490  147.9770 C   0  0  0  0  0  2  0  0  0  0  0  0
  160.8040  207.3960  149.3530 O   0  0  0  0  0  0  0  0  0  0  0  0
  162.6620  205.0500  146.7050 C   0  0  2  0  0  0  0  0  0  0  0  0
  161.9800  204.6570  149.0700 O   0  0  0  0  0  0  0  0  0  0  0  0
  161.4600  204.0800  152.7470 O   0  0  0  0  0  0  0  0  0  0  0  0
  162.1700  206.4940  146.8160 C   0  0  0  0  0  2  0  0  0  0  0  0
  161.3290  207.0300  150.6070 C   0  0  2  0  0  3  0  0  0  0  0  0
  161.9650  204.1920  147.7460 C   0  0  0  0  0  0  0  0  0  0  0  0
  160.7830  205.6520  151.0360 C   0  0  2  0  0  3  0  0  0  0  0  0
  160.7260  202.0190  148.1900 C   0  0  0  0  0  0  0  0  0  0  0  0
  161.0130  198.3760  144.6560 C   0  0  0  0  0  1  0  0  0  0  0  0
  160.5090  200.6600  147.6020 C   0  0  1  0  0  3  0  0  0  0  0  0
  161.5110  199.3760  145.6770 C   0  0  1  0  0  3  0  0  0  0  0  0
  160.3500  200.7550  145.7990 S   0  0  0  0  0  0  0  0  0  0  0  0
  161.6180  199.7750  147.9300 N   0  0  0  0  0  2  0  0  0  0  0  0
  161.6040  198.7420  146.9810 N   0  0  0  0  0  2  0  0  0  0  0  0
  161.4720  209.4550  151.3780 C   0  0  0  0  0  2  0  0  0  0  0  0
  160.5390  210.5070  151.8850 C   0  0  0  0  0  0  0  0  0  0  0  0
  159.6340  210.2050  152.6460 O   0  0  0  0  0  0  0  0  0  0  0  0
  159.4810  212.5430  151.2560 O   0  0  0  0  0  1  0  0  0  0  0  0
  160.7190  211.9260  151.4350 C   0  0  2  0  0  3  0  0  0  0  0  0
  161.5610  212.0200  150.1670 C   0  0  0  0  0  2  0  0  0  0  0  0
  159.9610  212.7040  148.5800 C   0  0  1  0  0  3  0  0  0  0  0  0
  162.0190  213.0990  147.8690 S   0  0  0  0  0  0  0  0  0  0  0  0
  162.4640  214.4530  147.3940 O   0  0  0  0  0  0  0  0  0  0  0  0
  158.8840  213.7750  148.6290 C   0  0  0  0  0  1  0  0  0  0  0  0
  160.5190  212.6150  147.2170 N   0  0  0  0  0  2  0  0  0  0  0  0
  161.1460  213.1480  149.3400 N   0  0  0  0  0  0  0  0  0  0  0  0
  163.0800  212.0360  147.7840 O   0  0  0  0  0  0  0  0  0  0  0  0
  1 29  1  6  0  0  0
  1  7  1  0  0  0  0
  5 17  2  0  0  0  0
  5  2  1  0  0  0  0
  6  3  1  6  0  0  0
  6 14  1  0  0  0  0
  7  2  2  0  0  0  0
  8  4  1  0  0  0  0
 10  4  2  0  0  0  0
 11 20  2  0  0  0  0
 11 22  1  0  0  0  0
 13  6  1  0  0  0  0
 15 12  1  6  0  0  0
 15 18  1  0  0  0  0
 15  9  1  0  0  0  0
 15 20  1  0  0  0  0
 16 10  1  0  0  0  0
 18 13  1  0  0  0  0
 19 14  1  6  0  0  0
 19 21  1  0  0  0  0
 19  1  1  0  0  0  0
 20 16  1  0  0  0  0
 21 10  1  6  0  0  0
 21  5  1  0  0  0  0
 22  8  2  0  0  0  0
 24 27  1  0  0  0  0
 24 22  1  6  0  0  0
 25 23  1  6  0  0  0
 25 26  1  0  0  0  0
 25 28  1  0  0  0  0
 26 24  1  0  0  0  0
 28 27  1  0  0  0  0
 29 30  1  0  0  0  0
 30 31  2  0  0  0  0
 33 32  1  6  0  0  0
 33 30  1  0  0  0  0
 34 33  1  0  0  0  0
 35 38  1  6  0  0  0
 35 40  1  0  0  0  0
 36 40  1  0  0  0  0
 37 36  2  0  0  0  0
 39 36  1  0  0  0  0
 39 35  1  0  0  0  0
 40 34  1  0  0  0  0
 41 36  2  0  0  0  0
M  END
>  <MODEL>
5

>  <REMARK>
 VINA RESULT:      -4.6      3.773     10.280
  Name = 
  6 active torsions:
  status: ('A' for Active; 'I' for Inactive)
    1  A    between atoms: C_1  and  C_28
    2  A    between atoms: C_4  and  C_28
    3  A    between atoms: C_4  and  C_34
    4  A    between atoms: C_19  and  C_40
    5  A    between atoms: N_33  and  C_38
    6  A    between atoms: C_34  and  C_38
                            x       y       z     vdW  Elec       q    Type
                         _______ _______ _______ _____ _____    ______ ____

>  <TORSDO>
F 6

$$$$
=
 OpenBabel11072413253D

 41 45  0  0  1  0  0  0  0  0999 V2000
  162.6060  209.6030  151.5510 C   0  0  2  0  0  3  0  0  0  0  0  0
  161.5250  210.6680  149.5820 C   0  0  0  0  0  3  0  0  0  0  0  0
  162.7360  206.2690  153.8830 C   0  0  0  0  0  1  0  0  0  0  0  0
  162.4800  206.6340  147.6770 C   0  0  0  0  0  3  0  0  0  0  0  0
  161.6280  209.4020  148.8430 C   0  0  0  0  0  0  0  0  0  0  0  0
  161.8820  206.8340  152.7620 C   0  0  2  0  0  3  0  0  0  0  0  0
  161.9560  210.7620  150.8400 C   0  0  0  0  0  3  0  0  0  0  0  0
  162.2450  205.5040  146.7770 C   0  0  0  0  0  3  0  0  0  0  0  0
  159.0820  204.2110  150.9050 O   0  0  0  0  0  1  0  0  0  0  0  0
  161.9080  206.8940  148.8540 C   0  0  0  0  0  0  0  0  0  0  0  0
  161.1890  203.9310  148.3770 C   0  0  0  0  0  3  0  0  0  0  0  0
  160.6810  202.4750  150.7120 C   0  0  0  0  0  1  0  0  0  0  0  0
  160.7380  205.8930  152.3860 C   0  0  0  0  0  2  0  0  0  0  0  0
  162.6840  207.1660  151.6560 O   0  0  0  0  0  0  0  0  0  0  0  0
  160.4510  203.9840  150.7310 C   0  0  2  0  0  0  0  0  0  0  0  0
  160.9560  206.0720  149.4670 O   0  0  0  0  0  0  0  0  0  0  0  0
  161.2230  209.3510  147.6510 O   0  0  0  0  0  0  0  0  0  0  0  0
  161.2370  204.5280  151.9240 C   0  0  0  0  0  2  0  0  0  0  0  0
  162.0520  208.2570  151.0300 C   0  0  2  0  0  3  0  0  0  0  0  0
  160.9140  204.6690  149.4570 C   0  0  0  0  0  0  0  0  0  0  0  0
  162.2770  208.2040  149.5040 C   0  0  2  0  0  3  0  0  0  0  0  0
  161.6430  204.3510  147.0440 C   0  0  0  0  0  0  0  0  0  0  0  0
  160.0730  200.1640  144.6260 C   0  0  0  0  0  1  0  0  0  0  0  0
  161.5820  203.3520  145.9310 C   0  0  1  0  0  3  0  0  0  0  0  0
  159.9700  201.5340  145.2610 C   0  0  1  0  0  3  0  0  0  0  0  0
  161.2060  201.6980  146.5670 S   0  0  0  0  0  0  0  0  0  0  0  0
  160.5620  203.7260  144.9610 N   0  0  0  0  0  2  0  0  0  0  0  0
  160.2230  202.5580  144.2620 N   0  0  0  0  0  2  0  0  0  0  0  0
  162.4090  209.7650  153.0540 C   0  0  0  0  0  2  0  0  0  0  0  0
  160.9880  210.0960  153.3800 C   0  0  0  0  0  0  0  0  0  0  0  0
  160.0800  209.4660  152.8600 O   0  0  0  0  0  0  0  0  0  0  0  0
  161.6020  211.2020  155.3940 O   0  0  0  0  0  1  0  0  0  0  0  0
  160.6950  211.2130  154.3340 C   0  0  2  0  0  3  0  0  0  0  0  0
  159.2590  211.1640  154.8480 C   0  0  0  0  0  2  0  0  0  0  0  0
  158.9780  213.0500  153.4660 C   0  0  1  0  0  3  0  0  0  0  0  0
  157.2270  212.7520  154.7870 S   0  0  0  0  0  0  0  0  0  0  0  0
  155.8220  212.6690  154.2610 O   0  0  0  0  0  0  0  0  0  0  0  0
  158.8610  213.1890  151.9580 C   0  0  0  0  0  1  0  0  0  0  0  0
  158.1180  214.0490  154.1310 N   0  0  0  0  0  2  0  0  0  0  0  0
  158.3400  211.7940  153.9070 N   0  0  0  0  0  0  0  0  0  0  0  0
  157.3320  212.6490  156.2850 O   0  0  0  0  0  0  0  0  0  0  0  0
  1 29  1  1  0  0  0
  2  7  2  0  0  0  0
  4 10  2  0  0  0  0
  5  2  1  0  0  0  0
  6  3  1  1  0  0  0
  7  1  1  0  0  0  0
  8 22  2  0  0  0  0
  8  4  1  0  0  0  0
 10 16  1  0  0  0  0
 10 21  1  0  0  0  0
 11 20  2  0  0  0  0
 13  6  1  0  0  0  0
 14  6  1  0  0  0  0
 15 12  1  6  0  0  0
 15  9  1  0  0  0  0
 15 18  1  0  0  0  0
 17  5  2  0  0  0  0
 18 13  1  0  0  0  0
 19  1  1  0  0  0  0
 19 14  1  1  0  0  0
 20 16  1  0  0  0  0
 20 15  1  0  0  0  0
 21  5  1  6  0  0  0
 21 19  1  0  0  0  0
 22 11  1  0  0  0  0
 24 26  1  0  0  0  0
 24 22  1  1  0  0  0
 25 23  1  6  0  0  0
 25 26  1  0  0  0  0
 27 24  1  0  0  0  0
 28 27  1  0  0  0  0
 28 25  1  0  0  0  0
 29 30  1  0  0  0  0
 30 33  1  0  0  0  0
 31 30  2  0  0  0  0
 33 34  1  0  0  0  0
 33 32  1  1  0  0  0
 35 38  1  6  0  0  0
 35 40  1  0  0  0  0
 35 39  1  0  0  0  0
 36 41  2  0  0  0  0
 37 36  2  0  0  0  0
 39 36  1  0  0  0  0
 40 36  1  0  0  0  0
 40 34  1  0  0  0  0
M  END
>  <MODEL>
6

>  <REMARK>
 VINA RESULT:      -4.3      2.504      9.647
  Name = 
  6 active torsions:
  status: ('A' for Active; 'I' for Inactive)
    1  A    between atoms: C_1  and  C_28
    2  A    between atoms: C_4  and  C_28
    3  A    between atoms: C_4  and  C_34
    4  A    between atoms: C_19  and  C_40
    5  A    between atoms: N_33  and  C_38
    6  A    between atoms: C_34  and  C_38
                            x       y       z     vdW  Elec       q    Type
                         _______ _______ _______ _____ _____    ______ ____

>  <TORSDO>
F 6

$$$$
=
 OpenBabel11072413253D

 41 45  0  0  1  0  0  0  0  0999 V2000
  161.0830  211.4230  154.8270 C   0  0  2  0  0  3  0  0  0  0  0  0
  159.7540  212.4620  153.0000 C   0  0  0  0  0  3  0  0  0  0  0  0
  162.2640  207.9070  156.5030 C   0  0  0  0  0  1  0  0  0  0  0  0
  162.0480  209.4340  150.4740 C   0  0  0  0  0  3  0  0  0  0  0  0
  160.2920  211.4770  152.0520 C   0  0  0  0  0  0  0  0  0  0  0  0
  161.2970  208.3830  155.4320 C   0  0  2  0  0  3  0  0  0  0  0  0
  160.1000  212.4310  154.2880 C   0  0  0  0  0  3  0  0  0  0  0  0
  162.2260  208.4980  149.3630 C   0  0  0  0  0  3  0  0  0  0  0  0
  159.5810  205.4360  152.8760 O   0  0  0  0  0  1  0  0  0  0  0  0
  161.3950  209.2480  151.6230 C   0  0  0  0  0  0  0  0  0  0  0  0
  161.7190  206.3750  150.5410 C   0  0  0  0  0  3  0  0  0  0  0  0
  161.6710  204.3880  152.5100 C   0  0  0  0  0  1  0  0  0  0  0  0
  160.5430  207.2220  154.7870 C   0  0  0  0  0  2  0  0  0  0  0  0
  161.9680  209.1750  154.4850 O   0  0  0  0  0  0  0  0  0  0  0  0
  160.9500  205.7040  152.7870 C   0  0  2  0  0  0  0  0  0  0  0  0
  160.7580  208.0560  151.9840 O   0  0  0  0  0  0  0  0  0  0  0  0
  159.9560  211.5440  150.8390 O   0  0  0  0  0  0  0  0  0  0  0  0
  161.4800  206.2160  154.1270 C   0  0  0  0  0  2  0  0  0  0  0  0
  161.0230  210.1080  154.0170 C   0  0  2  0  0  3  0  0  0  0  0  0
  161.1870  206.7480  151.7100 C   0  0  0  0  0  0  0  0  0  0  0  0
  161.2880  210.4440  152.5350 C   0  0  2  0  0  3  0  0  0  0  0  0
  162.0390  207.1830  149.3560 C   0  0  0  0  0  0  0  0  0  0  0  0
  161.3940  203.7180  145.6920 C   0  0  0  0  0  1  0  0  0  0  0  0
  162.3410  206.4690  148.0760 C   0  0  1  0  0  3  0  0  0  0  0  0
  161.0610  204.9100  146.5650 C   0  0  1  0  0  3  0  0  0  0  0  0
  161.8540  204.7270  148.1780 S   0  0  0  0  0  0  0  0  0  0  0  0
  161.6380  207.0900  146.9620 N   0  0  0  0  0  2  0  0  0  0  0  0
  161.5590  206.1250  145.9460 N   0  0  0  0  0  2  0  0  0  0  0  0
  160.8070  211.2010  156.3100 C   0  0  0  0  0  2  0  0  0  0  0  0
  159.9710  212.3040  156.8740 C   0  0  0  0  0  0  0  0  0  0  0  0
  160.4510  213.4160  157.0290 O   0  0  0  0  0  0  0  0  0  0  0  0
  158.1350  210.7960  156.7440 O   0  0  0  0  0  1  0  0  0  0  0  0
  158.5500  212.0240  157.2600 C   0  0  2  0  0  3  0  0  0  0  0  0
  157.6090  213.1420  156.8230 C   0  0  0  0  0  2  0  0  0  0  0  0
  156.4420  214.1480  155.0410 C   0  0  1  0  0  3  0  0  0  0  0  0
  155.4970  212.2400  155.6470 S   0  0  0  0  0  0  0  0  0  0  0  0
  155.2070  211.1350  154.6710 O   0  0  0  0  0  0  0  0  0  0  0  0
  156.8500  214.4480  153.6090 C   0  0  0  0  0  1  0  0  0  0  0  0
  155.0140  213.7770  155.0890 N   0  0  0  0  0  2  0  0  0  0  0  0
  157.0720  212.8900  155.4900 N   0  0  0  0  0  0  0  0  0  0  0  0
  155.0580  211.9490  157.0570 O   0  0  0  0  0  0  0  0  0  0  0  0
  1 29  1  1  0  0  0
  2  7  2  0  0  0  0
  4 10  2  0  0  0  0
  5 21  1  0  0  0  0
  5  2  1  0  0  0  0
  6  3  1  1  0  0  0
  7  1  1  0  0  0  0
  8  4  1  0  0  0  0
 10 16  1  0  0  0  0
 11 20  2  0  0  0  0
 13  6  1  0  0  0  0
 14  6  1  0  0  0  0
 15 12  1  6  0  0  0
 15  9  1  0  0  0  0
 15 18  1  0  0  0  0
 17  5  2  0  0  0  0
 18 13  1  0  0  0  0
 19 14  1  1  0  0  0
 19  1  1  0  0  0  0
 20 16  1  0  0  0  0
 20 15  1  0  0  0  0
 21 10  1  6  0  0  0
 21 19  1  0  0  0  0
 22  8  2  0  0  0  0
 22 11  1  0  0  0  0
 24 26  1  0  0  0  0
 24 22  1  1  0  0  0
 25 23  1  6  0  0  0
 25 26  1  0  0  0  0
 27 24  1  0  0  0  0
 28 25  1  0  0  0  0
 28 27  1  0  0  0  0
 29 30  1  0  0  0  0
 30 31  2  0  0  0  0
 30 33  1  0  0  0  0
 33 32  1  6  0  0  0
 34 33  1  0  0  0  0
 35 38  1  6  0  0  0
 35 39  1  0  0  0  0
 35 40  1  0  0  0  0
 36 41  2  0  0  0  0
 37 36  2  0  0  0  0
 39 36  1  0  0  0  0
 40 36  1  0  0  0  0
 40 34  1  0  0  0  0
M  END
>  <MODEL>
7

>  <REMARK>
 VINA RESULT:      -4.1      2.542      9.446
  Name = 
  6 active torsions:
  status: ('A' for Active; 'I' for Inactive)
    1  A    between atoms: C_1  and  C_28
    2  A    between atoms: C_4  and  C_28
    3  A    between atoms: C_4  and  C_34
    4  A    between atoms: C_19  and  C_40
    5  A    between atoms: N_33  and  C_38
    6  A    between atoms: C_34  and  C_38
                            x       y       z     vdW  Elec       q    Type
                         _______ _______ _______ _____ _____    ______ ____

>  <TORSDO>
F 6

$$$$
