=
 OpenBabel11072412293D

 33 37  0  0  1  0  0  0  0  0999 V2000
  162.4070  211.2910  149.5190 C   0  0  0  0  0  3  0  0  0  0  0  0
  158.1030  211.8580  151.9400 N   0  0  0  0  0  2  0  0  0  0  0  0
  160.5700  207.2510  150.2070 N   0  0  0  0  0  0  0  0  0  0  0  0
  161.8270  208.8450  153.2160 C   0  0  2  0  0  3  0  0  0  0  0  0
  160.5910  210.6500  154.3240 C   0  0  0  0  0  0  0  0  0  0  0  0
  160.8960  208.8510  152.0110 C   0  0  1  0  0  3  0  0  0  0  0  0
  160.5840  212.3360  150.5620 N   0  0  0  0  0  0  0  0  0  0  0  0
  161.1380  210.0970  151.1920 C   0  0  0  0  0  0  0  0  0  0  0  0
  161.5830  212.3560  149.6780 N   0  0  0  0  0  0  0  0  0  0  0  0
  161.2080  207.5900  151.2920 C   0  0  0  0  0  0  0  0  0  0  0  0
  159.2190  211.3270  152.3160 C   0  0  0  0  0  0  0  0  0  0  0  0
  162.5380  207.4940  153.2730 C   0  0  0  0  0  3  0  0  0  0  0  0
  162.2460  206.7700  151.9690 C   0  0  0  0  0  3  0  0  0  0  0  0
  161.1170  209.2560  154.5190 C   0  0  1  0  0  3  0  0  0  0  0  0
  160.3390  211.2530  151.3510 C   0  0  0  0  0  0  0  0  0  0  0  0
  161.3020  211.6370  154.6490 O   0  0  0  0  0  0  0  0  0  0  0  0
  159.3390  210.8590  153.6640 N   0  0  0  0  0  2  0  0  0  0  0  0
  162.1980  210.1450  150.2780 C   0  0  0  0  0  3  0  0  0  0  0  0
  160.8000  203.6600  149.1030 C   0  0  0  0  0  3  0  0  0  0  0  0
  161.0100  206.2320  148.0390 C   0  0  0  0  0  3  0  0  0  0  0  0
  161.0750  203.8310  147.7450 C   0  0  0  0  0  3  0  0  0  0  0  0
  160.7340  206.0720  149.4020 C   0  0  0  0  0  0  0  0  0  0  0  0
  160.6340  204.7740  149.9280 C   0  0  0  0  0  3  0  0  0  0  0  0
  161.1980  205.1190  147.2060 C   0  0  0  0  0  0  0  0  0  0  0  0
  162.7060  205.8180  145.5130 F   0  0  0  0  0  0  0  0  0  0  0  0
  161.4400  205.3020  145.7360 C   0  0  0  0  0  0  0  0  0  0  0  0
  161.3360  204.0890  145.0770 F   0  0  0  0  0  0  0  0  0  0  0  0
  160.5000  206.1770  145.2240 F   0  0  0  0  0  0  0  0  0  0  0  0
  159.9080  208.4870  157.2590 N   0  0  0  0  0  2  0  0  0  0  0  0
  160.2090  207.0700  157.1950 C   0  0  0  0  0  2  0  0  0  0  0  0
  160.7150  206.6840  155.5050 S   0  0  0  0  0  0  0  0  0  0  0  0
  160.0110  208.2690  154.9630 C   0  0  1  0  0  3  0  0  0  0  0  0
  159.2280  208.8060  156.0740 N   0  0  0  0  0  2  0  0  0  0  0  0
  1  9  2  0  0  0  0
  1 18  1  0  0  0  0
  2 11  2  0  0  0  0
  3 10  2  0  0  0  0
  4 12  1  1  0  0  0
  4 14  1  0  0  0  0
  5 16  2  0  0  0  0
  6  8  1  6  0  0  0
  6  4  1  0  0  0  0
  7 15  2  0  0  0  0
  8 15  1  0  0  0  0
  9  7  1  0  0  0  0
 10 13  1  0  0  0  0
 10  6  1  0  0  0  0
 11 17  1  0  0  0  0
 13 12  2  0  0  0  0
 14  5  1  6  0  0  0
 14 32  1  0  0  0  0
 15 11  1  0  0  0  0
 17  5  1  0  0  0  0
 18  8  2  0  0  0  0
 19 23  1  0  0  0  0
 20 22  1  0  0  0  0
 21 19  2  0  0  0  0
 22 23  2  0  0  0  0
 22  3  1  0  0  0  0
 24 21  1  0  0  0  0
 24 20  2  0  0  0  0
 25 26  1  0  0  0  0
 26 24  1  0  0  0  0
 27 26  1  0  0  0  0
 28 26  1  0  0  0  0
 30 29  1  0  0  0  0
 31 30  1  0  0  0  0
 32 31  1  1  0  0  0
 32 33  1  0  0  0  0
 33 29  1  0  0  0  0
M  END
>  <MODEL>
1

>  <REMARK>
 VINA RESULT:      -5.0      0.000      0.000
  Name = 
  3 active torsions:
  status: ('A' for Active; 'I' for Inactive)
    1  A    between atoms: N_5  and  C_18
    2  A    between atoms: C_16  and  C_32
    3  A    between atoms: C_24  and  C_27
                            x       y       z     vdW  Elec       q    Type
                         _______ _______ _______ _____ _____    ______ ____

>  <TORSDO>
F 3

$$$$
=
 OpenBabel11072412293D

 33 37  0  0  1  0  0  0  0  0999 V2000
  162.3200  211.4570  149.5630 C   0  0  0  0  0  3  0  0  0  0  0  0
  158.0070  211.8800  151.9970 N   0  0  0  0  0  2  0  0  0  0  0  0
  160.5790  207.3640  150.1810 N   0  0  0  0  0  0  0  0  0  0  0  0
  161.8020  208.9330  153.2170 C   0  0  2  0  0  3  0  0  0  0  0  0
  160.5250  210.6890  154.3570 C   0  0  0  0  0  0  0  0  0  0  0  0
  160.8690  208.9380  152.0130 C   0  0  1  0  0  3  0  0  0  0  0  0
  160.4750  212.4400  150.6250 N   0  0  0  0  0  0  0  0  0  0  0  0
  161.0810  210.2050  151.2160 C   0  0  0  0  0  0  0  0  0  0  0  0
  161.4720  212.4990  149.7420 N   0  0  0  0  0  0  0  0  0  0  0  0
  161.2100  207.6980  151.2710 C   0  0  0  0  0  0  0  0  0  0  0  0
  159.1350  211.3690  152.3620 C   0  0  0  0  0  0  0  0  0  0  0  0
  162.5440  207.5990  153.2490 C   0  0  0  0  0  3  0  0  0  0  0  0
  162.2670  206.8910  151.9330 C   0  0  0  0  0  3  0  0  0  0  0  0
  161.0840  209.3050  154.5270 C   0  0  1  0  0  3  0  0  0  0  0  0
  160.2560  211.3390  151.3960 C   0  0  0  0  0  0  0  0  0  0  0  0
  161.2130  211.6860  154.6990 O   0  0  0  0  0  0  0  0  0  0  0  0
  159.2680  210.8800  153.7020 N   0  0  0  0  0  2  0  0  0  0  0  0
  162.1380  210.2930  150.3010 C   0  0  0  0  0  3  0  0  0  0  0  0
  161.2370  205.1270  147.2250 C   0  0  0  0  0  3  0  0  0  0  0  0
  160.6560  204.9410  149.9490 C   0  0  0  0  0  3  0  0  0  0  0  0
  161.1220  203.8730  147.8280 C   0  0  0  0  0  3  0  0  0  0  0  0
  160.7690  206.2030  149.3550 C   0  0  0  0  0  0  0  0  0  0  0  0
  161.0590  206.2860  147.9830 C   0  0  0  0  0  3  0  0  0  0  0  0
  160.8140  203.7700  149.1920 C   0  0  0  0  0  0  0  0  0  0  0  0
  161.6030  201.5340  149.2290 F   0  0  0  0  0  0  0  0  0  0  0  0
  160.7430  202.4240  149.8500 C   0  0  0  0  0  0  0  0  0  0  0  0
  161.0980  202.5220  151.1840 F   0  0  0  0  0  0  0  0  0  0  0  0
  159.4510  201.9390  149.7600 F   0  0  0  0  0  0  0  0  0  0  0  0
  159.9610  208.3930  157.2610 N   0  0  0  0  0  2  0  0  0  0  0  0
  160.2760  206.9850  157.1210 C   0  0  0  0  0  2  0  0  0  0  0  0
  160.7380  206.6840  155.4020 S   0  0  0  0  0  0  0  0  0  0  0  0
  160.0010  208.2840  154.9550 C   0  0  1  0  0  3  0  0  0  0  0  0
  159.2440  208.7590  156.1100 N   0  0  0  0  0  2  0  0  0  0  0  0
  1  9  2  0  0  0  0
  1 18  1  0  0  0  0
  2 11  2  0  0  0  0
  3 10  2  0  0  0  0
  4 12  1  1  0  0  0
  4 14  1  0  0  0  0
  5 16  2  0  0  0  0
  6  8  1  6  0  0  0
  6  4  1  0  0  0  0
  7 15  2  0  0  0  0
  8 15  1  0  0  0  0
  9  7  1  0  0  0  0
 10 13  1  0  0  0  0
 10  6  1  0  0  0  0
 11 17  1  0  0  0  0
 13 12  2  0  0  0  0
 14  5  1  6  0  0  0
 14 32  1  0  0  0  0
 15 11  1  0  0  0  0
 17  5  1  0  0  0  0
 18  8  2  0  0  0  0
 19 21  2  0  0  0  0
 19 23  1  0  0  0  0
 21 24  1  0  0  0  0
 22 20  1  0  0  0  0
 22  3  1  0  0  0  0
 23 22  2  0  0  0  0
 24 26  1  0  0  0  0
 24 20  2  0  0  0  0
 25 26  1  0  0  0  0
 26 27  1  0  0  0  0
 28 26  1  0  0  0  0
 30 29  1  0  0  0  0
 31 30  1  0  0  0  0
 32 31  1  1  0  0  0
 32 33  1  0  0  0  0
 33 29  1  0  0  0  0
M  END
>  <MODEL>
2

>  <REMARK>
 VINA RESULT:      -4.9      1.730      2.218
  Name = 
  3 active torsions:
  status: ('A' for Active; 'I' for Inactive)
    1  A    between atoms: N_5  and  C_18
    2  A    between atoms: C_16  and  C_32
    3  A    between atoms: C_24  and  C_27
                            x       y       z     vdW  Elec       q    Type
                         _______ _______ _______ _____ _____    ______ ____

>  <TORSDO>
F 3

$$$$
=
 OpenBabel11072412293D

 33 37  0  0  1  0  0  0  0  0999 V2000
  162.3240  211.9590  149.3900 C   0  0  0  0  0  3  0  0  0  0  0  0
  157.4980  212.9290  150.0790 N   0  0  0  0  0  2  0  0  0  0  0  0
  160.4070  208.4610  151.4550 N   0  0  0  0  0  0  0  0  0  0  0  0
  160.7220  211.4230  153.5300 C   0  0  2  0  0  3  0  0  0  0  0  0
  159.2000  213.3290  153.2840 C   0  0  0  0  0  0  0  0  0  0  0  0
  160.1800  210.7380  152.2820 C   0  0  1  0  0  3  0  0  0  0  0  0
  160.2670  213.0830  149.3090 N   0  0  0  0  0  0  0  0  0  0  0  0
  160.6370  211.4910  151.0540 C   0  0  0  0  0  0  0  0  0  0  0  0
  161.4790  212.8430  148.8060 N   0  0  0  0  0  0  0  0  0  0  0  0
  160.7000  209.3490  152.3620 C   0  0  0  0  0  0  0  0  0  0  0  0
  158.4620  212.8000  150.9280 C   0  0  0  0  0  0  0  0  0  0  0  0
  161.3990  210.3700  154.4050 C   0  0  0  0  0  3  0  0  0  0  0  0
  161.5040  209.0950  153.5850 C   0  0  0  0  0  3  0  0  0  0  0  0
  159.6610  212.2750  154.2500 C   0  0  1  0  0  3  0  0  0  0  0  0
  159.8150  212.4590  150.4320 C   0  0  0  0  0  0  0  0  0  0  0  0
  159.7760  214.4490  153.2590 O   0  0  0  0  0  0  0  0  0  0  0  0
  158.1910  213.0250  152.3160 N   0  0  0  0  0  2  0  0  0  0  0  0
  161.9150  211.2710  150.5270 C   0  0  0  0  0  3  0  0  0  0  0  0
  161.5910  205.0150  152.3990 C   0  0  0  0  0  3  0  0  0  0  0  0
  160.8020  206.4510  150.1390 C   0  0  0  0  0  3  0  0  0  0  0  0
  161.5790  204.3940  151.1480 C   0  0  0  0  0  3  0  0  0  0  0  0
  160.8090  207.0830  151.3870 C   0  0  0  0  0  0  0  0  0  0  0  0
  161.2110  206.3530  152.5170 C   0  0  0  0  0  3  0  0  0  0  0  0
  161.2000  205.1120  150.0060 C   0  0  0  0  0  0  0  0  0  0  0  0
  160.4720  205.2220  147.7500 F   0  0  0  0  0  0  0  0  0  0  0  0
  161.1370  204.4290  148.6710 C   0  0  0  0  0  0  0  0  0  0  0  0
  162.4140  204.1800  148.1980 F   0  0  0  0  0  0  0  0  0  0  0  0
  160.4620  203.2300  148.8030 F   0  0  0  0  0  0  0  0  0  0  0  0
  157.1110  213.0020  155.8420 N   0  0  0  0  0  2  0  0  0  0  0  0
  157.3780  212.1650  156.9950 C   0  0  0  0  0  2  0  0  0  0  0  0
  158.7400  211.0560  156.5770 S   0  0  0  0  0  0  0  0  0  0  0  0
  158.4830  211.4500  154.8220 C   0  0  1  0  0  3  0  0  0  0  0  0
  157.2190  212.1740  154.7130 N   0  0  0  0  0  2  0  0  0  0  0  0
  1 18  1  0  0  0  0
  2 11  2  0  0  0  0
  3 10  2  0  0  0  0
  4 14  1  0  0  0  0
  4 12  1  1  0  0  0
  6  8  1  6  0  0  0
  6 10  1  0  0  0  0
  6  4  1  0  0  0  0
  7 15  2  0  0  0  0
  9  7  1  0  0  0  0
  9  1  2  0  0  0  0
 10 13  1  0  0  0  0
 11 17  1  0  0  0  0
 13 12  2  0  0  0  0
 14  5  1  6  0  0  0
 14 32  1  0  0  0  0
 15 11  1  0  0  0  0
 15  8  1  0  0  0  0
 16  5  2  0  0  0  0
 17  5  1  0  0  0  0
 18  8  2  0  0  0  0
 19 23  1  0  0  0  0
 20 22  1  0  0  0  0
 21 19  2  0  0  0  0
 22  3  1  0  0  0  0
 22 23  2  0  0  0  0
 24 20  2  0  0  0  0
 24 21  1  0  0  0  0
 25 26  1  0  0  0  0
 26 28  1  0  0  0  0
 26 24  1  0  0  0  0
 27 26  1  0  0  0  0
 29 30  1  0  0  0  0
 31 30  1  0  0  0  0
 32 33  1  1  0  0  0
 32 31  1  0  0  0  0
 33 29  1  0  0  0  0
M  END
>  <MODEL>
3

>  <REMARK>
 VINA RESULT:      -4.8      2.327      3.127
  Name = 
  3 active torsions:
  status: ('A' for Active; 'I' for Inactive)
    1  A    between atoms: N_5  and  C_18
    2  A    between atoms: C_16  and  C_32
    3  A    between atoms: C_24  and  C_27
                            x       y       z     vdW  Elec       q    Type
                         _______ _______ _______ _____ _____    ______ ____

>  <TORSDO>
F 3

$$$$
=
 OpenBabel11072412293D

 33 37  0  0  1  0  0  0  0  0999 V2000
  162.0550  209.4840  156.1590 C   0  0  0  0  0  3  0  0  0  0  0  0
  159.8830  205.3940  154.3530 N   0  0  0  0  0  2  0  0  0  0  0  0
  159.1010  210.6710  152.9910 N   0  0  0  0  0  0  0  0  0  0  0  0
  162.0530  208.9870  151.7160 C   0  0  2  0  0  3  0  0  0  0  0  0
  162.3230  206.5570  151.8980 C   0  0  0  0  0  0  0  0  0  0  0  0
  160.8140  208.9870  152.6010 C   0  0  1  0  0  3  0  0  0  0  0  0
  161.4970  207.2240  155.8820 N   0  0  0  0  0  0  0  0  0  0  0  0
  161.2150  208.7100  154.0310 C   0  0  0  0  0  0  0  0  0  0  0  0
  161.9340  208.2250  156.6460 N   0  0  0  0  0  0  0  0  0  0  0  0
  160.2080  210.3280  152.3960 C   0  0  0  0  0  0  0  0  0  0  0  0
  160.6940  206.2330  153.8000 C   0  0  0  0  0  0  0  0  0  0  0  0
  162.0480  210.2620  150.8740 C   0  0  0  0  0  3  0  0  0  0  0  0
  160.9550  211.1650  151.4220 C   0  0  0  0  0  3  0  0  0  0  0  0
  162.2100  207.6840  150.9110 C   0  0  1  0  0  3  0  0  0  0  0  0
  161.1530  207.4070  154.5760 C   0  0  0  0  0  0  0  0  0  0  0  0
  163.4580  206.1940  152.3040 O   0  0  0  0  0  0  0  0  0  0  0  0
  161.1440  205.9770  152.4640 N   0  0  0  0  0  2  0  0  0  0  0  0
  161.6990  209.7450  154.8400 C   0  0  0  0  0  3  0  0  0  0  0  0
  157.8350  214.0060  151.7890 C   0  0  0  0  0  3  0  0  0  0  0  0
  157.4580  212.2210  153.9020 C   0  0  0  0  0  3  0  0  0  0  0  0
  156.9190  214.3060  152.7990 C   0  0  0  0  0  3  0  0  0  0  0  0
  158.3790  211.9100  152.8950 C   0  0  0  0  0  0  0  0  0  0  0  0
  158.5630  212.8160  151.8380 C   0  0  0  0  0  3  0  0  0  0  0  0
  156.7350  213.4230  153.8720 C   0  0  0  0  0  0  0  0  0  0  0  0
  154.6640  214.4530  154.3970 F   0  0  0  0  0  0  0  0  0  0  0  0
  155.7120  213.7210  154.9290 C   0  0  0  0  0  0  0  0  0  0  0  0
  155.2070  212.5440  155.4540 F   0  0  0  0  0  0  0  0  0  0  0  0
  156.3020  214.4520  155.9430 F   0  0  0  0  0  0  0  0  0  0  0  0
  161.5360  205.3820  148.9580 N   0  0  0  0  0  2  0  0  0  0  0  0
  161.5660  206.1690  147.7400 C   0  0  0  0  0  2  0  0  0  0  0  0
  161.6020  207.9130  148.2040 S   0  0  0  0  0  0  0  0  0  0  0  0
  161.0780  207.4490  149.8800 C   0  0  1  0  0  3  0  0  0  0  0  0
  160.6710  206.0460  149.8430 N   0  0  0  0  0  2  0  0  0  0  0  0
  1  9  1  0  0  0  0
  4 12  1  6  0  0  0
  4  6  1  0  0  0  0
  5 16  2  0  0  0  0
  5 17  1  0  0  0  0
  6 10  1  1  0  0  0
  6  8  1  0  0  0  0
  7  9  2  0  0  0  0
  8 15  2  0  0  0  0
  8 18  1  0  0  0  0
 10  3  2  0  0  0  0
 11  2  2  0  0  0  0
 11 15  1  0  0  0  0
 12 13  2  0  0  0  0
 13 10  1  0  0  0  0
 14  4  1  0  0  0  0
 14  5  1  1  0  0  0
 15  7  1  0  0  0  0
 17 11  1  0  0  0  0
 18  1  2  0  0  0  0
 19 23  2  0  0  0  0
 19 21  1  0  0  0  0
 21 24  2  0  0  0  0
 22  3  1  0  0  0  0
 22 20  2  0  0  0  0
 23 22  1  0  0  0  0
 24 20  1  0  0  0  0
 24 26  1  0  0  0  0
 25 26  1  0  0  0  0
 26 27  1  0  0  0  0
 26 28  1  0  0  0  0
 29 33  1  0  0  0  0
 30 31  1  0  0  0  0
 30 29  1  0  0  0  0
 32 31  1  6  0  0  0
 32 14  1  0  0  0  0
 33 32  1  0  0  0  0
M  END
>  <MODEL>
4

>  <REMARK>
 VINA RESULT:      -4.1      4.892      8.223
  Name = 
  3 active torsions:
  status: ('A' for Active; 'I' for Inactive)
    1  A    between atoms: N_5  and  C_18
    2  A    between atoms: C_16  and  C_32
    3  A    between atoms: C_24  and  C_27
                            x       y       z     vdW  Elec       q    Type
                         _______ _______ _______ _____ _____    ______ ____

>  <TORSDO>
F 3

$$$$
=
 OpenBabel11072412293D

 33 37  0  0  1  0  0  0  0  0999 V2000
  159.2690  213.4200  151.3460 C   0  0  0  0  0  3  0  0  0  0  0  0
  156.1340  211.4210  154.6450 N   0  0  0  0  0  2  0  0  0  0  0  0
  160.3570  209.1080  151.9740 N   0  0  0  0  0  0  0  0  0  0  0  0
  161.0860  211.2540  154.8100 C   0  0  2  0  0  3  0  0  0  0  0  0
  159.3180  212.0170  156.3280 C   0  0  0  0  0  0  0  0  0  0  0  0
  160.0840  210.6590  153.8290 C   0  0  1  0  0  3  0  0  0  0  0  0
  157.4750  213.2210  152.8430 N   0  0  0  0  0  0  0  0  0  0  0  0
  159.3580  211.7730  153.1110 C   0  0  0  0  0  0  0  0  0  0  0  0
  158.0410  213.7950  151.7800 N   0  0  0  0  0  0  0  0  0  0  0  0
  160.9010  209.8010  152.9340 C   0  0  0  0  0  0  0  0  0  0  0  0
  157.3990  211.6700  154.7260 C   0  0  0  0  0  0  0  0  0  0  0  0
  162.4420  210.5900  154.5790 C   0  0  0  0  0  3  0  0  0  0  0  0
  162.3420  209.7830  153.2950 C   0  0  0  0  0  3  0  0  0  0  0  0
  160.5870  211.2150  156.2660 C   0  0  1  0  0  3  0  0  0  0  0  0
  158.0960  212.2360  153.5500 C   0  0  0  0  0  0  0  0  0  0  0  0
  159.3680  213.2450  156.6010 O   0  0  0  0  0  0  0  0  0  0  0  0
  158.0710  211.4170  155.9650 N   0  0  0  0  0  2  0  0  0  0  0  0
  159.9480  212.4040  152.0090 C   0  0  0  0  0  3  0  0  0  0  0  0
  162.3460  207.7900  149.0620 C   0  0  0  0  0  3  0  0  0  0  0  0
  160.8430  206.8450  151.2170 C   0  0  0  0  0  3  0  0  0  0  0  0
  162.1910  206.4150  149.2540 C   0  0  0  0  0  3  0  0  0  0  0  0
  160.9920  208.2250  151.0350 C   0  0  0  0  0  0  0  0  0  0  0  0
  161.7470  208.6890  149.9460 C   0  0  0  0  0  3  0  0  0  0  0  0
  161.4240  205.9330  150.3240 C   0  0  0  0  0  0  0  0  0  0  0  0
  160.0100  204.1270  150.9300 F   0  0  0  0  0  0  0  0  0  0  0  0
  161.3030  204.4560  150.5600 C   0  0  0  0  0  0  0  0  0  0  0  0
  161.6230  203.7570  149.4070 F   0  0  0  0  0  0  0  0  0  0  0  0
  162.1690  204.0810  151.5700 F   0  0  0  0  0  0  0  0  0  0  0  0
  162.2840  208.6330  156.1350 N   0  0  0  0  0  2  0  0  0  0  0  0
  161.2820  207.7940  155.5070 C   0  0  0  0  0  2  0  0  0  0  0  0
  159.7040  208.6690  155.5700 S   0  0  0  0  0  0  0  0  0  0  0  0
  160.4030  209.7820  156.8230 C   0  0  1  0  0  3  0  0  0  0  0  0
  161.6750  209.2100  157.2610 N   0  0  0  0  0  2  0  0  0  0  0  0
  1  9  2  0  0  0  0
  1 18  1  0  0  0  0
  2 11  2  0  0  0  0
  3 10  2  0  0  0  0
  4 12  1  1  0  0  0
  4 14  1  0  0  0  0
  5 16  2  0  0  0  0
  6 10  1  6  0  0  0
  6  4  1  0  0  0  0
  7 15  2  0  0  0  0
  8 15  1  0  0  0  0
  8  6  1  0  0  0  0
  9  7  1  0  0  0  0
 10 13  1  0  0  0  0
 11 17  1  0  0  0  0
 13 12  2  0  0  0  0
 14  5  1  6  0  0  0
 14 32  1  0  0  0  0
 15 11  1  0  0  0  0
 17  5  1  0  0  0  0
 18  8  2  0  0  0  0
 19 21  2  0  0  0  0
 19 23  1  0  0  0  0
 21 24  1  0  0  0  0
 22 20  1  0  0  0  0
 22  3  1  0  0  0  0
 23 22  2  0  0  0  0
 24 26  1  0  0  0  0
 24 20  2  0  0  0  0
 26 25  1  0  0  0  0
 26 28  1  0  0  0  0
 27 26  1  0  0  0  0
 29 33  1  0  0  0  0
 30 31  1  0  0  0  0
 30 29  1  0  0  0  0
 32 31  1  6  0  0  0
 32 33  1  0  0  0  0
M  END
>  <MODEL>
5

>  <REMARK>
 VINA RESULT:      -3.7      2.548      3.591
  Name = 
  3 active torsions:
  status: ('A' for Active; 'I' for Inactive)
    1  A    between atoms: N_5  and  C_18
    2  A    between atoms: C_16  and  C_32
    3  A    between atoms: C_24  and  C_27
                            x       y       z     vdW  Elec       q    Type
                         _______ _______ _______ _____ _____    ______ ____

>  <TORSDO>
F 3

$$$$
=
 OpenBabel11072412293D

 33 37  0  0  1  0  0  0  0  0999 V2000
  163.4910  211.6830  148.3750 C   0  0  0  0  0  3  0  0  0  0  0  0
  158.7570  213.1890  148.2160 N   0  0  0  0  0  2  0  0  0  0  0  0
  160.8620  208.4260  150.0040 N   0  0  0  0  0  0  0  0  0  0  0  0
  161.1290  211.3380  152.1550 C   0  0  2  0  0  3  0  0  0  0  0  0
  159.8960  213.4020  151.6790 C   0  0  0  0  0  0  0  0  0  0  0  0
  160.7450  210.7160  150.8190 C   0  0  1  0  0  3  0  0  0  0  0  0
  161.6180  213.0300  147.9520 N   0  0  0  0  0  0  0  0  0  0  0  0
  161.4930  211.4110  149.7060 C   0  0  0  0  0  0  0  0  0  0  0  0
  162.8660  212.6550  147.6670 N   0  0  0  0  0  0  0  0  0  0  0  0
  161.0850  209.2770  150.9650 C   0  0  0  0  0  0  0  0  0  0  0  0
  159.5340  212.9550  149.2200 C   0  0  0  0  0  0  0  0  0  0  0  0
  161.5190  210.2170  153.1170 C   0  0  0  0  0  3  0  0  0  0  0  0
  161.6260  208.9360  152.3060 C   0  0  0  0  0  3  0  0  0  0  0  0
  160.0580  212.3050  152.6920 C   0  0  1  0  0  3  0  0  0  0  0  0
  160.9070  212.4630  148.9660 C   0  0  0  0  0  0  0  0  0  0  0  0
  160.5870  214.4500  151.7760 O   0  0  0  0  0  0  0  0  0  0  0  0
  159.0470  213.2110  150.5420 N   0  0  0  0  0  2  0  0  0  0  0  0
  162.8130  211.0470  149.4090 C   0  0  0  0  0  3  0  0  0  0  0  0
  161.3900  204.8560  151.0750 C   0  0  0  0  0  3  0  0  0  0  0  0
  161.3470  206.3970  148.7480 C   0  0  0  0  0  3  0  0  0  0  0  0
  161.6200  204.2540  149.8360 C   0  0  0  0  0  3  0  0  0  0  0  0
  161.1140  207.0110  149.9830 C   0  0  0  0  0  0  0  0  0  0  0  0
  161.1410  206.2280  151.1480 C   0  0  0  0  0  3  0  0  0  0  0  0
  161.6160  205.0230  148.6650 C   0  0  0  0  0  0  0  0  0  0  0  0
  160.6230  204.3490  146.6190 F   0  0  0  0  0  0  0  0  0  0  0  0
  161.8110  204.3650  147.3300 C   0  0  0  0  0  0  0  0  0  0  0  0
  162.7580  205.0520  146.5890 F   0  0  0  0  0  0  0  0  0  0  0  0
  162.2400  203.0650  147.5190 F   0  0  0  0  0  0  0  0  0  0  0  0
  157.4690  213.2450  154.0980 N   0  0  0  0  0  2  0  0  0  0  0  0
  157.4720  212.2530  155.1560 C   0  0  0  0  0  2  0  0  0  0  0  0
  158.6990  210.9960  154.7380 S   0  0  0  0  0  0  0  0  0  0  0  0
  158.7130  211.6180  153.0320 C   0  0  1  0  0  3  0  0  0  0  0  0
  157.5890  212.5410  152.8890 N   0  0  0  0  0  2  0  0  0  0  0  0
  1 18  1  0  0  0  0
  2 11  2  0  0  0  0
  3 10  2  0  0  0  0
  4 14  1  0  0  0  0
  4 12  1  1  0  0  0
  5 16  2  0  0  0  0
  6  8  1  6  0  0  0
  6 10  1  0  0  0  0
  6  4  1  0  0  0  0
  7 15  2  0  0  0  0
  9  7  1  0  0  0  0
  9  1  2  0  0  0  0
 10 13  1  0  0  0  0
 11 17  1  0  0  0  0
 13 12  2  0  0  0  0
 14  5  1  6  0  0  0
 14 32  1  0  0  0  0
 15 11  1  0  0  0  0
 15  8  1  0  0  0  0
 17  5  1  0  0  0  0
 18  8  2  0  0  0  0
 19 23  1  0  0  0  0
 20 22  1  0  0  0  0
 21 19  2  0  0  0  0
 22  3  1  0  0  0  0
 22 23  2  0  0  0  0
 24 20  2  0  0  0  0
 24 21  1  0  0  0  0
 25 26  1  0  0  0  0
 26 28  1  0  0  0  0
 26 24  1  0  0  0  0
 27 26  1  0  0  0  0
 29 30  1  0  0  0  0
 31 30  1  0  0  0  0
 32 33  1  1  0  0  0
 32 31  1  0  0  0  0
 33 29  1  0  0  0  0
M  END
>  <MODEL>
6

>  <REMARK>
 VINA RESULT:      -2.7      2.452      3.244
  Name = 
  3 active torsions:
  status: ('A' for Active; 'I' for Inactive)
    1  A    between atoms: N_5  and  C_18
    2  A    between atoms: C_16  and  C_32
    3  A    between atoms: C_24  and  C_27
                            x       y       z     vdW  Elec       q    Type
                         _______ _______ _______ _____ _____    ______ ____

>  <TORSDO>
F 3

$$$$
=
 OpenBabel11072412293D

 33 37  0  0  1  0  0  0  0  0999 V2000
  160.7160  206.9050  156.0600 C   0  0  0  0  0  3  0  0  0  0  0  0
  163.2430  211.0780  157.0130 N   0  0  0  0  0  2  0  0  0  0  0  0
  161.5890  209.0040  152.1880 N   0  0  0  0  0  0  0  0  0  0  0  0
  159.1330  210.6830  154.2680 C   0  0  2  0  0  3  0  0  0  0  0  0
  159.7970  211.9960  156.2290 C   0  0  0  0  0  0  0  0  0  0  0  0
  160.5410  210.1370  154.0690 C   0  0  1  0  0  3  0  0  0  0  0  0
  161.8480  208.5720  157.2600 N   0  0  0  0  0  0  0  0  0  0  0  0
  160.8570  209.1420  155.1610 C   0  0  0  0  0  0  0  0  0  0  0  0
  161.4370  207.3090  157.1340 N   0  0  0  0  0  0  0  0  0  0  0  0
  160.5240  209.5480  152.7050 C   0  0  0  0  0  0  0  0  0  0  0  0
  162.0480  210.9000  156.5560 C   0  0  0  0  0  0  0  0  0  0  0  0
  158.3750  210.5600  152.9480 C   0  0  0  0  0  3  0  0  0  0  0  0
  159.2190  209.7080  152.0150 C   0  0  0  0  0  3  0  0  0  0  0  0
  159.1230  212.0910  154.8900 C   0  0  1  0  0  3  0  0  0  0  0  0
  161.5650  209.5200  156.3240 C   0  0  0  0  0  0  0  0  0  0  0  0
  159.1100  211.7670  157.2590 O   0  0  0  0  0  0  0  0  0  0  0  0
  161.2240  212.0480  156.3210 N   0  0  0  0  0  2  0  0  0  0  0  0
  160.4120  207.8180  155.0570 C   0  0  0  0  0  3  0  0  0  0  0  0
  162.3390  208.5000  148.5330 C   0  0  0  0  0  3  0  0  0  0  0  0
  161.4370  207.0500  150.7410 C   0  0  0  0  0  3  0  0  0  0  0  0
  162.0260  207.1460  148.3970 C   0  0  0  0  0  3  0  0  0  0  0  0
  161.7490  208.4070  150.8900 C   0  0  0  0  0  0  0  0  0  0  0  0
  162.1990  209.1270  149.7720 C   0  0  0  0  0  3  0  0  0  0  0  0
  161.5560  206.4150  149.4970 C   0  0  0  0  0  0  0  0  0  0  0  0
  161.8340  204.4490  148.1980 F   0  0  0  0  0  0  0  0  0  0  0  0
  161.2710  204.9480  149.3610 C   0  0  0  0  0  0  0  0  0  0  0  0
  161.7950  204.2550  150.4390 F   0  0  0  0  0  0  0  0  0  0  0  0
  159.9030  204.7510  149.3180 F   0  0  0  0  0  0  0  0  0  0  0  0
  157.9810  214.4100  153.1920 N   0  0  0  0  0  2  0  0  0  0  0  0
  158.5290  213.9830  151.9190 C   0  0  0  0  0  2  0  0  0  0  0  0
  159.7370  212.6810  152.2400 S   0  0  0  0  0  0  0  0  0  0  0  0
  159.7630  213.1750  153.9880 C   0  0  1  0  0  3  0  0  0  0  0  0
  159.0540  214.4480  154.0960 N   0  0  0  0  0  2  0  0  0  0  0  0
  1  9  1  0  0  0  0
  3 10  2  0  0  0  0
  4 12  1  6  0  0  0
  4 14  1  0  0  0  0
  5 17  1  0  0  0  0
  5 16  2  0  0  0  0
  6 10  1  6  0  0  0
  6  4  1  0  0  0  0
  6  8  1  0  0  0  0
  8 15  2  0  0  0  0
  9  7  2  0  0  0  0
 11  2  2  0  0  0  0
 13 10  1  0  0  0  0
 13 12  2  0  0  0  0
 14  5  1  1  0  0  0
 15 11  1  0  0  0  0
 15  7  1  0  0  0  0
 17 11  1  0  0  0  0
 18  8  1  0  0  0  0
 18  1  2  0  0  0  0
 19 23  1  0  0  0  0
 20 22  1  0  0  0  0
 21 19  2  0  0  0  0
 21 24  1  0  0  0  0
 22  3  1  0  0  0  0
 23 22  2  0  0  0  0
 24 20  2  0  0  0  0
 25 26  1  0  0  0  0
 26 24  1  0  0  0  0
 26 27  1  0  0  0  0
 28 26  1  0  0  0  0
 29 33  1  0  0  0  0
 30 31  1  0  0  0  0
 30 29  1  0  0  0  0
 32 31  1  6  0  0  0
 32 33  1  0  0  0  0
 32 14  1  0  0  0  0
M  END
>  <MODEL>
7

>  <REMARK>
 VINA RESULT:      -2.1      2.696      5.161
  Name = 
  3 active torsions:
  status: ('A' for Active; 'I' for Inactive)
    1  A    between atoms: N_5  and  C_18
    2  A    between atoms: C_16  and  C_32
    3  A    between atoms: C_24  and  C_27
                            x       y       z     vdW  Elec       q    Type
                         _______ _______ _______ _____ _____    ______ ____

>  <TORSDO>
F 3

$$$$
