=
 OpenBabel11072415003D

 39 43  0  0  1  0  0  0  0  0999 V2000
  158.5930  213.3120  153.6230 C   0  0  0  0  0  0  0  0  0  0  0  0
  161.4120  213.4710  148.5290 N   0  0  0  0  0  2  0  0  0  0  0  0
  161.0010  210.2380  151.5110 C   0  0  0  0  0  0  0  0  0  0  0  0
  159.4980  214.4530  149.4550 N   0  0  0  0  0  2  0  0  0  0  0  0
  159.0510  212.3940  151.4710 C   0  0  2  0  0  0  0  0  0  0  0  0
  160.3810  213.5100  149.5190 C   0  0  0  0  0  0  0  0  0  0  0  0
  161.1490  211.3690  150.5310 C   0  0  0  0  0  0  0  0  0  0  0  0
  159.2190  211.4330  152.5610 N   0  0  0  0  0  0  0  0  0  0  0  0
  157.8180  211.9830  150.6700 C   0  0  0  0  0  1  0  0  0  0  0  0
  160.0930  210.3110  152.4930 C   0  0  0  0  0  0  0  0  0  0  0  0
  162.0370  208.3830  152.7220 O   0  0  0  0  0  0  0  0  0  0  0  0
  163.2790  212.3950  147.6580 O   0  0  0  0  0  0  0  0  0  0  0  0
  160.2630  212.4130  150.5390 C   0  0  0  0  0  0  0  0  0  0  0  0
  162.3670  212.4190  148.5300 C   0  0  0  0  0  0  0  0  0  0  0  0
  161.8750  209.0000  151.4350 C   0  0  1  0  0  3  0  0  0  0  0  0
  158.8350  213.7480  152.2170 C   0  0  1  0  0  3  0  0  0  0  0  0
  161.0480  208.4550  153.6820 N   0  0  0  0  0  0  0  0  0  0  0  0
  162.2880  211.3760  149.5570 C   0  0  0  0  0  0  0  0  0  0  0  0
  158.8590  211.9730  153.7630 O   0  0  0  0  0  0  0  0  0  0  0  0
  160.0970  209.3340  153.5940 C   0  0  0  0  0  3  0  0  0  0  0  0
  163.2060  210.5160  149.6170 O   0  0  0  0  0  0  0  0  0  0  0  0
  158.2360  214.1020  154.6280 C   0  0  0  0  0  3  0  0  0  0  0  0
  157.7270  214.4530  151.7440 O   0  0  0  0  0  1  0  0  0  0  0  0
  162.3060  207.8850  149.2220 C   0  0  0  0  0  2  0  0  0  0  0  0
  161.3380  208.0070  150.3960 C   0  0  1  0  0  3  0  0  0  0  0  0
  160.9430  204.7900  147.7410 O   0  0  0  0  0  1  0  0  0  0  0  0
  161.6950  207.0220  148.1090 C   0  0  0  0  0  2  0  0  0  0  0  0
  160.8130  205.8670  148.6160 C   0  0  2  0  0  3  0  0  0  0  0  0
  160.9790  206.6340  151.0070 C   0  0  0  0  0  2  0  0  0  0  0  0
  161.2110  205.4630  150.0420 C   0  0  1  0  0  3  0  0  0  0  0  0
  161.3320  203.4120  151.2900 O   0  0  0  0  0  1  0  0  0  0  0  0
  160.4660  204.2380  150.5610 C   0  0  0  0  0  2  0  0  0  0  0  0
  155.9990  212.3170  155.0240 O   0  0  0  0  0  0  0  0  0  0  0  0
  156.7870  212.7070  156.1080 C   0  0  0  0  0  0  0  0  0  0  0  0
  156.4910  212.2950  157.2610 O   0  0  0  0  0  1  0  0  0  0  0  0
  157.8970  213.5950  155.9270 N   0  0  0  0  0  0  0  0  0  0  0  0
  158.5220  214.2010  157.0880 C   0  0  0  0  0  2  0  0  0  0  0  0
  159.9380  213.7600  157.2110 C   0  0  0  0  0  3  0  0  0  0  0  0
  160.2910  212.6860  156.7720 O   0  0  0  0  0  0  0  0  0  0  0  0
  1 19  1  0  0  0  0
  1 22  2  0  0  0  0
  2 14  1  0  0  0  0
  2  6  1  0  0  0  0
  3 10  2  0  0  0  0
  4  6  2  0  0  0  0
  5  9  1  6  0  0  0
  5 16  1  0  0  0  0
  5  8  1  0  0  0  0
  6 13  1  0  0  0  0
  7 13  2  0  0  0  0
  7  3  1  0  0  0  0
  8 19  1  0  0  0  0
 10  8  1  0  0  0  0
 10 20  1  0  0  0  0
 11 17  1  0  0  0  0
 12 14  2  0  0  0  0
 13  5  1  0  0  0  0
 14 18  1  0  0  0  0
 15  3  1  1  0  0  0
 15 11  1  0  0  0  0
 16 23  1  6  0  0  0
 16  1  1  0  0  0  0
 18 21  2  0  0  0  0
 18  7  1  0  0  0  0
 20 17  2  0  0  0  0
 22 36  1  0  0  0  0
 25 24  1  6  0  0  0
 25 29  1  0  0  0  0
 25 15  1  0  0  0  0
 27 28  1  0  0  0  0
 27 24  1  0  0  0  0
 28 26  1  6  0  0  0
 28 30  1  0  0  0  0
 30 32  1  1  0  0  0
 30 29  1  0  0  0  0
 32 31  1  0  0  0  0
 33 34  2  0  0  0  0
 34 35  1  0  0  0  0
 36 34  1  0  0  0  0
 36 37  1  0  0  0  0
 37 38  1  0  0  0  0
 39 38  2  0  0  0  0
M  END
>  <MODEL>
1

>  <REMARK>
 VINA RESULT:      -3.5      0.000      0.000
  Name = 
  5 active torsions:
  status: ('A' for Active; 'I' for Inactive)
    1  A    between atoms: C_8  and  C_25
    2  A    between atoms: C_17  and  C_18
    3  A    between atoms: C_17  and  N_39
    4  A    between atoms: C_19  and  C_37
    5  A    between atoms: C_34  and  N_39
                            x       y       z     vdW  Elec       q    Type
                         _______ _______ _______ _____ _____    ______ ____

>  <TORSDO>
F 5

$$$$
=
 OpenBabel11072415003D

 39 43  0  0  1  0  0  0  0  0999 V2000
  161.2200  207.0080  149.7970 C   0  0  0  0  0  0  0  0  0  0  0  0
  160.1950  212.6680  150.7090 N   0  0  0  0  0  2  0  0  0  0  0  0
  160.3640  209.2660  153.5210 C   0  0  0  0  0  0  0  0  0  0  0  0
  161.4440  211.3780  149.2050 N   0  0  0  0  0  2  0  0  0  0  0  0
  161.6850  209.0470  150.9410 C   0  0  2  0  0  0  0  0  0  0  0  0
  160.8240  211.4380  150.3380 C   0  0  0  0  0  0  0  0  0  0  0  0
  160.2810  210.3980  152.5340 C   0  0  0  0  0  0  0  0  0  0  0  0
  161.4040  207.9270  151.8390 N   0  0  0  0  0  0  0  0  0  0  0  0
  163.1670  209.3900  151.0700 C   0  0  0  0  0  1  0  0  0  0  0  0
  160.8740  208.0840  153.1510 C   0  0  0  0  0  0  0  0  0  0  0  0
  159.4470  208.1560  155.4980 O   0  0  0  0  0  0  0  0  0  0  0  0
  158.9930  213.8800  152.2860 O   0  0  0  0  0  0  0  0  0  0  0  0
  160.8580  210.2830  151.2980 C   0  0  0  0  0  0  0  0  0  0  0  0
  159.5530  212.7940  151.9690 C   0  0  0  0  0  0  0  0  0  0  0  0
  159.8630  209.4150  154.9450 C   0  0  1  0  0  3  0  0  0  0  0  0
  161.3420  208.4710  149.5310 C   0  0  1  0  0  3  0  0  0  0  0  0
  160.0390  206.9710  155.1090 N   0  0  0  0  0  0  0  0  0  0  0  0
  159.5380  211.6500  152.8870 C   0  0  0  0  0  0  0  0  0  0  0  0
  161.2340  206.7620  151.1460 O   0  0  0  0  0  0  0  0  0  0  0  0
  160.7440  206.9050  154.0210 C   0  0  0  0  0  3  0  0  0  0  0  0
  158.8670  211.7370  153.9490 O   0  0  0  0  0  0  0  0  0  0  0  0
  161.0530  206.0660  148.8760 C   0  0  0  0  0  3  0  0  0  0  0  0
  162.3530  208.6990  148.5950 O   0  0  0  0  0  1  0  0  0  0  0  0
  162.2750  210.1020  155.1450 C   0  0  0  0  0  2  0  0  0  0  0  0
  160.9110  210.1020  155.8310 C   0  0  1  0  0  3  0  0  0  0  0  0
  163.9240  212.6390  157.2610 O   0  0  0  0  0  1  0  0  0  0  0  0
  163.3550  210.6380  156.0950 C   0  0  0  0  0  2  0  0  0  0  0  0
  162.8700  211.7540  157.0380 C   0  0  2  0  0  3  0  0  0  0  0  0
  160.4800  211.5150  156.2840 C   0  0  0  0  0  2  0  0  0  0  0  0
  161.6600  212.4860  156.4410 C   0  0  1  0  0  3  0  0  0  0  0  0
  160.0920  214.2930  156.6650 O   0  0  0  0  0  1  0  0  0  0  0  0
  161.2060  213.6880  157.2600 C   0  0  0  0  0  2  0  0  0  0  0  0
  161.9860  204.0940  146.9820 O   0  0  0  0  0  0  0  0  0  0  0  0
  161.5380  203.7000  148.2430 C   0  0  0  0  0  0  0  0  0  0  0  0
  161.5190  202.4730  148.5310 O   0  0  0  0  0  1  0  0  0  0  0  0
  161.0700  204.6670  149.1920 N   0  0  0  0  0  0  0  0  0  0  0  0
  160.3580  204.2180  150.3740 C   0  0  0  0  0  2  0  0  0  0  0  0
  161.3160  203.7890  151.4300 C   0  0  0  0  0  3  0  0  0  0  0  0
  160.9480  203.0900  152.3500 O   0  0  0  0  0  0  0  0  0  0  0  0
  1 19  1  0  0  0  0
  2 14  1  0  0  0  0
  4  6  2  0  0  0  0
  5  9  1  1  0  0  0
  5 13  1  0  0  0  0
  5  8  1  0  0  0  0
  6  2  1  0  0  0  0
  6 13  1  0  0  0  0
  7 18  1  0  0  0  0
  7  3  1  0  0  0  0
  8 10  1  0  0  0  0
 10  3  2  0  0  0  0
 10 20  1  0  0  0  0
 13  7  2  0  0  0  0
 14 12  2  0  0  0  0
 14 18  1  0  0  0  0
 15  3  1  6  0  0  0
 15 11  1  0  0  0  0
 15 25  1  0  0  0  0
 16 23  1  6  0  0  0
 16  1  1  0  0  0  0
 16  5  1  0  0  0  0
 17 11  1  0  0  0  0
 18 21  2  0  0  0  0
 19  8  1  0  0  0  0
 20 17  2  0  0  0  0
 22 36  1  0  0  0  0
 22  1  2  0  0  0  0
 24 27  1  0  0  0  0
 25 24  1  6  0  0  0
 25 29  1  0  0  0  0
 27 28  1  0  0  0  0
 28 26  1  6  0  0  0
 29 30  1  0  0  0  0
 30 28  1  0  0  0  0
 30 32  1  1  0  0  0
 31 32  1  0  0  0  0
 33 34  2  0  0  0  0
 34 35  1  0  0  0  0
 34 36  1  0  0  0  0
 36 37  1  0  0  0  0
 37 38  1  0  0  0  0
 38 39  2  0  0  0  0
M  END
>  <MODEL>
2

>  <REMARK>
 VINA RESULT:      -2.4      2.214      8.017
  Name = 
  5 active torsions:
  status: ('A' for Active; 'I' for Inactive)
    1  A    between atoms: C_8  and  C_25
    2  A    between atoms: C_17  and  C_18
    3  A    between atoms: C_17  and  N_39
    4  A    between atoms: C_19  and  C_37
    5  A    between atoms: C_34  and  N_39
                            x       y       z     vdW  Elec       q    Type
                         _______ _______ _______ _____ _____    ______ ____

>  <TORSDO>
F 5

$$$$
=
 OpenBabel11072415003D

 39 43  0  0  1  0  0  0  0  0999 V2000
  161.4810  204.3280  148.4650 C   0  0  0  0  0  0  0  0  0  0  0  0
  161.2060  205.4530  154.1730 N   0  0  0  0  0  2  0  0  0  0  0  0
  161.4590  208.1660  150.6960 C   0  0  0  0  0  0  0  0  0  0  0  0
  160.4150  203.7980  152.7180 N   0  0  0  0  0  2  0  0  0  0  0  0
  160.4860  205.4520  150.3170 C   0  0  2  0  0  0  0  0  0  0  0  0
  160.8880  204.9930  152.8570 C   0  0  0  0  0  0  0  0  0  0  0  0
  161.4060  207.2150  151.8610 C   0  0  0  0  0  0  0  0  0  0  0  0
  160.8990  206.3550  149.2430 N   0  0  0  0  0  0  0  0  0  0  0  0
  158.9600  205.4250  150.3440 C   0  0  0  0  0  1  0  0  0  0  0  0
  161.2470  207.7200  149.4510 C   0  0  0  0  0  0  0  0  0  0  0  0
  162.3780  210.2100  149.7170 O   0  0  0  0  0  0  0  0  0  0  0  0
  161.9600  207.1750  155.5400 O   0  0  0  0  0  0  0  0  0  0  0  0
  160.9960  205.9210  151.6800 C   0  0  0  0  0  0  0  0  0  0  0  0
  161.6740  206.7780  154.3760 C   0  0  0  0  0  0  0  0  0  0  0  0
  161.7680  209.6390  150.8860 C   0  0  1  0  0  3  0  0  0  0  0  0
  161.0850  204.0780  149.8820 C   0  0  1  0  0  3  0  0  0  0  0  0
  162.0880  209.7360  148.4530 N   0  0  0  0  0  0  0  0  0  0  0  0
  161.8320  207.6700  153.2230 C   0  0  0  0  0  0  0  0  0  0  0  0
  161.3780  205.6630  148.1670 O   0  0  0  0  0  0  0  0  0  0  0  0
  161.5290  208.5760  148.2880 C   0  0  0  0  0  3  0  0  0  0  0  0
  162.3560  208.8010  153.4020 O   0  0  0  0  0  0  0  0  0  0  0  0
  161.9330  203.4140  147.6160 C   0  0  0  0  0  3  0  0  0  0  0  0
  160.1500  203.0420  149.9360 O   0  0  0  0  0  1  0  0  0  0  0  0
  160.3800  210.4340  152.8270 C   0  0  0  0  0  2  0  0  0  0  0  0
  160.5150  210.4170  151.3060 C   0  0  1  0  0  3  0  0  0  0  0  0
  157.8980  213.1520  153.1030 O   0  0  0  0  0  1  0  0  0  0  0  0
  159.0450  211.0670  153.2420 C   0  0  0  0  0  2  0  0  0  0  0  0
  158.5780  212.2140  152.3280 C   0  0  2  0  0  3  0  0  0  0  0  0
  160.4560  211.8360  150.6960 C   0  0  0  0  0  2  0  0  0  0  0  0
  159.7710  212.8610  151.6110 C   0  0  1  0  0  3  0  0  0  0  0  0
  158.5330  213.7340  149.7460 O   0  0  0  0  0  1  0  0  0  0  0  0
  159.3990  214.0880  150.7890 C   0  0  0  0  0  2  0  0  0  0  0  0
  164.1400  205.0780  146.7740 O   0  0  0  0  0  1  0  0  0  0  0  0
  163.2770  204.5240  145.8280 C   0  0  0  0  0  0  0  0  0  0  0  0
  163.4560  204.7850  144.6080 O   0  0  0  0  0  0  0  0  0  0  0  0
  162.1760  203.6990  146.2310 N   0  0  0  0  0  0  0  0  0  0  0  0
  161.1430  203.3690  145.2680 C   0  0  0  0  0  2  0  0  0  0  0  0
  160.5090  202.0650  145.6060 C   0  0  0  0  0  3  0  0  0  0  0  0
  159.7290  201.5410  144.8410 O   0  0  0  0  0  0  0  0  0  0  0  0
  1 16  1  0  0  0  0
  2 14  1  0  0  0  0
  3 15  1  0  0  0  0
  3  7  1  0  0  0  0
  4  6  2  0  0  0  0
  5  9  1  1  0  0  0
  5 13  1  0  0  0  0
  6  2  1  0  0  0  0
  7 18  1  0  0  0  0
  8 10  1  0  0  0  0
  8  5  1  0  0  0  0
 10  3  2  0  0  0  0
 13  7  2  0  0  0  0
 13  6  1  0  0  0  0
 14 12  2  0  0  0  0
 15 11  1  6  0  0  0
 15 25  1  0  0  0  0
 16 23  1  6  0  0  0
 16  5  1  0  0  0  0
 17 11  1  0  0  0  0
 18 21  2  0  0  0  0
 18 14  1  0  0  0  0
 19  1  1  0  0  0  0
 19  8  1  0  0  0  0
 20 17  2  0  0  0  0
 20 10  1  0  0  0  0
 22  1  2  0  0  0  0
 24 27  1  0  0  0  0
 25 29  1  1  0  0  0
 25 24  1  0  0  0  0
 28 26  1  1  0  0  0
 28 27  1  0  0  0  0
 29 30  1  0  0  0  0
 30 32  1  6  0  0  0
 30 28  1  0  0  0  0
 31 32  1  0  0  0  0
 34 36  1  0  0  0  0
 34 33  1  0  0  0  0
 35 34  2  0  0  0  0
 36 22  1  0  0  0  0
 37 38  1  0  0  0  0
 37 36  1  0  0  0  0
 39 38  2  0  0  0  0
M  END
>  <MODEL>
3

>  <REMARK>
 VINA RESULT:      -0.9      2.970      9.668
  Name = 
  5 active torsions:
  status: ('A' for Active; 'I' for Inactive)
    1  A    between atoms: C_8  and  C_25
    2  A    between atoms: C_17  and  C_18
    3  A    between atoms: C_17  and  N_39
    4  A    between atoms: C_19  and  C_37
    5  A    between atoms: C_34  and  N_39
                            x       y       z     vdW  Elec       q    Type
                         _______ _______ _______ _____ _____    ______ ____

>  <TORSDO>
F 5

$$$$
