=
 OpenBabel11072413523D

 46 49  0  0  1  0  0  0  0  0999 V2000
  160.7790  212.0890  148.5810 C   0  0  1  0  0  3  0  0  0  0  0  0
  162.2060  209.9590  148.9330 C   0  0  0  0  0  2  0  0  0  0  0  0
  161.4850  211.3290  150.8760 C   0  0  1  0  0  0  0  0  0  0  0  0
  162.5190  209.8870  152.8040 C   0  0  0  0  0  1  0  0  0  0  0  0
  162.6980  210.5620  151.4530 C   0  0  1  0  0  3  0  0  0  0  0  0
  160.7460  213.2480  147.8040 O   0  0  0  0  0  1  0  0  0  0  0  0
  162.1330  211.4090  148.5030 C   0  0  2  0  0  0  0  0  0  0  0  0
  161.8060  212.2690  149.7040 C   0  0  1  0  0  3  0  0  0  0  0  0
  161.8040  209.9040  150.3990 C   0  0  2  0  0  0  0  0  0  0  0  0
  163.8890  212.9080  148.0250 O   0  0  0  0  0  0  0  0  0  0  0  0
  163.2040  211.9800  147.6270 C   0  0  0  0  0  3  0  0  0  0  0  0
  160.0880  211.4870  151.5710 C   0  0  2  0  0  3  0  0  0  0  0  0
  159.8230  212.9330  152.0170 C   0  0  0  0  0  2  0  0  0  0  0  0
  158.5660  213.5160  151.4010 C   0  0  2  0  0  3  0  0  0  0  0  0
  158.1690  214.2490  153.7520 O   0  0  0  0  0  1  0  0  0  0  0  0
  156.4020  214.0680  152.2960 O   0  0  0  0  0  0  0  0  0  0  0  0
  157.6410  213.9620  152.4960 C   0  0  0  0  0  0  0  0  0  0  0  0
  157.9440  212.5550  150.5870 O   0  0  0  0  0  0  0  0  0  0  0  0
  157.0920  213.2530  149.7900 N   0  0  0  0  0  2  0  0  0  0  0  0
  157.8790  214.1910  149.0030 C   0  0  0  0  0  1  0  0  0  0  0  0
  159.7500  210.5150  152.7060 C   0  0  0  0  0  2  0  0  0  0  0  0
  159.2900  211.2250  153.8960 N   0  0  0  0  0  2  0  0  0  0  0  0
  160.0980  210.7610  155.0140 C   0  0  1  0  0  3  0  0  0  0  0  0
  160.5110  211.8440  155.7920 O   0  0  0  0  0  1  0  0  0  0  0  0
  159.2880  209.7990  155.8660 C   0  0  0  0  0  2  0  0  0  0  0  0
  160.1920  208.7760  156.5180 C   0  0  0  0  0  2  0  0  0  0  0  0
  160.4340  207.6720  155.5860 C   0  0  0  0  0  0  0  0  0  0  0  0
  160.6150  206.7940  154.8560 N   0  0  0  0  0  0  0  0  0  0  0  0
  160.8290  208.9590  150.7880 O   0  0  0  0  0  0  0  0  0  0  0  0
  161.6650  205.9620  148.7320 C   0  0  1  0  0  3  0  0  0  0  0  0
  161.2890  205.2640  151.2390 C   0  0  2  0  0  3  0  0  0  0  0  0
  160.9520  207.2610  149.0840 C   0  0  0  0  0  2  0  0  0  0  0  0
  160.7220  206.6720  151.4650 C   0  0  0  0  0  2  0  0  0  0  0  0
  161.3310  207.6800  150.4990 C   0  0  2  0  0  3  0  0  0  0  0  0
  161.4460  203.7120  149.4610 O   0  0  0  0  0  0  0  0  0  0  0  0
  161.3910  204.8880  149.7720 C   0  0  0  0  0  0  0  0  0  0  0  0
  160.6040  206.3730  146.4590 S   0  0  0  0  0  0  0  0  0  0  0  0
  161.3940  205.5290  147.3120 C   0  0  0  0  0  0  0  0  0  0  0  0
  161.8970  204.2200  146.7750 C   0  0  0  0  0  2  0  0  0  0  0  0
  161.3390  203.8780  144.4680 O   0  0  0  0  0  1  0  0  0  0  0  0
  160.9080  203.6390  145.7760 C   0  0  1  0  0  3  0  0  0  0  0  0
  160.7250  202.1740  146.0110 C   0  0  0  0  0  0  0  0  0  0  0  0
  160.0380  201.3410  144.9840 C   0  0  0  0  0  1  0  0  0  0  0  0
  161.0960  201.6630  147.0500 O   0  0  0  0  0  0  0  0  0  0  0  0
  161.0680  203.3970  152.6860 O   0  0  0  0  0  0  0  0  0  0  0  0
  160.5070  204.2650  152.0360 C   0  0  0  0  0  3  0  0  0  0  0  0
  1  6  1  6  0  0  0
  1  8  1  0  0  0  0
  2  9  1  0  0  0  0
  3  5  1  0  0  0  0
  3 12  1  1  0  0  0
  5  4  1  1  0  0  0
  7 11  1  6  0  0  0
  7  1  1  0  0  0  0
  7  2  1  0  0  0  0
  7  8  1  0  0  0  0
  8  3  1  0  0  0  0
  9 29  1  0  0  0  0
  9  3  1  0  0  0  0
  9  5  1  0  0  0  0
 11 10  2  0  0  0  0
 12 13  1  0  0  0  0
 12 21  1  0  0  0  0
 14 13  1  0  0  0  0
 14 17  1  0  0  0  0
 16 17  2  0  0  0  0
 17 15  1  0  0  0  0
 18 14  1  0  0  0  0
 19 18  1  0  0  0  0
 20 19  1  0  0  0  0
 21 22  1  0  0  0  0
 22 23  1  0  0  0  0
 23 24  1  0  0  0  0
 23 25  1  0  0  0  0
 25 26  1  0  0  0  0
 27 26  1  0  0  0  0
 28 27  3  0  0  0  0
 30 32  1  0  0  0  0
 30 36  1  0  0  0  0
 31 33  1  0  0  0  0
 31 46  1  0  0  0  0
 32 34  1  0  0  0  0
 34 29  1  0  0  0  0
 34 33  1  0  0  0  0
 35 36  2  0  0  0  0
 36 31  1  0  0  0  0
 37 38  2  0  0  0  0
 38 30  1  0  0  0  0
 39 38  1  0  0  0  0
 40 41  1  0  0  0  0
 41 42  1  0  0  0  0
 41 39  1  0  0  0  0
 42 44  2  0  0  0  0
 43 42  1  0  0  0  0
 46 45  2  0  0  0  0
M  END
>  <MODEL>
1

>  <REMARK>
 VINA RESULT:      -4.5      0.000      0.000
  Name = 
  20 active torsions:
  status: ('A' for Active; 'I' for Inactive)
    1  A    between atoms: C_2  and  C_16
    2  A    between atoms: C_2  and  N_22
    3  A    between atoms: C_3  and  C_30
    4  A    between atoms: C_4  and  C_7
    5  A    between atoms: C_4  and  C_11
    6  A    between atoms: C_5  and  C_21
    7  A    between atoms: C_7  and  N_22
    8  A    between atoms: C_9  and  O_23
    9  A    between atoms: C_9  and  C_25
   10  A    between atoms: C_9  and  C_27
   11  A    between atoms: C_10  and  C_35
   12  A    between atoms: C_11  and  C_26
   13  A    between atoms: N_15  and  O_23
   14  A    between atoms: C_16  and  C_27
   15  A    between atoms: C_16  and  C_32
   16  A    between atoms: C_18  and  C_39
   17  A    between atoms: C_19  and  C_21
   18  A    between atoms: C_19  and  C_30
   19  A    between atoms: O_20  and  C_42
   20  A    between atoms: O_20  and  C_46
                            x       y       z     vdW  Elec       q    Type
                         _______ _______ _______ _____ _____    ______ ____

>  <TORSDO>
F 20

$$$$
=
 OpenBabel11072413523D

 46 49  0  0  1  0  0  0  0  0999 V2000
  163.0480  204.6040  146.1410 C   0  0  1  0  0  3  0  0  0  0  0  0
  162.2160  207.0250  146.5210 C   0  0  0  0  0  2  0  0  0  0  0  0
  161.2170  205.1350  147.7860 C   0  0  1  0  0  0  0  0  0  0  0  0
  159.5210  206.4780  149.2640 C   0  0  0  0  0  1  0  0  0  0  0  0
  160.1120  206.2120  147.8880 C   0  0  1  0  0  3  0  0  0  0  0  0
  163.3270  203.7100  145.1060 O   0  0  0  0  0  1  0  0  0  0  0  0
  162.2410  205.7890  145.6460 C   0  0  2  0  0  0  0  0  0  0  0  0
  161.5330  204.6590  146.3610 C   0  0  1  0  0  3  0  0  0  0  0  0
  161.5860  206.6250  147.8470 C   0  0  2  0  0  0  0  0  0  0  0  0
  160.9850  205.2250  143.7320 O   0  0  0  0  0  0  0  0  0  0  0  0
  161.8910  205.8980  144.1950 C   0  0  0  0  0  3  0  0  0  0  0  0
  161.7710  204.2770  148.9770 C   0  0  2  0  0  3  0  0  0  0  0  0
  162.0180  202.8150  148.5720 C   0  0  0  0  0  2  0  0  0  0  0  0
  160.7390  202.0780  148.2230 C   0  0  2  0  0  3  0  0  0  0  0  0
  158.8920  201.1040  149.5870 O   0  0  0  0  0  0  0  0  0  0  0  0
  161.0660  200.9170  150.3040 O   0  0  0  0  0  1  0  0  0  0  0  0
  160.2570  201.3300  149.4310 C   0  0  0  0  0  0  0  0  0  0  0  0
  160.9730  201.1980  147.1530 O   0  0  0  0  0  0  0  0  0  0  0  0
  160.7010  201.9150  146.0300 N   0  0  0  0  0  2  0  0  0  0  0  0
  160.1060  201.0130  145.0550 C   0  0  0  0  0  1  0  0  0  0  0  0
  161.0070  204.3340  150.3040 C   0  0  0  0  0  2  0  0  0  0  0  0
  161.8400  204.8730  151.3750 N   0  0  0  0  0  2  0  0  0  0  0  0
  160.9830  205.0560  152.5360 C   0  0  1  0  0  3  0  0  0  0  0  0
  160.7170  203.8230  153.1380 O   0  0  0  0  0  1  0  0  0  0  0  0
  161.6640  205.9760  153.5360 C   0  0  0  0  0  2  0  0  0  0  0  0
  160.7320  207.0910  153.9510 C   0  0  0  0  0  2  0  0  0  0  0  0
  160.4850  207.0120  155.3940 C   0  0  0  0  0  0  0  0  0  0  0  0
  160.3010  206.9400  156.5320 N   0  0  0  0  0  0  0  0  0  0  0  0
  162.2550  206.9820  149.0380 O   0  0  0  0  0  0  0  0  0  0  0  0
  161.5470  210.6430  149.0080 C   0  0  1  0  0  3  0  0  0  0  0  0
  161.5390  209.7390  151.4770 C   0  0  2  0  0  3  0  0  0  0  0  0
  162.2750  209.3560  148.6390 C   0  0  0  0  0  2  0  0  0  0  0  0
  162.1450  208.4430  150.9230 C   0  0  0  0  0  2  0  0  0  0  0  0
  161.7290  208.2070  149.4760 C   0  0  2  0  0  3  0  0  0  0  0  0
  161.5420  212.0400  150.9290 O   0  0  0  0  0  0  0  0  0  0  0  0
  161.6170  210.9010  150.5040 C   0  0  0  0  0  0  0  0  0  0  0  0
  163.3850  211.9980  147.8910 S   0  0  0  0  0  0  0  0  0  0  0  0
  161.9860  211.8110  148.1590 C   0  0  0  0  0  0  0  0  0  0  0  0
  161.0030  212.8070  147.6150 C   0  0  0  0  0  2  0  0  0  0  0  0
  158.7070  212.4670  147.0130 O   0  0  0  0  0  1  0  0  0  0  0  0
  160.0190  212.1250  146.6760 C   0  0  1  0  0  3  0  0  0  0  0  0
  160.3100  212.4900  145.2560 C   0  0  0  0  0  0  0  0  0  0  0  0
  161.4250  213.4290  144.9480 C   0  0  0  0  0  1  0  0  0  0  0  0
  159.6190  212.0570  144.3530 O   0  0  0  0  0  0  0  0  0  0  0  0
  161.4810  210.5390  153.7090 O   0  0  0  0  0  0  0  0  0  0  0  0
  162.1480  210.0590  152.8070 C   0  0  0  0  0  3  0  0  0  0  0  0
  1  6  1  6  0  0  0
  1  8  1  0  0  0  0
  2  9  1  0  0  0  0
  3  9  1  0  0  0  0
  3  5  1  0  0  0  0
  3 12  1  1  0  0  0
  5  4  1  1  0  0  0
  7 11  1  6  0  0  0
  7  1  1  0  0  0  0
  7  8  1  0  0  0  0
  7  2  1  0  0  0  0
  8  3  1  0  0  0  0
  9  5  1  0  0  0  0
  9 29  1  0  0  0  0
 10 11  2  0  0  0  0
 12 21  1  0  0  0  0
 13 12  1  0  0  0  0
 14 13  1  0  0  0  0
 14 17  1  0  0  0  0
 17 15  2  0  0  0  0
 17 16  1  0  0  0  0
 18 14  1  0  0  0  0
 19 18  1  0  0  0  0
 20 19  1  0  0  0  0
 21 22  1  0  0  0  0
 22 23  1  0  0  0  0
 23 24  1  0  0  0  0
 23 25  1  0  0  0  0
 25 26  1  0  0  0  0
 26 27  1  0  0  0  0
 27 28  3  0  0  0  0
 29 34  1  0  0  0  0
 30 36  1  0  0  0  0
 31 46  1  0  0  0  0
 32 30  1  0  0  0  0
 32 34  1  0  0  0  0
 33 31  1  0  0  0  0
 34 33  1  0  0  0  0
 36 35  2  0  0  0  0
 36 31  1  0  0  0  0
 37 38  2  0  0  0  0
 38 30  1  0  0  0  0
 39 38  1  0  0  0  0
 41 40  1  0  0  0  0
 41 39  1  0  0  0  0
 42 41  1  0  0  0  0
 43 42  1  0  0  0  0
 44 42  2  0  0  0  0
 46 45  2  0  0  0  0
M  END
>  <MODEL>
2

>  <REMARK>
 VINA RESULT:      -4.5      2.999      8.289
  Name = 
  20 active torsions:
  status: ('A' for Active; 'I' for Inactive)
    1  A    between atoms: C_2  and  C_16
    2  A    between atoms: C_2  and  N_22
    3  A    between atoms: C_3  and  C_30
    4  A    between atoms: C_4  and  C_7
    5  A    between atoms: C_4  and  C_11
    6  A    between atoms: C_5  and  C_21
    7  A    between atoms: C_7  and  N_22
    8  A    between atoms: C_9  and  O_23
    9  A    between atoms: C_9  and  C_25
   10  A    between atoms: C_9  and  C_27
   11  A    between atoms: C_10  and  C_35
   12  A    between atoms: C_11  and  C_26
   13  A    between atoms: N_15  and  O_23
   14  A    between atoms: C_16  and  C_27
   15  A    between atoms: C_16  and  C_32
   16  A    between atoms: C_18  and  C_39
   17  A    between atoms: C_19  and  C_21
   18  A    between atoms: C_19  and  C_30
   19  A    between atoms: O_20  and  C_42
   20  A    between atoms: O_20  and  C_46
                            x       y       z     vdW  Elec       q    Type
                         _______ _______ _______ _____ _____    ______ ____

>  <TORSDO>
F 20

$$$$
=
 OpenBabel11072413523D

 46 49  0  0  1  0  0  0  0  0999 V2000
  162.9920  204.6000  146.3970 C   0  0  1  0  0  3  0  0  0  0  0  0
  162.3760  207.0260  147.0560 C   0  0  0  0  0  2  0  0  0  0  0  0
  161.2670  205.0980  148.1640 C   0  0  1  0  0  0  0  0  0  0  0  0
  159.7390  206.4080  149.8410 C   0  0  0  0  0  1  0  0  0  0  0  0
  160.2600  206.2420  148.4210 C   0  0  1  0  0  3  0  0  0  0  0  0
  163.1610  203.7990  145.2660 O   0  0  0  0  0  1  0  0  0  0  0  0
  162.2690  205.8900  146.0590 C   0  0  2  0  0  0  0  0  0  0  0  0
  161.4950  204.7500  146.6850 C   0  0  1  0  0  3  0  0  0  0  0  0
  161.7600  206.5400  148.3600 C   0  0  2  0  0  0  0  0  0  0  0  0
  160.8090  205.7850  144.2120 O   0  0  0  0  0  0  0  0  0  0  0  0
  161.8810  206.1770  144.6430 C   0  0  0  0  0  3  0  0  0  0  0  0
  161.7890  204.0790  149.2370 C   0  0  2  0  0  3  0  0  0  0  0  0
  161.8930  202.6520  148.6770 C   0  0  0  0  0  2  0  0  0  0  0  0
  160.5520  202.0930  148.2400 C   0  0  2  0  0  3  0  0  0  0  0  0
  160.7390  200.8810  150.4120 O   0  0  0  0  0  1  0  0  0  0  0  0
  158.6810  201.1640  149.4320 O   0  0  0  0  0  0  0  0  0  0  0  0
  159.9250  201.3600  149.3890 C   0  0  0  0  0  0  0  0  0  0  0  0
  160.7290  201.2370  147.1400 O   0  0  0  0  0  0  0  0  0  0  0  0
  160.2010  201.9000  146.0780 N   0  0  0  0  0  2  0  0  0  0  0  0
  160.1350  200.9730  144.9570 C   0  0  0  0  0  1  0  0  0  0  0  0
  161.0830  204.0620  150.5960 C   0  0  0  0  0  2  0  0  0  0  0  0
  161.9040  204.6860  151.6300 N   0  0  0  0  0  2  0  0  0  0  0  0
  161.0120  205.0780  152.7100 C   0  0  1  0  0  3  0  0  0  0  0  0
  160.6810  203.9670  153.4900 O   0  0  0  0  0  1  0  0  0  0  0  0
  161.6870  206.1280  153.5770 C   0  0  0  0  0  2  0  0  0  0  0  0
  160.6550  206.9810  154.2790 C   0  0  0  0  0  2  0  0  0  0  0  0
  161.2320  207.5400  155.5050 C   0  0  0  0  0  0  0  0  0  0  0  0
  161.6820  207.9920  156.4680 N   0  0  0  0  0  0  0  0  0  0  0  0
  162.4960  206.7160  149.5510 O   0  0  0  0  0  0  0  0  0  0  0  0
  161.9680  209.8930  151.4310 C   0  0  1  0  0  3  0  0  0  0  0  0
  162.0840  210.3770  148.8490 C   0  0  2  0  0  3  0  0  0  0  0  0
  161.7320  208.4370  151.0530 C   0  0  0  0  0  2  0  0  0  0  0  0
  161.9790  208.8610  148.6380 C   0  0  0  0  0  2  0  0  0  0  0  0
  162.5570  208.0920  149.8200 C   0  0  2  0  0  3  0  0  0  0  0  0
  161.3700  211.9700  150.4450 O   0  0  0  0  0  0  0  0  0  0  0  0
  161.7040  210.8150  150.2510 C   0  0  0  0  0  0  0  0  0  0  0  0
  161.9930  210.6570  153.8550 S   0  0  0  0  0  0  0  0  0  0  0  0
  161.2370  210.2820  152.6930 C   0  0  0  0  0  0  0  0  0  0  0  0
  159.7380  210.2520  152.7800 C   0  0  0  0  0  2  0  0  0  0  0  0
  158.5420  212.2080  152.0810 O   0  0  0  0  0  1  0  0  0  0  0  0
  159.2000  211.6200  153.1650 C   0  0  1  0  0  3  0  0  0  0  0  0
  158.2840  211.5130  154.3410 C   0  0  0  0  0  0  0  0  0  0  0  0
  158.6140  210.5750  155.4520 C   0  0  0  0  0  1  0  0  0  0  0  0
  157.2520  212.1550  154.3820 O   0  0  0  0  0  0  0  0  0  0  0  0
  161.6900  212.1570  147.3310 O   0  0  0  0  0  0  0  0  0  0  0  0
  161.3030  211.0940  147.7900 C   0  0  0  0  0  3  0  0  0  0  0  0
  1  6  1  6  0  0  0
  1  8  1  0  0  0  0
  2  9  1  0  0  0  0
  3  9  1  0  0  0  0
  3  5  1  0  0  0  0
  3 12  1  1  0  0  0
  5  4  1  1  0  0  0
  7 11  1  6  0  0  0
  7  1  1  0  0  0  0
  7  8  1  0  0  0  0
  7  2  1  0  0  0  0
  8  3  1  0  0  0  0
  9  5  1  0  0  0  0
  9 29  1  0  0  0  0
 10 11  2  0  0  0  0
 12 21  1  0  0  0  0
 13 12  1  0  0  0  0
 14 13  1  0  0  0  0
 14 17  1  0  0  0  0
 17 16  2  0  0  0  0
 17 15  1  0  0  0  0
 18 14  1  0  0  0  0
 19 18  1  0  0  0  0
 20 19  1  0  0  0  0
 21 22  1  0  0  0  0
 22 23  1  0  0  0  0
 23 24  1  0  0  0  0
 23 25  1  0  0  0  0
 25 26  1  0  0  0  0
 26 27  1  0  0  0  0
 27 28  3  0  0  0  0
 29 34  1  0  0  0  0
 30 38  1  0  0  0  0
 31 36  1  0  0  0  0
 32 30  1  0  0  0  0
 33 31  1  0  0  0  0
 33 34  1  0  0  0  0
 34 32  1  0  0  0  0
 36 35  2  0  0  0  0
 36 30  1  0  0  0  0
 38 39  1  0  0  0  0
 38 37  2  0  0  0  0
 39 41  1  0  0  0  0
 40 41  1  0  0  0  0
 41 42  1  0  0  0  0
 42 44  2  0  0  0  0
 42 43  1  0  0  0  0
 45 46  2  0  0  0  0
 46 31  1  0  0  0  0
M  END
>  <MODEL>
3

>  <REMARK>
 VINA RESULT:      -4.5      2.731      8.733
  Name = 
  20 active torsions:
  status: ('A' for Active; 'I' for Inactive)
    1  A    between atoms: C_2  and  C_16
    2  A    between atoms: C_2  and  N_22
    3  A    between atoms: C_3  and  C_30
    4  A    between atoms: C_4  and  C_7
    5  A    between atoms: C_4  and  C_11
    6  A    between atoms: C_5  and  C_21
    7  A    between atoms: C_7  and  N_22
    8  A    between atoms: C_9  and  O_23
    9  A    between atoms: C_9  and  C_25
   10  A    between atoms: C_9  and  C_27
   11  A    between atoms: C_10  and  C_35
   12  A    between atoms: C_11  and  C_26
   13  A    between atoms: N_15  and  O_23
   14  A    between atoms: C_16  and  C_27
   15  A    between atoms: C_16  and  C_32
   16  A    between atoms: C_18  and  C_39
   17  A    between atoms: C_19  and  C_21
   18  A    between atoms: C_19  and  C_30
   19  A    between atoms: O_20  and  C_42
   20  A    between atoms: O_20  and  C_46
                            x       y       z     vdW  Elec       q    Type
                         _______ _______ _______ _____ _____    ______ ____

>  <TORSDO>
F 20

$$$$
=
 OpenBabel11072413523D

 46 49  0  0  1  0  0  0  0  0999 V2000
  160.6490  212.3300  148.7070 C   0  0  1  0  0  3  0  0  0  0  0  0
  162.0910  210.1850  148.8410 C   0  0  0  0  0  2  0  0  0  0  0  0
  161.4580  211.4100  150.9080 C   0  0  1  0  0  0  0  0  0  0  0  0
  162.5790  209.8380  152.6800 C   0  0  0  0  0  1  0  0  0  0  0  0
  162.6960  210.6090  151.3740 C   0  0  1  0  0  3  0  0  0  0  0  0
  160.5800  213.5410  148.0180 O   0  0  0  0  0  1  0  0  0  0  0  0
  161.9980  211.6620  148.5200 C   0  0  2  0  0  0  0  0  0  0  0  0
  161.7260  212.4330  149.7930 C   0  0  1  0  0  3  0  0  0  0  0  0
  161.7560  210.0240  150.3170 C   0  0  2  0  0  0  0  0  0  0  0  0
  164.1940  212.3430  147.9970 O   0  0  0  0  0  0  0  0  0  0  0  0
  163.0280  212.2970  147.6390 C   0  0  0  0  0  3  0  0  0  0  0  0
  160.0940  211.5130  151.6750 C   0  0  2  0  0  3  0  0  0  0  0  0
  159.5780  212.9590  151.7470 C   0  0  0  0  0  2  0  0  0  0  0  0
  158.0910  213.0380  152.0380 C   0  0  2  0  0  3  0  0  0  0  0  0
  158.0570  213.9300  149.7090 O   0  0  0  0  0  0  0  0  0  0  0  0
  156.2800  214.3200  151.1110 O   0  0  0  0  0  1  0  0  0  0  0  0
  157.4130  213.7970  150.9360 C   0  0  0  0  0  0  0  0  0  0  0  0
  157.8810  213.6660  153.2770 O   0  0  0  0  0  0  0  0  0  0  0  0
  156.9410  212.9130  153.9080 N   0  0  0  0  0  2  0  0  0  0  0  0
  156.1560  213.7960  154.7580 C   0  0  0  0  0  1  0  0  0  0  0  0
  160.0080  210.8540  153.0550 C   0  0  0  0  0  2  0  0  0  0  0  0
  160.2820  211.8130  154.1220 N   0  0  0  0  0  2  0  0  0  0  0  0
  160.2550  211.0790  155.3780 C   0  0  1  0  0  3  0  0  0  0  0  0
  159.3640  211.6810  156.2690 O   0  0  0  0  0  1  0  0  0  0  0  0
  159.8310  209.6420  155.1230 C   0  0  0  0  0  2  0  0  0  0  0  0
  160.8290  208.6790  155.7240 C   0  0  0  0  0  2  0  0  0  0  0  0
  161.9260  209.4300  156.3400 C   0  0  0  0  0  0  0  0  0  0  0  0
  162.7990  210.0120  156.8250 N   0  0  0  0  0  0  0  0  0  0  0  0
  160.8000  209.0500  150.6810 O   0  0  0  0  0  0  0  0  0  0  0  0
  161.6470  206.0140  148.6890 C   0  0  1  0  0  3  0  0  0  0  0  0
  161.4850  205.4060  151.2420 C   0  0  2  0  0  3  0  0  0  0  0  0
  160.8930  207.2900  149.0410 C   0  0  0  0  0  2  0  0  0  0  0  0
  160.8620  206.7920  151.4530 C   0  0  0  0  0  2  0  0  0  0  0  0
  161.3470  207.7870  150.4070 C   0  0  2  0  0  3  0  0  0  0  0  0
  161.5990  203.7890  149.5190 O   0  0  0  0  0  0  0  0  0  0  0  0
  161.5040  204.9730  149.7870 C   0  0  0  0  0  0  0  0  0  0  0  0
  160.4810  206.3150  146.4500 S   0  0  0  0  0  0  0  0  0  0  0  0
  161.3010  205.5080  147.3100 C   0  0  0  0  0  0  0  0  0  0  0  0
  161.7590  204.1630  146.8230 C   0  0  0  0  0  2  0  0  0  0  0  0
  161.0770  203.9100  144.5380 O   0  0  0  0  0  1  0  0  0  0  0  0
  160.7460  203.5740  145.8540 C   0  0  1  0  0  3  0  0  0  0  0  0
  160.6670  202.0900  146.0150 C   0  0  0  0  0  0  0  0  0  0  0  0
  160.9680  201.4730  147.3380 C   0  0  0  0  0  1  0  0  0  0  0  0
  160.3980  201.3790  145.0660 O   0  0  0  0  0  0  0  0  0  0  0  0
  161.0040  204.4050  153.3380 O   0  0  0  0  0  0  0  0  0  0  0  0
  160.8150  204.4040  152.1320 C   0  0  0  0  0  3  0  0  0  0  0  0
  1  6  1  6  0  0  0
  1  8  1  0  0  0  0
  2  9  1  0  0  0  0
  3  5  1  0  0  0  0
  3 12  1  1  0  0  0
  5  4  1  1  0  0  0
  7 11  1  6  0  0  0
  7  1  1  0  0  0  0
  7  2  1  0  0  0  0
  7  8  1  0  0  0  0
  8  3  1  0  0  0  0
  9 29  1  0  0  0  0
  9  3  1  0  0  0  0
  9  5  1  0  0  0  0
 11 10  2  0  0  0  0
 12 13  1  0  0  0  0
 12 21  1  0  0  0  0
 13 14  1  0  0  0  0
 14 18  1  0  0  0  0
 15 17  2  0  0  0  0
 17 16  1  0  0  0  0
 17 14  1  0  0  0  0
 18 19  1  0  0  0  0
 19 20  1  0  0  0  0
 21 22  1  0  0  0  0
 22 23  1  0  0  0  0
 23 24  1  0  0  0  0
 25 23  1  0  0  0  0
 25 26  1  0  0  0  0
 26 27  1  0  0  0  0
 27 28  3  0  0  0  0
 30 32  1  0  0  0  0
 30 36  1  0  0  0  0
 31 33  1  0  0  0  0
 31 46  1  0  0  0  0
 32 34  1  0  0  0  0
 34 29  1  0  0  0  0
 34 33  1  0  0  0  0
 35 36  2  0  0  0  0
 36 31  1  0  0  0  0
 37 38  2  0  0  0  0
 38 30  1  0  0  0  0
 39 38  1  0  0  0  0
 40 41  1  0  0  0  0
 41 42  1  0  0  0  0
 41 39  1  0  0  0  0
 42 43  1  0  0  0  0
 44 42  2  0  0  0  0
 46 45  2  0  0  0  0
M  END
>  <MODEL>
4

>  <REMARK>
 VINA RESULT:      -4.4      1.174      1.665
  Name = 
  20 active torsions:
  status: ('A' for Active; 'I' for Inactive)
    1  A    between atoms: C_2  and  C_16
    2  A    between atoms: C_2  and  N_22
    3  A    between atoms: C_3  and  C_30
    4  A    between atoms: C_4  and  C_7
    5  A    between atoms: C_4  and  C_11
    6  A    between atoms: C_5  and  C_21
    7  A    between atoms: C_7  and  N_22
    8  A    between atoms: C_9  and  O_23
    9  A    between atoms: C_9  and  C_25
   10  A    between atoms: C_9  and  C_27
   11  A    between atoms: C_10  and  C_35
   12  A    between atoms: C_11  and  C_26
   13  A    between atoms: N_15  and  O_23
   14  A    between atoms: C_16  and  C_27
   15  A    between atoms: C_16  and  C_32
   16  A    between atoms: C_18  and  C_39
   17  A    between atoms: C_19  and  C_21
   18  A    between atoms: C_19  and  C_30
   19  A    between atoms: O_20  and  C_42
   20  A    between atoms: O_20  and  C_46
                            x       y       z     vdW  Elec       q    Type
                         _______ _______ _______ _____ _____    ______ ____

>  <TORSDO>
F 20

$$$$
=
 OpenBabel11072413523D

 46 49  0  0  1  0  0  0  0  0999 V2000
  160.4430  205.3280  150.3560 C   0  0  1  0  0  3  0  0  0  0  0  0
  160.7140  206.6780  152.5480 C   0  0  0  0  0  2  0  0  0  0  0  0
  161.8980  207.3800  150.4800 C   0  0  1  0  0  0  0  0  0  0  0  0
  163.0810  209.5330  151.3920 C   0  0  0  0  0  1  0  0  0  0  0  0
  162.7410  208.0630  151.5830 C   0  0  1  0  0  3  0  0  0  0  0  0
  160.4880  204.0150  149.8860 O   0  0  0  0  0  1  0  0  0  0  0  0
  161.0530  205.4420  151.7400 C   0  0  2  0  0  0  0  0  0  0  0  0
  161.8740  205.8450  150.5350 C   0  0  1  0  0  3  0  0  0  0  0  0
  161.2330  207.8790  151.7720 C   0  0  2  0  0  0  0  0  0  0  0  0
  160.7760  203.4190  152.9190 O   0  0  0  0  0  0  0  0  0  0  0  0
  161.5610  204.2170  152.4340 C   0  0  0  0  0  3  0  0  0  0  0  0
  161.3770  208.0670  149.1700 C   0  0  2  0  0  3  0  0  0  0  0  0
  162.0630  207.5120  147.9120 C   0  0  0  0  0  2  0  0  0  0  0  0
  161.2430  206.4380  147.2230 C   0  0  2  0  0  3  0  0  0  0  0  0
  161.5360  203.9610  147.2920 O   0  0  0  0  0  1  0  0  0  0  0  0
  163.2910  205.3050  146.6700 O   0  0  0  0  0  0  0  0  0  0  0  0
  162.0900  205.2130  147.0380 C   0  0  0  0  0  0  0  0  0  0  0  0
  160.7800  206.9130  145.9850 O   0  0  0  0  0  0  0  0  0  0  0  0
  160.3610  205.8110  145.3080 N   0  0  0  0  0  2  0  0  0  0  0  0
  161.0600  205.7760  144.0310 C   0  0  0  0  0  1  0  0  0  0  0  0
  161.3670  209.5990  149.1320 C   0  0  0  0  0  2  0  0  0  0  0  0
  162.3100  210.1130  148.1440 N   0  0  0  0  0  2  0  0  0  0  0  0
  162.3890  211.5540  148.3320 C   0  0  1  0  0  3  0  0  0  0  0  0
  162.2210  212.2090  147.1100 O   0  0  0  0  0  1  0  0  0  0  0  0
  161.3110  212.0030  149.3040 C   0  0  0  0  0  2  0  0  0  0  0  0
  160.9460  213.4500  149.0620 C   0  0  0  0  0  2  0  0  0  0  0  0
  159.5230  213.5470  148.7280 C   0  0  0  0  0  0  0  0  0  0  0  0
  158.4020  213.6380  148.4640 N   0  0  0  0  0  0  0  0  0  0  0  0
  160.3550  208.9650  151.5580 O   0  0  0  0  0  0  0  0  0  0  0  0
  159.0710  211.4910  153.9820 C   0  0  1  0  0  3  0  0  0  0  0  0
  161.0900  210.1730  155.0320 C   0  0  2  0  0  3  0  0  0  0  0  0
  159.5460  210.9610  152.6360 C   0  0  0  0  0  2  0  0  0  0  0  0
  161.3540  209.6120  153.6280 C   0  0  0  0  0  2  0  0  0  0  0  0
  160.0730  209.5410  152.8060 C   0  0  2  0  0  3  0  0  0  0  0  0
  160.1770  212.1370  155.9820 O   0  0  0  0  0  0  0  0  0  0  0  0
  160.1640  211.3750  155.0320 C   0  0  0  0  0  0  0  0  0  0  0  0
  158.7040  213.6490  152.6910 S   0  0  0  0  0  0  0  0  0  0  0  0
  158.4640  212.8680  153.8720 C   0  0  0  0  0  0  0  0  0  0  0  0
  157.6440  213.4620  154.9810 C   0  0  0  0  0  2  0  0  0  0  0  0
  156.1900  211.8800  156.0440 O   0  0  0  0  0  1  0  0  0  0  0  0
  156.2630  212.8280  155.0200 C   0  0  1  0  0  3  0  0  0  0  0  0
  155.2090  213.8740  155.1950 C   0  0  0  0  0  0  0  0  0  0  0  0
  154.6870  214.1760  156.5570 C   0  0  0  0  0  1  0  0  0  0  0  0
  154.7470  214.4530  154.2300 O   0  0  0  0  0  0  0  0  0  0  0  0
  162.4730  210.4300  156.9420 O   0  0  0  0  0  0  0  0  0  0  0  0
  162.3900  210.4470  155.7240 C   0  0  0  0  0  3  0  0  0  0  0  0
  1  6  1  6  0  0  0
  1  8  1  0  0  0  0
  1  7  1  0  0  0  0
  3 12  1  6  0  0  0
  3  8  1  0  0  0  0
  3  5  1  0  0  0  0
  3  9  1  0  0  0  0
  5  4  1  6  0  0  0
  5  9  1  0  0  0  0
  7 11  1  1  0  0  0
  7  2  1  0  0  0  0
  8  7  1  0  0  0  0
  9  2  1  0  0  0  0
 11 10  2  0  0  0  0
 13 12  1  0  0  0  0
 14 13  1  0  0  0  0
 16 17  2  0  0  0  0
 17 14  1  0  0  0  0
 17 15  1  0  0  0  0
 18 14  1  0  0  0  0
 19 18  1  0  0  0  0
 20 19  1  0  0  0  0
 21 12  1  0  0  0  0
 22 23  1  0  0  0  0
 22 21  1  0  0  0  0
 23 25  1  0  0  0  0
 24 23  1  0  0  0  0
 26 25  1  0  0  0  0
 27 26  1  0  0  0  0
 28 27  3  0  0  0  0
 29  9  1  0  0  0  0
 29 34  1  0  0  0  0
 30 36  1  0  0  0  0
 31 46  1  0  0  0  0
 32 34  1  0  0  0  0
 32 30  1  0  0  0  0
 33 31  1  0  0  0  0
 34 33  1  0  0  0  0
 36 31  1  0  0  0  0
 36 35  2  0  0  0  0
 37 38  2  0  0  0  0
 38 30  1  0  0  0  0
 38 39  1  0  0  0  0
 39 41  1  0  0  0  0
 41 42  1  0  0  0  0
 41 40  1  0  0  0  0
 42 43  1  0  0  0  0
 44 42  2  0  0  0  0
 46 45  2  0  0  0  0
M  END
>  <MODEL>
5

>  <REMARK>
 VINA RESULT:      -3.7      2.913      9.228
  Name = 
  20 active torsions:
  status: ('A' for Active; 'I' for Inactive)
    1  A    between atoms: C_2  and  C_16
    2  A    between atoms: C_2  and  N_22
    3  A    between atoms: C_3  and  C_30
    4  A    between atoms: C_4  and  C_7
    5  A    between atoms: C_4  and  C_11
    6  A    between atoms: C_5  and  C_21
    7  A    between atoms: C_7  and  N_22
    8  A    between atoms: C_9  and  O_23
    9  A    between atoms: C_9  and  C_25
   10  A    between atoms: C_9  and  C_27
   11  A    between atoms: C_10  and  C_35
   12  A    between atoms: C_11  and  C_26
   13  A    between atoms: N_15  and  O_23
   14  A    between atoms: C_16  and  C_27
   15  A    between atoms: C_16  and  C_32
   16  A    between atoms: C_18  and  C_39
   17  A    between atoms: C_19  and  C_21
   18  A    between atoms: C_19  and  C_30
   19  A    between atoms: O_20  and  C_42
   20  A    between atoms: O_20  and  C_46
                            x       y       z     vdW  Elec       q    Type
                         _______ _______ _______ _____ _____    ______ ____

>  <TORSDO>
F 20

$$$$
=
 OpenBabel11072413523D

 46 49  0  0  1  0  0  0  0  0999 V2000
  160.8340  212.5060  148.3710 C   0  0  1  0  0  3  0  0  0  0  0  0
  162.2180  210.3510  148.7440 C   0  0  0  0  0  2  0  0  0  0  0  0
  161.4360  211.6990  150.6800 C   0  0  1  0  0  0  0  0  0  0  0  0
  162.3710  210.2120  152.6230 C   0  0  0  0  0  1  0  0  0  0  0  0
  162.6140  210.9070  151.2920 C   0  0  1  0  0  3  0  0  0  0  0  0
  160.8470  213.6780  147.6130 O   0  0  0  0  0  1  0  0  0  0  0  0
  162.1810  211.8090  148.3360 C   0  0  2  0  0  0  0  0  0  0  0  0
  161.8160  212.6540  149.5380 C   0  0  1  0  0  3  0  0  0  0  0  0
  161.7560  210.2780  150.1920 C   0  0  2  0  0  0  0  0  0  0  0  0
  163.0630  212.8350  146.4060 O   0  0  0  0  0  0  0  0  0  0  0  0
  163.2940  212.3790  147.5140 C   0  0  0  0  0  3  0  0  0  0  0  0
  160.0140  211.8650  151.3200 C   0  0  2  0  0  3  0  0  0  0  0  0
  159.4960  213.3080  151.2150 C   0  0  0  0  0  2  0  0  0  0  0  0
  157.9820  213.3860  151.1730 C   0  0  2  0  0  3  0  0  0  0  0  0
  156.2970  213.0670  149.3610 O   0  0  0  0  0  1  0  0  0  0  0  0
  158.2720  214.1480  148.9100 O   0  0  0  0  0  0  0  0  0  0  0  0
  157.5370  213.5660  149.7510 C   0  0  0  0  0  0  0  0  0  0  0  0
  157.5370  214.4530  151.9720 O   0  0  0  0  0  0  0  0  0  0  0  0
  156.7090  213.8930  152.8930 N   0  0  0  0  0  2  0  0  0  0  0  0
  157.2260  214.2150  154.2160 C   0  0  0  0  0  1  0  0  0  0  0  0
  159.8140  211.3360  152.7440 C   0  0  0  0  0  2  0  0  0  0  0  0
  160.0100  212.3890  153.7360 N   0  0  0  0  0  2  0  0  0  0  0  0
  160.2010  211.7380  155.0230 C   0  0  1  0  0  3  0  0  0  0  0  0
  160.1920  212.6860  156.0490 O   0  0  0  0  0  1  0  0  0  0  0  0
  159.0940  210.7240  155.2540 C   0  0  0  0  0  2  0  0  0  0  0  0
  157.9810  211.3310  156.0790 C   0  0  0  0  0  2  0  0  0  0  0  0
  156.6860  210.9810  155.4890 C   0  0  0  0  0  0  0  0  0  0  0  0
  155.6630  210.6960  155.0340 N   0  0  0  0  0  0  0  0  0  0  0  0
  160.7540  209.3400  150.5260 O   0  0  0  0  0  0  0  0  0  0  0  0
  161.7610  205.7810  150.0520 C   0  0  1  0  0  3  0  0  0  0  0  0
  161.7280  206.3800  152.6120 C   0  0  2  0  0  3  0  0  0  0  0  0
  160.9250  207.0370  149.8430 C   0  0  0  0  0  2  0  0  0  0  0  0
  161.0100  207.6780  152.2200 C   0  0  0  0  0  2  0  0  0  0  0  0
  161.3850  208.1200  150.8120 C   0  0  2  0  0  3  0  0  0  0  0  0
  161.9080  204.1690  151.7900 O   0  0  0  0  0  0  0  0  0  0  0  0
  161.7330  205.3400  151.5060 C   0  0  0  0  0  0  0  0  0  0  0  0
  162.0090  204.7000  147.7650 S   0  0  0  0  0  0  0  0  0  0  0  0
  161.4090  204.6900  149.0700 C   0  0  0  0  0  0  0  0  0  0  0  0
  160.4180  203.6130  149.4060 C   0  0  0  0  0  2  0  0  0  0  0  0
  161.1140  201.5660  150.4410 O   0  0  0  0  0  1  0  0  0  0  0  0
  161.0410  202.2390  149.2190 C   0  0  1  0  0  3  0  0  0  0  0  0
  160.2630  201.4410  148.2230 C   0  0  0  0  0  0  0  0  0  0  0  0
  160.7810  201.2830  146.8350 C   0  0  0  0  0  1  0  0  0  0  0  0
  159.1910  200.9520  148.5250 O   0  0  0  0  0  0  0  0  0  0  0  0
  160.7930  206.6080  154.7800 O   0  0  0  0  0  0  0  0  0  0  0  0
  161.1650  205.8530  153.8960 C   0  0  0  0  0  3  0  0  0  0  0  0
  1  6  1  6  0  0  0
  1  8  1  0  0  0  0
  2  9  1  0  0  0  0
  3  5  1  0  0  0  0
  3 12  1  1  0  0  0
  5  4  1  1  0  0  0
  7 11  1  6  0  0  0
  7  1  1  0  0  0  0
  7  2  1  0  0  0  0
  7  8  1  0  0  0  0
  8  3  1  0  0  0  0
  9 29  1  0  0  0  0
  9  3  1  0  0  0  0
  9  5  1  0  0  0  0
 10 11  2  0  0  0  0
 12 21  1  0  0  0  0
 13 12  1  0  0  0  0
 14 13  1  0  0  0  0
 14 18  1  0  0  0  0
 15 17  1  0  0  0  0
 16 17  2  0  0  0  0
 17 14  1  0  0  0  0
 18 19  1  0  0  0  0
 19 20  1  0  0  0  0
 21 22  1  0  0  0  0
 22 23  1  0  0  0  0
 23 25  1  0  0  0  0
 23 24  1  0  0  0  0
 25 26  1  0  0  0  0
 27 26  1  0  0  0  0
 28 27  3  0  0  0  0
 29 34  1  0  0  0  0
 30 36  1  0  0  0  0
 31 46  1  0  0  0  0
 32 30  1  0  0  0  0
 32 34  1  0  0  0  0
 33 31  1  0  0  0  0
 34 33  1  0  0  0  0
 36 35  2  0  0  0  0
 36 31  1  0  0  0  0
 37 38  2  0  0  0  0
 38 39  1  0  0  0  0
 38 30  1  0  0  0  0
 41 39  1  0  0  0  0
 41 40  1  0  0  0  0
 42 44  2  0  0  0  0
 42 41  1  0  0  0  0
 43 42  1  0  0  0  0
 46 45  2  0  0  0  0
M  END
>  <MODEL>
6

>  <REMARK>
 VINA RESULT:      -3.5      1.876      2.587
  Name = 
  20 active torsions:
  status: ('A' for Active; 'I' for Inactive)
    1  A    between atoms: C_2  and  C_16
    2  A    between atoms: C_2  and  N_22
    3  A    between atoms: C_3  and  C_30
    4  A    between atoms: C_4  and  C_7
    5  A    between atoms: C_4  and  C_11
    6  A    between atoms: C_5  and  C_21
    7  A    between atoms: C_7  and  N_22
    8  A    between atoms: C_9  and  O_23
    9  A    between atoms: C_9  and  C_25
   10  A    between atoms: C_9  and  C_27
   11  A    between atoms: C_10  and  C_35
   12  A    between atoms: C_11  and  C_26
   13  A    between atoms: N_15  and  O_23
   14  A    between atoms: C_16  and  C_27
   15  A    between atoms: C_16  and  C_32
   16  A    between atoms: C_18  and  C_39
   17  A    between atoms: C_19  and  C_21
   18  A    between atoms: C_19  and  C_30
   19  A    between atoms: O_20  and  C_42
   20  A    between atoms: O_20  and  C_46
                            x       y       z     vdW  Elec       q    Type
                         _______ _______ _______ _____ _____    ______ ____

>  <TORSDO>
F 20

$$$$
=
 OpenBabel11072413523D

 46 49  0  0  1  0  0  0  0  0999 V2000
  160.6980  211.7090  150.2840 C   0  0  1  0  0  3  0  0  0  0  0  0
  161.6700  209.7530  148.8970 C   0  0  0  0  0  2  0  0  0  0  0  0
  161.8260  209.7390  151.3760 C   0  0  1  0  0  0  0  0  0  0  0  0
  163.0120  207.4260  151.7030 C   0  0  0  0  0  1  0  0  0  0  0  0
  162.9550  208.7610  150.9760 C   0  0  1  0  0  3  0  0  0  0  0  0
  160.7040  213.1040  150.3330 O   0  0  0  0  0  1  0  0  0  0  0  0
  161.7980  211.1820  149.3820 C   0  0  2  0  0  0  0  0  0  0  0  0
  162.0080  211.1820  150.8800 C   0  0  1  0  0  3  0  0  0  0  0  0
  161.6850  208.8570  150.1270 C   0  0  2  0  0  0  0  0  0  0  0  0
  163.1940  211.8120  147.5900 O   0  0  0  0  0  0  0  0  0  0  0  0
  162.6830  212.1400  148.6490 C   0  0  0  0  0  3  0  0  0  0  0  0
  160.7420  209.4830  152.4810 C   0  0  2  0  0  3  0  0  0  0  0  0
  159.5800  210.4850  152.3960 C   0  0  0  0  0  2  0  0  0  0  0  0
  159.2890  211.1600  153.7230 C   0  0  2  0  0  3  0  0  0  0  0  0
  157.4040  212.4940  152.7800 O   0  0  0  0  0  0  0  0  0  0  0  0
  157.0630  211.1830  154.6340 O   0  0  0  0  0  1  0  0  0  0  0  0
  157.8550  211.6000  153.7470 C   0  0  0  0  0  0  0  0  0  0  0  0
  160.1490  212.2570  153.8990 O   0  0  0  0  0  0  0  0  0  0  0  0
  160.0860  212.5560  155.2240 N   0  0  0  0  0  2  0  0  0  0  0  0
  159.5470  213.9010  155.3560 C   0  0  0  0  0  1  0  0  0  0  0  0
  161.2260  209.3590  153.9300 C   0  0  0  0  0  2  0  0  0  0  0  0
  161.6580  207.9980  154.2320 N   0  0  0  0  0  2  0  0  0  0  0  0
  160.4620  207.2150  154.4990 C   0  0  1  0  0  3  0  0  0  0  0  0
  160.5360  205.9820  153.8470 O   0  0  0  0  0  1  0  0  0  0  0  0
  160.3180  206.9940  155.9960 C   0  0  0  0  0  2  0  0  0  0  0  0
  161.1770  207.9740  156.7630 C   0  0  0  0  0  2  0  0  0  0  0  0
  160.4030  209.1860  157.0460 C   0  0  0  0  0  0  0  0  0  0  0  0
  159.8000  210.1480  157.2600 N   0  0  0  0  0  0  0  0  0  0  0  0
  160.6740  207.8790  150.2510 O   0  0  0  0  0  0  0  0  0  0  0  0
  161.5290  205.1870  147.8170 C   0  0  1  0  0  3  0  0  0  0  0  0
  161.2250  204.1690  150.2220 C   0  0  2  0  0  3  0  0  0  0  0  0
  160.7960  206.4130  148.3440 C   0  0  0  0  0  2  0  0  0  0  0  0
  160.6320  205.5230  150.6360 C   0  0  0  0  0  2  0  0  0  0  0  0
  161.1970  206.6600  149.7930 C   0  0  2  0  0  3  0  0  0  0  0  0
  161.3760  202.8580  148.2590 O   0  0  0  0  0  0  0  0  0  0  0  0
  161.3020  203.9840  148.7170 C   0  0  0  0  0  0  0  0  0  0  0  0
  160.6980  205.9900  145.5520 S   0  0  0  0  0  0  0  0  0  0  0  0
  161.2360  204.9290  146.3590 C   0  0  0  0  0  0  0  0  0  0  0  0
  161.4560  203.5820  145.7330 C   0  0  0  0  0  2  0  0  0  0  0  0
  159.9120  203.4490  143.9040 O   0  0  0  0  0  1  0  0  0  0  0  0
  160.1450  203.0160  145.2120 C   0  0  1  0  0  3  0  0  0  0  0  0
  160.1550  201.5220  145.2780 C   0  0  0  0  0  0  0  0  0  0  0  0
  161.1230  200.8280  146.1730 C   0  0  0  0  0  1  0  0  0  0  0  0
  159.4060  200.8680  144.5780 O   0  0  0  0  0  0  0  0  0  0  0  0
  160.8110  202.6660  152.0100 O   0  0  0  0  0  0  0  0  0  0  0  0
  160.4830  203.0590  150.9020 C   0  0  0  0  0  3  0  0  0  0  0  0
  1  6  1  6  0  0  0
  1  8  1  0  0  0  0
  2  7  1  0  0  0  0
  2  9  1  0  0  0  0
  3 12  1  1  0  0  0
  5  3  1  0  0  0  0
  5  4  1  1  0  0  0
  7 11  1  6  0  0  0
  7  1  1  0  0  0  0
  7  8  1  0  0  0  0
  8  3  1  0  0  0  0
  9 29  1  0  0  0  0
  9  5  1  0  0  0  0
  9  3  1  0  0  0  0
 10 11  2  0  0  0  0
 12 21  1  0  0  0  0
 13 12  1  0  0  0  0
 13 14  1  0  0  0  0
 14 17  1  0  0  0  0
 14 18  1  0  0  0  0
 15 17  2  0  0  0  0
 17 16  1  0  0  0  0
 18 19  1  0  0  0  0
 19 20  1  0  0  0  0
 21 22  1  0  0  0  0
 22 23  1  0  0  0  0
 23 25  1  0  0  0  0
 24 23  1  0  0  0  0
 25 26  1  0  0  0  0
 26 27  1  0  0  0  0
 27 28  3  0  0  0  0
 30 32  1  0  0  0  0
 30 36  1  0  0  0  0
 31 33  1  0  0  0  0
 31 46  1  0  0  0  0
 32 34  1  0  0  0  0
 34 29  1  0  0  0  0
 34 33  1  0  0  0  0
 35 36  2  0  0  0  0
 36 31  1  0  0  0  0
 37 38  2  0  0  0  0
 38 30  1  0  0  0  0
 39 38  1  0  0  0  0
 40 41  1  0  0  0  0
 41 42  1  0  0  0  0
 41 39  1  0  0  0  0
 42 43  1  0  0  0  0
 44 42  2  0  0  0  0
 46 45  2  0  0  0  0
M  END
>  <MODEL>
7

>  <REMARK>
 VINA RESULT:      -3.3      1.826      2.651
  Name = 
  20 active torsions:
  status: ('A' for Active; 'I' for Inactive)
    1  A    between atoms: C_2  and  C_16
    2  A    between atoms: C_2  and  N_22
    3  A    between atoms: C_3  and  C_30
    4  A    between atoms: C_4  and  C_7
    5  A    between atoms: C_4  and  C_11
    6  A    between atoms: C_5  and  C_21
    7  A    between atoms: C_7  and  N_22
    8  A    between atoms: C_9  and  O_23
    9  A    between atoms: C_9  and  C_25
   10  A    between atoms: C_9  and  C_27
   11  A    between atoms: C_10  and  C_35
   12  A    between atoms: C_11  and  C_26
   13  A    between atoms: N_15  and  O_23
   14  A    between atoms: C_16  and  C_27
   15  A    between atoms: C_16  and  C_32
   16  A    between atoms: C_18  and  C_39
   17  A    between atoms: C_19  and  C_21
   18  A    between atoms: C_19  and  C_30
   19  A    between atoms: O_20  and  C_42
   20  A    between atoms: O_20  and  C_46
                            x       y       z     vdW  Elec       q    Type
                         _______ _______ _______ _____ _____    ______ ____

>  <TORSDO>
F 20

$$$$
=
 OpenBabel11072413523D

 46 49  0  0  1  0  0  0  0  0999 V2000
  160.6870  212.3960  148.6810 C   0  0  1  0  0  3  0  0  0  0  0  0
  162.0550  210.2070  148.8720 C   0  0  0  0  0  2  0  0  0  0  0  0
  161.4670  211.5090  150.9050 C   0  0  1  0  0  0  0  0  0  0  0  0
  162.5350  209.9480  152.7180 C   0  0  0  0  0  1  0  0  0  0  0  0
  162.6770  210.6780  151.3920 C   0  0  1  0  0  3  0  0  0  0  0  0
  160.6590  213.5900  147.9590 O   0  0  0  0  0  1  0  0  0  0  0  0
  162.0120  211.6770  148.5110 C   0  0  2  0  0  0  0  0  0  0  0  0
  161.7680  212.4910  149.7630 C   0  0  1  0  0  3  0  0  0  0  0  0
  161.7160  210.0970  150.3520 C   0  0  2  0  0  0  0  0  0  0  0  0
  164.0420  211.5890  147.3150 O   0  0  0  0  0  0  0  0  0  0  0  0
  163.0620  212.2520  147.6130 C   0  0  0  0  0  3  0  0  0  0  0  0
  160.1080  211.6790  151.6700 C   0  0  2  0  0  3  0  0  0  0  0  0
  159.6280  213.1390  151.6780 C   0  0  0  0  0  2  0  0  0  0  0  0
  158.1250  213.2610  151.8420 C   0  0  2  0  0  3  0  0  0  0  0  0
  158.3380  214.4490  149.6600 O   0  0  0  0  0  0  0  0  0  0  0  0
  156.3090  213.5830  150.2980 O   0  0  0  0  0  1  0  0  0  0  0  0
  157.5280  213.7630  150.5610 C   0  0  0  0  0  0  0  0  0  0  0  0
  157.8310  214.1340  152.9040 O   0  0  0  0  0  0  0  0  0  0  0  0
  156.4760  214.1350  153.0050 N   0  0  0  0  0  2  0  0  0  0  0  0
  156.1110  213.3180  154.1530 C   0  0  0  0  0  1  0  0  0  0  0  0
  160.0100  211.0840  153.0780 C   0  0  0  0  0  2  0  0  0  0  0  0
  160.1300  212.1170  154.1030 N   0  0  0  0  0  2  0  0  0  0  0  0
  160.2720  211.4400  155.3830 C   0  0  1  0  0  3  0  0  0  0  0  0
  159.3880  211.9850  156.3170 O   0  0  0  0  0  1  0  0  0  0  0  0
  159.9860  209.9580  155.2130 C   0  0  0  0  0  2  0  0  0  0  0  0
  160.8330  209.1410  156.1630 C   0  0  0  0  0  2  0  0  0  0  0  0
  162.0830  209.8520  156.4400 C   0  0  0  0  0  0  0  0  0  0  0  0
  163.0740  210.4110  156.6460 N   0  0  0  0  0  0  0  0  0  0  0  0
  160.7280  209.1670  150.7430 O   0  0  0  0  0  0  0  0  0  0  0  0
  161.5840  205.6880  149.7110 C   0  0  1  0  0  3  0  0  0  0  0  0
  161.7170  205.9150  152.3270 C   0  0  2  0  0  3  0  0  0  0  0  0
  160.7810  206.9820  149.7330 C   0  0  0  0  0  2  0  0  0  0  0  0
  161.0230  207.2740  152.1670 C   0  0  0  0  0  2  0  0  0  0  0  0
  161.3320  207.9030  150.8150 C   0  0  2  0  0  3  0  0  0  0  0  0
  161.7730  203.8410  151.1930 O   0  0  0  0  0  0  0  0  0  0  0  0
  161.6230  205.0450  151.0880 C   0  0  0  0  0  0  0  0  0  0  0  0
  161.2660  203.3390  148.7930 S   0  0  0  0  0  0  0  0  0  0  0  0
  161.1390  204.7580  148.6090 C   0  0  0  0  0  0  0  0  0  0  0  0
  160.5990  205.2760  147.3070 C   0  0  0  0  0  2  0  0  0  0  0  0
  161.5130  203.4920  145.9910 O   0  0  0  0  0  1  0  0  0  0  0  0
  161.5120  204.8800  146.1570 C   0  0  1  0  0  3  0  0  0  0  0  0
  161.0920  205.5610  144.8940 C   0  0  0  0  0  0  0  0  0  0  0  0
  161.9500  205.4610  143.6800 C   0  0  0  0  0  1  0  0  0  0  0  0
  160.0760  206.2280  144.8600 O   0  0  0  0  0  0  0  0  0  0  0  0
  161.0880  205.8250  154.6130 O   0  0  0  0  0  0  0  0  0  0  0  0
  161.2100  205.2250  153.5570 C   0  0  0  0  0  3  0  0  0  0  0  0
  1  6  1  6  0  0  0
  1  8  1  0  0  0  0
  2  9  1  0  0  0  0
  3  5  1  0  0  0  0
  3 12  1  1  0  0  0
  5  4  1  1  0  0  0
  7 11  1  6  0  0  0
  7  1  1  0  0  0  0
  7  2  1  0  0  0  0
  7  8  1  0  0  0  0
  8  3  1  0  0  0  0
  9 29  1  0  0  0  0
  9  3  1  0  0  0  0
  9  5  1  0  0  0  0
 10 11  2  0  0  0  0
 12 13  1  0  0  0  0
 12 21  1  0  0  0  0
 13 14  1  0  0  0  0
 14 18  1  0  0  0  0
 15 17  2  0  0  0  0
 16 17  1  0  0  0  0
 17 14  1  0  0  0  0
 18 19  1  0  0  0  0
 19 20  1  0  0  0  0
 21 22  1  0  0  0  0
 22 23  1  0  0  0  0
 23 24  1  0  0  0  0
 25 23  1  0  0  0  0
 25 26  1  0  0  0  0
 26 27  1  0  0  0  0
 27 28  3  0  0  0  0
 29 34  1  0  0  0  0
 30 32  1  0  0  0  0
 30 36  1  0  0  0  0
 31 46  1  0  0  0  0
 32 34  1  0  0  0  0
 33 31  1  0  0  0  0
 34 33  1  0  0  0  0
 36 35  2  0  0  0  0
 36 31  1  0  0  0  0
 38 37  2  0  0  0  0
 38 30  1  0  0  0  0
 39 38  1  0  0  0  0
 40 41  1  0  0  0  0
 41 39  1  0  0  0  0
 42 41  1  0  0  0  0
 43 42  1  0  0  0  0
 44 42  2  0  0  0  0
 46 45  2  0  0  0  0
M  END
>  <MODEL>
8

>  <REMARK>
 VINA RESULT:      -3.3      1.657      2.209
  Name = 
  20 active torsions:
  status: ('A' for Active; 'I' for Inactive)
    1  A    between atoms: C_2  and  C_16
    2  A    between atoms: C_2  and  N_22
    3  A    between atoms: C_3  and  C_30
    4  A    between atoms: C_4  and  C_7
    5  A    between atoms: C_4  and  C_11
    6  A    between atoms: C_5  and  C_21
    7  A    between atoms: C_7  and  N_22
    8  A    between atoms: C_9  and  O_23
    9  A    between atoms: C_9  and  C_25
   10  A    between atoms: C_9  and  C_27
   11  A    between atoms: C_10  and  C_35
   12  A    between atoms: C_11  and  C_26
   13  A    between atoms: N_15  and  O_23
   14  A    between atoms: C_16  and  C_27
   15  A    between atoms: C_16  and  C_32
   16  A    between atoms: C_18  and  C_39
   17  A    between atoms: C_19  and  C_21
   18  A    between atoms: C_19  and  C_30
   19  A    between atoms: O_20  and  C_42
   20  A    between atoms: O_20  and  C_46
                            x       y       z     vdW  Elec       q    Type
                         _______ _______ _______ _____ _____    ______ ____

>  <TORSDO>
F 20

$$$$
=
 OpenBabel11072413523D

 46 49  0  0  1  0  0  0  0  0999 V2000
  160.4650  206.8070  154.6070 C   0  0  1  0  0  3  0  0  0  0  0  0
  160.5410  209.3920  154.6950 C   0  0  0  0  0  2  0  0  0  0  0  0
  161.9290  208.1450  153.0540 C   0  0  1  0  0  0  0  0  0  0  0  0
  163.0460  210.1740  151.8300 C   0  0  0  0  0  1  0  0  0  0  0  0
  162.6700  209.4990  153.1410 C   0  0  1  0  0  3  0  0  0  0  0  0
  160.5370  205.6970  155.4490 O   0  0  0  0  0  1  0  0  0  0  0  0
  160.9400  208.0650  155.3070 C   0  0  2  0  0  0  0  0  0  0  0  0
  161.8790  207.3450  154.3640 C   0  0  1  0  0  3  0  0  0  0  0  0
  161.1480  209.4450  153.3000 C   0  0  2  0  0  0  0  0  0  0  0  0
  162.3680  208.5920  157.1080 O   0  0  0  0  0  0  0  0  0  0  0  0
  161.3620  208.0060  156.7420 C   0  0  0  0  0  3  0  0  0  0  0  0
  161.5450  207.3940  151.7310 C   0  0  2  0  0  3  0  0  0  0  0  0
  162.1900  206.0020  151.6470 C   0  0  0  0  0  2  0  0  0  0  0  0
  161.2670  204.9640  151.0370 C   0  0  2  0  0  3  0  0  0  0  0  0
  161.9110  202.6150  151.5730 O   0  0  0  0  0  0  0  0  0  0  0  0
  160.5370  203.7800  152.9990 O   0  0  0  0  0  1  0  0  0  0  0  0
  161.2120  203.7640  151.9350 C   0  0  0  0  0  0  0  0  0  0  0  0
  161.7310  204.6080  149.7590 O   0  0  0  0  0  0  0  0  0  0  0  0
  160.6950  203.9560  149.1680 N   0  0  0  0  0  2  0  0  0  0  0  0
  161.2000  202.6970  148.6390 C   0  0  0  0  0  1  0  0  0  0  0  0
  161.7410  208.1460  150.4110 C   0  0  0  0  0  2  0  0  0  0  0  0
  160.7790  207.7110  149.4020 N   0  0  0  0  0  2  0  0  0  0  0  0
  161.5180  207.4930  148.1680 C   0  0  1  0  0  3  0  0  0  0  0  0
  162.8730  207.3010  148.4450 O   0  0  0  0  0  1  0  0  0  0  0  0
  160.9640  206.2750  147.4480 C   0  0  0  0  0  2  0  0  0  0  0  0
  161.9940  205.7050  146.4990 C   0  0  0  0  0  2  0  0  0  0  0  0
  161.4170  204.5700  145.7740 C   0  0  0  0  0  0  0  0  0  0  0  0
  160.9670  203.6660  145.2130 N   0  0  0  0  0  0  0  0  0  0  0  0
  160.3100  209.8000  152.2210 O   0  0  0  0  0  0  0  0  0  0  0  0
  158.1090  212.5120  153.5290 C   0  0  1  0  0  3  0  0  0  0  0  0
  159.2630  213.2800  151.2950 C   0  0  2  0  0  3  0  0  0  0  0  0
  158.4920  211.0930  153.1290 C   0  0  0  0  0  2  0  0  0  0  0  0
  159.6960  211.8200  151.1060 C   0  0  0  0  0  2  0  0  0  0  0  0
  159.8530  211.1080  152.4440 C   0  0  2  0  0  3  0  0  0  0  0  0
  157.4800  214.4530  152.3140 O   0  0  0  0  0  0  0  0  0  0  0  0
  158.1730  213.4520  152.3370 C   0  0  0  0  0  0  0  0  0  0  0  0
  155.6600  211.8680  153.7540 S   0  0  0  0  0  0  0  0  0  0  0  0
  156.8030  212.5600  154.2830 C   0  0  0  0  0  0  0  0  0  0  0  0
  156.6530  213.3430  155.5560 C   0  0  0  0  0  2  0  0  0  0  0  0
  157.9500  214.4190  157.2610 O   0  0  0  0  0  1  0  0  0  0  0  0
  157.9750  213.4010  156.3040 C   0  0  1  0  0  3  0  0  0  0  0  0
  158.2740  212.0840  156.9450 C   0  0  0  0  0  0  0  0  0  0  0  0
  157.1620  211.1400  157.2470 C   0  0  0  0  0  1  0  0  0  0  0  0
  159.4130  211.7930  157.2570 O   0  0  0  0  0  0  0  0  0  0  0  0
  157.8560  213.5730  149.4080 O   0  0  0  0  0  0  0  0  0  0  0  0
  158.8940  213.8780  149.9710 C   0  0  0  0  0  3  0  0  0  0  0  0
  1  7  1  0  0  0  0
  1  6  1  1  0  0  0
  2  7  1  0  0  0  0
  3 12  1  6  0  0  0
  3  5  1  0  0  0  0
  3  9  1  0  0  0  0
  3  8  1  0  0  0  0
  5  4  1  6  0  0  0
  5  9  1  0  0  0  0
  7 11  1  1  0  0  0
  8  1  1  0  0  0  0
  8  7  1  0  0  0  0
  9  2  1  0  0  0  0
 11 10  2  0  0  0  0
 13 12  1  0  0  0  0
 14 13  1  0  0  0  0
 14 17  1  0  0  0  0
 15 17  2  0  0  0  0
 17 16  1  0  0  0  0
 18 14  1  0  0  0  0
 19 18  1  0  0  0  0
 20 19  1  0  0  0  0
 21 12  1  0  0  0  0
 22 21  1  0  0  0  0
 23 24  1  0  0  0  0
 23 22  1  0  0  0  0
 25 23  1  0  0  0  0
 26 25  1  0  0  0  0
 27 26  1  0  0  0  0
 28 27  3  0  0  0  0
 29 34  1  0  0  0  0
 29  9  1  0  0  0  0
 30 38  1  0  0  0  0
 31 36  1  0  0  0  0
 32 30  1  0  0  0  0
 33 31  1  0  0  0  0
 33 34  1  0  0  0  0
 34 32  1  0  0  0  0
 35 36  2  0  0  0  0
 36 30  1  0  0  0  0
 37 38  2  0  0  0  0
 38 39  1  0  0  0  0
 39 41  1  0  0  0  0
 41 42  1  0  0  0  0
 41 40  1  0  0  0  0
 42 43  1  0  0  0  0
 42 44  2  0  0  0  0
 45 46  2  0  0  0  0
 46 31  1  0  0  0  0
M  END
>  <MODEL>
9

>  <REMARK>
 VINA RESULT:      -2.9      3.077      9.683
  Name = 
  20 active torsions:
  status: ('A' for Active; 'I' for Inactive)
    1  A    between atoms: C_2  and  C_16
    2  A    between atoms: C_2  and  N_22
    3  A    between atoms: C_3  and  C_30
    4  A    between atoms: C_4  and  C_7
    5  A    between atoms: C_4  and  C_11
    6  A    between atoms: C_5  and  C_21
    7  A    between atoms: C_7  and  N_22
    8  A    between atoms: C_9  and  O_23
    9  A    between atoms: C_9  and  C_25
   10  A    between atoms: C_9  and  C_27
   11  A    between atoms: C_10  and  C_35
   12  A    between atoms: C_11  and  C_26
   13  A    between atoms: N_15  and  O_23
   14  A    between atoms: C_16  and  C_27
   15  A    between atoms: C_16  and  C_32
   16  A    between atoms: C_18  and  C_39
   17  A    between atoms: C_19  and  C_21
   18  A    between atoms: C_19  and  C_30
   19  A    between atoms: O_20  and  C_42
   20  A    between atoms: O_20  and  C_46
                            x       y       z     vdW  Elec       q    Type
                         _______ _______ _______ _____ _____    ______ ____

>  <TORSDO>
F 20

$$$$
