=
 OpenBabel11072413153D

 34 37  0  0  1  0  0  0  0  0999 V2000
  161.0570  211.2940  152.7390 C   0  0  0  0  0  2  0  0  0  0  0  0
  161.5710  213.8580  148.4740 C   0  0  0  0  0  3  0  0  0  0  0  0
  160.8650  214.4530  149.4720 N   0  0  0  0  0  0  0  0  0  0  0  0
  160.5290  212.3460  150.5580 C   0  0  0  0  0  0  0  0  0  0  0  0
  160.7290  208.3150  151.9090 C   0  0  0  0  0  3  0  0  0  0  0  0
  160.6800  210.1340  153.6520 C   0  0  0  0  0  0  0  0  0  0  0  0
  160.6660  206.6140  150.0990 C   0  0  0  0  0  0  0  0  0  0  0  0
  161.2590  211.7160  149.5380 C   0  0  0  0  0  0  0  0  0  0  0  0
  163.4830  207.4190  148.3050 C   0  0  0  0  0  1  0  0  0  0  0  0
  159.4270  210.3300  154.4820 C   0  0  0  0  0  2  0  0  0  0  0  0
  161.1450  207.4050  149.0030 N   0  0  0  0  0  0  0  0  0  0  0  0
  160.5590  207.2730  147.7880 O   0  0  0  0  0  1  0  0  0  0  0  0
  162.2620  209.5570  148.6280 C   0  0  0  0  0  2  0  0  0  0  0  0
  161.7810  212.4810  148.4890 C   0  0  0  0  0  3  0  0  0  0  0  0
  161.4710  210.3020  149.5930 N   0  0  0  0  0  2  0  0  0  0  0  0
  159.6170  214.4140  151.5270 N   0  0  0  0  0  1  0  0  0  0  0  0
  162.4110  208.1260  149.1100 C   0  0  2  0  0  3  0  0  0  0  0  0
  161.6130  206.4330  153.7660 C   0  0  0  0  0  3  0  0  0  0  0  0
  160.7990  210.4550  155.1290 C   0  0  0  0  0  2  0  0  0  0  0  0
  161.3800  206.0370  152.4390 C   0  0  0  0  0  0  0  0  0  0  0  0
  161.4040  207.7540  154.1590 C   0  0  0  0  0  3  0  0  0  0  0  0
  160.3460  213.7380  150.5060 C   0  0  0  0  0  0  0  0  0  0  0  0
  160.9550  208.7100  153.2340 C   0  0  0  0  0  0  0  0  0  0  0  0
  159.9780  211.5390  151.6950 C   0  0  0  0  0  2  0  0  0  0  0  0
  160.9440  206.9920  151.5000 C   0  0  0  0  0  0  0  0  0  0  0  0
  159.9800  205.5820  149.8640 O   0  0  0  0  0  0  0  0  0  0  0  0
  161.5890  204.7120  152.0360 O   0  0  0  0  0  0  0  0  0  0  0  0
  160.5870  203.7080  152.1350 C   0  0  0  0  0  2  0  0  0  0  0  0
  162.4640  202.3850  151.5290 O   0  0  0  0  0  1  0  0  0  0  0  0
  161.0710  202.4350  151.4600 C   0  0  2  0  0  3  0  0  0  0  0  0
  160.6110  202.3910  150.0000 C   0  0  1  0  0  3  0  0  0  0  0  0
  161.5690  203.1500  149.0930 C   0  0  0  0  0  1  0  0  0  0  0  0
  161.2380  200.6670  148.2450 C   0  0  0  0  0  1  0  0  0  0  0  0
  160.4120  200.9620  149.4890 C   0  0  0  0  0  2  0  0  0  0  0  0
  1  6  1  0  0  0  0
  2 14  2  0  0  0  0
  2  3  1  0  0  0  0
  3 22  2  0  0  0  0
  4 24  1  0  0  0  0
  5 23  1  0  0  0  0
  6 10  1  0  0  0  0
  6 19  1  0  0  0  0
  7 25  1  0  0  0  0
  8 15  1  0  0  0  0
  8  4  2  0  0  0  0
 10 19  1  0  0  0  0
 11 17  1  0  0  0  0
 11  7  1  0  0  0  0
 12 11  1  0  0  0  0
 13 17  1  0  0  0  0
 13 15  1  0  0  0  0
 14  8  1  0  0  0  0
 17  9  1  6  0  0  0
 18 21  1  0  0  0  0
 20 18  2  0  0  0  0
 22  4  1  0  0  0  0
 22 16  1  0  0  0  0
 23  6  1  0  0  0  0
 23 21  2  0  0  0  0
 24  1  1  0  0  0  0
 25  5  2  0  0  0  0
 25 20  1  0  0  0  0
 26  7  2  0  0  0  0
 27 28  1  0  0  0  0
 27 20  1  0  0  0  0
 30 29  1  6  0  0  0
 30 28  1  0  0  0  0
 31 32  1  6  0  0  0
 31 30  1  0  0  0  0
 33 34  1  0  0  0  0
 34 31  1  0  0  0  0
M  END
>  <MODEL>
1

>  <REMARK>
 VINA RESULT:      -5.6      0.000      0.000
  Name = 
  5 active torsions:
  status: ('A' for Active; 'I' for Inactive)
    1  A    between atoms: O_7  and  C_8
    2  A    between atoms: O_7  and  C_26
    3  A    between atoms: C_8  and  C_11
    4  A    between atoms: C_11  and  C_21
    5  A    between atoms: C_21  and  C_27
                            x       y       z     vdW  Elec       q    Type
                         _______ _______ _______ _____ _____    ______ ____

>  <TORSDO>
F 5

$$$$
=
 OpenBabel11072413153D

 34 37  0  0  1  0  0  0  0  0999 V2000
  158.4900  211.9660  152.8890 C   0  0  0  0  0  2  0  0  0  0  0  0
  161.5670  208.5770  154.9060 C   0  0  0  0  0  3  0  0  0  0  0  0
  160.9010  209.3950  155.7630 N   0  0  0  0  0  0  0  0  0  0  0  0
  160.4590  210.9600  154.0060 C   0  0  0  0  0  0  0  0  0  0  0  0
  159.8780  212.9330  150.2800 C   0  0  0  0  0  3  0  0  0  0  0  0
  158.0550  213.1300  152.0080 C   0  0  0  0  0  0  0  0  0  0  0  0
  161.7890  212.7510  148.7040 C   0  0  0  0  0  0  0  0  0  0  0  0
  161.1400  210.1240  153.1050 C   0  0  0  0  0  0  0  0  0  0  0  0
  161.9740  209.3500  148.2440 C   0  0  0  0  0  1  0  0  0  0  0  0
  157.8490  214.4530  152.7200 C   0  0  0  0  0  2  0  0  0  0  0  0
  162.4040  211.5540  149.2020 N   0  0  0  0  0  0  0  0  0  0  0  0
  163.7550  211.4920  149.2870 O   0  0  0  0  0  1  0  0  0  0  0  0
  161.8650  209.6880  150.7020 C   0  0  0  0  0  2  0  0  0  0  0  0
  161.6980  208.9250  153.5630 C   0  0  0  0  0  3  0  0  0  0  0  0
  161.2410  210.5040  151.7290 N   0  0  0  0  0  2  0  0  0  0  0  0
  159.6570  211.3850  156.2910 N   0  0  0  0  0  1  0  0  0  0  0  0
  161.6220  210.3290  149.3470 C   0  0  2  0  0  3  0  0  0  0  0  0
  158.1770  213.8080  148.2520 C   0  0  0  0  0  3  0  0  0  0  0  0
  156.6480  213.6210  152.2930 C   0  0  0  0  0  2  0  0  0  0  0  0
  159.5150  213.5090  147.9500 C   0  0  0  0  0  0  0  0  0  0  0  0
  157.6970  213.6740  149.5550 C   0  0  0  0  0  3  0  0  0  0  0  0
  160.3470  210.5670  155.3490 C   0  0  0  0  0  0  0  0  0  0  0  0
  158.5450  213.2390  150.5840 C   0  0  0  0  0  0  0  0  0  0  0  0
  159.8450  212.2390  153.5240 C   0  0  0  0  0  2  0  0  0  0  0  0
  160.3690  213.0570  148.9730 C   0  0  0  0  0  0  0  0  0  0  0  0
  162.4790  213.5670  148.0340 O   0  0  0  0  0  0  0  0  0  0  0  0
  160.0040  213.6400  146.6440 O   0  0  0  0  0  0  0  0  0  0  0  0
  159.7900  212.6590  145.6370 C   0  0  0  0  0  2  0  0  0  0  0  0
  158.9260  213.4820  143.5840 O   0  0  0  0  0  1  0  0  0  0  0  0
  160.1160  213.2460  144.2740 C   0  0  2  0  0  3  0  0  0  0  0  0
  161.0100  212.2910  143.4760 C   0  0  1  0  0  3  0  0  0  0  0  0
  160.3130  211.8010  142.2150 C   0  0  0  0  0  1  0  0  0  0  0  0
  163.1530  213.3190  144.3680 C   0  0  0  0  0  1  0  0  0  0  0  0
  162.3670  212.9090  143.1310 C   0  0  0  0  0  2  0  0  0  0  0  0
  1 24  1  0  0  0  0
  2  3  1  0  0  0  0
  4 22  1  0  0  0  0
  5 23  1  0  0  0  0
  6 19  1  0  0  0  0
  6 10  1  0  0  0  0
  6  1  1  0  0  0  0
  7 25  1  0  0  0  0
  7 11  1  0  0  0  0
  8 14  1  0  0  0  0
  8  4  2  0  0  0  0
 11 12  1  0  0  0  0
 11 17  1  0  0  0  0
 13 15  1  0  0  0  0
 14  2  2  0  0  0  0
 15  8  1  0  0  0  0
 17  9  1  6  0  0  0
 17 13  1  0  0  0  0
 18 21  1  0  0  0  0
 19 10  1  0  0  0  0
 20 18  2  0  0  0  0
 20 25  1  0  0  0  0
 21 23  2  0  0  0  0
 22  3  2  0  0  0  0
 22 16  1  0  0  0  0
 23  6  1  0  0  0  0
 24  4  1  0  0  0  0
 25  5  2  0  0  0  0
 26  7  2  0  0  0  0
 27 20  1  0  0  0  0
 28 27  1  0  0  0  0
 30 29  1  6  0  0  0
 30 28  1  0  0  0  0
 31 32  1  6  0  0  0
 31 30  1  0  0  0  0
 34 31  1  0  0  0  0
 34 33  1  0  0  0  0
M  END
>  <MODEL>
2

>  <REMARK>
 VINA RESULT:      -4.3      4.405      7.894
  Name = 
  5 active torsions:
  status: ('A' for Active; 'I' for Inactive)
    1  A    between atoms: O_7  and  C_8
    2  A    between atoms: O_7  and  C_26
    3  A    between atoms: C_8  and  C_11
    4  A    between atoms: C_11  and  C_21
    5  A    between atoms: C_21  and  C_27
                            x       y       z     vdW  Elec       q    Type
                         _______ _______ _______ _____ _____    ______ ____

>  <TORSDO>
F 5

$$$$
=
 OpenBabel11072413153D

 34 37  0  0  1  0  0  0  0  0999 V2000
  160.1870  202.7980  148.4130 C   0  0  0  0  0  2  0  0  0  0  0  0
  160.8340  205.6740  144.3710 C   0  0  0  0  0  3  0  0  0  0  0  0
  160.9160  204.3280  144.1940 N   0  0  0  0  0  0  0  0  0  0  0  0
  161.2780  203.9900  146.5350 C   0  0  0  0  0  0  0  0  0  0  0  0
  161.5180  204.3280  150.7710 C   0  0  0  0  0  3  0  0  0  0  0  0
  160.4290  202.2640  149.8200 C   0  0  0  0  0  0  0  0  0  0  0  0
  162.7030  206.3550  151.5810 C   0  0  0  0  0  0  0  0  0  0  0  0
  161.1920  205.3760  146.7380 C   0  0  0  0  0  0  0  0  0  0  0  0
  160.7390  208.8600  150.2860 C   0  0  0  0  0  1  0  0  0  0  0  0
  161.1580  200.9370  149.9040 C   0  0  0  0  0  2  0  0  0  0  0  0
  162.5310  207.2110  150.4420 N   0  0  0  0  0  0  0  0  0  0  0  0
  163.5690  207.9810  150.0330 O   0  0  0  0  0  1  0  0  0  0  0  0
  161.1820  207.3120  148.3960 C   0  0  0  0  0  2  0  0  0  0  0  0
  160.9690  206.2220  145.6450 C   0  0  0  0  0  3  0  0  0  0  0  0
  161.3180  205.9040  148.0620 N   0  0  0  0  0  2  0  0  0  0  0  0
  161.2050  202.0780  144.9900 N   0  0  0  0  0  1  0  0  0  0  0  0
  161.1970  207.4660  149.9060 C   0  0  2  0  0  3  0  0  0  0  0  0
  160.4370  203.8460  153.2960 C   0  0  0  0  0  3  0  0  0  0  0  0
  159.6560  200.9990  150.1350 C   0  0  0  0  0  2  0  0  0  0  0  0
  161.2700  204.9590  153.1020 C   0  0  0  0  0  0  0  0  0  0  0  0
  160.1510  202.9820  152.2390 C   0  0  0  0  0  3  0  0  0  0  0  0
  161.1310  203.4800  145.2350 C   0  0  0  0  0  0  0  0  0  0  0  0
  160.6920  203.2130  150.9640 C   0  0  0  0  0  0  0  0  0  0  0  0
  161.5020  203.0730  147.7000 C   0  0  0  0  0  2  0  0  0  0  0  0
  161.8050  205.2070  151.8240 C   0  0  0  0  0  0  0  0  0  0  0  0
  163.6490  206.5780  152.3840 O   0  0  0  0  0  0  0  0  0  0  0  0
  161.5610  205.8310  154.1580 O   0  0  0  0  0  0  0  0  0  0  0  0
  160.6340  206.7940  154.6430 C   0  0  0  0  0  2  0  0  0  0  0  0
  161.6200  208.2210  156.2650 O   0  0  0  0  0  1  0  0  0  0  0  0
  161.3490  208.1100  154.9000 C   0  0  2  0  0  3  0  0  0  0  0  0
  160.4920  209.2900  154.4330 C   0  0  1  0  0  3  0  0  0  0  0  0
  159.7040  209.8960  155.5860 C   0  0  0  0  0  1  0  0  0  0  0  0
  160.4440  211.4430  153.0880 C   0  0  0  0  0  1  0  0  0  0  0  0
  161.3150  210.3690  153.7250 C   0  0  0  0  0  2  0  0  0  0  0  0
  1  6  1  0  0  0  0
  2 14  1  0  0  0  0
  3  2  2  0  0  0  0
  3 22  1  0  0  0  0
  4  8  1  0  0  0  0
  4 24  1  0  0  0  0
  5 23  2  0  0  0  0
  5 25  1  0  0  0  0
  6 10  1  0  0  0  0
  6 19  1  0  0  0  0
  6 23  1  0  0  0  0
  7 25  1  0  0  0  0
  7 26  2  0  0  0  0
  8 15  1  0  0  0  0
 10 19  1  0  0  0  0
 11  7  1  0  0  0  0
 12 11  1  0  0  0  0
 13 17  1  0  0  0  0
 14  8  2  0  0  0  0
 15 13  1  0  0  0  0
 16 22  1  0  0  0  0
 17  9  1  6  0  0  0
 17 11  1  0  0  0  0
 20 18  1  0  0  0  0
 20 27  1  0  0  0  0
 21 18  2  0  0  0  0
 22  4  2  0  0  0  0
 23 21  1  0  0  0  0
 24  1  1  0  0  0  0
 25 20  2  0  0  0  0
 27 28  1  0  0  0  0
 28 30  1  0  0  0  0
 30 29  1  1  0  0  0
 31 30  1  0  0  0  0
 31 32  1  1  0  0  0
 33 34  1  0  0  0  0
 34 31  1  0  0  0  0
M  END
>  <MODEL>
3

>  <REMARK>
 VINA RESULT:      -3.5      2.993      7.531
  Name = 
  5 active torsions:
  status: ('A' for Active; 'I' for Inactive)
    1  A    between atoms: O_7  and  C_8
    2  A    between atoms: O_7  and  C_26
    3  A    between atoms: C_8  and  C_11
    4  A    between atoms: C_11  and  C_21
    5  A    between atoms: C_21  and  C_27
                            x       y       z     vdW  Elec       q    Type
                         _______ _______ _______ _____ _____    ______ ____

>  <TORSDO>
F 5

$$$$
=
 OpenBabel11072413153D

 34 37  0  0  1  0  0  0  0  0999 V2000
  160.1510  202.7820  148.4100 C   0  0  0  0  0  2  0  0  0  0  0  0
  160.7560  205.7050  144.3960 C   0  0  0  0  0  3  0  0  0  0  0  0
  160.8510  204.3630  144.2040 N   0  0  0  0  0  0  0  0  0  0  0  0
  161.2250  204.0040  146.5410 C   0  0  0  0  0  0  0  0  0  0  0  0
  161.4740  204.3020  150.7790 C   0  0  0  0  0  3  0  0  0  0  0  0
  160.4040  202.2370  149.8110 C   0  0  0  0  0  0  0  0  0  0  0  0
  162.6420  206.3320  151.6060 C   0  0  0  0  0  0  0  0  0  0  0  0
  161.1250  205.3880  146.7590 C   0  0  0  0  0  0  0  0  0  0  0  0
  160.6490  208.8300  150.3430 C   0  0  0  0  0  1  0  0  0  0  0  0
  161.1470  200.9160  149.8780 C   0  0  0  0  0  2  0  0  0  0  0  0
  162.4580  207.1980  150.4770 N   0  0  0  0  0  0  0  0  0  0  0  0
  163.4860  207.9820  150.0720 O   0  0  0  0  0  1  0  0  0  0  0  0
  161.1000  207.3060  148.4360 C   0  0  0  0  0  2  0  0  0  0  0  0
  160.8900  206.2420  145.6750 C   0  0  0  0  0  3  0  0  0  0  0  0
  161.2500  205.9030  148.0870 N   0  0  0  0  0  2  0  0  0  0  0  0
  161.1660  202.1080  144.9770 N   0  0  0  0  0  1  0  0  0  0  0  0
  161.1200  207.4440  149.9470 C   0  0  2  0  0  3  0  0  0  0  0  0
  160.4070  203.7820  153.3020 C   0  0  0  0  0  3  0  0  0  0  0  0
  159.6440  200.9600  150.1150 C   0  0  0  0  0  2  0  0  0  0  0  0
  161.2280  204.9060  153.1170 C   0  0  0  0  0  0  0  0  0  0  0  0
  160.1270  202.9270  152.2370 C   0  0  0  0  0  3  0  0  0  0  0  0
  161.0780  203.5060  145.2360 C   0  0  0  0  0  0  0  0  0  0  0  0
  160.6610  203.1760  150.9640 C   0  0  0  0  0  0  0  0  0  0  0  0
  161.4610  203.0780  147.6950 C   0  0  0  0  0  2  0  0  0  0  0  0
  161.7570  205.1730  151.8400 C   0  0  0  0  0  0  0  0  0  0  0  0
  163.5880  206.5560  152.4090 O   0  0  0  0  0  0  0  0  0  0  0  0
  161.5140  205.7700  154.1810 O   0  0  0  0  0  0  0  0  0  0  0  0
  160.7320  206.9220  154.4720 C   0  0  0  0  0  2  0  0  0  0  0  0
  159.9640  207.0670  156.7150 O   0  0  0  0  0  1  0  0  0  0  0  0
  161.0330  207.4020  155.8820 C   0  0  2  0  0  3  0  0  0  0  0  0
  161.2630  208.9160  155.8990 C   0  0  1  0  0  3  0  0  0  0  0  0
  159.9590  209.6740  156.1060 C   0  0  0  0  0  1  0  0  0  0  0  0
  163.0200  210.6260  156.5590 C   0  0  0  0  0  1  0  0  0  0  0  0
  162.2980  209.3420  156.9430 C   0  0  0  0  0  2  0  0  0  0  0  0
  1  6  1  0  0  0  0
  2 14  1  0  0  0  0
  3  2  2  0  0  0  0
  3 22  1  0  0  0  0
  4  8  1  0  0  0  0
  4 24  1  0  0  0  0
  5 23  2  0  0  0  0
  5 25  1  0  0  0  0
  6 10  1  0  0  0  0
  6 19  1  0  0  0  0
  6 23  1  0  0  0  0
  7 25  1  0  0  0  0
  7 26  2  0  0  0  0
  8 15  1  0  0  0  0
 10 19  1  0  0  0  0
 11  7  1  0  0  0  0
 12 11  1  0  0  0  0
 13 17  1  0  0  0  0
 14  8  2  0  0  0  0
 15 13  1  0  0  0  0
 16 22  1  0  0  0  0
 17  9  1  6  0  0  0
 17 11  1  0  0  0  0
 20 18  1  0  0  0  0
 20 27  1  0  0  0  0
 21 18  2  0  0  0  0
 22  4  2  0  0  0  0
 23 21  1  0  0  0  0
 24  1  1  0  0  0  0
 25 20  2  0  0  0  0
 27 28  1  0  0  0  0
 28 30  1  0  0  0  0
 30 31  1  0  0  0  0
 30 29  1  1  0  0  0
 31 32  1  1  0  0  0
 31 34  1  0  0  0  0
 33 34  1  0  0  0  0
M  END
>  <MODEL>
4

>  <REMARK>
 VINA RESULT:      -3.4      3.227      7.658
  Name = 
  5 active torsions:
  status: ('A' for Active; 'I' for Inactive)
    1  A    between atoms: O_7  and  C_8
    2  A    between atoms: O_7  and  C_26
    3  A    between atoms: C_8  and  C_11
    4  A    between atoms: C_11  and  C_21
    5  A    between atoms: C_21  and  C_27
                            x       y       z     vdW  Elec       q    Type
                         _______ _______ _______ _____ _____    ______ ____

>  <TORSDO>
F 5

$$$$
=
 OpenBabel11072413153D

 34 37  0  0  1  0  0  0  0  0999 V2000
  160.7560  204.8090  151.9720 C   0  0  0  0  0  2  0  0  0  0  0  0
  160.4790  200.8340  148.9470 C   0  0  0  0  0  3  0  0  0  0  0  0
  160.8410  200.6060  150.2370 N   0  0  0  0  0  0  0  0  0  0  0  0
  161.4290  202.9070  150.5340 C   0  0  0  0  0  0  0  0  0  0  0  0
  161.8810  207.1280  150.2330 C   0  0  0  0  0  3  0  0  0  0  0  0
  161.2060  206.1780  152.4670 C   0  0  0  0  0  0  0  0  0  0  0  0
  162.6480  207.9300  148.0110 C   0  0  0  0  0  0  0  0  0  0  0  0
  161.0560  203.1630  149.2040 C   0  0  0  0  0  0  0  0  0  0  0  0
  160.1000  206.8480  145.9750 C   0  0  0  0  0  1  0  0  0  0  0  0
  162.2110  206.1700  153.6020 C   0  0  0  0  0  2  0  0  0  0  0  0
  162.2150  206.8350  147.1920 N   0  0  0  0  0  0  0  0  0  0  0  0
  163.0290  206.3880  146.2040 O   0  0  0  0  0  1  0  0  0  0  0  0
  160.7380  204.8820  147.3510 C   0  0  0  0  0  2  0  0  0  0  0  0
  160.5790  202.1150  148.4080 C   0  0  0  0  0  3  0  0  0  0  0  0
  161.1550  204.4930  148.6870 N   0  0  0  0  0  2  0  0  0  0  0  0
  161.6690  201.3060  152.3840 N   0  0  0  0  0  1  0  0  0  0  0  0
  160.8240  206.3930  147.2270 C   0  0  2  0  0  3  0  0  0  0  0  0
  161.1090  209.6980  150.9900 C   0  0  0  0  0  3  0  0  0  0  0  0
  160.7510  206.4990  153.8770 C   0  0  0  0  0  2  0  0  0  0  0  0
  161.6630  209.4910  149.7170 C   0  0  0  0  0  0  0  0  0  0  0  0
  160.9460  208.6330  151.8750 C   0  0  0  0  0  3  0  0  0  0  0  0
  161.3070  201.6020  151.0370 C   0  0  0  0  0  0  0  0  0  0  0  0
  161.3340  207.3350  151.5060 C   0  0  0  0  0  0  0  0  0  0  0  0
  161.9270  204.0230  151.4000 C   0  0  0  0  0  2  0  0  0  0  0  0
  162.0410  208.1900  149.3320 C   0  0  0  0  0  0  0  0  0  0  0  0
  163.5760  208.6800  147.6000 O   0  0  0  0  0  0  0  0  0  0  0  0
  161.8290  210.5550  148.8230 O   0  0  0  0  0  0  0  0  0  0  0  0
  161.6940  211.9170  149.2090 C   0  0  0  0  0  2  0  0  0  0  0  0
  162.1890  214.1320  148.5100 O   0  0  0  0  0  1  0  0  0  0  0  0
  162.0760  212.8190  148.0480 C   0  0  2  0  0  3  0  0  0  0  0  0
  161.0260  212.7390  146.9350 C   0  0  1  0  0  3  0  0  0  0  0  0
  159.6270  213.0060  147.4700 C   0  0  0  0  0  1  0  0  0  0  0  0
  162.6660  213.3500  145.0960 C   0  0  0  0  0  1  0  0  0  0  0  0
  161.3380  213.6760  145.7650 C   0  0  0  0  0  2  0  0  0  0  0  0
  1  6  1  0  0  0  0
  2  3  1  0  0  0  0
  3 22  2  0  0  0  0
  4 22  1  0  0  0  0
  4 24  1  0  0  0  0
  5 23  1  0  0  0  0
  6 10  1  0  0  0  0
  6 19  1  0  0  0  0
  7 25  1  0  0  0  0
  8  4  2  0  0  0  0
 10 19  1  0  0  0  0
 11 17  1  0  0  0  0
 11  7  1  0  0  0  0
 12 11  1  0  0  0  0
 13 15  1  0  0  0  0
 14  2  2  0  0  0  0
 14  8  1  0  0  0  0
 15  8  1  0  0  0  0
 17  9  1  6  0  0  0
 17 13  1  0  0  0  0
 18 21  1  0  0  0  0
 20 18  2  0  0  0  0
 22 16  1  0  0  0  0
 23 21  2  0  0  0  0
 23  6  1  0  0  0  0
 24  1  1  0  0  0  0
 25 20  1  0  0  0  0
 25  5  2  0  0  0  0
 26  7  2  0  0  0  0
 27 28  1  0  0  0  0
 27 20  1  0  0  0  0
 30 29  1  1  0  0  0
 30 28  1  0  0  0  0
 31 32  1  1  0  0  0
 31 30  1  0  0  0  0
 33 34  1  0  0  0  0
 34 31  1  0  0  0  0
M  END
>  <MODEL>
5

>  <REMARK>
 VINA RESULT:      -3.4      3.238      8.195
  Name = 
  5 active torsions:
  status: ('A' for Active; 'I' for Inactive)
    1  A    between atoms: O_7  and  C_8
    2  A    between atoms: O_7  and  C_26
    3  A    between atoms: C_8  and  C_11
    4  A    between atoms: C_11  and  C_21
    5  A    between atoms: C_21  and  C_27
                            x       y       z     vdW  Elec       q    Type
                         _______ _______ _______ _____ _____    ______ ____

>  <TORSDO>
F 5

$$$$
=
 OpenBabel11072413153D

 34 37  0  0  1  0  0  0  0  0999 V2000
  160.5550  201.8280  149.3840 C   0  0  0  0  0  2  0  0  0  0  0  0
  160.3510  200.2370  144.6460 C   0  0  0  0  0  3  0  0  0  0  0  0
  160.7300  199.3320  145.5870 N   0  0  0  0  0  0  0  0  0  0  0  0
  161.2630  201.0830  147.1300 C   0  0  0  0  0  0  0  0  0  0  0  0
  161.6060  204.7520  149.2580 C   0  0  0  0  0  3  0  0  0  0  0  0
  160.9740  202.6930  150.5670 C   0  0  0  0  0  0  0  0  0  0  0  0
  162.3350  206.6840  147.8780 C   0  0  0  0  0  0  0  0  0  0  0  0
  160.8720  202.0320  146.1720 C   0  0  0  0  0  0  0  0  0  0  0  0
  159.7970  206.8700  145.5680 C   0  0  0  0  0  1  0  0  0  0  0  0
  161.9890  202.0740  151.5080 C   0  0  0  0  0  2  0  0  0  0  0  0
  161.9220  206.2280  146.5820 N   0  0  0  0  0  0  0  0  0  0  0  0
  162.7390  206.4340  145.5200 O   0  0  0  0  0  1  0  0  0  0  0  0
  160.4960  204.4870  145.6050 C   0  0  0  0  0  2  0  0  0  0  0  0
  160.4150  201.6020  144.9210 C   0  0  0  0  0  3  0  0  0  0  0  0
  160.9330  203.4250  146.4930 N   0  0  0  0  0  2  0  0  0  0  0  0
  161.5580  198.7240  147.7610 N   0  0  0  0  0  1  0  0  0  0  0  0
  160.5430  205.8080  146.3520 C   0  0  2  0  0  3  0  0  0  0  0  0
  160.7770  206.4300  151.3250 C   0  0  0  0  0  3  0  0  0  0  0  0
  160.5230  202.1530  151.9100 C   0  0  0  0  0  2  0  0  0  0  0  0
  161.3250  206.9890  150.1590 C   0  0  0  0  0  0  0  0  0  0  0  0
  160.6480  205.0480  151.4560 C   0  0  0  0  0  3  0  0  0  0  0  0
  161.1780  199.7170  146.8120 C   0  0  0  0  0  0  0  0  0  0  0  0
  161.0650  204.1930  150.4240 C   0  0  0  0  0  0  0  0  0  0  0  0
  161.7400  201.5300  148.4780 C   0  0  0  0  0  2  0  0  0  0  0  0
  161.7330  206.1400  149.1130 C   0  0  0  0  0  0  0  0  0  0  0  0
  163.2400  207.5570  147.9670 O   0  0  0  0  0  0  0  0  0  0  0  0
  161.4570  208.3760  150.0200 O   0  0  0  0  0  0  0  0  0  0  0  0
  162.0610  209.1980  151.0110 C   0  0  0  0  0  2  0  0  0  0  0  0
  160.7760  211.0100  151.8480 O   0  0  0  0  0  1  0  0  0  0  0  0
  161.0120  209.6450  152.0150 C   0  0  2  0  0  3  0  0  0  0  0  0
  161.4790  209.3600  153.4460 C   0  0  1  0  0  3  0  0  0  0  0  0
  161.9220  210.6340  154.1500 C   0  0  0  0  0  1  0  0  0  0  0  0
  160.9060  207.2880  154.7970 C   0  0  0  0  0  1  0  0  0  0  0  0
  160.4180  208.6320  154.2750 C   0  0  0  0  0  2  0  0  0  0  0  0
  1  6  1  0  0  0  0
  2 14  2  0  0  0  0
  2  3  1  0  0  0  0
  3 22  2  0  0  0  0
  4 24  1  0  0  0  0
  5 23  1  0  0  0  0
  6 10  1  0  0  0  0
  6 19  1  0  0  0  0
  7 26  2  0  0  0  0
  7 25  1  0  0  0  0
  8 15  1  0  0  0  0
  8  4  2  0  0  0  0
 10 19  1  0  0  0  0
 11  7  1  0  0  0  0
 12 11  1  0  0  0  0
 13 17  1  0  0  0  0
 13 15  1  0  0  0  0
 14  8  1  0  0  0  0
 17  9  1  6  0  0  0
 17 11  1  0  0  0  0
 18 21  1  0  0  0  0
 20 18  2  0  0  0  0
 22  4  1  0  0  0  0
 22 16  1  0  0  0  0
 23  6  1  0  0  0  0
 23 21  2  0  0  0  0
 24  1  1  0  0  0  0
 25  5  2  0  0  0  0
 25 20  1  0  0  0  0
 27 20  1  0  0  0  0
 27 28  1  0  0  0  0
 28 30  1  0  0  0  0
 30 29  1  1  0  0  0
 30 31  1  0  0  0  0
 31 32  1  1  0  0  0
 31 34  1  0  0  0  0
 34 33  1  0  0  0  0
M  END
>  <MODEL>
6

>  <REMARK>
 VINA RESULT:      -3.3      3.465      8.564
  Name = 
  5 active torsions:
  status: ('A' for Active; 'I' for Inactive)
    1  A    between atoms: O_7  and  C_8
    2  A    between atoms: O_7  and  C_26
    3  A    between atoms: C_8  and  C_11
    4  A    between atoms: C_11  and  C_21
    5  A    between atoms: C_21  and  C_27
                            x       y       z     vdW  Elec       q    Type
                         _______ _______ _______ _____ _____    ______ ____

>  <TORSDO>
F 5

$$$$
=
 OpenBabel11072413153D

 34 37  0  0  1  0  0  0  0  0999 V2000
  162.0970  206.4350  149.6760 C   0  0  0  0  0  2  0  0  0  0  0  0
  161.3110  201.8960  151.6290 C   0  0  0  0  0  3  0  0  0  0  0  0
  161.1890  202.0200  150.2810 N   0  0  0  0  0  0  0  0  0  0  0  0
  160.9380  204.3930  150.4690 C   0  0  0  0  0  0  0  0  0  0  0  0
  160.9230  208.4600  151.7240 C   0  0  0  0  0  3  0  0  0  0  0  0
  161.9140  207.9330  149.4680 C   0  0  0  0  0  0  0  0  0  0  0  0
  159.8280  208.8610  153.9170 C   0  0  0  0  0  0  0  0  0  0  0  0
  161.0670  204.2850  151.8630 C   0  0  0  0  0  0  0  0  0  0  0  0
  161.7810  206.9650  156.0150 C   0  0  0  0  0  1  0  0  0  0  0  0
  161.1600  208.3360  148.2160 C   0  0  0  0  0  2  0  0  0  0  0  0
  159.9610  207.5570  154.5000 N   0  0  0  0  0  0  0  0  0  0  0  0
  158.9220  207.0370  155.1980 O   0  0  0  0  0  1  0  0  0  0  0  0
  161.2070  205.4790  154.1100 C   0  0  0  0  0  2  0  0  0  0  0  0
  161.2540  203.0260  152.4440 C   0  0  0  0  0  3  0  0  0  0  0  0
  161.0210  205.4670  152.6690 N   0  0  0  0  0  2  0  0  0  0  0  0
  160.8880  203.3000  148.2670 N   0  0  0  0  0  1  0  0  0  0  0  0
  161.2720  206.9190  154.5870 C   0  0  2  0  0  3  0  0  0  0  0  0
  162.1200  210.9780  151.7630 C   0  0  0  0  0  3  0  0  0  0  0  0
  162.6730  208.4820  148.2750 C   0  0  0  0  0  2  0  0  0  0  0  0
  161.3040  210.5840  152.8360 C   0  0  0  0  0  0  0  0  0  0  0  0
  162.3310  210.1230  150.6820 C   0  0  0  0  0  3  0  0  0  0  0  0
  161.0070  203.2290  149.6860 C   0  0  0  0  0  0  0  0  0  0  0  0
  161.7320  208.8540  150.6500 C   0  0  0  0  0  0  0  0  0  0  0  0
  160.7530  205.7380  149.8340 C   0  0  0  0  0  2  0  0  0  0  0  0
  160.7100  209.3080  152.8190 C   0  0  0  0  0  0  0  0  0  0  0  0
  158.9290  209.6380  154.3400 O   0  0  0  0  0  0  0  0  0  0  0  0
  161.0870  211.4370  153.9250 O   0  0  0  0  0  0  0  0  0  0  0  0
  160.0820  212.4430  153.9300 C   0  0  0  0  0  2  0  0  0  0  0  0
  160.2500  211.8530  156.2240 O   0  0  0  0  0  1  0  0  0  0  0  0
  159.7570  212.8340  155.3620 C   0  0  2  0  0  3  0  0  0  0  0  0
  158.2440  212.9900  155.5480 C   0  0  1  0  0  3  0  0  0  0  0  0
  157.5080  212.8900  154.2200 C   0  0  0  0  0  1  0  0  0  0  0  0
  156.3080  211.4560  156.1340 C   0  0  0  0  0  1  0  0  0  0  0  0
  157.6710  211.9890  156.5540 C   0  0  0  0  0  2  0  0  0  0  0  0
  1 24  1  0  0  0  0
  2 14  1  0  0  0  0
  3  2  2  0  0  0  0
  4  8  1  0  0  0  0
  5 25  1  0  0  0  0
  6  1  1  0  0  0  0
  6 23  1  0  0  0  0
  7 26  2  0  0  0  0
  7 11  1  0  0  0  0
  8 14  2  0  0  0  0
  8 15  1  0  0  0  0
 10 19  1  0  0  0  0
 10  6  1  0  0  0  0
 11 17  1  0  0  0  0
 11 12  1  0  0  0  0
 13 17  1  0  0  0  0
 15 13  1  0  0  0  0
 16 22  1  0  0  0  0
 17  9  1  1  0  0  0
 18 20  1  0  0  0  0
 19  6  1  0  0  0  0
 20 27  1  0  0  0  0
 21 18  2  0  0  0  0
 22  3  1  0  0  0  0
 22  4  2  0  0  0  0
 23 21  1  0  0  0  0
 23  5  2  0  0  0  0
 24  4  1  0  0  0  0
 25 20  2  0  0  0  0
 25  7  1  0  0  0  0
 27 28  1  0  0  0  0
 28 30  1  0  0  0  0
 30 31  1  0  0  0  0
 30 29  1  1  0  0  0
 31 32  1  6  0  0  0
 31 34  1  0  0  0  0
 33 34  1  0  0  0  0
M  END
>  <MODEL>
7

>  <REMARK>
 VINA RESULT:      -3.2      3.552      8.441
  Name = 
  5 active torsions:
  status: ('A' for Active; 'I' for Inactive)
    1  A    between atoms: O_7  and  C_8
    2  A    between atoms: O_7  and  C_26
    3  A    between atoms: C_8  and  C_11
    4  A    between atoms: C_11  and  C_21
    5  A    between atoms: C_21  and  C_27
                            x       y       z     vdW  Elec       q    Type
                         _______ _______ _______ _____ _____    ______ ____

>  <TORSDO>
F 5

$$$$
=
 OpenBabel11072413153D

 34 37  0  0  1  0  0  0  0  0999 V2000
  161.6510  203.9030  146.0020 C   0  0  0  0  0  2  0  0  0  0  0  0
  161.2050  198.9490  146.5350 C   0  0  0  0  0  3  0  0  0  0  0  0
  160.7290  199.4930  145.3840 N   0  0  0  0  0  0  0  0  0  0  0  0
  160.6530  201.6670  146.3820 C   0  0  0  0  0  0  0  0  0  0  0  0
  161.1710  205.1110  148.8270 C   0  0  0  0  0  3  0  0  0  0  0  0
  161.4900  205.3800  146.3420 C   0  0  0  0  0  0  0  0  0  0  0  0
  160.7280  204.7410  151.2430 C   0  0  0  0  0  0  0  0  0  0  0  0
  161.1480  201.1230  147.5780 C   0  0  0  0  0  0  0  0  0  0  0  0
  163.0820  202.3580  152.0120 C   0  0  0  0  0  1  0  0  0  0  0  0
  160.4460  206.1300  145.5390 C   0  0  0  0  0  2  0  0  0  0  0  0
  160.9520  203.3260  151.3190 N   0  0  0  0  0  0  0  0  0  0  0  0
  160.1160  202.5650  152.0670 O   0  0  0  0  0  1  0  0  0  0  0  0
  161.9450  201.5380  149.9630 C   0  0  0  0  0  2  0  0  0  0  0  0
  161.4240  199.7530  147.6520 C   0  0  0  0  0  3  0  0  0  0  0  0
  161.3770  201.9810  148.7010 N   0  0  0  0  0  2  0  0  0  0  0  0
  159.9590  201.3370  144.0460 N   0  0  0  0  0  1  0  0  0  0  0  0
  162.2050  202.7500  150.8390 C   0  0  2  0  0  3  0  0  0  0  0  0
  162.4520  207.5330  149.3450 C   0  0  0  0  0  3  0  0  0  0  0  0
  161.9250  206.3140  145.2300 C   0  0  0  0  0  2  0  0  0  0  0  0
  161.9380  206.7810  150.4140 C   0  0  0  0  0  0  0  0  0  0  0  0
  162.3240  207.0800  148.0330 C   0  0  0  0  0  3  0  0  0  0  0  0
  160.4520  200.8200  145.2800 C   0  0  0  0  0  0  0  0  0  0  0  0
  161.6780  205.8640  147.7590 C   0  0  0  0  0  0  0  0  0  0  0  0
  160.3680  203.1350  146.2860 C   0  0  0  0  0  2  0  0  0  0  0  0
  161.3020  205.5530  150.1510 C   0  0  0  0  0  0  0  0  0  0  0  0
  160.0150  205.3020  152.1190 O   0  0  0  0  0  0  0  0  0  0  0  0
  162.0640  207.2290  151.7340 O   0  0  0  0  0  0  0  0  0  0  0  0
  161.9420  208.5980  152.1010 C   0  0  0  0  0  2  0  0  0  0  0  0
  160.1240  210.0620  152.5380 O   0  0  0  0  0  1  0  0  0  0  0  0
  160.6460  208.8090  152.8650 C   0  0  2  0  0  3  0  0  0  0  0  0
  160.8880  208.7150  154.3750 C   0  0  1  0  0  3  0  0  0  0  0  0
  160.0680  209.7460  155.1350 C   0  0  0  0  0  1  0  0  0  0  0  0
  159.7030  207.3230  156.1370 C   0  0  0  0  0  1  0  0  0  0  0  0
  160.6240  207.3110  154.9250 C   0  0  0  0  0  2  0  0  0  0  0  0
  1 24  1  0  0  0  0
  1  6  1  0  0  0  0
  2 14  1  0  0  0  0
  3  2  2  0  0  0  0
  4  8  1  0  0  0  0
  5 25  1  0  0  0  0
  6 23  1  0  0  0  0
  7 11  1  0  0  0  0
  7 26  2  0  0  0  0
  8 14  2  0  0  0  0
  8 15  1  0  0  0  0
 10  6  1  0  0  0  0
 11 12  1  0  0  0  0
 13 17  1  0  0  0  0
 15 13  1  0  0  0  0
 16 22  1  0  0  0  0
 17 11  1  0  0  0  0
 17  9  1  1  0  0  0
 18 20  1  0  0  0  0
 19 10  1  0  0  0  0
 19  6  1  0  0  0  0
 20 27  1  0  0  0  0
 21 18  2  0  0  0  0
 22  3  1  0  0  0  0
 22  4  2  0  0  0  0
 23 21  1  0  0  0  0
 23  5  2  0  0  0  0
 24  4  1  0  0  0  0
 25 20  2  0  0  0  0
 25  7  1  0  0  0  0
 27 28  1  0  0  0  0
 28 30  1  0  0  0  0
 30 29  1  1  0  0  0
 30 31  1  0  0  0  0
 31 34  1  0  0  0  0
 31 32  1  1  0  0  0
 34 33  1  0  0  0  0
M  END
>  <MODEL>
8

>  <REMARK>
 VINA RESULT:      -3.1      3.992      8.844
  Name = 
  5 active torsions:
  status: ('A' for Active; 'I' for Inactive)
    1  A    between atoms: O_7  and  C_8
    2  A    between atoms: O_7  and  C_26
    3  A    between atoms: C_8  and  C_11
    4  A    between atoms: C_11  and  C_21
    5  A    between atoms: C_21  and  C_27
                            x       y       z     vdW  Elec       q    Type
                         _______ _______ _______ _____ _____    ______ ____

>  <TORSDO>
F 5

$$$$
=
 OpenBabel11072413153D

 34 37  0  0  1  0  0  0  0  0999 V2000
  161.7890  204.8500  148.0850 C   0  0  0  0  0  2  0  0  0  0  0  0
  161.3820  200.8520  151.0640 C   0  0  0  0  0  3  0  0  0  0  0  0
  160.9790  200.7060  149.7740 N   0  0  0  0  0  0  0  0  0  0  0  0
  160.8010  203.0780  149.5070 C   0  0  0  0  0  0  0  0  0  0  0  0
  161.0960  207.3090  149.8580 C   0  0  0  0  0  3  0  0  0  0  0  0
  161.5830  206.2830  147.6090 C   0  0  0  0  0  0  0  0  0  0  0  0
  160.4910  208.2060  152.0940 C   0  0  0  0  0  0  0  0  0  0  0  0
  161.2190  203.2480  150.8370 C   0  0  0  0  0  0  0  0  0  0  0  0
  162.8200  206.6710  154.1000 C   0  0  0  0  0  1  0  0  0  0  0  0
  160.5860  206.4640  146.4800 C   0  0  0  0  0  2  0  0  0  0  0  0
  160.7300  207.0420  152.8970 N   0  0  0  0  0  0  0  0  0  0  0  0
  159.8550  206.7320  153.8850 O   0  0  0  0  0  1  0  0  0  0  0  0
  161.8420  204.8630  152.7070 C   0  0  0  0  0  2  0  0  0  0  0  0
  161.5100  202.1240  151.6190 C   0  0  0  0  0  3  0  0  0  0  0  0
  161.3570  204.5690  151.3690 N   0  0  0  0  0  2  0  0  0  0  0  0
  160.2760  201.5650  147.6410 N   0  0  0  0  0  1  0  0  0  0  0  0
  162.0220  206.3640  152.8480 C   0  0  2  0  0  3  0  0  0  0  0  0
  162.3010  209.7140  149.1230 C   0  0  0  0  0  3  0  0  0  0  0  0
  162.0800  206.5350  146.1990 C   0  0  0  0  0  2  0  0  0  0  0  0
  161.7250  209.5910  150.3980 C   0  0  0  0  0  0  0  0  0  0  0  0
  162.2710  208.6460  148.2260 C   0  0  0  0  0  3  0  0  0  0  0  0
  160.6900  201.7770  148.9880 C   0  0  0  0  0  0  0  0  0  0  0  0
  161.6640  207.4330  148.5830 C   0  0  0  0  0  0  0  0  0  0  0  0
  160.5010  204.2740  148.6560 C   0  0  0  0  0  2  0  0  0  0  0  0
  161.1270  208.3720  150.7710 C   0  0  0  0  0  0  0  0  0  0  0  0
  159.7100  209.1010  152.5180 O   0  0  0  0  0  0  0  0  0  0  0  0
  161.7520  210.6570  151.3050 O   0  0  0  0  0  0  0  0  0  0  0  0
  161.0930  211.8940  151.0630 C   0  0  0  0  0  2  0  0  0  0  0  0
  160.7720  211.5300  153.3870 O   0  0  0  0  0  1  0  0  0  0  0  0
  160.3920  212.3570  152.3290 C   0  0  2  0  0  3  0  0  0  0  0  0
  158.8710  212.3180  152.1480 C   0  0  1  0  0  3  0  0  0  0  0  0
  158.1620  212.0260  153.4620 C   0  0  0  0  0  1  0  0  0  0  0  0
  157.7150  213.3610  150.1420 C   0  0  0  0  0  1  0  0  0  0  0  0
  158.3220  213.6000  151.5180 C   0  0  0  0  0  2  0  0  0  0  0  0
  1 24  1  0  0  0  0
  2 14  1  0  0  0  0
  3  2  2  0  0  0  0
  4  8  1  0  0  0  0
  5 25  1  0  0  0  0
  6  1  1  0  0  0  0
  6 23  1  0  0  0  0
  7 26  2  0  0  0  0
  7 11  1  0  0  0  0
  8 15  1  0  0  0  0
  8 14  2  0  0  0  0
 10  6  1  0  0  0  0
 11 12  1  0  0  0  0
 13 17  1  0  0  0  0
 15 13  1  0  0  0  0
 16 22  1  0  0  0  0
 17 11  1  0  0  0  0
 17  9  1  1  0  0  0
 18 20  1  0  0  0  0
 19 10  1  0  0  0  0
 19  6  1  0  0  0  0
 20 25  2  0  0  0  0
 20 27  1  0  0  0  0
 21 23  1  0  0  0  0
 21 18  2  0  0  0  0
 22  4  2  0  0  0  0
 22  3  1  0  0  0  0
 23  5  2  0  0  0  0
 24  4  1  0  0  0  0
 25  7  1  0  0  0  0
 28 27  1  0  0  0  0
 28 30  1  0  0  0  0
 30 29  1  1  0  0  0
 31 30  1  0  0  0  0
 31 32  1  1  0  0  0
 33 34  1  0  0  0  0
 34 31  1  0  0  0  0
M  END
>  <MODEL>
9

>  <REMARK>
 VINA RESULT:      -2.9      3.056      8.580
  Name = 
  5 active torsions:
  status: ('A' for Active; 'I' for Inactive)
    1  A    between atoms: O_7  and  C_8
    2  A    between atoms: O_7  and  C_26
    3  A    between atoms: C_8  and  C_11
    4  A    between atoms: C_11  and  C_21
    5  A    between atoms: C_21  and  C_27
                            x       y       z     vdW  Elec       q    Type
                         _______ _______ _______ _____ _____    ______ ____

>  <TORSDO>
F 5

$$$$
