=
 OpenBabel11072413043D

 37 42  0  0  1  0  0  0  0  0999 V2000
  161.1200  206.9510  154.5570 C   0  0  0  0  0  0  0  0  0  0  0  0
  160.7870  204.3490  151.9730 O   0  0  0  0  0  0  0  0  0  0  0  0
  160.3550  208.7590  157.2180 N   0  0  0  0  0  1  0  0  0  0  0  0
  160.8660  210.3510  155.0350 C   0  0  0  0  0  2  0  0  0  0  0  0
  160.4230  208.9100  153.2490 C   0  0  0  0  0  3  0  0  0  0  0  0
  161.4420  208.2360  156.4030 C   0  0  2  0  0  3  0  0  0  0  0  0
  161.7850  209.1360  155.1960 C   0  0  1  0  0  3  0  0  0  0  0  0
  161.0620  206.9550  155.8420 N   0  0  0  0  0  0  0  0  0  0  0  0
  161.5490  208.2510  153.9650 C   0  0  1  0  0  3  0  0  0  0  0  0
  160.0740  210.0430  153.8260 C   0  0  0  0  0  0  0  0  0  0  0  0
  160.8600  205.7450  153.8240 N   0  0  0  0  0  2  0  0  0  0  0  0
  160.9770  205.5140  152.4130 C   0  0  0  0  0  0  0  0  0  0  0  0
  161.3440  206.6040  151.4530 C   0  0  1  0  0  3  0  0  0  0  0  0
  163.4650  205.7170  152.0430 F   0  0  0  0  0  0  0  0  0  0  0  0
  162.8220  206.5220  151.1210 C   0  0  0  0  0  2  0  0  0  0  0  0
  160.5750  206.5120  150.2540 O   0  0  0  0  0  0  0  0  0  0  0  0
  161.4840  206.9720  148.0680 C   0  0  0  0  0  3  0  0  0  0  0  0
  161.0840  206.0430  149.0360 C   0  0  0  0  0  0  0  0  0  0  0  0
  161.2030  204.6710  148.7630 C   0  0  0  0  0  3  0  0  0  0  0  0
  161.9970  206.5370  146.8420 C   0  0  0  0  0  3  0  0  0  0  0  0
  162.1140  205.1700  146.5770 C   0  0  0  0  0  3  0  0  0  0  0  0
  161.7170  204.2370  147.5380 C   0  0  0  0  0  3  0  0  0  0  0  0
  159.0600  210.8840  153.3560 O   0  0  0  0  0  0  0  0  0  0  0  0
  160.0250  213.9710  151.4710 C   0  0  0  0  0  2  0  0  0  0  0  0
  158.4780  214.4530  154.3210 C   0  0  0  0  0  1  0  0  0  0  0  0
  157.7840  213.4500  148.4930 C   0  0  2  0  0  3  0  0  0  0  0  0
  155.7460  213.5000  154.0310 O   0  0  0  0  0  1  0  0  0  0  0  0
  156.7630  212.8870  153.2960 C   0  0  1  0  0  3  0  0  0  0  0  0
  159.5650  214.4380  150.0960 C   0  0  0  0  0  2  0  0  0  0  0  0
  159.2130  212.2970  153.2420 C   0  0  1  0  0  3  0  0  0  0  0  0
  157.2470  214.4520  149.3330 O   0  0  0  0  0  0  0  0  0  0  0  0
  156.9040  212.3680  148.4440 O   0  0  0  0  0  1  0  0  0  0  0  0
  158.2850  213.6690  149.8700 C   0  0  1  0  0  0  0  0  0  0  0  0
  156.8520  213.5090  151.9110 C   0  0  0  0  0  2  0  0  0  0  0  0
  159.2540  212.6830  151.7560 C   0  0  1  0  0  3  0  0  0  0  0  0
  158.1020  213.0080  154.0250 C   0  0  1  0  0  3  0  0  0  0  0  0
  157.8990  212.7920  151.0470 C   0  0  2  0  0  3  0  0  0  0  0  0
  1  8  2  0  0  0  0
  2 12  2  0  0  0  0
  5 10  2  0  0  0  0
  6  3  1  6  0  0  0
  7  4  1  6  0  0  0
  7  6  1  0  0  0  0
  8  6  1  0  0  0  0
  9  5  1  6  0  0  0
  9  1  1  0  0  0  0
  9  7  1  0  0  0  0
 10  4  1  0  0  0  0
 11  1  1  0  0  0  0
 12 11  1  0  0  0  0
 13 15  1  6  0  0  0
 13 12  1  0  0  0  0
 15 14  1  0  0  0  0
 16 13  1  0  0  0  0
 17 18  1  0  0  0  0
 18 16  1  0  0  0  0
 19 18  2  0  0  0  0
 20 17  2  0  0  0  0
 21 20  1  0  0  0  0
 21 22  2  0  0  0  0
 22 19  1  0  0  0  0
 23 10  1  0  0  0  0
 26 32  1  1  0  0  0
 26 31  1  0  0  0  0
 26 33  1  0  0  0  0
 28 36  1  0  0  0  0
 28 27  1  1  0  0  0
 29 24  1  0  0  0  0
 30 23  1  6  0  0  0
 30 36  1  0  0  0  0
 31 33  1  0  0  0  0
 33 29  1  1  0  0  0
 33 37  1  0  0  0  0
 34 28  1  0  0  0  0
 35 24  1  1  0  0  0
 35 30  1  0  0  0  0
 36 25  1  6  0  0  0
 37 35  1  0  0  0  0
 37 34  1  1  0  0  0
M  END
>  <MODEL>
1

>  <REMARK>
 VINA RESULT:      -6.5      0.000      0.000
  Name = 
  6 active torsions:
  status: ('A' for Active; 'I' for Inactive)
    1  A    between atoms: C_8  and  O_20
    2  A    between atoms: C_8  and  C_24
    3  A    between atoms: C_8  and  C_34
    4  A    between atoms: C_9  and  O_20
    5  A    between atoms: O_16  and  C_17
    6  A    between atoms: O_16  and  C_29
                            x       y       z     vdW  Elec       q    Type
                         _______ _______ _______ _____ _____    ______ ____

>  <TORSDO>
F 6

$$$$
=
 OpenBabel11072413043D

 37 42  0  0  1  0  0  0  0  0999 V2000
  161.6370  209.4870  148.6370 C   0  0  0  0  0  0  0  0  0  0  0  0
  160.9430  212.4050  146.5000 O   0  0  0  0  0  0  0  0  0  0  0  0
  161.1340  206.5850  150.1380 N   0  0  0  0  0  1  0  0  0  0  0  0
  161.8660  208.5310  151.9360 C   0  0  0  0  0  2  0  0  0  0  0  0
  161.2260  210.4940  150.8390 C   0  0  0  0  0  3  0  0  0  0  0  0
  162.1370  207.4860  149.5890 C   0  0  2  0  0  3  0  0  0  0  0  0
  162.6040  208.5610  150.5940 C   0  0  1  0  0  3  0  0  0  0  0  0
  161.5790  208.2140  148.4660 N   0  0  0  0  0  0  0  0  0  0  0  0
  162.2470  209.8990  149.9340 C   0  0  1  0  0  3  0  0  0  0  0  0
  161.0400  209.7570  151.9170 C   0  0  0  0  0  0  0  0  0  0  0  0
  161.2110  210.3780  147.5950 N   0  0  0  0  0  2  0  0  0  0  0  0
  161.2960  211.8090  147.5520 C   0  0  0  0  0  0  0  0  0  0  0  0
  161.8140  212.6130  148.7050 C   0  0  1  0  0  3  0  0  0  0  0  0
  163.8790  212.0780  147.6660 F   0  0  0  0  0  0  0  0  0  0  0  0
  163.2450  213.0360  148.4360 C   0  0  0  0  0  2  0  0  0  0  0  0
  161.0050  213.7680  148.9310 O   0  0  0  0  0  0  0  0  0  0  0  0
  159.6820  213.7200  150.9470 C   0  0  0  0  0  3  0  0  0  0  0  0
  159.7480  213.7290  149.5490 C   0  0  0  0  0  0  0  0  0  0  0  0
  158.5570  213.6990  148.8040 C   0  0  0  0  0  3  0  0  0  0  0  0
  158.4440  213.6820  151.5950 C   0  0  0  0  0  3  0  0  0  0  0  0
  157.2630  213.6530  150.8480 C   0  0  0  0  0  3  0  0  0  0  0  0
  157.3200  213.6620  149.4520 C   0  0  0  0  0  3  0  0  0  0  0  0
  160.1560  210.0850  152.9490 O   0  0  0  0  0  0  0  0  0  0  0  0
  159.5980  213.1010  155.0950 C   0  0  0  0  0  2  0  0  0  0  0  0
  161.9230  211.0250  156.1120 C   0  0  0  0  0  1  0  0  0  0  0  0
  156.1010  212.2700  156.2110 C   0  0  2  0  0  3  0  0  0  0  0  0
  160.6260  208.5480  156.9120 O   0  0  0  0  0  1  0  0  0  0  0  0
  160.0540  209.3190  155.8980 C   0  0  1  0  0  3  0  0  0  0  0  0
  158.3480  213.5130  155.8620 C   0  0  0  0  0  2  0  0  0  0  0  0
  160.5070  210.9480  154.0280 C   0  0  1  0  0  3  0  0  0  0  0  0
  157.0150  212.0220  157.2610 O   0  0  0  0  0  0  0  0  0  0  0  0
  155.4970  211.0710  155.8300 O   0  0  0  0  0  1  0  0  0  0  0  0
  157.5640  212.2280  155.9820 C   0  0  1  0  0  0  0  0  0  0  0  0
  158.9920  210.2390  156.4810 C   0  0  0  0  0  2  0  0  0  0  0  0
  159.2700  211.7530  154.4550 C   0  0  1  0  0  3  0  0  0  0  0  0
  161.1260  210.1320  155.1710 C   0  0  1  0  0  3  0  0  0  0  0  0
  158.2800  211.0340  155.3780 C   0  0  2  0  0  3  0  0  0  0  0  0
  1  9  1  0  0  0  0
  2 12  2  0  0  0  0
  5 10  2  0  0  0  0
  6  3  1  1  0  0  0
  6  7  1  0  0  0  0
  7  4  1  1  0  0  0
  8  1  2  0  0  0  0
  8  6  1  0  0  0  0
  9  7  1  0  0  0  0
  9  5  1  1  0  0  0
 10  4  1  0  0  0  0
 10 23  1  0  0  0  0
 11  1  1  0  0  0  0
 12 11  1  0  0  0  0
 12 13  1  0  0  0  0
 13 15  1  6  0  0  0
 13 16  1  0  0  0  0
 14 15  1  0  0  0  0
 16 18  1  0  0  0  0
 17 20  1  0  0  0  0
 18 17  2  0  0  0  0
 19 22  2  0  0  0  0
 19 18  1  0  0  0  0
 21 20  2  0  0  0  0
 22 21  1  0  0  0  0
 24 29  1  0  0  0  0
 26 32  1  6  0  0  0
 26 31  1  0  0  0  0
 28 34  1  0  0  0  0
 28 27  1  1  0  0  0
 30 23  1  6  0  0  0
 30 35  1  0  0  0  0
 30 36  1  0  0  0  0
 33 29  1  6  0  0  0
 33 26  1  0  0  0  0
 33 31  1  0  0  0  0
 35 24  1  1  0  0  0
 35 37  1  0  0  0  0
 36 28  1  0  0  0  0
 36 25  1  1  0  0  0
 37 33  1  0  0  0  0
 37 34  1  1  0  0  0
M  END
>  <MODEL>
2

>  <REMARK>
 VINA RESULT:      -6.0      3.220      6.780
  Name = 
  6 active torsions:
  status: ('A' for Active; 'I' for Inactive)
    1  A    between atoms: C_8  and  O_20
    2  A    between atoms: C_8  and  C_24
    3  A    between atoms: C_8  and  C_34
    4  A    between atoms: C_9  and  O_20
    5  A    between atoms: O_16  and  C_17
    6  A    between atoms: O_16  and  C_29
                            x       y       z     vdW  Elec       q    Type
                         _______ _______ _______ _____ _____    ______ ____

>  <TORSDO>
F 6

$$$$
=
 OpenBabel11072413043D

 37 42  0  0  1  0  0  0  0  0999 V2000
  161.0370  208.2970  151.8720 C   0  0  0  0  0  0  0  0  0  0  0  0
  160.2750  204.8150  150.9490 O   0  0  0  0  0  0  0  0  0  0  0  0
  160.4880  211.4640  152.6500 N   0  0  0  0  0  1  0  0  0  0  0  0
  162.2900  211.2350  150.5860 C   0  0  0  0  0  2  0  0  0  0  0  0
  161.7540  209.1470  149.6820 C   0  0  0  0  0  3  0  0  0  0  0  0
  161.3830  210.3290  152.8290 C   0  0  2  0  0  3  0  0  0  0  0  0
  162.4380  210.2040  151.7100 C   0  0  1  0  0  3  0  0  0  0  0  0
  160.6220  209.0960  152.7910 N   0  0  0  0  0  0  0  0  0  0  0  0
  162.1780  208.8320  151.0730 C   0  0  1  0  0  3  0  0  0  0  0  0
  161.8310  210.4390  149.4280 C   0  0  0  0  0  0  0  0  0  0  0  0
  160.4630  206.9890  151.7350 N   0  0  0  0  0  2  0  0  0  0  0  0
  160.8570  205.9280  150.8530 C   0  0  0  0  0  0  0  0  0  0  0  0
  161.9510  206.0930  149.8440 C   0  0  1  0  0  3  0  0  0  0  0  0
  163.1620  205.7470  151.8560 F   0  0  0  0  0  0  0  0  0  0  0  0
  163.2930  206.1750  150.5480 C   0  0  0  0  0  2  0  0  0  0  0  0
  161.9600  205.0100  148.9140 O   0  0  0  0  0  0  0  0  0  0  0  0
  161.9790  204.1490  146.6610 C   0  0  0  0  0  3  0  0  0  0  0  0
  161.5760  205.1320  147.5720 C   0  0  0  0  0  0  0  0  0  0  0  0
  160.8000  206.2120  147.1200 C   0  0  0  0  0  3  0  0  0  0  0  0
  161.6130  204.2420  145.3150 C   0  0  0  0  0  3  0  0  0  0  0  0
  160.8400  205.3190  144.8720 C   0  0  0  0  0  3  0  0  0  0  0  0
  160.4330  206.3030  145.7750 C   0  0  0  0  0  3  0  0  0  0  0  0
  161.5170  211.0170  148.1950 O   0  0  0  0  0  0  0  0  0  0  0  0
  162.5860  214.1410  146.4310 C   0  0  0  0  0  2  0  0  0  0  0  0
  160.0640  214.4530  148.5020 C   0  0  0  0  0  1  0  0  0  0  0  0
  161.6760  213.0700  142.9400 C   0  0  2  0  0  3  0  0  0  0  0  0
  157.8080  212.9900  147.3950 O   0  0  0  0  0  1  0  0  0  0  0  0
  159.1040  212.5460  147.1280 C   0  0  1  0  0  3  0  0  0  0  0  0
  162.5810  214.4480  144.9390 C   0  0  0  0  0  2  0  0  0  0  0  0
  161.4720  212.4270  147.9860 C   0  0  1  0  0  3  0  0  0  0  0  0
  160.7210  213.9910  143.4270 O   0  0  0  0  0  0  0  0  0  0  0  0
  161.0580  211.8400  142.7090 O   0  0  0  0  0  1  0  0  0  0  0  0
  161.6080  213.4430  144.3710 C   0  0  1  0  0  0  0  0  0  0  0  0
  159.5840  213.1090  145.7990 C   0  0  0  0  0  2  0  0  0  0  0  0
  161.9800  212.7450  146.5720 C   0  0  1  0  0  3  0  0  0  0  0  0
  160.0550  212.9510  148.2550 C   0  0  1  0  0  3  0  0  0  0  0  0
  160.9710  212.5640  145.4330 C   0  0  2  0  0  3  0  0  0  0  0  0
  1  8  2  0  0  0  0
  6  3  1  6  0  0  0
  7  4  1  6  0  0  0
  7  6  1  0  0  0  0
  8  6  1  0  0  0  0
  9  5  1  6  0  0  0
  9  7  1  0  0  0  0
  9  1  1  0  0  0  0
 10  5  2  0  0  0  0
 10  4  1  0  0  0  0
 11  1  1  0  0  0  0
 12  2  2  0  0  0  0
 12 11  1  0  0  0  0
 13 15  1  1  0  0  0
 13 12  1  0  0  0  0
 15 14  1  0  0  0  0
 16 13  1  0  0  0  0
 17 18  1  0  0  0  0
 18 16  1  0  0  0  0
 19 18  2  0  0  0  0
 20 17  2  0  0  0  0
 21 20  1  0  0  0  0
 21 22  2  0  0  0  0
 22 19  1  0  0  0  0
 23 10  1  0  0  0  0
 26 32  1  1  0  0  0
 26 31  1  0  0  0  0
 26 33  1  0  0  0  0
 28 27  1  1  0  0  0
 28 36  1  0  0  0  0
 29 24  1  0  0  0  0
 30 23  1  6  0  0  0
 30 36  1  0  0  0  0
 31 33  1  0  0  0  0
 33 29  1  1  0  0  0
 33 37  1  0  0  0  0
 34 28  1  0  0  0  0
 35 24  1  1  0  0  0
 35 30  1  0  0  0  0
 36 25  1  6  0  0  0
 37 34  1  1  0  0  0
 37 35  1  0  0  0  0
M  END
>  <MODEL>
3

>  <REMARK>
 VINA RESULT:      -5.6      3.511      4.694
  Name = 
  6 active torsions:
  status: ('A' for Active; 'I' for Inactive)
    1  A    between atoms: C_8  and  O_20
    2  A    between atoms: C_8  and  C_24
    3  A    between atoms: C_8  and  C_34
    4  A    between atoms: C_9  and  O_20
    5  A    between atoms: O_16  and  C_17
    6  A    between atoms: O_16  and  C_29
                            x       y       z     vdW  Elec       q    Type
                         _______ _______ _______ _____ _____    ______ ____

>  <TORSDO>
F 6

$$$$
=
 OpenBabel11072413043D

 37 42  0  0  1  0  0  0  0  0999 V2000
  157.2530  213.9930  153.6360 C   0  0  0  0  0  0  0  0  0  0  0  0
  156.3080  213.7600  157.1870 O   0  0  0  0  0  0  0  0  0  0  0  0
  157.0110  213.6280  150.3580 N   0  0  0  0  0  1  0  0  0  0  0  0
  159.4020  212.6530  151.3040 C   0  0  0  0  0  2  0  0  0  0  0  0
  158.9000  212.1750  153.5370 C   0  0  0  0  0  3  0  0  0  0  0  0
  157.5510  214.4520  151.4310 C   0  0  2  0  0  3  0  0  0  0  0  0
  158.9190  213.9570  151.9490 C   0  0  1  0  0  3  0  0  0  0  0  0
  156.6610  214.4130  152.5730 N   0  0  0  0  0  0  0  0  0  0  0  0
  158.6880  213.6440  153.4330 C   0  0  1  0  0  3  0  0  0  0  0  0
  159.2950  211.6560  152.3900 C   0  0  0  0  0  0  0  0  0  0  0  0
  156.5560  213.9660  154.8900 N   0  0  0  0  0  2  0  0  0  0  0  0
  157.0670  213.6370  156.1890 C   0  0  0  0  0  0  0  0  0  0  0  0
  158.4780  213.1800  156.4010 C   0  0  1  0  0  3  0  0  0  0  0  0
  160.4750  214.4370  156.6530 F   0  0  0  0  0  0  0  0  0  0  0  0
  159.2350  214.2080  157.2200 C   0  0  0  0  0  2  0  0  0  0  0  0
  158.5140  211.9150  157.0610 O   0  0  0  0  0  0  0  0  0  0  0  0
  159.0270  209.7820  156.0590 C   0  0  0  0  0  3  0  0  0  0  0  0
  159.4480  210.9120  156.7700 C   0  0  0  0  0  0  0  0  0  0  0  0
  160.7900  211.0100  157.1720 C   0  0  0  0  0  3  0  0  0  0  0  0
  159.9340  208.7630  155.7520 C   0  0  0  0  0  3  0  0  0  0  0  0
  161.2680  208.8680  156.1540 C   0  0  0  0  0  3  0  0  0  0  0  0
  161.6960  209.9920  156.8640 C   0  0  0  0  0  3  0  0  0  0  0  0
  159.5910  210.3030  152.2010 O   0  0  0  0  0  0  0  0  0  0  0  0
  161.9220  207.4320  152.7810 C   0  0  0  0  0  2  0  0  0  0  0  0
  163.3340  210.3250  152.1560 C   0  0  0  0  0  1  0  0  0  0  0  0
  160.9820  205.4140  149.7470 C   0  0  2  0  0  3  0  0  0  0  0  0
  162.7380  211.0360  149.4000 O   0  0  0  0  0  1  0  0  0  0  0  0
  161.8190  210.2700  150.1190 C   0  0  1  0  0  3  0  0  0  0  0  0
  162.0820  206.1500  151.9750 C   0  0  0  0  0  2  0  0  0  0  0  0
  160.8910  209.7550  152.4060 C   0  0  1  0  0  3  0  0  0  0  0  0
  162.2320  206.0410  149.5420 O   0  0  0  0  0  0  0  0  0  0  0  0
  160.0600  205.9050  148.8220 O   0  0  0  0  0  1  0  0  0  0  0  0
  161.4720  206.4910  150.6370 C   0  0  1  0  0  0  0  0  0  0  0  0
  162.0460  208.7920  149.8460 C   0  0  0  0  0  2  0  0  0  0  0  0
  160.8750  208.2630  152.0420 C   0  0  1  0  0  3  0  0  0  0  0  0
  161.9300  210.5620  151.6160 C   0  0  1  0  0  3  0  0  0  0  0  0
  160.9900  207.9280  150.5500 C   0  0  2  0  0  3  0  0  0  0  0  0
  1 11  1  0  0  0  0
  4 10  1  0  0  0  0
  6  3  1  6  0  0  0
  6  7  1  0  0  0  0
  6  8  1  0  0  0  0
  7  4  1  6  0  0  0
  7  9  1  0  0  0  0
  8  1  2  0  0  0  0
  9  5  1  6  0  0  0
  9  1  1  0  0  0  0
 10  5  2  0  0  0  0
 11 12  1  0  0  0  0
 12 13  1  0  0  0  0
 12  2  2  0  0  0  0
 13 16  1  0  0  0  0
 13 15  1  1  0  0  0
 14 15  1  0  0  0  0
 17 18  1  0  0  0  0
 18 16  1  0  0  0  0
 18 19  2  0  0  0  0
 20 17  2  0  0  0  0
 20 21  1  0  0  0  0
 21 22  2  0  0  0  0
 22 19  1  0  0  0  0
 23 10  1  0  0  0  0
 26 32  1  6  0  0  0
 26 33  1  0  0  0  0
 28 27  1  6  0  0  0
 28 36  1  0  0  0  0
 29 24  1  0  0  0  0
 30 23  1  6  0  0  0
 31 26  1  0  0  0  0
 31 33  1  0  0  0  0
 33 29  1  1  0  0  0
 34 28  1  0  0  0  0
 35 30  1  0  0  0  0
 35 24  1  1  0  0  0
 36 25  1  1  0  0  0
 36 30  1  0  0  0  0
 37 34  1  1  0  0  0
 37 33  1  0  0  0  0
 37 35  1  0  0  0  0
M  END
>  <MODEL>
4

>  <REMARK>
 VINA RESULT:      -5.3      3.592      8.112
  Name = 
  6 active torsions:
  status: ('A' for Active; 'I' for Inactive)
    1  A    between atoms: C_8  and  O_20
    2  A    between atoms: C_8  and  C_24
    3  A    between atoms: C_8  and  C_34
    4  A    between atoms: C_9  and  O_20
    5  A    between atoms: O_16  and  C_17
    6  A    between atoms: O_16  and  C_29
                            x       y       z     vdW  Elec       q    Type
                         _______ _______ _______ _____ _____    ______ ____

>  <TORSDO>
F 6

$$$$
=
 OpenBabel11072413043D

 37 42  0  0  1  0  0  0  0  0999 V2000
  160.1510  213.4980  148.2350 C   0  0  0  0  0  0  0  0  0  0  0  0
  157.1310  213.5550  150.3410 O   0  0  0  0  0  0  0  0  0  0  0  0
  162.0450  212.9120  145.5890 N   0  0  0  0  0  1  0  0  0  0  0  0
  163.1850  211.9090  147.8810 C   0  0  0  0  0  2  0  0  0  0  0  0
  161.3310  211.6110  149.2740 C   0  0  0  0  0  3  0  0  0  0  0  0
  161.8310  213.7870  146.7340 C   0  0  2  0  0  3  0  0  0  0  0  0
  162.5030  213.2740  148.0250 C   0  0  1  0  0  3  0  0  0  0  0  0
  160.4150  213.8650  147.0310 N   0  0  0  0  0  0  0  0  0  0  0  0
  161.3490  213.0760  149.0180 C   0  0  1  0  0  3  0  0  0  0  0  0
  162.3290  210.9970  148.6690 C   0  0  0  0  0  0  0  0  0  0  0  0
  158.8120  213.5880  148.7430 N   0  0  0  0  0  2  0  0  0  0  0  0
  158.3410  213.3310  150.0740 C   0  0  0  0  0  0  0  0  0  0  0  0
  159.2460  212.8320  151.1590 C   0  0  1  0  0  3  0  0  0  0  0  0
  158.6950  214.3600  152.8890 F   0  0  0  0  0  0  0  0  0  0  0  0
  159.7060  213.9930  152.0200 C   0  0  0  0  0  2  0  0  0  0  0  0
  158.5870  211.8610  151.9710 O   0  0  0  0  0  0  0  0  0  0  0  0
  160.4030  210.4820  152.7570 C   0  0  0  0  0  3  0  0  0  0  0  0
  159.2110  211.1680  153.0170 C   0  0  0  0  0  0  0  0  0  0  0  0
  158.6740  211.1450  154.3140 C   0  0  0  0  0  3  0  0  0  0  0  0
  161.0520  209.7810  153.7780 C   0  0  0  0  0  3  0  0  0  0  0  0
  160.5120  209.7630  155.0670 C   0  0  0  0  0  3  0  0  0  0  0  0
  159.3230  210.4460  155.3350 C   0  0  0  0  0  3  0  0  0  0  0  0
  162.5730  209.6230  148.7530 O   0  0  0  0  0  0  0  0  0  0  0  0
  160.1760  206.9560  147.6740 C   0  0  0  0  0  2  0  0  0  0  0  0
  160.4560  207.4130  150.9090 C   0  0  0  0  0  1  0  0  0  0  0  0
  162.7000  204.6120  146.1580 C   0  0  2  0  0  3  0  0  0  0  0  0
  163.1250  206.5780  151.7050 O   0  0  0  0  0  1  0  0  0  0  0  0
  162.9280  207.0970  150.4240 C   0  0  1  0  0  3  0  0  0  0  0  0
  160.4560  205.6690  146.9100 C   0  0  0  0  0  2  0  0  0  0  0  0
  161.5480  208.6670  149.0140 C   0  0  1  0  0  3  0  0  0  0  0  0
  162.2720  204.1160  147.4100 O   0  0  0  0  0  0  0  0  0  0  0  0
  164.0640  204.8990  146.2150 O   0  0  0  0  0  1  0  0  0  0  0  0
  161.9360  205.4500  147.1110 C   0  0  1  0  0  0  0  0  0  0  0  0
  162.7070  205.9660  149.4320 C   0  0  0  0  0  2  0  0  0  0  0  0
  161.5370  207.6180  147.8920 C   0  0  1  0  0  3  0  0  0  0  0  0
  161.7400  208.0600  150.4100 C   0  0  1  0  0  3  0  0  0  0  0  0
  162.5800  206.5000  147.9990 C   0  0  2  0  0  3  0  0  0  0  0  0
  1 11  1  0  0  0  0
  1  9  1  0  0  0  0
  4 10  1  0  0  0  0
  6  3  1  6  0  0  0
  6  8  1  0  0  0  0
  6  7  1  0  0  0  0
  7  4  1  6  0  0  0
  7  9  1  0  0  0  0
  8  1  2  0  0  0  0
  9  5  1  6  0  0  0
 10 23  1  0  0  0  0
 10  5  2  0  0  0  0
 11 12  1  0  0  0  0
 12  2  2  0  0  0  0
 12 13  1  0  0  0  0
 13 16  1  0  0  0  0
 13 15  1  1  0  0  0
 15 14  1  0  0  0  0
 16 18  1  0  0  0  0
 17 18  2  0  0  0  0
 17 20  1  0  0  0  0
 18 19  1  0  0  0  0
 19 22  2  0  0  0  0
 20 21  2  0  0  0  0
 21 22  1  0  0  0  0
 26 32  1  1  0  0  0
 26 33  1  0  0  0  0
 26 31  1  0  0  0  0
 28 27  1  1  0  0  0
 29 24  1  0  0  0  0
 30 23  1  6  0  0  0
 30 36  1  0  0  0  0
 33 29  1  6  0  0  0
 33 31  1  0  0  0  0
 33 37  1  0  0  0  0
 34 28  1  0  0  0  0
 35 24  1  1  0  0  0
 35 37  1  0  0  0  0
 35 30  1  0  0  0  0
 36 28  1  0  0  0  0
 36 25  1  6  0  0  0
 37 34  1  1  0  0  0
M  END
>  <MODEL>
5

>  <REMARK>
 VINA RESULT:      -5.0      4.114      8.755
  Name = 
  6 active torsions:
  status: ('A' for Active; 'I' for Inactive)
    1  A    between atoms: C_8  and  O_20
    2  A    between atoms: C_8  and  C_24
    3  A    between atoms: C_8  and  C_34
    4  A    between atoms: C_9  and  O_20
    5  A    between atoms: O_16  and  C_17
    6  A    between atoms: O_16  and  C_29
                            x       y       z     vdW  Elec       q    Type
                         _______ _______ _______ _____ _____    ______ ____

>  <TORSDO>
F 6

$$$$
=
 OpenBabel11072413043D

 37 42  0  0  1  0  0  0  0  0999 V2000
  161.1670  208.2900  152.4430 C   0  0  0  0  0  0  0  0  0  0  0  0
  160.2830  204.7370  152.0460 O   0  0  0  0  0  0  0  0  0  0  0  0
  160.7290  211.5390  152.8730 N   0  0  0  0  0  1  0  0  0  0  0  0
  162.3000  211.0200  150.6780 C   0  0  0  0  0  2  0  0  0  0  0  0
  161.6550  208.8480  150.1010 C   0  0  0  0  0  3  0  0  0  0  0  0
  161.6280  210.4150  153.0980 C   0  0  2  0  0  3  0  0  0  0  0  0
  162.5580  210.1310  151.9000 C   0  0  1  0  0  3  0  0  0  0  0  0
  160.8580  209.2030  153.2940 N   0  0  0  0  0  0  0  0  0  0  0  0
  162.2210  208.6980  151.4690 C   0  0  1  0  0  3  0  0  0  0  0  0
  161.7150  210.0970  149.6820 C   0  0  0  0  0  0  0  0  0  0  0  0
  160.5710  206.9870  152.5300 N   0  0  0  0  0  2  0  0  0  0  0  0
  160.8600  205.8180  151.7510 C   0  0  0  0  0  0  0  0  0  0  0  0
  161.8430  205.8330  150.6210 C   0  0  1  0  0  3  0  0  0  0  0  0
  163.2600  205.7820  152.5240 F   0  0  0  0  0  0  0  0  0  0  0  0
  163.2440  205.5990  151.1540 C   0  0  0  0  0  2  0  0  0  0  0  0
  161.5240  204.8390  149.6480 O   0  0  0  0  0  0  0  0  0  0  0  0
  160.6180  206.1540  147.8410 C   0  0  0  0  0  3  0  0  0  0  0  0
  161.4250  205.0960  148.2750 C   0  0  0  0  0  0  0  0  0  0  0  0
  162.1140  204.3230  147.3260 C   0  0  0  0  0  3  0  0  0  0  0  0
  160.4980  206.4370  146.4780 C   0  0  0  0  0  3  0  0  0  0  0  0
  161.1870  205.6650  145.5380 C   0  0  0  0  0  3  0  0  0  0  0  0
  161.9950  204.6080  145.9630 C   0  0  0  0  0  3  0  0  0  0  0  0
  161.2770  210.5250  148.4260 O   0  0  0  0  0  0  0  0  0  0  0  0
  161.4190  212.9580  145.5840 C   0  0  0  0  0  2  0  0  0  0  0  0
  162.5260  214.0540  148.4690 C   0  0  0  0  0  1  0  0  0  0  0  0
  157.7100  213.3060  145.0480 C   0  0  2  0  0  3  0  0  0  0  0  0
  160.2630  214.2400  150.2860 O   0  0  0  0  0  1  0  0  0  0  0  0
  160.2540  213.2660  149.2850 C   0  0  1  0  0  3  0  0  0  0  0  0
  160.2760  213.5450  144.7670 C   0  0  0  0  0  2  0  0  0  0  0  0
  161.6770  211.7640  147.8440 C   0  0  1  0  0  3  0  0  0  0  0  0
  158.2130  214.4530  145.7050 O   0  0  0  0  0  0  0  0  0  0  0  0
  156.8050  212.6540  145.8850 O   0  0  0  0  0  1  0  0  0  0  0  0
  159.0660  213.3350  145.6450 C   0  0  1  0  0  0  0  0  0  0  0  0
  159.5090  213.7810  148.0640 C   0  0  0  0  0  2  0  0  0  0  0  0
  160.7640  212.0800  146.6490 C   0  0  1  0  0  3  0  0  0  0  0  0
  161.6820  212.8660  148.9120 C   0  0  1  0  0  3  0  0  0  0  0  0
  159.4020  212.6980  146.9820 C   0  0  2  0  0  3  0  0  0  0  0  0
  1 11  1  0  0  0  0
  1  8  2  0  0  0  0
  6  3  1  6  0  0  0
  6  8  1  0  0  0  0
  7  4  1  6  0  0  0
  7  6  1  0  0  0  0
  9  5  1  6  0  0  0
  9  7  1  0  0  0  0
  9  1  1  0  0  0  0
 10  5  2  0  0  0  0
 10  4  1  0  0  0  0
 12  2  2  0  0  0  0
 12 11  1  0  0  0  0
 13 15  1  1  0  0  0
 13 12  1  0  0  0  0
 15 14  1  0  0  0  0
 16 13  1  0  0  0  0
 17 18  1  0  0  0  0
 18 16  1  0  0  0  0
 19 18  2  0  0  0  0
 20 17  2  0  0  0  0
 21 22  2  0  0  0  0
 21 20  1  0  0  0  0
 22 19  1  0  0  0  0
 23 10  1  0  0  0  0
 26 33  1  0  0  0  0
 26 31  1  0  0  0  0
 26 32  1  1  0  0  0
 28 27  1  1  0  0  0
 29 24  1  0  0  0  0
 30 23  1  1  0  0  0
 30 36  1  0  0  0  0
 33 29  1  6  0  0  0
 33 31  1  0  0  0  0
 33 37  1  0  0  0  0
 34 28  1  0  0  0  0
 35 24  1  6  0  0  0
 35 37  1  0  0  0  0
 35 30  1  0  0  0  0
 36 25  1  6  0  0  0
 36 28  1  0  0  0  0
 37 34  1  1  0  0  0
M  END
>  <MODEL>
6

>  <REMARK>
 VINA RESULT:      -4.7      2.817      3.901
  Name = 
  6 active torsions:
  status: ('A' for Active; 'I' for Inactive)
    1  A    between atoms: C_8  and  O_20
    2  A    between atoms: C_8  and  C_24
    3  A    between atoms: C_8  and  C_34
    4  A    between atoms: C_9  and  O_20
    5  A    between atoms: O_16  and  C_17
    6  A    between atoms: O_16  and  C_29
                            x       y       z     vdW  Elec       q    Type
                         _______ _______ _______ _____ _____    ______ ____

>  <TORSDO>
F 6

$$$$
=
 OpenBabel11072413043D

 37 42  0  0  1  0  0  0  0  0999 V2000
  160.9460  207.5580  154.5600 C   0  0  0  0  0  0  0  0  0  0  0  0
  160.9040  204.3200  152.8070 O   0  0  0  0  0  0  0  0  0  0  0  0
  159.8450  210.0710  156.4060 N   0  0  0  0  0  1  0  0  0  0  0  0
  160.8330  210.9520  153.9970 C   0  0  0  0  0  2  0  0  0  0  0  0
  160.6190  209.0580  152.6430 C   0  0  0  0  0  3  0  0  0  0  0  0
  161.0220  209.3210  155.9910 C   0  0  2  0  0  3  0  0  0  0  0  0
  161.6290  209.8260  154.6650 C   0  0  1  0  0  3  0  0  0  0  0  0
  160.6640  207.9360  155.7570 N   0  0  0  0  0  0  0  0  0  0  0  0
  161.5560  208.6240  153.7140 C   0  0  1  0  0  3  0  0  0  0  0  0
  160.2470  210.3140  152.7990 C   0  0  0  0  0  0  0  0  0  0  0  0
  160.7420  206.1930  154.1650 N   0  0  0  0  0  2  0  0  0  0  0  0
  161.0890  205.5600  152.9260 C   0  0  0  0  0  0  0  0  0  0  0  0
  161.6890  206.3190  151.7810 C   0  0  1  0  0  3  0  0  0  0  0  0
  163.9900  206.3870  151.2050 F   0  0  0  0  0  0  0  0  0  0  0  0
  162.8810  205.5610  151.2290 C   0  0  0  0  0  2  0  0  0  0  0  0
  160.7290  206.5290  150.7450 O   0  0  0  0  0  0  0  0  0  0  0  0
  161.0820  204.8770  149.0240 C   0  0  0  0  0  3  0  0  0  0  0  0
  160.9580  206.2200  149.3980 C   0  0  0  0  0  0  0  0  0  0  0  0
  161.0660  207.2190  148.4170 C   0  0  0  0  0  3  0  0  0  0  0  0
  161.3110  204.5340  147.6880 C   0  0  0  0  0  3  0  0  0  0  0  0
  161.4160  205.5330  146.7170 C   0  0  0  0  0  3  0  0  0  0  0  0
  161.2920  206.8760  147.0820 C   0  0  0  0  0  3  0  0  0  0  0  0
  159.3890  210.9930  151.9290 O   0  0  0  0  0  0  0  0  0  0  0  0
  160.9670  214.1200  150.6080 C   0  0  0  0  0  2  0  0  0  0  0  0
  157.9620  214.4530  151.8760 C   0  0  0  0  0  1  0  0  0  0  0  0
  161.0800  213.1200  146.9820 C   0  0  2  0  0  3  0  0  0  0  0  0
  156.0960  213.0530  150.1400 O   0  0  0  0  0  1  0  0  0  0  0  0
  157.4080  212.5870  150.2460 C   0  0  1  0  0  3  0  0  0  0  0  0
  161.3940  214.4500  149.1840 C   0  0  0  0  0  2  0  0  0  0  0  0
  159.4270  212.4060  151.7450 C   0  0  1  0  0  3  0  0  0  0  0  0
  160.0390  214.0530  147.1940 O   0  0  0  0  0  0  0  0  0  0  0  0
  160.5350  211.9070  146.5590 O   0  0  0  0  0  1  0  0  0  0  0  0
  160.6100  213.4730  148.3410 C   0  0  1  0  0  0  0  0  0  0  0  0
  158.2560  213.1600  149.1220 C   0  0  0  0  0  2  0  0  0  0  0  0
  160.3250  212.7350  150.5420 C   0  0  1  0  0  3  0  0  0  0  0  0
  158.0010  212.9550  151.6070 C   0  0  1  0  0  3  0  0  0  0  0  0
  159.6820  212.5920  149.1580 C   0  0  2  0  0  3  0  0  0  0  0  0
  1  8  2  0  0  0  0
  2 12  2  0  0  0  0
  5 10  2  0  0  0  0
  6  3  1  6  0  0  0
  7  4  1  6  0  0  0
  7  6  1  0  0  0  0
  8  6  1  0  0  0  0
  9  5  1  6  0  0  0
  9  1  1  0  0  0  0
  9  7  1  0  0  0  0
 10  4  1  0  0  0  0
 11  1  1  0  0  0  0
 12 11  1  0  0  0  0
 13 15  1  6  0  0  0
 13 12  1  0  0  0  0
 14 15  1  0  0  0  0
 16 13  1  0  0  0  0
 17 18  1  0  0  0  0
 18 16  1  0  0  0  0
 19 18  2  0  0  0  0
 20 17  2  0  0  0  0
 21 22  2  0  0  0  0
 21 20  1  0  0  0  0
 22 19  1  0  0  0  0
 23 10  1  0  0  0  0
 26 32  1  6  0  0  0
 26 31  1  0  0  0  0
 26 33  1  0  0  0  0
 28 27  1  1  0  0  0
 28 36  1  0  0  0  0
 29 24  1  0  0  0  0
 30 23  1  6  0  0  0
 31 33  1  0  0  0  0
 33 37  1  0  0  0  0
 33 29  1  1  0  0  0
 34 28  1  0  0  0  0
 35 24  1  1  0  0  0
 35 30  1  0  0  0  0
 36 30  1  0  0  0  0
 36 25  1  6  0  0  0
 37 34  1  1  0  0  0
 37 35  1  0  0  0  0
M  END
>  <MODEL>
7

>  <REMARK>
 VINA RESULT:      -4.1      1.524      2.059
  Name = 
  6 active torsions:
  status: ('A' for Active; 'I' for Inactive)
    1  A    between atoms: C_8  and  O_20
    2  A    between atoms: C_8  and  C_24
    3  A    between atoms: C_8  and  C_34
    4  A    between atoms: C_9  and  O_20
    5  A    between atoms: O_16  and  C_17
    6  A    between atoms: O_16  and  C_29
                            x       y       z     vdW  Elec       q    Type
                         _______ _______ _______ _____ _____    ______ ____

>  <TORSDO>
F 6

$$$$
=
 OpenBabel11072413043D

 37 42  0  0  1  0  0  0  0  0999 V2000
  161.2600  207.4760  154.1460 C   0  0  0  0  0  0  0  0  0  0  0  0
  161.0830  204.6850  151.7510 O   0  0  0  0  0  0  0  0  0  0  0  0
  160.5300  209.2950  156.8090 N   0  0  0  0  0  1  0  0  0  0  0  0
  160.4340  210.7990  154.5100 C   0  0  0  0  0  2  0  0  0  0  0  0
  160.0380  209.1810  152.8690 C   0  0  0  0  0  3  0  0  0  0  0  0
  161.5780  208.9230  155.8690 C   0  0  2  0  0  3  0  0  0  0  0  0
  161.5800  209.7840  154.5880 C   0  0  1  0  0  3  0  0  0  0  0  0
  161.3740  207.5580  155.4250 N   0  0  0  0  0  0  0  0  0  0  0  0
  161.3530  208.7880  153.4430 C   0  0  1  0  0  3  0  0  0  0  0  0
  159.5610  210.2700  153.4410 C   0  0  0  0  0  0  0  0  0  0  0  0
  161.1370  206.1950  153.5100 N   0  0  0  0  0  2  0  0  0  0  0  0
  161.1070  205.8920  152.1090 C   0  0  0  0  0  0  0  0  0  0  0  0
  161.1290  206.9620  151.0600 C   0  0  1  0  0  3  0  0  0  0  0  0
  162.6420  208.5970  150.2410 F   0  0  0  0  0  0  0  0  0  0  0  0
  162.5630  207.2930  150.6930 C   0  0  0  0  0  2  0  0  0  0  0  0
  160.4150  206.5520  149.8930 O   0  0  0  0  0  0  0  0  0  0  0  0
  161.2200  204.6080  148.7160 C   0  0  0  0  0  3  0  0  0  0  0  0
  161.0260  205.9930  148.7640 C   0  0  0  0  0  0  0  0  0  0  0  0
  161.4460  206.7830  147.6810 C   0  0  0  0  0  3  0  0  0  0  0  0
  161.8260  204.0170  147.6030 C   0  0  0  0  0  3  0  0  0  0  0  0
  162.2410  204.8100  146.5290 C   0  0  0  0  0  3  0  0  0  0  0  0
  162.0500  206.1930  146.5680 C   0  0  0  0  0  3  0  0  0  0  0  0
  158.3530  210.8780  153.0860 O   0  0  0  0  0  0  0  0  0  0  0  0
  156.1930  213.9320  153.2410 C   0  0  0  0  0  2  0  0  0  0  0  0
  159.4260  214.4490  153.4220 C   0  0  0  0  0  1  0  0  0  0  0  0
  154.5010  213.1720  156.5160 C   0  0  2  0  0  3  0  0  0  0  0  0
  160.3710  213.3420  155.9400 O   0  0  0  0  0  1  0  0  0  0  0  0
  159.2750  212.7540  155.3060 C   0  0  1  0  0  3  0  0  0  0  0  0
  155.1520  214.3170  154.2830 C   0  0  0  0  0  2  0  0  0  0  0  0
  158.1650  212.2920  153.0910 C   0  0  1  0  0  3  0  0  0  0  0  0
  155.4770  214.1790  156.6980 O   0  0  0  0  0  0  0  0  0  0  0  0
  154.8560  212.0450  157.2570 O   0  0  0  0  0  1  0  0  0  0  0  0
  155.5170  213.4740  155.4810 C   0  0  1  0  0  0  0  0  0  0  0  0
  157.9820  213.3220  155.8690 C   0  0  0  0  0  2  0  0  0  0  0  0
  156.8050  212.6190  153.7260 C   0  0  1  0  0  3  0  0  0  0  0  0
  159.3440  212.9750  153.7950 C   0  0  1  0  0  3  0  0  0  0  0  0
  156.7580  212.6270  155.2580 C   0  0  2  0  0  3  0  0  0  0  0  0
  1  8  2  0  0  0  0
  2 12  2  0  0  0  0
  5 10  2  0  0  0  0
  6  3  1  1  0  0  0
  7  4  1  1  0  0  0
  7  6  1  0  0  0  0
  8  6  1  0  0  0  0
  9  5  1  1  0  0  0
  9  1  1  0  0  0  0
  9  7  1  0  0  0  0
 10  4  1  0  0  0  0
 11  1  1  0  0  0  0
 12 11  1  0  0  0  0
 13 15  1  6  0  0  0
 13 12  1  0  0  0  0
 14 15  1  0  0  0  0
 16 13  1  0  0  0  0
 17 18  1  0  0  0  0
 18 16  1  0  0  0  0
 19 18  2  0  0  0  0
 20 17  2  0  0  0  0
 21 22  2  0  0  0  0
 21 20  1  0  0  0  0
 22 19  1  0  0  0  0
 23 10  1  0  0  0  0
 24 29  1  0  0  0  0
 26 31  1  0  0  0  0
 26 32  1  1  0  0  0
 28 34  1  0  0  0  0
 28 27  1  1  0  0  0
 30 23  1  1  0  0  0
 30 35  1  0  0  0  0
 30 36  1  0  0  0  0
 33 29  1  6  0  0  0
 33 26  1  0  0  0  0
 33 31  1  0  0  0  0
 35 24  1  1  0  0  0
 35 37  1  0  0  0  0
 36 25  1  1  0  0  0
 36 28  1  0  0  0  0
 37 33  1  0  0  0  0
 37 34  1  1  0  0  0
M  END
>  <MODEL>
8

>  <REMARK>
 VINA RESULT:      -4.0      1.992      3.443
  Name = 
  6 active torsions:
  status: ('A' for Active; 'I' for Inactive)
    1  A    between atoms: C_8  and  O_20
    2  A    between atoms: C_8  and  C_24
    3  A    between atoms: C_8  and  C_34
    4  A    between atoms: C_9  and  O_20
    5  A    between atoms: O_16  and  C_17
    6  A    between atoms: O_16  and  C_29
                            x       y       z     vdW  Elec       q    Type
                         _______ _______ _______ _____ _____    ______ ____

>  <TORSDO>
F 6

$$$$
=
 OpenBabel11072413043D

 37 42  0  0  1  0  0  0  0  0999 V2000
  162.3720  211.0260  148.2970 C   0  0  0  0  0  0  0  0  0  0  0  0
  163.3570  207.4810  148.4520 O   0  0  0  0  0  0  0  0  0  0  0  0
  162.6230  214.3050  148.6370 N   0  0  0  0  0  1  0  0  0  0  0  0
  160.3320  213.3460  149.8160 C   0  0  0  0  0  2  0  0  0  0  0  0
  160.8870  211.1170  150.2510 C   0  0  0  0  0  3  0  0  0  0  0  0
  162.0210  213.2280  147.8640 C   0  0  2  0  0  3  0  0  0  0  0  0
  160.7050  212.7020  148.4760 C   0  0  1  0  0  3  0  0  0  0  0  0
  162.9190  212.0910  147.8270 N   0  0  0  0  0  0  0  0  0  0  0  0
  160.9710  211.2200  148.7690 C   0  0  1  0  0  3  0  0  0  0  0  0
  160.5310  212.2620  150.8010 C   0  0  0  0  0  0  0  0  0  0  0  0
  163.0770  209.7760  148.2650 N   0  0  0  0  0  2  0  0  0  0  0  0
  162.6040  208.4740  148.6390 C   0  0  0  0  0  0  0  0  0  0  0  0
  161.2400  208.2540  149.2170 C   0  0  1  0  0  3  0  0  0  0  0  0
  160.8280  207.1610  147.1500 F   0  0  0  0  0  0  0  0  0  0  0  0
  160.5590  207.1000  148.5050 C   0  0  0  0  0  2  0  0  0  0  0  0
  161.3120  207.9830  150.6160 O   0  0  0  0  0  0  0  0  0  0  0  0
  161.3090  206.5480  152.5540 C   0  0  0  0  0  3  0  0  0  0  0  0
  161.2040  206.7000  151.1670 C   0  0  0  0  0  0  0  0  0  0  0  0
  160.9920  205.5650  150.3660 C   0  0  0  0  0  3  0  0  0  0  0  0
  161.2060  205.2810  153.1360 C   0  0  0  0  0  3  0  0  0  0  0  0
  160.9950  204.1570  152.3320 C   0  0  0  0  0  3  0  0  0  0  0  0
  160.8870  204.3000  150.9470 C   0  0  0  0  0  3  0  0  0  0  0  0
  160.3520  212.4510  152.1740 O   0  0  0  0  0  0  0  0  0  0  0  0
  159.8940  209.3400  154.2060 C   0  0  0  0  0  2  0  0  0  0  0  0
  157.4480  211.5200  154.3450 C   0  0  0  0  0  1  0  0  0  0  0  0
  162.7060  209.9230  156.6380 C   0  0  2  0  0  3  0  0  0  0  0  0
  158.4340  213.8870  155.7160 O   0  0  0  0  0  1  0  0  0  0  0  0
  159.3230  213.1150  154.9670 C   0  0  1  0  0  3  0  0  0  0  0  0
  160.7240  208.8300  155.3760 C   0  0  0  0  0  2  0  0  0  0  0  0
  159.5690  211.5770  152.9840 C   0  0  1  0  0  3  0  0  0  0  0  0
  161.4660  210.1920  157.2600 O   0  0  0  0  0  0  0  0  0  0  0  0
  163.4620  211.0950  156.5860 O   0  0  0  0  0  1  0  0  0  0  0  0
  161.4540  210.0600  155.8600 C   0  0  1  0  0  0  0  0  0  0  0  0
  160.0310  212.1150  155.8670 C   0  0  0  0  0  2  0  0  0  0  0  0
  160.5040  210.6860  153.8160 C   0  0  1  0  0  3  0  0  0  0  0  0
  158.5880  212.3920  153.8370 C   0  0  1  0  0  3  0  0  0  0  0  0
  161.0840  211.3140  155.0890 C   0  0  2  0  0  3  0  0  0  0  0  0
  1  9  1  0  0  0  0
  2 12  2  0  0  0  0
  4 10  1  0  0  0  0
  5 10  2  0  0  0  0
  6  7  1  0  0  0  0
  6  3  1  1  0  0  0
  7  9  1  0  0  0  0
  7  4  1  1  0  0  0
  8  6  1  0  0  0  0
  8  1  2  0  0  0  0
  9  5  1  1  0  0  0
 10 23  1  0  0  0  0
 11  1  1  0  0  0  0
 11 12  1  0  0  0  0
 12 13  1  0  0  0  0
 13 15  1  6  0  0  0
 13 16  1  0  0  0  0
 14 15  1  0  0  0  0
 16 18  1  0  0  0  0
 17 20  1  0  0  0  0
 18 17  2  0  0  0  0
 19 22  2  0  0  0  0
 19 18  1  0  0  0  0
 21 20  2  0  0  0  0
 22 21  1  0  0  0  0
 24 29  1  0  0  0  0
 26 32  1  6  0  0  0
 26 31  1  0  0  0  0
 28 27  1  1  0  0  0
 28 34  1  0  0  0  0
 30 23  1  1  0  0  0
 30 35  1  0  0  0  0
 30 36  1  0  0  0  0
 33 29  1  6  0  0  0
 33 26  1  0  0  0  0
 33 31  1  0  0  0  0
 35 24  1  1  0  0  0
 35 37  1  0  0  0  0
 36 25  1  1  0  0  0
 36 28  1  0  0  0  0
 37 33  1  0  0  0  0
 37 34  1  1  0  0  0
M  END
>  <MODEL>
9

>  <REMARK>
 VINA RESULT:      -3.7      3.487      6.070
  Name = 
  6 active torsions:
  status: ('A' for Active; 'I' for Inactive)
    1  A    between atoms: C_8  and  O_20
    2  A    between atoms: C_8  and  C_24
    3  A    between atoms: C_8  and  C_34
    4  A    between atoms: C_9  and  O_20
    5  A    between atoms: O_16  and  C_17
    6  A    between atoms: O_16  and  C_29
                            x       y       z     vdW  Elec       q    Type
                         _______ _______ _______ _____ _____    ______ ____

>  <TORSDO>
F 6

$$$$
