=
 OpenBabel11072410033D

 55 65  0  0  1  0  0  0  0  0999 V2000
  160.6320  210.1000  156.8880 O   0  0  0  0  0  1  0  0  0  0  0  0
  161.6770  210.4770  156.0350 C   0  0  0  0  0  0  0  0  0  0  0  0
  162.1160  209.4890  154.9710 C   0  0  2  0  0  3  0  0  0  0  0  0
  162.6980  211.2510  156.5880 O   0  0  0  0  0  1  0  0  0  0  0  0
  161.3450  210.7730  154.5810 C   0  0  1  0  0  3  0  0  0  0  0  0
  159.8540  210.5830  154.2940 C   0  0  0  0  0  2  0  0  0  0  0  0
  160.1640  212.2030  150.8440 C   0  0  0  0  0  2  0  0  0  0  0  0
  159.5250  213.5450  154.0320 C   0  0  0  0  0  1  0  0  0  0  0  0
  158.1900  211.6050  152.6500 C   0  0  1  0  0  3  0  0  0  0  0  0
  157.3350  212.4240  153.6140 C   0  0  0  0  0  2  0  0  0  0  0  0
  158.5270  213.0750  152.9680 C   0  0  1  0  0  0  0  0  0  0  0  0
  159.5130  210.8430  152.8210 C   0  0  1  0  0  3  0  0  0  0  0  0
  160.6230  211.4890  152.0620 N   0  0  0  0  0  0  0  0  0  0  0  0
  159.7360  213.6650  151.1450 C   0  0  2  0  0  3  0  0  0  0  0  0
  158.4580  213.7850  151.7610 O   0  0  0  0  0  0  0  0  0  0  0  0
  159.7400  214.4530  149.8510 C   0  0  0  0  0  1  0  0  0  0  0  0
  161.6300  210.4720  151.6990 C   0  0  2  0  0  3  0  0  0  0  0  0
  162.9430  210.7130  152.4300 C   0  0  0  0  0  1  0  0  0  0  0  0
  161.8220  210.2330  150.1850 C   0  0  0  0  0  0  0  0  0  0  0  0
  160.9340  209.1910  149.5370 C   0  0  0  0  0  2  0  0  0  0  0  0
  162.3820  208.8640  149.8640 C   0  0  0  0  0  2  0  0  0  0  0  0
  163.5400  211.7930  149.2680 O   0  0  0  0  0  0  0  0  0  0  0  0
  161.6080  211.9610  148.2920 C   0  0  0  0  0  0  0  0  0  0  0  0
  163.6770  212.7110  148.3520 N   0  0  0  0  0  0  0  0  0  0  0  0
  162.4950  212.8530  147.7150 C   0  0  0  0  0  3  0  0  0  0  0  0
  162.3190  211.3140  149.2730 C   0  0  0  0  0  0  0  0  0  0  0  0
  160.2630  211.7330  147.9690 O   0  0  0  0  0  0  0  0  0  0  0  0
  160.0480  211.5160  145.6720 O   0  0  0  0  0  0  0  0  0  0  0  0
  159.6660  212.0530  146.7460 C   0  0  0  0  0  0  0  0  0  0  0  0
  158.5860  213.0890  146.7150 C   0  0  0  0  0  3  0  0  0  0  0  0
  157.3090  212.4670  146.1760 C   0  0  0  0  0  2  0  0  0  0  0  0
  158.1440  213.3600  145.2850 C   0  0  0  0  0  2  0  0  0  0  0  0
  161.2710  208.2090  154.9460 C   0  0  0  0  0  2  0  0  0  0  0  0
  161.1230  206.8420  152.8840 C   0  0  1  0  0  3  0  0  0  0  0  0
  161.0950  205.9010  154.0720 C   0  0  0  0  0  2  0  0  0  0  0  0
  161.9610  207.1410  154.1160 C   0  0  2  0  0  3  0  0  0  0  0  0
  161.9940  206.2510  151.7880 C   0  0  1  0  0  0  0  0  0  0  0  0
  161.2800  205.2930  150.8880 N   0  0  0  0  0  0  0  0  0  0  0  0
  163.3240  205.7140  152.2470 C   0  0  0  0  0  2  0  0  0  0  0  0
  160.4220  205.0140  149.7870 C   0  0  0  0  0  0  0  0  0  0  0  0
  160.0000  205.9560  149.0710 O   0  0  0  0  0  0  0  0  0  0  0  0
  162.0740  204.8890  152.0880 C   0  0  1  0  0  3  0  0  0  0  0  0
  160.0550  203.6100  149.4520 C   0  0  0  0  0  2  0  0  0  0  0  0
  160.0320  200.8080  149.8100 O   0  0  0  0  0  0  0  0  0  0  0  0
  161.2710  201.4650  149.9810 C   0  0  1  0  0  3  0  0  0  0  0  0
  160.9510  200.9840  147.6160 C   0  0  0  0  0  2  0  0  0  0  0  0
  161.0900  200.3630  148.9980 C   0  0  2  0  0  3  0  0  0  0  0  0
  161.3150  202.7780  149.1960 C   0  0  1  0  0  3  0  0  0  0  0  0
  161.5150  202.3770  147.7390 C   0  0  2  0  0  3  0  0  0  0  0  0
  160.9230  203.3390  146.7120 C   0  0  0  0  0  2  0  0  0  0  0  0
  161.8440  203.5700  145.6880 O   0  0  0  0  0  0  0  0  0  0  0  0
  162.6480  205.6880  147.3060 O   0  0  0  0  0  1  0  0  0  0  0  0
  163.3020  205.5440  144.7810 O   0  0  0  0  0  0  0  0  0  0  0  0
  160.4640  206.3420  145.1710 S   0  0  0  0  0  1  0  0  0  0  0  0
  162.1770  205.2360  145.7410 P   0  0  1  0  0  0  0  0  0  0  0  0
  2  4  1  0  0  0  0
  2  1  1  0  0  0  0
  3 33  1  1  0  0  0
  3  2  1  0  0  0  0
  5  6  1  1  0  0  0
  5  3  1  0  0  0  0
  5  2  1  0  0  0  0
  7 14  1  0  0  0  0
  7 13  1  0  0  0  0
  9 12  1  0  0  0  0
  9 11  1  0  0  0  0
  9 10  1  1  0  0  0
 11 10  1  0  0  0  0
 11  8  1  1  0  0  0
 12  6  1  1  0  0  0
 13 12  1  0  0  0  0
 14 16  1  6  0  0  0
 14 15  1  0  0  0  0
 15 11  1  0  0  0  0
 17 13  1  0  0  0  0
 17 18  1  6  0  0  0
 19 17  1  0  0  0  0
 20 21  1  0  0  0  0
 20 19  1  0  0  0  0
 21 19  1  0  0  0  0
 22 26  1  0  0  0  0
 23 26  2  0  0  0  0
 24 22  1  0  0  0  0
 25 23  1  0  0  0  0
 25 24  2  0  0  0  0
 26 19  1  0  0  0  0
 27 23  1  0  0  0  0
 28 29  2  0  0  0  0
 29 27  1  0  0  0  0
 30 29  1  0  0  0  0
 31 30  1  0  0  0  0
 32 31  1  0  0  0  0
 32 30  1  0  0  0  0
 34 35  1  1  0  0  0
 34 36  1  0  0  0  0
 35 36  1  0  0  0  0
 36 33  1  1  0  0  0
 37 42  1  0  0  0  0
 37 39  1  6  0  0  0
 37 34  1  0  0  0  0
 38 37  1  0  0  0  0
 38 42  1  0  0  0  0
 40 38  1  0  0  0  0
 41 40  2  0  0  0  0
 42 39  1  6  0  0  0
 43 40  1  0  0  0  0
 45 44  1  1  0  0  0
 46 49  1  0  0  0  0
 47 46  1  6  0  0  0
 47 44  1  0  0  0  0
 47 45  1  0  0  0  0
 48 43  1  6  0  0  0
 48 45  1  0  0  0  0
 49 50  1  6  0  0  0
 49 48  1  0  0  0  0
 51 55  1  0  0  0  0
 51 50  1  0  0  0  0
 54 55  1  0  0  0  0
 55 53  2  6  0  0  0
 55 52  1  0  0  0  0
M  END
>  <MODEL>
1

>  <REMARK>
 VINA RESULT:      -0.5      0.000      0.000
  Name = 
  16 active torsions:
  status: ('A' for Active; 'I' for Inactive)
    1  A    between atoms: C_3  and  O_34
    2  A    between atoms: C_3  and  C_54
    3  A    between atoms: C_4  and  C_36
    4  A    between atoms: C_4  and  C_43
    5  A    between atoms: C_5  and  C_27
    6  A    between atoms: C_5  and  C_31
    7  A    between atoms: O_10  and  C_13
    8  A    between atoms: O_10  and  C_55
    9  A    between atoms: C_12  and  C_55
   10  A    between atoms: C_14  and  C_18
   11  A    between atoms: C_24  and  C_37
   12  A    between atoms: C_24  and  C_51
   13  A    between atoms: C_29  and  C_53
   14  A    between atoms: C_31  and  N_38
   15  A    between atoms: O_34  and  P_46
   16  A    between atoms: C_40  and  C_53
                            x       y       z     vdW  Elec       q    Type
                         _______ _______ _______ _____ _____    ______ ____

>  <TORSDO>
F 16

$$$$
=
 OpenBabel11072410033D

 55 65  0  0  1  0  0  0  0  0999 V2000
  163.6880  208.0900  148.8430 O   0  0  0  0  0  1  0  0  0  0  0  0
  162.4310  208.5350  148.4080 C   0  0  0  0  0  0  0  0  0  0  0  0
  161.5340  207.5390  147.6990 C   0  0  2  0  0  3  0  0  0  0  0  0
  162.3500  209.8480  147.9450 O   0  0  0  0  0  1  0  0  0  0  0  0
  161.1980  208.0180  149.1320 C   0  0  1  0  0  3  0  0  0  0  0  0
  161.5700  207.0450  150.2530 C   0  0  0  0  0  2  0  0  0  0  0  0
  160.8250  208.0250  153.8740 C   0  0  0  0  0  2  0  0  0  0  0  0
  162.9990  205.6400  152.4750 C   0  0  0  0  0  1  0  0  0  0  0  0
  160.3020  205.9400  152.1740 C   0  0  1  0  0  3  0  0  0  0  0  0
  160.8170  204.5090  152.0420 C   0  0  0  0  0  2  0  0  0  0  0  0
  161.5510  205.4640  152.9430 C   0  0  1  0  0  0  0  0  0  0  0  0
  160.7180  207.2620  151.5100 C   0  0  1  0  0  3  0  0  0  0  0  0
  161.3370  208.2000  152.4910 N   0  0  0  0  0  0  0  0  0  0  0  0
  161.6120  206.9410  154.6600 C   0  0  2  0  0  3  0  0  0  0  0  0
  161.2710  205.6040  154.3100 O   0  0  0  0  0  0  0  0  0  0  0  0
  161.3740  207.1420  156.1430 C   0  0  0  0  0  1  0  0  0  0  0  0
  161.1220  209.5920  152.0470 C   0  0  2  0  0  3  0  0  0  0  0  0
  162.3860  210.1710  151.4280 C   0  0  0  0  0  1  0  0  0  0  0  0
  160.4790  210.5330  153.0880 C   0  0  0  0  0  0  0  0  0  0  0  0
  158.9900  210.7820  152.9610 C   0  0  0  0  0  2  0  0  0  0  0  0
  159.9830  211.8320  152.4920 C   0  0  0  0  0  2  0  0  0  0  0  0
  162.3170  210.6590  154.7710 O   0  0  0  0  0  0  0  0  0  0  0  0
  160.3380  210.8890  155.6320 C   0  0  0  0  0  0  0  0  0  0  0  0
  162.4990  210.8330  156.0500 N   0  0  0  0  0  0  0  0  0  0  0  0
  161.2900  210.9800  156.6320 C   0  0  0  0  0  3  0  0  0  0  0  0
  161.0410  210.6830  154.4700 C   0  0  0  0  0  0  0  0  0  0  0  0
  158.9440  210.9860  155.7400 O   0  0  0  0  0  0  0  0  0  0  0  0
  158.8260  213.2880  155.9800 O   0  0  0  0  0  0  0  0  0  0  0  0
  158.2360  212.1740  155.9400 C   0  0  0  0  0  0  0  0  0  0  0  0
  156.7560  212.1100  156.1560 C   0  0  0  0  0  3  0  0  0  0  0  0
  156.1890  210.9230  155.3950 C   0  0  0  0  0  2  0  0  0  0  0  0
  156.0130  212.3210  154.8440 C   0  0  0  0  0  2  0  0  0  0  0  0
  162.1320  206.1290  147.6240 C   0  0  0  0  0  2  0  0  0  0  0  0
  161.7970  206.1890  145.1690 C   0  0  1  0  0  3  0  0  0  0  0  0
  160.4320  206.1840  145.8270 C   0  0  0  0  0  2  0  0  0  0  0  0
  161.5600  205.3790  146.4330 C   0  0  2  0  0  3  0  0  0  0  0  0
  161.7780  205.2780  143.9530 C   0  0  1  0  0  0  0  0  0  0  0  0
  161.6450  206.0000  142.6500 N   0  0  0  0  0  0  0  0  0  0  0  0
  160.8430  204.1010  144.0480 C   0  0  0  0  0  2  0  0  0  0  0  0
  162.1980  206.7450  141.5700 C   0  0  0  0  0  0  0  0  0  0  0  0
  163.4370  206.9420  141.5180 O   0  0  0  0  0  0  0  0  0  0  0  0
  160.4980  205.4230  143.4150 C   0  0  1  0  0  3  0  0  0  0  0  0
  161.3220  207.2570  140.4790 C   0  0  0  0  0  2  0  0  0  0  0  0
  160.5230  207.4460  137.7760 O   0  0  0  0  0  0  0  0  0  0  0  0
  161.9030  207.5740  138.0460 C   0  0  1  0  0  3  0  0  0  0  0  0
  160.8360  209.7450  138.3240 C   0  0  0  0  0  2  0  0  0  0  0  0
  161.1350  208.6310  137.3320 C   0  0  2  0  0  3  0  0  0  0  0  0
  162.1460  208.0680  139.4740 C   0  0  1  0  0  3  0  0  0  0  0  0
  161.8170  209.5560  139.4540 C   0  0  2  0  0  3  0  0  0  0  0  0
  161.3050  210.1290  140.7730 C   0  0  0  0  0  2  0  0  0  0  0  0
  162.1200  211.1870  141.1830 O   0  0  0  0  0  0  0  0  0  0  0  0
  161.0360  213.1020  139.4790 O   0  0  0  0  0  0  0  0  0  0  0  0
  159.7610  212.2420  141.5900 O   0  0  0  0  0  1  0  0  0  0  0  0
  161.9580  214.1220  142.2830 S   0  0  0  0  0  1  0  0  0  0  0  0
  161.1460  212.5760  141.0870 P   0  0  1  0  0  0  0  0  0  0  0  0
  2  1  1  0  0  0  0
  2  5  1  0  0  0  0
  3 33  1  1  0  0  0
  3  2  1  0  0  0  0
  3  5  1  0  0  0  0
  4  2  1  0  0  0  0
  5  6  1  1  0  0  0
  7 14  1  0  0  0  0
  9 10  1  6  0  0  0
  9 11  1  0  0  0  0
 10 11  1  0  0  0  0
 11  8  1  6  0  0  0
 11 15  1  0  0  0  0
 12  6  1  6  0  0  0
 12  9  1  0  0  0  0
 12 13  1  0  0  0  0
 13  7  1  0  0  0  0
 14 16  1  1  0  0  0
 15 14  1  0  0  0  0
 17 18  1  1  0  0  0
 17 13  1  0  0  0  0
 17 19  1  0  0  0  0
 19 26  1  0  0  0  0
 20 19  1  0  0  0  0
 21 20  1  0  0  0  0
 21 19  1  0  0  0  0
 22 24  1  0  0  0  0
 23 27  1  0  0  0  0
 23 25  1  0  0  0  0
 24 25  2  0  0  0  0
 26 22  1  0  0  0  0
 26 23  2  0  0  0  0
 27 29  1  0  0  0  0
 29 28  2  0  0  0  0
 29 30  1  0  0  0  0
 31 30  1  0  0  0  0
 32 31  1  0  0  0  0
 32 30  1  0  0  0  0
 34 35  1  6  0  0  0
 34 36  1  0  0  0  0
 35 36  1  0  0  0  0
 36 33  1  1  0  0  0
 37 39  1  1  0  0  0
 37 34  1  0  0  0  0
 38 42  1  0  0  0  0
 38 37  1  0  0  0  0
 40 38  1  0  0  0  0
 41 40  2  0  0  0  0
 42 37  1  0  0  0  0
 42 39  1  6  0  0  0
 43 40  1  0  0  0  0
 45 44  1  1  0  0  0
 45 48  1  0  0  0  0
 46 49  1  0  0  0  0
 47 44  1  0  0  0  0
 47 45  1  0  0  0  0
 47 46  1  1  0  0  0
 48 43  1  1  0  0  0
 49 48  1  0  0  0  0
 49 50  1  1  0  0  0
 50 51  1  0  0  0  0
 55 52  2  6  0  0  0
 55 51  1  0  0  0  0
 55 53  1  0  0  0  0
 55 54  1  0  0  0  0
M  END
>  <MODEL>
2

>  <REMARK>
 VINA RESULT:      -0.4      4.522      8.530
  Name = 
  16 active torsions:
  status: ('A' for Active; 'I' for Inactive)
    1  A    between atoms: C_3  and  O_34
    2  A    between atoms: C_3  and  C_54
    3  A    between atoms: C_4  and  C_36
    4  A    between atoms: C_4  and  C_43
    5  A    between atoms: C_5  and  C_27
    6  A    between atoms: C_5  and  C_31
    7  A    between atoms: O_10  and  C_13
    8  A    between atoms: O_10  and  C_55
    9  A    between atoms: C_12  and  C_55
   10  A    between atoms: C_14  and  C_18
   11  A    between atoms: C_24  and  C_37
   12  A    between atoms: C_24  and  C_51
   13  A    between atoms: C_29  and  C_53
   14  A    between atoms: C_31  and  N_38
   15  A    between atoms: O_34  and  P_46
   16  A    between atoms: C_40  and  C_53
                            x       y       z     vdW  Elec       q    Type
                         _______ _______ _______ _____ _____    ______ ____

>  <TORSDO>
F 16

$$$$
=
 OpenBabel11072410033D

 55 65  0  0  1  0  0  0  0  0999 V2000
  161.3030  213.3930  150.7620 O   0  0  0  0  0  1  0  0  0  0  0  0
  160.3290  212.4160  150.5150 C   0  0  0  0  0  0  0  0  0  0  0  0
  160.5820  211.4310  149.3900 C   0  0  2  0  0  3  0  0  0  0  0  0
  158.9970  212.7920  150.6920 O   0  0  0  0  0  1  0  0  0  0  0  0
  160.6550  210.9730  150.8660 C   0  0  1  0  0  3  0  0  0  0  0  0
  162.0660  210.8390  151.4430 C   0  0  0  0  0  2  0  0  0  0  0  0
  161.0010  207.6050  153.1860 C   0  0  0  0  0  2  0  0  0  0  0  0
  160.1440  210.9730  153.7320 C   0  0  0  0  0  1  0  0  0  0  0  0
  162.5970  209.7740  153.7020 C   0  0  1  0  0  3  0  0  0  0  0  0
  162.4810  210.9990  154.6050 C   0  0  0  0  0  2  0  0  0  0  0  0
  161.2630  210.1480  154.3780 C   0  0  1  0  0  0  0  0  0  0  0  0
  162.2470  209.5320  152.2250 C   0  0  1  0  0  3  0  0  0  0  0  0
  161.0980  208.5910  152.0800 N   0  0  0  0  0  0  0  0  0  0  0  0
  160.1900  208.1520  154.3920 C   0  0  2  0  0  3  0  0  0  0  0  0
  160.9050  209.0760  155.2070 O   0  0  0  0  0  0  0  0  0  0  0  0
  159.7350  206.9860  155.2450 C   0  0  0  0  0  1  0  0  0  0  0  0
  161.1980  207.8860  150.7860 C   0  0  2  0  0  3  0  0  0  0  0  0
  159.8200  207.6220  150.1960 C   0  0  0  0  0  1  0  0  0  0  0  0
  162.1050  206.6370  150.7750 C   0  0  0  0  0  0  0  0  0  0  0  0
  163.5550  206.8370  151.1640 C   0  0  0  0  0  2  0  0  0  0  0  0
  163.1710  206.6830  149.7020 C   0  0  0  0  0  2  0  0  0  0  0  0
  161.5900  204.6300  152.1650 O   0  0  0  0  0  0  0  0  0  0  0  0
  160.9200  204.4530  150.1080 C   0  0  0  0  0  0  0  0  0  0  0  0
  161.0200  203.4610  152.0710 N   0  0  0  0  0  0  0  0  0  0  0  0
  160.5860  203.3040  150.8020 C   0  0  0  0  0  3  0  0  0  0  0  0
  161.5570  205.2620  151.0170 C   0  0  0  0  0  0  0  0  0  0  0  0
  160.6730  204.7660  148.7630 O   0  0  0  0  0  0  0  0  0  0  0  0
  161.4640  202.8660  147.7000 O   0  0  0  0  0  0  0  0  0  0  0  0
  161.2380  204.1060  147.6690 C   0  0  0  0  0  0  0  0  0  0  0  0
  161.6210  204.9000  146.4600 C   0  0  0  0  0  3  0  0  0  0  0  0
  162.2380  203.9750  145.4260 C   0  0  0  0  0  2  0  0  0  0  0  0
  163.1280  204.8730  146.2560 C   0  0  0  0  0  2  0  0  0  0  0  0
  161.9460  211.6180  148.7150 C   0  0  0  0  0  2  0  0  0  0  0  0
  162.5900  212.5020  146.4910 C   0  0  1  0  0  3  0  0  0  0  0  0
  163.3400  213.2930  147.5440 C   0  0  0  0  0  2  0  0  0  0  0  0
  161.9230  212.8400  147.8140 C   0  0  2  0  0  3  0  0  0  0  0  0
  162.1010  213.4430  145.4020 C   0  0  1  0  0  0  0  0  0  0  0  0
  161.4050  212.7580  144.2690 N   0  0  0  0  0  0  0  0  0  0  0  0
  163.1130  214.4490  144.9220 C   0  0  0  0  0  2  0  0  0  0  0  0
  160.2540  212.1530  143.6900 C   0  0  0  0  0  0  0  0  0  0  0  0
  159.1640  212.1610  144.3160 O   0  0  0  0  0  0  0  0  0  0  0  0
  162.8570  213.1140  144.2760 C   0  0  1  0  0  3  0  0  0  0  0  0
  160.3210  211.5480  142.3310 C   0  0  0  0  0  2  0  0  0  0  0  0
  162.1910  210.6290  140.4230 O   0  0  0  0  0  0  0  0  0  0  0  0
  162.3160  211.9700  140.8480 C   0  0  1  0  0  3  0  0  0  0  0  0
  160.6900  211.8610  139.0390 C   0  0  0  0  0  2  0  0  0  0  0  0
  162.1420  211.6080  139.4150 C   0  0  2  0  0  3  0  0  0  0  0  0
  160.9780  212.5210  141.3480 C   0  0  1  0  0  3  0  0  0  0  0  0
  160.1550  212.7950  140.0950 C   0  0  2  0  0  3  0  0  0  0  0  0
  158.6430  212.6750  140.2700 C   0  0  0  0  0  2  0  0  0  0  0  0
  158.2240  211.3880  139.9250 O   0  0  0  0  0  0  0  0  0  0  0  0
  157.1540  210.7650  137.4320 O   0  0  0  0  0  0  0  0  0  0  0  0
  155.6550  211.0640  139.5490 O   0  0  0  0  0  1  0  0  0  0  0  0
  156.6200  213.6620  138.4710 S   0  0  0  0  0  1  0  0  0  0  0  0
  156.8990  211.6040  138.8830 P   0  0  1  0  0  0  0  0  0  0  0  0
  2  4  1  0  0  0  0
  2  1  1  0  0  0  0
  2  5  1  0  0  0  0
  3 33  1  1  0  0  0
  3  2  1  0  0  0  0
  3  5  1  0  0  0  0
  5  6  1  1  0  0  0
  7 14  1  0  0  0  0
  9 11  1  0  0  0  0
  9 10  1  6  0  0  0
 11  8  1  6  0  0  0
 11 10  1  0  0  0  0
 11 15  1  0  0  0  0
 12  6  1  1  0  0  0
 12  9  1  0  0  0  0
 13 12  1  0  0  0  0
 13  7  1  0  0  0  0
 14 15  1  0  0  0  0
 14 16  1  1  0  0  0
 17 18  1  1  0  0  0
 17 13  1  0  0  0  0
 19 17  1  0  0  0  0
 19 26  1  0  0  0  0
 19 20  1  0  0  0  0
 21 19  1  0  0  0  0
 21 20  1  0  0  0  0
 23 25  1  0  0  0  0
 23 26  2  0  0  0  0
 24 22  1  0  0  0  0
 25 24  2  0  0  0  0
 26 22  1  0  0  0  0
 27 23  1  0  0  0  0
 29 28  2  0  0  0  0
 29 27  1  0  0  0  0
 30 29  1  0  0  0  0
 31 32  1  0  0  0  0
 31 30  1  0  0  0  0
 32 30  1  0  0  0  0
 34 35  1  1  0  0  0
 34 36  1  0  0  0  0
 35 36  1  0  0  0  0
 36 33  1  1  0  0  0
 37 39  1  1  0  0  0
 37 34  1  0  0  0  0
 38 42  1  0  0  0  0
 38 37  1  0  0  0  0
 40 38  1  0  0  0  0
 40 41  2  0  0  0  0
 42 39  1  6  0  0  0
 42 37  1  0  0  0  0
 43 40  1  0  0  0  0
 45 44  1  1  0  0  0
 45 48  1  0  0  0  0
 46 49  1  0  0  0  0
 47 46  1  1  0  0  0
 47 44  1  0  0  0  0
 47 45  1  0  0  0  0
 48 43  1  1  0  0  0
 49 50  1  1  0  0  0
 49 48  1  0  0  0  0
 51 50  1  0  0  0  0
 54 55  1  0  0  0  0
 55 52  2  6  0  0  0
 55 53  1  0  0  0  0
 55 51  1  0  0  0  0
M  END
>  <MODEL>
3

>  <REMARK>
 VINA RESULT:      -0.1      3.905      8.816
  Name = 
  16 active torsions:
  status: ('A' for Active; 'I' for Inactive)
    1  A    between atoms: C_3  and  O_34
    2  A    between atoms: C_3  and  C_54
    3  A    between atoms: C_4  and  C_36
    4  A    between atoms: C_4  and  C_43
    5  A    between atoms: C_5  and  C_27
    6  A    between atoms: C_5  and  C_31
    7  A    between atoms: O_10  and  C_13
    8  A    between atoms: O_10  and  C_55
    9  A    between atoms: C_12  and  C_55
   10  A    between atoms: C_14  and  C_18
   11  A    between atoms: C_24  and  C_37
   12  A    between atoms: C_24  and  C_51
   13  A    between atoms: C_29  and  C_53
   14  A    between atoms: C_31  and  N_38
   15  A    between atoms: O_34  and  P_46
   16  A    between atoms: C_40  and  C_53
                            x       y       z     vdW  Elec       q    Type
                         _______ _______ _______ _____ _____    ______ ____

>  <TORSDO>
F 16

$$$$
=
 OpenBabel11072410033D

 55 65  0  0  1  0  0  0  0  0999 V2000
  161.6800  213.7750  149.4270 O   0  0  0  0  0  1  0  0  0  0  0  0
  160.6690  212.8240  149.2380 C   0  0  0  0  0  0  0  0  0  0  0  0
  160.7550  211.9310  148.0140 C   0  0  2  0  0  3  0  0  0  0  0  0
  159.3780  213.1870  149.6220 O   0  0  0  0  0  1  0  0  0  0  0  0
  161.0200  211.3570  149.4260 C   0  0  1  0  0  3  0  0  0  0  0  0
  162.4940  211.1730  149.7940 C   0  0  0  0  0  2  0  0  0  0  0  0
  161.6530  207.6960  151.1470 C   0  0  0  0  0  2  0  0  0  0  0  0
  160.4810  210.9040  151.9910 C   0  0  0  0  0  1  0  0  0  0  0  0
  163.0290  209.9240  151.9560 C   0  0  1  0  0  3  0  0  0  0  0  0
  162.7700  211.0340  152.9720 C   0  0  0  0  0  2  0  0  0  0  0  0
  161.6420  210.1120  152.6020 C   0  0  1  0  0  0  0  0  0  0  0  0
  162.7590  209.8110  150.4470 C   0  0  1  0  0  3  0  0  0  0  0  0
  161.7050  208.7970  150.1520 N   0  0  0  0  0  0  0  0  0  0  0  0
  160.7500  208.0430  152.3620 C   0  0  2  0  0  3  0  0  0  0  0  0
  161.3480  208.9320  153.3000 O   0  0  0  0  0  0  0  0  0  0  0  0
  160.3670  206.7590  153.0690 C   0  0  0  0  0  1  0  0  0  0  0  0
  161.9170  208.2440  148.8000 C   0  0  2  0  0  3  0  0  0  0  0  0
  161.2080  209.0820  147.7460 C   0  0  0  0  0  1  0  0  0  0  0  0
  161.6440  206.7320  148.6470 C   0  0  0  0  0  0  0  0  0  0  0  0
  160.6940  206.1010  149.6440 C   0  0  0  0  0  2  0  0  0  0  0  0
  162.1940  205.9080  149.7910 C   0  0  0  0  0  2  0  0  0  0  0  0
  161.6740  206.6470  146.1530 O   0  0  0  0  0  0  0  0  0  0  0  0
  161.9040  204.7010  147.0890 C   0  0  0  0  0  0  0  0  0  0  0  0
  161.7960  205.7900  145.1780 N   0  0  0  0  0  0  0  0  0  0  0  0
  161.9410  204.5590  145.7130 C   0  0  0  0  0  3  0  0  0  0  0  0
  161.7310  206.0450  147.3170 C   0  0  0  0  0  0  0  0  0  0  0  0
  162.0210  203.7110  148.0740 O   0  0  0  0  0  0  0  0  0  0  0  0
  161.0900  201.7190  147.3430 O   0  0  0  0  0  0  0  0  0  0  0  0
  161.1600  202.6210  148.2210 C   0  0  0  0  0  0  0  0  0  0  0  0
  160.2740  202.5540  149.4260 C   0  0  0  0  0  3  0  0  0  0  0  0
  161.1170  202.2540  150.6530 C   0  0  0  0  0  2  0  0  0  0  0  0
  160.2890  201.1550  150.0260 C   0  0  0  0  0  2  0  0  0  0  0  0
  162.0180  212.1680  147.1780 C   0  0  0  0  0  2  0  0  0  0  0  0
  162.7750  213.0460  144.9870 C   0  0  1  0  0  3  0  0  0  0  0  0
  162.9070  214.1590  146.0070 C   0  0  0  0  0  2  0  0  0  0  0  0
  161.7440  213.1950  146.0930 C   0  0  2  0  0  3  0  0  0  0  0  0
  162.2330  213.6120  143.6850 C   0  0  1  0  0  0  0  0  0  0  0  0
  161.5270  212.6080  142.8290 N   0  0  0  0  0  0  0  0  0  0  0  0
  163.2060  214.4480  142.8950 C   0  0  0  0  0  2  0  0  0  0  0  0
  160.3780  211.8390  142.4930 C   0  0  0  0  0  0  0  0  0  0  0  0
  159.3050  212.0120  143.1230 O   0  0  0  0  0  0  0  0  0  0  0  0
  162.9690  212.9760  142.6820 C   0  0  1  0  0  3  0  0  0  0  0  0
  160.4260  210.8580  141.3730 C   0  0  0  0  0  2  0  0  0  0  0  0
  162.4670  209.6850  139.8100 O   0  0  0  0  0  0  0  0  0  0  0  0
  162.3440  211.0910  139.7520 C   0  0  1  0  0  3  0  0  0  0  0  0
  160.7990  210.0940  138.1560 C   0  0  0  0  0  2  0  0  0  0  0  0
  162.2650  210.2390  138.5340 C   0  0  2  0  0  3  0  0  0  0  0  0
  160.9200  211.5380  140.0930 C   0  0  1  0  0  3  0  0  0  0  0  0
  160.0870  211.2240  138.8560 C   0  0  2  0  0  3  0  0  0  0  0  0
  158.6170  210.9090  139.1240 C   0  0  0  0  0  2  0  0  0  0  0  0
  158.1830  209.8920  138.2720 O   0  0  0  0  0  0  0  0  0  0  0  0
  155.8410  208.8920  137.1490 O   0  0  0  0  0  0  0  0  0  0  0  0
  155.9590  209.6850  139.6340 O   0  0  0  0  0  1  0  0  0  0  0  0
  155.8880  211.9620  137.7230 S   0  0  0  0  0  1  0  0  0  0  0  0
  156.4870  210.0020  138.2550 P   0  0  1  0  0  0  0  0  0  0  0  0
  2  5  1  0  0  0  0
  2  1  1  0  0  0  0
  2  4  1  0  0  0  0
  3 33  1  6  0  0  0
  3  2  1  0  0  0  0
  3  5  1  0  0  0  0
  5  6  1  6  0  0  0
  7 14  1  0  0  0  0
  9 11  1  0  0  0  0
  9 10  1  6  0  0  0
 11  8  1  6  0  0  0
 11 10  1  0  0  0  0
 11 15  1  0  0  0  0
 12  6  1  1  0  0  0
 12  9  1  0  0  0  0
 13 12  1  0  0  0  0
 13  7  1  0  0  0  0
 14 16  1  1  0  0  0
 14 15  1  0  0  0  0
 17 18  1  6  0  0  0
 17 13  1  0  0  0  0
 19 17  1  0  0  0  0
 19 20  1  0  0  0  0
 19 21  1  0  0  0  0
 20 21  1  0  0  0  0
 22 26  1  0  0  0  0
 23 26  2  0  0  0  0
 23 27  1  0  0  0  0
 24 25  2  0  0  0  0
 24 22  1  0  0  0  0
 25 23  1  0  0  0  0
 26 19  1  0  0  0  0
 27 29  1  0  0  0  0
 28 29  2  0  0  0  0
 29 30  1  0  0  0  0
 30 32  1  0  0  0  0
 30 31  1  0  0  0  0
 32 31  1  0  0  0  0
 34 35  1  1  0  0  0
 34 36  1  0  0  0  0
 35 36  1  0  0  0  0
 36 33  1  1  0  0  0
 37 39  1  6  0  0  0
 37 34  1  0  0  0  0
 38 37  1  0  0  0  0
 40 38  1  0  0  0  0
 40 41  2  0  0  0  0
 42 38  1  0  0  0  0
 42 39  1  6  0  0  0
 42 37  1  0  0  0  0
 43 40  1  0  0  0  0
 45 44  1  1  0  0  0
 45 48  1  0  0  0  0
 46 49  1  0  0  0  0
 47 46  1  1  0  0  0
 47 45  1  0  0  0  0
 47 44  1  0  0  0  0
 48 43  1  1  0  0  0
 49 50  1  1  0  0  0
 49 48  1  0  0  0  0
 51 50  1  0  0  0  0
 54 55  1  0  0  0  0
 55 52  2  6  0  0  0
 55 51  1  0  0  0  0
 55 53  1  0  0  0  0
M  END
>  <MODEL>
4

>  <REMARK>
 VINA RESULT:       0.0      4.492      9.206
  Name = 
  16 active torsions:
  status: ('A' for Active; 'I' for Inactive)
    1  A    between atoms: C_3  and  O_34
    2  A    between atoms: C_3  and  C_54
    3  A    between atoms: C_4  and  C_36
    4  A    between atoms: C_4  and  C_43
    5  A    between atoms: C_5  and  C_27
    6  A    between atoms: C_5  and  C_31
    7  A    between atoms: O_10  and  C_13
    8  A    between atoms: O_10  and  C_55
    9  A    between atoms: C_12  and  C_55
   10  A    between atoms: C_14  and  C_18
   11  A    between atoms: C_24  and  C_37
   12  A    between atoms: C_24  and  C_51
   13  A    between atoms: C_29  and  C_53
   14  A    between atoms: C_31  and  N_38
   15  A    between atoms: O_34  and  P_46
   16  A    between atoms: C_40  and  C_53
                            x       y       z     vdW  Elec       q    Type
                         _______ _______ _______ _____ _____    ______ ____

>  <TORSDO>
F 16

$$$$
=
 OpenBabel11072410033D

 55 65  0  0  1  0  0  0  0  0999 V2000
  157.8570  211.3110  154.3150 O   0  0  0  0  0  1  0  0  0  0  0  0
  159.1030  211.5590  154.9070 C   0  0  0  0  0  0  0  0  0  0  0  0
  160.1610  210.4760  154.8110 C   0  0  2  0  0  3  0  0  0  0  0  0
  159.1050  212.2920  156.0940 O   0  0  0  0  0  1  0  0  0  0  0  0
  160.2990  211.7840  153.9960 C   0  0  1  0  0  3  0  0  0  0  0  0
  159.9090  211.6820  152.5200 C   0  0  0  0  0  2  0  0  0  0  0  0
  161.7340  212.2530  149.2070 C   0  0  0  0  0  2  0  0  0  0  0  0
  160.5990  209.3310  150.8030 C   0  0  0  0  0  1  0  0  0  0  0  0
  162.2940  211.2730  151.7050 C   0  0  1  0  0  3  0  0  0  0  0  0
  162.5330  209.8790  152.2810 C   0  0  0  0  0  2  0  0  0  0  0  0
  161.9730  210.0030  150.8910 C   0  0  1  0  0  0  0  0  0  0  0  0
  161.0370  212.1510  151.5930 C   0  0  1  0  0  3  0  0  0  0  0  0
  160.6080  212.3170  150.1730 N   0  0  0  0  0  0  0  0  0  0  0  0
  162.0510  210.7970  148.7700 C   0  0  2  0  0  3  0  0  0  0  0  0
  162.7710  210.0400  149.7380 O   0  0  0  0  0  0  0  0  0  0  0  0
  162.8450  210.8360  147.4800 C   0  0  0  0  0  1  0  0  0  0  0  0
  159.8880  213.5980  150.0230 C   0  0  2  0  0  3  0  0  0  0  0  0
  160.0210  214.4530  151.2740 C   0  0  0  0  0  1  0  0  0  0  0  0
  158.4310  213.4900  149.5220 C   0  0  0  0  0  0  0  0  0  0  0  0
  157.3960  214.3350  150.2350 C   0  0  0  0  0  2  0  0  0  0  0  0
  157.5010  212.8480  150.5290 C   0  0  0  0  0  2  0  0  0  0  0  0
  157.0870  212.4150  147.7150 O   0  0  0  0  0  0  0  0  0  0  0  0
  158.8000  213.5270  146.9770 C   0  0  0  0  0  0  0  0  0  0  0  0
  157.0600  212.2980  146.4170 N   0  0  0  0  0  0  0  0  0  0  0  0
  158.1120  212.9760  145.9100 C   0  0  0  0  0  3  0  0  0  0  0  0
  158.1090  213.1400  148.1000 C   0  0  0  0  0  0  0  0  0  0  0  0
  159.9550  214.3210  146.9570 O   0  0  0  0  0  0  0  0  0  0  0  0
  162.1580  213.7430  146.5340 O   0  0  0  0  0  0  0  0  0  0  0  0
  161.0420  214.1350  146.0990 C   0  0  0  0  0  0  0  0  0  0  0  0
  160.8810  214.4530  144.6450 C   0  0  0  0  0  3  0  0  0  0  0  0
  161.3130  213.2540  143.8180 C   0  0  0  0  0  2  0  0  0  0  0  0
  162.2320  214.4490  143.9430 C   0  0  0  0  0  2  0  0  0  0  0  0
  159.7130  209.2610  153.9900 C   0  0  0  0  0  2  0  0  0  0  0  0
  160.1540  206.8600  153.5610 C   0  0  1  0  0  3  0  0  0  0  0  0
  160.2880  207.1010  155.0510 C   0  0  0  0  0  2  0  0  0  0  0  0
  160.7540  208.1580  154.0750 C   0  0  2  0  0  3  0  0  0  0  0  0
  161.2560  205.9210  153.0970 C   0  0  1  0  0  0  0  0  0  0  0  0
  161.0330  205.3430  151.7350 N   0  0  0  0  0  0  0  0  0  0  0  0
  161.6690  204.8740  154.0980 C   0  0  0  0  0  2  0  0  0  0  0  0
  161.0800  205.4340  150.3160 C   0  0  0  0  0  0  0  0  0  0  0  0
  161.5850  206.4470  149.7710 O   0  0  0  0  0  0  0  0  0  0  0  0
  160.6470  204.6670  153.0110 C   0  0  1  0  0  3  0  0  0  0  0  0
  160.5690  204.3180  149.4710 C   0  0  0  0  0  2  0  0  0  0  0  0
  159.7540  201.7390  150.2860 O   0  0  0  0  0  0  0  0  0  0  0  0
  161.1160  202.0660  150.4630 C   0  0  1  0  0  3  0  0  0  0  0  0
  160.7860  201.2540  148.1920 C   0  0  0  0  0  2  0  0  0  0  0  0
  160.6830  200.8870  149.6640 C   0  0  2  0  0  3  0  0  0  0  0  0
  161.5600  203.1500  149.4780 C   0  0  1  0  0  3  0  0  0  0  0  0
  161.7070  202.4470  148.1350 C   0  0  2  0  0  3  0  0  0  0  0  0
  161.4540  203.3220  146.9090 C   0  0  0  0  0  2  0  0  0  0  0  0
  162.2640  204.4590  146.9590 O   0  0  0  0  0  0  0  0  0  0  0  0
  160.8980  206.8500  146.5570 O   0  0  0  0  0  1  0  0  0  0  0  0
  162.7510  206.0180  144.9150 O   0  0  0  0  0  0  0  0  0  0  0  0
  160.2010  204.5230  144.5940 S   0  0  0  0  0  1  0  0  0  0  0  0
  161.6280  205.5220  145.7960 P   0  0  1  0  0  0  0  0  0  0  0  0
  1  2  1  0  0  0  0
  2  4  1  0  0  0  0
  3 33  1  6  0  0  0
  3  2  1  0  0  0  0
  5  6  1  6  0  0  0
  5  3  1  0  0  0  0
  5  2  1  0  0  0  0
  7 13  1  0  0  0  0
  9 10  1  1  0  0  0
 11  8  1  6  0  0  0
 11  9  1  0  0  0  0
 11 10  1  0  0  0  0
 12  9  1  0  0  0  0
 12  6  1  1  0  0  0
 13 12  1  0  0  0  0
 14 16  1  6  0  0  0
 14  7  1  0  0  0  0
 14 15  1  0  0  0  0
 15 11  1  0  0  0  0
 17 13  1  0  0  0  0
 17 18  1  1  0  0  0
 19 17  1  0  0  0  0
 19 20  1  0  0  0  0
 19 21  1  0  0  0  0
 20 21  1  0  0  0  0
 22 26  1  0  0  0  0
 23 26  2  0  0  0  0
 24 22  1  0  0  0  0
 25 24  2  0  0  0  0
 25 23  1  0  0  0  0
 26 19  1  0  0  0  0
 27 23  1  0  0  0  0
 29 28  2  0  0  0  0
 29 27  1  0  0  0  0
 30 29  1  0  0  0  0
 31 32  1  0  0  0  0
 31 30  1  0  0  0  0
 32 30  1  0  0  0  0
 34 36  1  0  0  0  0
 34 35  1  1  0  0  0
 36 33  1  1  0  0  0
 36 35  1  0  0  0  0
 37 34  1  0  0  0  0
 37 39  1  1  0  0  0
 38 42  1  0  0  0  0
 38 37  1  0  0  0  0
 40 38  1  0  0  0  0
 41 40  2  0  0  0  0
 42 37  1  0  0  0  0
 42 39  1  1  0  0  0
 43 40  1  0  0  0  0
 45 44  1  6  0  0  0
 47 46  1  6  0  0  0
 47 44  1  0  0  0  0
 47 45  1  0  0  0  0
 48 43  1  6  0  0  0
 48 45  1  0  0  0  0
 49 50  1  6  0  0  0
 49 46  1  0  0  0  0
 49 48  1  0  0  0  0
 50 51  1  0  0  0  0
 53 55  2  0  0  0  0
 55 54  1  6  0  0  0
 55 52  1  0  0  0  0
 55 51  1  0  0  0  0
M  END
>  <MODEL>
5

>  <REMARK>
 VINA RESULT:       0.2      1.971      3.496
  Name = 
  16 active torsions:
  status: ('A' for Active; 'I' for Inactive)
    1  A    between atoms: C_3  and  O_34
    2  A    between atoms: C_3  and  C_54
    3  A    between atoms: C_4  and  C_36
    4  A    between atoms: C_4  and  C_43
    5  A    between atoms: C_5  and  C_27
    6  A    between atoms: C_5  and  C_31
    7  A    between atoms: O_10  and  C_13
    8  A    between atoms: O_10  and  C_55
    9  A    between atoms: C_12  and  C_55
   10  A    between atoms: C_14  and  C_18
   11  A    between atoms: C_24  and  C_37
   12  A    between atoms: C_24  and  C_51
   13  A    between atoms: C_29  and  C_53
   14  A    between atoms: C_31  and  N_38
   15  A    between atoms: O_34  and  P_46
   16  A    between atoms: C_40  and  C_53
                            x       y       z     vdW  Elec       q    Type
                         _______ _______ _______ _____ _____    ______ ____

>  <TORSDO>
F 16

$$$$
=
 OpenBabel11072410033D

 55 65  0  0  1  0  0  0  0  0999 V2000
  160.0820  205.2230  148.5880 O   0  0  0  0  0  1  0  0  0  0  0  0
  160.8090  204.0960  148.9940 C   0  0  0  0  0  0  0  0  0  0  0  0
  162.1740  203.8710  148.3720 C   0  0  2  0  0  3  0  0  0  0  0  0
  160.0800  202.9390  149.2700 O   0  0  0  0  0  1  0  0  0  0  0  0
  162.0470  204.3110  149.8500 C   0  0  1  0  0  3  0  0  0  0  0  0
  162.2950  205.7980  150.1160 C   0  0  0  0  0  2  0  0  0  0  0  0
  160.5500  208.2640  152.4620 C   0  0  0  0  0  2  0  0  0  0  0  0
  163.0730  205.8730  153.0040 C   0  0  0  0  0  1  0  0  0  0  0  0
  160.5620  205.5660  151.9770 C   0  0  1  0  0  3  0  0  0  0  0  0
  161.1210  204.3480  152.7070 C   0  0  0  0  0  2  0  0  0  0  0  0
  161.5550  205.7190  153.1460 C   0  0  1  0  0  0  0  0  0  0  0  0
  161.1220  206.4550  150.8540 C   0  0  1  0  0  3  0  0  0  0  0  0
  161.4250  207.8320  151.3420 N   0  0  0  0  0  0  0  0  0  0  0  0
  161.1060  207.8280  153.8440 C   0  0  2  0  0  3  0  0  0  0  0  0
  160.9030  206.4510  154.1480 O   0  0  0  0  0  0  0  0  0  0  0  0
  160.4600  208.6750  154.9210 C   0  0  0  0  0  1  0  0  0  0  0  0
  161.3160  208.7870  150.2210 C   0  0  2  0  0  3  0  0  0  0  0  0
  161.8090  208.1670  148.9220 C   0  0  0  0  0  1  0  0  0  0  0  0
  161.9090  210.1890  150.4800 C   0  0  0  0  0  0  0  0  0  0  0  0
  163.0120  210.2890  151.5130 C   0  0  0  0  0  2  0  0  0  0  0  0
  161.5980  210.7230  151.8610 C   0  0  0  0  0  2  0  0  0  0  0  0
  162.5820  211.1690  148.2850 O   0  0  0  0  0  0  0  0  0  0  0  0
  161.2510  212.4450  149.4320 C   0  0  0  0  0  0  0  0  0  0  0  0
  162.3880  212.2330  147.5580 N   0  0  0  0  0  0  0  0  0  0  0  0
  161.5630  213.0620  148.2330 C   0  0  0  0  0  3  0  0  0  0  0  0
  161.9240  211.2470  149.4170 C   0  0  0  0  0  0  0  0  0  0  0  0
  160.4240  212.9080  150.4650 O   0  0  0  0  0  0  0  0  0  0  0  0
  158.5900  213.4680  149.1650 O   0  0  0  0  0  0  0  0  0  0  0  0
  159.0960  213.3120  150.3090 C   0  0  0  0  0  0  0  0  0  0  0  0
  158.2790  213.6060  151.5280 C   0  0  0  0  0  3  0  0  0  0  0  0
  159.1610  213.5020  152.7610 C   0  0  0  0  0  2  0  0  0  0  0  0
  158.2000  212.3830  152.4290 C   0  0  0  0  0  2  0  0  0  0  0  0
  162.5940  204.9900  147.4100 C   0  0  0  0  0  2  0  0  0  0  0  0
  162.3590  205.3420  144.9680 C   0  0  1  0  0  3  0  0  0  0  0  0
  161.6620  206.4870  145.6750 C   0  0  0  0  0  2  0  0  0  0  0  0
  161.6040  205.0950  146.2630 C   0  0  2  0  0  3  0  0  0  0  0  0
  161.5230  204.8950  143.7800 C   0  0  1  0  0  0  0  0  0  0  0  0
  161.4530  205.8950  142.6700 N   0  0  0  0  0  0  0  0  0  0  0  0
  160.1690  204.3330  144.1250 C   0  0  0  0  0  2  0  0  0  0  0  0
  162.0020  206.5270  141.5190 C   0  0  0  0  0  0  0  0  0  0  0  0
  163.0840  206.1090  141.0350 O   0  0  0  0  0  0  0  0  0  0  0  0
  160.4340  205.7690  143.7570 C   0  0  1  0  0  3  0  0  0  0  0  0
  161.2840  207.6540  140.8610 C   0  0  0  0  0  2  0  0  0  0  0  0
  160.4680  207.6980  138.1560 O   0  0  0  0  0  0  0  0  0  0  0  0
  161.8580  207.7090  138.4060 C   0  0  1  0  0  3  0  0  0  0  0  0
  161.0180  209.9910  138.5090 C   0  0  0  0  0  2  0  0  0  0  0  0
  161.1890  208.7750  137.6120 C   0  0  2  0  0  3  0  0  0  0  0  0
  162.1700  208.2920  139.7870 C   0  0  1  0  0  3  0  0  0  0  0  0
  161.9920  209.7980  139.6440 C   0  0  2  0  0  3  0  0  0  0  0  0
  161.5600  210.5270  140.9140 C   0  0  0  0  0  2  0  0  0  0  0  0
  162.5100  211.4900  141.2600 O   0  0  0  0  0  0  0  0  0  0  0  0
  161.0690  213.8670  141.3810 O   0  0  0  0  0  0  0  0  0  0  0  0
  160.5700  211.8600  142.9760 O   0  0  0  0  0  1  0  0  0  0  0  0
  163.0370  213.3320  143.7460 S   0  0  0  0  0  1  0  0  0  0  0  0
  161.7040  212.5800  142.2830 P   0  0  1  0  0  0  0  0  0  0  0  0
  1  2  1  0  0  0  0
  2  4  1  0  0  0  0
  2  5  1  0  0  0  0
  3 33  1  6  0  0  0
  3  2  1  0  0  0  0
  3  5  1  0  0  0  0
  5  6  1  6  0  0  0
  7 14  1  0  0  0  0
  9 10  1  6  0  0  0
  9 11  1  0  0  0  0
 10 11  1  0  0  0  0
 11  8  1  6  0  0  0
 11 15  1  0  0  0  0
 12  6  1  1  0  0  0
 12 13  1  0  0  0  0
 12  9  1  0  0  0  0
 13  7  1  0  0  0  0
 14 15  1  0  0  0  0
 14 16  1  1  0  0  0
 17 18  1  6  0  0  0
 17 19  1  0  0  0  0
 17 13  1  0  0  0  0
 19 20  1  0  0  0  0
 19 21  1  0  0  0  0
 20 21  1  0  0  0  0
 22 26  1  0  0  0  0
 23 27  1  0  0  0  0
 24 25  2  0  0  0  0
 24 22  1  0  0  0  0
 25 23  1  0  0  0  0
 26 23  2  0  0  0  0
 26 19  1  0  0  0  0
 28 29  2  0  0  0  0
 29 27  1  0  0  0  0
 29 30  1  0  0  0  0
 30 32  1  0  0  0  0
 30 31  1  0  0  0  0
 32 31  1  0  0  0  0
 34 35  1  6  0  0  0
 34 36  1  0  0  0  0
 35 36  1  0  0  0  0
 36 33  1  1  0  0  0
 37 39  1  6  0  0  0
 37 34  1  0  0  0  0
 38 42  1  0  0  0  0
 38 37  1  0  0  0  0
 40 38  1  0  0  0  0
 41 40  2  0  0  0  0
 42 37  1  0  0  0  0
 42 39  1  6  0  0  0
 43 40  1  0  0  0  0
 45 44  1  1  0  0  0
 45 48  1  0  0  0  0
 46 49  1  0  0  0  0
 47 44  1  0  0  0  0
 47 45  1  0  0  0  0
 47 46  1  1  0  0  0
 48 43  1  1  0  0  0
 49 48  1  0  0  0  0
 49 50  1  1  0  0  0
 50 51  1  0  0  0  0
 51 55  1  0  0  0  0
 55 52  2  6  0  0  0
 55 53  1  0  0  0  0
 55 54  1  0  0  0  0
M  END
>  <MODEL>
6

>  <REMARK>
 VINA RESULT:       0.3      4.204      7.868
  Name = 
  16 active torsions:
  status: ('A' for Active; 'I' for Inactive)
    1  A    between atoms: C_3  and  O_34
    2  A    between atoms: C_3  and  C_54
    3  A    between atoms: C_4  and  C_36
    4  A    between atoms: C_4  and  C_43
    5  A    between atoms: C_5  and  C_27
    6  A    between atoms: C_5  and  C_31
    7  A    between atoms: O_10  and  C_13
    8  A    between atoms: O_10  and  C_55
    9  A    between atoms: C_12  and  C_55
   10  A    between atoms: C_14  and  C_18
   11  A    between atoms: C_24  and  C_37
   12  A    between atoms: C_24  and  C_51
   13  A    between atoms: C_29  and  C_53
   14  A    between atoms: C_31  and  N_38
   15  A    between atoms: O_34  and  P_46
   16  A    between atoms: C_40  and  C_53
                            x       y       z     vdW  Elec       q    Type
                         _______ _______ _______ _____ _____    ______ ____

>  <TORSDO>
F 16

$$$$
=
 OpenBabel11072410033D

 55 65  0  0  1  0  0  0  0  0999 V2000
  159.9590  205.1450  148.4870 O   0  0  0  0  0  1  0  0  0  0  0  0
  160.7360  204.0730  148.9470 C   0  0  0  0  0  0  0  0  0  0  0  0
  162.1380  203.9210  148.3870 C   0  0  2  0  0  3  0  0  0  0  0  0
  160.0690  202.8780  149.2170 O   0  0  0  0  0  1  0  0  0  0  0  0
  161.9210  204.3800  149.8490 C   0  0  1  0  0  3  0  0  0  0  0  0
  162.0660  205.8840  150.0940 C   0  0  0  0  0  2  0  0  0  0  0  0
  160.5300  207.9860  152.8960 C   0  0  0  0  0  2  0  0  0  0  0  0
  163.0550  205.5370  152.8960 C   0  0  0  0  0  1  0  0  0  0  0  0
  160.4720  205.3870  152.0260 C   0  0  1  0  0  3  0  0  0  0  0  0
  161.0680  204.0750  152.5290 C   0  0  0  0  0  2  0  0  0  0  0  0
  161.5500  205.3670  153.1270 C   0  0  1  0  0  0  0  0  0  0  0  0
  160.9590  206.4290  151.0050 C   0  0  1  0  0  3  0  0  0  0  0  0
  161.3140  207.7200  151.6630 N   0  0  0  0  0  0  0  0  0  0  0  0
  161.1810  207.3530  154.1550 C   0  0  2  0  0  3  0  0  0  0  0  0
  160.9830  205.9470  154.2710 O   0  0  0  0  0  0  0  0  0  0  0  0
  160.6260  208.0350  155.3890 C   0  0  0  0  0  1  0  0  0  0  0  0
  161.1360  208.8280  150.7040 C   0  0  2  0  0  3  0  0  0  0  0  0
  161.8030  208.5140  149.3720 C   0  0  0  0  0  1  0  0  0  0  0  0
  161.4890  210.2340  151.2350 C   0  0  0  0  0  0  0  0  0  0  0  0
  162.8080  210.8260  150.7860 C   0  0  0  0  0  2  0  0  0  0  0  0
  162.6710  210.2350  152.1790 C   0  0  0  0  0  2  0  0  0  0  0  0
  159.5790  211.0940  152.5920 O   0  0  0  0  0  0  0  0  0  0  0  0
  160.1770  212.4340  150.9920 C   0  0  0  0  0  0  0  0  0  0  0  0
  158.7890  212.1280  152.6740 N   0  0  0  0  0  0  0  0  0  0  0  0
  159.1240  212.9940  151.6930 C   0  0  0  0  0  3  0  0  0  0  0  0
  160.4270  211.2280  151.6010 C   0  0  0  0  0  0  0  0  0  0  0  0
  160.8730  212.9570  149.8930 O   0  0  0  0  0  0  0  0  0  0  0  0
  159.3570  213.4170  148.2020 O   0  0  0  0  0  0  0  0  0  0  0  0
  160.4430  212.8890  148.5650 C   0  0  0  0  0  0  0  0  0  0  0  0
  161.2690  212.1330  147.5720 C   0  0  0  0  0  3  0  0  0  0  0  0
  162.7210  212.5610  147.6980 C   0  0  0  0  0  2  0  0  0  0  0  0
  161.8820  213.0810  146.5520 C   0  0  0  0  0  2  0  0  0  0  0  0
  162.5290  205.0460  147.4210 C   0  0  0  0  0  2  0  0  0  0  0  0
  162.2970  205.4340  144.9840 C   0  0  1  0  0  3  0  0  0  0  0  0
  161.5190  206.5160  145.7060 C   0  0  0  0  0  2  0  0  0  0  0  0
  161.5460  205.1100  146.2650 C   0  0  2  0  0  3  0  0  0  0  0  0
  161.5030  204.9580  143.7780 C   0  0  1  0  0  0  0  0  0  0  0  0
  161.4540  205.9410  142.6510 N   0  0  0  0  0  0  0  0  0  0  0  0
  160.1470  204.3820  144.0890 C   0  0  0  0  0  2  0  0  0  0  0  0
  162.0300  206.5640  141.5090 C   0  0  0  0  0  0  0  0  0  0  0  0
  163.1310  206.1540  141.0630 O   0  0  0  0  0  0  0  0  0  0  0  0
  160.4040  205.8160  143.7080 C   0  0  1  0  0  3  0  0  0  0  0  0
  161.3180  207.6710  140.8120 C   0  0  0  0  0  2  0  0  0  0  0  0
  160.4670  207.7640  138.1200 O   0  0  0  0  0  0  0  0  0  0  0  0
  161.8600  207.7190  138.3500 C   0  0  1  0  0  3  0  0  0  0  0  0
  161.1120  210.0320  138.4770 C   0  0  0  0  0  2  0  0  0  0  0  0
  161.2230  208.8150  137.5710 C   0  0  2  0  0  3  0  0  0  0  0  0
  162.2130  208.2810  139.7300 C   0  0  1  0  0  3  0  0  0  0  0  0
  162.0930  209.7940  139.5970 C   0  0  2  0  0  3  0  0  0  0  0  0
  161.7070  210.5310  140.8770 C   0  0  0  0  0  2  0  0  0  0  0  0
  160.4590  211.1390  140.7210 O   0  0  0  0  0  0  0  0  0  0  0  0
  158.8860  213.0190  142.0380 O   0  0  0  0  0  0  0  0  0  0  0  0
  161.0820  212.0690  143.0860 O   0  0  0  0  0  1  0  0  0  0  0  0
  161.6200  214.0480  140.9320 S   0  0  0  0  0  1  0  0  0  0  0  0
  160.4700  212.4780  141.7660 P   0  0  1  0  0  0  0  0  0  0  0  0
  1  2  1  0  0  0  0
  2  4  1  0  0  0  0
  2  5  1  0  0  0  0
  3 33  1  6  0  0  0
  3  2  1  0  0  0  0
  3  5  1  0  0  0  0
  5  6  1  6  0  0  0
  7 14  1  0  0  0  0
  9 10  1  6  0  0  0
  9 11  1  0  0  0  0
 10 11  1  0  0  0  0
 11  8  1  6  0  0  0
 11 15  1  0  0  0  0
 12  6  1  1  0  0  0
 12 13  1  0  0  0  0
 12  9  1  0  0  0  0
 13  7  1  0  0  0  0
 14 15  1  0  0  0  0
 14 16  1  1  0  0  0
 17 18  1  6  0  0  0
 17 19  1  0  0  0  0
 17 13  1  0  0  0  0
 19 26  1  0  0  0  0
 19 21  1  0  0  0  0
 20 19  1  0  0  0  0
 20 21  1  0  0  0  0
 22 24  1  0  0  0  0
 23 26  2  0  0  0  0
 23 25  1  0  0  0  0
 25 24  2  0  0  0  0
 26 22  1  0  0  0  0
 27 23  1  0  0  0  0
 28 29  2  0  0  0  0
 29 27  1  0  0  0  0
 30 31  1  0  0  0  0
 30 29  1  0  0  0  0
 32 30  1  0  0  0  0
 32 31  1  0  0  0  0
 34 35  1  6  0  0  0
 34 36  1  0  0  0  0
 35 36  1  0  0  0  0
 36 33  1  1  0  0  0
 37 39  1  6  0  0  0
 37 34  1  0  0  0  0
 38 42  1  0  0  0  0
 38 37  1  0  0  0  0
 40 38  1  0  0  0  0
 41 40  2  0  0  0  0
 42 37  1  0  0  0  0
 42 39  1  6  0  0  0
 43 40  1  0  0  0  0
 45 44  1  1  0  0  0
 45 48  1  0  0  0  0
 46 49  1  0  0  0  0
 47 44  1  0  0  0  0
 47 45  1  0  0  0  0
 47 46  1  1  0  0  0
 48 43  1  1  0  0  0
 49 48  1  0  0  0  0
 49 50  1  1  0  0  0
 51 50  1  0  0  0  0
 51 55  1  0  0  0  0
 55 54  1  6  0  0  0
 55 52  2  0  0  0  0
 55 53  1  0  0  0  0
M  END
>  <MODEL>
7

>  <REMARK>
 VINA RESULT:       0.3      4.277      7.975
  Name = 
  16 active torsions:
  status: ('A' for Active; 'I' for Inactive)
    1  A    between atoms: C_3  and  O_34
    2  A    between atoms: C_3  and  C_54
    3  A    between atoms: C_4  and  C_36
    4  A    between atoms: C_4  and  C_43
    5  A    between atoms: C_5  and  C_27
    6  A    between atoms: C_5  and  C_31
    7  A    between atoms: O_10  and  C_13
    8  A    between atoms: O_10  and  C_55
    9  A    between atoms: C_12  and  C_55
   10  A    between atoms: C_14  and  C_18
   11  A    between atoms: C_24  and  C_37
   12  A    between atoms: C_24  and  C_51
   13  A    between atoms: C_29  and  C_53
   14  A    between atoms: C_31  and  N_38
   15  A    between atoms: O_34  and  P_46
   16  A    between atoms: C_40  and  C_53
                            x       y       z     vdW  Elec       q    Type
                         _______ _______ _______ _____ _____    ______ ____

>  <TORSDO>
F 16

$$$$
=
 OpenBabel11072410033D

 55 65  0  0  1  0  0  0  0  0999 V2000
  162.4750  209.1450  151.9610 O   0  0  0  0  0  1  0  0  0  0  0  0
  161.1800  209.0560  151.4320 C   0  0  0  0  0  0  0  0  0  0  0  0
  160.1770  208.1780  152.1560 C   0  0  2  0  0  3  0  0  0  0  0  0
  161.0610  209.0770  150.0420 O   0  0  0  0  0  1  0  0  0  0  0  0
  160.0460  209.7190  152.1970 C   0  0  1  0  0  3  0  0  0  0  0  0
  160.5470  210.3870  153.4800 C   0  0  0  0  0  2  0  0  0  0  0  0
  158.3250  212.8990  155.3200 C   0  0  0  0  0  2  0  0  0  0  0  0
  161.7680  212.2030  155.5190 C   0  0  0  0  0  1  0  0  0  0  0  0
  159.6250  210.5450  155.8560 C   0  0  1  0  0  3  0  0  0  0  0  0
  160.8740  210.1660  156.6480 C   0  0  0  0  0  2  0  0  0  0  0  0
  160.6190  211.6170  156.3460 C   0  0  1  0  0  0  0  0  0  0  0  0
  159.3910  210.8620  154.3700 C   0  0  1  0  0  3  0  0  0  0  0  0
  159.0350  212.2970  154.1630 N   0  0  0  0  0  0  0  0  0  0  0  0
  159.3060  213.4640  156.3830 C   0  0  2  0  0  3  0  0  0  0  0  0
  159.9130  212.4720  157.2050 O   0  0  0  0  0  0  0  0  0  0  0  0
  158.5620  214.4490  157.2610 C   0  0  0  0  0  1  0  0  0  0  0  0
  158.2130  212.4300  152.9440 C   0  0  2  0  0  3  0  0  0  0  0  0
  157.6460  211.0840  152.5140 C   0  0  0  0  0  1  0  0  0  0  0  0
  158.8670  213.2050  151.7790 C   0  0  0  0  0  0  0  0  0  0  0  0
  160.3300  212.9260  151.5040 C   0  0  0  0  0  2  0  0  0  0  0  0
  159.9190  214.1920  152.2360 C   0  0  0  0  0  2  0  0  0  0  0  0
  156.8210  214.0760  150.6480 O   0  0  0  0  0  0  0  0  0  0  0  0
  158.5020  213.8000  149.3030 C   0  0  0  0  0  0  0  0  0  0  0  0
  156.4040  214.4470  149.4690 N   0  0  0  0  0  0  0  0  0  0  0  0
  157.4210  214.2920  148.5940 C   0  0  0  0  0  3  0  0  0  0  0  0
  158.0690  213.6800  150.6010 C   0  0  0  0  0  0  0  0  0  0  0  0
  159.7860  213.4850  148.8340 O   0  0  0  0  0  0  0  0  0  0  0  0
  159.2470  212.9240  146.6520 O   0  0  0  0  0  0  0  0  0  0  0  0
  160.0640  212.8700  147.6110 C   0  0  0  0  0  0  0  0  0  0  0  0
  161.3370  212.0970  147.4600 C   0  0  0  0  0  3  0  0  0  0  0  0
  162.4030  212.7050  148.3550 C   0  0  0  0  0  2  0  0  0  0  0  0
  162.4300  212.9740  146.8670 C   0  0  0  0  0  2  0  0  0  0  0  0
  160.7340  207.5540  153.4420 C   0  0  0  0  0  2  0  0  0  0  0  0
  161.0520  205.6030  151.9470 C   0  0  1  0  0  3  0  0  0  0  0  0
  160.9140  205.0870  153.3650 C   0  0  0  0  0  2  0  0  0  0  0  0
  161.6460  206.3860  153.1060 C   0  0  2  0  0  3  0  0  0  0  0  0
  162.1430  204.8250  151.2280 C   0  0  1  0  0  0  0  0  0  0  0  0
  162.3270  205.2130  149.7950 N   0  0  0  0  0  0  0  0  0  0  0  0
  162.0910  203.3310  151.4090 C   0  0  0  0  0  2  0  0  0  0  0  0
  162.8510  206.0740  148.7900 C   0  0  0  0  0  0  0  0  0  0  0  0
  163.6100  207.0210  149.1130 O   0  0  0  0  0  0  0  0  0  0  0  0
  161.4710  204.0780  150.2580 C   0  0  1  0  0  3  0  0  0  0  0  0
  162.5380  205.8350  147.3530 C   0  0  0  0  0  2  0  0  0  0  0  0
  160.9220  206.5940  145.1630 O   0  0  0  0  0  0  0  0  0  0  0  0
  160.2560  206.2260  146.3540 C   0  0  1  0  0  3  0  0  0  0  0  0
  160.7420  204.2190  145.0660 C   0  0  0  0  0  2  0  0  0  0  0  0
  159.9940  205.5430  145.0580 C   0  0  2  0  0  3  0  0  0  0  0  0
  161.1160  205.2870  147.2030 C   0  0  1  0  0  3  0  0  0  0  0  0
  161.0390  203.9290  146.5160 C   0  0  2  0  0  3  0  0  0  0  0  0
  162.2660  203.0380  146.6940 C   0  0  0  0  0  2  0  0  0  0  0  0
  162.2050  202.3820  147.9250 O   0  0  0  0  0  0  0  0  0  0  0  0
  160.3760  201.2240  146.1760 O   0  0  0  0  0  0  0  0  0  0  0  0
  161.6810  199.8190  147.9490 O   0  0  0  0  0  1  0  0  0  0  0  0
  159.4870  201.4170  149.1630 S   0  0  0  0  0  1  0  0  0  0  0  0
  161.0320  201.1670  147.7380 P   0  0  1  0  0  0  0  0  0  0  0  0
  2  1  1  0  0  0  0
  2  3  1  0  0  0  0
  2  5  1  0  0  0  0
  3  5  1  0  0  0  0
  3 33  1  1  0  0  0
  4  2  1  0  0  0  0
  5  6  1  1  0  0  0
  7 14  1  0  0  0  0
  9 11  1  0  0  0  0
  9 10  1  6  0  0  0
 11  8  1  6  0  0  0
 11 10  1  0  0  0  0
 11 15  1  0  0  0  0
 12  6  1  6  0  0  0
 12  9  1  0  0  0  0
 13 12  1  0  0  0  0
 13  7  1  0  0  0  0
 14 15  1  0  0  0  0
 14 16  1  1  0  0  0
 17 18  1  6  0  0  0
 17 13  1  0  0  0  0
 19 21  1  0  0  0  0
 19 17  1  0  0  0  0
 20 19  1  0  0  0  0
 20 21  1  0  0  0  0
 23 26  2  0  0  0  0
 24 22  1  0  0  0  0
 25 23  1  0  0  0  0
 25 24  2  0  0  0  0
 26 22  1  0  0  0  0
 26 19  1  0  0  0  0
 27 23  1  0  0  0  0
 28 29  2  0  0  0  0
 29 27  1  0  0  0  0
 30 29  1  0  0  0  0
 30 31  1  0  0  0  0
 32 30  1  0  0  0  0
 32 31  1  0  0  0  0
 34 36  1  0  0  0  0
 34 35  1  1  0  0  0
 36 35  1  0  0  0  0
 36 33  1  1  0  0  0
 37 39  1  1  0  0  0
 37 34  1  0  0  0  0
 38 42  1  0  0  0  0
 38 37  1  0  0  0  0
 40 41  2  0  0  0  0
 40 38  1  0  0  0  0
 42 37  1  0  0  0  0
 42 39  1  6  0  0  0
 43 40  1  0  0  0  0
 45 44  1  6  0  0  0
 45 48  1  0  0  0  0
 46 49  1  0  0  0  0
 47 46  1  1  0  0  0
 47 44  1  0  0  0  0
 47 45  1  0  0  0  0
 48 43  1  6  0  0  0
 49 50  1  6  0  0  0
 49 48  1  0  0  0  0
 50 51  1  0  0  0  0
 55 52  2  6  0  0  0
 55 51  1  0  0  0  0
 55 53  1  0  0  0  0
 55 54  1  0  0  0  0
M  END
>  <MODEL>
8

>  <REMARK>
 VINA RESULT:       0.4      2.429      4.450
  Name = 
  16 active torsions:
  status: ('A' for Active; 'I' for Inactive)
    1  A    between atoms: C_3  and  O_34
    2  A    between atoms: C_3  and  C_54
    3  A    between atoms: C_4  and  C_36
    4  A    between atoms: C_4  and  C_43
    5  A    between atoms: C_5  and  C_27
    6  A    between atoms: C_5  and  C_31
    7  A    between atoms: O_10  and  C_13
    8  A    between atoms: O_10  and  C_55
    9  A    between atoms: C_12  and  C_55
   10  A    between atoms: C_14  and  C_18
   11  A    between atoms: C_24  and  C_37
   12  A    between atoms: C_24  and  C_51
   13  A    between atoms: C_29  and  C_53
   14  A    between atoms: C_31  and  N_38
   15  A    between atoms: O_34  and  P_46
   16  A    between atoms: C_40  and  C_53
                            x       y       z     vdW  Elec       q    Type
                         _______ _______ _______ _____ _____    ______ ____

>  <TORSDO>
F 16

$$$$
=
 OpenBabel11072410033D

 55 65  0  0  1  0  0  0  0  0999 V2000
  159.8860  206.5790  147.5600 O   0  0  0  0  0  1  0  0  0  0  0  0
  160.8850  206.6210  146.5780 C   0  0  0  0  0  0  0  0  0  0  0  0
  162.1210  207.4540  146.8590 C   0  0  2  0  0  3  0  0  0  0  0  0
  160.4650  206.6060  145.2470 O   0  0  0  0  0  1  0  0  0  0  0  0
  162.1970  205.9080  146.8590 C   0  0  1  0  0  3  0  0  0  0  0  0
  162.1960  205.2500  148.2410 C   0  0  0  0  0  2  0  0  0  0  0  0
  159.7160  203.0580  150.1580 C   0  0  0  0  0  2  0  0  0  0  0  0
  162.7230  202.3160  148.4910 C   0  0  0  0  0  1  0  0  0  0  0  0
  160.4540  203.5130  147.5580 C   0  0  1  0  0  3  0  0  0  0  0  0
  161.2540  202.7330  146.5180 C   0  0  0  0  0  2  0  0  0  0  0  0
  161.2900  202.2790  147.9510 C   0  0  1  0  0  0  0  0  0  0  0  0
  160.8440  204.6030  148.5690 C   0  0  1  0  0  3  0  0  0  0  0  0
  160.7490  204.1100  149.9740 N   0  0  0  0  0  0  0  0  0  0  0  0
  160.2670  201.6360  149.8680 C   0  0  2  0  0  3  0  0  0  0  0  0
  160.4020  201.3330  148.4830 O   0  0  0  0  0  0  0  0  0  0  0  0
  159.3510  200.6150  150.5120 C   0  0  0  0  0  1  0  0  0  0  0  0
  160.4780  205.2450  150.8780 C   0  0  2  0  0  3  0  0  0  0  0  0
  160.0800  206.4880  150.0950 C   0  0  0  0  0  1  0  0  0  0  0  0
  161.5630  205.5260  151.9400 C   0  0  0  0  0  0  0  0  0  0  0  0
  162.9610  205.8130  151.4340 C   0  0  0  0  0  2  0  0  0  0  0  0
  162.6220  204.4490  152.0090 C   0  0  0  0  0  2  0  0  0  0  0  0
  161.1300  205.4530  154.3960 O   0  0  0  0  0  0  0  0  0  0  0  0
  160.9830  207.4470  153.5500 C   0  0  0  0  0  0  0  0  0  0  0  0
  160.8410  206.2460  155.3910 N   0  0  0  0  0  0  0  0  0  0  0  0
  160.7380  207.5040  154.9110 C   0  0  0  0  0  3  0  0  0  0  0  0
  161.2250  206.1230  153.2740 C   0  0  0  0  0  0  0  0  0  0  0  0
  160.9970  208.4950  152.6190 O   0  0  0  0  0  0  0  0  0  0  0  0
  162.1760  210.3340  153.3940 O   0  0  0  0  0  0  0  0  0  0  0  0
  161.1030  209.8510  152.9400 C   0  0  0  0  0  0  0  0  0  0  0  0
  159.9010  210.7300  152.7830 C   0  0  0  0  0  3  0  0  0  0  0  0
  160.0670  211.9660  153.6490 C   0  0  0  0  0  2  0  0  0  0  0  0
  159.1500  210.8510  154.1000 C   0  0  0  0  0  2  0  0  0  0  0  0
  162.1190  208.0890  148.2550 C   0  0  0  0  0  2  0  0  0  0  0  0
  162.5990  210.4160  148.9620 C   0  0  1  0  0  3  0  0  0  0  0  0
  161.2650  210.0120  149.5570 C   0  0  0  0  0  2  0  0  0  0  0  0
  161.6470  209.5300  148.1750 C   0  0  2  0  0  3  0  0  0  0  0  0
  162.5170  211.8480  148.4590 C   0  0  1  0  0  0  0  0  0  0  0  0
  161.7340  212.0100  147.1950 N   0  0  0  0  0  0  0  0  0  0  0  0
  163.8290  212.5860  148.4120 C   0  0  0  0  0  2  0  0  0  0  0  0
  160.5010  212.1310  146.4950 C   0  0  0  0  0  0  0  0  0  0  0  0
  159.4230  212.1960  147.1370 O   0  0  0  0  0  0  0  0  0  0  0  0
  163.2180  211.8460  147.2520 C   0  0  1  0  0  3  0  0  0  0  0  0
  160.4820  212.2210  145.0080 C   0  0  0  0  0  2  0  0  0  0  0  0
  162.9940  212.9550  143.9450 O   0  0  0  0  0  0  0  0  0  0  0  0
  162.2500  213.9680  144.5890 C   0  0  1  0  0  3  0  0  0  0  0  0
  161.5220  213.8020  142.2720 C   0  0  0  0  0  2  0  0  0  0  0  0
  162.7070  214.0980  143.1790 C   0  0  2  0  0  3  0  0  0  0  0  0
  160.7510  213.6600  144.5600 C   0  0  1  0  0  3  0  0  0  0  0  0
  160.2980  213.9670  143.1380 C   0  0  2  0  0  3  0  0  0  0  0  0
  159.1140  213.1430  142.6390 C   0  0  0  0  0  2  0  0  0  0  0  0
  158.2620  213.9430  141.8750 O   0  0  0  0  0  0  0  0  0  0  0  0
  159.1030  214.2860  139.2440 O   0  0  0  0  0  0  0  0  0  0  0  0
  158.9790  211.9310  140.3650 O   0  0  0  0  0  1  0  0  0  0  0  0
  156.2950  212.9760  139.6290 S   0  0  0  0  0  1  0  0  0  0  0  0
  158.2750  213.2670  140.3160 P   0  0  1  0  0  0  0  0  0  0  0  0
  2  3  1  0  0  0  0
  2  5  1  0  0  0  0
  2  1  1  0  0  0  0
  3  5  1  0  0  0  0
  3 33  1  1  0  0  0
  4  2  1  0  0  0  0
  5  6  1  1  0  0  0
  9 10  1  6  0  0  0
  9 11  1  0  0  0  0
  9 12  1  0  0  0  0
 10 11  1  0  0  0  0
 11 15  1  0  0  0  0
 11  8  1  1  0  0  0
 12  6  1  6  0  0  0
 12 13  1  0  0  0  0
 13  7  1  0  0  0  0
 13 17  1  0  0  0  0
 14  7  1  0  0  0  0
 14 16  1  6  0  0  0
 15 14  1  0  0  0  0
 17 18  1  6  0  0  0
 17 19  1  0  0  0  0
 19 21  1  0  0  0  0
 19 26  1  0  0  0  0
 20 19  1  0  0  0  0
 20 21  1  0  0  0  0
 22 24  1  0  0  0  0
 23 25  1  0  0  0  0
 25 24  2  0  0  0  0
 26 23  2  0  0  0  0
 26 22  1  0  0  0  0
 27 29  1  0  0  0  0
 27 23  1  0  0  0  0
 29 28  2  0  0  0  0
 30 29  1  0  0  0  0
 30 31  1  0  0  0  0
 30 32  1  0  0  0  0
 31 32  1  0  0  0  0
 34 35  1  1  0  0  0
 36 33  1  1  0  0  0
 36 34  1  0  0  0  0
 36 35  1  0  0  0  0
 37 39  1  1  0  0  0
 37 34  1  0  0  0  0
 38 42  1  0  0  0  0
 38 37  1  0  0  0  0
 40 41  2  0  0  0  0
 40 38  1  0  0  0  0
 42 39  1  1  0  0  0
 42 37  1  0  0  0  0
 43 40  1  0  0  0  0
 45 44  1  6  0  0  0
 46 49  1  0  0  0  0
 47 46  1  6  0  0  0
 47 44  1  0  0  0  0
 47 45  1  0  0  0  0
 48 45  1  0  0  0  0
 48 43  1  6  0  0  0
 49 50  1  6  0  0  0
 49 48  1  0  0  0  0
 51 50  1  0  0  0  0
 54 55  1  0  0  0  0
 55 52  2  6  0  0  0
 55 53  1  0  0  0  0
 55 51  1  0  0  0  0
M  END
>  <MODEL>
9

>  <REMARK>
 VINA RESULT:       0.7      3.246      9.578
  Name = 
  16 active torsions:
  status: ('A' for Active; 'I' for Inactive)
    1  A    between atoms: C_3  and  O_34
    2  A    between atoms: C_3  and  C_54
    3  A    between atoms: C_4  and  C_36
    4  A    between atoms: C_4  and  C_43
    5  A    between atoms: C_5  and  C_27
    6  A    between atoms: C_5  and  C_31
    7  A    between atoms: O_10  and  C_13
    8  A    between atoms: O_10  and  C_55
    9  A    between atoms: C_12  and  C_55
   10  A    between atoms: C_14  and  C_18
   11  A    between atoms: C_24  and  C_37
   12  A    between atoms: C_24  and  C_51
   13  A    between atoms: C_29  and  C_53
   14  A    between atoms: C_31  and  N_38
   15  A    between atoms: O_34  and  P_46
   16  A    between atoms: C_40  and  C_53
                            x       y       z     vdW  Elec       q    Type
                         _______ _______ _______ _____ _____    ______ ____

>  <TORSDO>
F 16

$$$$
