=
 OpenBabel11072413023D

 37 39  0  0  1  0  0  0  0  0999 V2000
  160.2520  205.0920  151.0610 C   0  0  0  0  0  2  0  0  0  0  0  0
  162.7810  206.1780  152.0220 C   0  0  0  0  0  2  0  0  0  0  0  0
  160.8150  206.3780  150.4350 C   0  0  1  0  0  3  0  0  0  0  0  0
  162.4180  204.7070  152.0490 C   0  0  0  0  0  3  0  0  0  0  0  0
  161.6620  207.1150  151.5060 C   0  0  2  0  0  0  0  0  0  0  0  0
  161.3130  204.2450  151.5570 N   0  0  0  0  0  0  0  0  0  0  0  0
  161.5100  209.4600  150.9280 O   0  0  0  0  0  1  0  0  0  0  0  0
  162.3360  208.3330  150.8640 C   0  0  0  0  0  2  0  0  0  0  0  0
  160.7490  207.5570  152.6750 C   0  0  0  0  0  2  0  0  0  0  0  0
  161.2010  207.1290  154.0800 C   0  0  0  0  0  2  0  0  0  0  0  0
  160.9370  208.2020  155.1160 C   0  0  0  0  0  2  0  0  0  0  0  0
  161.2270  209.5640  154.5070 C   0  0  0  0  0  2  0  0  0  0  0  0
  160.6900  211.3910  156.1510 C   0  0  0  0  0  0  0  0  0  0  0  0
  160.3220  210.5700  155.0310 N   0  0  0  0  0  0  0  0  0  0  0  0
  158.2420  211.9480  155.0050 C   0  0  1  0  0  3  0  0  0  0  0  0
  159.6820  212.3510  156.6760 C   0  0  0  0  0  2  0  0  0  0  0  0
  161.8550  211.3480  156.6400 O   0  0  0  0  0  0  0  0  0  0  0  0
  158.3960  211.8520  156.3970 O   0  0  0  0  0  0  0  0  0  0  0  0
  159.1010  210.8870  154.2790 C   0  0  0  0  0  2  0  0  0  0  0  0
  156.7620  211.8470  154.6350 C   0  0  1  0  0  3  0  0  0  0  0  0
  156.1040  210.9470  155.4790 O   0  0  0  0  0  1  0  0  0  0  0  0
  156.0720  213.2040  154.6410 C   0  0  0  0  0  2  0  0  0  0  0  0
  156.2030  213.8050  153.3900 O   0  0  0  0  0  1  0  0  0  0  0  0
  161.5970  206.1310  149.2820 O   0  0  0  0  0  0  0  0  0  0  0  0
  160.7300  206.0550  148.2370 N   0  0  0  0  0  2  0  0  0  0  0  0
  161.3880  205.0500  144.7110 C   0  0  0  0  0  0  0  0  0  0  0  0
  161.3760  203.0550  146.0680 C   0  0  0  0  0  3  0  0  0  0  0  0
  161.1590  203.8210  147.2280 C   0  0  0  0  0  0  0  0  0  0  0  0
  161.0030  205.2200  147.1000 C   0  0  0  0  0  0  0  0  0  0  0  0
  161.1380  205.8250  145.8460 C   0  0  0  0  0  3  0  0  0  0  0  0
  161.5830  205.8310  143.1570 Cl  0  0  0  0  0  0  0  0  0  0  0  0
  161.4980  203.6680  144.8180 C   0  0  0  0  0  3  0  0  0  0  0  0
  161.0770  203.2400  148.5060 O   0  0  0  0  0  0  0  0  0  0  0  0
  160.6660  201.9320  148.8450 C   0  0  0  0  0  0  0  0  0  0  0  0
  159.4590  201.7440  149.1430 O   0  0  0  0  0  0  0  0  0  0  0  0
  161.5890  200.7600  148.8440 C   0  0  0  0  0  2  0  0  0  0  0  0
  161.5760  200.1100  147.4730 C   0  0  0  0  0  1  0  0  0  0  0  0
  1  6  1  0  0  0  0
  2  4  1  0  0  0  0
  3 24  1  6  0  0  0
  3  1  1  0  0  0  0
  3  5  1  0  0  0  0
  5  8  1  6  0  0  0
  5  2  1  0  0  0  0
  5  9  1  0  0  0  0
  6  4  2  0  0  0  0
  8  7  1  0  0  0  0
  9 10  1  0  0  0  0
 10 11  1  0  0  0  0
 12 14  1  0  0  0  0
 12 11  1  0  0  0  0
 13 17  2  0  0  0  0
 13 16  1  0  0  0  0
 14 13  1  0  0  0  0
 15 20  1  1  0  0  0
 15 18  1  0  0  0  0
 18 16  1  0  0  0  0
 19 15  1  0  0  0  0
 19 14  1  0  0  0  0
 20 22  1  0  0  0  0
 20 21  1  1  0  0  0
 23 22  1  0  0  0  0
 25 24  1  0  0  0  0
 26 32  2  0  0  0  0
 26 30  1  0  0  0  0
 27 28  2  0  0  0  0
 28 33  1  0  0  0  0
 29 28  1  0  0  0  0
 29 25  1  0  0  0  0
 30 29  2  0  0  0  0
 31 26  1  0  0  0  0
 32 27  1  0  0  0  0
 33 34  1  0  0  0  0
 34 35  2  0  0  0  0
 36 34  1  0  0  0  0
 37 36  1  0  0  0  0
M  END
>  <MODEL>
1

>  <REMARK>
 VINA RESULT:      -6.4      0.000      0.000
  Name = 
  14 active torsions:
  status: ('A' for Active; 'I' for Inactive)
    1  A    between atoms: N_3  and  C_25
    2  A    between atoms: N_3  and  O_31
    3  A    between atoms: C_4  and  C_15
    4  A    between atoms: C_4  and  C_23
    5  A    between atoms: N_5  and  C_10
    6  A    between atoms: C_6  and  O_17
    7  A    between atoms: C_6  and  C_19
    8  A    between atoms: C_7  and  C_29
    9  A    between atoms: C_10  and  C_11
   10  A    between atoms: C_11  and  C_15
   11  A    between atoms: C_12  and  C_29
   12  A    between atoms: C_14  and  O_31
   13  A    between atoms: O_17  and  C_21
   14  A    between atoms: C_23  and  C_27
                            x       y       z     vdW  Elec       q    Type
                         _______ _______ _______ _____ _____    ______ ____

>  <TORSDO>
F 14

$$$$
=
 OpenBabel11072413023D

 37 39  0  0  1  0  0  0  0  0999 V2000
  162.6380  209.8860  152.3290 C   0  0  0  0  0  2  0  0  0  0  0  0
  160.4570  208.0480  151.7230 C   0  0  0  0  0  2  0  0  0  0  0  0
  162.2640  209.6050  150.8640 C   0  0  1  0  0  3  0  0  0  0  0  0
  160.5440  208.8850  152.9830 C   0  0  0  0  0  3  0  0  0  0  0  0
  161.6750  208.1730  150.7750 C   0  0  2  0  0  0  0  0  0  0  0  0
  161.4930  209.7390  153.1980 N   0  0  0  0  0  0  0  0  0  0  0  0
  162.2290  207.9840  148.4260 O   0  0  0  0  0  1  0  0  0  0  0  0
  161.1770  207.9220  149.3460 C   0  0  0  0  0  2  0  0  0  0  0  0
  162.7610  207.1390  151.1570 C   0  0  0  0  0  2  0  0  0  0  0  0
  162.2970  205.9680  152.0340 C   0  0  0  0  0  2  0  0  0  0  0  0
  161.1190  205.2330  151.4290 C   0  0  0  0  0  2  0  0  0  0  0  0
  161.5310  203.8020  151.1220 C   0  0  0  0  0  2  0  0  0  0  0  0
  160.9030  202.1540  149.3280 C   0  0  0  0  0  0  0  0  0  0  0  0
  161.2880  203.4790  149.7290 N   0  0  0  0  0  0  0  0  0  0  0  0
  161.0130  204.0350  147.3120 C   0  0  1  0  0  3  0  0  0  0  0  0
  160.7400  201.8810  147.8740 C   0  0  0  0  0  2  0  0  0  0  0  0
  160.6460  201.2600  150.1840 O   0  0  0  0  0  0  0  0  0  0  0  0
  161.5750  202.7580  147.1560 O   0  0  0  0  0  0  0  0  0  0  0  0
  161.2400  204.5690  148.7450 C   0  0  0  0  0  2  0  0  0  0  0  0
  161.5660  204.9820  146.2460 C   0  0  1  0  0  3  0  0  0  0  0  0
  162.9460  204.8130  146.1060 O   0  0  0  0  0  1  0  0  0  0  0  0
  160.8570  204.8220  144.9080 C   0  0  0  0  0  2  0  0  0  0  0  0
  161.5830  205.4690  143.9090 O   0  0  0  0  0  1  0  0  0  0  0  0
  161.3420  210.5440  150.3440 O   0  0  0  0  0  0  0  0  0  0  0  0
  162.0800  211.5580  149.8180 N   0  0  0  0  0  2  0  0  0  0  0  0
  161.4730  213.1560  146.5080 C   0  0  0  0  0  0  0  0  0  0  0  0
  160.1050  214.2820  148.1450 C   0  0  0  0  0  3  0  0  0  0  0  0
  160.5620  213.4150  149.1540 C   0  0  0  0  0  0  0  0  0  0  0  0
  161.5340  212.4420  148.8250 C   0  0  0  0  0  0  0  0  0  0  0  0
  161.9660  212.3080  147.5030 C   0  0  0  0  0  3  0  0  0  0  0  0
  162.0070  212.9500  144.8540 Cl  0  0  0  0  0  0  0  0  0  0  0  0
  160.5520  214.1470  146.8280 C   0  0  0  0  0  3  0  0  0  0  0  0
  160.0980  213.4960  150.4790 O   0  0  0  0  0  0  0  0  0  0  0  0
  158.8770  213.0210  151.0060 C   0  0  0  0  0  0  0  0  0  0  0  0
  157.8060  213.4100  150.4750 O   0  0  0  0  0  0  0  0  0  0  0  0
  158.7980  212.0630  152.1480 C   0  0  0  0  0  2  0  0  0  0  0  0
  159.7250  212.5240  153.2570 C   0  0  0  0  0  1  0  0  0  0  0  0
  1  6  1  0  0  0  0
  2  4  1  0  0  0  0
  3 24  1  1  0  0  0
  3  1  1  0  0  0  0
  4  6  2  0  0  0  0
  5  8  1  6  0  0  0
  5  3  1  0  0  0  0
  5  9  1  0  0  0  0
  5  2  1  0  0  0  0
  7  8  1  0  0  0  0
  9 10  1  0  0  0  0
 11 10  1  0  0  0  0
 12 11  1  0  0  0  0
 13 14  1  0  0  0  0
 13 17  2  0  0  0  0
 14 12  1  0  0  0  0
 15 20  1  6  0  0  0
 15 19  1  0  0  0  0
 16 13  1  0  0  0  0
 18 15  1  0  0  0  0
 18 16  1  0  0  0  0
 19 14  1  0  0  0  0
 20 21  1  6  0  0  0
 22 20  1  0  0  0  0
 23 22  1  0  0  0  0
 25 24  1  0  0  0  0
 26 32  2  0  0  0  0
 26 30  1  0  0  0  0
 27 28  2  0  0  0  0
 28 33  1  0  0  0  0
 29 28  1  0  0  0  0
 29 25  1  0  0  0  0
 30 29  2  0  0  0  0
 31 26  1  0  0  0  0
 32 27  1  0  0  0  0
 33 34  1  0  0  0  0
 34 36  1  0  0  0  0
 35 34  2  0  0  0  0
 36 37  1  0  0  0  0
M  END
>  <MODEL>
2

>  <REMARK>
 VINA RESULT:      -6.2      3.479      9.239
  Name = 
  14 active torsions:
  status: ('A' for Active; 'I' for Inactive)
    1  A    between atoms: N_3  and  C_25
    2  A    between atoms: N_3  and  O_31
    3  A    between atoms: C_4  and  C_15
    4  A    between atoms: C_4  and  C_23
    5  A    between atoms: N_5  and  C_10
    6  A    between atoms: C_6  and  O_17
    7  A    between atoms: C_6  and  C_19
    8  A    between atoms: C_7  and  C_29
    9  A    between atoms: C_10  and  C_11
   10  A    between atoms: C_11  and  C_15
   11  A    between atoms: C_12  and  C_29
   12  A    between atoms: C_14  and  O_31
   13  A    between atoms: O_17  and  C_21
   14  A    between atoms: C_23  and  C_27
                            x       y       z     vdW  Elec       q    Type
                         _______ _______ _______ _____ _____    ______ ____

>  <TORSDO>
F 14

$$$$
=
 OpenBabel11072413023D

 37 39  0  0  1  0  0  0  0  0999 V2000
  160.4550  205.5810  151.1600 C   0  0  0  0  0  2  0  0  0  0  0  0
  162.7720  207.2190  151.8290 C   0  0  0  0  0  2  0  0  0  0  0  0
  160.7190  206.8800  150.3810 C   0  0  1  0  0  3  0  0  0  0  0  0
  162.7060  205.7160  152.0140 C   0  0  0  0  0  3  0  0  0  0  0  0
  161.4640  207.8690  151.3160 C   0  0  2  0  0  0  0  0  0  0  0  0
  161.6860  205.0060  151.6500 N   0  0  0  0  0  0  0  0  0  0  0  0
  162.6950  209.9520  151.2620 O   0  0  0  0  0  1  0  0  0  0  0  0
  161.8510  209.1200  150.5190 C   0  0  0  0  0  2  0  0  0  0  0  0
  160.5500  208.2480  152.5050 C   0  0  0  0  0  2  0  0  0  0  0  0
  161.1170  207.9690  153.9050 C   0  0  0  0  0  2  0  0  0  0  0  0
  160.7090  209.0280  154.9080 C   0  0  0  0  0  2  0  0  0  0  0  0
  161.0020  210.4020  154.3280 C   0  0  0  0  0  2  0  0  0  0  0  0
  159.5090  211.9900  153.0720 C   0  0  0  0  0  0  0  0  0  0  0  0
  159.7910  211.1960  154.2350 N   0  0  0  0  0  0  0  0  0  0  0  0
  157.5560  211.9780  155.0220 C   0  0  1  0  0  3  0  0  0  0  0  0
  158.2830  212.8320  153.0790 C   0  0  0  0  0  2  0  0  0  0  0  0
  160.2430  211.9290  152.0440 O   0  0  0  0  0  0  0  0  0  0  0  0
  157.9770  213.1700  154.4110 O   0  0  0  0  0  0  0  0  0  0  0  0
  158.7510  211.0250  155.2580 C   0  0  0  0  0  2  0  0  0  0  0  0
  156.8000  212.2920  156.3130 C   0  0  1  0  0  3  0  0  0  0  0  0
  156.4480  213.6430  156.3610 O   0  0  0  0  0  1  0  0  0  0  0  0
  155.5780  211.4020  156.4980 C   0  0  0  0  0  2  0  0  0  0  0  0
  155.3520  210.6640  155.3370 O   0  0  0  0  0  1  0  0  0  0  0  0
  161.4690  206.6680  149.2000 O   0  0  0  0  0  0  0  0  0  0  0  0
  160.6020  206.1700  148.2770 N   0  0  0  0  0  2  0  0  0  0  0  0
  161.5060  205.2990  144.7700 C   0  0  0  0  0  0  0  0  0  0  0  0
  161.9240  203.3670  146.1530 C   0  0  0  0  0  3  0  0  0  0  0  0
  161.5300  204.0780  147.3020 C   0  0  0  0  0  0  0  0  0  0  0  0
  161.0670  205.4050  147.1530 C   0  0  0  0  0  0  0  0  0  0  0  0
  161.0770  206.0110  145.8930 C   0  0  0  0  0  3  0  0  0  0  0  0
  161.5380  206.0860  143.2080 Cl  0  0  0  0  0  0  0  0  0  0  0  0
  161.9200  203.9770  144.8970 C   0  0  0  0  0  3  0  0  0  0  0  0
  161.5650  203.5070  148.5870 O   0  0  0  0  0  0  0  0  0  0  0  0
  160.9030  202.3470  149.0450 C   0  0  0  0  0  0  0  0  0  0  0  0
  160.6630  202.2430  150.2750 O   0  0  0  0  0  0  0  0  0  0  0  0
  160.4550  201.2500  148.1370 C   0  0  0  0  0  2  0  0  0  0  0  0
  161.5690  200.2320  147.9900 C   0  0  0  0  0  1  0  0  0  0  0  0
  1  6  1  0  0  0  0
  2  4  1  0  0  0  0
  3 24  1  6  0  0  0
  3  1  1  0  0  0  0
  3  5  1  0  0  0  0
  5  8  1  6  0  0  0
  5  2  1  0  0  0  0
  5  9  1  0  0  0  0
  6  4  2  0  0  0  0
  8  7  1  0  0  0  0
  9 10  1  0  0  0  0
 10 11  1  0  0  0  0
 12 11  1  0  0  0  0
 13 16  1  0  0  0  0
 13 14  1  0  0  0  0
 14 12  1  0  0  0  0
 14 19  1  0  0  0  0
 15 19  1  0  0  0  0
 15 20  1  1  0  0  0
 16 18  1  0  0  0  0
 17 13  2  0  0  0  0
 18 15  1  0  0  0  0
 20 21  1  6  0  0  0
 20 22  1  0  0  0  0
 23 22  1  0  0  0  0
 25 24  1  0  0  0  0
 26 32  2  0  0  0  0
 26 30  1  0  0  0  0
 27 28  2  0  0  0  0
 28 33  1  0  0  0  0
 29 28  1  0  0  0  0
 29 25  1  0  0  0  0
 30 29  2  0  0  0  0
 31 26  1  0  0  0  0
 32 27  1  0  0  0  0
 33 34  1  0  0  0  0
 34 35  2  0  0  0  0
 36 34  1  0  0  0  0
 37 36  1  0  0  0  0
M  END
>  <MODEL>
3

>  <REMARK>
 VINA RESULT:      -6.1      1.337      1.714
  Name = 
  14 active torsions:
  status: ('A' for Active; 'I' for Inactive)
    1  A    between atoms: N_3  and  C_25
    2  A    between atoms: N_3  and  O_31
    3  A    between atoms: C_4  and  C_15
    4  A    between atoms: C_4  and  C_23
    5  A    between atoms: N_5  and  C_10
    6  A    between atoms: C_6  and  O_17
    7  A    between atoms: C_6  and  C_19
    8  A    between atoms: C_7  and  C_29
    9  A    between atoms: C_10  and  C_11
   10  A    between atoms: C_11  and  C_15
   11  A    between atoms: C_12  and  C_29
   12  A    between atoms: C_14  and  O_31
   13  A    between atoms: O_17  and  C_21
   14  A    between atoms: C_23  and  C_27
                            x       y       z     vdW  Elec       q    Type
                         _______ _______ _______ _____ _____    ______ ____

>  <TORSDO>
F 14

$$$$
=
 OpenBabel11072413023D

 37 39  0  0  1  0  0  0  0  0999 V2000
  160.8310  207.9280  150.4140 C   0  0  0  0  0  2  0  0  0  0  0  0
  162.8560  206.2570  151.6810 C   0  0  0  0  0  2  0  0  0  0  0  0
  160.8460  207.7790  151.9440 C   0  0  1  0  0  3  0  0  0  0  0  0
  163.0520  206.9910  150.3700 C   0  0  0  0  0  3  0  0  0  0  0  0
  161.4410  206.3900  152.2950 C   0  0  2  0  0  0  0  0  0  0  0  0
  162.1570  207.7760  149.8610 N   0  0  0  0  0  0  0  0  0  0  0  0
  160.3660  206.5220  154.4590 O   0  0  0  0  0  1  0  0  0  0  0  0
  161.5840  206.2730  153.8170 C   0  0  0  0  0  2  0  0  0  0  0  0
  160.5140  205.2750  151.7530 C   0  0  0  0  0  2  0  0  0  0  0  0
  160.9750  203.8330  152.0090 C   0  0  0  0  0  2  0  0  0  0  0  0
  160.5310  202.8880  150.9120 C   0  0  0  0  0  2  0  0  0  0  0  0
  161.7190  202.5660  150.0210 C   0  0  0  0  0  2  0  0  0  0  0  0
  161.0570  201.7520  147.7350 C   0  0  0  0  0  0  0  0  0  0  0  0
  161.4080  202.8220  148.6270 N   0  0  0  0  0  0  0  0  0  0  0  0
  160.9660  204.2920  146.6610 C   0  0  1  0  0  3  0  0  0  0  0  0
  160.8210  202.0830  146.3040 C   0  0  0  0  0  2  0  0  0  0  0  0
  160.8900  200.5730  148.1600 O   0  0  0  0  0  0  0  0  0  0  0  0
  161.5720  203.2270  145.9760 O   0  0  0  0  0  0  0  0  0  0  0  0
  161.2550  204.2110  148.1770 C   0  0  0  0  0  2  0  0  0  0  0  0
  161.4140  205.6230  146.0550 C   0  0  1  0  0  3  0  0  0  0  0  0
  162.2060  206.3340  146.9610 O   0  0  0  0  0  1  0  0  0  0  0  0
  162.1350  205.4390  144.7260 C   0  0  0  0  0  2  0  0  0  0  0  0
  161.2520  205.6730  143.6740 O   0  0  0  0  0  1  0  0  0  0  0  0
  161.5830  208.8000  152.5880 O   0  0  0  0  0  0  0  0  0  0  0  0
  161.0900  209.9810  152.1270 N   0  0  0  0  0  2  0  0  0  0  0  0
  158.7790  212.6240  153.3720 C   0  0  0  0  0  0  0  0  0  0  0  0
  160.3330  212.0960  155.1400 C   0  0  0  0  0  3  0  0  0  0  0  0
  160.9420  211.1120  154.3390 C   0  0  0  0  0  0  0  0  0  0  0  0
  160.4810  210.9340  153.0140 C   0  0  0  0  0  0  0  0  0  0  0  0
  159.3910  211.6760  152.5490 C   0  0  0  0  0  3  0  0  0  0  0  0
  157.3990  213.5220  152.7780 Cl  0  0  0  0  0  0  0  0  0  0  0  0
  159.2530  212.8410  154.6610 C   0  0  0  0  0  3  0  0  0  0  0  0
  162.0010  210.3140  154.8060 O   0  0  0  0  0  0  0  0  0  0  0  0
  162.6210  210.3410  156.0740 C   0  0  0  0  0  0  0  0  0  0  0  0
  163.6540  211.0440  156.2200 O   0  0  0  0  0  0  0  0  0  0  0  0
  162.0960  209.5960  157.2560 C   0  0  0  0  0  2  0  0  0  0  0  0
  161.7870  208.1660  156.8530 C   0  0  0  0  0  1  0  0  0  0  0  0
  1  3  1  0  0  0  0
  2  5  1  0  0  0  0
  3  5  1  0  0  0  0
  3 24  1  1  0  0  0
  4  2  1  0  0  0  0
  5  9  1  6  0  0  0
  5  8  1  0  0  0  0
  6  4  2  0  0  0  0
  6  1  1  0  0  0  0
  8  7  1  0  0  0  0
  9 10  1  0  0  0  0
 11 10  1  0  0  0  0
 12 11  1  0  0  0  0
 13 17  2  0  0  0  0
 13 14  1  0  0  0  0
 14 12  1  0  0  0  0
 15 20  1  6  0  0  0
 15 19  1  0  0  0  0
 16 13  1  0  0  0  0
 18 16  1  0  0  0  0
 18 15  1  0  0  0  0
 19 14  1  0  0  0  0
 20 21  1  1  0  0  0
 22 20  1  0  0  0  0
 23 22  1  0  0  0  0
 25 24  1  0  0  0  0
 25 29  1  0  0  0  0
 26 32  1  0  0  0  0
 28 33  1  0  0  0  0
 28 27  1  0  0  0  0
 29 28  2  0  0  0  0
 30 29  1  0  0  0  0
 30 26  2  0  0  0  0
 31 26  1  0  0  0  0
 32 27  2  0  0  0  0
 33 34  1  0  0  0  0
 34 35  2  0  0  0  0
 34 36  1  0  0  0  0
 37 36  1  0  0  0  0
M  END
>  <MODEL>
4

>  <REMARK>
 VINA RESULT:      -6.1      3.200      9.834
  Name = 
  14 active torsions:
  status: ('A' for Active; 'I' for Inactive)
    1  A    between atoms: N_3  and  C_25
    2  A    between atoms: N_3  and  O_31
    3  A    between atoms: C_4  and  C_15
    4  A    between atoms: C_4  and  C_23
    5  A    between atoms: N_5  and  C_10
    6  A    between atoms: C_6  and  O_17
    7  A    between atoms: C_6  and  C_19
    8  A    between atoms: C_7  and  C_29
    9  A    between atoms: C_10  and  C_11
   10  A    between atoms: C_11  and  C_15
   11  A    between atoms: C_12  and  C_29
   12  A    between atoms: C_14  and  O_31
   13  A    between atoms: O_17  and  C_21
   14  A    between atoms: C_23  and  C_27
                            x       y       z     vdW  Elec       q    Type
                         _______ _______ _______ _____ _____    ______ ____

>  <TORSDO>
F 14

$$$$
=
 OpenBabel11072413023D

 37 39  0  0  1  0  0  0  0  0999 V2000
  160.8180  207.8740  150.4580 C   0  0  0  0  0  2  0  0  0  0  0  0
  162.8570  206.3550  151.8840 C   0  0  0  0  0  2  0  0  0  0  0  0
  160.8160  207.8530  151.9950 C   0  0  1  0  0  3  0  0  0  0  0  0
  163.0560  206.9800  150.5180 C   0  0  0  0  0  3  0  0  0  0  0  0
  161.4320  206.5100  152.4680 C   0  0  2  0  0  0  0  0  0  0  0  0
  162.1540  207.7020  149.9350 N   0  0  0  0  0  0  0  0  0  0  0  0
  160.3160  206.7490  154.6030 O   0  0  0  0  0  1  0  0  0  0  0  0
  161.5570  206.5240  153.9960 C   0  0  0  0  0  2  0  0  0  0  0  0
  160.5330  205.3370  152.0110 C   0  0  0  0  0  2  0  0  0  0  0  0
  160.9910  203.9340  152.4350 C   0  0  0  0  0  2  0  0  0  0  0  0
  160.5960  202.8750  151.4260 C   0  0  0  0  0  2  0  0  0  0  0  0
  161.7820  202.5830  150.5220 C   0  0  0  0  0  2  0  0  0  0  0  0
  161.1190  201.8080  148.2220 C   0  0  0  0  0  0  0  0  0  0  0  0
  161.4590  202.8630  149.1350 N   0  0  0  0  0  0  0  0  0  0  0  0
  160.9850  204.3690  147.2030 C   0  0  1  0  0  3  0  0  0  0  0  0
  160.8700  202.1650  146.7990 C   0  0  0  0  0  2  0  0  0  0  0  0
  160.9720  200.6180  148.6230 O   0  0  0  0  0  0  0  0  0  0  0  0
  161.6030  203.3270  146.4920 O   0  0  0  0  0  0  0  0  0  0  0  0
  161.2830  204.2600  148.7160 C   0  0  0  0  0  2  0  0  0  0  0  0
  161.4090  205.7190  146.6230 C   0  0  1  0  0  3  0  0  0  0  0  0
  162.7330  205.6690  146.1800 O   0  0  0  0  0  1  0  0  0  0  0  0
  160.4780  206.1890  145.5130 C   0  0  0  0  0  2  0  0  0  0  0  0
  160.4720  205.2570  144.4770 O   0  0  0  0  0  1  0  0  0  0  0  0
  161.5250  208.9390  152.5600 O   0  0  0  0  0  0  0  0  0  0  0  0
  160.5900  209.8090  153.0290 N   0  0  0  0  0  2  0  0  0  0  0  0
  162.0520  210.8160  156.3040 C   0  0  0  0  0  0  0  0  0  0  0  0
  159.7380  211.4980  156.2750 C   0  0  0  0  0  3  0  0  0  0  0  0
  159.5890  211.0120  154.9630 C   0  0  0  0  0  0  0  0  0  0  0  0
  160.6890  210.3710  154.3480 C   0  0  0  0  0  0  0  0  0  0  0  0
  161.9150  210.2960  155.0150 C   0  0  0  0  0  3  0  0  0  0  0  0
  163.6040  210.7370  157.1080 Cl  0  0  0  0  0  0  0  0  0  0  0  0
  160.9650  211.4080  156.9380 C   0  0  0  0  0  3  0  0  0  0  0  0
  158.3810  211.1280  154.2520 O   0  0  0  0  0  0  0  0  0  0  0  0
  157.6350  212.2960  153.9850 C   0  0  0  0  0  0  0  0  0  0  0  0
  158.1460  213.1750  153.2440 O   0  0  0  0  0  0  0  0  0  0  0  0
  156.2610  212.5290  154.5190 C   0  0  0  0  0  2  0  0  0  0  0  0
  156.1700  211.9770  155.9300 C   0  0  0  0  0  1  0  0  0  0  0  0
  1  3  1  0  0  0  0
  2  5  1  0  0  0  0
  3  5  1  0  0  0  0
  3 24  1  1  0  0  0
  4  2  1  0  0  0  0
  5  9  1  6  0  0  0
  5  8  1  0  0  0  0
  6  1  1  0  0  0  0
  6  4  2  0  0  0  0
  8  7  1  0  0  0  0
  9 10  1  0  0  0  0
 11 10  1  0  0  0  0
 12 11  1  0  0  0  0
 13 17  2  0  0  0  0
 13 14  1  0  0  0  0
 14 12  1  0  0  0  0
 15 20  1  6  0  0  0
 15 19  1  0  0  0  0
 16 13  1  0  0  0  0
 18 16  1  0  0  0  0
 18 15  1  0  0  0  0
 19 14  1  0  0  0  0
 20 21  1  6  0  0  0
 22 20  1  0  0  0  0
 23 22  1  0  0  0  0
 24 25  1  0  0  0  0
 25 29  1  0  0  0  0
 26 32  1  0  0  0  0
 26 31  1  0  0  0  0
 27 32  2  0  0  0  0
 28 27  1  0  0  0  0
 29 28  2  0  0  0  0
 29 30  1  0  0  0  0
 30 26  2  0  0  0  0
 33 28  1  0  0  0  0
 34 33  1  0  0  0  0
 34 36  1  0  0  0  0
 35 34  2  0  0  0  0
 36 37  1  0  0  0  0
M  END
>  <MODEL>
5

>  <REMARK>
 VINA RESULT:      -6.1      3.097     10.118
  Name = 
  14 active torsions:
  status: ('A' for Active; 'I' for Inactive)
    1  A    between atoms: N_3  and  C_25
    2  A    between atoms: N_3  and  O_31
    3  A    between atoms: C_4  and  C_15
    4  A    between atoms: C_4  and  C_23
    5  A    between atoms: N_5  and  C_10
    6  A    between atoms: C_6  and  O_17
    7  A    between atoms: C_6  and  C_19
    8  A    between atoms: C_7  and  C_29
    9  A    between atoms: C_10  and  C_11
   10  A    between atoms: C_11  and  C_15
   11  A    between atoms: C_12  and  C_29
   12  A    between atoms: C_14  and  O_31
   13  A    between atoms: O_17  and  C_21
   14  A    between atoms: C_23  and  C_27
                            x       y       z     vdW  Elec       q    Type
                         _______ _______ _______ _____ _____    ______ ____

>  <TORSDO>
F 14

$$$$
=
 OpenBabel11072413023D

 37 39  0  0  1  0  0  0  0  0999 V2000
  160.3510  205.2180  151.0920 C   0  0  0  0  0  2  0  0  0  0  0  0
  162.7250  206.8210  151.6340 C   0  0  0  0  0  2  0  0  0  0  0  0
  160.9340  206.1120  149.9860 C   0  0  1  0  0  3  0  0  0  0  0  0
  162.4100  205.5040  152.3140 C   0  0  0  0  0  3  0  0  0  0  0  0
  161.6370  207.3230  150.6540 C   0  0  2  0  0  0  0  0  0  0  0  0
  161.3800  204.7820  152.0090 N   0  0  0  0  0  0  0  0  0  0  0  0
  161.4730  208.4290  148.5080 O   0  0  0  0  0  1  0  0  0  0  0  0
  162.3360  208.1580  149.5750 C   0  0  0  0  0  2  0  0  0  0  0  0
  160.5910  208.1800  151.4060 C   0  0  0  0  0  2  0  0  0  0  0  0
  161.1170  209.4710  152.0520 C   0  0  0  0  0  2  0  0  0  0  0  0
  160.0880  210.1180  152.9550 C   0  0  0  0  0  2  0  0  0  0  0  0
  160.4460  211.5830  153.1480 C   0  0  0  0  0  2  0  0  0  0  0  0
  158.3240  212.9070  152.8790 C   0  0  0  0  0  0  0  0  0  0  0  0
  159.5790  212.4380  152.3590 N   0  0  0  0  0  0  0  0  0  0  0  0
  159.0130  213.8400  150.3750 C   0  0  1  0  0  3  0  0  0  0  0  0
  157.4570  213.7210  151.9860 C   0  0  0  0  0  2  0  0  0  0  0  0
  157.9910  212.6910  154.0790 O   0  0  0  0  0  0  0  0  0  0  0  0
  157.7220  213.3620  150.6510 O   0  0  0  0  0  0  0  0  0  0  0  0
  160.0840  212.9900  151.0960 C   0  0  0  0  0  2  0  0  0  0  0  0
  159.2370  213.8950  148.8630 C   0  0  1  0  0  3  0  0  0  0  0  0
  160.2140  212.9740  148.4760 O   0  0  0  0  0  1  0  0  0  0  0  0
  157.9470  213.6860  148.0810 C   0  0  0  0  0  2  0  0  0  0  0  0
  158.0690  212.5640  147.2620 O   0  0  0  0  0  1  0  0  0  0  0  0
  161.8430  205.4250  149.1470 O   0  0  0  0  0  0  0  0  0  0  0  0
  161.0950  204.7860  148.2080 N   0  0  0  0  0  2  0  0  0  0  0  0
  161.0030  201.1980  149.2040 C   0  0  0  0  0  0  0  0  0  0  0  0
  161.2380  201.3030  146.8050 C   0  0  0  0  0  3  0  0  0  0  0  0
  161.1890  202.7090  146.8410 C   0  0  0  0  0  0  0  0  0  0  0  0
  161.0990  203.3540  148.0970 C   0  0  0  0  0  0  0  0  0  0  0  0
  160.9870  202.5930  149.2650 C   0  0  0  0  0  3  0  0  0  0  0  0
  160.8330  200.2660  150.6750 Cl  0  0  0  0  0  0  0  0  0  0  0  0
  161.1380  200.5530  147.9790 C   0  0  0  0  0  3  0  0  0  0  0  0
  161.2430  203.4920  145.6740 O   0  0  0  0  0  0  0  0  0  0  0  0
  162.1270  204.5500  145.3730 C   0  0  0  0  0  0  0  0  0  0  0  0
  163.3480  204.4010  145.6370 O   0  0  0  0  0  0  0  0  0  0  0  0
  161.6880  205.8270  144.7370 C   0  0  0  0  0  2  0  0  0  0  0  0
  160.3140  206.2030  145.2610 C   0  0  0  0  0  1  0  0  0  0  0  0
  1  6  1  0  0  0  0
  2  4  1  0  0  0  0
  3 24  1  1  0  0  0
  3  5  1  0  0  0  0
  3  1  1  0  0  0  0
  5  8  1  6  0  0  0
  5  9  1  0  0  0  0
  5  2  1  0  0  0  0
  6  4  2  0  0  0  0
  7  8  1  0  0  0  0
  9 10  1  0  0  0  0
 10 11  1  0  0  0  0
 11 12  1  0  0  0  0
 13 17  2  0  0  0  0
 14 13  1  0  0  0  0
 14 12  1  0  0  0  0
 15 20  1  6  0  0  0
 15 18  1  0  0  0  0
 15 19  1  0  0  0  0
 16 13  1  0  0  0  0
 18 16  1  0  0  0  0
 19 14  1  0  0  0  0
 20 21  1  6  0  0  0
 22 20  1  0  0  0  0
 23 22  1  0  0  0  0
 25 24  1  0  0  0  0
 26 30  1  0  0  0  0
 26 31  1  0  0  0  0
 27 28  2  0  0  0  0
 27 32  1  0  0  0  0
 28 29  1  0  0  0  0
 29 25  1  0  0  0  0
 29 30  2  0  0  0  0
 32 26  2  0  0  0  0
 33 28  1  0  0  0  0
 34 35  2  0  0  0  0
 34 33  1  0  0  0  0
 36 37  1  0  0  0  0
 36 34  1  0  0  0  0
M  END
>  <MODEL>
6

>  <REMARK>
 VINA RESULT:      -5.9      3.145      4.434
  Name = 
  14 active torsions:
  status: ('A' for Active; 'I' for Inactive)
    1  A    between atoms: N_3  and  C_25
    2  A    between atoms: N_3  and  O_31
    3  A    between atoms: C_4  and  C_15
    4  A    between atoms: C_4  and  C_23
    5  A    between atoms: N_5  and  C_10
    6  A    between atoms: C_6  and  O_17
    7  A    between atoms: C_6  and  C_19
    8  A    between atoms: C_7  and  C_29
    9  A    between atoms: C_10  and  C_11
   10  A    between atoms: C_11  and  C_15
   11  A    between atoms: C_12  and  C_29
   12  A    between atoms: C_14  and  O_31
   13  A    between atoms: O_17  and  C_21
   14  A    between atoms: C_23  and  C_27
                            x       y       z     vdW  Elec       q    Type
                         _______ _______ _______ _____ _____    ______ ____

>  <TORSDO>
F 14

$$$$
=
 OpenBabel11072413023D

 37 39  0  0  1  0  0  0  0  0999 V2000
  162.4390  210.1240  151.4170 C   0  0  0  0  0  2  0  0  0  0  0  0
  159.9870  210.1120  152.9940 C   0  0  0  0  0  2  0  0  0  0  0  0
  161.8840  208.7940  151.9500 C   0  0  1  0  0  3  0  0  0  0  0  0
  160.3110  211.1370  151.9250 C   0  0  0  0  0  3  0  0  0  0  0  0
  161.1070  209.0770  153.2620 C   0  0  2  0  0  0  0  0  0  0  0  0
  161.3800  211.0820  151.1970 N   0  0  0  0  0  0  0  0  0  0  0  0
  161.2930  207.0480  154.5680 O   0  0  0  0  0  1  0  0  0  0  0  0
  160.4380  207.7840  153.7410 C   0  0  0  0  0  2  0  0  0  0  0  0
  162.0830  209.6100  154.3390 C   0  0  0  0  0  2  0  0  0  0  0  0
  161.6530  210.8960  155.0590 C   0  0  0  0  0  2  0  0  0  0  0  0
  160.9270  210.6090  156.3560 C   0  0  0  0  0  2  0  0  0  0  0  0
  160.5030  211.9230  156.9910 C   0  0  0  0  0  2  0  0  0  0  0  0
  158.8980  213.5920  156.0060 C   0  0  0  0  0  0  0  0  0  0  0  0
  159.1660  212.2970  156.5680 N   0  0  0  0  0  0  0  0  0  0  0  0
  156.7560  211.8530  156.0950 C   0  0  1  0  0  3  0  0  0  0  0  0
  157.4900  213.9280  155.6620 C   0  0  0  0  0  2  0  0  0  0  0  0
  159.8340  214.4010  155.7520 O   0  0  0  0  0  0  0  0  0  0  0  0
  156.6330  213.1910  156.5010 O   0  0  0  0  0  0  0  0  0  0  0  0
  158.1200  211.2670  156.5280 C   0  0  0  0  0  2  0  0  0  0  0  0
  155.5780  211.0360  156.6260 C   0  0  1  0  0  3  0  0  0  0  0  0
  154.6480  211.8660  157.2570 O   0  0  0  0  0  1  0  0  0  0  0  0
  154.9170  210.2020  155.5370 C   0  0  0  0  0  2  0  0  0  0  0  0
  155.2590  210.7060  154.2830 O   0  0  0  0  0  1  0  0  0  0  0  0
  161.0440  208.1370  151.0200 O   0  0  0  0  0  0  0  0  0  0  0  0
  161.8480  207.3310  150.2760 N   0  0  0  0  0  2  0  0  0  0  0  0
  160.9100  203.8000  151.0000 C   0  0  0  0  0  0  0  0  0  0  0  0
  161.2080  204.0210  148.6160 C   0  0  0  0  0  3  0  0  0  0  0  0
  161.4850  205.3930  148.7580 C   0  0  0  0  0  0  0  0  0  0  0  0
  161.5230  205.9480  150.0570 C   0  0  0  0  0  0  0  0  0  0  0  0
  161.2160  205.1520  151.1650 C   0  0  0  0  0  3  0  0  0  0  0  0
  160.5010  202.8290  152.3980 Cl  0  0  0  0  0  0  0  0  0  0  0  0
  160.9140  203.2320  149.7310 C   0  0  0  0  0  3  0  0  0  0  0  0
  161.7400  206.2250  147.6520 O   0  0  0  0  0  0  0  0  0  0  0  0
  161.2640  206.0890  146.3300 C   0  0  0  0  0  0  0  0  0  0  0  0
  160.1490  206.5960  146.0420 O   0  0  0  0  0  0  0  0  0  0  0  0
  162.0280  205.3940  145.2540 C   0  0  0  0  0  2  0  0  0  0  0  0
  161.2740  204.1500  144.8230 C   0  0  0  0  0  1  0  0  0  0  0  0
  1  3  1  0  0  0  0
  2  5  1  0  0  0  0
  3 24  1  6  0  0  0
  3  5  1  0  0  0  0
  4  2  1  0  0  0  0
  5  8  1  1  0  0  0
  5  9  1  0  0  0  0
  6  1  1  0  0  0  0
  6  4  2  0  0  0  0
  8  7  1  0  0  0  0
  9 10  1  0  0  0  0
 10 11  1  0  0  0  0
 11 12  1  0  0  0  0
 13 14  1  0  0  0  0
 14 12  1  0  0  0  0
 15 18  1  0  0  0  0
 15 19  1  0  0  0  0
 15 20  1  1  0  0  0
 16 13  1  0  0  0  0
 16 18  1  0  0  0  0
 17 13  2  0  0  0  0
 19 14  1  0  0  0  0
 20 21  1  6  0  0  0
 22 20  1  0  0  0  0
 23 22  1  0  0  0  0
 25 24  1  0  0  0  0
 26 30  1  0  0  0  0
 26 31  1  0  0  0  0
 27 28  2  0  0  0  0
 27 32  1  0  0  0  0
 28 29  1  0  0  0  0
 29 25  1  0  0  0  0
 29 30  2  0  0  0  0
 32 26  2  0  0  0  0
 33 28  1  0  0  0  0
 34 33  1  0  0  0  0
 35 34  2  0  0  0  0
 36 34  1  0  0  0  0
 37 36  1  0  0  0  0
M  END
>  <MODEL>
7

>  <REMARK>
 VINA RESULT:      -5.9      2.646      4.279
  Name = 
  14 active torsions:
  status: ('A' for Active; 'I' for Inactive)
    1  A    between atoms: N_3  and  C_25
    2  A    between atoms: N_3  and  O_31
    3  A    between atoms: C_4  and  C_15
    4  A    between atoms: C_4  and  C_23
    5  A    between atoms: N_5  and  C_10
    6  A    between atoms: C_6  and  O_17
    7  A    between atoms: C_6  and  C_19
    8  A    between atoms: C_7  and  C_29
    9  A    between atoms: C_10  and  C_11
   10  A    between atoms: C_11  and  C_15
   11  A    between atoms: C_12  and  C_29
   12  A    between atoms: C_14  and  O_31
   13  A    between atoms: O_17  and  C_21
   14  A    between atoms: C_23  and  C_27
                            x       y       z     vdW  Elec       q    Type
                         _______ _______ _______ _____ _____    ______ ____

>  <TORSDO>
F 14

$$$$
=
 OpenBabel11072413023D

 37 39  0  0  1  0  0  0  0  0999 V2000
  160.1030  205.3580  151.0620 C   0  0  0  0  0  2  0  0  0  0  0  0
  162.7070  206.2600  152.0110 C   0  0  0  0  0  2  0  0  0  0  0  0
  160.7720  206.5760  150.4060 C   0  0  1  0  0  3  0  0  0  0  0  0
  162.2250  204.8250  152.0750 C   0  0  0  0  0  3  0  0  0  0  0  0
  161.6710  207.2700  151.4630 C   0  0  2  0  0  0  0  0  0  0  0  0
  161.0880  204.4410  151.5880 N   0  0  0  0  0  0  0  0  0  0  0  0
  161.6760  209.0320  149.8030 O   0  0  0  0  0  1  0  0  0  0  0  0
  162.4460  208.4110  150.7930 C   0  0  0  0  0  2  0  0  0  0  0  0
  160.7920  207.8170  152.6130 C   0  0  0  0  0  2  0  0  0  0  0  0
  161.0210  209.2870  152.9940 C   0  0  0  0  0  2  0  0  0  0  0  0
  159.7890  210.1360  152.7610 C   0  0  0  0  0  2  0  0  0  0  0  0
  160.1180  211.5870  153.0710 C   0  0  0  0  0  2  0  0  0  0  0  0
  158.2330  213.0120  152.2070 C   0  0  0  0  0  0  0  0  0  0  0  0
  159.5570  212.4730  152.0670 N   0  0  0  0  0  0  0  0  0  0  0  0
  159.6540  213.8710  150.0030 C   0  0  1  0  0  3  0  0  0  0  0  0
  157.6990  213.8540  151.1030 C   0  0  0  0  0  2  0  0  0  0  0  0
  157.5610  212.8310  153.2630 O   0  0  0  0  0  0  0  0  0  0  0  0
  158.3150  213.4620  149.9000 O   0  0  0  0  0  0  0  0  0  0  0  0
  160.4300  212.9800  151.0000 C   0  0  0  0  0  2  0  0  0  0  0  0
  160.3020  213.8920  148.6180 C   0  0  1  0  0  3  0  0  0  0  0  0
  161.6640  214.1880  148.7160 O   0  0  0  0  0  1  0  0  0  0  0  0
  160.0780  212.5920  147.8570 C   0  0  0  0  0  2  0  0  0  0  0  0
  161.2760  212.1690  147.2840 O   0  0  0  0  0  1  0  0  0  0  0  0
  161.5360  206.2350  149.2650 O   0  0  0  0  0  0  0  0  0  0  0  0
  160.6560  206.0900  148.2390 N   0  0  0  0  0  2  0  0  0  0  0  0
  161.3660  205.0580  144.7310 C   0  0  0  0  0  0  0  0  0  0  0  0
  161.3640  203.0770  146.1090 C   0  0  0  0  0  3  0  0  0  0  0  0
  161.1250  203.8510  147.2590 C   0  0  0  0  0  0  0  0  0  0  0  0
  160.9520  205.2470  147.1140 C   0  0  0  0  0  0  0  0  0  0  0  0
  161.0940  205.8410  145.8560 C   0  0  0  0  0  3  0  0  0  0  0  0
  161.5680  205.8240  143.1720 Cl  0  0  0  0  0  0  0  0  0  0  0  0
  161.4920  203.6780  144.8550 C   0  0  0  0  0  3  0  0  0  0  0  0
  161.0350  203.2820  148.5420 O   0  0  0  0  0  0  0  0  0  0  0  0
  160.7020  201.9550  148.8860 C   0  0  0  0  0  0  0  0  0  0  0  0
  159.5900  201.7400  149.4330 O   0  0  0  0  0  0  0  0  0  0  0  0
  161.5960  200.7910  148.6110 C   0  0  0  0  0  2  0  0  0  0  0  0
  161.2400  200.1910  147.2630 C   0  0  0  0  0  1  0  0  0  0  0  0
  1  6  1  0  0  0  0
  2  4  1  0  0  0  0
  3 24  1  6  0  0  0
  3  1  1  0  0  0  0
  3  5  1  0  0  0  0
  5  8  1  6  0  0  0
  5  2  1  0  0  0  0
  5  9  1  0  0  0  0
  6  4  2  0  0  0  0
  7  8  1  0  0  0  0
  9 10  1  0  0  0  0
 11 10  1  0  0  0  0
 11 12  1  0  0  0  0
 13 17  2  0  0  0  0
 14 13  1  0  0  0  0
 14 12  1  0  0  0  0
 15 20  1  6  0  0  0
 15 19  1  0  0  0  0
 16 13  1  0  0  0  0
 18 15  1  0  0  0  0
 18 16  1  0  0  0  0
 19 14  1  0  0  0  0
 20 21  1  1  0  0  0
 22 20  1  0  0  0  0
 23 22  1  0  0  0  0
 25 24  1  0  0  0  0
 26 32  2  0  0  0  0
 26 30  1  0  0  0  0
 27 28  2  0  0  0  0
 28 33  1  0  0  0  0
 29 28  1  0  0  0  0
 29 25  1  0  0  0  0
 30 29  2  0  0  0  0
 31 26  1  0  0  0  0
 32 27  1  0  0  0  0
 33 34  1  0  0  0  0
 34 35  2  0  0  0  0
 36 34  1  0  0  0  0
 37 36  1  0  0  0  0
M  END
>  <MODEL>
8

>  <REMARK>
 VINA RESULT:      -5.8      2.508      3.651
  Name = 
  14 active torsions:
  status: ('A' for Active; 'I' for Inactive)
    1  A    between atoms: N_3  and  C_25
    2  A    between atoms: N_3  and  O_31
    3  A    between atoms: C_4  and  C_15
    4  A    between atoms: C_4  and  C_23
    5  A    between atoms: N_5  and  C_10
    6  A    between atoms: C_6  and  O_17
    7  A    between atoms: C_6  and  C_19
    8  A    between atoms: C_7  and  C_29
    9  A    between atoms: C_10  and  C_11
   10  A    between atoms: C_11  and  C_15
   11  A    between atoms: C_12  and  C_29
   12  A    between atoms: C_14  and  O_31
   13  A    between atoms: O_17  and  C_21
   14  A    between atoms: C_23  and  C_27
                            x       y       z     vdW  Elec       q    Type
                         _______ _______ _______ _____ _____    ______ ____

>  <TORSDO>
F 14

$$$$
=
 OpenBabel11072413023D

 37 39  0  0  1  0  0  0  0  0999 V2000
  160.8460  208.0280  150.6800 C   0  0  0  0  0  2  0  0  0  0  0  0
  162.8010  206.3840  152.0850 C   0  0  0  0  0  2  0  0  0  0  0  0
  160.8340  207.9780  152.2160 C   0  0  1  0  0  3  0  0  0  0  0  0
  163.0380  207.0250  150.7320 C   0  0  0  0  0  3  0  0  0  0  0  0
  161.3820  206.5970  152.6650 C   0  0  2  0  0  0  0  0  0  0  0  0
  162.1750  207.8020  150.1590 N   0  0  0  0  0  0  0  0  0  0  0  0
  160.2540  206.7770  154.7990 O   0  0  0  0  0  1  0  0  0  0  0  0
  161.4990  206.5760  154.1940 C   0  0  0  0  0  2  0  0  0  0  0  0
  160.4290  205.4780  152.1820 C   0  0  0  0  0  2  0  0  0  0  0  0
  160.9190  204.0390  152.3960 C   0  0  0  0  0  2  0  0  0  0  0  0
  161.7440  203.5360  151.2300 C   0  0  0  0  0  2  0  0  0  0  0  0
  160.9410  202.4960  150.4640 C   0  0  0  0  0  2  0  0  0  0  0  0
  160.8240  201.7210  148.0740 C   0  0  0  0  0  0  0  0  0  0  0  0
  160.9540  202.7760  149.0410 N   0  0  0  0  0  0  0  0  0  0  0  0
  160.9610  204.2800  147.0500 C   0  0  1  0  0  3  0  0  0  0  0  0
  160.9170  202.0760  146.6320 C   0  0  0  0  0  2  0  0  0  0  0  0
  160.5730  200.5340  148.4300 O   0  0  0  0  0  0  0  0  0  0  0  0
  161.7150  203.2290  146.5040 O   0  0  0  0  0  0  0  0  0  0  0  0
  160.8970  204.1730  148.5910 C   0  0  0  0  0  2  0  0  0  0  0  0
  161.5250  205.6230  146.5850 C   0  0  1  0  0  3  0  0  0  0  0  0
  162.5760  206.0290  147.4120 O   0  0  0  0  0  1  0  0  0  0  0  0
  161.9590  205.5920  145.1250 C   0  0  0  0  0  2  0  0  0  0  0  0
  160.8760  205.9010  144.3040 O   0  0  0  0  0  1  0  0  0  0  0  0
  161.5920  209.0170  152.8050 O   0  0  0  0  0  0  0  0  0  0  0  0
  161.1050  210.1830  152.3010 N   0  0  0  0  0  2  0  0  0  0  0  0
  159.2250  211.5140  155.2280 C   0  0  0  0  0  0  0  0  0  0  0  0
  158.8990  213.0280  153.3780 C   0  0  0  0  0  3  0  0  0  0  0  0
  159.7400  212.2460  152.5640 C   0  0  0  0  0  0  0  0  0  0  0  0
  160.2800  211.0520  153.0930 C   0  0  0  0  0  0  0  0  0  0  0  0
  160.0350  210.7060  154.4260 C   0  0  0  0  0  3  0  0  0  0  0  0
  158.9550  211.0780  156.9010 Cl  0  0  0  0  0  0  0  0  0  0  0  0
  158.6510  212.6670  154.7040 C   0  0  0  0  0  3  0  0  0  0  0  0
  160.0460  212.6050  151.2390 O   0  0  0  0  0  0  0  0  0  0  0  0
  159.6000  213.7320  150.5140 C   0  0  0  0  0  0  0  0  0  0  0  0
  160.4280  214.3440  149.7930 O   0  0  0  0  0  0  0  0  0  0  0  0
  158.1890  214.2160  150.5450 C   0  0  0  0  0  2  0  0  0  0  0  0
  157.3290  213.3170  149.6780 C   0  0  0  0  0  1  0  0  0  0  0  0
  1  3  1  0  0  0  0
  2  5  1  0  0  0  0
  3  5  1  0  0  0  0
  3 24  1  1  0  0  0
  4  2  1  0  0  0  0
  5  9  1  6  0  0  0
  5  8  1  0  0  0  0
  6  1  1  0  0  0  0
  6  4  2  0  0  0  0
  8  7  1  0  0  0  0
  9 10  1  0  0  0  0
 11 10  1  0  0  0  0
 12 11  1  0  0  0  0
 13 17  2  0  0  0  0
 13 14  1  0  0  0  0
 14 12  1  0  0  0  0
 15 20  1  1  0  0  0
 15 19  1  0  0  0  0
 16 13  1  0  0  0  0
 18 16  1  0  0  0  0
 18 15  1  0  0  0  0
 19 14  1  0  0  0  0
 20 21  1  1  0  0  0
 22 20  1  0  0  0  0
 23 22  1  0  0  0  0
 25 24  1  0  0  0  0
 25 29  1  0  0  0  0
 26 31  1  0  0  0  0
 27 32  2  0  0  0  0
 28 29  2  0  0  0  0
 28 27  1  0  0  0  0
 29 30  1  0  0  0  0
 30 26  2  0  0  0  0
 32 26  1  0  0  0  0
 33 28  1  0  0  0  0
 34 36  1  0  0  0  0
 34 33  1  0  0  0  0
 35 34  2  0  0  0  0
 37 36  1  0  0  0  0
M  END
>  <MODEL>
9

>  <REMARK>
 VINA RESULT:      -5.8      3.527      9.991
  Name = 
  14 active torsions:
  status: ('A' for Active; 'I' for Inactive)
    1  A    between atoms: N_3  and  C_25
    2  A    between atoms: N_3  and  O_31
    3  A    between atoms: C_4  and  C_15
    4  A    between atoms: C_4  and  C_23
    5  A    between atoms: N_5  and  C_10
    6  A    between atoms: C_6  and  O_17
    7  A    between atoms: C_6  and  C_19
    8  A    between atoms: C_7  and  C_29
    9  A    between atoms: C_10  and  C_11
   10  A    between atoms: C_11  and  C_15
   11  A    between atoms: C_12  and  C_29
   12  A    between atoms: C_14  and  O_31
   13  A    between atoms: O_17  and  C_21
   14  A    between atoms: C_23  and  C_27
                            x       y       z     vdW  Elec       q    Type
                         _______ _______ _______ _____ _____    ______ ____

>  <TORSDO>
F 14

$$$$
