=
 OpenBabel11072413583D

 29 32  0  0  1  0  0  0  0  0999 V2000
  159.8600  210.4520  152.3640 O   0  0  0  0  0  0  0  0  0  0  0  0
  160.7140  207.7030  152.1000 C   0  0  1  0  0  3  0  0  0  0  0  0
  160.2980  207.7250  154.7080 C   0  0  1  0  0  3  0  0  0  0  0  0
  161.5190  208.8500  152.3270 O   0  0  0  0  0  0  0  0  0  0  0  0
  161.4140  209.9160  155.2290 C   0  0  2  0  0  0  0  0  0  0  0  0
  162.8180  204.7960  151.7100 O   0  0  0  0  0  1  0  0  0  0  0  0
  161.5770  205.3910  151.9460 C   0  0  2  0  0  0  0  0  0  0  0  0
  159.7800  206.9010  155.7070 O   0  0  0  0  0  1  0  0  0  0  0  0
  161.5760  208.3970  155.2090 C   0  0  0  0  0  2  0  0  0  0  0  0
  160.4710  204.4190  151.5440 C   0  0  0  0  0  1  0  0  0  0  0  0
  162.1760  210.5290  156.3780 C   0  0  0  0  0  2  0  0  0  0  0  0
  160.6540  210.5000  156.4220 C   0  0  1  0  0  3  0  0  0  0  0  0
  161.4890  206.7410  151.2140 C   0  0  1  0  0  3  0  0  0  0  0  0
  161.4120  205.7330  153.4210 C   0  0  2  0  0  3  0  0  0  0  0  0
  160.4670  206.9280  153.4010 C   0  0  2  0  0  3  0  0  0  0  0  0
  162.6360  206.0910  153.9650 F   0  0  0  0  0  0  0  0  0  0  0  0
  160.9670  210.0370  152.8000 C   0  0  0  0  0  0  0  0  0  0  0  0
  161.6290  210.7220  153.9410 C   0  0  0  0  0  2  0  0  0  0  0  0
  160.0800  211.8690  156.1730 C   0  0  0  0  0  0  0  0  0  0  0  0
  160.6940  212.8640  156.5310 O   0  0  0  0  0  0  0  0  0  0  0  0
  158.0650  210.7200  155.4990 N   0  0  0  0  0  1  0  0  0  0  0  0
  158.7170  212.0160  155.5770 C   0  0  0  0  0  2  0  0  0  0  0  0
  160.9100  206.6940  149.8010 C   0  0  0  0  0  2  0  0  0  0  0  0
  161.9620  206.2710  148.7840 C   0  0  0  0  0  2  0  0  0  0  0  0
  161.3160  205.7050  147.5190 C   0  0  1  0  0  0  0  0  0  0  0  0
  161.6340  203.3940  148.4670 C   0  0  0  0  0  1  0  0  0  0  0  0
  160.5230  206.6300  146.6180 C   0  0  0  0  0  1  0  0  0  0  0  0
  162.2480  204.9650  146.7710 O   0  0  0  0  0  0  0  0  0  0  0  0
  161.1560  204.2420  147.2990 C   0  0  2  0  0  3  0  0  0  0  0  0
  1 17  2  0  0  0  0
  2  4  1  1  0  0  0
  2 15  1  0  0  0  0
  3  9  1  0  0  0  0
  3  8  1  1  0  0  0
  4 17  1  0  0  0  0
  5 18  1  6  0  0  0
  5 11  1  0  0  0  0
  5 12  1  0  0  0  0
  6  7  1  0  0  0  0
  7 10  1  6  0  0  0
  7 14  1  0  0  0  0
  9  5  1  0  0  0  0
 11 12  1  0  0  0  0
 12 19  1  6  0  0  0
 13 23  1  6  0  0  0
 13  7  1  0  0  0  0
 13  2  1  0  0  0  0
 14 16  1  6  0  0  0
 15 14  1  0  0  0  0
 15  3  1  0  0  0  0
 17 18  1  0  0  0  0
 19 20  2  0  0  0  0
 21 22  1  0  0  0  0
 22 19  1  0  0  0  0
 24 23  1  0  0  0  0
 25 24  1  0  0  0  0
 27 25  1  0  0  0  0
 28 29  1  0  0  0  0
 28 25  1  0  0  0  0
 29 25  1  0  0  0  0
 29 26  1  0  0  0  0
M  END
>  <MODEL>
1

>  <REMARK>
 VINA RESULT:      -6.2      0.000      0.000
  Name = 
  5 active torsions:
  status: ('A' for Active; 'I' for Inactive)
    1  A    between atoms: C_10  and  C_15
    2  A    between atoms: C_11  and  C_18
    3  A    between atoms: C_11  and  C_19
    4  A    between atoms: C_15  and  C_21
    5  A    between atoms: C_20  and  C_21
                            x       y       z     vdW  Elec       q    Type
                         _______ _______ _______ _____ _____    ______ ____

>  <TORSDO>
F 5

$$$$
=
 OpenBabel11072413583D

 29 32  0  0  1  0  0  0  0  0999 V2000
  162.3960  206.9530  147.5920 O   0  0  0  0  0  0  0  0  0  0  0  0
  162.1210  208.6140  149.9440 C   0  0  1  0  0  3  0  0  0  0  0  0
  162.3060  206.2700  151.1490 C   0  0  1  0  0  3  0  0  0  0  0  0
  161.0910  208.0140  149.1720 O   0  0  0  0  0  0  0  0  0  0  0  0
  160.7420  204.9800  149.6630 C   0  0  2  0  0  0  0  0  0  0  0  0
  160.6680  210.6670  152.5320 O   0  0  0  0  0  1  0  0  0  0  0  0
  161.7440  209.9740  151.9730 C   0  0  2  0  0  0  0  0  0  0  0  0
  162.8890  205.7030  152.2810 O   0  0  0  0  0  1  0  0  0  0  0  0
  160.8830  205.7370  150.9830 C   0  0  0  0  0  2  0  0  0  0  0  0
  163.0480  210.5930  152.4690 C   0  0  0  0  0  1  0  0  0  0  0  0
  159.7820  203.8240  149.7980 C   0  0  0  0  0  2  0  0  0  0  0  0
  161.2720  203.5440  149.6450 C   0  0  1  0  0  3  0  0  0  0  0  0
  161.6260  209.9630  150.4390 C   0  0  1  0  0  3  0  0  0  0  0  0
  161.7140  208.5070  152.3790 C   0  0  2  0  0  3  0  0  0  0  0  0
  162.4050  207.8060  151.2170 C   0  0  2  0  0  3  0  0  0  0  0  0
  160.4040  208.0730  152.4980 F   0  0  0  0  0  0  0  0  0  0  0  0
  161.3590  206.9560  148.3080 C   0  0  0  0  0  0  0  0  0  0  0  0
  160.4820  205.7570  148.3650 C   0  0  0  0  0  2  0  0  0  0  0  0
  161.5840  203.0230  148.2680 C   0  0  0  0  0  0  0  0  0  0  0  0
  162.3510  203.6370  147.5400 O   0  0  0  0  0  0  0  0  0  0  0  0
  161.2940  200.6360  148.5040 N   0  0  0  0  0  1  0  0  0  0  0  0
  160.8850  201.8080  147.7490 C   0  0  0  0  0  2  0  0  0  0  0  0
  162.3190  211.1130  149.7110 C   0  0  0  0  0  2  0  0  0  0  0  0
  161.5660  211.5020  148.4450 C   0  0  0  0  0  2  0  0  0  0  0  0
  161.1470  212.9720  148.4770 C   0  0  1  0  0  0  0  0  0  0  0  0
  161.5950  213.0890  146.0030 C   0  0  0  0  0  1  0  0  0  0  0  0
  160.3740  213.4920  149.6730 C   0  0  0  0  0  1  0  0  0  0  0  0
  162.2380  213.8090  148.1910 O   0  0  0  0  0  0  0  0  0  0  0  0
  161.1750  213.8300  147.2620 C   0  0  2  0  0  3  0  0  0  0  0  0
  1 17  2  0  0  0  0
  2  4  1  6  0  0  0
  2 13  1  0  0  0  0
  2 15  1  0  0  0  0
  3 15  1  0  0  0  0
  3  8  1  1  0  0  0
  5 18  1  6  0  0  0
  5 11  1  0  0  0  0
  5  9  1  0  0  0  0
  7 14  1  0  0  0  0
  7 10  1  1  0  0  0
  7  6  1  0  0  0  0
  9  3  1  0  0  0  0
 12 19  1  6  0  0  0
 12  5  1  0  0  0  0
 12 11  1  0  0  0  0
 13 23  1  6  0  0  0
 13  7  1  0  0  0  0
 14 16  1  6  0  0  0
 15 14  1  0  0  0  0
 17 18  1  0  0  0  0
 17  4  1  0  0  0  0
 20 19  2  0  0  0  0
 22 19  1  0  0  0  0
 22 21  1  0  0  0  0
 24 25  1  0  0  0  0
 24 23  1  0  0  0  0
 25 27  1  0  0  0  0
 26 29  1  0  0  0  0
 28 25  1  0  0  0  0
 29 28  1  0  0  0  0
 29 25  1  0  0  0  0
M  END
>  <MODEL>
2

>  <REMARK>
 VINA RESULT:      -6.0      3.874      7.610
  Name = 
  5 active torsions:
  status: ('A' for Active; 'I' for Inactive)
    1  A    between atoms: C_10  and  C_15
    2  A    between atoms: C_11  and  C_18
    3  A    between atoms: C_11  and  C_19
    4  A    between atoms: C_15  and  C_21
    5  A    between atoms: C_20  and  C_21
                            x       y       z     vdW  Elec       q    Type
                         _______ _______ _______ _____ _____    ______ ____

>  <TORSDO>
F 5

$$$$
=
 OpenBabel11072413583D

 29 32  0  0  1  0  0  0  0  0999 V2000
  161.6840  206.9170  154.4460 O   0  0  0  0  0  0  0  0  0  0  0  0
  161.7120  206.8750  151.5550 C   0  0  1  0  0  3  0  0  0  0  0  0
  162.3350  209.4180  151.9080 C   0  0  1  0  0  3  0  0  0  0  0  0
  160.6130  207.1380  152.4150 O   0  0  0  0  0  0  0  0  0  0  0  0
  160.6410  209.9580  153.6840 C   0  0  2  0  0  0  0  0  0  0  0  0
  160.5970  206.8540  148.1220 O   0  0  0  0  0  1  0  0  0  0  0  0
  161.6060  206.9250  149.0860 C   0  0  2  0  0  0  0  0  0  0  0  0
  163.1730  210.3900  151.3620 O   0  0  0  0  0  1  0  0  0  0  0  0
  160.9610  210.0250  152.1920 C   0  0  0  0  0  2  0  0  0  0  0  0
  162.9190  206.4480  148.4710 C   0  0  0  0  0  1  0  0  0  0  0  0
  159.8330  211.1550  154.1220 C   0  0  0  0  0  2  0  0  0  0  0  0
  161.2860  211.0310  154.5650 C   0  0  1  0  0  3  0  0  0  0  0  0
  161.2000  206.1250  150.3360 C   0  0  1  0  0  3  0  0  0  0  0  0
  161.7880  208.3540  149.5760 C   0  0  2  0  0  3  0  0  0  0  0  0
  162.3060  208.1750  150.9970 C   0  0  2  0  0  3  0  0  0  0  0  0
  160.5690  209.0140  149.5830 F   0  0  0  0  0  0  0  0  0  0  0  0
  160.8060  207.4910  153.7470 C   0  0  0  0  0  0  0  0  0  0  0  0
  160.0690  208.6660  154.2820 C   0  0  0  0  0  2  0  0  0  0  0  0
  161.3770  210.6580  156.0200 C   0  0  0  0  0  0  0  0  0  0  0  0
  160.4750  210.9600  156.7870 O   0  0  0  0  0  0  0  0  0  0  0  0
  162.2660  208.7850  157.2610 N   0  0  0  0  0  1  0  0  0  0  0  0
  162.6120  210.0050  156.5520 C   0  0  0  0  0  2  0  0  0  0  0  0
  161.6340  204.6610  150.3590 C   0  0  0  0  0  2  0  0  0  0  0  0
  160.8520  203.8350  149.3460 C   0  0  0  0  0  2  0  0  0  0  0  0
  160.8170  202.3590  149.7410 C   0  0  1  0  0  0  0  0  0  0  0  0
  160.9210  201.7670  147.2960 C   0  0  0  0  0  1  0  0  0  0  0  0
  161.1200  201.9710  151.1740 C   0  0  0  0  0  1  0  0  0  0  0  0
  159.6260  201.7530  149.3070 O   0  0  0  0  0  0  0  0  0  0  0  0
  160.8190  201.2680  148.7290 C   0  0  2  0  0  3  0  0  0  0  0  0
  2  4  1  1  0  0  0
  3  8  1  6  0  0  0
  3  9  1  0  0  0  0
  4 17  1  0  0  0  0
  5  9  1  6  0  0  0
  5 11  1  0  0  0  0
  5 18  1  0  0  0  0
  5 12  1  0  0  0  0
  6  7  1  0  0  0  0
  7 10  1  6  0  0  0
  7 14  1  0  0  0  0
  7 13  1  0  0  0  0
 11 12  1  0  0  0  0
 12 19  1  1  0  0  0
 13 23  1  6  0  0  0
 13  2  1  0  0  0  0
 14 16  1  1  0  0  0
 14 15  1  0  0  0  0
 15  2  1  0  0  0  0
 15  3  1  0  0  0  0
 17 18  1  0  0  0  0
 17  1  2  0  0  0  0
 19 22  1  0  0  0  0
 19 20  2  0  0  0  0
 22 21  1  0  0  0  0
 24 25  1  0  0  0  0
 24 23  1  0  0  0  0
 25 27  1  0  0  0  0
 26 29  1  0  0  0  0
 28 25  1  0  0  0  0
 29 28  1  0  0  0  0
 29 25  1  0  0  0  0
M  END
>  <MODEL>
3

>  <REMARK>
 VINA RESULT:      -5.9      2.284      3.751
  Name = 
  5 active torsions:
  status: ('A' for Active; 'I' for Inactive)
    1  A    between atoms: C_10  and  C_15
    2  A    between atoms: C_11  and  C_18
    3  A    between atoms: C_11  and  C_19
    4  A    between atoms: C_15  and  C_21
    5  A    between atoms: C_20  and  C_21
                            x       y       z     vdW  Elec       q    Type
                         _______ _______ _______ _____ _____    ______ ____

>  <TORSDO>
F 5

$$$$
=
 OpenBabel11072413583D

 29 32  0  0  1  0  0  0  0  0999 V2000
  161.9780  207.9820  148.9240 O   0  0  0  0  0  0  0  0  0  0  0  0
  161.4410  207.7980  151.7590 C   0  0  1  0  0  3  0  0  0  0  0  0
  162.2770  205.3230  151.3660 C   0  0  1  0  0  3  0  0  0  0  0  0
  160.5490  207.5520  150.6820 O   0  0  0  0  0  0  0  0  0  0  0  0
  160.9980  204.8450  149.2560 C   0  0  2  0  0  0  0  0  0  0  0  0
  159.6810  207.4970  154.8950 O   0  0  0  0  0  1  0  0  0  0  0  0
  160.8600  207.5500  154.1490 C   0  0  2  0  0  0  0  0  0  0  0  0
  163.0510  204.3520  152.0000 O   0  0  0  0  0  1  0  0  0  0  0  0
  161.0250  204.6760  150.7740 C   0  0  0  0  0  2  0  0  0  0  0  0
  161.9960  208.0390  155.0430 C   0  0  0  0  0  1  0  0  0  0  0  0
  160.3670  203.6490  148.5870 C   0  0  0  0  0  2  0  0  0  0  0  0
  161.8670  203.8760  148.4500 C   0  0  1  0  0  3  0  0  0  0  0  0
  160.6560  208.4250  152.9000 C   0  0  1  0  0  3  0  0  0  0  0  0
  161.2220  206.1730  153.6090 C   0  0  2  0  0  3  0  0  0  0  0  0
  161.9940  206.4880  152.3340 C   0  0  2  0  0  3  0  0  0  0  0  0
  160.0710  205.4590  153.3160 F   0  0  0  0  0  0  0  0  0  0  0  0
  161.0190  207.3140  149.3940 C   0  0  0  0  0  0  0  0  0  0  0  0
  160.4740  206.1510  148.6450 C   0  0  0  0  0  2  0  0  0  0  0  0
  162.2160  204.3660  147.0710 C   0  0  0  0  0  0  0  0  0  0  0  0
  163.0150  205.2810  146.9300 O   0  0  0  0  0  0  0  0  0  0  0  0
  161.1050  204.8800  144.9880 N   0  0  0  0  0  1  0  0  0  0  0  0
  161.5160  203.8050  145.8750 C   0  0  0  0  0  2  0  0  0  0  0  0
  160.9940  209.9050  153.0630 C   0  0  0  0  0  2  0  0  0  0  0  0
  159.7350  210.7490  153.2140 C   0  0  0  0  0  2  0  0  0  0  0  0
  159.7160  211.4820  154.5560 C   0  0  1  0  0  0  0  0  0  0  0  0
  157.2040  211.5680  154.4000 C   0  0  0  0  0  1  0  0  0  0  0  0
  160.9520  211.4500  155.4320 C   0  0  0  0  0  1  0  0  0  0  0  0
  159.2550  212.8000  154.3990 O   0  0  0  0  0  0  0  0  0  0  0  0
  158.4500  211.9470  155.1850 C   0  0  2  0  0  3  0  0  0  0  0  0
  1 17  2  0  0  0  0
  2  4  1  6  0  0  0
  2 15  1  0  0  0  0
  2 13  1  0  0  0  0
  3  8  1  1  0  0  0
  3 15  1  0  0  0  0
  5 11  1  6  0  0  0
  5  9  1  0  0  0  0
  7  6  1  0  0  0  0
  7 10  1  1  0  0  0
  9  3  1  0  0  0  0
 12 19  1  6  0  0  0
 12 11  1  0  0  0  0
 12  5  1  0  0  0  0
 13 23  1  1  0  0  0
 13  7  1  0  0  0  0
 14 16  1  6  0  0  0
 14  7  1  0  0  0  0
 15 14  1  0  0  0  0
 17  4  1  0  0  0  0
 18  5  1  0  0  0  0
 18 17  1  0  0  0  0
 20 19  2  0  0  0  0
 21 22  1  0  0  0  0
 22 19  1  0  0  0  0
 23 24  1  0  0  0  0
 24 25  1  0  0  0  0
 25 29  1  0  0  0  0
 25 27  1  0  0  0  0
 26 29  1  0  0  0  0
 28 25  1  0  0  0  0
 28 29  1  0  0  0  0
M  END
>  <MODEL>
4

>  <REMARK>
 VINA RESULT:      -5.8      2.726      7.880
  Name = 
  5 active torsions:
  status: ('A' for Active; 'I' for Inactive)
    1  A    between atoms: C_10  and  C_15
    2  A    between atoms: C_11  and  C_18
    3  A    between atoms: C_11  and  C_19
    4  A    between atoms: C_15  and  C_21
    5  A    between atoms: C_20  and  C_21
                            x       y       z     vdW  Elec       q    Type
                         _______ _______ _______ _____ _____    ______ ____

>  <TORSDO>
F 5

$$$$
=
 OpenBabel11072413583D

 29 32  0  0  1  0  0  0  0  0999 V2000
  161.7200  207.9370  148.3980 O   0  0  0  0  0  0  0  0  0  0  0  0
  161.4760  208.6240  151.1950 C   0  0  1  0  0  3  0  0  0  0  0  0
  162.3810  206.1590  151.4840 C   0  0  1  0  0  3  0  0  0  0  0  0
  160.4930  208.0490  150.3480 O   0  0  0  0  0  0  0  0  0  0  0  0
  160.9220  205.0400  149.7710 C   0  0  2  0  0  0  0  0  0  0  0  0
  160.0510  209.2770  154.4470 O   0  0  0  0  0  1  0  0  0  0  0  0
  161.1460  209.1140  153.5960 C   0  0  2  0  0  0  0  0  0  0  0  0
  163.2570  205.4400  152.2960 O   0  0  0  0  0  1  0  0  0  0  0  0
  161.1070  205.3450  151.2560 C   0  0  0  0  0  2  0  0  0  0  0  0
  162.3420  209.8680  154.1710 C   0  0  0  0  0  1  0  0  0  0  0  0
  160.2820  203.6890  149.5690 C   0  0  0  0  0  2  0  0  0  0  0  0
  161.7500  203.8820  149.2080 C   0  0  1  0  0  3  0  0  0  0  0  0
  160.7800  209.5610  152.1700 C   0  0  1  0  0  3  0  0  0  0  0  0
  161.5160  207.6430  153.4640 C   0  0  2  0  0  3  0  0  0  0  0  0
  162.1430  207.5610  152.0780 C   0  0  2  0  0  3  0  0  0  0  0  0
  160.3750  206.8580  153.5280 F   0  0  0  0  0  0  0  0  0  0  0  0
  160.8440  207.4330  149.1490 C   0  0  0  0  0  0  0  0  0  0  0  0
  160.2810  206.0900  148.8530 C   0  0  0  0  0  2  0  0  0  0  0  0
  161.9380  203.9300  147.7160 C   0  0  0  0  0  0  0  0  0  0  0  0
  161.3280  203.1520  146.9970 O   0  0  0  0  0  0  0  0  0  0  0  0
  162.7340  204.9590  145.6800 N   0  0  0  0  0  1  0  0  0  0  0  0
  162.9410  204.8610  147.1150 C   0  0  0  0  0  2  0  0  0  0  0  0
  161.0650  211.0240  151.8380 C   0  0  0  0  0  2  0  0  0  0  0  0
  160.0090  211.9440  152.4360 C   0  0  0  0  0  2  0  0  0  0  0  0
  159.5940  213.0320  151.4440 C   0  0  1  0  0  0  0  0  0  0  0  0
  158.3040  214.1420  153.2990 C   0  0  0  0  0  1  0  0  0  0  0  0
  160.3560  213.1720  150.1420 C   0  0  0  0  0  1  0  0  0  0  0  0
  158.2100  212.9890  151.2060 O   0  0  0  0  0  0  0  0  0  0  0  0
  158.7000  214.1560  151.8320 C   0  0  2  0  0  3  0  0  0  0  0  0
  1 17  2  0  0  0  0
  2  4  1  6  0  0  0
  2 15  1  0  0  0  0
  2 13  1  0  0  0  0
  3 15  1  0  0  0  0
  3  8  1  1  0  0  0
  5 18  1  6  0  0  0
  5  9  1  0  0  0  0
  7 10  1  1  0  0  0
  7  6  1  0  0  0  0
  9  3  1  0  0  0  0
 11  5  1  0  0  0  0
 12 19  1  6  0  0  0
 12 11  1  0  0  0  0
 12  5  1  0  0  0  0
 13 23  1  6  0  0  0
 13  7  1  0  0  0  0
 14 16  1  6  0  0  0
 14  7  1  0  0  0  0
 15 14  1  0  0  0  0
 17  4  1  0  0  0  0
 18 17  1  0  0  0  0
 20 19  2  0  0  0  0
 21 22  1  0  0  0  0
 22 19  1  0  0  0  0
 23 24  1  0  0  0  0
 25 29  1  0  0  0  0
 25 24  1  0  0  0  0
 27 25  1  0  0  0  0
 28 25  1  0  0  0  0
 28 29  1  0  0  0  0
 29 26  1  0  0  0  0
M  END
>  <MODEL>
5

>  <REMARK>
 VINA RESULT:      -5.6      3.140      7.712
  Name = 
  5 active torsions:
  status: ('A' for Active; 'I' for Inactive)
    1  A    between atoms: C_10  and  C_15
    2  A    between atoms: C_11  and  C_18
    3  A    between atoms: C_11  and  C_19
    4  A    between atoms: C_15  and  C_21
    5  A    between atoms: C_20  and  C_21
                            x       y       z     vdW  Elec       q    Type
                         _______ _______ _______ _____ _____    ______ ____

>  <TORSDO>
F 5

$$$$
=
 OpenBabel11072413583D

 29 32  0  0  1  0  0  0  0  0999 V2000
  160.0100  203.1630  149.9300 O   0  0  0  0  0  0  0  0  0  0  0  0
  160.8230  205.8580  150.5940 C   0  0  1  0  0  3  0  0  0  0  0  0
  160.6920  206.1320  147.9700 C   0  0  1  0  0  3  0  0  0  0  0  0
  161.6500  204.7360  150.3270 O   0  0  0  0  0  0  0  0  0  0  0  0
  161.8650  204.0040  147.3290 C   0  0  2  0  0  0  0  0  0  0  0  0
  162.8630  208.6830  151.5350 O   0  0  0  0  0  1  0  0  0  0  0  0
  161.6570  208.1290  151.0990 C   0  0  2  0  0  0  0  0  0  0  0  0
  160.2840  207.0690  147.0210 O   0  0  0  0  0  1  0  0  0  0  0  0
  162.0200  205.5090  147.5380 C   0  0  0  0  0  2  0  0  0  0  0  0
  160.5110  209.0610  151.4870 C   0  0  0  0  0  1  0  0  0  0  0  0
  162.7490  203.5160  146.2080 C   0  0  0  0  0  2  0  0  0  0  0  0
  161.2400  203.5640  146.0030 C   0  0  1  0  0  3  0  0  0  0  0  0
  161.4940  206.7070  151.6620 C   0  0  1  0  0  3  0  0  0  0  0  0
  161.6540  207.9560  149.5870 C   0  0  2  0  0  3  0  0  0  0  0  0
  160.7160  206.7760  149.3690 C   0  0  2  0  0  3  0  0  0  0  0  0
  162.9310  207.6510  149.1410 F   0  0  0  0  0  0  0  0  0  0  0  0
  161.1570  203.6140  149.6670 C   0  0  0  0  0  0  0  0  0  0  0  0
  161.9410  203.0560  148.5340 C   0  0  0  0  0  2  0  0  0  0  0  0
  160.6470  202.1810  146.0330 C   0  0  0  0  0  0  0  0  0  0  0  0
  160.9860  201.3880  146.8990 O   0  0  0  0  0  0  0  0  0  0  0  0
  159.2790  202.8850  144.1690 N   0  0  0  0  0  1  0  0  0  0  0  0
  159.7190  201.7390  144.9480 C   0  0  0  0  0  2  0  0  0  0  0  0
  160.7640  206.6000  153.0000 C   0  0  0  0  0  2  0  0  0  0  0  0
  161.6390  207.0860  154.1480 C   0  0  0  0  0  2  0  0  0  0  0  0
  160.8000  207.7400  155.2470 C   0  0  1  0  0  0  0  0  0  0  0  0
  161.8350  209.9510  154.6310 C   0  0  0  0  0  1  0  0  0  0  0  0
  159.6170  206.9860  155.8190 C   0  0  0  0  0  1  0  0  0  0  0  0
  161.6210  208.2290  156.2770 O   0  0  0  0  0  0  0  0  0  0  0  0
  160.8900  209.1940  155.5500 C   0  0  2  0  0  3  0  0  0  0  0  0
  2  4  1  6  0  0  0
  2 13  1  0  0  0  0
  3  8  1  6  0  0  0
  3 15  1  0  0  0  0
  5 11  1  6  0  0  0
  5  9  1  0  0  0  0
  5 18  1  0  0  0  0
  7 10  1  1  0  0  0
  7  6  1  0  0  0  0
  7 13  1  0  0  0  0
  9  3  1  0  0  0  0
 12 19  1  1  0  0  0
 12 11  1  0  0  0  0
 12  5  1  0  0  0  0
 13 23  1  1  0  0  0
 14 16  1  1  0  0  0
 14  7  1  0  0  0  0
 15 14  1  0  0  0  0
 15  2  1  0  0  0  0
 17  1  2  0  0  0  0
 17  4  1  0  0  0  0
 18 17  1  0  0  0  0
 19 20  2  0  0  0  0
 21 22  1  0  0  0  0
 22 19  1  0  0  0  0
 23 24  1  0  0  0  0
 24 25  1  0  0  0  0
 25 29  1  0  0  0  0
 25 27  1  0  0  0  0
 25 28  1  0  0  0  0
 26 29  1  0  0  0  0
 29 28  1  0  0  0  0
M  END
>  <MODEL>
6

>  <REMARK>
 VINA RESULT:      -5.3      3.318      8.764
  Name = 
  5 active torsions:
  status: ('A' for Active; 'I' for Inactive)
    1  A    between atoms: C_10  and  C_15
    2  A    between atoms: C_11  and  C_18
    3  A    between atoms: C_11  and  C_19
    4  A    between atoms: C_15  and  C_21
    5  A    between atoms: C_20  and  C_21
                            x       y       z     vdW  Elec       q    Type
                         _______ _______ _______ _____ _____    ______ ____

>  <TORSDO>
F 5

$$$$
=
 OpenBabel11072413583D

 29 32  0  0  1  0  0  0  0  0999 V2000
  161.9670  203.8520  150.7230 O   0  0  0  0  0  0  0  0  0  0  0  0
  161.7660  204.6200  147.9430 C   0  0  1  0  0  3  0  0  0  0  0  0
  162.5270  206.9500  148.9310 C   0  0  1  0  0  3  0  0  0  0  0  0
  160.7510  204.6540  148.9350 O   0  0  0  0  0  0  0  0  0  0  0  0
  161.0030  207.0050  150.9280 C   0  0  2  0  0  0  0  0  0  0  0  0
  160.3860  205.5830  144.7500 O   0  0  0  0  0  1  0  0  0  0  0  0
  161.4690  205.3610  145.6030 C   0  0  2  0  0  0  0  0  0  0  0  0
  163.3610  208.0180  148.6040 O   0  0  0  0  0  1  0  0  0  0  0  0
  161.2080  207.4810  149.4910 C   0  0  0  0  0  2  0  0  0  0  0  0
  162.7080  205.0490  144.7680 C   0  0  0  0  0  1  0  0  0  0  0  0
  160.2860  208.0480  151.7500 C   0  0  0  0  0  2  0  0  0  0  0  0
  161.7620  207.7760  152.0120 C   0  0  1  0  0  3  0  0  0  0  0  0
  161.1280  204.2520  146.6140 C   0  0  1  0  0  3  0  0  0  0  0  0
  161.7520  206.5920  146.4530 C   0  0  2  0  0  3  0  0  0  0  0  0
  162.3720  206.0120  147.7180 C   0  0  2  0  0  3  0  0  0  0  0  0
  160.5680  207.2480  146.7490 F   0  0  0  0  0  0  0  0  0  0  0  0
  161.0630  204.6160  150.2910 C   0  0  0  0  0  0  0  0  0  0  0  0
  160.4230  205.6090  151.1930 C   0  0  0  0  0  2  0  0  0  0  0  0
  161.9500  207.0080  153.2930 C   0  0  0  0  0  0  0  0  0  0  0  0
  162.7400  206.0760  153.3380 O   0  0  0  0  0  0  0  0  0  0  0  0
  161.5690  208.5370  155.1240 N   0  0  0  0  0  1  0  0  0  0  0  0
  161.1030  207.3180  154.4850 C   0  0  0  0  0  2  0  0  0  0  0  0
  161.4970  202.8310  146.1920 C   0  0  0  0  0  2  0  0  0  0  0  0
  160.4100  201.8370  146.5790 C   0  0  0  0  0  2  0  0  0  0  0  0
  160.9740  200.7030  147.4350 C   0  0  1  0  0  0  0  0  0  0  0  0
  159.7040  201.6370  149.3980 C   0  0  0  0  0  1  0  0  0  0  0  0
  161.5820  199.4950  146.7510 C   0  0  0  0  0  1  0  0  0  0  0  0
  161.8430  201.2040  148.4190 O   0  0  0  0  0  0  0  0  0  0  0  0
  160.6660  200.5780  148.8860 C   0  0  2  0  0  3  0  0  0  0  0  0
  2  4  1  1  0  0  0
  3  8  1  6  0  0  0
  3  9  1  0  0  0  0
  4 17  1  0  0  0  0
  5  9  1  6  0  0  0
  5 18  1  0  0  0  0
  5 11  1  0  0  0  0
  5 12  1  0  0  0  0
  6  7  1  0  0  0  0
  7 10  1  6  0  0  0
  7 14  1  0  0  0  0
  7 13  1  0  0  0  0
 11 12  1  0  0  0  0
 12 19  1  1  0  0  0
 13 23  1  6  0  0  0
 13  2  1  0  0  0  0
 14 16  1  1  0  0  0
 14 15  1  0  0  0  0
 15  2  1  0  0  0  0
 15  3  1  0  0  0  0
 17  1  2  0  0  0  0
 17 18  1  0  0  0  0
 19 20  2  0  0  0  0
 19 22  1  0  0  0  0
 22 21  1  0  0  0  0
 23 24  1  0  0  0  0
 24 25  1  0  0  0  0
 25 28  1  0  0  0  0
 25 29  1  0  0  0  0
 27 25  1  0  0  0  0
 28 29  1  0  0  0  0
 29 26  1  0  0  0  0
M  END
>  <MODEL>
7

>  <REMARK>
 VINA RESULT:      -5.0      3.341      5.976
  Name = 
  5 active torsions:
  status: ('A' for Active; 'I' for Inactive)
    1  A    between atoms: C_10  and  C_15
    2  A    between atoms: C_11  and  C_18
    3  A    between atoms: C_11  and  C_19
    4  A    between atoms: C_15  and  C_21
    5  A    between atoms: C_20  and  C_21
                            x       y       z     vdW  Elec       q    Type
                         _______ _______ _______ _____ _____    ______ ____

>  <TORSDO>
F 5

$$$$
=
 OpenBabel11072413583D

 29 32  0  0  1  0  0  0  0  0999 V2000
  160.5710  203.7830  152.2750 O   0  0  0  0  0  0  0  0  0  0  0  0
  161.2090  206.5850  151.9460 C   0  0  1  0  0  3  0  0  0  0  0  0
  160.3740  206.0900  149.4890 C   0  0  1  0  0  3  0  0  0  0  0  0
  162.0640  205.4660  151.7640 O   0  0  0  0  0  0  0  0  0  0  0  0
  161.5810  203.9150  149.1320 C   0  0  2  0  0  0  0  0  0  0  0  0
  163.0800  209.6370  151.4940 O   0  0  0  0  0  1  0  0  0  0  0  0
  161.8750  208.9360  151.5770 C   0  0  2  0  0  0  0  0  0  0  0  0
  159.6280  206.6990  148.4800 O   0  0  0  0  0  1  0  0  0  0  0  0
  161.6080  205.4220  148.8840 C   0  0  0  0  0  2  0  0  0  0  0  0
  160.7680  209.8940  152.0090 C   0  0  0  0  0  1  0  0  0  0  0  0
  162.1960  203.1620  147.9780 C   0  0  0  0  0  2  0  0  0  0  0  0
  160.6900  203.0900  148.2000 C   0  0  1  0  0  3  0  0  0  0  0  0
  162.0300  207.7290  152.5180 C   0  0  1  0  0  3  0  0  0  0  0  0
  161.5020  208.3370  150.2280 C   0  0  2  0  0  3  0  0  0  0  0  0
  160.6840  207.1090  150.6030 C   0  0  2  0  0  3  0  0  0  0  0  0
  162.6470  207.9670  149.5400 F   0  0  0  0  0  0  0  0  0  0  0  0
  161.5500  204.1840  151.5910 C   0  0  0  0  0  0  0  0  0  0  0  0
  162.0750  203.3560  150.4730 C   0  0  0  0  0  2  0  0  0  0  0  0
  160.2900  201.7520  148.7600 C   0  0  0  0  0  0  0  0  0  0  0  0
  159.2510  201.6390  149.3950 O   0  0  0  0  0  0  0  0  0  0  0  0
  161.3130  200.1850  147.2310 N   0  0  0  0  0  1  0  0  0  0  0  0
  161.2050  200.5780  148.6260 C   0  0  0  0  0  2  0  0  0  0  0  0
  161.6880  207.9820  153.9850 C   0  0  0  0  0  2  0  0  0  0  0  0
  160.1960  207.8170  154.2440 C   0  0  0  0  0  2  0  0  0  0  0  0
  159.8500  208.1100  155.7040 C   0  0  1  0  0  0  0  0  0  0  0  0
  159.1320  210.4190  155.0060 C   0  0  0  0  0  1  0  0  0  0  0  0
  159.7060  206.9540  156.6740 C   0  0  0  0  0  1  0  0  0  0  0  0
  160.7010  209.0950  156.2320 O   0  0  0  0  0  0  0  0  0  0  0  0
  159.3330  209.4330  156.1460 C   0  0  2  0  0  3  0  0  0  0  0  0
  2  4  1  6  0  0  0
  2 13  1  0  0  0  0
  3  8  1  6  0  0  0
  3 15  1  0  0  0  0
  5 11  1  6  0  0  0
  5 18  1  0  0  0  0
  6  7  1  0  0  0  0
  7 10  1  1  0  0  0
  7 13  1  0  0  0  0
  9  5  1  0  0  0  0
  9  3  1  0  0  0  0
 11 12  1  0  0  0  0
 12 19  1  1  0  0  0
 12  5  1  0  0  0  0
 13 23  1  1  0  0  0
 14 16  1  1  0  0  0
 14 15  1  0  0  0  0
 14  7  1  0  0  0  0
 15  2  1  0  0  0  0
 17  4  1  0  0  0  0
 17  1  2  0  0  0  0
 18 17  1  0  0  0  0
 19 20  2  0  0  0  0
 21 22  1  0  0  0  0
 22 19  1  0  0  0  0
 23 24  1  0  0  0  0
 24 25  1  0  0  0  0
 25 29  1  0  0  0  0
 25 28  1  0  0  0  0
 25 27  1  0  0  0  0
 26 29  1  0  0  0  0
 29 28  1  0  0  0  0
M  END
>  <MODEL>
8

>  <REMARK>
 VINA RESULT:      -4.3      3.318      8.283
  Name = 
  5 active torsions:
  status: ('A' for Active; 'I' for Inactive)
    1  A    between atoms: C_10  and  C_15
    2  A    between atoms: C_11  and  C_18
    3  A    between atoms: C_11  and  C_19
    4  A    between atoms: C_15  and  C_21
    5  A    between atoms: C_20  and  C_21
                            x       y       z     vdW  Elec       q    Type
                         _______ _______ _______ _____ _____    ______ ____

>  <TORSDO>
F 5

$$$$
=
 OpenBabel11072413583D

 29 32  0  0  1  0  0  0  0  0999 V2000
  160.4180  206.9030  149.1150 O   0  0  0  0  0  0  0  0  0  0  0  0
  160.5990  204.0170  149.1180 C   0  0  1  0  0  3  0  0  0  0  0  0
  160.2380  204.3810  151.7100 C   0  0  1  0  0  3  0  0  0  0  0  0
  161.6540  204.9590  149.2430 O   0  0  0  0  0  0  0  0  0  0  0  0
  161.8460  206.2870  152.0300 C   0  0  2  0  0  0  0  0  0  0  0  0
  161.9560  200.6740  149.0210 O   0  0  0  0  0  1  0  0  0  0  0  0
  160.8930  201.5630  149.1910 C   0  0  2  0  0  0  0  0  0  0  0  0
  159.5570  203.7980  152.7770 O   0  0  0  0  0  1  0  0  0  0  0  0
  161.6460  204.7770  152.1540 C   0  0  0  0  0  2  0  0  0  0  0  0
  159.5840  200.8450  148.8730 C   0  0  0  0  0  1  0  0  0  0  0  0
  162.7470  206.8080  153.1220 C   0  0  0  0  0  2  0  0  0  0  0  0
  161.2610  207.1420  153.1560 C   0  0  1  0  0  3  0  0  0  0  0  0
  161.1140  202.8220  148.3330 C   0  0  1  0  0  3  0  0  0  0  0  0
  160.8350  202.0710  150.6240 C   0  0  2  0  0  3  0  0  0  0  0  0
  160.1970  203.4470  150.4850 C   0  0  2  0  0  3  0  0  0  0  0  0
  162.1160  202.1810  151.1420 F   0  0  0  0  0  0  0  0  0  0  0  0
  161.4030  206.2820  149.5960 C   0  0  0  0  0  0  0  0  0  0  0  0
  162.2250  206.8950  150.6730 C   0  0  0  0  0  2  0  0  0  0  0  0
  161.0220  208.5780  152.7750 C   0  0  0  0  0  0  0  0  0  0  0  0
  160.1100  208.8660  152.0120 O   0  0  0  0  0  0  0  0  0  0  0  0
  161.2050  210.7270  153.8650 N   0  0  0  0  0  1  0  0  0  0  0  0
  161.9550  209.6460  153.2460 C   0  0  0  0  0  2  0  0  0  0  0  0
  160.5190  202.7800  146.9260 C   0  0  0  0  0  2  0  0  0  0  0  0
  161.5810  203.0460  145.8670 C   0  0  0  0  0  2  0  0  0  0  0  0
  161.4350  204.4470  145.2730 C   0  0  1  0  0  0  0  0  0  0  0  0
  163.6060  205.0750  146.3820 C   0  0  0  0  0  1  0  0  0  0  0  0
  160.4580  204.6670  144.1360 C   0  0  0  0  0  1  0  0  0  0  0  0
  161.2380  205.4010  146.2860 O   0  0  0  0  0  0  0  0  0  0  0  0
  162.4270  205.5240  145.5340 C   0  0  2  0  0  3  0  0  0  0  0  0
  1 17  2  0  0  0  0
  2  4  1  1  0  0  0
  2 15  1  0  0  0  0
  3  9  1  0  0  0  0
  3  8  1  1  0  0  0
  4 17  1  0  0  0  0
  5 18  1  6  0  0  0
  5  9  1  0  0  0  0
  5 11  1  0  0  0  0
  5 12  1  0  0  0  0
  6  7  1  0  0  0  0
  7 10  1  6  0  0  0
  7 14  1  0  0  0  0
 11 12  1  0  0  0  0
 12 19  1  6  0  0  0
 13 23  1  6  0  0  0
 13  2  1  0  0  0  0
 13  7  1  0  0  0  0
 14 16  1  6  0  0  0
 15 14  1  0  0  0  0
 15  3  1  0  0  0  0
 17 18  1  0  0  0  0
 19 22  1  0  0  0  0
 20 19  2  0  0  0  0
 22 21  1  0  0  0  0
 24 23  1  0  0  0  0
 25 29  1  0  0  0  0
 25 24  1  0  0  0  0
 25 28  1  0  0  0  0
 27 25  1  0  0  0  0
 29 28  1  0  0  0  0
 29 26  1  0  0  0  0
M  END
>  <MODEL>
9

>  <REMARK>
 VINA RESULT:      -4.1      2.648      4.483
  Name = 
  5 active torsions:
  status: ('A' for Active; 'I' for Inactive)
    1  A    between atoms: C_10  and  C_15
    2  A    between atoms: C_11  and  C_18
    3  A    between atoms: C_11  and  C_19
    4  A    between atoms: C_15  and  C_21
    5  A    between atoms: C_20  and  C_21
                            x       y       z     vdW  Elec       q    Type
                         _______ _______ _______ _____ _____    ______ ____

>  <TORSDO>
F 5

$$$$
