=
 OpenBabel11072413063D

 35 40  0  0  1  0  0  0  0  0999 V2000
  161.6990  210.1670  152.6200 C   0  0  0  0  0  2  0  0  0  0  0  0
  159.4330  212.2190  153.3620 C   0  0  2  0  0  3  0  0  0  0  0  0
  160.0270  209.8060  157.1570 C   0  0  0  0  0  3  0  0  0  0  0  0
  160.9300  209.5770  155.1120 C   0  0  0  0  0  0  0  0  0  0  0  0
  158.8900  211.0300  152.7330 O   0  0  0  0  0  0  0  0  0  0  0  0
  161.2280  209.1810  157.2580 O   0  0  0  0  0  0  0  0  0  0  0  0
  161.7940  209.0840  156.0730 C   0  0  0  0  0  3  0  0  0  0  0  0
  158.8370  210.7360  155.1900 C   0  0  0  0  0  2  0  0  0  0  0  0
  159.8530  209.9900  155.9070 C   0  0  0  0  0  0  0  0  0  0  0  0
  161.0560  210.4850  153.9460 C   0  0  2  0  0  3  0  0  0  0  0  0
  159.6270  210.8850  153.9120 C   0  0  2  0  0  0  0  0  0  0  0  0
  158.7340  213.2760  152.4050 C   0  0  1  0  0  3  0  0  0  0  0  0
  159.0270  212.9490  150.9810 C   0  0  2  0  0  3  0  0  0  0  0  0
  160.4090  212.9850  150.6820 O   0  0  0  0  0  1  0  0  0  0  0  0
  156.7960  213.9730  150.4430 C   0  0  0  0  0  2  0  0  0  0  0  0
  157.5070  213.7100  152.9170 O   0  0  0  0  0  0  0  0  0  0  0  0
  158.2720  213.9620  150.0950 C   0  0  0  0  0  2  0  0  0  0  0  0
  156.5850  214.2870  151.9060 C   0  0  0  0  0  2  0  0  0  0  0  0
  162.2500  206.6220  151.8000 N   0  0  0  0  0  0  0  0  0  0  0  0
  162.1430  208.3010  149.9280 C   0  0  0  0  0  2  0  0  0  0  0  0
  161.9000  207.5520  152.8230 C   0  0  0  0  0  2  0  0  0  0  0  0
  160.9320  208.7080  150.6910 C   0  0  0  0  0  2  0  0  0  0  0  0
  161.1930  208.7880  152.2070 C   0  0  2  0  0  3  0  0  0  0  0  0
  162.8430  207.0930  150.5120 C   0  0  0  0  0  2  0  0  0  0  0  0
  161.1630  204.9930  153.1080 O   0  0  0  0  0  1  0  0  0  0  0  0
  161.6770  205.2700  151.8470 C   0  0  1  0  0  3  0  0  0  0  0  0
  160.6040  205.1340  150.7350 C   0  0  0  0  0  2  0  0  0  0  0  0
  160.8710  203.9420  149.7940 C   0  0  0  0  0  2  0  0  0  0  0  0
  161.3210  205.0730  146.3770 C   0  0  2  0  0  3  0  0  0  0  0  0
  161.6700  203.0700  147.4590 C   0  0  1  0  0  3  0  0  0  0  0  0
  160.6900  206.0420  145.3430 C   0  0  0  0  0  1  0  0  0  0  0  0
  160.8750  201.8450  147.8890 C   0  0  0  0  0  1  0  0  0  0  0  0
  161.1570  203.5800  146.1370 C   0  0  0  0  0  2  0  0  0  0  0  0
  160.8400  205.3180  147.7110 N   0  0  0  0  0  2  0  0  0  0  0  0
  161.5110  204.2490  148.4410 C   0  0  1  0  0  3  0  0  0  0  0  0
  2  5  1  6  0  0  0
  2 11  1  0  0  0  0
  3  6  1  0  0  0  0
  4  9  1  0  0  0  0
  4  7  2  0  0  0  0
  5 11  1  0  0  0  0
  7  6  1  0  0  0  0
  8  9  1  0  0  0  0
  9  3  2  0  0  0  0
 10  1  1  6  0  0  0
 10  4  1  0  0  0  0
 11 10  1  0  0  0  0
 11  8  1  1  0  0  0
 12 16  1  6  0  0  0
 12  2  1  0  0  0  0
 13 14  1  1  0  0  0
 13 12  1  0  0  0  0
 15 18  1  0  0  0  0
 17 15  1  0  0  0  0
 17 13  1  0  0  0  0
 18 16  1  0  0  0  0
 19 26  1  0  0  0  0
 19 21  1  0  0  0  0
 20 24  1  0  0  0  0
 20 22  1  0  0  0  0
 22 23  1  0  0  0  0
 23  1  1  6  0  0  0
 23 21  1  0  0  0  0
 24 19  1  0  0  0  0
 26 25  1  1  0  0  0
 27 26  1  0  0  0  0
 28 27  1  0  0  0  0
 29 31  1  6  0  0  0
 29 34  1  0  0  0  0
 30 32  1  1  0  0  0
 30 35  1  0  0  0  0
 33 29  1  0  0  0  0
 33 30  1  0  0  0  0
 34 35  1  0  0  0  0
 35 28  1  1  0  0  0
M  END
>  <MODEL>
1

>  <REMARK>
 VINA RESULT:      -7.9      0.000      0.000
  Name = 
  7 active torsions:
  status: ('A' for Active; 'I' for Inactive)
    1  A    between atoms: C_1  and  C_8
    2  A    between atoms: N_2  and  C_34
    3  A    between atoms: C_22  and  C_25
    4  A    between atoms: C_25  and  C_27
    5  A    between atoms: C_32  and  C_33
    6  A    between atoms: C_32  and  C_34
    7  A    between atoms: C_33  and  C_35
                            x       y       z     vdW  Elec       q    Type
                         _______ _______ _______ _____ _____    ______ ____

>  <TORSDO>
F 7

$$$$
=
 OpenBabel11072413063D

 35 40  0  0  1  0  0  0  0  0999 V2000
  159.1700  210.7490  153.6060 C   0  0  0  0  0  2  0  0  0  0  0  0
  158.7830  213.6150  152.3670 C   0  0  2  0  0  3  0  0  0  0  0  0
  160.0310  214.4210  156.6540 C   0  0  0  0  0  3  0  0  0  0  0  0
  159.5780  212.4930  155.5920 C   0  0  0  0  0  0  0  0  0  0  0  0
  157.5320  213.0780  152.8690 O   0  0  0  0  0  0  0  0  0  0  0  0
  160.6900  213.4020  157.2610 O   0  0  0  0  0  0  0  0  0  0  0  0
  160.4750  212.2720  156.6200 C   0  0  0  0  0  3  0  0  0  0  0  0
  158.5870  214.4520  154.6380 C   0  0  0  0  0  2  0  0  0  0  0  0
  159.3610  213.8710  155.7170 C   0  0  0  0  0  0  0  0  0  0  0  0
  159.4970  212.1120  154.1610 C   0  0  2  0  0  3  0  0  0  0  0  0
  158.6010  213.2250  153.7590 C   0  0  2  0  0  0  0  0  0  0  0  0
  158.2630  213.9760  150.9110 C   0  0  1  0  0  3  0  0  0  0  0  0
  159.2660  213.5600  149.8910 C   0  0  2  0  0  3  0  0  0  0  0  0
  160.5130  214.2110  150.0490 O   0  0  0  0  0  1  0  0  0  0  0  0
  157.3230  213.2240  148.3340 C   0  0  0  0  0  2  0  0  0  0  0  0
  156.8750  213.8430  150.8060 O   0  0  0  0  0  0  0  0  0  0  0  0
  158.6850  213.8720  148.4960 C   0  0  0  0  0  2  0  0  0  0  0  0
  156.3730  213.6770  149.4190 C   0  0  0  0  0  2  0  0  0  0  0  0
  161.1350  207.9930  152.1600 N   0  0  0  0  0  0  0  0  0  0  0  0
  160.8970  208.1350  154.6610 C   0  0  0  0  0  2  0  0  0  0  0  0
  160.4820  209.2340  151.9020 C   0  0  0  0  0  2  0  0  0  0  0  0
  161.2700  209.5470  154.3710 C   0  0  0  0  0  2  0  0  0  0  0  0
  160.4930  210.1240  153.1730 C   0  0  2  0  0  3  0  0  0  0  0  0
  160.8860  207.2520  153.4330 C   0  0  0  0  0  2  0  0  0  0  0  0
  162.7070  206.3280  151.6090 O   0  0  0  0  0  1  0  0  0  0  0  0
  162.3270  207.6440  151.3750 C   0  0  1  0  0  3  0  0  0  0  0  0
  162.0420  207.9120  149.8730 C   0  0  0  0  0  2  0  0  0  0  0  0
  161.2200  206.7860  149.2150 C   0  0  0  0  0  2  0  0  0  0  0  0
  161.6620  205.3560  145.9110 C   0  0  2  0  0  3  0  0  0  0  0  0
  161.8710  204.5330  148.0510 C   0  0  1  0  0  3  0  0  0  0  0  0
  161.0850  205.4580  144.4750 C   0  0  0  0  0  1  0  0  0  0  0  0
  160.9870  203.9620  149.1530 C   0  0  0  0  0  1  0  0  0  0  0  0
  161.3630  204.0920  146.7030 C   0  0  0  0  0  2  0  0  0  0  0  0
  161.2440  206.4550  146.7410 N   0  0  0  0  0  2  0  0  0  0  0  0
  161.8430  206.0760  148.0150 C   0  0  1  0  0  3  0  0  0  0  0  0
  2  5  1  6  0  0  0
  2 11  1  0  0  0  0
  3  6  1  0  0  0  0
  4  9  1  0  0  0  0
  4  7  2  0  0  0  0
  5 11  1  0  0  0  0
  7  6  1  0  0  0  0
  8  9  1  0  0  0  0
  9  3  2  0  0  0  0
 10  1  1  1  0  0  0
 10  4  1  0  0  0  0
 11 10  1  0  0  0  0
 11  8  1  1  0  0  0
 12 16  1  6  0  0  0
 12  2  1  0  0  0  0
 13 14  1  1  0  0  0
 13 12  1  0  0  0  0
 15 17  1  0  0  0  0
 15 18  1  0  0  0  0
 17 13  1  0  0  0  0
 18 16  1  0  0  0  0
 19 24  1  0  0  0  0
 21 19  1  0  0  0  0
 21 23  1  0  0  0  0
 22 20  1  0  0  0  0
 23  1  1  1  0  0  0
 23 22  1  0  0  0  0
 24 20  1  0  0  0  0
 26 25  1  6  0  0  0
 26 19  1  0  0  0  0
 27 26  1  0  0  0  0
 28 27  1  0  0  0  0
 29 31  1  6  0  0  0
 29 33  1  0  0  0  0
 29 34  1  0  0  0  0
 30 32  1  1  0  0  0
 33 30  1  0  0  0  0
 34 35  1  0  0  0  0
 35 30  1  0  0  0  0
 35 28  1  1  0  0  0
M  END
>  <MODEL>
2

>  <REMARK>
 VINA RESULT:      -7.8      1.769      2.717
  Name = 
  7 active torsions:
  status: ('A' for Active; 'I' for Inactive)
    1  A    between atoms: C_1  and  C_8
    2  A    between atoms: N_2  and  C_34
    3  A    between atoms: C_22  and  C_25
    4  A    between atoms: C_25  and  C_27
    5  A    between atoms: C_32  and  C_33
    6  A    between atoms: C_32  and  C_34
    7  A    between atoms: C_33  and  C_35
                            x       y       z     vdW  Elec       q    Type
                         _______ _______ _______ _____ _____    ______ ____

>  <TORSDO>
F 7

$$$$
=
 OpenBabel11072413063D

 35 40  0  0  1  0  0  0  0  0999 V2000
  161.0630  210.3420  152.9600 C   0  0  0  0  0  2  0  0  0  0  0  0
  161.0030  207.3740  151.9160 C   0  0  2  0  0  3  0  0  0  0  0  0
  160.1210  207.0070  156.3510 C   0  0  0  0  0  3  0  0  0  0  0  0
  160.6720  208.7930  155.1040 C   0  0  0  0  0  0  0  0  0  0  0  0
  162.3500  207.7930  152.2540 O   0  0  0  0  0  0  0  0  0  0  0  0
  159.6440  208.1340  156.9370 O   0  0  0  0  0  0  0  0  0  0  0  0
  159.9160  209.1860  156.1920 C   0  0  0  0  0  3  0  0  0  0  0  0
  161.3380  206.6720  154.2160 C   0  0  0  0  0  2  0  0  0  0  0  0
  160.7480  207.4100  155.3150 C   0  0  0  0  0  0  0  0  0  0  0  0
  160.6470  209.0660  153.6470 C   0  0  2  0  0  3  0  0  0  0  0  0
  161.3690  207.8320  153.2500 C   0  0  2  0  0  0  0  0  0  0  0  0
  161.3270  206.8580  150.4500 C   0  0  1  0  0  3  0  0  0  0  0  0
  160.4750  205.6810  150.1210 C   0  0  2  0  0  3  0  0  0  0  0  0
  160.6910  204.5870  150.9920 O   0  0  0  0  0  1  0  0  0  0  0  0
  160.6050  206.4420  147.7300 C   0  0  0  0  0  2  0  0  0  0  0  0
  161.6480  207.9110  149.5870 O   0  0  0  0  0  0  0  0  0  0  0  0
  160.7800  205.2620  148.6680 C   0  0  0  0  0  2  0  0  0  0  0  0
  161.4820  207.6000  148.1440 C   0  0  0  0  0  2  0  0  0  0  0  0
  159.0900  213.1720  151.6790 N   0  0  0  0  0  0  0  0  0  0  0  0
  158.7090  212.3950  154.0420 C   0  0  0  0  0  2  0  0  0  0  0  0
  159.9870  212.1170  151.3430 C   0  0  0  0  0  2  0  0  0  0  0  0
  158.6660  211.0810  153.3430 C   0  0  0  0  0  2  0  0  0  0  0  0
  159.8060  210.9240  152.3200 C   0  0  2  0  0  3  0  0  0  0  0  0
  158.8800  213.5690  153.1040 C   0  0  0  0  0  2  0  0  0  0  0  0
  157.0460  214.2790  151.2950 O   0  0  0  0  0  1  0  0  0  0  0  0
  158.0930  213.5970  150.6860 C   0  0  1  0  0  3  0  0  0  0  0  0
  158.7940  214.4530  149.5980 C   0  0  0  0  0  2  0  0  0  0  0  0
  158.5950  213.8860  148.1780 C   0  0  0  0  0  2  0  0  0  0  0  0
  161.8340  212.4820  147.3440 C   0  0  2  0  0  3  0  0  0  0  0  0
  159.9450  212.9790  146.1260 C   0  0  1  0  0  3  0  0  0  0  0  0
  163.3250  212.5780  147.7630 C   0  0  0  0  0  1  0  0  0  0  0  0
  159.2990  214.1810  145.4490 C   0  0  0  0  0  1  0  0  0  0  0  0
  161.4430  213.0550  145.9900 C   0  0  0  0  0  2  0  0  0  0  0  0
  160.9610  213.1020  148.3070 N   0  0  0  0  0  2  0  0  0  0  0  0
  159.6720  212.9430  147.6450 C   0  0  1  0  0  3  0  0  0  0  0  0
  2  5  1  6  0  0  0
  2 11  1  0  0  0  0
  3  6  1  0  0  0  0
  4  9  1  0  0  0  0
  4  7  2  0  0  0  0
  5 11  1  0  0  0  0
  7  6  1  0  0  0  0
  8  9  1  0  0  0  0
  9  3  2  0  0  0  0
 10  1  1  1  0  0  0
 10  4  1  0  0  0  0
 11 10  1  0  0  0  0
 11  8  1  1  0  0  0
 12 16  1  6  0  0  0
 12  2  1  0  0  0  0
 13 12  1  0  0  0  0
 13 14  1  1  0  0  0
 15 18  1  0  0  0  0
 15 17  1  0  0  0  0
 17 13  1  0  0  0  0
 18 16  1  0  0  0  0
 19 24  1  0  0  0  0
 21 19  1  0  0  0  0
 21 23  1  0  0  0  0
 22 20  1  0  0  0  0
 23  1  1  1  0  0  0
 23 22  1  0  0  0  0
 24 20  1  0  0  0  0
 26 25  1  1  0  0  0
 26 19  1  0  0  0  0
 27 26  1  0  0  0  0
 28 27  1  0  0  0  0
 29 31  1  1  0  0  0
 29 34  1  0  0  0  0
 30 32  1  1  0  0  0
 30 35  1  0  0  0  0
 33 30  1  0  0  0  0
 33 29  1  0  0  0  0
 35 28  1  1  0  0  0
 35 34  1  0  0  0  0
M  END
>  <MODEL>
3

>  <REMARK>
 VINA RESULT:      -7.5      3.036      7.186
  Name = 
  7 active torsions:
  status: ('A' for Active; 'I' for Inactive)
    1  A    between atoms: C_1  and  C_8
    2  A    between atoms: N_2  and  C_34
    3  A    between atoms: C_22  and  C_25
    4  A    between atoms: C_25  and  C_27
    5  A    between atoms: C_32  and  C_33
    6  A    between atoms: C_32  and  C_34
    7  A    between atoms: C_33  and  C_35
                            x       y       z     vdW  Elec       q    Type
                         _______ _______ _______ _____ _____    ______ ____

>  <TORSDO>
F 7

$$$$
=
 OpenBabel11072413063D

 35 40  0  0  1  0  0  0  0  0999 V2000
  161.1200  206.6450  153.3470 C   0  0  0  0  0  2  0  0  0  0  0  0
  161.6490  205.3760  150.5170 C   0  0  2  0  0  3  0  0  0  0  0  0
  162.1650  209.8330  149.8460 C   0  0  0  0  0  3  0  0  0  0  0  0
  161.5080  208.6860  151.6630 C   0  0  0  0  0  0  0  0  0  0  0  0
  160.2340  205.6090  150.7410 O   0  0  0  0  0  0  0  0  0  0  0  0
  162.4410  210.5540  150.9620 O   0  0  0  0  0  0  0  0  0  0  0  0
  162.1070  209.8730  152.0390 C   0  0  0  0  0  3  0  0  0  0  0  0
  161.1980  207.5660  149.5700 C   0  0  0  0  0  2  0  0  0  0  0  0
  161.5880  208.7750  150.2670 C   0  0  0  0  0  0  0  0  0  0  0  0
  161.6300  207.2650  152.0710 C   0  0  2  0  0  3  0  0  0  0  0  0
  161.1090  206.6990  150.8030 C   0  0  2  0  0  0  0  0  0  0  0  0
  161.5260  203.8480  150.1050 C   0  0  1  0  0  3  0  0  0  0  0  0
  160.6630  203.1220  151.0790 C   0  0  2  0  0  3  0  0  0  0  0  0
  161.1810  203.1450  152.3950 O   0  0  0  0  0  1  0  0  0  0  0  0
  160.0200  201.6250  149.1660 C   0  0  0  0  0  2  0  0  0  0  0  0
  161.5240  203.6820  148.7170 O   0  0  0  0  0  0  0  0  0  0  0  0
  160.5220  201.6630  150.5970 C   0  0  0  0  0  2  0  0  0  0  0  0
  160.9340  202.4030  148.2480 C   0  0  0  0  0  2  0  0  0  0  0  0
  161.5500  208.4550  156.5230 N   0  0  0  0  0  0  0  0  0  0  0  0
  159.6640  206.8040  156.3100 C   0  0  0  0  0  2  0  0  0  0  0  0
  161.9510  208.3640  155.1570 C   0  0  0  0  0  2  0  0  0  0  0  0
  159.4690  207.5610  155.0430 C   0  0  0  0  0  2  0  0  0  0  0  0
  160.7930  207.7980  154.2930 C   0  0  2  0  0  3  0  0  0  0  0  0
  160.7850  207.3460  157.1680 C   0  0  0  0  0  2  0  0  0  0  0  0
  162.3660  210.6650  156.4940 O   0  0  0  0  0  1  0  0  0  0  0  0
  161.5410  209.7740  157.1710 C   0  0  1  0  0  3  0  0  0  0  0  0
  160.0780  210.2850  157.2600 C   0  0  0  0  0  2  0  0  0  0  0  0
  159.8270  211.5250  156.3780 C   0  0  0  0  0  2  0  0  0  0  0  0
  159.2250  211.9870  152.8310 C   0  0  2  0  0  3  0  0  0  0  0  0
  157.8740  211.5130  154.6350 C   0  0  1  0  0  3  0  0  0  0  0  0
  159.7530  212.8050  151.6240 C   0  0  0  0  0  1  0  0  0  0  0  0
  157.1590  212.2520  155.7590 C   0  0  0  0  0  1  0  0  0  0  0  0
  157.8490  212.3410  153.3770 C   0  0  0  0  0  2  0  0  0  0  0  0
  160.1240  212.0390  153.9540 N   0  0  0  0  0  2  0  0  0  0  0  0
  159.3680  211.2790  154.9420 C   0  0  1  0  0  3  0  0  0  0  0  0
  2  5  1  1  0  0  0
  2 11  1  0  0  0  0
  3  9  2  0  0  0  0
  3  6  1  0  0  0  0
  4  7  2  0  0  0  0
  4 10  1  0  0  0  0
  5 11  1  0  0  0  0
  6  7  1  0  0  0  0
  8  9  1  0  0  0  0
  9  4  1  0  0  0  0
 10  1  1  1  0  0  0
 11  8  1  6  0  0  0
 11 10  1  0  0  0  0
 12 16  1  6  0  0  0
 12  2  1  0  0  0  0
 12 13  1  0  0  0  0
 13 14  1  1  0  0  0
 15 17  1  0  0  0  0
 17 13  1  0  0  0  0
 18 16  1  0  0  0  0
 18 15  1  0  0  0  0
 19 24  1  0  0  0  0
 19 26  1  0  0  0  0
 20 24  1  0  0  0  0
 21 19  1  0  0  0  0
 22 20  1  0  0  0  0
 23  1  1  1  0  0  0
 23 22  1  0  0  0  0
 23 21  1  0  0  0  0
 26 25  1  6  0  0  0
 26 27  1  0  0  0  0
 28 27  1  0  0  0  0
 29 31  1  6  0  0  0
 29 33  1  0  0  0  0
 29 34  1  0  0  0  0
 30 35  1  0  0  0  0
 30 32  1  1  0  0  0
 33 30  1  0  0  0  0
 34 35  1  0  0  0  0
 35 28  1  1  0  0  0
M  END
>  <MODEL>
4

>  <REMARK>
 VINA RESULT:      -7.5      2.806      8.522
  Name = 
  7 active torsions:
  status: ('A' for Active; 'I' for Inactive)
    1  A    between atoms: C_1  and  C_8
    2  A    between atoms: N_2  and  C_34
    3  A    between atoms: C_22  and  C_25
    4  A    between atoms: C_25  and  C_27
    5  A    between atoms: C_32  and  C_33
    6  A    between atoms: C_32  and  C_34
    7  A    between atoms: C_33  and  C_35
                            x       y       z     vdW  Elec       q    Type
                         _______ _______ _______ _____ _____    ______ ____

>  <TORSDO>
F 7

$$$$
=
 OpenBabel11072413063D

 35 40  0  0  1  0  0  0  0  0999 V2000
  161.8610  210.1990  151.9170 C   0  0  0  0  0  2  0  0  0  0  0  0
  159.1390  211.6910  152.4280 C   0  0  2  0  0  3  0  0  0  0  0  0
  160.5120  213.2410  148.3900 C   0  0  0  0  0  3  0  0  0  0  0  0
  161.5230  211.8780  149.8640 C   0  0  0  0  0  0  0  0  0  0  0  0
  160.2540  212.3930  153.0360 O   0  0  0  0  0  0  0  0  0  0  0  0
  161.3950  212.4420  147.7390 O   0  0  0  0  0  0  0  0  0  0  0  0
  161.9600  211.6030  148.5820 C   0  0  0  0  0  3  0  0  0  0  0  0
  159.8510  213.3270  150.7790 C   0  0  0  0  0  2  0  0  0  0  0  0
  160.6290  212.9300  149.6230 C   0  0  0  0  0  0  0  0  0  0  0  0
  161.0340  211.0730  151.0090 C   0  0  2  0  0  3  0  0  0  0  0  0
  160.2770  212.1730  151.6560 C   0  0  2  0  0  0  0  0  0  0  0  0
  158.2270  211.6220  153.7250 C   0  0  1  0  0  3  0  0  0  0  0  0
  159.0460  211.2290  154.9070 C   0  0  2  0  0  3  0  0  0  0  0  0
  159.6410  209.9540  154.7630 O   0  0  0  0  0  1  0  0  0  0  0  0
  157.4410  212.5880  156.2830 C   0  0  0  0  0  2  0  0  0  0  0  0
  157.2190  212.5910  153.7040 O   0  0  0  0  0  0  0  0  0  0  0  0
  158.1290  211.2430  156.1480 C   0  0  0  0  0  2  0  0  0  0  0  0
  156.6540  212.9240  155.0370 C   0  0  0  0  0  2  0  0  0  0  0  0
  162.2040  206.5390  152.1100 N   0  0  0  0  0  0  0  0  0  0  0  0
  162.4640  207.6690  149.8760 C   0  0  0  0  0  2  0  0  0  0  0  0
  161.8150  207.7220  152.8040 C   0  0  0  0  0  2  0  0  0  0  0  0
  161.2080  208.3240  150.3360 C   0  0  0  0  0  2  0  0  0  0  0  0
  161.2930  208.7870  151.8030 C   0  0  2  0  0  3  0  0  0  0  0  0
  162.9840  206.6240  150.8380 C   0  0  0  0  0  2  0  0  0  0  0  0
  160.9990  205.3000  153.7100 O   0  0  0  0  0  1  0  0  0  0  0  0
  161.5180  205.2780  152.4200 C   0  0  1  0  0  3  0  0  0  0  0  0
  160.4200  205.0210  151.3540 C   0  0  0  0  0  2  0  0  0  0  0  0
  160.5090  203.6100  150.7390 C   0  0  0  0  0  2  0  0  0  0  0  0
  161.6470  203.9480  147.3110 C   0  0  2  0  0  3  0  0  0  0  0  0
  161.1410  202.1510  148.6590 C   0  0  1  0  0  3  0  0  0  0  0  0
  161.5090  204.8970  146.0920 C   0  0  0  0  0  1  0  0  0  0  0  0
  159.9180  201.3650  149.1130 C   0  0  0  0  0  1  0  0  0  0  0  0
  160.9700  202.5880  147.2270 C   0  0  0  0  0  2  0  0  0  0  0  0
  161.1700  204.5560  148.5260 N   0  0  0  0  0  2  0  0  0  0  0  0
  161.3360  203.4530  149.4640 C   0  0  1  0  0  3  0  0  0  0  0  0
  2  5  1  1  0  0  0
  2 12  1  0  0  0  0
  3  9  2  0  0  0  0
  4 10  1  0  0  0  0
  6  3  1  0  0  0  0
  6  7  1  0  0  0  0
  7  4  2  0  0  0  0
  9  4  1  0  0  0  0
  9  8  1  0  0  0  0
 10 11  1  0  0  0  0
 10  1  1  1  0  0  0
 11  8  1  6  0  0  0
 11  2  1  0  0  0  0
 11  5  1  0  0  0  0
 12 16  1  1  0  0  0
 12 13  1  0  0  0  0
 13 14  1  6  0  0  0
 13 17  1  0  0  0  0
 16 18  1  0  0  0  0
 17 15  1  0  0  0  0
 18 15  1  0  0  0  0
 19 26  1  0  0  0  0
 19 21  1  0  0  0  0
 20 22  1  0  0  0  0
 20 24  1  0  0  0  0
 22 23  1  0  0  0  0
 23  1  1  6  0  0  0
 23 21  1  0  0  0  0
 24 19  1  0  0  0  0
 26 25  1  1  0  0  0
 27 26  1  0  0  0  0
 28 27  1  0  0  0  0
 29 31  1  6  0  0  0
 29 34  1  0  0  0  0
 30 32  1  1  0  0  0
 30 35  1  0  0  0  0
 33 29  1  0  0  0  0
 33 30  1  0  0  0  0
 34 35  1  0  0  0  0
 35 28  1  1  0  0  0
M  END
>  <MODEL>
5

>  <REMARK>
 VINA RESULT:      -7.5      1.679      3.951
  Name = 
  7 active torsions:
  status: ('A' for Active; 'I' for Inactive)
    1  A    between atoms: C_1  and  C_8
    2  A    between atoms: N_2  and  C_34
    3  A    between atoms: C_22  and  C_25
    4  A    between atoms: C_25  and  C_27
    5  A    between atoms: C_32  and  C_33
    6  A    between atoms: C_32  and  C_34
    7  A    between atoms: C_33  and  C_35
                            x       y       z     vdW  Elec       q    Type
                         _______ _______ _______ _____ _____    ______ ____

>  <TORSDO>
F 7

$$$$
=
 OpenBabel11072413063D

 35 40  0  0  1  0  0  0  0  0999 V2000
  161.7900  206.6730  152.6210 C   0  0  0  0  0  2  0  0  0  0  0  0
  161.7380  205.1850  149.8490 C   0  0  2  0  0  3  0  0  0  0  0  0
  161.9360  209.5810  148.7430 C   0  0  0  0  0  3  0  0  0  0  0  0
  161.7300  208.5750  150.7420 C   0  0  0  0  0  0  0  0  0  0  0  0
  160.3980  205.4100  150.3590 O   0  0  0  0  0  0  0  0  0  0  0  0
  162.4210  210.3960  149.7130 O   0  0  0  0  0  0  0  0  0  0  0  0
  162.3540  209.8000  150.8860 C   0  0  0  0  0  3  0  0  0  0  0  0
  161.0140  207.2810  148.8590 C   0  0  0  0  0  2  0  0  0  0  0  0
  161.5030  208.5510  149.3600 C   0  0  0  0  0  0  0  0  0  0  0  0
  161.9890  207.1950  151.2210 C   0  0  2  0  0  3  0  0  0  0  0  0
  161.2260  206.5170  150.1440 C   0  0  2  0  0  0  0  0  0  0  0  0
  161.5840  203.6260  149.5910 C   0  0  1  0  0  3  0  0  0  0  0  0
  160.8310  202.9940  150.7110 C   0  0  2  0  0  3  0  0  0  0  0  0
  161.4830  203.1350  151.9590 O   0  0  0  0  0  1  0  0  0  0  0  0
  160.0030  201.3320  149.0180 C   0  0  0  0  0  2  0  0  0  0  0  0
  161.4380  203.3360  148.2310 O   0  0  0  0  0  0  0  0  0  0  0  0
  160.6510  201.4980  150.3800 C   0  0  0  0  0  2  0  0  0  0  0  0
  160.8110  202.0210  147.9440 C   0  0  0  0  0  2  0  0  0  0  0  0
  161.4090  209.3430  155.1260 N   0  0  0  0  0  0  0  0  0  0  0  0
  160.8170  206.9820  155.7650 C   0  0  0  0  0  2  0  0  0  0  0  0
  161.6490  209.0440  153.7520 C   0  0  0  0  0  2  0  0  0  0  0  0
  160.0950  207.0710  154.4670 C   0  0  0  0  0  2  0  0  0  0  0  0
  160.9540  207.7130  153.3610 C   0  0  2  0  0  3  0  0  0  0  0  0
  161.4970  208.2730  156.1640 C   0  0  0  0  0  2  0  0  0  0  0  0
  161.4650  211.3690  156.3260 O   0  0  0  0  0  1  0  0  0  0  0  0
  160.7030  210.5850  155.4670 C   0  0  1  0  0  3  0  0  0  0  0  0
  160.3370  211.3370  154.1590 C   0  0  0  0  0  2  0  0  0  0  0  0
  159.4820  212.5940  154.4160 C   0  0  0  0  0  2  0  0  0  0  0  0
  156.1670  211.4140  155.2970 C   0  0  2  0  0  3  0  0  0  0  0  0
  157.0930  213.5000  154.9870 C   0  0  1  0  0  3  0  0  0  0  0  0
  155.2060  210.2280  155.0230 C   0  0  0  0  0  1  0  0  0  0  0  0
  157.4200  214.4520  153.8440 C   0  0  0  0  0  1  0  0  0  0  0  0
  155.8110  212.7650  154.6950 C   0  0  0  0  0  2  0  0  0  0  0  0
  157.5120  211.1300  154.8710 N   0  0  0  0  0  2  0  0  0  0  0  0
  158.1630  212.4010  155.1630 C   0  0  1  0  0  3  0  0  0  0  0  0
  2 11  1  0  0  0  0
  2  5  1  1  0  0  0
  3  9  2  0  0  0  0
  3  6  1  0  0  0  0
  4  7  2  0  0  0  0
  4 10  1  0  0  0  0
  6  7  1  0  0  0  0
  8  9  1  0  0  0  0
  9  4  1  0  0  0  0
 10  1  1  1  0  0  0
 11  8  1  6  0  0  0
 11  5  1  0  0  0  0
 11 10  1  0  0  0  0
 12 16  1  6  0  0  0
 12  2  1  0  0  0  0
 12 13  1  0  0  0  0
 13 14  1  1  0  0  0
 15 17  1  0  0  0  0
 17 13  1  0  0  0  0
 18 16  1  0  0  0  0
 18 15  1  0  0  0  0
 19 26  1  0  0  0  0
 19 24  1  0  0  0  0
 20 24  1  0  0  0  0
 21 19  1  0  0  0  0
 22 20  1  0  0  0  0
 23  1  1  1  0  0  0
 23 21  1  0  0  0  0
 23 22  1  0  0  0  0
 26 25  1  1  0  0  0
 27 28  1  0  0  0  0
 27 26  1  0  0  0  0
 29 31  1  6  0  0  0
 30 32  1  6  0  0  0
 30 35  1  0  0  0  0
 33 30  1  0  0  0  0
 33 29  1  0  0  0  0
 34 35  1  0  0  0  0
 34 29  1  0  0  0  0
 35 28  1  6  0  0  0
M  END
>  <MODEL>
6

>  <REMARK>
 VINA RESULT:      -7.3      2.811      9.067
  Name = 
  7 active torsions:
  status: ('A' for Active; 'I' for Inactive)
    1  A    between atoms: C_1  and  C_8
    2  A    between atoms: N_2  and  C_34
    3  A    between atoms: C_22  and  C_25
    4  A    between atoms: C_25  and  C_27
    5  A    between atoms: C_32  and  C_33
    6  A    between atoms: C_32  and  C_34
    7  A    between atoms: C_33  and  C_35
                            x       y       z     vdW  Elec       q    Type
                         _______ _______ _______ _____ _____    ______ ____

>  <TORSDO>
F 7

$$$$
=
 OpenBabel11072413063D

 35 40  0  0  1  0  0  0  0  0999 V2000
  162.3340  209.8860  148.4860 C   0  0  0  0  0  2  0  0  0  0  0  0
  161.7630  206.7940  148.6050 C   0  0  2  0  0  3  0  0  0  0  0  0
  160.8910  208.2460  152.8150 C   0  0  0  0  0  3  0  0  0  0  0  0
  161.7180  209.3280  151.0270 C   0  0  0  0  0  0  0  0  0  0  0  0
  163.1660  207.0860  148.8330 O   0  0  0  0  0  0  0  0  0  0  0  0
  160.6180  209.5700  152.9200 O   0  0  0  0  0  0  0  0  0  0  0  0
  161.0520  210.2130  151.8550 C   0  0  0  0  0  3  0  0  0  0  0  0
  162.0070  206.9520  151.0160 C   0  0  0  0  0  2  0  0  0  0  0  0
  161.5630  208.1300  151.7360 C   0  0  0  0  0  0  0  0  0  0  0  0
  161.7190  209.0410  149.5720 C   0  0  2  0  0  3  0  0  0  0  0  0
  162.2180  207.6490  149.6940 C   0  0  2  0  0  0  0  0  0  0  0  0
  161.9760  205.7260  147.4500 C   0  0  1  0  0  3  0  0  0  0  0  0
  161.1790  204.4990  147.7340 C   0  0  2  0  0  3  0  0  0  0  0  0
  161.5550  203.8680  148.9430 O   0  0  0  0  0  1  0  0  0  0  0  0
  161.0220  204.2070  145.2430 C   0  0  0  0  0  2  0  0  0  0  0  0
  162.1380  206.3350  146.2020 O   0  0  0  0  0  0  0  0  0  0  0  0
  161.3680  203.5250  146.5530 C   0  0  0  0  0  2  0  0  0  0  0  0
  161.8530  205.4530  145.0420 C   0  0  0  0  0  2  0  0  0  0  0  0
  160.8940  212.7980  146.7570 N   0  0  0  0  0  0  0  0  0  0  0  0
  163.2060  212.9840  147.7320 C   0  0  0  0  0  2  0  0  0  0  0  0
  160.6350  211.5020  147.2930 C   0  0  0  0  0  2  0  0  0  0  0  0
  162.4980  212.3850  148.8960 C   0  0  0  0  0  2  0  0  0  0  0  0
  161.5840  211.2150  148.4870 C   0  0  2  0  0  3  0  0  0  0  0  0
  162.2950  213.2760  146.5600 C   0  0  0  0  0  2  0  0  0  0  0  0
  159.4750  214.1750  145.4750 O   0  0  0  0  0  1  0  0  0  0  0  0
  159.8150  213.7970  146.7690 C   0  0  1  0  0  3  0  0  0  0  0  0
  158.6020  213.2240  147.5480 C   0  0  0  0  0  2  0  0  0  0  0  0
  158.1340  214.1540  148.6860 C   0  0  0  0  0  2  0  0  0  0  0  0
  157.2220  213.7050  152.1680 C   0  0  2  0  0  3  0  0  0  0  0  0
  159.1990  213.5420  150.9980 C   0  0  1  0  0  3  0  0  0  0  0  0
  156.2380  214.2620  153.2290 C   0  0  0  0  0  1  0  0  0  0  0  0
  160.3050  214.4530  150.4820 C   0  0  0  0  0  1  0  0  0  0  0  0
  158.6970  214.0440  152.3270 C   0  0  0  0  0  2  0  0  0  0  0  0
  156.8630  214.1070  150.8340 N   0  0  0  0  0  2  0  0  0  0  0  0
  157.9650  213.5330  150.0720 C   0  0  1  0  0  3  0  0  0  0  0  0
  2  5  1  6  0  0  0
  2 11  1  0  0  0  0
  3  6  1  0  0  0  0
  4  9  1  0  0  0  0
  4  7  2  0  0  0  0
  5 11  1  0  0  0  0
  7  6  1  0  0  0  0
  8  9  1  0  0  0  0
  9  3  2  0  0  0  0
 10  1  1  6  0  0  0
 10 11  1  0  0  0  0
 10  4  1  0  0  0  0
 11  8  1  1  0  0  0
 12 16  1  6  0  0  0
 12 13  1  0  0  0  0
 12  2  1  0  0  0  0
 13 14  1  1  0  0  0
 15 17  1  0  0  0  0
 17 13  1  0  0  0  0
 18 15  1  0  0  0  0
 18 16  1  0  0  0  0
 19 26  1  0  0  0  0
 19 21  1  0  0  0  0
 20 22  1  0  0  0  0
 21 23  1  0  0  0  0
 23  1  1  6  0  0  0
 23 22  1  0  0  0  0
 24 19  1  0  0  0  0
 24 20  1  0  0  0  0
 26 25  1  6  0  0  0
 26 27  1  0  0  0  0
 27 28  1  0  0  0  0
 29 33  1  0  0  0  0
 29 31  1  1  0  0  0
 30 32  1  6  0  0  0
 30 33  1  0  0  0  0
 34 29  1  0  0  0  0
 35 28  1  6  0  0  0
 35 34  1  0  0  0  0
 35 30  1  0  0  0  0
M  END
>  <MODEL>
7

>  <REMARK>
 VINA RESULT:      -7.1      3.495      8.843
  Name = 
  7 active torsions:
  status: ('A' for Active; 'I' for Inactive)
    1  A    between atoms: C_1  and  C_8
    2  A    between atoms: N_2  and  C_34
    3  A    between atoms: C_22  and  C_25
    4  A    between atoms: C_25  and  C_27
    5  A    between atoms: C_32  and  C_33
    6  A    between atoms: C_32  and  C_34
    7  A    between atoms: C_33  and  C_35
                            x       y       z     vdW  Elec       q    Type
                         _______ _______ _______ _____ _____    ______ ____

>  <TORSDO>
F 7

$$$$
=
 OpenBabel11072413063D

 35 40  0  0  1  0  0  0  0  0999 V2000
  162.3300  210.0120  148.5470 C   0  0  0  0  0  2  0  0  0  0  0  0
  161.8390  206.9070  148.6850 C   0  0  2  0  0  3  0  0  0  0  0  0
  161.0330  208.3460  152.9130 C   0  0  0  0  0  3  0  0  0  0  0  0
  161.7890  209.4450  151.1040 C   0  0  0  0  0  0  0  0  0  0  0  0
  163.2390  207.2350  148.8790 O   0  0  0  0  0  0  0  0  0  0  0  0
  160.7300  209.6640  153.0220 O   0  0  0  0  0  0  0  0  0  0  0  0
  161.1220  210.3140  151.9460 C   0  0  0  0  0  3  0  0  0  0  0  0
  162.1370  207.0760  151.0900 C   0  0  0  0  0  2  0  0  0  0  0  0
  161.6820  208.2440  151.8180 C   0  0  0  0  0  0  0  0  0  0  0  0
  161.7630  209.1550  149.6500 C   0  0  2  0  0  3  0  0  0  0  0  0
  162.2990  207.7750  149.7610 C   0  0  2  0  0  0  0  0  0  0  0  0
  162.0510  205.8420  147.5280 C   0  0  1  0  0  3  0  0  0  0  0  0
  161.2260  204.6290  147.7900 C   0  0  2  0  0  3  0  0  0  0  0  0
  161.5700  203.9840  149.0010 O   0  0  0  0  0  1  0  0  0  0  0  0
  161.1040  204.3550  145.2950 C   0  0  0  0  0  2  0  0  0  0  0  0
  162.2440  206.4560  146.2860 O   0  0  0  0  0  0  0  0  0  0  0  0
  161.4160  203.6580  146.6060 C   0  0  0  0  0  2  0  0  0  0  0  0
  161.9610  205.5860  145.1160 C   0  0  0  0  0  2  0  0  0  0  0  0
  160.8390  212.7170  146.5470 N   0  0  0  0  0  0  0  0  0  0  0  0
  162.8050  213.2420  148.0270 C   0  0  0  0  0  2  0  0  0  0  0  0
  160.6930  211.3750  147.0040 C   0  0  0  0  0  2  0  0  0  0  0  0
  161.9670  212.4830  148.9950 C   0  0  0  0  0  2  0  0  0  0  0  0
  161.3830  211.1970  148.3820 C   0  0  2  0  0  3  0  0  0  0  0  0
  162.1450  213.4290  146.6790 C   0  0  0  0  0  2  0  0  0  0  0  0
  158.5550  212.7110  145.9700 O   0  0  0  0  0  1  0  0  0  0  0  0
  159.6300  213.5210  146.3150 C   0  0  1  0  0  3  0  0  0  0  0  0
  159.3380  214.3740  147.5790 C   0  0  0  0  0  2  0  0  0  0  0  0
  158.3360  213.6950  148.5350 C   0  0  0  0  0  2  0  0  0  0  0  0
  158.4450  213.7540  152.1600 C   0  0  2  0  0  3  0  0  0  0  0  0
  156.9070  214.4510  150.5930 C   0  0  1  0  0  3  0  0  0  0  0  0
  158.9840  212.9270  153.3550 C   0  0  0  0  0  1  0  0  0  0  0  0
  155.7820  213.8650  149.7500 C   0  0  0  0  0  1  0  0  0  0  0  0
  156.9390  213.7840  151.9440 C   0  0  0  0  0  2  0  0  0  0  0  0
  159.0180  213.3340  150.9080 N   0  0  0  0  0  2  0  0  0  0  0  0
  158.2990  214.1950  149.9780 C   0  0  1  0  0  3  0  0  0  0  0  0
  2  5  1  6  0  0  0
  2 11  1  0  0  0  0
  3  6  1  0  0  0  0
  4  9  1  0  0  0  0
  4  7  2  0  0  0  0
  5 11  1  0  0  0  0
  7  6  1  0  0  0  0
  8  9  1  0  0  0  0
  9  3  2  0  0  0  0
 10  1  1  6  0  0  0
 10 11  1  0  0  0  0
 10  4  1  0  0  0  0
 11  8  1  1  0  0  0
 12 16  1  6  0  0  0
 12 13  1  0  0  0  0
 12  2  1  0  0  0  0
 13 14  1  1  0  0  0
 15 17  1  0  0  0  0
 17 13  1  0  0  0  0
 18 15  1  0  0  0  0
 18 16  1  0  0  0  0
 19 24  1  0  0  0  0
 19 21  1  0  0  0  0
 20 22  1  0  0  0  0
 21 23  1  0  0  0  0
 23  1  1  6  0  0  0
 23 22  1  0  0  0  0
 24 20  1  0  0  0  0
 26 25  1  1  0  0  0
 26 19  1  0  0  0  0
 26 27  1  0  0  0  0
 27 28  1  0  0  0  0
 29 31  1  1  0  0  0
 30 32  1  6  0  0  0
 30 33  1  0  0  0  0
 33 29  1  0  0  0  0
 34 29  1  0  0  0  0
 35 28  1  6  0  0  0
 35 30  1  0  0  0  0
 35 34  1  0  0  0  0
M  END
>  <MODEL>
8

>  <REMARK>
 VINA RESULT:      -7.0      3.310      8.754
  Name = 
  7 active torsions:
  status: ('A' for Active; 'I' for Inactive)
    1  A    between atoms: C_1  and  C_8
    2  A    between atoms: N_2  and  C_34
    3  A    between atoms: C_22  and  C_25
    4  A    between atoms: C_25  and  C_27
    5  A    between atoms: C_32  and  C_33
    6  A    between atoms: C_32  and  C_34
    7  A    between atoms: C_33  and  C_35
                            x       y       z     vdW  Elec       q    Type
                         _______ _______ _______ _____ _____    ______ ____

>  <TORSDO>
F 7

$$$$
=
 OpenBabel11072413063D

 35 40  0  0  1  0  0  0  0  0999 V2000
  162.5720  210.7570  149.8500 C   0  0  0  0  0  2  0  0  0  0  0  0
  161.4720  207.8120  149.9910 C   0  0  2  0  0  3  0  0  0  0  0  0
  159.6640  209.8460  153.6220 C   0  0  0  0  0  3  0  0  0  0  0  0
  161.1510  210.5880  152.1080 C   0  0  0  0  0  0  0  0  0  0  0  0
  162.7750  207.9260  150.6200 O   0  0  0  0  0  0  0  0  0  0  0  0
  159.6030  211.2000  153.5500 O   0  0  0  0  0  0  0  0  0  0  0  0
  160.4330  211.6470  152.6310 C   0  0  0  0  0  3  0  0  0  0  0  0
  161.0210  208.2090  152.3440 C   0  0  0  0  0  2  0  0  0  0  0  0
  160.5930  209.5130  152.8120 C   0  0  0  0  0  0  0  0  0  0  0  0
  161.5300  210.1380  150.7470 C   0  0  2  0  0  3  0  0  0  0  0  0
  161.7270  208.7130  151.1080 C   0  0  2  0  0  0  0  0  0  0  0  0
  161.8300  206.6000  149.0310 C   0  0  1  0  0  3  0  0  0  0  0  0
  160.8870  205.4690  149.2610 C   0  0  2  0  0  3  0  0  0  0  0  0
  160.9420  204.9690  150.5830 O   0  0  0  0  0  1  0  0  0  0  0  0
  161.2320  204.8840  146.8420 C   0  0  0  0  0  2  0  0  0  0  0  0
  162.3040  207.0400  147.7910 O   0  0  0  0  0  0  0  0  0  0  0  0
  161.2340  204.3470  148.2610 C   0  0  0  0  0  2  0  0  0  0  0  0
  162.1930  206.0420  146.6970 C   0  0  0  0  0  2  0  0  0  0  0  0
  162.3650  213.0730  146.9970 N   0  0  0  0  0  0  0  0  0  0  0  0
  161.4610  213.8080  149.2270 C   0  0  0  0  0  2  0  0  0  0  0  0
  162.6480  211.7380  147.4090 C   0  0  0  0  0  2  0  0  0  0  0  0
  160.8310  212.4620  149.1400 C   0  0  0  0  0  2  0  0  0  0  0  0
  161.8230  211.3790  148.6740 C   0  0  2  0  0  3  0  0  0  0  0  0
  162.2650  214.1750  148.0000 C   0  0  0  0  0  2  0  0  0  0  0  0
  161.0240  214.4530  145.6380 O   0  0  0  0  0  1  0  0  0  0  0  0
  161.7930  213.2950  145.6620 C   0  0  1  0  0  3  0  0  0  0  0  0
  162.9400  213.3320  144.6170 C   0  0  0  0  0  2  0  0  0  0  0  0
  162.4200  213.4470  143.1690 C   0  0  0  0  0  2  0  0  0  0  0  0
  161.8030  211.0050  140.5590 C   0  0  2  0  0  3  0  0  0  0  0  0
  160.5310  211.8740  142.2700 C   0  0  1  0  0  3  0  0  0  0  0  0
  162.1940  210.6970  139.0900 C   0  0  0  0  0  1  0  0  0  0  0  0
  159.6760  213.1030  142.5550 C   0  0  0  0  0  1  0  0  0  0  0  0
  160.3770  211.4630  140.8290 C   0  0  0  0  0  2  0  0  0  0  0  0
  162.6600  211.9990  141.1500 N   0  0  0  0  0  2  0  0  0  0  0  0
  162.0370  212.1490  142.4600 C   0  0  1  0  0  3  0  0  0  0  0  0
  2  5  1  6  0  0  0
  2 11  1  0  0  0  0
  4  7  2  0  0  0  0
  4  9  1  0  0  0  0
  5 11  1  0  0  0  0
  6  3  1  0  0  0  0
  7  6  1  0  0  0  0
  8  9  1  0  0  0  0
  9  3  2  0  0  0  0
 10  1  1  1  0  0  0
 10 11  1  0  0  0  0
 10  4  1  0  0  0  0
 11  8  1  1  0  0  0
 12 16  1  6  0  0  0
 12 13  1  0  0  0  0
 12  2  1  0  0  0  0
 13 14  1  1  0  0  0
 15 17  1  0  0  0  0
 17 13  1  0  0  0  0
 18 15  1  0  0  0  0
 18 16  1  0  0  0  0
 19 21  1  0  0  0  0
 19 24  1  0  0  0  0
 21 23  1  0  0  0  0
 22 20  1  0  0  0  0
 23 22  1  0  0  0  0
 23  1  1  1  0  0  0
 24 20  1  0  0  0  0
 26 25  1  1  0  0  0
 26 19  1  0  0  0  0
 27 26  1  0  0  0  0
 28 27  1  0  0  0  0
 29 31  1  6  0  0  0
 29 33  1  0  0  0  0
 29 34  1  0  0  0  0
 30 35  1  0  0  0  0
 30 32  1  6  0  0  0
 33 30  1  0  0  0  0
 34 35  1  0  0  0  0
 35 28  1  6  0  0  0
M  END
>  <MODEL>
9

>  <REMARK>
 VINA RESULT:      -7.0      4.749      7.986
  Name = 
  7 active torsions:
  status: ('A' for Active; 'I' for Inactive)
    1  A    between atoms: C_1  and  C_8
    2  A    between atoms: N_2  and  C_34
    3  A    between atoms: C_22  and  C_25
    4  A    between atoms: C_25  and  C_27
    5  A    between atoms: C_32  and  C_33
    6  A    between atoms: C_32  and  C_34
    7  A    between atoms: C_33  and  C_35
                            x       y       z     vdW  Elec       q    Type
                         _______ _______ _______ _____ _____    ______ ____

>  <TORSDO>
F 7

$$$$
