=
 OpenBabel11072410443D

 38 44  0  0  1  0  0  0  0  0999 V2000
  161.9320  210.0280  153.9720 C   0  0  2  0  0  3  0  0  0  0  0  0
  161.7250  208.9720  151.7060 C   0  0  0  0  0  3  0  0  0  0  0  0
  161.4540  207.8540  150.9130 C   0  0  0  0  0  0  0  0  0  0  0  0
  161.1610  207.6780  153.7090 C   0  0  0  0  0  0  0  0  0  0  0  0
  160.5570  210.2650  154.5430 C   0  0  1  0  0  0  0  0  0  0  0  0
  161.0550  206.6530  151.5070 C   0  0  0  0  0  3  0  0  0  0  0  0
  160.8540  208.5830  156.1790 C   0  0  0  0  0  3  0  0  0  0  0  0
  160.9660  207.5600  155.1480 N   0  0  0  0  0  2  0  0  0  0  0  0
  160.5250  205.3850  153.4480 F   0  0  0  0  0  0  0  0  0  0  0  0
  160.6840  209.8550  155.9220 N   0  0  0  0  0  0  0  0  0  0  0  0
  160.9180  206.5600  152.8960 C   0  0  0  0  0  0  0  0  0  0  0  0
  161.4050  211.4460  154.0240 C   0  0  2  0  0  3  0  0  0  0  0  0
  159.9680  211.6450  154.4290 C   0  0  1  0  0  3  0  0  0  0  0  0
  161.5790  208.8900  153.0920 C   0  0  0  0  0  0  0  0  0  0  0  0
  158.4120  210.6460  152.9370 O   0  0  0  0  0  0  0  0  0  0  0  0
  159.0480  211.6880  153.2470 C   0  0  0  0  0  0  0  0  0  0  0  0
  158.8820  212.8860  152.4830 N   0  0  0  0  0  2  0  0  0  0  0  0
  158.0110  212.9540  151.3220 C   0  0  0  0  0  2  0  0  0  0  0  0
  158.2650  213.6030  148.9830 N   0  0  0  0  0  0  0  0  0  0  0  0
  158.8060  213.3430  150.1270 C   0  0  0  0  0  0  0  0  0  0  0  0
  159.3350  213.9940  148.0780 C   0  0  1  0  0  3  0  0  0  0  0  0
  161.9180  214.2520  148.5780 C   0  0  0  0  0  1  0  0  0  0  0  0
  160.2120  213.5370  150.1660 N   0  0  0  0  0  0  0  0  0  0  0  0
  160.5250  213.9110  148.9730 C   0  0  0  0  0  0  0  0  0  0  0  0
  157.6760  212.5780  146.6120 C   0  0  0  0  0  1  0  0  0  0  0  0
  159.4760  212.7740  146.7330 S   0  0  0  0  0  0  0  0  0  0  0  0
  161.5810  207.9780  149.1330 S   0  0  0  0  0  0  0  0  0  0  0  0
  161.9070  203.9440  146.1480 N   0  0  0  0  0  0  0  0  0  0  0  0
  161.6800  205.6200  147.6500 C   0  0  0  0  0  0  0  0  0  0  0  0
  161.5780  204.2820  147.4710 C   0  0  2  0  0  3  0  0  0  0  0  0
  160.9400  203.9780  149.7610 C   0  0  0  0  0  0  0  0  0  0  0  0
  162.2310  205.1000  145.4110 N   0  0  0  0  0  0  0  0  0  0  0  0
  161.0450  205.3730  149.9550 C   0  0  0  0  0  3  0  0  0  0  0  0
  162.1050  206.2270  146.3610 C   0  0  0  0  0  3  0  0  0  0  0  0
  161.2070  203.4180  148.4990 C   0  0  0  0  0  3  0  0  0  0  0  0
  161.4180  206.2100  148.8890 C   0  0  0  0  0  0  0  0  0  0  0  0
  160.5170  203.1040  150.8870 C   0  0  0  0  0  2  0  0  0  0  0  0
  161.5810  202.9260  151.7710 O   0  0  0  0  0  1  0  0  0  0  0  0
  1 14  1  6  0  0  0
  1 12  1  0  0  0  0
  1  5  1  0  0  0  0
  2 14  1  0  0  0  0
  3  6  1  0  0  0  0
  3  2  2  0  0  0  0
  4  8  1  0  0  0  0
  5 10  1  1  0  0  0
  6 11  2  0  0  0  0
  8  7  1  0  0  0  0
 10  7  2  0  0  0  0
 11  9  1  0  0  0  0
 11  4  1  0  0  0  0
 12 13  1  0  0  0  0
 12  5  1  0  0  0  0
 13  5  1  0  0  0  0
 14  4  2  0  0  0  0
 15 16  2  0  0  0  0
 16 13  1  0  0  0  0
 17 16  1  0  0  0  0
 18 17  1  0  0  0  0
 19 20  2  0  0  0  0
 20 23  1  0  0  0  0
 20 18  1  0  0  0  0
 21 24  1  0  0  0  0
 21 19  1  0  0  0  0
 22 24  1  0  0  0  0
 24 23  2  0  0  0  0
 25 26  1  0  0  0  0
 26 21  1  0  0  0  0
 27  3  1  0  0  0  0
 28 30  1  0  0  0  0
 29 36  1  0  0  0  0
 30 29  1  0  0  0  0
 30 35  1  0  0  0  0
 31 33  1  0  0  0  0
 31 37  1  0  0  0  0
 32 28  2  0  0  0  0
 32 34  1  0  0  0  0
 34 29  2  0  0  0  0
 35 31  2  0  0  0  0
 36 27  1  0  0  0  0
 36 33  2  0  0  0  0
 37 38  1  0  0  0  0
M  END
>  <MODEL>
1

>  <REMARK>
 VINA RESULT:      -8.6      0.000      0.000
  Name = 
  7 active torsions:
  status: ('A' for Active; 'I' for Inactive)
    1  A    between atoms: C_4  and  C_21
    2  A    between atoms: C_4  and  N_34
    3  A    between atoms: S_8  and  C_23
    4  A    between atoms: C_9  and  S_35
    5  A    between atoms: C_16  and  C_31
    6  A    between atoms: C_17  and  C_19
    7  A    between atoms: S_35  and  C_38
                            x       y       z     vdW  Elec       q    Type
                         _______ _______ _______ _____ _____    ______ ____

>  <TORSDO>
F 7

$$$$
=
 OpenBabel11072410443D

 38 44  0  0  1  0  0  0  0  0999 V2000
  160.7890  213.7970  148.1870 C   0  0  2  0  0  3  0  0  0  0  0  0
  160.0010  214.0800  150.5520 C   0  0  0  0  0  3  0  0  0  0  0  0
  158.9600  214.1180  151.4830 C   0  0  0  0  0  0  0  0  0  0  0  0
  158.3960  213.4980  148.7940 C   0  0  0  0  0  0  0  0  0  0  0  0
  160.7280  212.3390  147.8080 C   0  0  1  0  0  0  0  0  0  0  0  0
  157.6460  213.8640  151.0770 C   0  0  0  0  0  3  0  0  0  0  0  0
  158.9290  212.7140  146.3200 C   0  0  0  0  0  3  0  0  0  0  0  0
  158.0710  213.1400  147.4200 N   0  0  0  0  0  2  0  0  0  0  0  0
  156.0800  213.3190  149.3730 F   0  0  0  0  0  0  0  0  0  0  0  0
  160.1780  212.3560  146.4740 N   0  0  0  0  0  0  0  0  0  0  0  0
  157.3620  213.5660  149.7400 C   0  0  0  0  0  0  0  0  0  0  0  0
  162.0860  213.0250  148.0740 C   0  0  2  0  0  3  0  0  0  0  0  0
  161.9980  211.5350  147.8720 C   0  0  1  0  0  3  0  0  0  0  0  0
  159.7270  213.7710  149.2180 C   0  0  0  0  0  0  0  0  0  0  0  0
  162.1590  211.4350  150.2410 O   0  0  0  0  0  0  0  0  0  0  0  0
  162.0370  210.7840  149.1690 C   0  0  0  0  0  0  0  0  0  0  0  0
  161.9320  209.3580  149.1990 N   0  0  0  0  0  2  0  0  0  0  0  0
  161.9840  208.6020  150.4400 C   0  0  0  0  0  2  0  0  0  0  0  0
  160.8800  206.5100  151.0430 N   0  0  0  0  0  0  0  0  0  0  0  0
  161.5540  207.2010  150.1840 C   0  0  0  0  0  0  0  0  0  0  0  0
  160.5980  205.2190  150.4330 C   0  0  1  0  0  3  0  0  0  0  0  0
  161.2110  204.3620  148.0080 C   0  0  0  0  0  1  0  0  0  0  0  0
  161.7810  206.5370  148.9490 N   0  0  0  0  0  0  0  0  0  0  0  0
  161.2310  205.3810  149.0910 C   0  0  0  0  0  0  0  0  0  0  0  0
  161.2040  204.7630  152.9490 C   0  0  0  0  0  1  0  0  0  0  0  0
  161.4400  203.9030  151.3690 S   0  0  0  0  0  0  0  0  0  0  0  0
  159.3210  214.4520  153.2020 S   0  0  0  0  0  0  0  0  0  0  0  0
  156.6540  210.7150  155.2560 N   0  0  0  0  0  0  0  0  0  0  0  0
  158.0240  212.2490  154.3120 C   0  0  0  0  0  0  0  0  0  0  0  0
  157.9020  210.9450  154.6540 C   0  0  0  0  0  0  0  0  0  0  0  0
  160.0760  210.4630  153.7670 C   0  0  0  0  0  0  0  0  0  0  0  0
  155.9160  211.9140  155.3290 N   0  0  0  0  0  2  0  0  0  0  0  0
  160.2090  211.8210  153.4060 C   0  0  0  0  0  3  0  0  0  0  0  0
  156.7740  212.9480  154.7100 C   0  0  0  0  0  3  0  0  0  0  0  0
  158.9060  210.0120  154.4050 C   0  0  0  0  0  3  0  0  0  0  0  0
  159.1730  212.7320  153.6820 C   0  0  0  0  0  0  0  0  0  0  0  0
  161.1890  209.5130  153.4980 C   0  0  0  0  0  2  0  0  0  0  0  0
  160.8670  208.2550  154.0040 O   0  0  0  0  0  1  0  0  0  0  0  0
  1 14  1  1  0  0  0
  2  3  1  0  0  0  0
  3 27  1  0  0  0  0
  4 14  1  0  0  0  0
  4 11  2  0  0  0  0
  5 10  1  6  0  0  0
  5 13  1  0  0  0  0
  5 12  1  0  0  0  0
  5  1  1  0  0  0  0
  6  3  2  0  0  0  0
  7 10  2  0  0  0  0
  7  8  1  0  0  0  0
  8  4  1  0  0  0  0
  9 11  1  0  0  0  0
 11  6  1  0  0  0  0
 12  1  1  0  0  0  0
 13 12  1  0  0  0  0
 13 16  1  0  0  0  0
 14  2  2  0  0  0  0
 16 17  1  0  0  0  0
 16 15  2  0  0  0  0
 17 18  1  0  0  0  0
 20 18  1  0  0  0  0
 20 19  2  0  0  0  0
 21 19  1  0  0  0  0
 21 26  1  0  0  0  0
 22 24  1  0  0  0  0
 23 24  2  0  0  0  0
 23 20  1  0  0  0  0
 24 21  1  0  0  0  0
 26 25  1  0  0  0  0
 27 36  1  0  0  0  0
 28 32  1  0  0  0  0
 29 30  1  0  0  0  0
 29 34  2  0  0  0  0
 30 28  2  0  0  0  0
 31 35  2  0  0  0  0
 33 36  2  0  0  0  0
 33 31  1  0  0  0  0
 34 32  1  0  0  0  0
 35 30  1  0  0  0  0
 36 29  1  0  0  0  0
 37 31  1  0  0  0  0
 37 38  1  0  0  0  0
M  END
>  <MODEL>
2

>  <REMARK>
 VINA RESULT:      -8.5      3.115      8.545
  Name = 
  7 active torsions:
  status: ('A' for Active; 'I' for Inactive)
    1  A    between atoms: C_4  and  C_21
    2  A    between atoms: C_4  and  N_34
    3  A    between atoms: S_8  and  C_23
    4  A    between atoms: C_9  and  S_35
    5  A    between atoms: C_16  and  C_31
    6  A    between atoms: C_17  and  C_19
    7  A    between atoms: S_35  and  C_38
                            x       y       z     vdW  Elec       q    Type
                         _______ _______ _______ _____ _____    ______ ____

>  <TORSDO>
F 7

$$$$
=
 OpenBabel11072410443D

 38 44  0  0  1  0  0  0  0  0999 V2000
  162.3320  209.6260  152.4890 C   0  0  2  0  0  3  0  0  0  0  0  0
  162.3350  210.9760  150.3740 C   0  0  0  0  0  3  0  0  0  0  0  0
  162.1630  211.0540  148.9900 C   0  0  0  0  0  0  0  0  0  0  0  0
  161.6650  208.6190  150.3150 C   0  0  0  0  0  0  0  0  0  0  0  0
  160.9100  209.3350  152.8980 C   0  0  1  0  0  0  0  0  0  0  0  0
  161.7610  209.9270  148.2670 C   0  0  0  0  0  3  0  0  0  0  0  0
  161.1390  207.0400  152.3760 C   0  0  0  0  0  3  0  0  0  0  0  0
  161.3650  207.3530  150.9710 N   0  0  0  0  0  2  0  0  0  0  0  0
  161.1290  207.6350  148.2000 F   0  0  0  0  0  0  0  0  0  0  0  0
  160.9460  207.9490  153.2980 N   0  0  0  0  0  0  0  0  0  0  0  0
  161.5230  208.7130  148.9220 C   0  0  0  0  0  0  0  0  0  0  0  0
  161.7550  210.3690  153.6750 C   0  0  2  0  0  3  0  0  0  0  0  0
  160.2850  210.2000  153.9590 C   0  0  1  0  0  3  0  0  0  0  0  0
  162.0860  209.7710  151.0360 C   0  0  0  0  0  0  0  0  0  0  0  0
  158.5490  210.9090  152.4990 O   0  0  0  0  0  0  0  0  0  0  0  0
  159.4560  211.2610  153.2990 C   0  0  0  0  0  0  0  0  0  0  0  0
  159.6780  212.6470  153.5720 N   0  0  0  0  0  2  0  0  0  0  0  0
  158.9020  213.6990  152.9350 C   0  0  0  0  0  2  0  0  0  0  0  0
  157.6180  214.1070  154.9700 N   0  0  0  0  0  0  0  0  0  0  0  0
  157.6400  213.9120  153.6930 C   0  0  0  0  0  0  0  0  0  0  0  0
  156.2300  214.3270  155.3490 C   0  0  1  0  0  3  0  0  0  0  0  0
  154.0850  214.4260  153.8050 C   0  0  0  0  0  1  0  0  0  0  0  0
  156.3690  213.9980  153.0660 N   0  0  0  0  0  0  0  0  0  0  0  0
  155.5440  214.2340  154.0270 C   0  0  0  0  0  0  0  0  0  0  0  0
  157.3740  212.4790  156.8260 C   0  0  0  0  0  1  0  0  0  0  0  0
  155.6730  212.9800  156.4410 S   0  0  0  0  0  0  0  0  0  0  0  0
  162.4200  212.6140  148.1530 S   0  0  0  0  0  0  0  0  0  0  0  0
  158.6350  212.6960  144.8420 N   0  0  0  0  0  0  0  0  0  0  0  0
  160.1870  212.7230  146.4880 C   0  0  0  0  0  0  0  0  0  0  0  0
  158.8690  212.8650  146.2170 C   0  0  2  0  0  3  0  0  0  0  0  0
  158.3870  213.2420  148.5350 C   0  0  0  0  0  0  0  0  0  0  0  0
  159.8440  212.4400  144.1660 N   0  0  0  0  0  0  0  0  0  0  0  0
  159.7610  213.0930  148.8240 C   0  0  0  0  0  3  0  0  0  0  0  0
  160.8920  212.4380  145.2100 C   0  0  0  0  0  3  0  0  0  0  0  0
  157.9280  213.1300  147.2100 C   0  0  0  0  0  3  0  0  0  0  0  0
  160.6780  212.8320  147.7910 C   0  0  0  0  0  0  0  0  0  0  0  0
  157.4290  213.5470  149.6300 C   0  0  0  0  0  2  0  0  0  0  0  0
  156.1680  213.8080  149.0940 O   0  0  0  0  0  1  0  0  0  0  0  0
  1 14  1  6  0  0  0
  1  5  1  0  0  0  0
  1 12  1  0  0  0  0
  2 14  1  0  0  0  0
  3  2  2  0  0  0  0
  4  8  1  0  0  0  0
  4 14  2  0  0  0  0
  5 10  1  1  0  0  0
  5 12  1  0  0  0  0
  5 13  1  0  0  0  0
  6 11  2  0  0  0  0
  6  3  1  0  0  0  0
  7 10  2  0  0  0  0
  8  7  1  0  0  0  0
  9 11  1  0  0  0  0
 11  4  1  0  0  0  0
 12 13  1  0  0  0  0
 15 16  2  0  0  0  0
 16 17  1  0  0  0  0
 16 13  1  0  0  0  0
 18 17  1  0  0  0  0
 18 20  1  0  0  0  0
 19 21  1  0  0  0  0
 20 19  2  0  0  0  0
 21 26  1  0  0  0  0
 22 24  1  0  0  0  0
 23 20  1  0  0  0  0
 23 24  2  0  0  0  0
 24 21  1  0  0  0  0
 26 25  1  0  0  0  0
 27  3  1  0  0  0  0
 28 30  1  0  0  0  0
 29 36  1  0  0  0  0
 30 29  1  0  0  0  0
 30 35  1  0  0  0  0
 31 33  1  0  0  0  0
 31 37  1  0  0  0  0
 32 28  2  0  0  0  0
 32 34  1  0  0  0  0
 34 29  2  0  0  0  0
 35 31  2  0  0  0  0
 36 27  1  0  0  0  0
 36 33  2  0  0  0  0
 38 37  1  0  0  0  0
M  END
>  <MODEL>
3

>  <REMARK>
 VINA RESULT:      -8.2      3.308      6.489
  Name = 
  7 active torsions:
  status: ('A' for Active; 'I' for Inactive)
    1  A    between atoms: C_4  and  C_21
    2  A    between atoms: C_4  and  N_34
    3  A    between atoms: S_8  and  C_23
    4  A    between atoms: C_9  and  S_35
    5  A    between atoms: C_16  and  C_31
    6  A    between atoms: C_17  and  C_19
    7  A    between atoms: S_35  and  C_38
                            x       y       z     vdW  Elec       q    Type
                         _______ _______ _______ _____ _____    ______ ____

>  <TORSDO>
F 7

$$$$
=
 OpenBabel11072410443D

 38 44  0  0  1  0  0  0  0  0999 V2000
  162.3010  209.6330  152.4440 C   0  0  2  0  0  3  0  0  0  0  0  0
  162.3880  211.0790  150.3950 C   0  0  0  0  0  3  0  0  0  0  0  0
  162.2630  211.2240  149.0120 C   0  0  0  0  0  0  0  0  0  0  0  0
  161.6950  208.7360  150.2040 C   0  0  0  0  0  0  0  0  0  0  0  0
  160.8640  209.3410  152.7920 C   0  0  1  0  0  0  0  0  0  0  0  0
  161.8730  210.1370  148.2240 C   0  0  0  0  0  3  0  0  0  0  0  0
  161.0860  207.0700  152.1710 C   0  0  0  0  0  3  0  0  0  0  0  0
  161.3610  207.4450  150.7890 N   0  0  0  0  0  2  0  0  0  0  0  0
  161.2190  207.8590  148.0290 F   0  0  0  0  0  0  0  0  0  0  0  0
  160.8720  207.9370  153.1270 N   0  0  0  0  0  0  0  0  0  0  0  0
  161.6000  208.8970  148.8130 C   0  0  0  0  0  0  0  0  0  0  0  0
  161.6930  210.3270  153.6440 C   0  0  2  0  0  3  0  0  0  0  0  0
  160.2140  210.1630  153.8710 C   0  0  1  0  0  3  0  0  0  0  0  0
  162.1050  209.8490  150.9910 C   0  0  0  0  0  0  0  0  0  0  0  0
  158.4950  210.9570  152.4350 O   0  0  0  0  0  0  0  0  0  0  0  0
  159.4180  211.2640  153.2360 C   0  0  0  0  0  0  0  0  0  0  0  0
  159.6900  212.6360  153.5310 N   0  0  0  0  0  2  0  0  0  0  0  0
  158.9470  213.7250  152.9170 C   0  0  0  0  0  2  0  0  0  0  0  0
  157.6040  214.0730  154.9250 N   0  0  0  0  0  0  0  0  0  0  0  0
  157.6650  213.9210  153.6430 C   0  0  0  0  0  0  0  0  0  0  0  0
  156.2070  214.2890  155.2680 C   0  0  1  0  0  3  0  0  0  0  0  0
  154.1110  214.4530  153.6650 C   0  0  0  0  0  1  0  0  0  0  0  0
  156.4130  214.0350  152.9810 N   0  0  0  0  0  0  0  0  0  0  0  0
  155.5600  214.2440  153.9240 C   0  0  0  0  0  0  0  0  0  0  0  0
  154.5150  213.9930  157.2580 C   0  0  0  0  0  1  0  0  0  0  0  0
  155.6090  212.9100  156.2980 S   0  0  0  0  0  0  0  0  0  0  0  0
  162.5650  212.8180  148.2570 S   0  0  0  0  0  0  0  0  0  0  0  0
  157.5630  213.3440  148.1860 N   0  0  0  0  0  0  0  0  0  0  0  0
  159.7990  213.0500  148.0000 C   0  0  0  0  0  0  0  0  0  0  0  0
  158.6310  213.0640  147.3170 C   0  0  0  0  0  0  0  0  0  0  0  0
  159.7730  212.5930  145.2630 C   0  0  0  0  0  0  0  0  0  0  0  0
  158.0340  213.5150  149.5040 N   0  0  0  0  0  2  0  0  0  0  0  0
  160.9950  212.5780  145.9700 C   0  0  0  0  0  3  0  0  0  0  0  0
  159.5020  213.3400  149.4280 C   0  0  0  0  0  3  0  0  0  0  0  0
  158.5660  212.8370  145.9440 C   0  0  0  0  0  3  0  0  0  0  0  0
  161.0150  212.8070  147.3570 C   0  0  0  0  0  0  0  0  0  0  0  0
  159.7600  212.3210  143.8010 C   0  0  0  0  0  2  0  0  0  0  0  0
  161.0670  212.2050  143.3320 O   0  0  0  0  0  1  0  0  0  0  0  0
  1 14  1  6  0  0  0
  1  5  1  0  0  0  0
  1 12  1  0  0  0  0
  2 14  1  0  0  0  0
  3  2  2  0  0  0  0
  4  8  1  0  0  0  0
  4 14  2  0  0  0  0
  5 10  1  1  0  0  0
  5 12  1  0  0  0  0
  5 13  1  0  0  0  0
  6 11  2  0  0  0  0
  6  3  1  0  0  0  0
  7 10  2  0  0  0  0
  8  7  1  0  0  0  0
  9 11  1  0  0  0  0
 11  4  1  0  0  0  0
 12 13  1  0  0  0  0
 15 16  2  0  0  0  0
 16 17  1  0  0  0  0
 16 13  1  0  0  0  0
 18 17  1  0  0  0  0
 18 20  1  0  0  0  0
 19 21  1  0  0  0  0
 20 19  2  0  0  0  0
 21 26  1  0  0  0  0
 22 24  1  0  0  0  0
 23 20  1  0  0  0  0
 23 24  2  0  0  0  0
 24 21  1  0  0  0  0
 26 25  1  0  0  0  0
 27  3  1  0  0  0  0
 28 32  1  0  0  0  0
 29 34  2  0  0  0  0
 30 29  1  0  0  0  0
 30 28  2  0  0  0  0
 31 35  2  0  0  0  0
 31 33  1  0  0  0  0
 33 36  2  0  0  0  0
 34 32  1  0  0  0  0
 35 30  1  0  0  0  0
 36 29  1  0  0  0  0
 36 27  1  0  0  0  0
 37 31  1  0  0  0  0
 38 37  1  0  0  0  0
M  END
>  <MODEL>
4

>  <REMARK>
 VINA RESULT:      -8.0      3.577      6.787
  Name = 
  7 active torsions:
  status: ('A' for Active; 'I' for Inactive)
    1  A    between atoms: C_4  and  C_21
    2  A    between atoms: C_4  and  N_34
    3  A    between atoms: S_8  and  C_23
    4  A    between atoms: C_9  and  S_35
    5  A    between atoms: C_16  and  C_31
    6  A    between atoms: C_17  and  C_19
    7  A    between atoms: S_35  and  C_38
                            x       y       z     vdW  Elec       q    Type
                         _______ _______ _______ _____ _____    ______ ____

>  <TORSDO>
F 7

$$$$
=
 OpenBabel11072410443D

 38 44  0  0  1  0  0  0  0  0999 V2000
  160.7150  213.8950  148.4090 C   0  0  2  0  0  3  0  0  0  0  0  0
  159.8850  214.1310  150.7640 C   0  0  0  0  0  3  0  0  0  0  0  0
  158.8280  214.1460  151.6780 C   0  0  0  0  0  0  0  0  0  0  0  0
  158.3140  213.5700  148.9690 C   0  0  0  0  0  0  0  0  0  0  0  0
  160.6700  212.4430  148.0030 C   0  0  1  0  0  0  0  0  0  0  0  0
  157.5230  213.8910  151.2460 C   0  0  0  0  0  3  0  0  0  0  0  0
  158.8930  212.8320  146.4920 C   0  0  0  0  0  3  0  0  0  0  0  0
  158.0150  213.2340  147.5840 N   0  0  0  0  0  2  0  0  0  0  0  0
  155.9900  213.3660  149.5060 F   0  0  0  0  0  0  0  0  0  0  0  0
  160.1420  212.4800  146.6600 N   0  0  0  0  0  0  0  0  0  0  0  0
  157.2640  213.6140  149.8990 C   0  0  0  0  0  0  0  0  0  0  0  0
  162.0190  213.1330  148.3050 C   0  0  2  0  0  3  0  0  0  0  0  0
  161.9440  211.6460  148.0750 C   0  0  1  0  0  3  0  0  0  0  0  0
  159.6350  213.8430  149.4210 C   0  0  0  0  0  0  0  0  0  0  0  0
  161.9220  211.5060  150.4470 O   0  0  0  0  0  0  0  0  0  0  0  0
  161.9660  210.8730  149.3590 C   0  0  0  0  0  0  0  0  0  0  0  0
  162.0290  209.4440  149.3590 N   0  0  0  0  0  2  0  0  0  0  0  0
  162.0690  208.6680  150.5880 C   0  0  0  0  0  2  0  0  0  0  0  0
  160.8920  206.6030  151.1400 N   0  0  0  0  0  0  0  0  0  0  0  0
  161.6170  207.2790  150.3120 C   0  0  0  0  0  0  0  0  0  0  0  0
  160.6050  205.3200  150.5160 C   0  0  1  0  0  3  0  0  0  0  0  0
  161.2980  204.4510  148.1160 C   0  0  0  0  0  1  0  0  0  0  0  0
  161.8790  206.6110  149.0860 N   0  0  0  0  0  0  0  0  0  0  0  0
  161.2960  205.4680  149.2020 C   0  0  0  0  0  0  0  0  0  0  0  0
  161.2810  204.9320  153.0260 C   0  0  0  0  0  1  0  0  0  0  0  0
  161.3760  203.9830  151.4820 S   0  0  0  0  0  0  0  0  0  0  0  0
  159.1580  214.4530  153.4090 S   0  0  0  0  0  0  0  0  0  0  0  0
  160.0180  209.6380  154.5800 N   0  0  0  0  0  0  0  0  0  0  0  0
  159.4110  211.7590  154.0790 C   0  0  0  0  0  0  0  0  0  0  0  0
  158.9560  210.5520  154.4880 C   0  0  0  0  0  0  0  0  0  0  0  0
  156.7160  211.3940  154.6290 C   0  0  0  0  0  0  0  0  0  0  0  0
  161.2310  210.2540  154.2090 N   0  0  0  0  0  0  0  0  0  0  0  0
  157.1850  212.6560  154.2040 C   0  0  0  0  0  3  0  0  0  0  0  0
  160.8810  211.6540  153.8810 C   0  0  0  0  0  3  0  0  0  0  0  0
  157.6120  210.3190  154.7730 C   0  0  0  0  0  3  0  0  0  0  0  0
  158.5500  212.8470  153.9220 C   0  0  1  0  0  3  0  0  0  0  0  0
  155.2670  211.1950  154.8970 C   0  0  0  0  0  2  0  0  0  0  0  0
  155.0690  209.9660  155.5260 O   0  0  0  0  0  1  0  0  0  0  0  0
  1 14  1  1  0  0  0
  2  3  1  0  0  0  0
  3 27  1  0  0  0  0
  4 14  1  0  0  0  0
  4 11  2  0  0  0  0
  5 10  1  6  0  0  0
  5 13  1  0  0  0  0
  5 12  1  0  0  0  0
  5  1  1  0  0  0  0
  6  3  2  0  0  0  0
  7 10  2  0  0  0  0
  7  8  1  0  0  0  0
  8  4  1  0  0  0  0
  9 11  1  0  0  0  0
 11  6  1  0  0  0  0
 12  1  1  0  0  0  0
 13 12  1  0  0  0  0
 13 16  1  0  0  0  0
 14  2  2  0  0  0  0
 16 15  2  0  0  0  0
 17 16  1  0  0  0  0
 17 18  1  0  0  0  0
 20 18  1  0  0  0  0
 20 19  2  0  0  0  0
 21 19  1  0  0  0  0
 21 26  1  0  0  0  0
 22 24  1  0  0  0  0
 23 24  2  0  0  0  0
 23 20  1  0  0  0  0
 24 21  1  0  0  0  0
 26 25  1  0  0  0  0
 27 36  1  0  0  0  0
 29 30  1  0  0  0  0
 30 28  1  0  0  0  0
 30 35  2  0  0  0  0
 31 35  1  0  0  0  0
 31 37  1  0  0  0  0
 32 28  2  0  0  0  0
 33 31  2  0  0  0  0
 34 29  2  0  0  0  0
 34 32  1  0  0  0  0
 36 29  1  0  0  0  0
 36 33  1  0  0  0  0
 37 38  1  0  0  0  0
M  END
>  <MODEL>
5

>  <REMARK>
 VINA RESULT:      -7.9      3.236      8.521
  Name = 
  7 active torsions:
  status: ('A' for Active; 'I' for Inactive)
    1  A    between atoms: C_4  and  C_21
    2  A    between atoms: C_4  and  N_34
    3  A    between atoms: S_8  and  C_23
    4  A    between atoms: C_9  and  S_35
    5  A    between atoms: C_16  and  C_31
    6  A    between atoms: C_17  and  C_19
    7  A    between atoms: S_35  and  C_38
                            x       y       z     vdW  Elec       q    Type
                         _______ _______ _______ _____ _____    ______ ____

>  <TORSDO>
F 7

$$$$
=
 OpenBabel11072410443D

 38 44  0  0  1  0  0  0  0  0999 V2000
  159.8130  208.2370  156.0120 C   0  0  2  0  0  3  0  0  0  0  0  0
  158.6290  210.2200  155.0310 C   0  0  0  0  0  3  0  0  0  0  0  0
  158.4930  211.6040  154.9020 C   0  0  0  0  0  0  0  0  0  0  0  0
  160.6120  210.5550  156.4320 C   0  0  0  0  0  0  0  0  0  0  0  0
  161.1430  208.0550  155.3250 C   0  0  1  0  0  0  0  0  0  0  0  0
  159.3940  212.4610  155.5410 C   0  0  0  0  0  3  0  0  0  0  0  0
  162.3290  208.7160  157.2610 C   0  0  0  0  0  3  0  0  0  0  0  0
  161.7400  210.0480  157.2020 N   0  0  0  0  0  2  0  0  0  0  0  0
  161.3060  212.7940  156.9150 F   0  0  0  0  0  0  0  0  0  0  0  0
  162.0500  207.7630  156.4090 N   0  0  0  0  0  0  0  0  0  0  0  0
  160.4420  211.9420  156.3090 C   0  0  0  0  0  0  0  0  0  0  0  0
  159.9720  207.0900  155.0380 C   0  0  2  0  0  3  0  0  0  0  0  0
  161.2410  207.0290  154.2300 C   0  0  1  0  0  3  0  0  0  0  0  0
  159.6800  209.6950  155.7860 C   0  0  0  0  0  0  0  0  0  0  0  0
  161.1090  208.9730  152.8690 O   0  0  0  0  0  0  0  0  0  0  0  0
  161.1020  207.7140  152.9030 C   0  0  0  0  0  0  0  0  0  0  0  0
  160.9690  206.9610  151.6940 N   0  0  0  0  0  2  0  0  0  0  0  0
  160.8150  207.5970  150.3960 C   0  0  0  0  0  2  0  0  0  0  0  0
  161.6440  206.9250  148.2010 N   0  0  0  0  0  0  0  0  0  0  0  0
  161.0880  206.6050  149.3230 C   0  0  0  0  0  0  0  0  0  0  0  0
  161.7960  205.7000  147.4290 C   0  0  1  0  0  3  0  0  0  0  0  0
  161.1800  203.2220  148.1140 C   0  0  0  0  0  1  0  0  0  0  0  0
  160.8320  205.2160  149.4720 N   0  0  0  0  0  0  0  0  0  0  0  0
  161.2380  204.6860  148.3700 C   0  0  0  0  0  0  0  0  0  0  0  0
  161.7720  204.5450  145.0690 C   0  0  0  0  0  1  0  0  0  0  0  0
  160.7720  205.7920  145.9270 S   0  0  0  0  0  0  0  0  0  0  0  0
  157.1840  212.2740  153.8830 S   0  0  0  0  0  0  0  0  0  0  0  0
  158.0050  214.0250  149.2400 N   0  0  0  0  0  0  0  0  0  0  0  0
  157.8300  213.1230  151.3070 C   0  0  0  0  0  0  0  0  0  0  0  0
  158.6270  213.2330  150.2190 C   0  0  2  0  0  3  0  0  0  0  0  0
  160.3170  211.8930  151.2650 C   0  0  0  0  0  0  0  0  0  0  0  0
  156.7390  214.4530  149.6850 N   0  0  0  0  0  0  0  0  0  0  0  0
  159.4900  211.7750  152.4040 C   0  0  0  0  0  3  0  0  0  0  0  0
  156.5850  213.8920  151.0460 C   0  0  0  0  0  3  0  0  0  0  0  0
  159.8820  212.6310  150.1490 C   0  0  0  0  0  3  0  0  0  0  0  0
  158.2280  212.3950  152.4300 C   0  0  0  0  0  0  0  0  0  0  0  0
  161.6370  211.2100  151.2350 C   0  0  0  0  0  2  0  0  0  0  0  0
  161.8660  210.6810  149.9660 O   0  0  0  0  0  1  0  0  0  0  0  0
  1 14  1  6  0  0  0
  2 14  1  0  0  0  0
  3  2  2  0  0  0  0
  3  6  1  0  0  0  0
  4  8  1  0  0  0  0
  5  1  1  0  0  0  0
  5 10  1  1  0  0  0
  6 11  2  0  0  0  0
  8  7  1  0  0  0  0
 10  7  2  0  0  0  0
 11  4  1  0  0  0  0
 11  9  1  0  0  0  0
 12  5  1  0  0  0  0
 12  1  1  0  0  0  0
 13 12  1  0  0  0  0
 13  5  1  0  0  0  0
 14  4  2  0  0  0  0
 15 16  2  0  0  0  0
 16 13  1  0  0  0  0
 17 16  1  0  0  0  0
 18 17  1  0  0  0  0
 19 20  2  0  0  0  0
 20 23  1  0  0  0  0
 20 18  1  0  0  0  0
 21 19  1  0  0  0  0
 21 24  1  0  0  0  0
 22 24  1  0  0  0  0
 24 23  2  0  0  0  0
 25 26  1  0  0  0  0
 26 21  1  0  0  0  0
 27  3  1  0  0  0  0
 28 32  2  0  0  0  0
 28 30  1  0  0  0  0
 29 36  1  0  0  0  0
 30 29  1  0  0  0  0
 31 33  1  0  0  0  0
 32 34  1  0  0  0  0
 33 36  2  0  0  0  0
 34 29  2  0  0  0  0
 35 30  1  0  0  0  0
 35 31  2  0  0  0  0
 36 27  1  0  0  0  0
 37 31  1  0  0  0  0
 38 37  1  0  0  0  0
M  END
>  <MODEL>
6

>  <REMARK>
 VINA RESULT:      -7.0      2.855      7.341
  Name = 
  7 active torsions:
  status: ('A' for Active; 'I' for Inactive)
    1  A    between atoms: C_4  and  C_21
    2  A    between atoms: C_4  and  N_34
    3  A    between atoms: S_8  and  C_23
    4  A    between atoms: C_9  and  S_35
    5  A    between atoms: C_16  and  C_31
    6  A    between atoms: C_17  and  C_19
    7  A    between atoms: S_35  and  C_38
                            x       y       z     vdW  Elec       q    Type
                         _______ _______ _______ _____ _____    ______ ____

>  <TORSDO>
F 7

$$$$
=
 OpenBabel11072410443D

 38 44  0  0  1  0  0  0  0  0999 V2000
  159.7110  207.8210  155.0840 C   0  0  2  0  0  3  0  0  0  0  0  0
  159.6350  209.9900  153.8260 C   0  0  0  0  0  3  0  0  0  0  0  0
  159.9920  211.3360  153.7150 C   0  0  0  0  0  0  0  0  0  0  0  0
  160.9860  209.8100  155.8630 C   0  0  0  0  0  0  0  0  0  0  0  0
  161.0710  207.1910  154.9180 C   0  0  1  0  0  0  0  0  0  0  0  0
  160.8240  211.9230  154.6730 C   0  0  0  0  0  3  0  0  0  0  0  0
  161.6300  207.6030  157.1790 C   0  0  0  0  0  3  0  0  0  0  0  0
  161.5460  209.0420  156.9670 N   0  0  0  0  0  2  0  0  0  0  0  0
  162.1200  211.7610  156.6600 F   0  0  0  0  0  0  0  0  0  0  0  0
  161.3920  206.7190  156.2440 N   0  0  0  0  0  0  0  0  0  0  0  0
  161.3110  211.1690  155.7460 C   0  0  0  0  0  0  0  0  0  0  0  0
  159.8420  206.6100  154.1850 C   0  0  2  0  0  3  0  0  0  0  0  0
  161.2300  206.1040  153.8910 C   0  0  1  0  0  3  0  0  0  0  0  0
  160.1280  209.2280  154.8870 C   0  0  0  0  0  0  0  0  0  0  0  0
  163.0200  206.5430  152.3910 O   0  0  0  0  0  0  0  0  0  0  0  0
  161.7940  206.6970  152.6340 C   0  0  0  0  0  0  0  0  0  0  0  0
  160.9630  207.4190  151.7210 N   0  0  0  0  0  2  0  0  0  0  0  0
  161.4850  208.0200  150.5050 C   0  0  0  0  0  2  0  0  0  0  0  0
  162.0050  207.2420  148.2500 N   0  0  0  0  0  0  0  0  0  0  0  0
  161.5320  206.9960  149.4270 C   0  0  0  0  0  0  0  0  0  0  0  0
  161.9370  206.0040  147.4890 C   0  0  1  0  0  3  0  0  0  0  0  0
  161.1110  203.6180  148.2750 C   0  0  0  0  0  1  0  0  0  0  0  0
  161.1340  205.6470  149.6260 N   0  0  0  0  0  0  0  0  0  0  0  0
  161.3630  205.0670  148.4980 C   0  0  0  0  0  0  0  0  0  0  0  0
  161.8430  205.2500  144.9730 C   0  0  0  0  0  1  0  0  0  0  0  0
  160.7830  206.2050  146.0940 S   0  0  0  0  0  0  0  0  0  0  0  0
  159.4120  212.2940  152.3200 S   0  0  0  0  0  0  0  0  0  0  0  0
  154.8700  214.4530  152.2250 N   0  0  0  0  0  0  0  0  0  0  0  0
  156.8920  213.4740  152.4930 C   0  0  0  0  0  0  0  0  0  0  0  0
  155.7700  213.8740  153.1350 C   0  0  2  0  0  3  0  0  0  0  0  0
  156.6250  213.0710  155.2250 C   0  0  0  0  0  0  0  0  0  0  0  0
  155.4140  214.4480  150.9250 N   0  0  0  0  0  0  0  0  0  0  0  0
  157.7970  212.6490  154.5610 C   0  0  0  0  0  3  0  0  0  0  0  0
  156.7400  213.8030  151.0510 C   0  0  0  0  0  3  0  0  0  0  0  0
  155.5910  213.6980  154.5050 C   0  0  0  0  0  3  0  0  0  0  0  0
  157.9390  212.8520  153.1770 C   0  0  0  0  0  0  0  0  0  0  0  0
  156.4970  212.8780  156.6940 C   0  0  0  0  0  2  0  0  0  0  0  0
  155.4240  212.0300  156.9660 O   0  0  0  0  0  1  0  0  0  0  0  0
  1 14  1  6  0  0  0
  2 14  1  0  0  0  0
  3  2  2  0  0  0  0
  3  6  1  0  0  0  0
  4  8  1  0  0  0  0
  5  1  1  0  0  0  0
  5 10  1  1  0  0  0
  6 11  2  0  0  0  0
  8  7  1  0  0  0  0
 10  7  2  0  0  0  0
 11  4  1  0  0  0  0
 11  9  1  0  0  0  0
 12  5  1  0  0  0  0
 12  1  1  0  0  0  0
 13 12  1  0  0  0  0
 13  5  1  0  0  0  0
 14  4  2  0  0  0  0
 15 16  2  0  0  0  0
 16 13  1  0  0  0  0
 17 16  1  0  0  0  0
 18 17  1  0  0  0  0
 19 20  2  0  0  0  0
 20 23  1  0  0  0  0
 20 18  1  0  0  0  0
 21 19  1  0  0  0  0
 21 24  1  0  0  0  0
 22 24  1  0  0  0  0
 24 23  2  0  0  0  0
 25 26  1  0  0  0  0
 26 21  1  0  0  0  0
 27 36  1  0  0  0  0
 27  3  1  0  0  0  0
 28 30  1  0  0  0  0
 29 30  1  0  0  0  0
 29 36  1  0  0  0  0
 30 35  1  0  0  0  0
 31 37  1  0  0  0  0
 32 34  1  0  0  0  0
 32 28  2  0  0  0  0
 33 31  1  0  0  0  0
 34 29  2  0  0  0  0
 35 31  2  0  0  0  0
 36 33  2  0  0  0  0
 37 38  1  0  0  0  0
M  END
>  <MODEL>
7

>  <REMARK>
 VINA RESULT:      -6.5      3.090      8.085
  Name = 
  7 active torsions:
  status: ('A' for Active; 'I' for Inactive)
    1  A    between atoms: C_4  and  C_21
    2  A    between atoms: C_4  and  N_34
    3  A    between atoms: S_8  and  C_23
    4  A    between atoms: C_9  and  S_35
    5  A    between atoms: C_16  and  C_31
    6  A    between atoms: C_17  and  C_19
    7  A    between atoms: S_35  and  C_38
                            x       y       z     vdW  Elec       q    Type
                         _______ _______ _______ _____ _____    ______ ____

>  <TORSDO>
F 7

$$$$
=
 OpenBabel11072410443D

 38 44  0  0  1  0  0  0  0  0999 V2000
  159.0960  211.8430  146.7710 C   0  0  2  0  0  3  0  0  0  0  0  0
  160.7030  211.1860  148.5820 C   0  0  0  0  0  3  0  0  0  0  0  0
  162.0000  211.1760  149.1030 C   0  0  0  0  0  0  0  0  0  0  0  0
  161.4760  212.5640  146.7080 C   0  0  0  0  0  0  0  0  0  0  0  0
  158.8010  213.3180  146.8730 C   0  0  1  0  0  0  0  0  0  0  0  0
  163.0310  211.8380  148.4310 C   0  0  0  0  0  3  0  0  0  0  0  0
  159.9920  213.7810  144.8830 C   0  0  0  0  0  3  0  0  0  0  0  0
  161.2360  213.3200  145.4870 N   0  0  0  0  0  2  0  0  0  0  0  0
  163.7920  213.1590  146.6050 F   0  0  0  0  0  0  0  0  0  0  0  0
  158.8390  213.7700  145.5020 N   0  0  0  0  0  0  0  0  0  0  0  0
  162.7760  212.5200  147.2360 C   0  0  0  0  0  0  0  0  0  0  0  0
  157.7440  212.2750  147.2960 C   0  0  2  0  0  3  0  0  0  0  0  0
  157.5310  213.7420  147.5590 C   0  0  1  0  0  3  0  0  0  0  0  0
  160.4390  211.8740  147.3960 C   0  0  0  0  0  0  0  0  0  0  0  0
  156.8940  214.4530  149.7350 O   0  0  0  0  0  0  0  0  0  0  0  0
  157.8420  214.1140  148.9770 C   0  0  0  0  0  0  0  0  0  0  0  0
  159.1830  214.0810  149.4720 N   0  0  0  0  0  2  0  0  0  0  0  0
  159.5170  214.4530  150.8370 C   0  0  0  0  0  2  0  0  0  0  0  0
  157.9340  213.1790  152.1890 N   0  0  0  0  0  0  0  0  0  0  0  0
  159.1400  213.3480  151.7580 C   0  0  0  0  0  0  0  0  0  0  0  0
  157.9340  211.9820  153.0160 C   0  0  1  0  0  3  0  0  0  0  0  0
  159.9310  210.3310  153.5430 C   0  0  0  0  0  1  0  0  0  0  0  0
  160.0550  212.3460  152.1770 N   0  0  0  0  0  0  0  0  0  0  0  0
  159.3590  211.5520  152.9140 C   0  0  0  0  0  0  0  0  0  0  0  0
  156.5200  210.9430  154.9730 C   0  0  0  0  0  1  0  0  0  0  0  0
  157.5360  212.4280  154.7370 S   0  0  0  0  0  0  0  0  0  0  0  0
  162.3240  210.3460  150.6540 S   0  0  0  0  0  0  0  0  0  0  0  0
  160.9240  205.5710  151.3810 N   0  0  0  0  0  0  0  0  0  0  0  0
  161.5750  207.6670  150.8350 C   0  0  0  0  0  0  0  0  0  0  0  0
  161.2540  206.4510  150.3370 C   0  0  0  0  0  0  0  0  0  0  0  0
  161.6070  207.2240  148.0960 C   0  0  0  0  0  0  0  0  0  0  0  0
  161.0380  206.2210  152.6260 N   0  0  0  0  0  2  0  0  0  0  0  0
  161.9410  208.4970  148.6090 C   0  0  0  0  0  3  0  0  0  0  0  0
  161.4540  207.6070  152.3150 C   0  0  0  0  0  3  0  0  0  0  0  0
  161.2590  206.1780  148.9710 C   0  0  0  0  0  3  0  0  0  0  0  0
  161.9290  208.7270  149.9960 C   0  0  0  0  0  0  0  0  0  0  0  0
  161.6510  206.9820  146.6290 C   0  0  0  0  0  2  0  0  0  0  0  0
  160.5550  206.2100  146.2460 O   0  0  0  0  0  1  0  0  0  0  0  0
  1  5  1  0  0  0  0
  1 12  1  0  0  0  0
  1 14  1  1  0  0  0
  2  3  1  0  0  0  0
  3 27  1  0  0  0  0
  4 11  2  0  0  0  0
  4 14  1  0  0  0  0
  5 10  1  6  0  0  0
  5 12  1  0  0  0  0
  5 13  1  0  0  0  0
  6  3  2  0  0  0  0
  7  8  1  0  0  0  0
  7 10  2  0  0  0  0
  8  4  1  0  0  0  0
  9 11  1  0  0  0  0
 11  6  1  0  0  0  0
 12 13  1  0  0  0  0
 13 16  1  0  0  0  0
 14  2  2  0  0  0  0
 16 17  1  0  0  0  0
 16 15  2  0  0  0  0
 17 18  1  0  0  0  0
 18 20  1  0  0  0  0
 19 21  1  0  0  0  0
 20 23  1  0  0  0  0
 20 19  2  0  0  0  0
 21 26  1  0  0  0  0
 23 24  2  0  0  0  0
 24 21  1  0  0  0  0
 24 22  1  0  0  0  0
 26 25  1  0  0  0  0
 28 32  1  0  0  0  0
 29 34  2  0  0  0  0
 30 29  1  0  0  0  0
 30 28  2  0  0  0  0
 31 33  1  0  0  0  0
 31 35  2  0  0  0  0
 33 36  2  0  0  0  0
 34 32  1  0  0  0  0
 35 30  1  0  0  0  0
 36 27  1  0  0  0  0
 36 29  1  0  0  0  0
 37 31  1  0  0  0  0
 38 37  1  0  0  0  0
M  END
>  <MODEL>
8

>  <REMARK>
 VINA RESULT:      -5.8      3.324      6.568
  Name = 
  7 active torsions:
  status: ('A' for Active; 'I' for Inactive)
    1  A    between atoms: C_4  and  C_21
    2  A    between atoms: C_4  and  N_34
    3  A    between atoms: S_8  and  C_23
    4  A    between atoms: C_9  and  S_35
    5  A    between atoms: C_16  and  C_31
    6  A    between atoms: C_17  and  C_19
    7  A    between atoms: S_35  and  C_38
                            x       y       z     vdW  Elec       q    Type
                         _______ _______ _______ _____ _____    ______ ____

>  <TORSDO>
F 7

$$$$
