=
 OpenBabel11072412493D

 52 58  0  0  1  0  0  0  0  0999 V2000
  162.4010  208.9790  149.3950 C   0  0  0  0  0  0  0  0  0  0  0  0
  160.6620  210.3420  151.7050 C   0  0  2  0  0  3  0  0  0  0  0  0
  160.4540  213.5110  146.4590 C   0  0  2  0  0  3  0  0  0  0  0  0
  160.6830  209.0230  151.1680 O   0  0  0  0  0  0  0  0  0  0  0  0
  160.4490  214.4510  147.6820 C   0  0  0  0  0  2  0  0  0  0  0  0
  160.7530  213.8260  150.1570 O   0  0  0  0  0  0  0  0  0  0  0  0
  163.3560  208.3790  148.8290 O   0  0  0  0  0  0  0  0  0  0  0  0
  161.1660  211.1720  149.2720 C   0  0  0  0  0  0  0  0  0  0  0  0
  161.1830  211.4570  150.7730 C   0  0  1  0  0  3  0  0  0  0  0  0
  161.8340  208.4450  150.6400 C   0  0  0  0  0  0  0  0  0  0  0  0
  160.8190  212.2820  148.3710 C   0  0  0  0  0  0  0  0  0  0  0  0
  161.8000  210.1320  148.7120 C   0  0  0  0  0  3  0  0  0  0  0  0
  160.6690  213.5040  148.8050 C   0  0  0  0  0  0  0  0  0  0  0  0
  160.5210  212.8210  151.1510 C   0  0  2  0  0  3  0  0  0  0  0  0
  162.3720  207.3850  151.2360 C   0  0  0  0  0  3  0  0  0  0  0  0
  160.7070  212.2150  146.9950 O   0  0  0  0  0  0  0  0  0  0  0  0
  161.3140  210.4000  153.0570 C   0  0  0  0  0  0  0  0  0  0  0  0
  160.5290  210.5870  154.2070 C   0  0  0  0  0  0  0  0  0  0  0  0
  162.7070  210.3060  153.1720 C   0  0  0  0  0  3  0  0  0  0  0  0
  162.5570  210.6410  155.5650 C   0  0  0  0  0  0  0  0  0  0  0  0
  163.3240  210.4220  154.4190 C   0  0  0  0  0  3  0  0  0  0  0  0
  161.1590  210.7090  155.4550 C   0  0  0  0  0  3  0  0  0  0  0  0
  164.4740  211.4200  156.9190 C   0  0  0  0  0  1  0  0  0  0  0  0
  163.2020  210.7970  156.7940 O   0  0  0  0  0  0  0  0  0  0  0  0
  159.1370  210.6610  154.0880 O   0  0  0  0  0  0  0  0  0  0  0  0
  158.2500  210.1860  155.0900 C   0  0  0  0  0  3  0  0  0  0  0  0
  156.8890  210.8190  154.8930 C   0  0  0  0  0  2  0  0  0  0  0  0
  157.8200  211.3450  155.9640 C   0  0  0  0  0  2  0  0  0  0  0  0
  161.7550  206.5650  153.7830 O   0  0  0  0  0  0  0  0  0  0  0  0
  160.9790  205.7970  153.0710 C   0  0  1  0  0  3  0  0  0  0  0  0
  161.7770  206.8300  152.4060 N   0  0  0  0  0  0  0  0  0  0  0  0
  161.6090  204.4920  152.9110 N   0  0  0  0  0  0  0  0  0  0  0  0
  162.9010  204.7080  152.2800 C   0  0  0  0  0  1  0  0  0  0  0  0
  161.0520  202.1400  151.8200 O   0  0  0  0  0  0  0  0  0  0  0  0
  160.6320  203.5840  151.7940 S   0  0  0  0  0  0  0  0  0  0  0  0
  159.1820  203.6720  152.1790 O   0  0  0  0  0  0  0  0  0  0  0  0
  160.7430  205.5180  148.4060 N   0  0  0  0  0  0  0  0  0  0  0  0
  160.8280  204.2040  150.1650 C   0  0  0  0  0  0  0  0  0  0  0  0
  161.4270  203.5630  149.1950 O   0  0  0  0  0  0  0  0  0  0  0  0
  160.3910  205.4270  149.7060 C   0  0  0  0  0  3  0  0  0  0  0  0
  161.9470  204.0050  146.8240 C   0  0  0  0  0  1  0  0  0  0  0  0
  161.3720  204.3530  148.1500 C   0  0  0  0  0  0  0  0  0  0  0  0
  159.0390  212.6900  151.3730 C   0  0  0  0  0  3  0  0  0  0  0  0
  158.3520  213.4300  152.2530 C   0  0  0  0  0  0  0  0  0  0  0  0
  156.8710  213.2020  152.3410 C   0  0  0  0  0  2  0  0  0  0  0  0
  155.0240  214.1460  151.2710 C   0  0  0  0  0  1  0  0  0  0  0  0
  156.1230  214.4390  152.1760 N   0  0  0  0  0  2  0  0  0  0  0  0
  159.0380  214.4500  153.1180 C   0  0  0  0  0  2  0  0  0  0  0  0
  158.5500  214.3630  154.5530 C   0  0  0  0  0  2  0  0  0  0  0  0
  159.6060  214.0320  155.4020 O   0  0  0  0  0  1  0  0  0  0  0  0
  161.5760  213.8900  145.5020 C   0  0  0  0  0  2  0  0  0  0  0  0
  161.2180  213.5020  144.0820 C   0  0  0  0  0  1  0  0  0  0  0  0
  1 10  1  0  0  0  0
  2 17  1  1  0  0  0
  3 51  1  6  0  0  0
  3 16  1  0  0  0  0
  3  5  1  0  0  0  0
  4  2  1  0  0  0  0
  5 13  1  0  0  0  0
  6 14  1  0  0  0  0
  7  1  2  0  0  0  0
  9  8  1  6  0  0  0
  9 14  1  0  0  0  0
  9  2  1  0  0  0  0
 10  4  1  0  0  0  0
 10 15  2  0  0  0  0
 11 13  2  0  0  0  0
 11  8  1  0  0  0  0
 12  8  2  0  0  0  0
 12  1  1  0  0  0  0
 13  6  1  0  0  0  0
 14 43  1  6  0  0  0
 15 31  1  0  0  0  0
 16 11  1  0  0  0  0
 17 19  2  0  0  0  0
 17 18  1  0  0  0  0
 18 22  2  0  0  0  0
 19 21  1  0  0  0  0
 20 24  1  0  0  0  0
 21 20  2  0  0  0  0
 22 20  1  0  0  0  0
 24 23  1  0  0  0  0
 25 18  1  0  0  0  0
 25 26  1  0  0  0  0
 26 28  1  0  0  0  0
 27 26  1  0  0  0  0
 27 28  1  0  0  0  0
 30 32  1  6  0  0  0
 30 29  1  0  0  0  0
 31 30  1  0  0  0  0
 31 29  1  0  0  0  0
 33 32  1  0  0  0  0
 35 34  2  0  0  0  0
 35 36  2  0  0  0  0
 35 32  1  0  0  0  0
 37 40  1  0  0  0  0
 38 35  1  0  0  0  0
 39 38  1  0  0  0  0
 40 38  2  0  0  0  0
 41 42  1  0  0  0  0
 42 37  2  0  0  0  0
 42 39  1  0  0  0  0
 43 44  2  0  0  0  0
 44 45  1  0  0  0  0
 44 48  1  0  0  0  0
 46 47  1  0  0  0  0
 47 45  1  0  0  0  0
 48 49  1  0  0  0  0
 49 50  1  0  0  0  0
 52 51  1  0  0  0  0
M  END
>  <MODEL>
1

>  <REMARK>
 VINA RESULT:      -1.4      0.000      0.000
  Name = 
  14 active torsions:
  status: ('A' for Active; 'I' for Inactive)
    1  A    between atoms: C_2  and  C_11
    2  A    between atoms: C_3  and  C_26
    3  A    between atoms: O_9  and  C_14
    4  A    between atoms: O_9  and  C_17
    5  A    between atoms: N_12  and  C_36
    6  A    between atoms: N_15  and  S_21
    7  A    between atoms: N_15  and  C_40
    8  A    between atoms: C_16  and  S_21
    9  A    between atoms: C_18  and  C_39
   10  A    between atoms: C_23  and  C_42
   11  A    between atoms: C_27  and  O_46
   12  A    between atoms: C_36  and  C_51
   13  A    between atoms: C_39  and  C_51
   14  A    between atoms: N_43  and  C_47
                            x       y       z     vdW  Elec       q    Type
                         _______ _______ _______ _____ _____    ______ ____

>  <TORSDO>
F 14

$$$$
