=
 OpenBabel11072410403D

 50 55  0  0  1  0  0  0  0  0999 V2000
  162.3350  209.5130  150.1010 N   0  0  0  0  0  0  0  0  0  0  0  0
  161.5230  205.9870  149.9680 C   0  0  1  0  0  3  0  0  0  0  0  0
  162.1430  206.1030  153.0310 C   0  0  0  0  0  3  0  0  0  0  0  0
  161.3910  206.6000  148.6290 C   0  0  0  0  0  0  0  0  0  0  0  0
  161.9140  207.1860  150.7860 C   0  0  1  0  0  3  0  0  0  0  0  0
  162.7310  206.7850  151.9150 N   0  0  0  0  0  2  0  0  0  0  0  0
  161.1920  205.1570  152.9430 C   0  0  0  0  0  3  0  0  0  0  0  0
  162.6190  208.1040  149.7890 C   0  0  1  0  0  3  0  0  0  0  0  0
  160.7120  205.9820  147.5350 N   0  0  0  0  0  2  0  0  0  0  0  0
  160.2590  205.4150  150.5600 C   0  0  0  0  0  2  0  0  0  0  0  0
  162.0130  207.7250  148.5170 N   0  0  0  0  0  0  0  0  0  0  0  0
  160.6670  204.4850  151.6980 C   0  0  0  0  0  2  0  0  0  0  0  0
  160.6070  206.6390  146.2410 C   0  0  0  0  0  2  0  0  0  0  0  0
  161.0400  205.7140  145.1600 C   0  0  0  0  0  0  0  0  0  0  0  0
  161.1260  206.1320  143.9720 O   0  0  0  0  0  0  0  0  0  0  0  0
  161.3920  204.4050  145.4830 O   0  0  0  0  0  0  0  0  0  0  0  0
  161.3050  202.1050  145.2630 O   0  0  0  0  0  0  0  0  0  0  0  0
  160.3670  202.3470  146.2860 C   0  0  2  0  0  3  0  0  0  0  0  0
  160.5600  203.2950  145.1500 C   0  0  1  0  0  3  0  0  0  0  0  0
  161.0920  202.7520  147.5670 C   0  0  0  0  0  2  0  0  0  0  0  0
  161.6840  201.9350  150.2530 O   0  0  0  0  0  1  0  0  0  0  0  0
  161.4640  200.0000  148.3000 O   0  0  0  0  0  0  0  0  0  0  0  0
  159.3880  201.3420  149.1520 O   0  0  0  0  0  1  0  0  0  0  0  0
  160.8620  201.4820  148.8470 P   0  0  0  0  0  0  0  0  0  0  0  0
  161.2470  209.6150  151.0750 C   0  0  0  0  0  2  0  0  0  0  0  0
  161.7210  210.3790  152.2990 C   0  0  0  0  0  2  0  0  0  0  0  0
  160.4850  211.2500  155.7350 C   0  0  0  0  0  2  0  0  0  0  0  0
  159.8850  209.8990  156.1430 C   0  0  0  0  0  2  0  0  0  0  0  0
  160.5190  211.4440  154.2110 C   0  0  1  0  0  3  0  0  0  0  0  0
  160.7820  210.1270  153.4640 C   0  0  2  0  0  3  0  0  0  0  0  0
  160.2990  208.7680  155.1860 C   0  0  0  0  0  2  0  0  0  0  0  0
  161.3420  209.1690  154.3300 O   0  0  0  0  0  0  0  0  0  0  0  0
  158.8940  213.4850  154.1540 C   0  0  0  0  0  1  0  0  0  0  0  0
  158.5310  211.5000  152.7920 C   0  0  0  0  0  2  0  0  0  0  0  0
  159.2680  212.1070  153.7160 C   0  0  0  0  0  0  0  0  0  0  0  0
  161.9600  210.2460  148.8830 C   0  0  0  0  0  2  0  0  0  0  0  0
  161.4910  214.3290  146.6910 F   0  0  0  0  0  0  0  0  0  0  0  0
  160.5830  212.3880  148.6920 C   0  0  0  0  0  2  0  0  0  0  0  0
  161.4430  212.9780  146.3830 C   0  0  2  0  0  0  0  0  0  0  0  0
  160.3140  212.3180  147.1890 C   0  0  0  0  0  2  0  0  0  0  0  0
  163.0600  212.4270  148.2420 C   0  0  0  0  0  2  0  0  0  0  0  0
  162.7880  212.3390  146.7400 C   0  0  0  0  0  2  0  0  0  0  0  0
  161.9380  211.7750  149.0530 C   0  0  2  0  0  3  0  0  0  0  0  0
  160.1150  213.7630  144.3550 C   0  0  0  0  0  2  0  0  0  0  0  0
  161.1910  212.8320  144.8760 C   0  0  1  0  0  3  0  0  0  0  0  0
  162.3780  213.0310  144.1460 O   0  0  0  0  0  0  0  0  0  0  0  0
  160.5520  214.0160  142.9540 C   0  0  0  0  0  2  0  0  0  0  0  0
  162.0490  213.8150  143.0240 C   0  0  2  0  0  3  0  0  0  0  0  0
  163.4220  214.0440  141.0660 O   0  0  0  0  0  1  0  0  0  0  0  0
  162.5730  213.1720  141.7480 C   0  0  0  0  0  2  0  0  0  0  0  0
  1 25  1  0  0  0  0
  2 10  1  1  0  0  0
  2  5  1  0  0  0  0
  4  2  1  0  0  0  0
  5  6  1  1  0  0  0
  6  3  1  0  0  0  0
  7  3  2  0  0  0  0
  8  1  1  1  0  0  0
  8  5  1  0  0  0  0
  9  4  1  0  0  0  0
 10 12  1  0  0  0  0
 11  4  2  0  0  0  0
 11  8  1  0  0  0  0
 12  7  1  0  0  0  0
 13  9  1  0  0  0  0
 14 16  1  0  0  0  0
 14 13  1  0  0  0  0
 15 14  2  0  0  0  0
 17 18  1  0  0  0  0
 18 20  1  1  0  0  0
 19 17  1  0  0  0  0
 19 16  1  1  0  0  0
 19 18  1  0  0  0  0
 20 24  1  0  0  0  0
 22 24  2  0  0  0  0
 24 23  1  0  0  0  0
 24 21  1  0  0  0  0
 25 26  1  0  0  0  0
 27 28  1  0  0  0  0
 29 35  1  6  0  0  0
 29 27  1  0  0  0  0
 30 26  1  6  0  0  0
 30 29  1  0  0  0  0
 30 32  1  0  0  0  0
 31 28  1  0  0  0  0
 32 31  1  0  0  0  0
 34 35  2  0  0  0  0
 35 33  1  0  0  0  0
 36  1  1  0  0  0  0
 38 43  1  0  0  0  0
 39 37  1  1  0  0  0
 39 42  1  0  0  0  0
 39 40  1  0  0  0  0
 40 38  1  0  0  0  0
 41 43  1  0  0  0  0
 42 41  1  0  0  0  0
 43 36  1  6  0  0  0
 45 44  1  6  0  0  0
 45 39  1  0  0  0  0
 46 45  1  0  0  0  0
 47 48  1  0  0  0  0
 47 44  1  0  0  0  0
 48 50  1  6  0  0  0
 48 46  1  0  0  0  0
 49 50  1  0  0  0  0
M  END
>  <MODEL>
1

>  <REMARK>
 VINA RESULT:      -6.8      0.000      0.000
  Name = 
  15 active torsions:
  status: ('A' for Active; 'I' for Inactive)
    1  A    between atoms: C_4  and  C_7
    2  A    between atoms: C_4  and  O_25
    3  A    between atoms: C_7  and  N_34
    4  A    between atoms: C_15  and  C_49
    5  A    between atoms: C_17  and  C_24
    6  A    between atoms: C_20  and  C_40
    7  A    between atoms: C_22  and  C_29
    8  A    between atoms: C_22  and  N_46
    9  A    between atoms: C_23  and  O_25
   10  A    between atoms: C_29  and  C_35
   11  A    between atoms: P_31  and  C_40
   12  A    between atoms: C_32  and  N_46
   13  A    between atoms: C_42  and  C_48
   14  A    between atoms: C_45  and  N_46
   15  A    between atoms: C_45  and  C_47
                            x       y       z     vdW  Elec       q    Type
                         _______ _______ _______ _____ _____    ______ ____

>  <TORSDO>
F 15

$$$$
=
 OpenBabel11072410403D

 50 55  0  0  1  0  0  0  0  0999 V2000
  160.8880  211.6450  151.6440 N   0  0  0  0  0  0  0  0  0  0  0  0
  161.8110  208.2270  152.4010 C   0  0  1  0  0  3  0  0  0  0  0  0
  161.0200  209.0450  155.3140 C   0  0  0  0  0  3  0  0  0  0  0  0
  161.9820  208.5020  150.9590 C   0  0  0  0  0  0  0  0  0  0  0  0
  161.2770  209.5490  152.8760 C   0  0  1  0  0  3  0  0  0  0  0  0
  161.6510  209.7810  154.2570 N   0  0  0  0  0  2  0  0  0  0  0  0
  160.6980  207.7410  155.2600 C   0  0  0  0  0  3  0  0  0  0  0  0
  161.8520  210.5610  151.8860 C   0  0  1  0  0  3  0  0  0  0  0  0
  162.1460  207.4870  149.9690 N   0  0  0  0  0  2  0  0  0  0  0  0
  160.8000  207.1650  152.7560 C   0  0  0  0  0  2  0  0  0  0  0  0
  162.0430  209.7610  150.6810 N   0  0  0  0  0  0  0  0  0  0  0  0
  161.0700  206.7390  154.1940 C   0  0  0  0  0  2  0  0  0  0  0  0
  162.3010  207.8180  148.5610 C   0  0  0  0  0  2  0  0  0  0  0  0
  161.5400  206.8560  147.7200 C   0  0  0  0  0  0  0  0  0  0  0  0
  160.4410  207.2020  147.2060 O   0  0  0  0  0  0  0  0  0  0  0  0
  162.0780  205.5940  147.4730 O   0  0  0  0  0  0  0  0  0  0  0  0
  162.5030  203.7160  146.1920 O   0  0  0  0  0  0  0  0  0  0  0  0
  161.3320  203.3520  146.8860 C   0  0  2  0  0  3  0  0  0  0  0  0
  161.5800  204.7520  146.4340 C   0  0  1  0  0  3  0  0  0  0  0  0
  161.6570  203.1030  148.3570 C   0  0  0  0  0  2  0  0  0  0  0  0
  159.1880  201.7300  148.8560 O   0  0  0  0  0  1  0  0  0  0  0  0
  161.3350  201.2350  150.5150 O   0  0  0  0  0  1  0  0  0  0  0  0
  161.2970  200.4260  148.0280 O   0  0  0  0  0  0  0  0  0  0  0  0
  160.8690  201.5660  148.9230 P   0  0  0  0  0  0  0  0  0  0  0  0
  159.6190  211.3660  152.3180 C   0  0  0  0  0  2  0  0  0  0  0  0
  158.9620  212.6670  152.7400 C   0  0  0  0  0  2  0  0  0  0  0  0
  158.2170  211.1440  156.0900 C   0  0  0  0  0  2  0  0  0  0  0  0
  156.6910  211.0430  155.9930 C   0  0  0  0  0  2  0  0  0  0  0  0
  158.7930  212.2560  155.1980 C   0  0  1  0  0  3  0  0  0  0  0  0
  158.0030  212.4160  153.8890 C   0  0  2  0  0  3  0  0  0  0  0  0
  156.1840  211.2830  154.5610 C   0  0  0  0  0  2  0  0  0  0  0  0
  157.2370  211.2640  153.6280 O   0  0  0  0  0  0  0  0  0  0  0  0
  157.6630  214.3270  156.3110 C   0  0  0  0  0  1  0  0  0  0  0  0
  160.0720  213.9850  156.3550 C   0  0  0  0  0  2  0  0  0  0  0  0
  158.8860  213.5580  155.9360 C   0  0  0  0  0  0  0  0  0  0  0  0
  160.6420  211.8050  150.2030 C   0  0  0  0  0  2  0  0  0  0  0  0
  161.0280  214.4530  146.3910 F   0  0  0  0  0  0  0  0  0  0  0  0
  159.7140  213.8170  148.9340 C   0  0  0  0  0  2  0  0  0  0  0  0
  160.7240  213.1390  146.7110 C   0  0  2  0  0  0  0  0  0  0  0  0
  159.4700  213.1140  147.5990 C   0  0  0  0  0  2  0  0  0  0  0  0
  162.1610  213.2390  148.7850 C   0  0  0  0  0  2  0  0  0  0  0  0
  161.9100  212.5220  147.4580 C   0  0  0  0  0  2  0  0  0  0  0  0
  160.9160  213.2230  149.6740 C   0  0  2  0  0  3  0  0  0  0  0  0
  159.1020  212.5910  144.8240 C   0  0  0  0  0  2  0  0  0  0  0  0
  160.4810  212.3650  145.4080 C   0  0  1  0  0  3  0  0  0  0  0  0
  161.4570  212.6850  144.4440 O   0  0  0  0  0  0  0  0  0  0  0  0
  159.3370  212.4430  143.3610 C   0  0  0  0  0  2  0  0  0  0  0  0
  160.7910  212.8250  143.2110 C   0  0  2  0  0  3  0  0  0  0  0  0
  161.6300  212.7180  140.9630 O   0  0  0  0  0  1  0  0  0  0  0  0
  161.4690  211.9850  142.1380 C   0  0  0  0  0  2  0  0  0  0  0  0
  1 25  1  0  0  0  0
  2 10  1  6  0  0  0
  2  5  1  0  0  0  0
  4  2  1  0  0  0  0
  5  6  1  1  0  0  0
  6  3  1  0  0  0  0
  7  3  2  0  0  0  0
  8  1  1  6  0  0  0
  8  5  1  0  0  0  0
  9  4  1  0  0  0  0
 10 12  1  0  0  0  0
 11  4  2  0  0  0  0
 11  8  1  0  0  0  0
 12  7  1  0  0  0  0
 13  9  1  0  0  0  0
 14 13  1  0  0  0  0
 15 14  2  0  0  0  0
 16 14  1  0  0  0  0
 17 19  1  0  0  0  0
 17 18  1  0  0  0  0
 18 20  1  1  0  0  0
 19 18  1  0  0  0  0
 19 16  1  1  0  0  0
 20 24  1  0  0  0  0
 21 24  1  0  0  0  0
 23 24  2  0  0  0  0
 24 22  1  0  0  0  0
 25 26  1  0  0  0  0
 28 27  1  0  0  0  0
 29 35  1  1  0  0  0
 29 27  1  0  0  0  0
 30 26  1  6  0  0  0
 30 29  1  0  0  0  0
 31 28  1  0  0  0  0
 32 30  1  0  0  0  0
 32 31  1  0  0  0  0
 35 33  1  0  0  0  0
 35 34  2  0  0  0  0
 36  1  1  0  0  0  0
 38 43  1  0  0  0  0
 39 37  1  6  0  0  0
 39 42  1  0  0  0  0
 39 40  1  0  0  0  0
 40 38  1  0  0  0  0
 41 43  1  0  0  0  0
 42 41  1  0  0  0  0
 43 36  1  6  0  0  0
 45 44  1  6  0  0  0
 45 39  1  0  0  0  0
 46 45  1  0  0  0  0
 47 44  1  0  0  0  0
 48 50  1  6  0  0  0
 48 47  1  0  0  0  0
 48 46  1  0  0  0  0
 49 50  1  0  0  0  0
M  END
>  <MODEL>
2

>  <REMARK>
 VINA RESULT:      -6.1      1.844      2.736
  Name = 
  15 active torsions:
  status: ('A' for Active; 'I' for Inactive)
    1  A    between atoms: C_4  and  C_7
    2  A    between atoms: C_4  and  O_25
    3  A    between atoms: C_7  and  N_34
    4  A    between atoms: C_15  and  C_49
    5  A    between atoms: C_17  and  C_24
    6  A    between atoms: C_20  and  C_40
    7  A    between atoms: C_22  and  C_29
    8  A    between atoms: C_22  and  N_46
    9  A    between atoms: C_23  and  O_25
   10  A    between atoms: C_29  and  C_35
   11  A    between atoms: P_31  and  C_40
   12  A    between atoms: C_32  and  N_46
   13  A    between atoms: C_42  and  C_48
   14  A    between atoms: C_45  and  N_46
   15  A    between atoms: C_45  and  C_47
                            x       y       z     vdW  Elec       q    Type
                         _______ _______ _______ _____ _____    ______ ____

>  <TORSDO>
F 15

$$$$
=
 OpenBabel11072410403D

 50 55  0  0  1  0  0  0  0  0999 V2000
  161.3510  211.4580  148.5770 N   0  0  0  0  0  0  0  0  0  0  0  0
  159.4990  212.9530  151.3040 C   0  0  1  0  0  3  0  0  0  0  0  0
  158.0200  214.4530  148.9930 C   0  0  0  0  0  3  0  0  0  0  0  0
  160.5000  211.9970  151.8220 C   0  0  0  0  0  0  0  0  0  0  0  0
  159.7160  212.8110  149.8240 C   0  0  1  0  0  3  0  0  0  0  0  0
  159.3870  214.0480  149.1420 N   0  0  0  0  0  2  0  0  0  0  0  0
  157.0680  214.3160  149.9320 C   0  0  0  0  0  3  0  0  0  0  0  0
  161.1800  212.3910  149.7000 C   0  0  1  0  0  3  0  0  0  0  0  0
  160.4960  211.4840  153.1540 N   0  0  0  0  0  2  0  0  0  0  0  0
  158.0550  212.6200  151.5940 C   0  0  0  0  0  2  0  0  0  0  0  0
  161.4310  211.7200  150.9720 N   0  0  0  0  0  0  0  0  0  0  0  0
  157.2400  213.8880  151.3700 C   0  0  0  0  0  2  0  0  0  0  0  0
  161.5040  210.5360  153.6050 C   0  0  0  0  0  2  0  0  0  0  0  0
  160.9050  209.5640  154.5580 C   0  0  0  0  0  0  0  0  0  0  0  0
  161.5290  208.5080  154.8530 O   0  0  0  0  0  0  0  0  0  0  0  0
  159.6780  209.8590  155.1500 O   0  0  0  0  0  0  0  0  0  0  0  0
  160.1520  211.4520  156.7570 O   0  0  0  0  0  0  0  0  0  0  0  0
  158.7440  211.4100  156.7780 C   0  0  2  0  0  3  0  0  0  0  0  0
  159.5680  210.1900  156.5330 C   0  0  1  0  0  3  0  0  0  0  0  0
  158.1880  212.0530  155.5090 C   0  0  0  0  0  2  0  0  0  0  0  0
  155.7820  212.5270  156.9980 O   0  0  0  0  0  1  0  0  0  0  0  0
  155.8620  210.3860  155.2610 O   0  0  0  0  0  1  0  0  0  0  0  0
  155.8350  212.8570  154.4050 O   0  0  0  0  0  0  0  0  0  0  0  0
  156.3720  211.9790  155.5120 P   0  0  0  0  0  0  0  0  0  0  0  0
  162.1700  210.3130  148.9780 C   0  0  0  0  0  2  0  0  0  0  0  0
  161.5900  209.0360  148.3980 C   0  0  0  0  0  2  0  0  0  0  0  0
  160.4870  205.9830  150.2860 C   0  0  0  0  0  2  0  0  0  0  0  0
  161.5790  205.9370  151.3600 C   0  0  0  0  0  2  0  0  0  0  0  0
  160.9480  206.7000  149.0070 C   0  0  1  0  0  3  0  0  0  0  0  0
  161.9080  207.8630  149.3060 C   0  0  2  0  0  3  0  0  0  0  0  0
  162.4050  207.2340  151.4050 C   0  0  0  0  0  2  0  0  0  0  0  0
  161.8000  208.2590  150.6530 O   0  0  0  0  0  0  0  0  0  0  0  0
  161.2800  204.2720  148.1110 C   0  0  0  0  0  1  0  0  0  0  0  0
  162.2590  206.2070  147.0060 C   0  0  0  0  0  2  0  0  0  0  0  0
  161.5520  205.7380  148.0270 C   0  0  0  0  0  0  0  0  0  0  0  0
  161.9920  212.1320  147.4380 C   0  0  0  0  0  2  0  0  0  0  0  0
  160.3620  214.0120  143.5010 F   0  0  0  0  0  0  0  0  0  0  0  0
  159.9030  212.7740  146.1190 C   0  0  0  0  0  2  0  0  0  0  0  0
  161.1010  212.9060  143.8900 C   0  0  2  0  0  0  0  0  0  0  0  0
  160.2490  212.0360  144.8260 C   0  0  0  0  0  2  0  0  0  0  0  0
  162.0110  214.1350  145.9000 C   0  0  0  0  0  2  0  0  0  0  0  0
  162.3630  213.3820  144.6170 C   0  0  0  0  0  2  0  0  0  0  0  0
  161.1580  213.2760  146.8370 C   0  0  2  0  0  3  0  0  0  0  0  0
  160.3270  211.8000  141.7290 C   0  0  0  0  0  2  0  0  0  0  0  0
  161.5000  212.1210  142.6330 C   0  0  1  0  0  3  0  0  0  0  0  0
  162.4820  212.8140  141.8980 O   0  0  0  0  0  0  0  0  0  0  0  0
  160.9510  211.7810  140.3770 C   0  0  0  0  0  2  0  0  0  0  0  0
  162.1370  212.7030  140.5380 C   0  0  2  0  0  3  0  0  0  0  0  0
  163.9160  213.2660  139.0250 O   0  0  0  0  0  1  0  0  0  0  0  0
  163.3250  212.2130  139.7220 C   0  0  0  0  0  2  0  0  0  0  0  0
  1 25  1  0  0  0  0
  2 10  1  6  0  0  0
  2  4  1  0  0  0  0
  3  6  1  0  0  0  0
  3  7  2  0  0  0  0
  4  9  1  0  0  0  0
  5  6  1  6  0  0  0
  5  2  1  0  0  0  0
  7 12  1  0  0  0  0
  8  1  1  6  0  0  0
  8  5  1  0  0  0  0
  8 11  1  0  0  0  0
  9 13  1  0  0  0  0
 11  4  2  0  0  0  0
 12 10  1  0  0  0  0
 13 14  1  0  0  0  0
 14 15  2  0  0  0  0
 14 16  1  0  0  0  0
 17 18  1  0  0  0  0
 18 20  1  6  0  0  0
 19 16  1  6  0  0  0
 19 17  1  0  0  0  0
 19 18  1  0  0  0  0
 20 24  1  0  0  0  0
 22 24  1  0  0  0  0
 23 24  2  0  0  0  0
 24 21  1  0  0  0  0
 26 25  1  0  0  0  0
 27 28  1  0  0  0  0
 28 31  1  0  0  0  0
 29 35  1  6  0  0  0
 29 30  1  0  0  0  0
 29 27  1  0  0  0  0
 30 26  1  6  0  0  0
 30 32  1  0  0  0  0
 32 31  1  0  0  0  0
 34 35  2  0  0  0  0
 35 33  1  0  0  0  0
 36  1  1  0  0  0  0
 38 43  1  0  0  0  0
 39 37  1  6  0  0  0
 39 42  1  0  0  0  0
 39 40  1  0  0  0  0
 40 38  1  0  0  0  0
 41 43  1  0  0  0  0
 42 41  1  0  0  0  0
 43 36  1  6  0  0  0
 45 44  1  6  0  0  0
 45 39  1  0  0  0  0
 46 45  1  0  0  0  0
 47 48  1  0  0  0  0
 47 44  1  0  0  0  0
 48 50  1  6  0  0  0
 48 46  1  0  0  0  0
 49 50  1  0  0  0  0
M  END
>  <MODEL>
3

>  <REMARK>
 VINA RESULT:      -5.8      3.712      8.015
  Name = 
  15 active torsions:
  status: ('A' for Active; 'I' for Inactive)
    1  A    between atoms: C_4  and  C_7
    2  A    between atoms: C_4  and  O_25
    3  A    between atoms: C_7  and  N_34
    4  A    between atoms: C_15  and  C_49
    5  A    between atoms: C_17  and  C_24
    6  A    between atoms: C_20  and  C_40
    7  A    between atoms: C_22  and  C_29
    8  A    between atoms: C_22  and  N_46
    9  A    between atoms: C_23  and  O_25
   10  A    between atoms: C_29  and  C_35
   11  A    between atoms: P_31  and  C_40
   12  A    between atoms: C_32  and  N_46
   13  A    between atoms: C_42  and  C_48
   14  A    between atoms: C_45  and  N_46
   15  A    between atoms: C_45  and  C_47
                            x       y       z     vdW  Elec       q    Type
                         _______ _______ _______ _____ _____    ______ ____

>  <TORSDO>
F 15

$$$$
=
 OpenBabel11072410403D

 50 55  0  0  1  0  0  0  0  0999 V2000
  160.1570  211.6820  152.4290 N   0  0  0  0  0  0  0  0  0  0  0  0
  161.3890  208.5660  153.7980 C   0  0  1  0  0  3  0  0  0  0  0  0
  160.1740  209.6780  156.4570 C   0  0  0  0  0  3  0  0  0  0  0  0
  161.6910  208.6520  152.3540 C   0  0  0  0  0  0  0  0  0  0  0  0
  160.6490  209.8570  154.0060 C   0  0  1  0  0  3  0  0  0  0  0  0
  160.8300  210.3340  155.3630 N   0  0  0  0  0  2  0  0  0  0  0  0
  160.0190  208.3480  156.5780 C   0  0  0  0  0  3  0  0  0  0  0  0
  161.2090  210.7850  152.9300 C   0  0  1  0  0  3  0  0  0  0  0  0
  162.0880  207.5360  151.5570 N   0  0  0  0  0  2  0  0  0  0  0  0
  160.4770  207.4380  154.2170 C   0  0  0  0  0  2  0  0  0  0  0  0
  161.6330  209.8540  151.8890 N   0  0  0  0  0  0  0  0  0  0  0  0
  160.6290  207.2630  155.7240 C   0  0  0  0  0  2  0  0  0  0  0  0
  162.3640  207.6800  150.1350 C   0  0  0  0  0  2  0  0  0  0  0  0
  161.5690  206.6940  149.3560 C   0  0  0  0  0  0  0  0  0  0  0  0
  160.3720  206.4570  149.6770 O   0  0  0  0  0  0  0  0  0  0  0  0
  162.1470  206.0770  148.2470 O   0  0  0  0  0  0  0  0  0  0  0  0
  162.0860  204.7370  146.3640 O   0  0  0  0  0  0  0  0  0  0  0  0
  160.9900  204.2610  147.1100 C   0  0  2  0  0  3  0  0  0  0  0  0
  161.3770  205.7020  147.1060 C   0  0  1  0  0  3  0  0  0  0  0  0
  161.4900  203.4830  148.3250 C   0  0  0  0  0  2  0  0  0  0  0  0
  160.9380  201.2190  146.6510 O   0  0  0  0  0  0  0  0  0  0  0  0
  159.3310  201.6630  148.8480 O   0  0  0  0  0  1  0  0  0  0  0  0
  161.8180  200.8930  149.0910 O   0  0  0  0  0  1  0  0  0  0  0  0
  160.9100  201.7620  148.2520 P   0  0  0  0  0  0  0  0  0  0  0  0
  158.8360  211.2100  152.8460 C   0  0  0  0  0  2  0  0  0  0  0  0
  157.9780  212.3880  153.2710 C   0  0  0  0  0  2  0  0  0  0  0  0
  157.0410  214.2560  156.3900 C   0  0  0  0  0  2  0  0  0  0  0  0
  158.3610  214.1440  157.1630 C   0  0  0  0  0  2  0  0  0  0  0  0
  156.8520  213.1140  155.3780 C   0  0  1  0  0  3  0  0  0  0  0  0
  158.1820  212.6710  154.7480 C   0  0  2  0  0  3  0  0  0  0  0  0
  159.5120  213.6410  156.2750 C   0  0  0  0  0  2  0  0  0  0  0  0
  159.1640  213.6660  154.9120 O   0  0  0  0  0  0  0  0  0  0  0  0
  155.1900  212.1400  157.1390 C   0  0  0  0  0  1  0  0  0  0  0  0
  156.2480  210.7490  155.4440 C   0  0  0  0  0  2  0  0  0  0  0  0
  156.1300  211.9520  155.9930 C   0  0  0  0  0  0  0  0  0  0  0  0
  160.1990  211.7580  150.9610 C   0  0  0  0  0  2  0  0  0  0  0  0
  161.0630  214.4530  147.2620 F   0  0  0  0  0  0  0  0  0  0  0  0
  160.2000  214.1420  150.0470 C   0  0  0  0  0  2  0  0  0  0  0  0
  160.1990  213.4290  147.6150 C   0  0  2  0  0  0  0  0  0  0  0  0
  159.3430  213.8810  148.8080 C   0  0  0  0  0  2  0  0  0  0  0  0
  161.8900  212.4660  149.2240 C   0  0  0  0  0  2  0  0  0  0  0  0
  161.0220  212.1940  147.9960 C   0  0  0  0  0  2  0  0  0  0  0  0
  161.0460  212.9210  150.4170 C   0  0  2  0  0  3  0  0  0  0  0  0
  158.1970  214.1010  146.1900 C   0  0  0  0  0  2  0  0  0  0  0  0
  159.3130  213.1000  146.4050 C   0  0  1  0  0  3  0  0  0  0  0  0
  160.0840  212.9970  145.2310 O   0  0  0  0  0  0  0  0  0  0  0  0
  158.0090  214.0700  144.7140 C   0  0  0  0  0  2  0  0  0  0  0  0
  159.3680  213.6460  144.2070 C   0  0  2  0  0  3  0  0  0  0  0  0
  160.4840  212.2340  142.6170 O   0  0  0  0  0  1  0  0  0  0  0  0
  159.2410  212.7450  142.9880 C   0  0  0  0  0  2  0  0  0  0  0  0
  1 25  1  0  0  0  0
  2  5  1  0  0  0  0
  2 10  1  6  0  0  0
  3  7  2  0  0  0  0
  4  2  1  0  0  0  0
  5  6  1  1  0  0  0
  6  3  1  0  0  0  0
  8  1  1  6  0  0  0
  8  5  1  0  0  0  0
  9  4  1  0  0  0  0
 10 12  1  0  0  0  0
 11  4  2  0  0  0  0
 11  8  1  0  0  0  0
 12  7  1  0  0  0  0
 13  9  1  0  0  0  0
 14 15  2  0  0  0  0
 14 13  1  0  0  0  0
 16 14  1  0  0  0  0
 17 19  1  0  0  0  0
 17 18  1  0  0  0  0
 18 20  1  1  0  0  0
 19 18  1  0  0  0  0
 19 16  1  1  0  0  0
 21 24  2  0  0  0  0
 24 20  1  0  0  0  0
 24 22  1  0  0  0  0
 24 23  1  0  0  0  0
 25 26  1  0  0  0  0
 27 28  1  0  0  0  0
 29 35  1  1  0  0  0
 29 27  1  0  0  0  0
 30 26  1  6  0  0  0
 30 32  1  0  0  0  0
 30 29  1  0  0  0  0
 31 28  1  0  0  0  0
 32 31  1  0  0  0  0
 34 35  2  0  0  0  0
 35 33  1  0  0  0  0
 36  1  1  0  0  0  0
 38 43  1  0  0  0  0
 39 37  1  6  0  0  0
 39 42  1  0  0  0  0
 39 40  1  0  0  0  0
 40 38  1  0  0  0  0
 41 43  1  0  0  0  0
 42 41  1  0  0  0  0
 43 36  1  6  0  0  0
 45 44  1  6  0  0  0
 45 39  1  0  0  0  0
 46 45  1  0  0  0  0
 47 44  1  0  0  0  0
 48 50  1  6  0  0  0
 48 47  1  0  0  0  0
 48 46  1  0  0  0  0
 49 50  1  0  0  0  0
M  END
>  <MODEL>
4

>  <REMARK>
 VINA RESULT:      -5.6      2.324      3.733
  Name = 
  15 active torsions:
  status: ('A' for Active; 'I' for Inactive)
    1  A    between atoms: C_4  and  C_7
    2  A    between atoms: C_4  and  O_25
    3  A    between atoms: C_7  and  N_34
    4  A    between atoms: C_15  and  C_49
    5  A    between atoms: C_17  and  C_24
    6  A    between atoms: C_20  and  C_40
    7  A    between atoms: C_22  and  C_29
    8  A    between atoms: C_22  and  N_46
    9  A    between atoms: C_23  and  O_25
   10  A    between atoms: C_29  and  C_35
   11  A    between atoms: P_31  and  C_40
   12  A    between atoms: C_32  and  N_46
   13  A    between atoms: C_42  and  C_48
   14  A    between atoms: C_45  and  N_46
   15  A    between atoms: C_45  and  C_47
                            x       y       z     vdW  Elec       q    Type
                         _______ _______ _______ _____ _____    ______ ____

>  <TORSDO>
F 15

$$$$
=
 OpenBabel11072410403D

 50 55  0  0  1  0  0  0  0  0999 V2000
  161.0190  210.0400  152.6490 N   0  0  0  0  0  0  0  0  0  0  0  0
  159.0690  212.9260  151.6600 C   0  0  1  0  0  3  0  0  0  0  0  0
  157.3950  212.2080  154.2030 C   0  0  0  0  0  3  0  0  0  0  0  0
  160.1860  212.7080  150.7170 C   0  0  0  0  0  0  0  0  0  0  0  0
  159.3120  211.8140  152.6420 C   0  0  1  0  0  3  0  0  0  0  0  0
  158.0630  211.3820  153.2400 N   0  0  0  0  0  2  0  0  0  0  0  0
  157.2980  213.5470  154.1360 C   0  0  0  0  0  3  0  0  0  0  0  0
  160.0250  210.7410  151.8220 C   0  0  1  0  0  3  0  0  0  0  0  0
  160.6330  213.6840  149.7750 N   0  0  0  0  0  2  0  0  0  0  0  0
  159.0900  214.2290  152.4210 C   0  0  0  0  0  2  0  0  0  0  0  0
  160.6810  211.5180  150.7750 N   0  0  0  0  0  0  0  0  0  0  0  0
  157.6920  214.4480  152.9900 C   0  0  0  0  0  2  0  0  0  0  0  0
  161.7460  213.4160  148.8770 C   0  0  0  0  0  2  0  0  0  0  0  0
  161.2470  212.8500  147.5950 C   0  0  0  0  0  0  0  0  0  0  0  0
  160.9830  211.6190  147.5120 O   0  0  0  0  0  0  0  0  0  0  0  0
  161.0310  213.7020  146.5130 O   0  0  0  0  0  0  0  0  0  0  0  0
  162.8300  213.4450  145.0830 O   0  0  0  0  0  0  0  0  0  0  0  0
  161.9980  214.3300  144.3680 C   0  0  2  0  0  3  0  0  0  0  0  0
  162.1050  214.3730  145.8560 C   0  0  1  0  0  3  0  0  0  0  0  0
  160.7700  213.5820  143.8520 C   0  0  0  0  0  2  0  0  0  0  0  0
  162.6620  213.3130  141.7120 O   0  0  0  0  0  1  0  0  0  0  0  0
  160.0050  213.7060  141.0870 O   0  0  0  0  0  0  0  0  0  0  0  0
  160.8580  211.4700  142.1390 O   0  0  0  0  0  1  0  0  0  0  0  0
  161.0720  212.9660  142.1690 P   0  0  0  0  0  0  0  0  0  0  0  0
  161.8720  210.9990  153.3520 C   0  0  0  0  0  2  0  0  0  0  0  0
  162.4800  210.3450  154.5790 C   0  0  0  0  0  2  0  0  0  0  0  0
  159.0350  210.1080  156.0530 C   0  0  0  0  0  2  0  0  0  0  0  0
  159.1870  211.0910  157.2200 C   0  0  0  0  0  2  0  0  0  0  0  0
  160.3770  209.4930  155.6220 C   0  0  1  0  0  3  0  0  0  0  0  0
  161.5420  210.4860  155.7630 C   0  0  2  0  0  3  0  0  0  0  0  0
  160.4700  211.9320  157.1060 C   0  0  0  0  0  2  0  0  0  0  0  0
  161.0610  211.8080  155.8350 O   0  0  0  0  0  0  0  0  0  0  0  0
  161.8730  208.0730  157.2200 C   0  0  0  0  0  1  0  0  0  0  0  0
  159.7630  207.2400  156.3370 C   0  0  0  0  0  2  0  0  0  0  0  0
  160.6590  208.2200  156.3620 C   0  0  0  0  0  0  0  0  0  0  0  0
  161.8610  209.1680  151.8170 C   0  0  0  0  0  2  0  0  0  0  0  0
  161.5160  204.7110  150.5120 F   0  0  0  0  0  0  0  0  0  0  0  0
  163.0640  206.9220  151.6590 C   0  0  0  0  0  2  0  0  0  0  0  0
  161.4820  205.9650  149.9250 C   0  0  2  0  0  0  0  0  0  0  0  0
  162.8230  206.6720  150.1700 C   0  0  0  0  0  2  0  0  0  0  0  0
  160.5760  207.0060  152.0400 C   0  0  0  0  0  2  0  0  0  0  0  0
  160.3400  206.7740  150.5470 C   0  0  0  0  0  2  0  0  0  0  0  0
  161.9120  207.7060  152.2930 C   0  0  2  0  0  3  0  0  0  0  0  0
  162.1380  206.6380  147.5570 C   0  0  0  0  0  2  0  0  0  0  0  0
  161.2260  205.7910  148.4220 C   0  0  1  0  0  3  0  0  0  0  0  0
  161.3430  204.4400  148.0440 O   0  0  0  0  0  0  0  0  0  0  0  0
  162.2730  205.8160  146.3220 C   0  0  0  0  0  2  0  0  0  0  0  0
  162.0450  204.4090  146.8250 C   0  0  2  0  0  3  0  0  0  0  0  0
  160.9100  204.3590  144.7080 O   0  0  0  0  0  1  0  0  0  0  0  0
  161.2960  203.5760  145.7960 C   0  0  0  0  0  2  0  0  0  0  0  0
  1 25  1  0  0  0  0
  2 10  1  1  0  0  0
  2  5  1  0  0  0  0
  4 11  2  0  0  0  0
  4  2  1  0  0  0  0
  5  6  1  6  0  0  0
  6  3  1  0  0  0  0
  7  3  2  0  0  0  0
  8  5  1  0  0  0  0
  8  1  1  1  0  0  0
  9  4  1  0  0  0  0
 10 12  1  0  0  0  0
 11  8  1  0  0  0  0
 12  7  1  0  0  0  0
 13  9  1  0  0  0  0
 14 13  1  0  0  0  0
 15 14  2  0  0  0  0
 16 14  1  0  0  0  0
 17 19  1  0  0  0  0
 18 20  1  1  0  0  0
 18 17  1  0  0  0  0
 18 19  1  0  0  0  0
 19 16  1  1  0  0  0
 21 24  1  0  0  0  0
 22 24  2  0  0  0  0
 23 24  1  0  0  0  0
 24 20  1  0  0  0  0
 25 26  1  0  0  0  0
 27 28  1  0  0  0  0
 29 30  1  0  0  0  0
 29 27  1  0  0  0  0
 29 35  1  1  0  0  0
 30 26  1  6  0  0  0
 30 32  1  0  0  0  0
 31 28  1  0  0  0  0
 32 31  1  0  0  0  0
 34 35  2  0  0  0  0
 35 33  1  0  0  0  0
 36  1  1  0  0  0  0
 38 43  1  0  0  0  0
 39 40  1  0  0  0  0
 39 37  1  1  0  0  0
 39 42  1  0  0  0  0
 40 38  1  0  0  0  0
 41 43  1  0  0  0  0
 42 41  1  0  0  0  0
 43 36  1  6  0  0  0
 45 44  1  6  0  0  0
 45 39  1  0  0  0  0
 46 45  1  0  0  0  0
 47 48  1  0  0  0  0
 47 44  1  0  0  0  0
 48 50  1  6  0  0  0
 48 46  1  0  0  0  0
 49 50  1  0  0  0  0
M  END
>  <MODEL>
5

>  <REMARK>
 VINA RESULT:      -5.1      3.226      8.205
  Name = 
  15 active torsions:
  status: ('A' for Active; 'I' for Inactive)
    1  A    between atoms: C_4  and  C_7
    2  A    between atoms: C_4  and  O_25
    3  A    between atoms: C_7  and  N_34
    4  A    between atoms: C_15  and  C_49
    5  A    between atoms: C_17  and  C_24
    6  A    between atoms: C_20  and  C_40
    7  A    between atoms: C_22  and  C_29
    8  A    between atoms: C_22  and  N_46
    9  A    between atoms: C_23  and  O_25
   10  A    between atoms: C_29  and  C_35
   11  A    between atoms: P_31  and  C_40
   12  A    between atoms: C_32  and  N_46
   13  A    between atoms: C_42  and  C_48
   14  A    between atoms: C_45  and  N_46
   15  A    between atoms: C_45  and  C_47
                            x       y       z     vdW  Elec       q    Type
                         _______ _______ _______ _____ _____    ______ ____

>  <TORSDO>
F 15

$$$$
=
 OpenBabel11072410403D

 50 55  0  0  1  0  0  0  0  0999 V2000
  159.7100  210.4850  153.0580 N   0  0  0  0  0  0  0  0  0  0  0  0
  157.2740  213.1630  153.0240 C   0  0  1  0  0  3  0  0  0  0  0  0
  156.5680  212.0630  155.8650 C   0  0  0  0  0  3  0  0  0  0  0  0
  158.0530  213.1560  151.7680 C   0  0  0  0  0  0  0  0  0  0  0  0
  157.9230  212.0250  153.7610 C   0  0  1  0  0  3  0  0  0  0  0  0
  156.9760  211.3980  154.6620 N   0  0  0  0  0  2  0  0  0  0  0  0
  156.3240  213.3810  155.9730 C   0  0  0  0  0  3  0  0  0  0  0  0
  158.4420  211.1110  152.6530 C   0  0  1  0  0  3  0  0  0  0  0  0
  158.0810  214.2430  150.8430 N   0  0  0  0  0  2  0  0  0  0  0  0
  157.4070  214.4020  153.8760 C   0  0  0  0  0  2  0  0  0  0  0  0
  158.6540  212.0360  151.5440 N   0  0  0  0  0  0  0  0  0  0  0  0
  156.2460  214.4020  154.8650 C   0  0  0  0  0  2  0  0  0  0  0  0
  158.8740  214.1820  149.6250 C   0  0  0  0  0  2  0  0  0  0  0  0
  158.0200  213.7770  148.4760 C   0  0  0  0  0  0  0  0  0  0  0  0
  156.8800  213.2790  148.6860 O   0  0  0  0  0  0  0  0  0  0  0  0
  158.4750  213.9990  147.1770 O   0  0  0  0  0  0  0  0  0  0  0  0
  159.3400  213.4110  145.1150 O   0  0  0  0  0  0  0  0  0  0  0  0
  160.0910  212.6100  145.9990 C   0  0  2  0  0  3  0  0  0  0  0  0
  158.6550  212.9310  146.2490 C   0  0  1  0  0  3  0  0  0  0  0  0
  161.0710  213.4820  146.7810 C   0  0  0  0  0  2  0  0  0  0  0  0
  162.2770  213.1060  149.3570 O   0  0  0  0  0  1  0  0  0  0  0  0
  163.6930  212.3580  147.1110 O   0  0  0  0  0  0  0  0  0  0  0  0
  161.5700  211.0530  147.9010 O   0  0  0  0  0  1  0  0  0  0  0  0
  162.1540  212.4430  147.8070 P   0  0  0  0  0  0  0  0  0  0  0  0
  160.8370  211.3750  152.7740 C   0  0  0  0  0  2  0  0  0  0  0  0
  161.9170  211.1900  153.8260 C   0  0  0  0  0  2  0  0  0  0  0  0
  159.4520  210.0840  156.4330 C   0  0  0  0  0  2  0  0  0  0  0  0
  159.3580  211.3710  157.2610 C   0  0  0  0  0  2  0  0  0  0  0  0
  160.7890  209.9610  155.6840 C   0  0  1  0  0  3  0  0  0  0  0  0
  161.3180  211.3250  155.2130 C   0  0  2  0  0  3  0  0  0  0  0  0
  160.0050  212.5690  156.5450 C   0  0  0  0  0  2  0  0  0  0  0  0
  160.2830  212.2790  155.1960 O   0  0  0  0  0  0  0  0  0  0  0  0
  162.9910  209.9510  157.0830 C   0  0  0  0  0  1  0  0  0  0  0  0
  161.6160  207.9600  156.8150 C   0  0  0  0  0  2  0  0  0  0  0  0
  161.8130  209.2370  156.5070 C   0  0  0  0  0  0  0  0  0  0  0  0
  159.9100  209.2140  152.3460 C   0  0  0  0  0  2  0  0  0  0  0  0
  162.7080  205.6610  151.2350 F   0  0  0  0  0  0  0  0  0  0  0  0
  162.0970  208.5290  151.2200 C   0  0  0  0  0  2  0  0  0  0  0  0
  161.4280  206.1010  150.9380 C   0  0  2  0  0  0  0  0  0  0  0  0
  161.5120  207.4820  150.2710 C   0  0  0  0  0  2  0  0  0  0  0  0
  161.2180  207.2260  153.1880 C   0  0  0  0  0  2  0  0  0  0  0  0
  160.6200  206.1910  152.2360 C   0  0  0  0  0  2  0  0  0  0  0  0
  161.3100  208.6050  152.5310 C   0  0  2  0  0  3  0  0  0  0  0  0
  161.4040  205.0430  148.6200 C   0  0  0  0  0  2  0  0  0  0  0  0
  160.7710  205.0830  149.9950 C   0  0  1  0  0  3  0  0  0  0  0  0
  160.7900  203.7920  150.5580 O   0  0  0  0  0  0  0  0  0  0  0  0
  161.2020  203.6270  148.2070 C   0  0  0  0  0  2  0  0  0  0  0  0
  161.1300  202.8960  149.5270 C   0  0  2  0  0  3  0  0  0  0  0  0
  160.6190  200.7120  148.6660 O   0  0  0  0  0  1  0  0  0  0  0  0
  160.1330  201.7480  149.4630 C   0  0  0  0  0  2  0  0  0  0  0  0
  2  5  1  0  0  0  0
  2 10  1  1  0  0  0
  3  7  2  0  0  0  0
  4  2  1  0  0  0  0
  5  6  1  1  0  0  0
  6  3  1  0  0  0  0
  8  1  1  1  0  0  0
  8  5  1  0  0  0  0
  9  4  1  0  0  0  0
 10 12  1  0  0  0  0
 11  4  2  0  0  0  0
 11  8  1  0  0  0  0
 12  7  1  0  0  0  0
 13  9  1  0  0  0  0
 14 15  2  0  0  0  0
 14 13  1  0  0  0  0
 16 14  1  0  0  0  0
 17 18  1  0  0  0  0
 17 19  1  0  0  0  0
 18 19  1  0  0  0  0
 18 20  1  1  0  0  0
 19 16  1  1  0  0  0
 20 24  1  0  0  0  0
 22 24  2  0  0  0  0
 24 23  1  0  0  0  0
 24 21  1  0  0  0  0
 25  1  1  0  0  0  0
 25 26  1  0  0  0  0
 27 28  1  0  0  0  0
 29 27  1  0  0  0  0
 29 35  1  1  0  0  0
 30 26  1  6  0  0  0
 30 29  1  0  0  0  0
 31 28  1  0  0  0  0
 32 30  1  0  0  0  0
 32 31  1  0  0  0  0
 35 34  2  0  0  0  0
 35 33  1  0  0  0  0
 36  1  1  0  0  0  0
 38 43  1  0  0  0  0
 39 37  1  1  0  0  0
 39 42  1  0  0  0  0
 40 39  1  0  0  0  0
 40 38  1  0  0  0  0
 42 41  1  0  0  0  0
 43 36  1  6  0  0  0
 43 41  1  0  0  0  0
 45 44  1  6  0  0  0
 45 46  1  0  0  0  0
 45 39  1  0  0  0  0
 47 44  1  0  0  0  0
 47 48  1  0  0  0  0
 48 50  1  6  0  0  0
 48 46  1  0  0  0  0
 49 50  1  0  0  0  0
M  END
>  <MODEL>
6

>  <REMARK>
 VINA RESULT:      -4.7      3.601      8.642
  Name = 
  15 active torsions:
  status: ('A' for Active; 'I' for Inactive)
    1  A    between atoms: C_4  and  C_7
    2  A    between atoms: C_4  and  O_25
    3  A    between atoms: C_7  and  N_34
    4  A    between atoms: C_15  and  C_49
    5  A    between atoms: C_17  and  C_24
    6  A    between atoms: C_20  and  C_40
    7  A    between atoms: C_22  and  C_29
    8  A    between atoms: C_22  and  N_46
    9  A    between atoms: C_23  and  O_25
   10  A    between atoms: C_29  and  C_35
   11  A    between atoms: P_31  and  C_40
   12  A    between atoms: C_32  and  N_46
   13  A    between atoms: C_42  and  C_48
   14  A    between atoms: C_45  and  N_46
   15  A    between atoms: C_45  and  C_47
                            x       y       z     vdW  Elec       q    Type
                         _______ _______ _______ _____ _____    ______ ____

>  <TORSDO>
F 15

$$$$
=
 OpenBabel11072410403D

 50 55  0  0  1  0  0  0  0  0999 V2000
  161.7380  211.0990  148.5120 N   0  0  0  0  0  0  0  0  0  0  0  0
  160.4330  211.7050  151.8340 C   0  0  1  0  0  3  0  0  0  0  0  0
  159.2750  214.2910  150.5100 C   0  0  0  0  0  3  0  0  0  0  0  0
  161.1870  210.4350  151.7990 C   0  0  0  0  0  0  0  0  0  0  0  0
  160.5450  212.1370  150.3990 C   0  0  1  0  0  3  0  0  0  0  0  0
  160.5040  213.5830  150.2990 N   0  0  0  0  0  2  0  0  0  0  0  0
  158.3600  213.9850  151.4460 C   0  0  0  0  0  3  0  0  0  0  0  0
  161.8520  211.5070  149.9210 C   0  0  1  0  0  3  0  0  0  0  0  0
  161.1130  209.4370  152.8170 N   0  0  0  0  0  2  0  0  0  0  0  0
  158.9660  211.5940  152.1710 C   0  0  0  0  0  2  0  0  0  0  0  0
  161.9830  210.3400  150.7870 N   0  0  0  0  0  0  0  0  0  0  0  0
  158.4810  212.9840  152.5680 C   0  0  0  0  0  2  0  0  0  0  0  0
  161.8730  208.1990  152.7220 C   0  0  0  0  0  2  0  0  0  0  0  0
  161.1800  207.1140  153.4670 C   0  0  0  0  0  0  0  0  0  0  0  0
  161.4930  205.9090  153.2570 O   0  0  0  0  0  0  0  0  0  0  0  0
  160.2250  207.4470  154.4250 O   0  0  0  0  0  0  0  0  0  0  0  0
  161.6180  208.4020  156.0050 O   0  0  0  0  0  0  0  0  0  0  0  0
  160.3480  208.8750  156.3940 C   0  0  2  0  0  3  0  0  0  0  0  0
  160.5410  207.5130  155.8150 C   0  0  1  0  0  3  0  0  0  0  0  0
  159.8550  209.9160  155.3910 C   0  0  0  0  0  2  0  0  0  0  0  0
  161.5180  211.6160  156.9960 O   0  0  0  0  0  1  0  0  0  0  0  0
  158.7960  212.0610  156.9810 O   0  0  0  0  0  1  0  0  0  0  0  0
  160.2860  212.5550  154.8900 O   0  0  0  0  0  0  0  0  0  0  0  0
  160.1220  211.5920  156.0430 P   0  0  0  0  0  0  0  0  0  0  0  0
  162.3260  209.7740  148.3100 C   0  0  0  0  0  2  0  0  0  0  0  0
  161.2940  208.8410  147.7040 C   0  0  0  0  0  2  0  0  0  0  0  0
  160.1400  205.2900  148.1020 C   0  0  0  0  0  2  0  0  0  0  0  0
  161.0320  204.8600  149.2730 C   0  0  0  0  0  2  0  0  0  0  0  0
  160.7540  206.4380  147.2850 C   0  0  1  0  0  3  0  0  0  0  0  0
  161.5470  207.4170  148.1650 C   0  0  2  0  0  3  0  0  0  0  0  0
  161.7260  206.0570  149.9440 C   0  0  0  0  0  2  0  0  0  0  0  0
  161.1770  207.2810  149.5170 O   0  0  0  0  0  0  0  0  0  0  0  0
  162.9790  205.4070  146.3930 C   0  0  0  0  0  1  0  0  0  0  0  0
  161.0670  205.8180  144.9440 C   0  0  0  0  0  2  0  0  0  0  0  0
  161.5960  205.9200  146.1570 C   0  0  0  0  0  0  0  0  0  0  0  0
  162.4200  212.0660  147.6390 C   0  0  0  0  0  2  0  0  0  0  0  0
  160.3110  214.3280  144.1570 F   0  0  0  0  0  0  0  0  0  0  0  0
  160.1900  212.8920  146.7110 C   0  0  0  0  0  2  0  0  0  0  0  0
  161.0440  213.1670  144.3410 C   0  0  2  0  0  0  0  0  0  0  0  0
  160.3020  212.2530  145.3260 C   0  0  0  0  0  2  0  0  0  0  0  0
  162.3050  214.1880  146.2760 C   0  0  0  0  0  2  0  0  0  0  0  0
  162.4230  213.5340  144.8990 C   0  0  0  0  0  2  0  0  0  0  0  0
  161.5620  213.2860  147.2630 C   0  0  2  0  0  3  0  0  0  0  0  0
  159.9290  211.8600  142.4600 C   0  0  0  0  0  2  0  0  0  0  0  0
  161.2110  212.4770  142.9800 C   0  0  1  0  0  3  0  0  0  0  0  0
  161.7240  213.3720  142.0210 O   0  0  0  0  0  0  0  0  0  0  0  0
  160.0910  211.9640  140.9830 C   0  0  0  0  0  2  0  0  0  0  0  0
  161.0130  213.1510  140.8270 C   0  0  2  0  0  3  0  0  0  0  0  0
  163.2250  213.4840  139.9520 O   0  0  0  0  0  1  0  0  0  0  0  0
  161.9710  212.9490  139.6620 C   0  0  0  0  0  2  0  0  0  0  0  0
  2 10  1  6  0  0  0
  3  7  2  0  0  0  0
  4  2  1  0  0  0  0
  4  9  1  0  0  0  0
  5  6  1  1  0  0  0
  5  2  1  0  0  0  0
  6  3  1  0  0  0  0
  7 12  1  0  0  0  0
  8  1  1  6  0  0  0
  8  5  1  0  0  0  0
  8 11  1  0  0  0  0
 10 12  1  0  0  0  0
 11  4  2  0  0  0  0
 13  9  1  0  0  0  0
 13 14  1  0  0  0  0
 14 16  1  0  0  0  0
 15 14  2  0  0  0  0
 17 18  1  0  0  0  0
 18 20  1  6  0  0  0
 19 16  1  6  0  0  0
 19 17  1  0  0  0  0
 19 18  1  0  0  0  0
 20 24  1  0  0  0  0
 23 24  2  0  0  0  0
 24 22  1  0  0  0  0
 24 21  1  0  0  0  0
 25  1  1  0  0  0  0
 26 25  1  0  0  0  0
 27 28  1  0  0  0  0
 28 31  1  0  0  0  0
 29 35  1  6  0  0  0
 29 27  1  0  0  0  0
 29 30  1  0  0  0  0
 30 26  1  6  0  0  0
 30 32  1  0  0  0  0
 32 31  1  0  0  0  0
 34 35  2  0  0  0  0
 35 33  1  0  0  0  0
 36  1  1  0  0  0  0
 38 43  1  0  0  0  0
 39 37  1  6  0  0  0
 39 42  1  0  0  0  0
 39 40  1  0  0  0  0
 40 38  1  0  0  0  0
 41 43  1  0  0  0  0
 42 41  1  0  0  0  0
 43 36  1  6  0  0  0
 45 44  1  6  0  0  0
 45 39  1  0  0  0  0
 46 45  1  0  0  0  0
 47 44  1  0  0  0  0
 48 50  1  6  0  0  0
 48 47  1  0  0  0  0
 48 46  1  0  0  0  0
 50 49  1  0  0  0  0
M  END
>  <MODEL>
7

>  <REMARK>
 VINA RESULT:      -4.6      3.257      7.509
  Name = 
  15 active torsions:
  status: ('A' for Active; 'I' for Inactive)
    1  A    between atoms: C_4  and  C_7
    2  A    between atoms: C_4  and  O_25
    3  A    between atoms: C_7  and  N_34
    4  A    between atoms: C_15  and  C_49
    5  A    between atoms: C_17  and  C_24
    6  A    between atoms: C_20  and  C_40
    7  A    between atoms: C_22  and  C_29
    8  A    between atoms: C_22  and  N_46
    9  A    between atoms: C_23  and  O_25
   10  A    between atoms: C_29  and  C_35
   11  A    between atoms: P_31  and  C_40
   12  A    between atoms: C_32  and  N_46
   13  A    between atoms: C_42  and  C_48
   14  A    between atoms: C_45  and  N_46
   15  A    between atoms: C_45  and  C_47
                            x       y       z     vdW  Elec       q    Type
                         _______ _______ _______ _____ _____    ______ ____

>  <TORSDO>
F 15

$$$$
=
 OpenBabel11072410403D

 50 55  0  0  1  0  0  0  0  0999 V2000
  161.4590  207.7020  148.4460 N   0  0  0  0  0  0  0  0  0  0  0  0
  161.9110  210.7110  150.4060 C   0  0  1  0  0  3  0  0  0  0  0  0
  161.5210  212.1290  147.6460 C   0  0  0  0  0  3  0  0  0  0  0  0
  161.9910  209.5150  151.2690 C   0  0  0  0  0  0  0  0  0  0  0  0
  161.6310  210.0760  149.0730 C   0  0  1  0  0  3  0  0  0  0  0  0
  162.1590  210.8950  147.9990 N   0  0  0  0  0  2  0  0  0  0  0  0
  160.9990  213.0050  148.5200 C   0  0  0  0  0  3  0  0  0  0  0  0
  162.2630  208.6890  149.1810 C   0  0  1  0  0  3  0  0  0  0  0  0
  161.9060  209.5550  152.6940 N   0  0  0  0  0  2  0  0  0  0  0  0
  160.7840  211.6700  150.7070 C   0  0  0  0  0  2  0  0  0  0  0  0
  162.2190  208.4260  150.6160 N   0  0  0  0  0  0  0  0  0  0  0  0
  161.1150  212.9930  150.0260 C   0  0  0  0  0  2  0  0  0  0  0  0
  161.9830  208.3400  153.4920 C   0  0  0  0  0  2  0  0  0  0  0  0
  160.8100  208.2500  154.4020 C   0  0  0  0  0  0  0  0  0  0  0  0
  160.4350  207.1250  154.8350 O   0  0  0  0  0  0  0  0  0  0  0  0
  160.1660  209.4190  154.8030 O   0  0  0  0  0  0  0  0  0  0  0  0
  161.5660  210.9720  155.7910 O   0  0  0  0  0  0  0  0  0  0  0  0
  160.2970  211.5610  155.9540 C   0  0  2  0  0  3  0  0  0  0  0  0
  160.4970  210.0840  156.0210 C   0  0  1  0  0  3  0  0  0  0  0  0
  159.7810  212.0610  154.6060 C   0  0  0  0  0  2  0  0  0  0  0  0
  157.8300  213.8880  155.6480 O   0  0  0  0  0  1  0  0  0  0  0  0
  157.1730  211.2160  155.4610 O   0  0  0  0  0  1  0  0  0  0  0  0
  157.4640  212.7160  153.3400 O   0  0  0  0  0  0  0  0  0  0  0  0
  158.0170  212.4830  154.7270 P   0  0  0  0  0  0  0  0  0  0  0  0
  160.5560  206.9930  149.3540 C   0  0  0  0  0  2  0  0  0  0  0  0
  160.4880  205.5260  148.9720 C   0  0  0  0  0  2  0  0  0  0  0  0
  159.9400  203.1710  151.8450 C   0  0  0  0  0  2  0  0  0  0  0  0
  161.2220  203.4370  152.6430 C   0  0  0  0  0  2  0  0  0  0  0  0
  160.1040  203.4770  150.3470 C   0  0  1  0  0  3  0  0  0  0  0  0
  161.0400  204.6700  150.0970 C   0  0  2  0  0  3  0  0  0  0  0  0
  161.9690  204.6850  152.1420 C   0  0  0  0  0  2  0  0  0  0  0  0
  161.1750  205.4470  151.2650 O   0  0  0  0  0  0  0  0  0  0  0  0
  161.9440  202.1660  149.0410 C   0  0  0  0  0  1  0  0  0  0  0  0
  159.7460  201.2190  149.4870 C   0  0  0  0  0  2  0  0  0  0  0  0
  160.5580  202.2660  149.5880 C   0  0  0  0  0  0  0  0  0  0  0  0
  162.3280  206.7250  147.7740 C   0  0  0  0  0  2  0  0  0  0  0  0
  161.0230  204.2950  144.0210 F   0  0  0  0  0  0  0  0  0  0  0  0
  160.7660  206.6450  145.7560 C   0  0  0  0  0  2  0  0  0  0  0  0
  161.0210  204.1490  145.3990 C   0  0  2  0  0  0  0  0  0  0  0  0
  160.1680  205.2640  146.0220 C   0  0  0  0  0  2  0  0  0  0  0  0
  163.0620  205.6180  145.6260 C   0  0  0  0  0  2  0  0  0  0  0  0
  162.4620  204.2410  145.9100 C   0  0  0  0  0  2  0  0  0  0  0  0
  162.2160  206.7350  146.2400 C   0  0  2  0  0  3  0  0  0  0  0  0
  159.5200  202.2230  144.6710 C   0  0  0  0  0  2  0  0  0  0  0  0
  160.4440  202.7680  145.7410 C   0  0  1  0  0  3  0  0  0  0  0  0
  161.4740  201.8400  145.9880 O   0  0  0  0  0  0  0  0  0  0  0  0
  159.7100  200.7520  144.7930 C   0  0  0  0  0  2  0  0  0  0  0  0
  161.1070  200.6360  145.3580 C   0  0  2  0  0  3  0  0  0  0  0  0
  161.2050  198.2530  145.6490 O   0  0  0  0  0  1  0  0  0  0  0  0
  161.2080  199.4700  146.3310 C   0  0  0  0  0  2  0  0  0  0  0  0
  1 25  1  0  0  0  0
  2 10  1  1  0  0  0
  2  4  1  0  0  0  0
  3  6  1  0  0  0  0
  3  7  2  0  0  0  0
  4  9  1  0  0  0  0
  5  6  1  6  0  0  0
  5  8  1  0  0  0  0
  5  2  1  0  0  0  0
  7 12  1  0  0  0  0
  8  1  1  6  0  0  0
  8 11  1  0  0  0  0
  9 13  1  0  0  0  0
 11  4  2  0  0  0  0
 12 10  1  0  0  0  0
 13 14  1  0  0  0  0
 14 16  1  0  0  0  0
 14 15  2  0  0  0  0
 17 18  1  0  0  0  0
 17 19  1  0  0  0  0
 18 20  1  6  0  0  0
 18 19  1  0  0  0  0
 19 16  1  6  0  0  0
 20 24  1  0  0  0  0
 23 24  2  0  0  0  0
 24 22  1  0  0  0  0
 24 21  1  0  0  0  0
 26 25  1  0  0  0  0
 27 28  1  0  0  0  0
 29 35  1  6  0  0  0
 29 27  1  0  0  0  0
 30 26  1  6  0  0  0
 30 29  1  0  0  0  0
 30 32  1  0  0  0  0
 31 28  1  0  0  0  0
 32 31  1  0  0  0  0
 33 35  1  0  0  0  0
 34 35  2  0  0  0  0
 36  1  1  0  0  0  0
 38 40  1  0  0  0  0
 38 43  1  0  0  0  0
 39 37  1  6  0  0  0
 39 45  1  0  0  0  0
 39 42  1  0  0  0  0
 39 40  1  0  0  0  0
 41 42  1  0  0  0  0
 41 43  1  0  0  0  0
 43 36  1  1  0  0  0
 44 47  1  0  0  0  0
 45 44  1  6  0  0  0
 45 46  1  0  0  0  0
 47 48  1  0  0  0  0
 48 46  1  0  0  0  0
 48 50  1  1  0  0  0
 49 50  1  0  0  0  0
M  END
>  <MODEL>
8

>  <REMARK>
 VINA RESULT:      -4.3      4.004      9.546
  Name = 
  15 active torsions:
  status: ('A' for Active; 'I' for Inactive)
    1  A    between atoms: C_4  and  C_7
    2  A    between atoms: C_4  and  O_25
    3  A    between atoms: C_7  and  N_34
    4  A    between atoms: C_15  and  C_49
    5  A    between atoms: C_17  and  C_24
    6  A    between atoms: C_20  and  C_40
    7  A    between atoms: C_22  and  C_29
    8  A    between atoms: C_22  and  N_46
    9  A    between atoms: C_23  and  O_25
   10  A    between atoms: C_29  and  C_35
   11  A    between atoms: P_31  and  C_40
   12  A    between atoms: C_32  and  N_46
   13  A    between atoms: C_42  and  C_48
   14  A    between atoms: C_45  and  N_46
   15  A    between atoms: C_45  and  C_47
                            x       y       z     vdW  Elec       q    Type
                         _______ _______ _______ _____ _____    ______ ____

>  <TORSDO>
F 15

$$$$
=
 OpenBabel11072410403D

 50 55  0  0  1  0  0  0  0  0999 V2000
  161.9210  209.8050  150.8580 N   0  0  0  0  0  0  0  0  0  0  0  0
  160.2530  210.4890  153.9980 C   0  0  1  0  0  3  0  0  0  0  0  0
  161.4280  207.7060  154.8070 C   0  0  0  0  0  3  0  0  0  0  0  0
  160.0500  211.6050  153.0510 C   0  0  0  0  0  0  0  0  0  0  0  0
  161.1250  209.5810  153.1770 C   0  0  1  0  0  3  0  0  0  0  0  0
  160.9200  208.1970  153.5600 N   0  0  0  0  0  2  0  0  0  0  0  0
  161.4200  208.3870  155.9650 C   0  0  0  0  0  3  0  0  0  0  0  0
  160.7420  209.9010  151.7330 C   0  0  1  0  0  3  0  0  0  0  0  0
  159.5740  212.8960  153.4320 N   0  0  0  0  0  2  0  0  0  0  0  0
  161.0000  210.8260  155.2660 C   0  0  0  0  0  2  0  0  0  0  0  0
  160.2770  211.2820  151.8220 N   0  0  0  0  0  0  0  0  0  0  0  0
  160.7390  209.7020  156.2620 C   0  0  0  0  0  2  0  0  0  0  0  0
  159.4020  213.9600  152.4550 C   0  0  0  0  0  2  0  0  0  0  0  0
  157.9770  214.0460  152.0360 C   0  0  0  0  0  0  0  0  0  0  0  0
  157.6490  213.7390  150.8570 O   0  0  0  0  0  0  0  0  0  0  0  0
  157.0140  214.4230  152.9700 O   0  0  0  0  0  0  0  0  0  0  0  0
  155.6300  212.5710  152.9870 O   0  0  0  0  0  0  0  0  0  0  0  0
  155.1950  213.2860  154.1200 C   0  0  2  0  0  3  0  0  0  0  0  0
  155.6630  213.9750  152.8830 C   0  0  1  0  0  3  0  0  0  0  0  0
  156.2470  213.1990  155.2230 C   0  0  0  0  0  2  0  0  0  0  0  0
  155.8280  210.3670  155.0310 O   0  0  0  0  0  0  0  0  0  0  0  0
  154.7750  211.7160  157.1940 O   0  0  0  0  0  1  0  0  0  0  0  0
  157.3500  211.3680  156.9060 O   0  0  0  0  0  1  0  0  0  0  0  0
  156.0830  211.6290  156.1260 P   0  0  0  0  0  0  0  0  0  0  0  0
  162.1030  211.0450  150.1020 C   0  0  0  0  0  2  0  0  0  0  0  0
  161.6840  210.8330  148.6580 C   0  0  0  0  0  2  0  0  0  0  0  0
  161.6810  212.7500  145.4290 C   0  0  0  0  0  2  0  0  0  0  0  0
  162.3610  214.0420  145.8970 C   0  0  0  0  0  2  0  0  0  0  0  0
  160.9700  212.0100  146.5740 C   0  0  1  0  0  3  0  0  0  0  0  0
  161.7170  212.1530  147.9100 C   0  0  2  0  0  3  0  0  0  0  0  0
  162.9960  213.8920  147.2890 C   0  0  0  0  0  2  0  0  0  0  0  0
  163.0520  212.5440  147.6910 O   0  0  0  0  0  0  0  0  0  0  0  0
  158.9060  212.6390  148.0430 C   0  0  0  0  0  1  0  0  0  0  0  0
  158.8560  212.7670  145.6120 C   0  0  0  0  0  2  0  0  0  0  0  0
  159.5410  212.4470  146.7040 C   0  0  0  0  0  0  0  0  0  0  0  0
  161.7750  208.6850  149.9170 C   0  0  0  0  0  2  0  0  0  0  0  0
  160.9040  204.1580  149.2510 F   0  0  0  0  0  0  0  0  0  0  0  0
  162.2800  206.3070  150.6960 C   0  0  0  0  0  2  0  0  0  0  0  0
  161.4720  205.2150  148.5570 C   0  0  2  0  0  0  0  0  0  0  0  0
  162.6880  205.7350  149.3380 C   0  0  0  0  0  2  0  0  0  0  0  0
  160.0120  206.8830  149.7660 C   0  0  0  0  0  2  0  0  0  0  0  0
  160.4290  206.3270  148.4050 C   0  0  0  0  0  2  0  0  0  0  0  0
  161.2180  207.4000  150.5530 C   0  0  2  0  0  3  0  0  0  0  0  0
  161.5880  203.2470  146.9430 C   0  0  0  0  0  2  0  0  0  0  0  0
  161.8930  204.7140  147.1690 C   0  0  1  0  0  3  0  0  0  0  0  0
  161.2890  205.4800  146.1530 O   0  0  0  0  0  0  0  0  0  0  0  0
  161.3410  203.1860  145.4750 C   0  0  0  0  0  2  0  0  0  0  0  0
  160.8660  204.5850  145.1530 C   0  0  2  0  0  3  0  0  0  0  0  0
  161.1390  206.3930  143.5950 O   0  0  0  0  0  1  0  0  0  0  0  0
  161.3680  205.0310  143.7870 C   0  0  0  0  0  2  0  0  0  0  0  0
  2 10  1  1  0  0  0
  3  7  2  0  0  0  0
  4  9  1  0  0  0  0
  4  2  1  0  0  0  0
  5  6  1  1  0  0  0
  5  2  1  0  0  0  0
  6  3  1  0  0  0  0
  7 12  1  0  0  0  0
  8  1  1  6  0  0  0
  8 11  1  0  0  0  0
  8  5  1  0  0  0  0
 10 12  1  0  0  0  0
 11  4  2  0  0  0  0
 13  9  1  0  0  0  0
 14 13  1  0  0  0  0
 14 16  1  0  0  0  0
 15 14  2  0  0  0  0
 17 18  1  0  0  0  0
 18 20  1  1  0  0  0
 19 16  1  1  0  0  0
 19 17  1  0  0  0  0
 19 18  1  0  0  0  0
 20 24  1  0  0  0  0
 21 24  2  0  0  0  0
 24 23  1  0  0  0  0
 24 22  1  0  0  0  0
 25  1  1  0  0  0  0
 26 25  1  0  0  0  0
 27 28  1  0  0  0  0
 27 29  1  0  0  0  0
 28 31  1  0  0  0  0
 29 35  1  1  0  0  0
 29 30  1  0  0  0  0
 30 26  1  6  0  0  0
 31 32  1  0  0  0  0
 32 30  1  0  0  0  0
 34 35  2  0  0  0  0
 35 33  1  0  0  0  0
 36  1  1  0  0  0  0
 39 37  1  1  0  0  0
 39 40  1  0  0  0  0
 40 38  1  0  0  0  0
 41 43  1  0  0  0  0
 42 39  1  0  0  0  0
 42 41  1  0  0  0  0
 43 36  1  6  0  0  0
 43 38  1  0  0  0  0
 45 44  1  6  0  0  0
 45 39  1  0  0  0  0
 46 45  1  0  0  0  0
 47 44  1  0  0  0  0
 48 50  1  6  0  0  0
 48 47  1  0  0  0  0
 48 46  1  0  0  0  0
 49 50  1  0  0  0  0
M  END
>  <MODEL>
9

>  <REMARK>
 VINA RESULT:      -4.2      3.748      8.986
  Name = 
  15 active torsions:
  status: ('A' for Active; 'I' for Inactive)
    1  A    between atoms: C_4  and  C_7
    2  A    between atoms: C_4  and  O_25
    3  A    between atoms: C_7  and  N_34
    4  A    between atoms: C_15  and  C_49
    5  A    between atoms: C_17  and  C_24
    6  A    between atoms: C_20  and  C_40
    7  A    between atoms: C_22  and  C_29
    8  A    between atoms: C_22  and  N_46
    9  A    between atoms: C_23  and  O_25
   10  A    between atoms: C_29  and  C_35
   11  A    between atoms: P_31  and  C_40
   12  A    between atoms: C_32  and  N_46
   13  A    between atoms: C_42  and  C_48
   14  A    between atoms: C_45  and  N_46
   15  A    between atoms: C_45  and  C_47
                            x       y       z     vdW  Elec       q    Type
                         _______ _______ _______ _____ _____    ______ ____

>  <TORSDO>
F 15

$$$$
