=
 OpenBabel11072414363D

 36 39  0  0  1  0  0  0  0  0999 V2000
  161.8940  208.2650  151.4100 C   0  0  0  0  0  3  0  0  0  0  0  0
  162.0060  209.4820  149.3260 C   0  0  0  0  0  0  0  0  0  0  0  0
  161.4500  208.3620  148.6710 C   0  0  0  0  0  0  0  0  0  0  0  0
  161.3580  207.2000  150.7610 N   0  0  0  0  0  0  0  0  0  0  0  0
  162.2250  209.4210  150.7040 C   0  0  0  0  0  3  0  0  0  0  0  0
  161.2280  208.3630  147.3320 F   0  0  0  0  0  0  0  0  0  0  0  0
  161.1270  207.2210  149.4210 C   0  0  0  0  0  0  0  0  0  0  0  0
  162.3540  210.6660  148.6650 O   0  0  0  0  0  0  0  0  0  0  0  0
  162.0040  211.9680  149.1160 C   0  0  0  0  0  2  0  0  0  0  0  0
  160.9490  212.5690  148.2040 C   0  0  0  0  0  2  0  0  0  0  0  0
  162.1260  212.6050  141.6810 C   0  0  0  0  0  0  0  0  0  0  0  0
  160.8940  212.0610  141.9550 C   0  0  0  0  0  0  0  0  0  0  0  0
  160.1720  212.2790  143.2410 C   0  0  0  0  0  2  0  0  0  0  0  0
  160.3590  211.2400  140.6000 S   0  0  0  0  0  0  0  0  0  0  0  0
  161.5120  212.8270  146.8490 C   0  0  0  0  0  0  0  0  0  0  0  0
  161.7110  211.5640  139.6380 C   0  0  0  0  0  3  0  0  0  0  0  0
  162.5940  212.3420  140.3900 C   0  0  0  0  0  3  0  0  0  0  0  0
  162.8100  213.4690  142.6890 C   0  0  0  0  0  2  0  0  0  0  0  0
  161.1420  212.6830  144.3270 C   0  0  0  0  0  0  0  0  0  0  0  0
  162.6440  213.3690  146.7440 O   0  0  0  0  0  0  0  0  0  0  0  0
  162.3140  213.1910  144.0440 N   0  0  0  0  0  0  0  0  0  0  0  0
  160.7430  212.4840  145.6900 N   0  0  0  0  0  2  0  0  0  0  0  0
  160.5600  206.0120  148.7540 C   0  0  0  0  0  2  0  0  0  0  0  0
  161.5540  204.8600  148.7990 C   0  0  1  0  0  3  0  0  0  0  0  0
  160.8660  202.7590  148.9710 C   0  0  0  0  0  0  0  0  0  0  0  0
  161.0620  203.8150  149.6880 N   0  0  0  0  0  0  0  0  0  0  0  0
  161.1760  202.9250  147.5950 N   0  0  0  0  0  0  0  0  0  0  0  0
  161.5760  204.1470  147.4890 C   0  0  0  0  0  0  0  0  0  0  0  0
  160.3690  201.5010  149.5340 C   0  0  0  0  0  0  0  0  0  0  0  0
  159.0490  201.1190  149.3320 O   0  0  0  0  0  0  0  0  0  0  0  0
  161.1370  200.7610  150.2020 O   0  0  0  0  0  1  0  0  0  0  0  0
  162.7180  205.9480  146.4470 O   0  0  0  0  0  1  0  0  0  0  0  0
  162.0390  204.7530  146.2030 C   0  0  2  0  0  3  0  0  0  0  0  0
  160.8920  204.9800  145.2720 C   0  0  0  0  0  0  0  0  0  0  0  0
  160.2830  206.2250  145.2230 O   0  0  0  0  0  1  0  0  0  0  0  0
  160.5010  204.0610  144.5030 O   0  0  0  0  0  0  0  0  0  0  0  0
  2  5  1  0  0  0  0
  3  2  2  0  0  0  0
  3  7  1  0  0  0  0
  4  1  1  0  0  0  0
  5  1  2  0  0  0  0
  6  3  1  0  0  0  0
  7  4  2  0  0  0  0
  8  9  1  0  0  0  0
  8  2  1  0  0  0  0
 10  9  1  0  0  0  0
 11 12  2  0  0  0  0
 11 18  1  0  0  0  0
 12 13  1  0  0  0  0
 13 19  1  0  0  0  0
 14 12  1  0  0  0  0
 15 10  1  0  0  0  0
 16 17  2  0  0  0  0
 16 14  1  0  0  0  0
 17 11  1  0  0  0  0
 18 21  1  0  0  0  0
 19 22  1  0  0  0  0
 20 15  2  0  0  0  0
 21 19  2  0  0  0  0
 22 15  1  0  0  0  0
 23  7  1  0  0  0  0
 24 23  1  6  0  0  0
 24 26  1  0  0  0  0
 25 29  1  0  0  0  0
 25 26  2  0  0  0  0
 27 25  1  0  0  0  0
 28 27  2  0  0  0  0
 28 24  1  0  0  0  0
 29 31  1  0  0  0  0
 30 29  2  0  0  0  0
 33 32  1  1  0  0  0
 33 28  1  0  0  0  0
 34 33  1  0  0  0  0
 35 34  1  0  0  0  0
 36 34  2  0  0  0  0
M  END
>  <MODEL>
1

>  <REMARK>
 VINA RESULT:      -8.1      0.000      0.000
  Name = 
  9 active torsions:
  status: ('A' for Active; 'I' for Inactive)
    1  A    between atoms: C_5  and  C_18
    2  A    between atoms: C_6  and  C_26
    3  A    between atoms: O_7  and  C_14
    4  A    between atoms: O_7  and  C_29
    5  A    between atoms: C_8  and  C_23
    6  A    between atoms: C_9  and  C_31
    7  A    between atoms: C_18  and  C_35
    8  A    between atoms: C_23  and  C_29
    9  A    between atoms: C_31  and  C_32
                            x       y       z     vdW  Elec       q    Type
                         _______ _______ _______ _____ _____    ______ ____

>  <TORSDO>
F 9

$$$$
=
 OpenBabel11072414363D

 36 39  0  0  1  0  0  0  0  0999 V2000
  160.7320  207.8320  154.0400 C   0  0  0  0  0  3  0  0  0  0  0  0
  160.9820  209.6300  152.4460 C   0  0  0  0  0  0  0  0  0  0  0  0
  161.3910  208.6840  151.4810 C   0  0  0  0  0  0  0  0  0  0  0  0
  161.1250  206.9390  153.0960 N   0  0  0  0  0  0  0  0  0  0  0  0
  160.6540  209.1900  153.7300 C   0  0  0  0  0  3  0  0  0  0  0  0
  161.7320  209.0600  150.2220 F   0  0  0  0  0  0  0  0  0  0  0  0
  161.4490  207.3280  151.8350 C   0  0  0  0  0  0  0  0  0  0  0  0
  160.8850  211.0030  152.1860 O   0  0  0  0  0  0  0  0  0  0  0  0
  159.7170  211.7810  152.4140 C   0  0  0  0  0  2  0  0  0  0  0  0
  159.9000  213.1750  151.8410 C   0  0  0  0  0  2  0  0  0  0  0  0
  160.3580  213.3870  145.2330 C   0  0  0  0  0  0  0  0  0  0  0  0
  161.5900  213.1820  145.8040 C   0  0  0  0  0  0  0  0  0  0  0  0
  161.7720  212.6850  147.1980 C   0  0  0  0  0  2  0  0  0  0  0  0
  162.7680  213.4890  144.6580 S   0  0  0  0  0  0  0  0  0  0  0  0
  159.6000  213.1860  150.3820 C   0  0  0  0  0  0  0  0  0  0  0  0
  161.7100  213.9010  143.4060 C   0  0  0  0  0  3  0  0  0  0  0  0
  160.4060  213.7830  143.8920 C   0  0  0  0  0  3  0  0  0  0  0  0
  159.1110  213.1040  146.0050 C   0  0  0  0  0  2  0  0  0  0  0  0
  160.5300  212.9460  148.0170 C   0  0  0  0  0  0  0  0  0  0  0  0
  158.4120  213.3480  149.9970 O   0  0  0  0  0  0  0  0  0  0  0  0
  159.3670  213.1470  147.4520 N   0  0  0  0  0  0  0  0  0  0  0  0
  160.6630  212.9780  149.4440 N   0  0  0  0  0  2  0  0  0  0  0  0
  161.9010  206.3060  150.8440 C   0  0  0  0  0  2  0  0  0  0  0  0
  160.7580  205.9230  149.9130 C   0  0  1  0  0  3  0  0  0  0  0  0
  161.1090  205.5850  147.7490 C   0  0  0  0  0  0  0  0  0  0  0  0
  160.9550  206.5390  148.6070 N   0  0  0  0  0  0  0  0  0  0  0  0
  161.0410  204.2820  148.3110 N   0  0  0  0  0  0  0  0  0  0  0  0
  160.8390  204.4730  149.5710 C   0  0  0  0  0  0  0  0  0  0  0  0
  161.3300  205.8310  146.3220 C   0  0  0  0  0  0  0  0  0  0  0  0
  162.5900  205.6450  145.7690 O   0  0  0  0  0  1  0  0  0  0  0  0
  160.3790  206.2130  145.5920 O   0  0  0  0  0  0  0  0  0  0  0  0
  161.7220  203.3590  151.4720 O   0  0  0  0  0  1  0  0  0  0  0  0
  160.6690  203.3600  150.5550 C   0  0  2  0  0  3  0  0  0  0  0  0
  160.5760  202.0400  149.8600 C   0  0  0  0  0  0  0  0  0  0  0  0
  159.4160  201.7000  149.1800 O   0  0  0  0  0  0  0  0  0  0  0  0
  161.5580  201.2490  149.8540 O   0  0  0  0  0  1  0  0  0  0  0  0
  2  5  2  0  0  0  0
  3  7  2  0  0  0  0
  3  2  1  0  0  0  0
  4  1  2  0  0  0  0
  5  1  1  0  0  0  0
  6  3  1  0  0  0  0
  7  4  1  0  0  0  0
  8  9  1  0  0  0  0
  8  2  1  0  0  0  0
 10  9  1  0  0  0  0
 11 12  2  0  0  0  0
 11 18  1  0  0  0  0
 12 13  1  0  0  0  0
 13 19  1  0  0  0  0
 14 12  1  0  0  0  0
 15 10  1  0  0  0  0
 16 17  2  0  0  0  0
 16 14  1  0  0  0  0
 17 11  1  0  0  0  0
 18 21  1  0  0  0  0
 19 22  1  0  0  0  0
 20 15  2  0  0  0  0
 21 19  2  0  0  0  0
 22 15  1  0  0  0  0
 23  7  1  0  0  0  0
 24 23  1  1  0  0  0
 25 27  1  0  0  0  0
 25 26  2  0  0  0  0
 26 24  1  0  0  0  0
 27 28  2  0  0  0  0
 28 24  1  0  0  0  0
 28 33  1  0  0  0  0
 29 25  1  0  0  0  0
 30 29  1  0  0  0  0
 31 29  2  0  0  0  0
 33 32  1  1  0  0  0
 34 33  1  0  0  0  0
 35 34  2  0  0  0  0
 36 34  1  0  0  0  0
M  END
>  <MODEL>
2

>  <REMARK>
 VINA RESULT:      -7.8      2.389      4.291
  Name = 
  9 active torsions:
  status: ('A' for Active; 'I' for Inactive)
    1  A    between atoms: C_5  and  C_18
    2  A    between atoms: C_6  and  C_26
    3  A    between atoms: O_7  and  C_14
    4  A    between atoms: O_7  and  C_29
    5  A    between atoms: C_8  and  C_23
    6  A    between atoms: C_9  and  C_31
    7  A    between atoms: C_18  and  C_35
    8  A    between atoms: C_23  and  C_29
    9  A    between atoms: C_31  and  C_32
                            x       y       z     vdW  Elec       q    Type
                         _______ _______ _______ _____ _____    ______ ____

>  <TORSDO>
F 9

$$$$
=
 OpenBabel11072414363D

 36 39  0  0  1  0  0  0  0  0999 V2000
  161.6990  208.3620  152.2720 C   0  0  0  0  0  3  0  0  0  0  0  0
  162.0030  209.5300  150.1790 C   0  0  0  0  0  0  0  0  0  0  0  0
  161.4440  208.4210  149.5080 C   0  0  0  0  0  0  0  0  0  0  0  0
  161.1620  207.3070  151.6070 N   0  0  0  0  0  0  0  0  0  0  0  0
  162.1270  209.4880  151.5700 C   0  0  0  0  0  3  0  0  0  0  0  0
  161.3120  208.4050  148.1570 F   0  0  0  0  0  0  0  0  0  0  0  0
  161.0220  207.3110  150.2540 C   0  0  0  0  0  0  0  0  0  0  0  0
  162.4450  210.6850  149.5220 O   0  0  0  0  0  0  0  0  0  0  0  0
  161.7080  211.3660  148.5150 C   0  0  0  0  0  2  0  0  0  0  0  0
  161.6650  212.8540  148.8170 C   0  0  0  0  0  2  0  0  0  0  0  0
  157.0600  213.0310  153.5800 C   0  0  0  0  0  0  0  0  0  0  0  0
  158.1590  212.3150  153.9870 C   0  0  0  0  0  0  0  0  0  0  0  0
  159.4960  212.4310  153.3370 C   0  0  0  0  0  2  0  0  0  0  0  0
  157.7450  211.4190  155.3360 S   0  0  0  0  0  0  0  0  0  0  0  0
  160.4760  213.1850  149.6510 C   0  0  0  0  0  0  0  0  0  0  0  0
  156.1360  211.9320  155.4160 C   0  0  0  0  0  3  0  0  0  0  0  0
  155.9230  212.8330  154.3700 C   0  0  0  0  0  3  0  0  0  0  0  0
  157.1630  213.9900  152.4400 C   0  0  0  0  0  2  0  0  0  0  0  0
  159.3550  212.9770  151.9350 C   0  0  0  0  0  0  0  0  0  0  0  0
  159.5520  213.8850  149.1600 O   0  0  0  0  0  0  0  0  0  0  0  0
  158.2940  213.6490  151.5660 N   0  0  0  0  0  0  0  0  0  0  0  0
  160.4190  212.7280  151.0090 N   0  0  0  0  0  2  0  0  0  0  0  0
  160.4490  206.1130  149.5720 C   0  0  0  0  0  2  0  0  0  0  0  0
  161.5520  205.1350  149.1920 C   0  0  1  0  0  3  0  0  0  0  0  0
  161.1220  202.9780  148.9080 C   0  0  0  0  0  0  0  0  0  0  0  0
  161.3200  203.8510  149.8400 N   0  0  0  0  0  0  0  0  0  0  0  0
  161.1890  203.5080  147.5930 N   0  0  0  0  0  0  0  0  0  0  0  0
  161.4370  204.7640  147.7510 C   0  0  0  0  0  0  0  0  0  0  0  0
  160.8550  201.5650  149.1910 C   0  0  0  0  0  0  0  0  0  0  0  0
  161.2300  200.5880  148.2780 O   0  0  0  0  0  0  0  0  0  0  0  0
  160.2850  201.2320  150.2620 O   0  0  0  0  0  1  0  0  0  0  0  0
  160.3940  206.2560  146.2280 O   0  0  0  0  0  1  0  0  0  0  0  0
  161.6230  205.7160  146.6140 C   0  0  2  0  0  3  0  0  0  0  0  0
  162.2890  205.0460  145.4570 C   0  0  0  0  0  0  0  0  0  0  0  0
  161.5860  204.8500  144.2770 O   0  0  0  0  0  0  0  0  0  0  0  0
  163.4970  204.6940  145.5300 O   0  0  0  0  0  1  0  0  0  0  0  0
  2  5  1  0  0  0  0
  3  2  2  0  0  0  0
  3  7  1  0  0  0  0
  4  1  1  0  0  0  0
  5  1  2  0  0  0  0
  6  3  1  0  0  0  0
  7  4  2  0  0  0  0
  8  2  1  0  0  0  0
  9 10  1  0  0  0  0
  9  8  1  0  0  0  0
 10 15  1  0  0  0  0
 11 12  2  0  0  0  0
 11 17  1  0  0  0  0
 12 14  1  0  0  0  0
 13 12  1  0  0  0  0
 14 16  1  0  0  0  0
 15 22  1  0  0  0  0
 17 16  2  0  0  0  0
 18 11  1  0  0  0  0
 19 13  1  0  0  0  0
 20 15  2  0  0  0  0
 21 19  2  0  0  0  0
 21 18  1  0  0  0  0
 22 19  1  0  0  0  0
 23  7  1  0  0  0  0
 24 23  1  1  0  0  0
 24 26  1  0  0  0  0
 25 29  1  0  0  0  0
 25 26  2  0  0  0  0
 27 28  2  0  0  0  0
 27 25  1  0  0  0  0
 28 24  1  0  0  0  0
 29 31  1  0  0  0  0
 30 29  2  0  0  0  0
 33 32  1  6  0  0  0
 33 28  1  0  0  0  0
 34 36  1  0  0  0  0
 34 33  1  0  0  0  0
 35 34  2  0  0  0  0
M  END
>  <MODEL>
3

>  <REMARK>
 VINA RESULT:      -7.8      4.320      6.502
  Name = 
  9 active torsions:
  status: ('A' for Active; 'I' for Inactive)
    1  A    between atoms: C_5  and  C_18
    2  A    between atoms: C_6  and  C_26
    3  A    between atoms: O_7  and  C_14
    4  A    between atoms: O_7  and  C_29
    5  A    between atoms: C_8  and  C_23
    6  A    between atoms: C_9  and  C_31
    7  A    between atoms: C_18  and  C_35
    8  A    between atoms: C_23  and  C_29
    9  A    between atoms: C_31  and  C_32
                            x       y       z     vdW  Elec       q    Type
                         _______ _______ _______ _____ _____    ______ ____

>  <TORSDO>
F 9

$$$$
=
 OpenBabel11072414363D

 36 39  0  0  1  0  0  0  0  0999 V2000
  160.7940  208.7220  152.7040 C   0  0  0  0  0  3  0  0  0  0  0  0
  161.8810  209.7240  150.7930 C   0  0  0  0  0  0  0  0  0  0  0  0
  162.1500  208.4300  150.2980 C   0  0  0  0  0  0  0  0  0  0  0  0
  161.0610  207.4860  152.2080 N   0  0  0  0  0  0  0  0  0  0  0  0
  161.1990  209.8580  152.0040 C   0  0  0  0  0  3  0  0  0  0  0  0
  162.8200  208.2430  149.1330 F   0  0  0  0  0  0  0  0  0  0  0  0
  161.7200  207.3140  151.0320 C   0  0  0  0  0  0  0  0  0  0  0  0
  162.2630  210.8970  150.1290 O   0  0  0  0  0  0  0  0  0  0  0  0
  161.9170  211.2060  148.7850 C   0  0  0  0  0  2  0  0  0  0  0  0
  161.5790  212.6820  148.6600 C   0  0  0  0  0  2  0  0  0  0  0  0
  162.3140  213.4180  142.1150 C   0  0  0  0  0  0  0  0  0  0  0  0
  161.3970  212.4360  142.3980 C   0  0  0  0  0  0  0  0  0  0  0  0
  160.7140  212.3120  143.7180 C   0  0  0  0  0  2  0  0  0  0  0  0
  161.1420  211.5270  141.0190 S   0  0  0  0  0  0  0  0  0  0  0  0
  161.9320  213.1870  147.3040 C   0  0  0  0  0  0  0  0  0  0  0  0
  162.2190  212.3780  140.0310 C   0  0  0  0  0  3  0  0  0  0  0  0
  162.7800  213.4040  140.7960 C   0  0  0  0  0  3  0  0  0  0  0  0
  162.6720  214.4370  143.1460 C   0  0  0  0  0  2  0  0  0  0  0  0
  161.5130  213.0120  144.7920 C   0  0  0  0  0  0  0  0  0  0  0  0
  162.7670  214.1230  147.1930 O   0  0  0  0  0  0  0  0  0  0  0  0
  162.3890  213.9390  144.4990 N   0  0  0  0  0  0  0  0  0  0  0  0
  161.2910  212.6230  146.1540 N   0  0  0  0  0  2  0  0  0  0  0  0
  162.0100  205.9320  150.5470 C   0  0  0  0  0  2  0  0  0  0  0  0
  160.9500  205.4800  149.5510 C   0  0  1  0  0  3  0  0  0  0  0  0
  161.5040  204.8450  147.5000 C   0  0  0  0  0  0  0  0  0  0  0  0
  161.3180  205.9090  148.2080 N   0  0  0  0  0  0  0  0  0  0  0  0
  161.3010  203.6320  148.2110 N   0  0  0  0  0  0  0  0  0  0  0  0
  160.9810  203.9960  149.4060 C   0  0  0  0  0  0  0  0  0  0  0  0
  161.8870  204.8910  146.0860 C   0  0  0  0  0  0  0  0  0  0  0  0
  161.6110  203.8150  145.2530 O   0  0  0  0  0  0  0  0  0  0  0  0
  162.4670  205.9060  145.6220 O   0  0  0  0  0  1  0  0  0  0  0  0
  161.6240  203.0640  151.4920 O   0  0  0  0  0  1  0  0  0  0  0  0
  160.6440  203.0310  150.4980 C   0  0  2  0  0  3  0  0  0  0  0  0
  160.4880  201.6460  149.9600 C   0  0  0  0  0  0  0  0  0  0  0  0
  159.3920  201.3350  149.1670 O   0  0  0  0  0  0  0  0  0  0  0  0
  161.3630  200.7680  150.1870 O   0  0  0  0  0  1  0  0  0  0  0  0
  2  5  1  0  0  0  0
  3  2  2  0  0  0  0
  3  7  1  0  0  0  0
  4  1  1  0  0  0  0
  5  1  2  0  0  0  0
  6  3  1  0  0  0  0
  7  4  2  0  0  0  0
  8  2  1  0  0  0  0
  9  8  1  0  0  0  0
 10  9  1  0  0  0  0
 11 12  2  0  0  0  0
 11 18  1  0  0  0  0
 12 13  1  0  0  0  0
 13 19  1  0  0  0  0
 14 12  1  0  0  0  0
 15 10  1  0  0  0  0
 16 17  2  0  0  0  0
 16 14  1  0  0  0  0
 17 11  1  0  0  0  0
 18 21  1  0  0  0  0
 19 22  1  0  0  0  0
 20 15  2  0  0  0  0
 21 19  2  0  0  0  0
 22 15  1  0  0  0  0
 23  7  1  0  0  0  0
 24 23  1  1  0  0  0
 25 26  2  0  0  0  0
 25 27  1  0  0  0  0
 26 24  1  0  0  0  0
 27 28  2  0  0  0  0
 28 24  1  0  0  0  0
 28 33  1  0  0  0  0
 29 25  1  0  0  0  0
 30 29  2  0  0  0  0
 31 29  1  0  0  0  0
 33 32  1  1  0  0  0
 34 36  1  0  0  0  0
 34 33  1  0  0  0  0
 35 34  2  0  0  0  0
M  END
>  <MODEL>
4

>  <REMARK>
 VINA RESULT:      -7.8      1.241      3.081
  Name = 
  9 active torsions:
  status: ('A' for Active; 'I' for Inactive)
    1  A    between atoms: C_5  and  C_18
    2  A    between atoms: C_6  and  C_26
    3  A    between atoms: O_7  and  C_14
    4  A    between atoms: O_7  and  C_29
    5  A    between atoms: C_8  and  C_23
    6  A    between atoms: C_9  and  C_31
    7  A    between atoms: C_18  and  C_35
    8  A    between atoms: C_23  and  C_29
    9  A    between atoms: C_31  and  C_32
                            x       y       z     vdW  Elec       q    Type
                         _______ _______ _______ _____ _____    ______ ____

>  <TORSDO>
F 9

$$$$
=
 OpenBabel11072414363D

 36 39  0  0  1  0  0  0  0  0999 V2000
  161.6650  208.9010  151.3500 C   0  0  0  0  0  3  0  0  0  0  0  0
  161.4080  207.1450  152.9900 C   0  0  0  0  0  0  0  0  0  0  0  0
  160.9710  206.2840  151.9610 C   0  0  0  0  0  0  0  0  0  0  0  0
  161.2440  208.0550  150.3760 N   0  0  0  0  0  0  0  0  0  0  0  0
  161.7540  208.4600  152.6700 C   0  0  0  0  0  3  0  0  0  0  0  0
  160.6110  205.0000  152.2190 F   0  0  0  0  0  0  0  0  0  0  0  0
  160.9010  206.7670  150.6470 C   0  0  0  0  0  0  0  0  0  0  0  0
  161.5190  206.7520  154.3300 O   0  0  0  0  0  0  0  0  0  0  0  0
  160.4720  206.8620  155.2860 C   0  0  0  0  0  2  0  0  0  0  0  0
  160.8700  207.8340  156.3830 C   0  0  0  0  0  2  0  0  0  0  0  0
  157.9490  213.3890  154.2510 C   0  0  0  0  0  0  0  0  0  0  0  0
  157.0150  212.4240  154.5420 C   0  0  0  0  0  0  0  0  0  0  0  0
  157.3010  211.2440  155.4090 C   0  0  0  0  0  2  0  0  0  0  0  0
  155.5580  212.8640  153.8510 S   0  0  0  0  0  0  0  0  0  0  0  0
  160.5820  209.2360  155.9700 C   0  0  0  0  0  0  0  0  0  0  0  0
  156.1060  214.3050  153.1570 C   0  0  0  0  0  3  0  0  0  0  0  0
  157.4570  214.4490  153.4840 C   0  0  0  0  0  3  0  0  0  0  0  0
  159.3290  213.2980  154.8150 C   0  0  0  0  0  2  0  0  0  0  0  0
  158.7880  210.9810  155.4650 C   0  0  0  0  0  0  0  0  0  0  0  0
  161.5390  210.0300  155.7720 O   0  0  0  0  0  0  0  0  0  0  0  0
  159.6600  211.9120  155.1760 N   0  0  0  0  0  0  0  0  0  0  0  0
  159.2210  209.6660  155.8370 N   0  0  0  0  0  2  0  0  0  0  0  0
  160.4190  205.8870  149.5410 C   0  0  0  0  0  2  0  0  0  0  0  0
  161.5430  204.9900  149.0420 C   0  0  1  0  0  3  0  0  0  0  0  0
  161.1850  202.8480  148.5920 C   0  0  0  0  0  0  0  0  0  0  0  0
  161.3850  203.6480  149.5870 N   0  0  0  0  0  0  0  0  0  0  0  0
  161.1810  203.4880  147.3240 N   0  0  0  0  0  0  0  0  0  0  0  0
  161.3870  204.7360  147.5800 C   0  0  0  0  0  0  0  0  0  0  0  0
  160.9830  201.4070  148.7630 C   0  0  0  0  0  0  0  0  0  0  0  0
  161.2780  200.5330  147.7260 O   0  0  0  0  0  0  0  0  0  0  0  0
  160.5410  200.9560  149.8520 O   0  0  0  0  0  1  0  0  0  0  0  0
  160.2230  206.2220  146.1420 O   0  0  0  0  0  1  0  0  0  0  0  0
  161.4940  205.7860  146.5210 C   0  0  2  0  0  3  0  0  0  0  0  0
  162.2510  205.2790  145.3370 C   0  0  0  0  0  0  0  0  0  0  0  0
  163.4670  204.6370  145.5210 O   0  0  0  0  0  1  0  0  0  0  0  0
  161.7740  205.3940  144.1760 O   0  0  0  0  0  0  0  0  0  0  0  0
  1  5  1  0  0  0  0
  2  8  1  0  0  0  0
  3  6  1  0  0  0  0
  3  2  1  0  0  0  0
  4  7  1  0  0  0  0
  4  1  2  0  0  0  0
  5  2  2  0  0  0  0
  7  3  2  0  0  0  0
  8  9  1  0  0  0  0
  9 10  1  0  0  0  0
 11 12  2  0  0  0  0
 11 18  1  0  0  0  0
 12 13  1  0  0  0  0
 13 19  1  0  0  0  0
 14 12  1  0  0  0  0
 15 10  1  0  0  0  0
 16 17  2  0  0  0  0
 16 14  1  0  0  0  0
 17 11  1  0  0  0  0
 18 21  1  0  0  0  0
 19 22  1  0  0  0  0
 20 15  2  0  0  0  0
 21 19  2  0  0  0  0
 22 15  1  0  0  0  0
 23  7  1  0  0  0  0
 24 23  1  1  0  0  0
 24 26  1  0  0  0  0
 25 29  1  0  0  0  0
 25 26  2  0  0  0  0
 27 28  2  0  0  0  0
 27 25  1  0  0  0  0
 28 24  1  0  0  0  0
 29 31  1  0  0  0  0
 30 29  2  0  0  0  0
 33 32  1  6  0  0  0
 33 28  1  0  0  0  0
 34 35  1  0  0  0  0
 34 33  1  0  0  0  0
 36 34  2  0  0  0  0
M  END
>  <MODEL>
5

>  <REMARK>
 VINA RESULT:      -7.6      5.257      7.782
  Name = 
  9 active torsions:
  status: ('A' for Active; 'I' for Inactive)
    1  A    between atoms: C_5  and  C_18
    2  A    between atoms: C_6  and  C_26
    3  A    between atoms: O_7  and  C_14
    4  A    between atoms: O_7  and  C_29
    5  A    between atoms: C_8  and  C_23
    6  A    between atoms: C_9  and  C_31
    7  A    between atoms: C_18  and  C_35
    8  A    between atoms: C_23  and  C_29
    9  A    between atoms: C_31  and  C_32
                            x       y       z     vdW  Elec       q    Type
                         _______ _______ _______ _____ _____    ______ ____

>  <TORSDO>
F 9

$$$$
=
 OpenBabel11072414363D

 36 39  0  0  1  0  0  0  0  0999 V2000
  161.0930  203.9100  152.1950 C   0  0  0  0  0  3  0  0  0  0  0  0
  161.2350  206.3090  151.9510 C   0  0  0  0  0  0  0  0  0  0  0  0
  160.9920  206.1580  150.5690 C   0  0  0  0  0  0  0  0  0  0  0  0
  160.8580  203.7870  150.8630 N   0  0  0  0  0  0  0  0  0  0  0  0
  161.2840  205.1710  152.7590 C   0  0  0  0  0  3  0  0  0  0  0  0
  160.9460  207.2290  149.7370 F   0  0  0  0  0  0  0  0  0  0  0  0
  160.8000  204.8710  150.0450 C   0  0  0  0  0  0  0  0  0  0  0  0
  161.4310  207.5520  152.5670 O   0  0  0  0  0  0  0  0  0  0  0  0
  160.8310  207.9400  153.7960 C   0  0  0  0  0  2  0  0  0  0  0  0
  161.3660  209.2930  154.2330 C   0  0  0  0  0  2  0  0  0  0  0  0
  161.1160  213.3650  149.0100 C   0  0  0  0  0  0  0  0  0  0  0  0
  161.9810  212.3240  148.7790 C   0  0  0  0  0  0  0  0  0  0  0  0
  161.9540  211.0510  149.5560 C   0  0  0  0  0  2  0  0  0  0  0  0
  162.9440  212.7090  147.4680 S   0  0  0  0  0  0  0  0  0  0  0  0
  160.9840  210.3490  153.2540 C   0  0  0  0  0  0  0  0  0  0  0  0
  162.2680  214.2320  147.1790 C   0  0  0  0  0  3  0  0  0  0  0  0
  161.2580  214.4370  148.1220 C   0  0  0  0  0  3  0  0  0  0  0  0
  160.0750  213.2600  150.0760 C   0  0  0  0  0  2  0  0  0  0  0  0
  161.2720  211.2610  150.8880 C   0  0  0  0  0  0  0  0  0  0  0  0
  160.1450  211.2260  153.5890 O   0  0  0  0  0  0  0  0  0  0  0  0
  160.4580  212.2660  151.0880 N   0  0  0  0  0  0  0  0  0  0  0  0
  161.5520  210.3280  151.9380 N   0  0  0  0  0  2  0  0  0  0  0  0
  160.5650  204.6760  148.5830 C   0  0  0  0  0  2  0  0  0  0  0  0
  161.6740  203.8310  147.9710 C   0  0  1  0  0  3  0  0  0  0  0  0
  161.2060  202.0520  146.7310 C   0  0  0  0  0  0  0  0  0  0  0  0
  161.2810  202.4280  147.9650 N   0  0  0  0  0  0  0  0  0  0  0  0
  161.5160  203.0740  145.7940 N   0  0  0  0  0  0  0  0  0  0  0  0
  161.7870  204.1120  146.5100 C   0  0  0  0  0  0  0  0  0  0  0  0
  160.8360  200.6900  146.3390 C   0  0  0  0  0  0  0  0  0  0  0  0
  160.0070  200.4800  145.2440 O   0  0  0  0  0  0  0  0  0  0  0  0
  161.2670  199.7050  146.9930 O   0  0  0  0  0  1  0  0  0  0  0  0
  162.3300  206.3820  146.9390 O   0  0  0  0  0  1  0  0  0  0  0  0
  162.2020  205.4260  145.9300 C   0  0  2  0  0  3  0  0  0  0  0  0
  161.2300  205.8850  144.8910 C   0  0  0  0  0  0  0  0  0  0  0  0
  161.5800  205.8290  143.5500 O   0  0  0  0  0  0  0  0  0  0  0  0
  160.0820  206.2840  145.2220 O   0  0  0  0  0  1  0  0  0  0  0  0
  1  5  1  0  0  0  0
  2  8  1  0  0  0  0
  2  5  2  0  0  0  0
  3  2  1  0  0  0  0
  4  1  2  0  0  0  0
  6  3  1  0  0  0  0
  7  3  2  0  0  0  0
  7  4  1  0  0  0  0
  8  9  1  0  0  0  0
  9 10  1  0  0  0  0
 11 18  1  0  0  0  0
 12 11  2  0  0  0  0
 12 13  1  0  0  0  0
 13 19  1  0  0  0  0
 14 12  1  0  0  0  0
 15 20  2  0  0  0  0
 15 10  1  0  0  0  0
 16 14  1  0  0  0  0
 16 17  2  0  0  0  0
 17 11  1  0  0  0  0
 18 21  1  0  0  0  0
 19 21  2  0  0  0  0
 19 22  1  0  0  0  0
 22 15  1  0  0  0  0
 23  7  1  0  0  0  0
 24 23  1  6  0  0  0
 25 26  2  0  0  0  0
 26 24  1  0  0  0  0
 27 28  2  0  0  0  0
 27 25  1  0  0  0  0
 28 24  1  0  0  0  0
 29 25  1  0  0  0  0
 29 31  1  0  0  0  0
 30 29  2  0  0  0  0
 33 28  1  0  0  0  0
 33 32  1  1  0  0  0
 34 36  1  0  0  0  0
 34 33  1  0  0  0  0
 35 34  2  0  0  0  0
M  END
>  <MODEL>
6

>  <REMARK>
 VINA RESULT:      -7.4      3.855      5.064
  Name = 
  9 active torsions:
  status: ('A' for Active; 'I' for Inactive)
    1  A    between atoms: C_5  and  C_18
    2  A    between atoms: C_6  and  C_26
    3  A    between atoms: O_7  and  C_14
    4  A    between atoms: O_7  and  C_29
    5  A    between atoms: C_8  and  C_23
    6  A    between atoms: C_9  and  C_31
    7  A    between atoms: C_18  and  C_35
    8  A    between atoms: C_23  and  C_29
    9  A    between atoms: C_31  and  C_32
                            x       y       z     vdW  Elec       q    Type
                         _______ _______ _______ _____ _____    ______ ____

>  <TORSDO>
F 9

$$$$
=
 OpenBabel11072414363D

 36 39  0  0  1  0  0  0  0  0999 V2000
  162.0550  208.7060  150.5620 C   0  0  0  0  0  3  0  0  0  0  0  0
  161.2150  207.5360  152.5030 C   0  0  0  0  0  0  0  0  0  0  0  0
  160.8180  208.7760  153.0470 C   0  0  0  0  0  0  0  0  0  0  0  0
  161.6620  209.8870  151.1040 N   0  0  0  0  0  0  0  0  0  0  0  0
  161.8370  207.5130  151.2520 C   0  0  0  0  0  3  0  0  0  0  0  0
  160.2210  208.8560  154.2640 F   0  0  0  0  0  0  0  0  0  0  0  0
  161.0510  209.9500  152.3170 C   0  0  0  0  0  0  0  0  0  0  0  0
  161.0190  206.3110  153.1520 O   0  0  0  0  0  0  0  0  0  0  0  0
  161.7860  205.1400  152.9050 C   0  0  0  0  0  2  0  0  0  0  0  0
  160.8680  203.9460  152.7090 C   0  0  0  0  0  2  0  0  0  0  0  0
  161.0290  203.5850  146.0930 C   0  0  0  0  0  0  0  0  0  0  0  0
  161.2520  204.8710  146.5200 C   0  0  0  0  0  0  0  0  0  0  0  0
  161.6820  205.2090  147.9080 C   0  0  0  0  0  2  0  0  0  0  0  0
  161.0540  205.9070  145.2230 S   0  0  0  0  0  0  0  0  0  0  0  0
  160.9240  203.4680  151.3000 C   0  0  0  0  0  0  0  0  0  0  0  0
  160.6680  204.7150  144.0880 C   0  0  0  0  0  3  0  0  0  0  0  0
  160.7070  203.4790  144.7360 C   0  0  0  0  0  3  0  0  0  0  0  0
  161.2200  202.4360  147.0280 C   0  0  0  0  0  2  0  0  0  0  0  0
  161.3270  204.0880  148.8560 C   0  0  0  0  0  0  0  0  0  0  0  0
  160.7360  202.2470  151.0540 O   0  0  0  0  0  0  0  0  0  0  0  0
  161.1100  202.8710  148.4270 N   0  0  0  0  0  0  0  0  0  0  0  0
  161.2240  204.3980  150.2520 N   0  0  0  0  0  2  0  0  0  0  0  0
  160.6640  211.2790  152.8760 C   0  0  0  0  0  2  0  0  0  0  0  0
  159.1740  211.5260  152.6880 C   0  0  1  0  0  3  0  0  0  0  0  0
  158.0550  212.8750  154.0460 C   0  0  0  0  0  0  0  0  0  0  0  0
  158.5280  211.6740  153.9850 N   0  0  0  0  0  0  0  0  0  0  0  0
  158.2950  213.6530  152.8830 N   0  0  0  0  0  0  0  0  0  0  0  0
  158.9480  212.8740  152.0890 C   0  0  0  0  0  0  0  0  0  0  0  0
  157.3330  213.3830  155.2160 C   0  0  0  0  0  0  0  0  0  0  0  0
  156.0740  213.9490  155.0670 O   0  0  0  0  0  0  0  0  0  0  0  0
  157.8520  213.3080  156.3600 O   0  0  0  0  0  1  0  0  0  0  0  0
  160.1340  214.4530  150.7730 O   0  0  0  0  0  1  0  0  0  0  0  0
  159.3860  213.2760  150.7170 C   0  0  2  0  0  3  0  0  0  0  0  0
  158.2120  213.4420  149.8070 C   0  0  0  0  0  0  0  0  0  0  0  0
  158.3730  213.2670  148.4390 O   0  0  0  0  0  0  0  0  0  0  0  0
  157.0710  213.6990  150.2740 O   0  0  0  0  0  1  0  0  0  0  0  0
  1  4  2  0  0  0  0
  1  5  1  0  0  0  0
  2  3  1  0  0  0  0
  2  8  1  0  0  0  0
  3  6  1  0  0  0  0
  4  7  1  0  0  0  0
  5  2  2  0  0  0  0
  7 23  1  0  0  0  0
  7  3  2  0  0  0  0
  9  8  1  0  0  0  0
 10  9  1  0  0  0  0
 11 12  2  0  0  0  0
 11 18  1  0  0  0  0
 12 13  1  0  0  0  0
 13 19  1  0  0  0  0
 14 12  1  0  0  0  0
 15 10  1  0  0  0  0
 16 17  2  0  0  0  0
 16 14  1  0  0  0  0
 17 11  1  0  0  0  0
 18 21  1  0  0  0  0
 19 22  1  0  0  0  0
 20 15  2  0  0  0  0
 21 19  2  0  0  0  0
 22 15  1  0  0  0  0
 24 23  1  1  0  0  0
 24 26  1  0  0  0  0
 25 29  1  0  0  0  0
 26 25  2  0  0  0  0
 27 25  1  0  0  0  0
 28 24  1  0  0  0  0
 28 27  2  0  0  0  0
 29 31  1  0  0  0  0
 30 29  2  0  0  0  0
 33 32  1  1  0  0  0
 33 28  1  0  0  0  0
 34 36  1  0  0  0  0
 34 33  1  0  0  0  0
 35 34  2  0  0  0  0
M  END
>  <MODEL>
7

>  <REMARK>
 VINA RESULT:      -7.0      4.984      9.373
  Name = 
  9 active torsions:
  status: ('A' for Active; 'I' for Inactive)
    1  A    between atoms: C_5  and  C_18
    2  A    between atoms: C_6  and  C_26
    3  A    between atoms: O_7  and  C_14
    4  A    between atoms: O_7  and  C_29
    5  A    between atoms: C_8  and  C_23
    6  A    between atoms: C_9  and  C_31
    7  A    between atoms: C_18  and  C_35
    8  A    between atoms: C_23  and  C_29
    9  A    between atoms: C_31  and  C_32
                            x       y       z     vdW  Elec       q    Type
                         _______ _______ _______ _____ _____    ______ ____

>  <TORSDO>
F 9

$$$$
=
 OpenBabel11072414363D

 36 39  0  0  1  0  0  0  0  0999 V2000
  161.1310  203.3960  151.8650 C   0  0  0  0  0  3  0  0  0  0  0  0
  161.2140  205.7940  152.1470 C   0  0  0  0  0  0  0  0  0  0  0  0
  161.0760  205.9380  150.7500 C   0  0  0  0  0  0  0  0  0  0  0  0
  160.9970  203.5570  150.5240 N   0  0  0  0  0  0  0  0  0  0  0  0
  161.2410  204.5100  152.6970 C   0  0  0  0  0  3  0  0  0  0  0  0
  161.0560  207.1620  150.1640 F   0  0  0  0  0  0  0  0  0  0  0  0
  160.9630  204.7900  149.9520 C   0  0  0  0  0  0  0  0  0  0  0  0
  161.3250  206.8790  153.0260 O   0  0  0  0  0  0  0  0  0  0  0  0
  160.7690  206.9110  154.3350 C   0  0  0  0  0  2  0  0  0  0  0  0
  161.5910  207.8230  155.2280 C   0  0  0  0  0  2  0  0  0  0  0  0
  157.9720  213.3330  154.5430 C   0  0  0  0  0  0  0  0  0  0  0  0
  157.1780  212.2620  154.8700 C   0  0  0  0  0  0  0  0  0  0  0  0
  157.7060  211.0100  155.4840 C   0  0  0  0  0  2  0  0  0  0  0  0
  155.5850  212.6610  154.5540 S   0  0  0  0  0  0  0  0  0  0  0  0
  161.1430  209.2370  155.0870 C   0  0  0  0  0  0  0  0  0  0  0  0
  155.8920  214.2210  153.9800 C   0  0  0  0  0  3  0  0  0  0  0  0
  157.2700  214.4380  154.0490 C   0  0  0  0  0  3  0  0  0  0  0  0
  159.4430  213.2900  154.8020 C   0  0  0  0  0  2  0  0  0  0  0  0
  159.1850  210.8700  155.2050 C   0  0  0  0  0  0  0  0  0  0  0  0
  161.9900  210.1290  154.8190 O   0  0  0  0  0  0  0  0  0  0  0  0
  159.9210  211.9030  154.8860 N   0  0  0  0  0  0  0  0  0  0  0  0
  159.7620  209.5610  155.2900 N   0  0  0  0  0  2  0  0  0  0  0  0
  160.8410  204.9090  148.4690 C   0  0  0  0  0  2  0  0  0  0  0  0
  161.8410  203.9950  147.7740 C   0  0  1  0  0  3  0  0  0  0  0  0
  161.1710  202.1950  146.6650 C   0  0  0  0  0  0  0  0  0  0  0  0
  161.3960  202.6110  147.8680 N   0  0  0  0  0  0  0  0  0  0  0  0
  161.4150  203.1680  145.6600 N   0  0  0  0  0  0  0  0  0  0  0  0
  161.8040  204.2190  146.2990 C   0  0  0  0  0  0  0  0  0  0  0  0
  160.7060  200.8370  146.3710 C   0  0  0  0  0  0  0  0  0  0  0  0
  161.5190  199.7460  146.6460 O   0  0  0  0  0  1  0  0  0  0  0  0
  159.5670  200.6550  145.8670 O   0  0  0  0  0  0  0  0  0  0  0  0
  162.3330  206.5170  146.5640 O   0  0  0  0  0  1  0  0  0  0  0  0
  162.2030  205.4920  145.6250 C   0  0  2  0  0  3  0  0  0  0  0  0
  161.2200  205.8690  144.5650 C   0  0  0  0  0  0  0  0  0  0  0  0
  161.5930  205.8180  143.2300 O   0  0  0  0  0  0  0  0  0  0  0  0
  160.0420  206.1960  144.8730 O   0  0  0  0  0  1  0  0  0  0  0  0
  1  5  1  0  0  0  0
  2  5  2  0  0  0  0
  2  8  1  0  0  0  0
  3  2  1  0  0  0  0
  4  1  2  0  0  0  0
  6  3  1  0  0  0  0
  7  4  1  0  0  0  0
  7  3  2  0  0  0  0
  8  9  1  0  0  0  0
  9 10  1  0  0  0  0
 11 18  1  0  0  0  0
 11 12  2  0  0  0  0
 12 13  1  0  0  0  0
 14 12  1  0  0  0  0
 15 10  1  0  0  0  0
 15 22  1  0  0  0  0
 16 17  2  0  0  0  0
 16 14  1  0  0  0  0
 17 11  1  0  0  0  0
 18 21  1  0  0  0  0
 19 22  1  0  0  0  0
 19 13  1  0  0  0  0
 20 15  2  0  0  0  0
 21 19  2  0  0  0  0
 23  7  1  0  0  0  0
 24 26  1  0  0  0  0
 24 23  1  1  0  0  0
 25 26  2  0  0  0  0
 27 28  2  0  0  0  0
 27 25  1  0  0  0  0
 28 24  1  0  0  0  0
 29 30  1  0  0  0  0
 29 25  1  0  0  0  0
 31 29  2  0  0  0  0
 33 28  1  0  0  0  0
 33 32  1  1  0  0  0
 34 36  1  0  0  0  0
 34 33  1  0  0  0  0
 35 34  2  0  0  0  0
M  END
>  <MODEL>
8

>  <REMARK>
 VINA RESULT:      -6.9      5.558      7.871
  Name = 
  9 active torsions:
  status: ('A' for Active; 'I' for Inactive)
    1  A    between atoms: C_5  and  C_18
    2  A    between atoms: C_6  and  C_26
    3  A    between atoms: O_7  and  C_14
    4  A    between atoms: O_7  and  C_29
    5  A    between atoms: C_8  and  C_23
    6  A    between atoms: C_9  and  C_31
    7  A    between atoms: C_18  and  C_35
    8  A    between atoms: C_23  and  C_29
    9  A    between atoms: C_31  and  C_32
                            x       y       z     vdW  Elec       q    Type
                         _______ _______ _______ _____ _____    ______ ____

>  <TORSDO>
F 9

$$$$
=
 OpenBabel11072414363D

 36 39  0  0  1  0  0  0  0  0999 V2000
  161.4460  204.3360  152.0880 C   0  0  0  0  0  3  0  0  0  0  0  0
  161.2080  206.7310  151.8780 C   0  0  0  0  0  0  0  0  0  0  0  0
  160.9960  206.5630  150.4930 C   0  0  0  0  0  0  0  0  0  0  0  0
  161.2380  204.1970  150.7540 N   0  0  0  0  0  0  0  0  0  0  0  0
  161.4340  205.6030  152.6700 C   0  0  0  0  0  3  0  0  0  0  0  0
  160.7840  207.6260  149.6760 F   0  0  0  0  0  0  0  0  0  0  0  0
  161.0110  205.2700  149.9500 C   0  0  0  0  0  0  0  0  0  0  0  0
  161.2030  207.9800  152.5120 O   0  0  0  0  0  0  0  0  0  0  0  0
  160.9290  208.1760  153.8940 C   0  0  0  0  0  2  0  0  0  0  0  0
  161.1910  209.6220  154.2770 C   0  0  0  0  0  2  0  0  0  0  0  0
  158.8740  213.6270  149.5320 C   0  0  0  0  0  0  0  0  0  0  0  0
  157.9650  213.5010  150.5540 C   0  0  0  0  0  0  0  0  0  0  0  0
  158.3320  213.0240  151.9190 C   0  0  0  0  0  2  0  0  0  0  0  0
  156.4790  214.0490  150.0200 S   0  0  0  0  0  0  0  0  0  0  0  0
  161.0570  210.5110  153.0890 C   0  0  0  0  0  0  0  0  0  0  0  0
  156.9790  214.4530  148.4560 C   0  0  0  0  0  3  0  0  0  0  0  0
  158.3410  214.1630  148.3550 C   0  0  0  0  0  3  0  0  0  0  0  0
  160.3120  213.2900  149.7540 C   0  0  0  0  0  2  0  0  0  0  0  0
  159.6190  212.2340  151.8730 C   0  0  0  0  0  0  0  0  0  0  0  0
  161.9890  210.5580  152.2440 O   0  0  0  0  0  0  0  0  0  0  0  0
  160.4670  212.3650  150.8850 N   0  0  0  0  0  0  0  0  0  0  0  0
  159.8840  211.3230  152.9460 N   0  0  0  0  0  2  0  0  0  0  0  0
  160.8150  205.0610  148.4850 C   0  0  0  0  0  2  0  0  0  0  0  0
  161.9220  204.1850  147.9150 C   0  0  1  0  0  3  0  0  0  0  0  0
  161.4690  202.2150  147.0030 C   0  0  0  0  0  0  0  0  0  0  0  0
  161.6150  202.7810  148.1550 N   0  0  0  0  0  0  0  0  0  0  0  0
  161.6440  203.0920  145.8990 N   0  0  0  0  0  0  0  0  0  0  0  0
  161.9060  204.2410  146.4240 C   0  0  0  0  0  0  0  0  0  0  0  0
  161.1520  200.7920  146.8540 C   0  0  0  0  0  0  0  0  0  0  0  0
  160.7690  200.2880  145.6180 O   0  0  0  0  0  0  0  0  0  0  0  0
  161.2250  200.0220  147.8460 O   0  0  0  0  0  1  0  0  0  0  0  0
  162.3650  206.5690  146.4600 O   0  0  0  0  0  1  0  0  0  0  0  0
  162.1960  205.4660  145.6200 C   0  0  2  0  0  3  0  0  0  0  0  0
  161.1110  205.7250  144.6250 C   0  0  0  0  0  0  0  0  0  0  0  0
  159.9240  206.3120  145.0400 O   0  0  0  0  0  1  0  0  0  0  0  0
  161.2810  205.4510  143.4070 O   0  0  0  0  0  0  0  0  0  0  0  0
  1  5  1  0  0  0  0
  2  8  1  0  0  0  0
  2  5  2  0  0  0  0
  3  2  1  0  0  0  0
  4  1  2  0  0  0  0
  6  3  1  0  0  0  0
  7  3  2  0  0  0  0
  7  4  1  0  0  0  0
  8  9  1  0  0  0  0
  9 10  1  0  0  0  0
 11 18  1  0  0  0  0
 11 12  2  0  0  0  0
 12 13  1  0  0  0  0
 14 12  1  0  0  0  0
 15 10  1  0  0  0  0
 16 14  1  0  0  0  0
 17 16  2  0  0  0  0
 17 11  1  0  0  0  0
 18 21  1  0  0  0  0
 19 13  1  0  0  0  0
 19 22  1  0  0  0  0
 20 15  2  0  0  0  0
 21 19  2  0  0  0  0
 22 15  1  0  0  0  0
 23  7  1  0  0  0  0
 24 26  1  0  0  0  0
 24 23  1  1  0  0  0
 25 26  2  0  0  0  0
 27 28  2  0  0  0  0
 27 25  1  0  0  0  0
 28 24  1  0  0  0  0
 29 25  1  0  0  0  0
 29 31  1  0  0  0  0
 30 29  2  0  0  0  0
 33 28  1  0  0  0  0
 33 32  1  1  0  0  0
 34 35  1  0  0  0  0
 34 33  1  0  0  0  0
 36 34  2  0  0  0  0
M  END
>  <MODEL>
9

>  <REMARK>
 VINA RESULT:      -6.9      4.350      5.485
  Name = 
  9 active torsions:
  status: ('A' for Active; 'I' for Inactive)
    1  A    between atoms: C_5  and  C_18
    2  A    between atoms: C_6  and  C_26
    3  A    between atoms: O_7  and  C_14
    4  A    between atoms: O_7  and  C_29
    5  A    between atoms: C_8  and  C_23
    6  A    between atoms: C_9  and  C_31
    7  A    between atoms: C_18  and  C_35
    8  A    between atoms: C_23  and  C_29
    9  A    between atoms: C_31  and  C_32
                            x       y       z     vdW  Elec       q    Type
                         _______ _______ _______ _____ _____    ______ ____

>  <TORSDO>
F 9

$$$$
