=
 OpenBabel11072412253D

 33 36  0  0  1  0  0  0  0  0999 V2000
  161.5790  207.8330  153.2500 C   0  0  2  0  0  3  0  0  0  0  0  0
  160.6100  208.8940  153.7430 C   0  0  2  0  0  3  0  0  0  0  0  0
  158.0690  212.5090  150.7470 O   0  0  0  0  0  1  0  0  0  0  0  0
  161.0710  208.8720  152.2760 C   0  0  1  0  0  3  0  0  0  0  0  0
  159.7110  212.1370  153.5300 C   0  0  0  0  0  3  0  0  0  0  0  0
  159.1180  213.2340  151.3190 C   0  0  1  0  0  3  0  0  0  0  0  0
  159.0540  213.1510  152.8170 C   0  0  0  0  0  0  0  0  0  0  0  0
  160.2890  211.0300  155.6550 N   0  0  0  0  0  2  0  0  0  0  0  0
  158.2560  214.0660  153.5090 C   0  0  0  0  0  3  0  0  0  0  0  0
  162.5860  210.7470  154.3960 O   0  0  0  0  0  0  0  0  0  0  0  0
  158.6540  212.9070  157.0220 N   0  0  0  0  0  1  0  0  0  0  0  0
  158.7950  212.9770  155.6060 C   0  0  0  0  0  0  0  0  0  0  0  0
  161.9820  210.9100  151.1800 C   0  0  0  0  0  3  0  0  0  0  0  0
  160.4750  212.8170  150.7370 C   0  0  1  0  0  3  0  0  0  0  0  0
  158.1290  213.9810  154.8980 C   0  0  0  0  0  3  0  0  0  0  0  0
  162.1840  209.7990  151.8950 C   0  0  0  0  0  3  0  0  0  0  0  0
  159.5980  212.0490  154.9240 C   0  0  0  0  0  0  0  0  0  0  0  0
  161.4440  209.9440  154.9520 S   0  0  0  0  0  0  0  0  0  0  0  0
  161.9760  209.0620  156.0440 O   0  0  0  0  0  0  0  0  0  0  0  0
  160.6280  211.3040  150.6850 C   0  0  0  0  0  2  0  0  0  0  0  0
  160.8980  212.2850  147.9510 O   0  0  0  0  0  0  0  0  0  0  0  0
  160.7090  213.5310  149.0790 P   0  0  0  0  0  0  0  0  0  0  0  0
  159.3520  214.4530  148.6680 O   0  0  0  0  0  1  0  0  0  0  0  0
  161.9360  214.4130  149.0650 O   0  0  0  0  0  1  0  0  0  0  0  0
  160.8240  206.5380  153.0330 C   0  0  0  0  0  2  0  0  0  0  0  0
  161.9010  205.8870  150.8030 C   0  0  1  0  0  0  0  0  0  0  0  0
  160.8380  204.8450  151.1220 C   0  0  1  0  0  0  0  0  0  0  0  0
  161.2020  203.7810  152.1590 C   0  0  0  0  0  1  0  0  0  0  0  0
  160.6240  206.3110  151.5360 C   0  0  1  0  0  3  0  0  0  0  0  0
  163.2270  205.8660  151.5600 C   0  0  0  0  0  1  0  0  0  0  0  0
  161.9420  206.3070  149.4720 O   0  0  0  0  0  1  0  0  0  0  0  0
  160.1010  204.4300  150.0040 O   0  0  0  0  0  0  0  0  0  0  0  0
  160.7630  203.4010  149.5100 O   0  0  0  0  0  1  0  0  0  0  0  0
  1 25  1  6  0  0  0
  1  2  1  0  0  0  0
  2 18  1  1  0  0  0
  4 16  1  1  0  0  0
  4  1  1  0  0  0  0
  4  2  1  0  0  0  0
  5 17  1  0  0  0  0
  6  3  1  6  0  0  0
  6  7  1  0  0  0  0
  7  9  1  0  0  0  0
  7  5  2  0  0  0  0
  9 15  2  0  0  0  0
 10 18  2  0  0  0  0
 12 11  1  0  0  0  0
 13 16  2  0  0  0  0
 14 22  1  6  0  0  0
 14  6  1  0  0  0  0
 15 12  1  0  0  0  0
 17 12  2  0  0  0  0
 17  8  1  0  0  0  0
 18  8  1  0  0  0  0
 18 19  2  0  0  0  0
 20 14  1  0  0  0  0
 20 13  1  0  0  0  0
 21 22  2  0  0  0  0
 23 22  1  0  0  0  0
 24 22  1  0  0  0  0
 26 27  1  0  0  0  0
 26 29  1  0  0  0  0
 26 30  1  1  0  0  0
 27 29  1  0  0  0  0
 27 28  1  1  0  0  0
 29 25  1  1  0  0  0
 31 26  1  0  0  0  0
 32 27  1  0  0  0  0
 33 32  1  0  0  0  0
M  END
>  <MODEL>
1

>  <REMARK>
 VINA RESULT:      -4.6      0.000      0.000
  Name = 
  4 active torsions:
  status: ('A' for Active; 'I' for Inactive)
    1  A    between atoms: C_2  and  C_33
    2  A    between atoms: C_8  and  O_13
    3  A    between atoms: P_12  and  C_21
    4  A    between atoms: C_24  and  C_33
                            x       y       z     vdW  Elec       q    Type
                         _______ _______ _______ _____ _____    ______ ____

>  <TORSDO>
F 4

$$$$
=
 OpenBabel11072412253D

 33 36  0  0  1  0  0  0  0  0999 V2000
  161.5440  207.8120  152.1080 C   0  0  2  0  0  3  0  0  0  0  0  0
  160.5370  208.9130  152.3900 C   0  0  2  0  0  3  0  0  0  0  0  0
  158.8640  212.6420  148.9540 O   0  0  0  0  0  1  0  0  0  0  0  0
  161.3050  208.8750  151.0580 C   0  0  1  0  0  3  0  0  0  0  0  0
  159.8430  212.1930  152.0240 C   0  0  0  0  0  3  0  0  0  0  0  0
  159.7930  213.3200  149.7490 C   0  0  1  0  0  3  0  0  0  0  0  0
  159.4000  213.2360  151.1970 C   0  0  0  0  0  0  0  0  0  0  0  0
  159.8960  211.0570  154.2100 N   0  0  0  0  0  2  0  0  0  0  0  0
  158.5090  214.1840  151.7090 C   0  0  0  0  0  3  0  0  0  0  0  0
  162.3980  210.6770  153.4790 O   0  0  0  0  0  0  0  0  0  0  0  0
  158.0820  213.0000  155.2100 N   0  0  0  0  0  1  0  0  0  0  0  0
  158.5310  213.0670  153.8600 C   0  0  0  0  0  0  0  0  0  0  0  0
  162.5190  210.8740  150.2110 C   0  0  0  0  0  3  0  0  0  0  0  0
  161.2260  212.8460  149.4730 C   0  0  1  0  0  3  0  0  0  0  0  0
  158.0790  214.1010  153.0360 C   0  0  0  0  0  3  0  0  0  0  0  0
  162.5120  209.7540  150.9400 C   0  0  0  0  0  3  0  0  0  0  0  0
  159.4240  212.1070  153.3580 C   0  0  0  0  0  0  0  0  0  0  0  0
  161.1290  209.9240  153.7630 S   0  0  0  0  0  0  0  0  0  0  0  0
  161.3730  209.0160  154.9350 O   0  0  0  0  0  0  0  0  0  0  0  0
  161.3220  211.3270  149.4380 C   0  0  0  0  0  2  0  0  0  0  0  0
  162.3180  212.3030  146.8780 O   0  0  0  0  0  0  0  0  0  0  0  0
  161.8450  213.5530  147.9150 P   0  0  0  0  0  0  0  0  0  0  0  0
  160.6170  214.4530  147.1780 O   0  0  0  0  0  1  0  0  0  0  0  0
  163.0290  214.4520  148.1900 O   0  0  0  0  0  1  0  0  0  0  0  0
  160.8010  206.5520  151.7150 C   0  0  0  0  0  2  0  0  0  0  0  0
  161.0580  204.3550  150.4270 C   0  0  1  0  0  0  0  0  0  0  0  0
  161.2890  205.4950  149.4430 C   0  0  1  0  0  0  0  0  0  0  0  0
  160.0480  206.2170  148.9180 C   0  0  0  0  0  1  0  0  0  0  0  0
  161.7290  205.6450  150.9100 C   0  0  1  0  0  3  0  0  0  0  0  0
  159.6380  204.0320  150.8850 C   0  0  0  0  0  1  0  0  0  0  0  0
  161.9410  203.2800  150.3090 O   0  0  0  0  0  1  0  0  0  0  0  0
  162.3270  205.2530  148.5340 O   0  0  0  0  0  0  0  0  0  0  0  0
  161.7690  205.3130  147.3400 O   0  0  0  0  0  1  0  0  0  0  0  0
  1 25  1  6  0  0  0
  1  2  1  0  0  0  0
  2 18  1  1  0  0  0
  4 16  1  1  0  0  0
  4  1  1  0  0  0  0
  4  2  1  0  0  0  0
  5 17  1  0  0  0  0
  6  3  1  6  0  0  0
  6  7  1  0  0  0  0
  7  9  1  0  0  0  0
  7  5  2  0  0  0  0
  9 15  2  0  0  0  0
 10 18  2  0  0  0  0
 12 11  1  0  0  0  0
 13 16  2  0  0  0  0
 14 22  1  6  0  0  0
 14  6  1  0  0  0  0
 15 12  1  0  0  0  0
 17 12  2  0  0  0  0
 17  8  1  0  0  0  0
 18  8  1  0  0  0  0
 18 19  2  0  0  0  0
 20 14  1  0  0  0  0
 20 13  1  0  0  0  0
 21 22  2  0  0  0  0
 22 24  1  0  0  0  0
 23 22  1  0  0  0  0
 26 30  1  1  0  0  0
 26 29  1  0  0  0  0
 27 28  1  6  0  0  0
 27 26  1  0  0  0  0
 27 29  1  0  0  0  0
 29 25  1  1  0  0  0
 31 26  1  0  0  0  0
 32 27  1  0  0  0  0
 33 32  1  0  0  0  0
M  END
>  <MODEL>
2

>  <REMARK>
 VINA RESULT:      -4.2      1.391      1.975
  Name = 
  4 active torsions:
  status: ('A' for Active; 'I' for Inactive)
    1  A    between atoms: C_2  and  C_33
    2  A    between atoms: C_8  and  O_13
    3  A    between atoms: P_12  and  C_21
    4  A    between atoms: C_24  and  C_33
                            x       y       z     vdW  Elec       q    Type
                         _______ _______ _______ _____ _____    ______ ____

>  <TORSDO>
F 4

$$$$
=
 OpenBabel11072412253D

 33 36  0  0  1  0  0  0  0  0999 V2000
  161.5130  206.5660  149.0370 C   0  0  2  0  0  3  0  0  0  0  0  0
  160.8190  207.4980  150.0160 C   0  0  2  0  0  3  0  0  0  0  0  0
  159.3410  212.5440  149.0930 O   0  0  0  0  0  1  0  0  0  0  0  0
  161.3070  208.0140  148.6520 C   0  0  1  0  0  3  0  0  0  0  0  0
  160.7530  210.6160  151.2990 C   0  0  0  0  0  3  0  0  0  0  0  0
  160.5170  212.6770  149.8350 C   0  0  1  0  0  3  0  0  0  0  0  0
  160.3870  211.9620  151.1500 C   0  0  0  0  0  0  0  0  0  0  0  0
  160.9730  208.5880  152.6830 N   0  0  0  0  0  2  0  0  0  0  0  0
  159.8170  212.6400  152.2320 C   0  0  0  0  0  3  0  0  0  0  0  0
  163.1690  208.3560  151.2450 O   0  0  0  0  0  0  0  0  0  0  0  0
  159.8070  210.0000  154.8530 N   0  0  0  0  0  1  0  0  0  0  0  0
  160.0050  210.6480  153.6010 C   0  0  0  0  0  0  0  0  0  0  0  0
  162.7260  210.0500  148.4760 C   0  0  0  0  0  3  0  0  0  0  0  0
  161.7480  212.2510  149.0240 C   0  0  1  0  0  3  0  0  0  0  0  0
  159.6300  211.9860  153.4530 C   0  0  0  0  0  3  0  0  0  0  0  0
  162.6250  208.7250  148.6220 C   0  0  0  0  0  3  0  0  0  0  0  0
  160.5770  209.9550  152.5220 C   0  0  0  0  0  0  0  0  0  0  0  0
  161.8470  207.6840  151.4890 S   0  0  0  0  0  0  0  0  0  0  0  0
  162.1110  206.3140  152.0460 O   0  0  0  0  0  0  0  0  0  0  0  0
  161.5260  210.9260  148.3110 C   0  0  0  0  0  2  0  0  0  0  0  0
  162.8120  212.8210  146.4230 O   0  0  0  0  0  0  0  0  0  0  0  0
  162.2030  213.5430  147.8250 P   0  0  0  0  0  0  0  0  0  0  0  0
  160.8320  214.4530  147.4320 O   0  0  0  0  0  1  0  0  0  0  0  0
  163.2530  214.4530  148.4200 O   0  0  0  0  0  1  0  0  0  0  0  0
  160.4700  205.7150  148.3420 C   0  0  0  0  0  2  0  0  0  0  0  0
  162.1590  205.3580  146.4530 C   0  0  1  0  0  0  0  0  0  0  0  0
  161.0460  204.3340  146.2740 C   0  0  1  0  0  0  0  0  0  0  0  0
  161.0810  203.1080  147.1870 C   0  0  0  0  0  1  0  0  0  0  0  0
  160.7230  205.7300  146.8360 C   0  0  1  0  0  3  0  0  0  0  0  0
  163.2000  205.1540  147.5500 C   0  0  0  0  0  1  0  0  0  0  0  0
  162.5960  205.9720  145.2770 O   0  0  0  0  0  1  0  0  0  0  0  0
  160.6730  204.1320  144.9380 O   0  0  0  0  0  0  0  0  0  0  0  0
  160.3500  202.8560  144.8530 O   0  0  0  0  0  1  0  0  0  0  0  0
  1 25  1  6  0  0  0
  1  2  1  0  0  0  0
  2 18  1  1  0  0  0
  4 16  1  1  0  0  0
  4  1  1  0  0  0  0
  4  2  1  0  0  0  0
  5 17  1  0  0  0  0
  6  3  1  6  0  0  0
  6  7  1  0  0  0  0
  7  5  2  0  0  0  0
  7  9  1  0  0  0  0
  9 15  2  0  0  0  0
 10 18  2  0  0  0  0
 12 11  1  0  0  0  0
 13 16  2  0  0  0  0
 14 22  1  6  0  0  0
 14  6  1  0  0  0  0
 15 12  1  0  0  0  0
 17  8  1  0  0  0  0
 17 12  2  0  0  0  0
 18 19  2  0  0  0  0
 18  8  1  0  0  0  0
 20 13  1  0  0  0  0
 20 14  1  0  0  0  0
 21 22  2  0  0  0  0
 22 24  1  0  0  0  0
 23 22  1  0  0  0  0
 26 29  1  0  0  0  0
 26 30  1  1  0  0  0
 27 26  1  0  0  0  0
 27 29  1  0  0  0  0
 27 28  1  1  0  0  0
 29 25  1  1  0  0  0
 31 26  1  0  0  0  0
 32 27  1  0  0  0  0
 33 32  1  0  0  0  0
M  END
>  <MODEL>
3

>  <REMARK>
 VINA RESULT:      -3.1      2.950      3.651
  Name = 
  4 active torsions:
  status: ('A' for Active; 'I' for Inactive)
    1  A    between atoms: C_2  and  C_33
    2  A    between atoms: C_8  and  O_13
    3  A    between atoms: P_12  and  C_21
    4  A    between atoms: C_24  and  C_33
                            x       y       z     vdW  Elec       q    Type
                         _______ _______ _______ _____ _____    ______ ____

>  <TORSDO>
F 4

$$$$
=
 OpenBabel11072412253D

 33 36  0  0  1  0  0  0  0  0999 V2000
  159.7020  209.3460  155.2750 C   0  0  2  0  0  3  0  0  0  0  0  0
  159.9390  209.5520  153.7890 C   0  0  2  0  0  3  0  0  0  0  0  0
  159.6920  205.8150  149.9850 O   0  0  0  0  0  1  0  0  0  0  0  0
  159.7410  208.1390  154.3640 C   0  0  1  0  0  3  0  0  0  0  0  0
  161.4550  208.3410  151.0310 C   0  0  0  0  0  3  0  0  0  0  0  0
  161.0640  205.9730  150.2020 C   0  0  1  0  0  3  0  0  0  0  0  0
  161.4640  207.4050  149.9860 C   0  0  0  0  0  0  0  0  0  0  0  0
  161.7990  210.6330  151.8670 N   0  0  0  0  0  2  0  0  0  0  0  0
  161.7820  207.8280  148.6920 C   0  0  0  0  0  3  0  0  0  0  0  0
  162.7090  209.2890  153.9420 O   0  0  0  0  0  0  0  0  0  0  0  0
  162.4340  211.4520  149.2230 N   0  0  0  0  0  1  0  0  0  0  0  0
  162.1030  210.0930  149.4930 C   0  0  0  0  0  0  0  0  0  0  0  0
  161.3500  206.3080  153.8670 C   0  0  0  0  0  3  0  0  0  0  0  0
  161.4880  205.4160  151.5670 C   0  0  1  0  0  3  0  0  0  0  0  0
  162.1030  209.1660  148.4470 C   0  0  0  0  0  3  0  0  0  0  0  0
  160.9740  207.3340  154.6370 C   0  0  0  0  0  3  0  0  0  0  0  0
  161.7840  209.6830  150.7970 C   0  0  0  0  0  0  0  0  0  0  0  0
  161.5990  210.2170  153.5380 S   0  0  0  0  0  0  0  0  0  0  0  0
  161.7210  211.4770  154.3480 O   0  0  0  0  0  0  0  0  0  0  0  0
  160.5540  205.8720  152.6790 C   0  0  0  0  0  2  0  0  0  0  0  0
  160.4490  202.9550  152.6090 O   0  0  0  0  0  1  0  0  0  0  0  0
  161.5710  203.5980  151.5200 P   0  0  0  0  0  0  0  0  0  0  0  0
  161.2050  203.0590  149.9590 O   0  0  0  0  0  0  0  0  0  0  0  0
  162.9600  203.1350  151.8960 O   0  0  0  0  0  1  0  0  0  0  0  0
  158.2600  209.6780  155.5970 C   0  0  0  0  0  2  0  0  0  0  0  0
  157.8100  212.1720  155.2380 C   0  0  1  0  0  0  0  0  0  0  0  0
  156.7640  211.6520  156.2150 C   0  0  1  0  0  0  0  0  0  0  0  0
  155.5960  210.8640  155.6220 C   0  0  0  0  0  1  0  0  0  0  0  0
  158.1870  211.0660  156.2290 C   0  0  1  0  0  3  0  0  0  0  0  0
  157.6860  211.8380  153.7540 C   0  0  0  0  0  1  0  0  0  0  0  0
  158.3580  213.4160  155.5600 O   0  0  0  0  0  1  0  0  0  0  0  0
  156.4770  212.5400  157.2610 O   0  0  0  0  0  0  0  0  0  0  0  0
  155.2870  213.0360  156.9830 O   0  0  0  0  0  1  0  0  0  0  0  0
  1 25  1  6  0  0  0
  2 18  1  1  0  0  0
  2  4  1  0  0  0  0
  2  1  1  0  0  0  0
  4 16  1  1  0  0  0
  4  1  1  0  0  0  0
  6  3  1  1  0  0  0
  6 14  1  0  0  0  0
  7  6  1  0  0  0  0
  7  5  2  0  0  0  0
  8 18  1  0  0  0  0
  9  7  1  0  0  0  0
 11 12  1  0  0  0  0
 12 17  2  0  0  0  0
 13 16  2  0  0  0  0
 14 22  1  6  0  0  0
 14 20  1  0  0  0  0
 15  9  2  0  0  0  0
 15 12  1  0  0  0  0
 17  5  1  0  0  0  0
 17  8  1  0  0  0  0
 18 10  2  0  0  0  0
 18 19  2  0  0  0  0
 20 13  1  0  0  0  0
 22 24  1  0  0  0  0
 22 21  1  0  0  0  0
 23 22  2  0  0  0  0
 26 30  1  6  0  0  0
 26 31  1  0  0  0  0
 26 27  1  0  0  0  0
 26 29  1  0  0  0  0
 27 28  1  6  0  0  0
 27 29  1  0  0  0  0
 27 32  1  0  0  0  0
 29 25  1  6  0  0  0
 33 32  1  0  0  0  0
M  END
>  <MODEL>
4

>  <REMARK>
 VINA RESULT:      -2.7      3.468      7.733
  Name = 
  4 active torsions:
  status: ('A' for Active; 'I' for Inactive)
    1  A    between atoms: C_2  and  C_33
    2  A    between atoms: C_8  and  O_13
    3  A    between atoms: P_12  and  C_21
    4  A    between atoms: C_24  and  C_33
                            x       y       z     vdW  Elec       q    Type
                         _______ _______ _______ _____ _____    ______ ____

>  <TORSDO>
F 4

$$$$
=
 OpenBabel11072412253D

 33 36  0  0  1  0  0  0  0  0999 V2000
  159.7240  209.4760  155.2670 C   0  0  2  0  0  3  0  0  0  0  0  0
  159.9340  209.6530  153.7740 C   0  0  2  0  0  3  0  0  0  0  0  0
  159.6480  205.8350  150.0530 O   0  0  0  0  0  1  0  0  0  0  0  0
  159.7550  208.2510  154.3810 C   0  0  1  0  0  3  0  0  0  0  0  0
  161.4110  208.3940  151.0160 C   0  0  0  0  0  3  0  0  0  0  0  0
  161.0220  206.0070  150.2430 C   0  0  1  0  0  3  0  0  0  0  0  0
  161.4090  207.4370  149.9900 C   0  0  0  0  0  0  0  0  0  0  0  0
  161.7540  210.7060  151.7980 N   0  0  0  0  0  2  0  0  0  0  0  0
  161.7030  207.8340  148.6830 C   0  0  0  0  0  3  0  0  0  0  0  0
  162.7080  209.4110  153.8850 O   0  0  0  0  0  0  0  0  0  0  0  0
  162.3390  211.4720  149.1270 N   0  0  0  0  0  1  0  0  0  0  0  0
  162.0220  210.1170  149.4310 C   0  0  0  0  0  0  0  0  0  0  0  0
  161.3680  206.4210  153.8950 C   0  0  0  0  0  3  0  0  0  0  0  0
  161.4730  205.4820  151.6120 C   0  0  1  0  0  3  0  0  0  0  0  0
  162.0110  209.1690  148.4050 C   0  0  0  0  0  3  0  0  0  0  0  0
  160.9990  207.4600  154.6500 C   0  0  0  0  0  3  0  0  0  0  0  0
  161.7270  209.7330  150.7480 C   0  0  0  0  0  0  0  0  0  0  0  0
  161.5850  210.3240  153.4810 S   0  0  0  0  0  0  0  0  0  0  0  0
  161.7120  211.6000  154.2620 O   0  0  0  0  0  0  0  0  0  0  0  0
  160.5550  205.9540  152.7300 C   0  0  0  0  0  2  0  0  0  0  0  0
  160.4500  203.0350  152.7040 O   0  0  0  0  0  1  0  0  0  0  0  0
  161.5680  203.6640  151.6010 P   0  0  0  0  0  0  0  0  0  0  0  0
  161.2040  203.0910  150.0520 O   0  0  0  0  0  0  0  0  0  0  0  0
  162.9600  203.2170  151.9860 O   0  0  0  0  0  1  0  0  0  0  0  0
  158.2850  209.8060  155.6060 C   0  0  0  0  0  2  0  0  0  0  0  0
  156.4870  211.5980  155.2740 C   0  0  1  0  0  0  0  0  0  0  0  0
  157.7470  212.2970  155.7660 C   0  0  1  0  0  0  0  0  0  0  0  0
  158.0540  212.1970  157.2610 C   0  0  0  0  0  1  0  0  0  0  0  0
  157.8600  211.0640  154.8520 C   0  0  1  0  0  3  0  0  0  0  0  0
  155.6400  210.7930  156.2560 C   0  0  0  0  0  1  0  0  0  0  0  0
  155.8070  212.2530  154.2450 O   0  0  0  0  0  1  0  0  0  0  0  0
  157.9930  213.5250  155.1390 O   0  0  0  0  0  0  0  0  0  0  0  0
  158.2510  214.3730  156.1160 O   0  0  0  0  0  1  0  0  0  0  0  0
  1 25  1  6  0  0  0
  2 18  1  1  0  0  0
  2  4  1  0  0  0  0
  2  1  1  0  0  0  0
  4 16  1  1  0  0  0
  4  1  1  0  0  0  0
  6  3  1  1  0  0  0
  6 14  1  0  0  0  0
  7  6  1  0  0  0  0
  7  5  2  0  0  0  0
  8 18  1  0  0  0  0
  9  7  1  0  0  0  0
 11 12  1  0  0  0  0
 12 17  2  0  0  0  0
 13 16  2  0  0  0  0
 14 22  1  6  0  0  0
 14 20  1  0  0  0  0
 15  9  2  0  0  0  0
 15 12  1  0  0  0  0
 17  5  1  0  0  0  0
 17  8  1  0  0  0  0
 18 10  2  0  0  0  0
 18 19  2  0  0  0  0
 20 13  1  0  0  0  0
 22 24  1  0  0  0  0
 22 21  1  0  0  0  0
 23 22  2  0  0  0  0
 26 27  1  0  0  0  0
 26 30  1  1  0  0  0
 27 28  1  1  0  0  0
 29 26  1  0  0  0  0
 29 25  1  1  0  0  0
 29 27  1  0  0  0  0
 31 26  1  0  0  0  0
 32 27  1  0  0  0  0
 32 33  1  0  0  0  0
M  END
>  <MODEL>
5

>  <REMARK>
 VINA RESULT:      -2.5      3.506      7.738
  Name = 
  4 active torsions:
  status: ('A' for Active; 'I' for Inactive)
    1  A    between atoms: C_2  and  C_33
    2  A    between atoms: C_8  and  O_13
    3  A    between atoms: P_12  and  C_21
    4  A    between atoms: C_24  and  C_33
                            x       y       z     vdW  Elec       q    Type
                         _______ _______ _______ _____ _____    ______ ____

>  <TORSDO>
F 4

$$$$
