=
 OpenBabel11072414533D

 47 53  0  0  1  0  0  0  0  0999 V2000
  159.9110  212.1430  152.2090 C   0  0  0  0  0  0  0  0  0  0  0  0
  160.7630  210.0060  152.8930 C   0  0  0  0  0  0  0  0  0  0  0  0
  159.0300  212.1460  153.2560 C   0  0  0  0  0  0  0  0  0  0  0  0
  158.3350  213.2590  153.2780 O   0  0  0  0  0  0  0  0  0  0  0  0
  159.7140  213.3450  151.5610 C   0  0  0  0  0  0  0  0  0  0  0  0
  158.9530  211.0870  154.1550 C   0  0  0  0  0  3  0  0  0  0  0  0
  160.8070  211.0960  152.0050 C   0  0  0  0  0  3  0  0  0  0  0  0
  158.7290  214.0220  152.2710 C   0  0  0  0  0  3  0  0  0  0  0  0
  159.8300  210.0050  153.9620 C   0  0  0  0  0  3  0  0  0  0  0  0
  158.9580  213.3430  148.7180 O   0  0  0  0  0  0  0  0  0  0  0  0
  160.1050  213.7330  149.0690 C   0  0  0  0  0  0  0  0  0  0  0  0
  160.4360  213.8920  150.4520 N   0  0  0  0  0  2  0  0  0  0  0  0
  161.5690  213.7890  145.7820 C   0  0  1  0  0  3  0  0  0  0  0  0
  160.5090  214.1480  146.7160 N   0  0  0  0  0  2  0  0  0  0  0  0
  162.6650  213.0630  146.5440 C   0  0  0  0  0  2  0  0  0  0  0  0
  162.2420  213.0950  147.9920 C   0  0  0  0  0  2  0  0  0  0  0  0
  161.1170  214.1040  148.0380 C   0  0  2  0  0  3  0  0  0  0  0  0
  161.0290  212.9290  144.6890 C   0  0  0  0  0  0  0  0  0  0  0  0
  160.0500  212.1650  144.9120 O   0  0  0  0  0  0  0  0  0  0  0  0
  161.6470  212.9780  143.3980 N   0  0  0  0  0  2  0  0  0  0  0  0
  162.1010  211.4710  141.4780 C   0  0  0  0  0  3  0  0  0  0  0  0
  161.2620  210.9320  140.5190 C   0  0  0  0  0  0  0  0  0  0  0  0
  161.2420  212.2180  142.2540 C   0  0  0  0  0  0  0  0  0  0  0  0
  160.0190  211.3130  140.7060 O   0  0  0  0  0  0  0  0  0  0  0  0
  159.9590  212.1000  141.7550 C   0  0  0  0  0  3  0  0  0  0  0  0
  161.1020  208.7410  139.5940 O   0  0  0  0  0  1  0  0  0  0  0  0
  161.6770  210.0020  139.4200 C   0  0  1  0  0  3  0  0  0  0  0  0
  161.3230  210.5680  138.0490 C   0  0  0  0  0  2  0  0  0  0  0  0
  161.7110  211.9070  137.9510 O   0  0  0  0  0  1  0  0  0  0  0  0
  161.6500  208.9410  152.6990 O   0  0  0  0  0  0  0  0  0  0  0  0
  160.7000  206.6700  153.2670 C   0  0  1  0  0  3  0  0  0  0  0  0
  161.2360  207.6520  152.2400 C   0  0  2  0  0  0  0  0  0  0  0  0
  162.1130  206.5010  152.7060 C   0  0  2  0  0  3  0  0  0  0  0  0
  160.7750  207.2120  154.5510 O   0  0  0  0  0  1  0  0  0  0  0  0
  161.5060  204.2340  152.3020 O   0  0  0  0  0  1  0  0  0  0  0  0
  162.1250  205.3410  151.7240 C   0  0  0  0  0  2  0  0  0  0  0  0
  160.7250  207.5570  150.9330 O   0  0  0  0  0  0  0  0  0  0  0  0
  161.5610  208.3340  150.1160 C   0  0  1  0  0  3  0  0  0  0  0  0
  162.5820  207.5240  149.5810 O   0  0  0  0  0  0  0  0  0  0  0  0
  161.5530  207.8850  148.6920 C   0  0  1  0  0  3  0  0  0  0  0  0
  160.6730  206.6630  148.4150 C   0  0  0  0  0  2  0  0  0  0  0  0
  160.7200  205.6650  144.8400 C   0  0  0  0  0  3  0  0  0  0  0  0
  162.7280  204.6540  145.9050 C   0  0  0  0  0  2  0  0  0  0  0  0
  162.0280  204.8140  147.2530 C   0  0  0  0  0  2  0  0  0  0  0  0
  160.4340  206.2990  145.9800 C   0  0  0  0  0  3  0  0  0  0  0  0
  161.6740  204.5070  144.8140 C   0  0  0  0  0  2  0  0  0  0  0  0
  161.0730  205.9310  147.2110 N   0  0  0  0  0  0  0  0  0  0  0  0
  1  3  1  0  0  0  0
  2  9  2  0  0  0  0
  3  4  1  0  0  0  0
  3  6  2  0  0  0  0
  5  1  1  0  0  0  0
  5  8  2  0  0  0  0
  7  1  2  0  0  0  0
  7  2  1  0  0  0  0
  8  4  1  0  0  0  0
  9  6  1  0  0  0  0
 10 11  2  0  0  0  0
 11 12  1  0  0  0  0
 12  5  1  0  0  0  0
 13 18  1  6  0  0  0
 13 15  1  0  0  0  0
 13 14  1  0  0  0  0
 14 17  1  0  0  0  0
 15 16  1  0  0  0  0
 16 17  1  0  0  0  0
 17 11  1  1  0  0  0
 18 19  2  0  0  0  0
 20 18  1  0  0  0  0
 21 23  1  0  0  0  0
 22 24  1  0  0  0  0
 22 21  2  0  0  0  0
 23 20  1  0  0  0  0
 24 25  1  0  0  0  0
 25 23  2  0  0  0  0
 27 26  1  1  0  0  0
 27 22  1  0  0  0  0
 28 27  1  0  0  0  0
 29 28  1  0  0  0  0
 30  2  1  0  0  0  0
 31 34  1  1  0  0  0
 32 37  1  6  0  0  0
 32 30  1  0  0  0  0
 32 33  1  0  0  0  0
 32 31  1  0  0  0  0
 33 36  1  6  0  0  0
 33 31  1  0  0  0  0
 36 35  1  0  0  0  0
 38 37  1  1  0  0  0
 39 38  1  0  0  0  0
 40 41  1  1  0  0  0
 40 39  1  0  0  0  0
 40 38  1  0  0  0  0
 42 45  2  0  0  0  0
 43 44  1  0  0  0  0
 45 47  1  0  0  0  0
 46 42  1  0  0  0  0
 46 43  1  0  0  0  0
 47 44  1  0  0  0  0
 47 41  1  0  0  0  0
M  END
>  <MODEL>
1

>  <REMARK>
 VINA RESULT:      -8.0      0.000      0.000
  Name = 
  13 active torsions:
  status: ('A' for Active; 'I' for Inactive)
    1  A    between atoms: C_6  and  C_26
    2  A    between atoms: O_7  and  C_9
    3  A    between atoms: O_7  and  C_25
    4  A    between atoms: C_8  and  N_45
    5  A    between atoms: C_11  and  O_28
    6  A    between atoms: C_12  and  C_26
    7  A    between atoms: C_15  and  C_39
    8  A    between atoms: C_17  and  C_23
    9  A    between atoms: C_18  and  N_44
   10  A    between atoms: C_25  and  O_28
   11  A    between atoms: C_27  and  C_35
   12  A    between atoms: C_34  and  C_36
   13  A    between atoms: C_35  and  N_46
                            x       y       z     vdW  Elec       q    Type
                         _______ _______ _______ _____ _____    ______ ____

>  <TORSDO>
F 13

$$$$
=
 OpenBabel11072414533D

 47 53  0  0  1  0  0  0  0  0999 V2000
  160.7430  211.8520  150.7690 C   0  0  0  0  0  0  0  0  0  0  0  0
  161.6260  209.6440  151.1030 C   0  0  0  0  0  0  0  0  0  0  0  0
  160.1030  211.7970  151.9770 C   0  0  0  0  0  0  0  0  0  0  0  0
  159.4780  212.9240  152.2240 O   0  0  0  0  0  0  0  0  0  0  0  0
  160.4680  213.1050  150.2640 C   0  0  0  0  0  0  0  0  0  0  0  0
  160.1710  210.6740  152.7950 C   0  0  0  0  0  3  0  0  0  0  0  0
  161.5300  210.7990  150.3050 C   0  0  0  0  0  3  0  0  0  0  0  0
  159.6850  213.7520  151.2140 C   0  0  0  0  0  3  0  0  0  0  0  0
  160.9400  209.5870  152.3440 C   0  0  0  0  0  3  0  0  0  0  0  0
  159.4670  212.8020  147.5140 O   0  0  0  0  0  0  0  0  0  0  0  0
  160.5440  213.4220  147.7320 C   0  0  0  0  0  0  0  0  0  0  0  0
  160.9640  213.7180  149.0680 N   0  0  0  0  0  2  0  0  0  0  0  0
  161.5460  213.6960  144.2870 C   0  0  1  0  0  3  0  0  0  0  0  0
  160.5860  213.9190  145.3620 N   0  0  0  0  0  2  0  0  0  0  0  0
  162.8050  213.0830  144.8770 C   0  0  0  0  0  2  0  0  0  0  0  0
  162.5760  213.0430  146.3680 C   0  0  0  0  0  2  0  0  0  0  0  0
  161.3650  213.9210  146.5910 C   0  0  2  0  0  3  0  0  0  0  0  0
  160.9620  212.8000  143.2460 C   0  0  0  0  0  0  0  0  0  0  0  0
  159.8700  212.2070  143.4640 O   0  0  0  0  0  0  0  0  0  0  0  0
  161.6660  212.6180  142.0130 N   0  0  0  0  0  2  0  0  0  0  0  0
  161.6550  210.5010  140.7160 C   0  0  0  0  0  3  0  0  0  0  0  0
  160.9740  210.1350  139.5680 C   0  0  0  0  0  0  0  0  0  0  0  0
  161.2330  211.7960  140.9230 C   0  0  0  0  0  0  0  0  0  0  0  0
  160.2140  211.1120  139.1330 O   0  0  0  0  0  0  0  0  0  0  0  0
  160.3400  212.1490  139.9290 C   0  0  0  0  0  3  0  0  0  0  0  0
  161.7410  208.8740  137.6960 O   0  0  0  0  0  1  0  0  0  0  0  0
  161.0440  208.7930  138.9040 C   0  0  1  0  0  3  0  0  0  0  0  0
  161.6790  207.7520  139.8210 C   0  0  0  0  0  2  0  0  0  0  0  0
  162.2750  206.7330  139.0750 O   0  0  0  0  0  1  0  0  0  0  0  0
  162.4050  208.5740  150.6500 O   0  0  0  0  0  0  0  0  0  0  0  0
  162.5670  206.7690  148.8890 C   0  0  1  0  0  3  0  0  0  0  0  0
  161.8480  207.3900  150.0740 C   0  0  2  0  0  0  0  0  0  0  0  0
  161.2820  207.5710  148.6750 C   0  0  2  0  0  3  0  0  0  0  0  0
  163.6640  207.5470  148.5170 O   0  0  0  0  0  1  0  0  0  0  0  0
  160.0590  206.3950  147.0040 O   0  0  0  0  0  1  0  0  0  0  0  0
  160.1390  206.6140  148.3780 C   0  0  0  0  0  2  0  0  0  0  0  0
  161.1410  206.5200  150.9240 O   0  0  0  0  0  0  0  0  0  0  0  0
  162.1010  205.7790  151.6310 C   0  0  1  0  0  3  0  0  0  0  0  0
  161.4920  205.1520  152.7360 O   0  0  0  0  0  0  0  0  0  0  0  0
  161.8020  204.3170  151.6480 C   0  0  1  0  0  3  0  0  0  0  0  0
  160.5090  203.9240  150.9270 C   0  0  0  0  0  2  0  0  0  0  0  0
  161.2680  202.5820  147.5500 C   0  0  0  0  0  3  0  0  0  0  0  0
  161.3500  200.6630  149.1320 C   0  0  0  0  0  2  0  0  0  0  0  0
  160.5040  201.4920  150.0960 C   0  0  0  0  0  2  0  0  0  0  0  0
  161.0820  203.4190  148.5740 C   0  0  0  0  0  3  0  0  0  0  0  0
  161.0490  201.1060  147.7050 C   0  0  0  0  0  2  0  0  0  0  0  0
  160.7210  202.9290  149.8730 N   0  0  0  0  0  0  0  0  0  0  0  0
  1  3  1  0  0  0  0
  2  9  2  0  0  0  0
  3  4  1  0  0  0  0
  3  6  2  0  0  0  0
  5  1  1  0  0  0  0
  5  8  2  0  0  0  0
  7  1  2  0  0  0  0
  7  2  1  0  0  0  0
  8  4  1  0  0  0  0
  9  6  1  0  0  0  0
 10 11  2  0  0  0  0
 11 12  1  0  0  0  0
 12  5  1  0  0  0  0
 13 18  1  6  0  0  0
 13 15  1  0  0  0  0
 13 14  1  0  0  0  0
 14 17  1  0  0  0  0
 15 16  1  0  0  0  0
 16 17  1  0  0  0  0
 17 11  1  1  0  0  0
 18 19  2  0  0  0  0
 20 18  1  0  0  0  0
 21 23  1  0  0  0  0
 22 21  2  0  0  0  0
 23 20  1  0  0  0  0
 24 22  1  0  0  0  0
 24 25  1  0  0  0  0
 25 23  2  0  0  0  0
 27 26  1  6  0  0  0
 27 22  1  0  0  0  0
 27 28  1  0  0  0  0
 29 28  1  0  0  0  0
 30  2  1  0  0  0  0
 31 34  1  6  0  0  0
 31 32  1  0  0  0  0
 32 30  1  1  0  0  0
 32 37  1  0  0  0  0
 33 36  1  1  0  0  0
 33 31  1  0  0  0  0
 33 32  1  0  0  0  0
 35 36  1  0  0  0  0
 38 37  1  6  0  0  0
 38 40  1  0  0  0  0
 38 39  1  0  0  0  0
 40 41  1  6  0  0  0
 40 39  1  0  0  0  0
 42 46  1  0  0  0  0
 42 45  2  0  0  0  0
 43 44  1  0  0  0  0
 45 47  1  0  0  0  0
 46 43  1  0  0  0  0
 47 44  1  0  0  0  0
 47 41  1  0  0  0  0
M  END
>  <MODEL>
2

>  <REMARK>
 VINA RESULT:      -7.9      1.902      3.052
  Name = 
  13 active torsions:
  status: ('A' for Active; 'I' for Inactive)
    1  A    between atoms: C_6  and  C_26
    2  A    between atoms: O_7  and  C_9
    3  A    between atoms: O_7  and  C_25
    4  A    between atoms: C_8  and  N_45
    5  A    between atoms: C_11  and  O_28
    6  A    between atoms: C_12  and  C_26
    7  A    between atoms: C_15  and  C_39
    8  A    between atoms: C_17  and  C_23
    9  A    between atoms: C_18  and  N_44
   10  A    between atoms: C_25  and  O_28
   11  A    between atoms: C_27  and  C_35
   12  A    between atoms: C_34  and  C_36
   13  A    between atoms: C_35  and  N_46
                            x       y       z     vdW  Elec       q    Type
                         _______ _______ _______ _____ _____    ______ ____

>  <TORSDO>
F 13

$$$$
=
 OpenBabel11072414533D

 47 53  0  0  1  0  0  0  0  0999 V2000
  160.5470  208.6850  154.6690 C   0  0  0  0  0  0  0  0  0  0  0  0
  159.7360  210.7290  155.6320 C   0  0  0  0  0  0  0  0  0  0  0  0
  160.5980  208.1030  155.9070 C   0  0  0  0  0  0  0  0  0  0  0  0
  160.9870  206.8520  155.8170 O   0  0  0  0  0  0  0  0  0  0  0  0
  160.9430  207.7030  153.7850 C   0  0  0  0  0  0  0  0  0  0  0  0
  160.2460  208.7950  157.0610 C   0  0  0  0  0  3  0  0  0  0  0  0
  160.1040  209.9940  154.4900 C   0  0  0  0  0  3  0  0  0  0  0  0
  161.1950  206.5650  154.5430 C   0  0  0  0  0  3  0  0  0  0  0  0
  159.8150  210.1260  156.9140 C   0  0  0  0  0  3  0  0  0  0  0  0
  162.6740  209.3490  152.0670 O   0  0  0  0  0  0  0  0  0  0  0  0
  161.7330  208.6770  151.5620 C   0  0  0  0  0  0  0  0  0  0  0  0
  160.9840  207.7510  152.3540 N   0  0  0  0  0  2  0  0  0  0  0  0
  161.1720  207.4500  148.2260 C   0  0  1  0  0  3  0  0  0  0  0  0
  160.7780  207.5820  149.6240 N   0  0  0  0  0  2  0  0  0  0  0  0
  162.4270  208.2750  147.9940 C   0  0  0  0  0  2  0  0  0  0  0  0
  162.7000  208.9750  149.3020 C   0  0  0  0  0  2  0  0  0  0  0  0
  161.4330  208.7890  150.1050 C   0  0  2  0  0  3  0  0  0  0  0  0
  161.4130  206.0160  147.8870 C   0  0  0  0  0  0  0  0  0  0  0  0
  162.1890  205.7140  146.9400 O   0  0  0  0  0  0  0  0  0  0  0  0
  160.7420  205.0020  148.6430 N   0  0  0  0  0  2  0  0  0  0  0  0
  161.0920  203.0040  147.2120 C   0  0  0  0  0  3  0  0  0  0  0  0
  161.1460  201.6560  147.5200 C   0  0  0  0  0  0  0  0  0  0  0  0
  160.8720  203.5910  148.4390 C   0  0  0  0  0  0  0  0  0  0  0  0
  160.9820  201.4550  148.8070 O   0  0  0  0  0  0  0  0  0  0  0  0
  160.8100  202.6090  149.4090 C   0  0  0  0  0  3  0  0  0  0  0  0
  161.5430  199.3260  147.2050 O   0  0  0  0  0  1  0  0  0  0  0  0
  161.3970  200.5480  146.5430 C   0  0  1  0  0  3  0  0  0  0  0  0
  160.2850  200.4650  145.5020 C   0  0  0  0  0  2  0  0  0  0  0  0
  160.0760  201.7080  144.9000 O   0  0  0  0  0  1  0  0  0  0  0  0
  159.2960  212.0480  155.4720 O   0  0  0  0  0  0  0  0  0  0  0  0
  157.0330  213.0880  155.8960 C   0  0  1  0  0  3  0  0  0  0  0  0
  158.0030  212.3840  154.9640 C   0  0  2  0  0  0  0  0  0  0  0  0
  156.8560  211.6020  155.5820 C   0  0  2  0  0  3  0  0  0  0  0  0
  157.5880  213.2280  157.1690 O   0  0  0  0  0  1  0  0  0  0  0  0
  155.1160  210.1700  154.8100 O   0  0  0  0  0  1  0  0  0  0  0  0
  155.6850  211.4290  154.6270 C   0  0  0  0  0  2  0  0  0  0  0  0
  157.8950  212.6690  153.5900 O   0  0  0  0  0  0  0  0  0  0  0  0
  159.0060  213.4580  153.2530 C   0  0  1  0  0  3  0  0  0  0  0  0
  159.8080  212.7680  152.3220 O   0  0  0  0  0  0  0  0  0  0  0  0
  159.0340  213.8240  151.8070 C   0  0  1  0  0  3  0  0  0  0  0  0
  157.8790  213.2480  150.9820 C   0  0  0  0  0  2  0  0  0  0  0  0
  159.6190  213.7750  147.7440 C   0  0  0  0  0  3  0  0  0  0  0  0
  157.2420  213.2570  147.2190 C   0  0  0  0  0  2  0  0  0  0  0  0
  156.8920  213.6710  148.6470 C   0  0  0  0  0  2  0  0  0  0  0  0
  159.3820  213.5510  149.0390 C   0  0  0  0  0  3  0  0  0  0  0  0
  158.4930  214.0070  146.7790 C   0  0  0  0  0  2  0  0  0  0  0  0
  158.0410  213.4670  149.5420 N   0  0  0  0  0  0  0  0  0  0  0  0
  1  3  1  0  0  0  0
  2  9  2  0  0  0  0
  3  6  2  0  0  0  0
  4  3  1  0  0  0  0
  5  8  2  0  0  0  0
  5  1  1  0  0  0  0
  7  1  2  0  0  0  0
  7  2  1  0  0  0  0
  8  4  1  0  0  0  0
  9  6  1  0  0  0  0
 11 10  2  0  0  0  0
 11 12  1  0  0  0  0
 12  5  1  0  0  0  0
 13 18  1  1  0  0  0
 13 14  1  0  0  0  0
 14 17  1  0  0  0  0
 15 13  1  0  0  0  0
 15 16  1  0  0  0  0
 16 17  1  0  0  0  0
 17 11  1  1  0  0  0
 18 20  1  0  0  0  0
 19 18  2  0  0  0  0
 21 22  2  0  0  0  0
 21 23  1  0  0  0  0
 22 24  1  0  0  0  0
 23 20  1  0  0  0  0
 23 25  2  0  0  0  0
 24 25  1  0  0  0  0
 27 26  1  1  0  0  0
 27 22  1  0  0  0  0
 28 27  1  0  0  0  0
 29 28  1  0  0  0  0
 30  2  1  0  0  0  0
 31 34  1  1  0  0  0
 32 37  1  6  0  0  0
 32 30  1  0  0  0  0
 32 33  1  0  0  0  0
 32 31  1  0  0  0  0
 33 36  1  6  0  0  0
 33 31  1  0  0  0  0
 36 35  1  0  0  0  0
 38 37  1  6  0  0  0
 39 38  1  0  0  0  0
 40 41  1  6  0  0  0
 40 39  1  0  0  0  0
 40 38  1  0  0  0  0
 42 45  2  0  0  0  0
 43 44  1  0  0  0  0
 44 47  1  0  0  0  0
 45 47  1  0  0  0  0
 46 43  1  0  0  0  0
 46 42  1  0  0  0  0
 47 41  1  0  0  0  0
M  END
>  <MODEL>
3

>  <REMARK>
 VINA RESULT:      -6.7      4.353      8.220
  Name = 
  13 active torsions:
  status: ('A' for Active; 'I' for Inactive)
    1  A    between atoms: C_6  and  C_26
    2  A    between atoms: O_7  and  C_9
    3  A    between atoms: O_7  and  C_25
    4  A    between atoms: C_8  and  N_45
    5  A    between atoms: C_11  and  O_28
    6  A    between atoms: C_12  and  C_26
    7  A    between atoms: C_15  and  C_39
    8  A    between atoms: C_17  and  C_23
    9  A    between atoms: C_18  and  N_44
   10  A    between atoms: C_25  and  O_28
   11  A    between atoms: C_27  and  C_35
   12  A    between atoms: C_34  and  C_36
   13  A    between atoms: C_35  and  N_46
                            x       y       z     vdW  Elec       q    Type
                         _______ _______ _______ _____ _____    ______ ____

>  <TORSDO>
F 13

$$$$
=
 OpenBabel11072414533D

 47 53  0  0  1  0  0  0  0  0999 V2000
  161.9540  209.8010  149.5590 C   0  0  0  0  0  0  0  0  0  0  0  0
  162.3850  207.5220  148.9400 C   0  0  0  0  0  0  0  0  0  0  0  0
  161.6200  209.4110  150.8270 C   0  0  0  0  0  0  0  0  0  0  0  0
  161.3320  210.4510  151.5740 O   0  0  0  0  0  0  0  0  0  0  0  0
  161.8470  211.1760  149.5580 C   0  0  0  0  0  0  0  0  0  0  0  0
  161.6310  208.0740  151.2120 C   0  0  0  0  0  3  0  0  0  0  0  0
  162.3590  208.8840  148.5900 C   0  0  0  0  0  3  0  0  0  0  0  0
  161.4710  211.5450  150.8440 C   0  0  0  0  0  3  0  0  0  0  0  0
  162.0150  207.1230  150.2500 C   0  0  0  0  0  3  0  0  0  0  0  0
  160.0540  213.0450  148.1640 O   0  0  0  0  0  0  0  0  0  0  0  0
  161.2360  212.8770  147.7560 C   0  0  0  0  0  0  0  0  0  0  0  0
  162.1690  212.0980  148.5100 N   0  0  0  0  0  2  0  0  0  0  0  0
  161.5110  213.3710  144.2020 C   0  0  1  0  0  3  0  0  0  0  0  0
  160.7350  213.3660  145.4370 N   0  0  0  0  0  2  0  0  0  0  0  0
  162.9620  213.0700  144.5370 C   0  0  0  0  0  2  0  0  0  0  0  0
  163.0200  212.9810  146.0430 C   0  0  0  0  0  2  0  0  0  0  0  0
  161.7010  213.5520  146.5090 C   0  0  2  0  0  3  0  0  0  0  0  0
  160.9700  212.3610  143.2450 C   0  0  0  0  0  0  0  0  0  0  0  0
  160.0370  211.5910  143.6000 O   0  0  0  0  0  0  0  0  0  0  0  0
  161.5370  212.2770  141.9330 N   0  0  0  0  0  2  0  0  0  0  0  0
  161.7870  210.1970  140.6010 C   0  0  0  0  0  3  0  0  0  0  0  0
  161.0260  209.6720  139.5710 C   0  0  0  0  0  0  0  0  0  0  0  0
  161.1250  211.3650  140.9080 C   0  0  0  0  0  0  0  0  0  0  0  0
  160.0030  210.4480  139.2920 O   0  0  0  0  0  0  0  0  0  0  0  0
  160.0240  211.4950  140.0840 C   0  0  0  0  0  3  0  0  0  0  0  0
  161.9820  208.5840  137.6780 O   0  0  0  0  0  1  0  0  0  0  0  0
  161.2840  208.3740  138.8700 C   0  0  1  0  0  3  0  0  0  0  0  0
  162.0380  207.3980  139.7680 C   0  0  0  0  0  2  0  0  0  0  0  0
  162.3320  206.2180  139.0800 O   0  0  0  0  0  1  0  0  0  0  0  0
  162.7830  206.5860  147.9780 O   0  0  0  0  0  0  0  0  0  0  0  0
  162.3780  204.8970  146.1420 C   0  0  1  0  0  3  0  0  0  0  0  0
  161.8710  205.6950  147.3310 C   0  0  2  0  0  0  0  0  0  0  0  0
  161.4700  206.1080  145.9250 C   0  0  2  0  0  3  0  0  0  0  0  0
  163.6960  205.2480  145.8410 O   0  0  0  0  0  1  0  0  0  0  0  0
  160.1610  204.7700  144.4530 O   0  0  0  0  0  1  0  0  0  0  0  0
  160.0780  205.6270  145.5490 C   0  0  0  0  0  2  0  0  0  0  0  0
  160.8650  205.1050  148.1180 O   0  0  0  0  0  0  0  0  0  0  0  0
  161.5170  204.3810  149.1290 C   0  0  1  0  0  3  0  0  0  0  0  0
  160.5640  203.8790  150.0380 O   0  0  0  0  0  0  0  0  0  0  0  0
  161.1230  202.9410  149.1510 C   0  0  1  0  0  3  0  0  0  0  0  0
  160.0770  202.5510  148.1020 C   0  0  0  0  0  2  0  0  0  0  0  0
  161.6310  199.3310  147.1040 C   0  0  0  0  0  3  0  0  0  0  0  0
  160.3460  200.1600  145.1400 C   0  0  0  0  0  2  0  0  0  0  0  0
  160.4100  201.5560  145.7560 C   0  0  0  0  0  2  0  0  0  0  0  0
  161.1660  200.3460  147.8370 C   0  0  0  0  0  3  0  0  0  0  0  0
  161.5570  199.3580  145.6050 C   0  0  0  0  0  2  0  0  0  0  0  0
  160.5280  201.4720  147.2190 N   0  0  0  0  0  0  0  0  0  0  0  0
  1  3  1  0  0  0  0
  2  9  2  0  0  0  0
  3  6  2  0  0  0  0
  3  4  1  0  0  0  0
  5  1  1  0  0  0  0
  5  8  2  0  0  0  0
  7  2  1  0  0  0  0
  7  1  2  0  0  0  0
  8  4  1  0  0  0  0
  9  6  1  0  0  0  0
 11 10  2  0  0  0  0
 11 12  1  0  0  0  0
 12  5  1  0  0  0  0
 13 18  1  6  0  0  0
 13 15  1  0  0  0  0
 13 14  1  0  0  0  0
 14 17  1  0  0  0  0
 15 16  1  0  0  0  0
 16 17  1  0  0  0  0
 17 11  1  1  0  0  0
 18 19  2  0  0  0  0
 20 18  1  0  0  0  0
 21 23  1  0  0  0  0
 22 21  2  0  0  0  0
 23 20  1  0  0  0  0
 24 22  1  0  0  0  0
 24 25  1  0  0  0  0
 25 23  2  0  0  0  0
 27 26  1  6  0  0  0
 27 22  1  0  0  0  0
 27 28  1  0  0  0  0
 29 28  1  0  0  0  0
 30  2  1  0  0  0  0
 31 34  1  6  0  0  0
 31 32  1  0  0  0  0
 32 30  1  1  0  0  0
 32 37  1  0  0  0  0
 33 36  1  1  0  0  0
 33 31  1  0  0  0  0
 33 32  1  0  0  0  0
 35 36  1  0  0  0  0
 38 37  1  6  0  0  0
 38 40  1  0  0  0  0
 38 39  1  0  0  0  0
 40 41  1  6  0  0  0
 40 39  1  0  0  0  0
 42 45  2  0  0  0  0
 43 46  1  0  0  0  0
 43 44  1  0  0  0  0
 44 47  1  0  0  0  0
 46 42  1  0  0  0  0
 47 45  1  0  0  0  0
 47 41  1  0  0  0  0
M  END
>  <MODEL>
4

>  <REMARK>
 VINA RESULT:      -6.6      2.581      4.396
  Name = 
  13 active torsions:
  status: ('A' for Active; 'I' for Inactive)
    1  A    between atoms: C_6  and  C_26
    2  A    between atoms: O_7  and  C_9
    3  A    between atoms: O_7  and  C_25
    4  A    between atoms: C_8  and  N_45
    5  A    between atoms: C_11  and  O_28
    6  A    between atoms: C_12  and  C_26
    7  A    between atoms: C_15  and  C_39
    8  A    between atoms: C_17  and  C_23
    9  A    between atoms: C_18  and  N_44
   10  A    between atoms: C_25  and  O_28
   11  A    between atoms: C_27  and  C_35
   12  A    between atoms: C_34  and  C_36
   13  A    between atoms: C_35  and  N_46
                            x       y       z     vdW  Elec       q    Type
                         _______ _______ _______ _____ _____    ______ ____

>  <TORSDO>
F 13

$$$$
=
 OpenBabel11072414533D

 47 53  0  0  1  0  0  0  0  0999 V2000
  160.8240  208.1970  153.2870 C   0  0  0  0  0  0  0  0  0  0  0  0
  160.9300  206.9550  151.2350 C   0  0  0  0  0  0  0  0  0  0  0  0
  161.5460  207.2290  153.9300 C   0  0  0  0  0  0  0  0  0  0  0  0
  161.7670  207.5660  155.1790 O   0  0  0  0  0  0  0  0  0  0  0  0
  160.5970  209.1750  154.2320 C   0  0  0  0  0  0  0  0  0  0  0  0
  161.9770  206.0780  153.2780 C   0  0  0  0  0  3  0  0  0  0  0  0
  160.5100  208.1030  151.9310 C   0  0  0  0  0  3  0  0  0  0  0  0
  161.2190  208.7490  155.4000 C   0  0  0  0  0  3  0  0  0  0  0  0
  161.6580  205.9450  151.9150 C   0  0  0  0  0  3  0  0  0  0  0  0
  158.8630  210.6060  156.1290 O   0  0  0  0  0  0  0  0  0  0  0  0
  159.0080  211.0380  154.9530 C   0  0  0  0  0  0  0  0  0  0  0  0
  159.9660  210.4510  154.0670 N   0  0  0  0  0  2  0  0  0  0  0  0
  157.9850  213.5820  152.6220 C   0  0  1  0  0  3  0  0  0  0  0  0
  158.0600  212.1880  153.0420 N   0  0  0  0  0  2  0  0  0  0  0  0
  158.5850  214.4530  153.7120 C   0  0  0  0  0  2  0  0  0  0  0  0
  158.9330  213.5100  154.8390 C   0  0  0  0  0  2  0  0  0  0  0  0
  158.2270  212.2210  154.4880 C   0  0  2  0  0  3  0  0  0  0  0  0
  158.7100  213.7750  151.3320 C   0  0  0  0  0  0  0  0  0  0  0  0
  159.9470  214.0250  151.3360 O   0  0  0  0  0  0  0  0  0  0  0  0
  157.9790  213.6870  150.1040 N   0  0  0  0  0  2  0  0  0  0  0  0
  159.7820  213.3960  148.4230 C   0  0  0  0  0  3  0  0  0  0  0  0
  159.8630  213.7730  147.0940 C   0  0  0  0  0  0  0  0  0  0  0  0
  158.5340  213.8460  148.7940 C   0  0  0  0  0  0  0  0  0  0  0  0
  158.7680  214.3840  146.7050 O   0  0  0  0  0  0  0  0  0  0  0  0
  157.9280  214.4520  147.7110 C   0  0  0  0  0  3  0  0  0  0  0  0
  161.9350  212.6350  146.7820 O   0  0  0  0  0  1  0  0  0  0  0  0
  161.0200  213.5020  146.1800 C   0  0  1  0  0  3  0  0  0  0  0  0
  160.5500  212.9420  144.8420 C   0  0  0  0  0  2  0  0  0  0  0  0
  159.7200  211.8340  145.0320 O   0  0  0  0  0  1  0  0  0  0  0  0
  160.6180  206.8390  149.8750 O   0  0  0  0  0  0  0  0  0  0  0  0
  162.5320  207.2910  148.2890 C   0  0  1  0  0  3  0  0  0  0  0  0
  161.5330  206.3260  148.9050 C   0  0  2  0  0  0  0  0  0  0  0  0
  161.3090  206.8360  147.4900 C   0  0  2  0  0  3  0  0  0  0  0  0
  162.3180  208.5870  148.7620 O   0  0  0  0  0  1  0  0  0  0  0  0
  160.8140  205.8130  145.3980 O   0  0  0  0  0  1  0  0  0  0  0  0
  161.7480  205.8360  146.4320 C   0  0  0  0  0  2  0  0  0  0  0  0
  161.9300  204.9820  149.0270 O   0  0  0  0  0  0  0  0  0  0  0  0
  160.8610  204.2980  149.6250 C   0  0  1  0  0  3  0  0  0  0  0  0
  159.9870  203.8250  148.6250 O   0  0  0  0  0  0  0  0  0  0  0  0
  160.8080  202.8580  149.2350 C   0  0  1  0  0  3  0  0  0  0  0  0
  161.8980  202.4260  148.2490 C   0  0  0  0  0  2  0  0  0  0  0  0
  160.3190  201.4090  145.0460 C   0  0  0  0  0  3  0  0  0  0  0  0
  161.4420  199.3930  145.9780 C   0  0  0  0  0  2  0  0  0  0  0  0
  161.4040  200.0710  147.3460 C   0  0  0  0  0  2  0  0  0  0  0  0
  160.8230  202.1490  146.0370 C   0  0  0  0  0  3  0  0  0  0  0  0
  160.2810  199.9120  145.1370 C   0  0  0  0  0  2  0  0  0  0  0  0
  161.3980  201.5340  147.2000 N   0  0  0  0  0  0  0  0  0  0  0  0
  1  3  1  0  0  0  0
  1  5  1  0  0  0  0
  2  9  2  0  0  0  0
  2  7  1  0  0  0  0
  3  4  1  0  0  0  0
  4  8  1  0  0  0  0
  5  8  2  0  0  0  0
  6  3  2  0  0  0  0
  7  1  2  0  0  0  0
  9  6  1  0  0  0  0
 11 10  2  0  0  0  0
 12  5  1  0  0  0  0
 12 11  1  0  0  0  0
 13 18  1  6  0  0  0
 13 14  1  0  0  0  0
 13 15  1  0  0  0  0
 14 17  1  0  0  0  0
 15 16  1  0  0  0  0
 17 16  1  0  0  0  0
 17 11  1  6  0  0  0
 18 19  2  0  0  0  0
 20 18  1  0  0  0  0
 21 23  1  0  0  0  0
 22 21  2  0  0  0  0
 23 20  1  0  0  0  0
 24 22  1  0  0  0  0
 24 25  1  0  0  0  0
 25 23  2  0  0  0  0
 27 26  1  1  0  0  0
 27 22  1  0  0  0  0
 28 29  1  0  0  0  0
 28 27  1  0  0  0  0
 30  2  1  0  0  0  0
 31 34  1  1  0  0  0
 31 32  1  0  0  0  0
 32 37  1  1  0  0  0
 32 30  1  0  0  0  0
 33 36  1  6  0  0  0
 33 31  1  0  0  0  0
 33 32  1  0  0  0  0
 35 36  1  0  0  0  0
 38 37  1  6  0  0  0
 39 40  1  0  0  0  0
 39 38  1  0  0  0  0
 40 41  1  6  0  0  0
 40 38  1  0  0  0  0
 42 46  1  0  0  0  0
 42 45  2  0  0  0  0
 43 44  1  0  0  0  0
 45 47  1  0  0  0  0
 46 43  1  0  0  0  0
 47 44  1  0  0  0  0
 47 41  1  0  0  0  0
M  END
>  <MODEL>
5

>  <REMARK>
 VINA RESULT:      -6.3      3.133      6.076
  Name = 
  13 active torsions:
  status: ('A' for Active; 'I' for Inactive)
    1  A    between atoms: C_6  and  C_26
    2  A    between atoms: O_7  and  C_9
    3  A    between atoms: O_7  and  C_25
    4  A    between atoms: C_8  and  N_45
    5  A    between atoms: C_11  and  O_28
    6  A    between atoms: C_12  and  C_26
    7  A    between atoms: C_15  and  C_39
    8  A    between atoms: C_17  and  C_23
    9  A    between atoms: C_18  and  N_44
   10  A    between atoms: C_25  and  O_28
   11  A    between atoms: C_27  and  C_35
   12  A    between atoms: C_34  and  C_36
   13  A    between atoms: C_35  and  N_46
                            x       y       z     vdW  Elec       q    Type
                         _______ _______ _______ _____ _____    ______ ____

>  <TORSDO>
F 13

$$$$
=
 OpenBabel11072414533D

 47 53  0  0  1  0  0  0  0  0999 V2000
  161.2430  208.4740  151.3270 C   0  0  0  0  0  0  0  0  0  0  0  0
  160.8370  206.3480  150.2880 C   0  0  0  0  0  0  0  0  0  0  0  0
  161.6090  207.8540  152.4900 C   0  0  0  0  0  0  0  0  0  0  0  0
  161.9790  208.7350  153.3900 O   0  0  0  0  0  0  0  0  0  0  0  0
  161.4030  209.8230  151.5620 C   0  0  0  0  0  0  0  0  0  0  0  0
  161.5910  206.4690  152.6230 C   0  0  0  0  0  3  0  0  0  0  0  0
  160.8670  207.7510  150.1950 C   0  0  0  0  0  3  0  0  0  0  0  0
  161.8820  209.9440  152.8620 C   0  0  0  0  0  3  0  0  0  0  0  0
  161.1960  205.7140  151.5060 C   0  0  0  0  0  3  0  0  0  0  0  0
  162.4930  210.0950  148.8430 O   0  0  0  0  0  0  0  0  0  0  0  0
  161.9210  211.0730  149.3980 C   0  0  0  0  0  0  0  0  0  0  0  0
  161.2470  210.9160  150.6500 N   0  0  0  0  0  2  0  0  0  0  0  0
  161.0900  213.3820  146.7660 C   0  0  1  0  0  3  0  0  0  0  0  0
  160.7070  212.4970  147.8590 N   0  0  0  0  0  2  0  0  0  0  0  0
  162.6070  213.4320  146.6880 C   0  0  0  0  0  2  0  0  0  0  0  0
  163.1000  212.6040  147.8500 C   0  0  0  0  0  2  0  0  0  0  0  0
  161.8790  212.3990  148.7170 C   0  0  2  0  0  3  0  0  0  0  0  0
  160.5110  212.9000  145.4780 C   0  0  0  0  0  0  0  0  0  0  0  0
  159.4580  212.2050  145.4810 O   0  0  0  0  0  0  0  0  0  0  0  0
  161.1750  213.2270  144.2530 N   0  0  0  0  0  2  0  0  0  0  0  0
  161.3170  211.8290  142.2070 C   0  0  0  0  0  3  0  0  0  0  0  0
  160.5690  211.8320  141.0430 C   0  0  0  0  0  0  0  0  0  0  0  0
  160.7420  212.8400  142.9450 C   0  0  0  0  0  0  0  0  0  0  0  0
  159.6310  212.7500  141.0820 O   0  0  0  0  0  0  0  0  0  0  0  0
  159.6990  213.3920  142.2250 C   0  0  0  0  0  3  0  0  0  0  0  0
  160.5960  211.5730  138.6730 O   0  0  0  0  0  1  0  0  0  0  0  0
  160.7530  210.8970  139.8860 C   0  0  1  0  0  3  0  0  0  0  0  0
  162.1100  210.2040  139.9420 C   0  0  0  0  0  2  0  0  0  0  0  0
  161.9550  208.8180  140.0210 O   0  0  0  0  0  1  0  0  0  0  0  0
  160.4550  205.6050  149.1640 O   0  0  0  0  0  0  0  0  0  0  0  0
  162.4130  205.8410  147.5850 C   0  0  1  0  0  3  0  0  0  0  0  0
  161.3910  204.9680  148.2930 C   0  0  2  0  0  0  0  0  0  0  0  0
  161.2090  205.2920  146.8190 C   0  0  2  0  0  3  0  0  0  0  0  0
  162.1960  207.1890  147.8810 O   0  0  0  0  0  1  0  0  0  0  0  0
  161.1350  204.3430  144.6360 O   0  0  0  0  0  1  0  0  0  0  0  0
  161.6680  204.1620  145.9110 C   0  0  0  0  0  2  0  0  0  0  0  0
  161.7760  203.6500  148.5980 O   0  0  0  0  0  0  0  0  0  0  0  0
  160.7100  203.0730  149.3060 C   0  0  1  0  0  3  0  0  0  0  0  0
  159.8690  202.3830  148.4100 O   0  0  0  0  0  0  0  0  0  0  0  0
  160.7000  201.5830  149.2160 C   0  0  1  0  0  3  0  0  0  0  0  0
  161.8190  200.9890  148.3550 C   0  0  0  0  0  2  0  0  0  0  0  0
  161.2060  198.5890  145.5900 C   0  0  0  0  0  3  0  0  0  0  0  0
  159.7930  200.5890  145.1470 C   0  0  0  0  0  2  0  0  0  0  0  0
  160.7200  201.3820  146.0660 C   0  0  0  0  0  2  0  0  0  0  0  0
  161.5820  199.1140  146.7590 C   0  0  0  0  0  3  0  0  0  0  0  0
  160.5770  199.4400  144.5250 C   0  0  0  0  0  2  0  0  0  0  0  0
  161.3450  200.4970  147.0600 N   0  0  0  0  0  0  0  0  0  0  0  0
  1  5  1  0  0  0  0
  1  3  1  0  0  0  0
  2  9  2  0  0  0  0
  3  6  2  0  0  0  0
  3  4  1  0  0  0  0
  5  8  2  0  0  0  0
  7  2  1  0  0  0  0
  7  1  2  0  0  0  0
  8  4  1  0  0  0  0
  9  6  1  0  0  0  0
 10 11  2  0  0  0  0
 11 12  1  0  0  0  0
 12  5  1  0  0  0  0
 13 18  1  6  0  0  0
 13 14  1  0  0  0  0
 14 17  1  0  0  0  0
 15 13  1  0  0  0  0
 15 16  1  0  0  0  0
 16 17  1  0  0  0  0
 17 11  1  6  0  0  0
 18 19  2  0  0  0  0
 20 18  1  0  0  0  0
 21 23  1  0  0  0  0
 22 24  1  0  0  0  0
 22 21  2  0  0  0  0
 23 20  1  0  0  0  0
 24 25  1  0  0  0  0
 25 23  2  0  0  0  0
 27 26  1  6  0  0  0
 27 28  1  0  0  0  0
 27 22  1  0  0  0  0
 28 29  1  0  0  0  0
 30  2  1  0  0  0  0
 31 34  1  1  0  0  0
 31 32  1  0  0  0  0
 32 37  1  1  0  0  0
 32 30  1  0  0  0  0
 33 36  1  6  0  0  0
 33 31  1  0  0  0  0
 33 32  1  0  0  0  0
 35 36  1  0  0  0  0
 38 37  1  6  0  0  0
 39 40  1  0  0  0  0
 39 38  1  0  0  0  0
 40 41  1  6  0  0  0
 40 38  1  0  0  0  0
 42 45  2  0  0  0  0
 43 44  1  0  0  0  0
 44 47  1  0  0  0  0
 45 47  1  0  0  0  0
 46 43  1  0  0  0  0
 46 42  1  0  0  0  0
 47 41  1  0  0  0  0
M  END
>  <MODEL>
6

>  <REMARK>
 VINA RESULT:      -6.1      2.690      4.439
  Name = 
  13 active torsions:
  status: ('A' for Active; 'I' for Inactive)
    1  A    between atoms: C_6  and  C_26
    2  A    between atoms: O_7  and  C_9
    3  A    between atoms: O_7  and  C_25
    4  A    between atoms: C_8  and  N_45
    5  A    between atoms: C_11  and  O_28
    6  A    between atoms: C_12  and  C_26
    7  A    between atoms: C_15  and  C_39
    8  A    between atoms: C_17  and  C_23
    9  A    between atoms: C_18  and  N_44
   10  A    between atoms: C_25  and  O_28
   11  A    between atoms: C_27  and  C_35
   12  A    between atoms: C_34  and  C_36
   13  A    between atoms: C_35  and  N_46
                            x       y       z     vdW  Elec       q    Type
                         _______ _______ _______ _____ _____    ______ ____

>  <TORSDO>
F 13

$$$$
=
 OpenBabel11072414533D

 47 53  0  0  1  0  0  0  0  0999 V2000
  158.5090  213.8830  149.4320 C   0  0  0  0  0  0  0  0  0  0  0  0
  159.9290  214.2730  147.5360 C   0  0  0  0  0  0  0  0  0  0  0  0
  157.3970  213.9790  148.6400 C   0  0  0  0  0  0  0  0  0  0  0  0
  156.3080  213.7670  149.3400 O   0  0  0  0  0  0  0  0  0  0  0  0
  158.0370  213.6000  150.6960 C   0  0  0  0  0  0  0  0  0  0  0  0
  157.4860  214.2420  147.2760 C   0  0  0  0  0  3  0  0  0  0  0  0
  159.7970  214.0080  148.9110 C   0  0  0  0  0  3  0  0  0  0  0  0
  156.6520  213.5190  150.5930 C   0  0  0  0  0  3  0  0  0  0  0  0
  158.7710  214.3940  146.7260 C   0  0  0  0  0  3  0  0  0  0  0  0
  160.4760  211.9780  150.9690 O   0  0  0  0  0  0  0  0  0  0  0  0
  159.8720  212.3930  151.9960 C   0  0  0  0  0  0  0  0  0  0  0  0
  158.7800  213.3110  151.8860 N   0  0  0  0  0  2  0  0  0  0  0  0
  161.1190  210.1130  154.4850 C   0  0  1  0  0  3  0  0  0  0  0  0
  161.2850  210.8850  153.2590 N   0  0  0  0  0  2  0  0  0  0  0  0
  159.7630  210.4410  155.0870 C   0  0  0  0  0  2  0  0  0  0  0  0
  159.1770  211.5160  154.2050 C   0  0  0  0  0  2  0  0  0  0  0  0
  160.3350  211.9830  153.3530 C   0  0  2  0  0  3  0  0  0  0  0  0
  161.2300  208.6520  154.1990 C   0  0  0  0  0  0  0  0  0  0  0  0
  161.5440  207.8510  155.1210 O   0  0  0  0  0  0  0  0  0  0  0  0
  160.9870  208.1860  152.8670 N   0  0  0  0  0  2  0  0  0  0  0  0
  161.1070  206.4240  151.1230 C   0  0  0  0  0  3  0  0  0  0  0  0
  161.1610  205.0440  151.2180 C   0  0  0  0  0  0  0  0  0  0  0  0
  161.0530  206.8210  152.4410 C   0  0  0  0  0  0  0  0  0  0  0  0
  161.1460  204.6530  152.4710 O   0  0  0  0  0  0  0  0  0  0  0  0
  161.0800  205.7040  153.2540 C   0  0  0  0  0  3  0  0  0  0  0  0
  160.3570  203.0390  150.2100 O   0  0  0  0  0  1  0  0  0  0  0  0
  161.2610  204.0940  150.0640 C   0  0  1  0  0  3  0  0  0  0  0  0
  161.0390  204.8100  148.7350 C   0  0  0  0  0  2  0  0  0  0  0  0
  162.1150  204.5920  147.8700 O   0  0  0  0  0  1  0  0  0  0  0  0
  161.2140  214.4090  146.9960 O   0  0  0  0  0  0  0  0  0  0  0  0
  162.7380  212.6290  146.0530 C   0  0  1  0  0  3  0  0  0  0  0  0
  161.6610  213.6800  145.8510 C   0  0  2  0  0  0  0  0  0  0  0  0
  163.0900  213.9790  145.4270 C   0  0  2  0  0  3  0  0  0  0  0  0
  163.1640  212.6110  147.3830 O   0  0  0  0  0  1  0  0  0  0  0  0
  164.4810  214.4430  143.5510 O   0  0  0  0  0  1  0  0  0  0  0  0
  163.3070  213.7960  143.9340 C   0  0  0  0  0  2  0  0  0  0  0  0
  160.7370  213.4600  144.8140 O   0  0  0  0  0  0  0  0  0  0  0  0
  160.7120  212.0760  144.5830 C   0  0  1  0  0  3  0  0  0  0  0  0
  159.3760  211.6260  144.5650 O   0  0  0  0  0  0  0  0  0  0  0  0
  160.0130  211.7160  143.3140 C   0  0  1  0  0  3  0  0  0  0  0  0
  159.4430  212.9090  142.5410 C   0  0  0  0  0  2  0  0  0  0  0  0
  161.0320  212.5350  139.2070 C   0  0  0  0  0  3  0  0  0  0  0  0
  158.6220  211.9780  138.9330 C   0  0  0  0  0  2  0  0  0  0  0  0
  158.3510  212.7550  140.2200 C   0  0  0  0  0  2  0  0  0  0  0  0
  160.8540  212.6560  140.5250 C   0  0  0  0  0  3  0  0  0  0  0  0
  159.8650  212.5500  138.2620 C   0  0  0  0  0  2  0  0  0  0  0  0
  159.5380  212.7480  141.0890 N   0  0  0  0  0  0  0  0  0  0  0  0
  1  5  1  0  0  0  0
  2  7  2  0  0  0  0
  3  4  1  0  0  0  0
  3  1  2  0  0  0  0
  4  8  1  0  0  0  0
  5 12  1  0  0  0  0
  6  3  1  0  0  0  0
  7  1  1  0  0  0  0
  8  5  2  0  0  0  0
  9  6  2  0  0  0  0
  9  2  1  0  0  0  0
 10 11  2  0  0  0  0
 12 11  1  0  0  0  0
 13 18  1  6  0  0  0
 13 15  1  0  0  0  0
 14 17  1  0  0  0  0
 14 13  1  0  0  0  0
 16 15  1  0  0  0  0
 17 11  1  6  0  0  0
 17 16  1  0  0  0  0
 18 19  2  0  0  0  0
 20 18  1  0  0  0  0
 21 22  2  0  0  0  0
 21 23  1  0  0  0  0
 22 24  1  0  0  0  0
 23 20  1  0  0  0  0
 23 25  2  0  0  0  0
 24 25  1  0  0  0  0
 27 26  1  1  0  0  0
 27 22  1  0  0  0  0
 28 27  1  0  0  0  0
 29 28  1  0  0  0  0
 30  2  1  0  0  0  0
 31 34  1  1  0  0  0
 32 37  1  6  0  0  0
 32 31  1  0  0  0  0
 32 30  1  0  0  0  0
 33 36  1  6  0  0  0
 33 32  1  0  0  0  0
 33 31  1  0  0  0  0
 35 36  1  0  0  0  0
 38 37  1  6  0  0  0
 39 38  1  0  0  0  0
 40 41  1  6  0  0  0
 40 39  1  0  0  0  0
 40 38  1  0  0  0  0
 42 45  2  0  0  0  0
 43 44  1  0  0  0  0
 44 47  1  0  0  0  0
 45 47  1  0  0  0  0
 46 43  1  0  0  0  0
 46 42  1  0  0  0  0
 47 41  1  0  0  0  0
M  END
>  <MODEL>
7

>  <REMARK>
 VINA RESULT:      -5.8      2.735      9.161
  Name = 
  13 active torsions:
  status: ('A' for Active; 'I' for Inactive)
    1  A    between atoms: C_6  and  C_26
    2  A    between atoms: O_7  and  C_9
    3  A    between atoms: O_7  and  C_25
    4  A    between atoms: C_8  and  N_45
    5  A    between atoms: C_11  and  O_28
    6  A    between atoms: C_12  and  C_26
    7  A    between atoms: C_15  and  C_39
    8  A    between atoms: C_17  and  C_23
    9  A    between atoms: C_18  and  N_44
   10  A    between atoms: C_25  and  O_28
   11  A    between atoms: C_27  and  C_35
   12  A    between atoms: C_34  and  C_36
   13  A    between atoms: C_35  and  N_46
                            x       y       z     vdW  Elec       q    Type
                         _______ _______ _______ _____ _____    ______ ____

>  <TORSDO>
F 13

$$$$
=
 OpenBabel11072414533D

 47 53  0  0  1  0  0  0  0  0999 V2000
  161.7320  208.4700  150.4450 C   0  0  0  0  0  0  0  0  0  0  0  0
  160.8310  208.2660  152.6610 C   0  0  0  0  0  0  0  0  0  0  0  0
  162.3430  207.2520  150.5630 C   0  0  0  0  0  0  0  0  0  0  0  0
  162.9680  206.9350  149.4530 O   0  0  0  0  0  0  0  0  0  0  0  0
  162.0260  208.9070  149.1700 C   0  0  0  0  0  0  0  0  0  0  0  0
  162.2510  206.4920  151.7250 C   0  0  0  0  0  3  0  0  0  0  0  0
  160.9510  209.0040  151.4700 C   0  0  0  0  0  3  0  0  0  0  0  0
  162.7890  207.9090  148.5760 C   0  0  0  0  0  3  0  0  0  0  0  0
  161.4880  207.0140  152.7840 C   0  0  0  0  0  3  0  0  0  0  0  0
  163.3460  211.5290  148.9670 O   0  0  0  0  0  0  0  0  0  0  0  0
  162.1630  211.3800  148.5540 C   0  0  0  0  0  0  0  0  0  0  0  0
  161.5610  210.0830  148.4980 N   0  0  0  0  0  2  0  0  0  0  0  0
  160.2890  213.2810  146.1400 C   0  0  1  0  0  3  0  0  0  0  0  0
  160.4340  212.1400  147.0370 N   0  0  0  0  0  2  0  0  0  0  0  0
  161.4950  214.1900  146.3110 C   0  0  0  0  0  2  0  0  0  0  0  0
  162.3120  213.5770  147.4210 C   0  0  0  0  0  2  0  0  0  0  0  0
  161.3930  212.5540  148.0500 C   0  0  2  0  0  3  0  0  0  0  0  0
  160.1720  212.8190  144.7260 C   0  0  0  0  0  0  0  0  0  0  0  0
  159.2000  212.0960  144.3770 O   0  0  0  0  0  0  0  0  0  0  0  0
  161.1840  213.2000  143.7860 N   0  0  0  0  0  2  0  0  0  0  0  0
  161.0590  211.5500  141.9350 C   0  0  0  0  0  3  0  0  0  0  0  0
  161.1500  211.7060  140.5630 C   0  0  0  0  0  0  0  0  0  0  0  0
  161.2080  212.8380  142.4010 C   0  0  0  0  0  0  0  0  0  0  0  0
  161.3290  212.9650  140.2380 O   0  0  0  0  0  0  0  0  0  0  0  0
  161.3710  213.6940  141.3290 C   0  0  0  0  0  3  0  0  0  0  0  0
  160.2970  211.0380  138.4390 O   0  0  0  0  0  1  0  0  0  0  0  0
  161.0260  210.6080  139.5510 C   0  0  1  0  0  3  0  0  0  0  0  0
  162.3950  210.0870  139.1260 C   0  0  0  0  0  2  0  0  0  0  0  0
  162.8340  210.7350  137.9690 O   0  0  0  0  0  1  0  0  0  0  0  0
  160.0580  208.7890  153.7040 O   0  0  0  0  0  0  0  0  0  0  0  0
  161.5560  209.5710  155.5820 C   0  0  1  0  0  3  0  0  0  0  0  0
  160.4940  209.8650  154.5360 C   0  0  2  0  0  0  0  0  0  0  0  0
  160.0940  209.7400  155.9970 C   0  0  2  0  0  3  0  0  0  0  0  0
  161.8820  208.2140  155.5830 O   0  0  0  0  0  1  0  0  0  0  0  0
  158.5770  211.2790  157.0000 O   0  0  0  0  0  1  0  0  0  0  0  0
  159.9190  211.0910  156.6730 C   0  0  0  0  0  2  0  0  0  0  0  0
  160.4710  211.1630  153.9930 O   0  0  0  0  0  0  0  0  0  0  0  0
  159.5230  211.1500  152.9580 C   0  0  1  0  0  3  0  0  0  0  0  0
  158.2260  211.1060  153.5080 O   0  0  0  0  0  0  0  0  0  0  0  0
  158.6300  212.3460  152.9800 C   0  0  1  0  0  3  0  0  0  0  0  0
  158.9010  213.3210  154.1300 C   0  0  0  0  0  2  0  0  0  0  0  0
  156.8240  214.4530  156.9910 C   0  0  0  0  0  3  0  0  0  0  0  0
  155.3520  214.4320  154.9840 C   0  0  0  0  0  2  0  0  0  0  0  0
  156.3440  213.4700  154.3330 C   0  0  0  0  0  2  0  0  0  0  0  0
  157.8720  214.1420  156.2250 C   0  0  0  0  0  3  0  0  0  0  0  0
  155.4190  214.2630  156.4970 C   0  0  0  0  0  2  0  0  0  0  0  0
  157.6930  213.6670  154.8830 N   0  0  0  0  0  0  0  0  0  0  0  0
  1  3  2  0  0  0  0
  1  7  1  0  0  0  0
  2  9  1  0  0  0  0
  2 30  1  0  0  0  0
  3  6  1  0  0  0  0
  4  3  1  0  0  0  0
  5  1  1  0  0  0  0
  6  9  2  0  0  0  0
  7  2  2  0  0  0  0
  8  5  2  0  0  0  0
  8  4  1  0  0  0  0
 11 10  2  0  0  0  0
 12 11  1  0  0  0  0
 12  5  1  0  0  0  0
 13 18  1  6  0  0  0
 13 15  1  0  0  0  0
 13 14  1  0  0  0  0
 14 17  1  0  0  0  0
 15 16  1  0  0  0  0
 16 17  1  0  0  0  0
 17 11  1  6  0  0  0
 19 18  2  0  0  0  0
 20 18  1  0  0  0  0
 21 23  1  0  0  0  0
 22 21  2  0  0  0  0
 23 20  1  0  0  0  0
 24 22  1  0  0  0  0
 24 25  1  0  0  0  0
 25 23  2  0  0  0  0
 27 26  1  6  0  0  0
 27 22  1  0  0  0  0
 28 27  1  0  0  0  0
 29 28  1  0  0  0  0
 31 34  1  6  0  0  0
 31 33  1  0  0  0  0
 32 30  1  6  0  0  0
 32 31  1  0  0  0  0
 32 33  1  0  0  0  0
 33 36  1  1  0  0  0
 36 35  1  0  0  0  0
 37 32  1  0  0  0  0
 38 40  1  0  0  0  0
 38 39  1  0  0  0  0
 38 37  1  1  0  0  0
 40 39  1  0  0  0  0
 40 41  1  1  0  0  0
 41 47  1  0  0  0  0
 43 46  1  0  0  0  0
 44 47  1  0  0  0  0
 44 43  1  0  0  0  0
 45 42  2  0  0  0  0
 46 42  1  0  0  0  0
 47 45  1  0  0  0  0
M  END
>  <MODEL>
8

>  <REMARK>
 VINA RESULT:      -5.7      2.344      6.535
  Name = 
  13 active torsions:
  status: ('A' for Active; 'I' for Inactive)
    1  A    between atoms: C_6  and  C_26
    2  A    between atoms: O_7  and  C_9
    3  A    between atoms: O_7  and  C_25
    4  A    between atoms: C_8  and  N_45
    5  A    between atoms: C_11  and  O_28
    6  A    between atoms: C_12  and  C_26
    7  A    between atoms: C_15  and  C_39
    8  A    between atoms: C_17  and  C_23
    9  A    between atoms: C_18  and  N_44
   10  A    between atoms: C_25  and  O_28
   11  A    between atoms: C_27  and  C_35
   12  A    between atoms: C_34  and  C_36
   13  A    between atoms: C_35  and  N_46
                            x       y       z     vdW  Elec       q    Type
                         _______ _______ _______ _____ _____    ______ ____

>  <TORSDO>
F 13

$$$$
=
 OpenBabel11072414533D

 47 53  0  0  1  0  0  0  0  0999 V2000
  161.4920  206.6390  148.9670 C   0  0  0  0  0  0  0  0  0  0  0  0
  160.6520  205.8060  151.0570 C   0  0  0  0  0  0  0  0  0  0  0  0
  161.5640  205.3660  148.4700 C   0  0  0  0  0  0  0  0  0  0  0  0
  161.9750  205.3750  147.2230 O   0  0  0  0  0  0  0  0  0  0  0  0
  161.8980  207.4600  147.9360 C   0  0  0  0  0  0  0  0  0  0  0  0
  161.2090  204.2570  149.2320 C   0  0  0  0  0  3  0  0  0  0  0  0
  161.0230  206.9000  150.2540 C   0  0  0  0  0  3  0  0  0  0  0  0
  162.1770  206.6300  146.8550 C   0  0  0  0  0  3  0  0  0  0  0  0
  160.7530  204.4880  150.5420 C   0  0  0  0  0  3  0  0  0  0  0  0
  162.7370  209.3340  150.0420 O   0  0  0  0  0  0  0  0  0  0  0  0
  162.1950  209.7650  148.9880 C   0  0  0  0  0  0  0  0  0  0  0  0
  161.9260  208.8910  147.8890 N   0  0  0  0  0  2  0  0  0  0  0  0
  161.0760  212.7280  147.2790 C   0  0  1  0  0  3  0  0  0  0  0  0
  160.8210  211.4240  147.8780 N   0  0  0  0  0  2  0  0  0  0  0  0
  162.5320  213.0960  147.5140 C   0  0  0  0  0  2  0  0  0  0  0  0
  163.0990  211.9840  148.3630 C   0  0  0  0  0  2  0  0  0  0  0  0
  161.8880  211.2190  148.8460 C   0  0  2  0  0  3  0  0  0  0  0  0
  160.7680  212.7000  145.8200 C   0  0  0  0  0  0  0  0  0  0  0  0
  159.6030  212.4190  145.4260 O   0  0  0  0  0  0  0  0  0  0  0  0
  161.8140  212.9820  144.8840 N   0  0  0  0  0  2  0  0  0  0  0  0
  162.6540  212.5900  142.5810 C   0  0  0  0  0  3  0  0  0  0  0  0
  162.0600  212.7810  141.3460 C   0  0  0  0  0  0  0  0  0  0  0  0
  161.6730  212.9960  143.4590 C   0  0  0  0  0  0  0  0  0  0  0  0
  160.8400  213.2490  141.4710 O   0  0  0  0  0  0  0  0  0  0  0  0
  160.5600  213.3960  142.7450 C   0  0  0  0  0  3  0  0  0  0  0  0
  161.7110  212.3590  139.0250 O   0  0  0  0  0  1  0  0  0  0  0  0
  162.6860  212.4700  140.0200 C   0  0  1  0  0  3  0  0  0  0  0  0
  163.7270  213.5170  139.6370 C   0  0  0  0  0  2  0  0  0  0  0  0
  163.7780  213.6800  138.2510 O   0  0  0  0  0  1  0  0  0  0  0  0
  160.1870  206.0490  152.3540 O   0  0  0  0  0  0  0  0  0  0  0  0
  162.2450  206.9430  153.5140 C   0  0  1  0  0  3  0  0  0  0  0  0
  160.7580  207.0330  153.2180 C   0  0  2  0  0  0  0  0  0  0  0  0
  161.2250  206.5030  154.5640 C   0  0  2  0  0  3  0  0  0  0  0  0
  162.8000  205.8150  152.9060 O   0  0  0  0  0  1  0  0  0  0  0  0
  160.0040  207.3500  156.4250 O   0  0  0  0  0  1  0  0  0  0  0  0
  161.1530  207.5510  155.6620 C   0  0  0  0  0  2  0  0  0  0  0  0
  160.1800  208.3160  153.2210 O   0  0  0  0  0  0  0  0  0  0  0  0
  161.1370  209.1900  152.6800 C   0  0  1  0  0  3  0  0  0  0  0  0
  160.4850  210.2780  152.0650 O   0  0  0  0  0  0  0  0  0  0  0  0
  161.0950  210.5460  153.3040 C   0  0  1  0  0  3  0  0  0  0  0  0
  160.0110  210.7210  154.3730 C   0  0  0  0  0  2  0  0  0  0  0  0
  156.7270  212.4420  154.1820 C   0  0  0  0  0  3  0  0  0  0  0  0
  158.4590  214.1000  153.5150 C   0  0  0  0  0  2  0  0  0  0  0  0
  159.3880  212.9260  153.2100 C   0  0  0  0  0  2  0  0  0  0  0  0
  157.6850  211.5580  154.4720 C   0  0  0  0  0  3  0  0  0  0  0  0
  157.0150  213.6470  153.3350 C   0  0  0  0  0  2  0  0  0  0  0  0
  159.0360  211.7600  154.0320 N   0  0  0  0  0  0  0  0  0  0  0  0
  1  7  1  0  0  0  0
  2 30  1  0  0  0  0
  3  1  2  0  0  0  0
  3  6  1  0  0  0  0
  4  3  1  0  0  0  0
  5  1  1  0  0  0  0
  6  9  2  0  0  0  0
  7  2  2  0  0  0  0
  8  4  1  0  0  0  0
  8  5  2  0  0  0  0
  9  2  1  0  0  0  0
 11 10  2  0  0  0  0
 12  5  1  0  0  0  0
 12 11  1  0  0  0  0
 13 18  1  6  0  0  0
 13 15  1  0  0  0  0
 13 14  1  0  0  0  0
 14 17  1  0  0  0  0
 15 16  1  0  0  0  0
 16 17  1  0  0  0  0
 17 11  1  6  0  0  0
 19 18  2  0  0  0  0
 20 18  1  0  0  0  0
 21 23  1  0  0  0  0
 22 24  1  0  0  0  0
 22 21  2  0  0  0  0
 23 20  1  0  0  0  0
 24 25  1  0  0  0  0
 25 23  2  0  0  0  0
 27 26  1  6  0  0  0
 27 22  1  0  0  0  0
 28 27  1  0  0  0  0
 29 28  1  0  0  0  0
 31 34  1  6  0  0  0
 31 33  1  0  0  0  0
 32 30  1  6  0  0  0
 32 37  1  0  0  0  0
 32 31  1  0  0  0  0
 32 33  1  0  0  0  0
 33 36  1  1  0  0  0
 36 35  1  0  0  0  0
 38 37  1  1  0  0  0
 38 40  1  0  0  0  0
 39 38  1  0  0  0  0
 39 40  1  0  0  0  0
 40 41  1  1  0  0  0
 42 45  2  0  0  0  0
 44 43  1  0  0  0  0
 44 47  1  0  0  0  0
 46 43  1  0  0  0  0
 46 42  1  0  0  0  0
 47 41  1  0  0  0  0
 47 45  1  0  0  0  0
M  END
>  <MODEL>
9

>  <REMARK>
 VINA RESULT:      -5.5      1.994      6.018
  Name = 
  13 active torsions:
  status: ('A' for Active; 'I' for Inactive)
    1  A    between atoms: C_6  and  C_26
    2  A    between atoms: O_7  and  C_9
    3  A    between atoms: O_7  and  C_25
    4  A    between atoms: C_8  and  N_45
    5  A    between atoms: C_11  and  O_28
    6  A    between atoms: C_12  and  C_26
    7  A    between atoms: C_15  and  C_39
    8  A    between atoms: C_17  and  C_23
    9  A    between atoms: C_18  and  N_44
   10  A    between atoms: C_25  and  O_28
   11  A    between atoms: C_27  and  C_35
   12  A    between atoms: C_34  and  C_36
   13  A    between atoms: C_35  and  N_46
                            x       y       z     vdW  Elec       q    Type
                         _______ _______ _______ _____ _____    ______ ____

>  <TORSDO>
F 13

$$$$
