=
 OpenBabel11072411373D

 25 28  0  0  1  0  0  0  0  0999 V2000
  159.8700  211.3360  151.7880 C   0  0  2  0  0  3  0  0  0  0  0  0
  159.3750  212.6260  152.4520 C   0  0  2  0  0  3  0  0  0  0  0  0
  160.4130  210.3160  152.8020 C   0  0  2  0  0  0  0  0  0  0  0  0
  160.5960  210.6810  154.2990 C   0  0  2  0  0  3  0  0  0  0  0  0
  157.1680  213.1140  153.2220 O   0  0  0  0  0  0  0  0  0  0  0  0
  161.2620  209.5600  155.0900 C   0  0  0  0  0  1  0  0  0  0  0  0
  158.1020  211.2060  154.2260 C   0  0  0  0  0  2  0  0  0  0  0  0
  158.1340  212.3700  153.2800 C   0  0  0  0  0  0  0  0  0  0  0  0
  159.3620  211.1420  154.9680 N   0  0  0  0  0  0  0  0  0  0  0  0
  161.3650  211.1510  151.9660 C   0  0  0  0  0  2  0  0  0  0  0  0
  160.4260  208.8460  152.3520 C   0  0  2  0  0  3  0  0  0  0  0  0
  161.7000  208.1280  152.7970 C   0  0  1  0  0  3  0  0  0  0  0  0
  161.3780  206.6460  153.0090 C   0  0  0  0  0  2  0  0  0  0  0  0
  160.8590  206.1680  150.9080 C   0  0  0  0  0  2  0  0  0  0  0  0
  161.7900  205.8810  151.9110 O   0  0  0  0  0  0  0  0  0  0  0  0
  161.1610  207.5410  150.3090 C   0  0  0  0  0  2  0  0  0  0  0  0
  161.5440  208.6130  151.3490 C   0  0  1  0  0  3  0  0  0  0  0  0
  158.5790  211.4220  157.2410 C   0  0  0  0  0  2  0  0  0  0  0  0
  160.4510  212.8000  156.5780 C   0  0  0  0  0  1  0  0  0  0  0  0
  159.4180  211.7680  156.2690 C   0  0  0  0  0  0  0  0  0  0  0  0
  159.2230  213.7840  151.4510 C   0  0  1  0  0  3  0  0  0  0  0  0
  160.4390  214.4530  151.2930 O   0  0  0  0  0  1  0  0  0  0  0  0
  159.5240  213.3520  148.9650 N   0  0  0  0  0  1  0  0  0  0  0  0
  158.6850  213.3620  150.1170 C   0  0  0  0  0  0  0  0  0  0  0  0
  157.4840  213.0010  150.0140 O   0  0  0  0  0  0  0  0  0  0  0  0
  1 10  1  6  0  0  0
  1  2  1  0  0  0  0
  1  3  1  0  0  0  0
  2 21  1  6  0  0  0
  2  8  1  0  0  0  0
  3 10  1  6  0  0  0
  3  4  1  0  0  0  0
  4  9  1  0  0  0  0
  4  6  1  1  0  0  0
  5  8  2  0  0  0  0
  7  9  1  0  0  0  0
  8  7  1  0  0  0  0
  9 20  1  0  0  0  0
 11 12  1  0  0  0  0
 11  3  1  1  0  0  0
 12 13  1  6  0  0  0
 14 15  1  0  0  0  0
 15 13  1  0  0  0  0
 16 14  1  0  0  0  0
 17 16  1  6  0  0  0
 17 11  1  0  0  0  0
 17 12  1  0  0  0  0
 20 19  1  0  0  0  0
 20 18  2  0  0  0  0
 21 22  1  6  0  0  0
 23 24  1  0  0  0  0
 24 21  1  0  0  0  0
 25 24  2  0  0  0  0
M  END
>  <MODEL>
1

>  <REMARK>
 VINA RESULT:      -4.1      0.000      0.000
  Name = 
  4 active torsions:
  status: ('A' for Active; 'I' for Inactive)
    1  A    between atoms: C_1  and  C_5
    2  A    between atoms: C_3  and  C_22
    3  A    between atoms: N_15  and  C_20
    4  A    between atoms: C_19  and  C_22
                            x       y       z     vdW  Elec       q    Type
                         _______ _______ _______ _____ _____    ______ ____

>  <TORSDO>
F 4

$$$$
=
 OpenBabel11072411373D

 25 28  0  0  1  0  0  0  0  0999 V2000
  161.3650  205.4970  151.4440 C   0  0  2  0  0  3  0  0  0  0  0  0
  161.4740  204.2600  150.5450 C   0  0  2  0  0  3  0  0  0  0  0  0
  161.6380  206.8080  150.6880 C   0  0  2  0  0  0  0  0  0  0  0  0
  162.1540  206.8050  149.2240 C   0  0  2  0  0  3  0  0  0  0  0  0
  159.7300  203.2070  149.2990 O   0  0  0  0  0  0  0  0  0  0  0  0
  162.4720  208.2100  148.7210 C   0  0  0  0  0  1  0  0  0  0  0  0
  160.0390  205.4670  148.7360 C   0  0  0  0  0  2  0  0  0  0  0  0
  160.3560  204.2310  149.5230 C   0  0  0  0  0  0  0  0  0  0  0  0
  161.2800  206.0870  148.2730 N   0  0  0  0  0  0  0  0  0  0  0  0
  162.6980  206.2040  151.5890 C   0  0  0  0  0  2  0  0  0  0  0  0
  161.0510  208.0870  151.3040 C   0  0  2  0  0  3  0  0  0  0  0  0
  162.1440  209.0830  151.6910 C   0  0  1  0  0  3  0  0  0  0  0  0
  161.5760  210.5010  151.5780 C   0  0  0  0  0  2  0  0  0  0  0  0
  160.0390  210.3140  153.1640 C   0  0  0  0  0  2  0  0  0  0  0  0
  161.2150  210.9980  152.8370 O   0  0  0  0  0  0  0  0  0  0  0  0
  160.3820  208.8940  153.6110 C   0  0  0  0  0  2  0  0  0  0  0  0
  161.4720  208.2110  152.7590 C   0  0  1  0  0  3  0  0  0  0  0  0
  162.8780  205.0950  146.7480 C   0  0  0  0  0  2  0  0  0  0  0  0
  160.9440  206.1380  145.7410 C   0  0  0  0  0  1  0  0  0  0  0  0
  161.7450  205.7640  146.9430 C   0  0  0  0  0  0  0  0  0  0  0  0
  161.6120  202.9560  151.3490 C   0  0  1  0  0  3  0  0  0  0  0  0
  160.8210  203.0090  152.4990 O   0  0  0  0  0  1  0  0  0  0  0  0
  162.0570  201.3900  149.3990 N   0  0  0  0  0  1  0  0  0  0  0  0
  161.2970  201.7230  150.5570 C   0  0  0  0  0  0  0  0  0  0  0  0
  160.3600  200.9680  150.9230 O   0  0  0  0  0  0  0  0  0  0  0  0
  1 10  1  1  0  0  0
  2 21  1  1  0  0  0
  2  1  1  0  0  0  0
  3  1  1  0  0  0  0
  3 10  1  1  0  0  0
  4  6  1  6  0  0  0
  4  3  1  0  0  0  0
  5  8  2  0  0  0  0
  7  8  1  0  0  0  0
  8  2  1  0  0  0  0
  9  7  1  0  0  0  0
  9  4  1  0  0  0  0
 11  3  1  6  0  0  0
 11 12  1  0  0  0  0
 11 17  1  0  0  0  0
 12 13  1  1  0  0  0
 12 17  1  0  0  0  0
 13 15  1  0  0  0  0
 14 16  1  0  0  0  0
 15 14  1  0  0  0  0
 17 16  1  1  0  0  0
 18 20  2  0  0  0  0
 19 20  1  0  0  0  0
 20  9  1  0  0  0  0
 21 22  1  1  0  0  0
 23 24  1  0  0  0  0
 24 25  2  0  0  0  0
 24 21  1  0  0  0  0
M  END
>  <MODEL>
2

>  <REMARK>
 VINA RESULT:      -3.8      3.914      8.580
  Name = 
  4 active torsions:
  status: ('A' for Active; 'I' for Inactive)
    1  A    between atoms: C_1  and  C_5
    2  A    between atoms: C_3  and  C_22
    3  A    between atoms: N_15  and  C_20
    4  A    between atoms: C_19  and  C_22
                            x       y       z     vdW  Elec       q    Type
                         _______ _______ _______ _____ _____    ______ ____

>  <TORSDO>
F 4

$$$$
=
 OpenBabel11072411373D

 25 28  0  0  1  0  0  0  0  0999 V2000
  160.7900  210.8670  150.6440 C   0  0  2  0  0  3  0  0  0  0  0  0
  160.4190  212.3170  150.9750 C   0  0  2  0  0  3  0  0  0  0  0  0
  161.0290  210.0130  151.8990 C   0  0  2  0  0  0  0  0  0  0  0  0
  161.0680  210.6480  153.3150 C   0  0  2  0  0  3  0  0  0  0  0  0
  158.2330  213.2280  151.2820 O   0  0  0  0  0  0  0  0  0  0  0  0
  161.4420  209.6350  154.3930 C   0  0  0  0  0  1  0  0  0  0  0  0
  158.7180  211.4600  152.7520 C   0  0  0  0  0  2  0  0  0  0  0  0
  159.0550  212.3940  151.6280 C   0  0  0  0  0  0  0  0  0  0  0  0
  159.8430  211.3870  153.6840 N   0  0  0  0  0  0  0  0  0  0  0  0
  162.2010  210.5330  151.0880 C   0  0  0  0  0  2  0  0  0  0  0  0
  160.8720  208.4930  151.7320 C   0  0  2  0  0  3  0  0  0  0  0  0
  162.2140  207.7690  151.8390 C   0  0  1  0  0  3  0  0  0  0  0  0
  161.9700  206.3650  152.4000 C   0  0  0  0  0  2  0  0  0  0  0  0
  160.7560  205.5970  150.7130 C   0  0  0  0  0  2  0  0  0  0  0  0
  161.9730  205.4090  151.3770 O   0  0  0  0  0  0  0  0  0  0  0  0
  160.8480  206.8320  149.8190 C   0  0  0  0  0  2  0  0  0  0  0  0
  161.5760  208.0280  150.4680 C   0  0  1  0  0  3  0  0  0  0  0  0
  160.5950  212.0130  155.8980 C   0  0  0  0  0  2  0  0  0  0  0  0
  158.9660  213.4730  154.8710 C   0  0  0  0  0  1  0  0  0  0  0  0
  159.8240  212.2520  154.8420 C   0  0  0  0  0  0  0  0  0  0  0  0
  160.5810  213.2580  149.7690 C   0  0  1  0  0  3  0  0  0  0  0  0
  161.1870  214.4530  150.1640 O   0  0  0  0  0  1  0  0  0  0  0  0
  160.6360  212.0130  147.5550 N   0  0  0  0  0  1  0  0  0  0  0  0
  161.3320  212.6470  148.6240 C   0  0  0  0  0  0  0  0  0  0  0  0
  162.5890  212.7030  148.6010 O   0  0  0  0  0  0  0  0  0  0  0  0
  1  2  1  0  0  0  0
  1 10  1  6  0  0  0
  1  3  1  0  0  0  0
  2 21  1  6  0  0  0
  2  8  1  0  0  0  0
  3 10  1  6  0  0  0
  3  4  1  0  0  0  0
  4  9  1  0  0  0  0
  4  6  1  1  0  0  0
  5  8  2  0  0  0  0
  7  9  1  0  0  0  0
  8  7  1  0  0  0  0
  9 20  1  0  0  0  0
 11 12  1  0  0  0  0
 11  3  1  6  0  0  0
 12 13  1  1  0  0  0
 14 15  1  0  0  0  0
 15 13  1  0  0  0  0
 16 14  1  0  0  0  0
 17 16  1  1  0  0  0
 17 11  1  0  0  0  0
 17 12  1  0  0  0  0
 20 19  1  0  0  0  0
 20 18  2  0  0  0  0
 21 22  1  1  0  0  0
 23 24  1  0  0  0  0
 24 21  1  0  0  0  0
 25 24  2  0  0  0  0
M  END
>  <MODEL>
3

>  <REMARK>
 VINA RESULT:      -3.6      1.589      1.931
  Name = 
  4 active torsions:
  status: ('A' for Active; 'I' for Inactive)
    1  A    between atoms: C_1  and  C_5
    2  A    between atoms: C_3  and  C_22
    3  A    between atoms: N_15  and  C_20
    4  A    between atoms: C_19  and  C_22
                            x       y       z     vdW  Elec       q    Type
                         _______ _______ _______ _____ _____    ______ ____

>  <TORSDO>
F 4

$$$$
=
 OpenBabel11072411373D

 25 28  0  0  1  0  0  0  0  0999 V2000
  161.1830  205.4610  152.5100 C   0  0  2  0  0  3  0  0  0  0  0  0
  161.4680  204.8090  151.1520 C   0  0  2  0  0  3  0  0  0  0  0  0
  161.4250  206.9790  152.5030 C   0  0  2  0  0  0  0  0  0  0  0  0
  162.0730  207.6900  151.2850 C   0  0  2  0  0  3  0  0  0  0  0  0
  159.9310  204.4430  149.3610 O   0  0  0  0  0  0  0  0  0  0  0  0
  162.3290  209.1710  151.5490 C   0  0  0  0  0  1  0  0  0  0  0  0
  160.1190  206.7030  149.9770 C   0  0  0  0  0  2  0  0  0  0  0  0
  160.4550  205.2480  150.1150 C   0  0  0  0  0  0  0  0  0  0  0  0
  161.3480  207.4960  150.0120 N   0  0  0  0  0  0  0  0  0  0  0  0
  162.4400  206.0410  153.1280 C   0  0  0  0  0  2  0  0  0  0  0  0
  160.6890  207.7940  153.5780 C   0  0  2  0  0  3  0  0  0  0  0  0
  161.6590  208.5900  154.4510 C   0  0  1  0  0  3  0  0  0  0  0  0
  160.9510  209.8570  154.9390 C   0  0  0  0  0  2  0  0  0  0  0  0
  159.3900  208.8570  156.1520 C   0  0  0  0  0  2  0  0  0  0  0  0
  160.4990  209.7030  156.2550 O   0  0  0  0  0  0  0  0  0  0  0  0
  159.8620  207.4190  155.9440 C   0  0  0  0  0  2  0  0  0  0  0  0
  161.0450  207.2800  154.9640 C   0  0  1  0  0  3  0  0  0  0  0  0
  162.1590  209.1340  148.4240 C   0  0  0  0  0  2  0  0  0  0  0  0
  162.4220  206.8140  147.7960 C   0  0  0  0  0  1  0  0  0  0  0  0
  161.9580  207.8610  148.7530 C   0  0  0  0  0  0  0  0  0  0  0  0
  161.6290  203.2830  151.2520 C   0  0  1  0  0  3  0  0  0  0  0  0
  160.8230  202.7760  152.2740 O   0  0  0  0  0  1  0  0  0  0  0  0
  160.4580  201.4560  149.9310 N   0  0  0  0  0  1  0  0  0  0  0  0
  161.3560  202.5610  149.9670 C   0  0  0  0  0  0  0  0  0  0  0  0
  161.9160  202.9420  148.9060 O   0  0  0  0  0  0  0  0  0  0  0  0
  1 10  1  1  0  0  0
  2 21  1  1  0  0  0
  2  1  1  0  0  0  0
  3  1  1  0  0  0  0
  3 10  1  1  0  0  0
  4  6  1  1  0  0  0
  4  3  1  0  0  0  0
  5  8  2  0  0  0  0
  7  9  1  0  0  0  0
  7  8  1  0  0  0  0
  8  2  1  0  0  0  0
  9  4  1  0  0  0  0
 11  3  1  6  0  0  0
 11 12  1  0  0  0  0
 11 17  1  0  0  0  0
 12 13  1  1  0  0  0
 12 17  1  0  0  0  0
 13 15  1  0  0  0  0
 14 15  1  0  0  0  0
 16 14  1  0  0  0  0
 17 16  1  1  0  0  0
 18 20  2  0  0  0  0
 19 20  1  0  0  0  0
 20  9  1  0  0  0  0
 21 22  1  1  0  0  0
 23 24  1  0  0  0  0
 24 21  1  0  0  0  0
 25 24  2  0  0  0  0
M  END
>  <MODEL>
4

>  <REMARK>
 VINA RESULT:      -3.6      3.977      7.748
  Name = 
  4 active torsions:
  status: ('A' for Active; 'I' for Inactive)
    1  A    between atoms: C_1  and  C_5
    2  A    between atoms: C_3  and  C_22
    3  A    between atoms: N_15  and  C_20
    4  A    between atoms: C_19  and  C_22
                            x       y       z     vdW  Elec       q    Type
                         _______ _______ _______ _____ _____    ______ ____

>  <TORSDO>
F 4

$$$$
=
 OpenBabel11072411373D

 25 28  0  0  1  0  0  0  0  0999 V2000
  160.6910  209.8330  154.2200 C   0  0  2  0  0  3  0  0  0  0  0  0
  161.4400  208.5160  154.4570 C   0  0  2  0  0  3  0  0  0  0  0  0
  160.8040  210.3280  152.7690 C   0  0  2  0  0  0  0  0  0  0  0  0
  161.7460  209.6360  151.7480 C   0  0  2  0  0  3  0  0  0  0  0  0
  160.5820  206.2960  154.2620 O   0  0  0  0  0  0  0  0  0  0  0  0
  161.7900  210.3710  150.4110 C   0  0  0  0  0  1  0  0  0  0  0  0
  160.3890  207.5440  152.2800 C   0  0  0  0  0  2  0  0  0  0  0  0
  160.7760  207.3730  153.7190 C   0  0  0  0  0  0  0  0  0  0  0  0
  161.4780  208.1960  151.5530 N   0  0  0  0  0  0  0  0  0  0  0  0
  161.6390  210.9620  153.8660 C   0  0  0  0  0  2  0  0  0  0  0  0
  159.7050  211.2880  152.2870 C   0  0  2  0  0  3  0  0  0  0  0  0
  160.2570  212.6830  151.9970 C   0  0  1  0  0  3  0  0  0  0  0  0
  159.4100  213.3250  150.8940 C   0  0  0  0  0  2  0  0  0  0  0  0
  157.5040  213.4160  152.0200 C   0  0  0  0  0  2  0  0  0  0  0  0
  158.4820  214.2250  151.4330 O   0  0  0  0  0  0  0  0  0  0  0  0
  158.0260  212.8630  153.3450 C   0  0  0  0  0  2  0  0  0  0  0  0
  159.4970  212.4020  153.3000 C   0  0  1  0  0  3  0  0  0  0  0  0
  163.2190  206.5150  151.5030 C   0  0  0  0  0  2  0  0  0  0  0  0
  162.5070  207.3810  149.3610 C   0  0  0  0  0  1  0  0  0  0  0  0
  162.4230  207.3580  150.8510 C   0  0  0  0  0  0  0  0  0  0  0  0
  161.6800  208.2340  155.9500 C   0  0  1  0  0  3  0  0  0  0  0  0
  162.5610  209.1760  156.4870 O   0  0  0  0  0  1  0  0  0  0  0  0
  159.9220  206.9300  157.2400 N   0  0  0  0  0  1  0  0  0  0  0  0
  160.4210  208.1760  156.7620 C   0  0  0  0  0  0  0  0  0  0  0  0
  159.8040  209.2380  157.0340 O   0  0  0  0  0  0  0  0  0  0  0  0
  1 10  1  1  0  0  0
  1  2  1  0  0  0  0
  2 21  1  1  0  0  0
  3 10  1  1  0  0  0
  3  1  1  0  0  0  0
  4  6  1  6  0  0  0
  4  3  1  0  0  0  0
  7  8  1  0  0  0  0
  8  5  2  0  0  0  0
  8  2  1  0  0  0  0
  9  4  1  0  0  0  0
  9  7  1  0  0  0  0
 11  3  1  1  0  0  0
 11 17  1  0  0  0  0
 12 13  1  6  0  0  0
 12 11  1  0  0  0  0
 12 17  1  0  0  0  0
 13 15  1  0  0  0  0
 14 16  1  0  0  0  0
 15 14  1  0  0  0  0
 17 16  1  6  0  0  0
 19 20  1  0  0  0  0
 20 18  2  0  0  0  0
 20  9  1  0  0  0  0
 21 22  1  1  0  0  0
 21 24  1  0  0  0  0
 24 25  2  0  0  0  0
 24 23  1  0  0  0  0
M  END
>  <MODEL>
5

>  <REMARK>
 VINA RESULT:      -3.3      2.559      6.627
  Name = 
  4 active torsions:
  status: ('A' for Active; 'I' for Inactive)
    1  A    between atoms: C_1  and  C_5
    2  A    between atoms: C_3  and  C_22
    3  A    between atoms: N_15  and  C_20
    4  A    between atoms: C_19  and  C_22
                            x       y       z     vdW  Elec       q    Type
                         _______ _______ _______ _____ _____    ______ ____

>  <TORSDO>
F 4

$$$$
=
 OpenBabel11072411373D

 25 28  0  0  1  0  0  0  0  0999 V2000
  161.3290  204.8770  149.8270 C   0  0  2  0  0  3  0  0  0  0  0  0
  161.2790  205.1950  151.3260 C   0  0  2  0  0  3  0  0  0  0  0  0
  161.3680  206.1400  148.9510 C   0  0  2  0  0  0  0  0  0  0  0  0
  161.1770  207.5540  149.5620 C   0  0  2  0  0  3  0  0  0  0  0  0
  163.1210  205.4530  152.8230 O   0  0  0  0  0  0  0  0  0  0  0  0
  161.1280  208.6430  148.4940 C   0  0  0  0  0  1  0  0  0  0  0  0
  163.1870  206.9390  151.0040 C   0  0  0  0  0  2  0  0  0  0  0  0
  162.5770  205.8190  151.7930 C   0  0  0  0  0  0  0  0  0  0  0  0
  162.1470  207.8950  150.6220 N   0  0  0  0  0  0  0  0  0  0  0  0
  160.0810  205.3520  149.1090 C   0  0  0  0  0  2  0  0  0  0  0  0
  161.9470  205.9750  147.5380 C   0  0  2  0  0  3  0  0  0  0  0  0
  160.8610  205.6450  146.5140 C   0  0  1  0  0  3  0  0  0  0  0  0
  161.2860  206.2030  145.1530 C   0  0  0  0  0  2  0  0  0  0  0  0
  163.0830  204.9360  144.8780 C   0  0  0  0  0  2  0  0  0  0  0  0
  161.8170  205.1940  144.3410 O   0  0  0  0  0  0  0  0  0  0  0  0
  162.9380  204.1010  146.1490 C   0  0  0  0  0  2  0  0  0  0  0  0
  161.7750  204.5410  147.0630 C   0  0  1  0  0  3  0  0  0  0  0  0
  162.7060  210.1320  151.3590 C   0  0  0  0  0  2  0  0  0  0  0  0
  160.8320  209.0790  152.4650 C   0  0  0  0  0  1  0  0  0  0  0  0
  161.9420  209.0490  151.4680 C   0  0  0  0  0  0  0  0  0  0  0  0
  160.8310  203.9900  152.1700 C   0  0  1  0  0  3  0  0  0  0  0  0
  159.4470  204.0150  152.3560 O   0  0  0  0  0  1  0  0  0  0  0  0
  160.4670  202.0080  150.6230 N   0  0  0  0  0  1  0  0  0  0  0  0
  161.2580  202.6680  151.6070 C   0  0  0  0  0  0  0  0  0  0  0  0
  162.3310  202.1390  151.9990 O   0  0  0  0  0  0  0  0  0  0  0  0
  1 10  1  6  0  0  0
  1  2  1  0  0  0  0
  2  8  1  0  0  0  0
  2 21  1  1  0  0  0
  3 10  1  6  0  0  0
  3  4  1  0  0  0  0
  3  1  1  0  0  0  0
  4  6  1  6  0  0  0
  4  9  1  0  0  0  0
  7  8  1  0  0  0  0
  8  5  2  0  0  0  0
  9  7  1  0  0  0  0
  9 20  1  0  0  0  0
 11  3  1  1  0  0  0
 12 13  1  6  0  0  0
 12 17  1  0  0  0  0
 12 11  1  0  0  0  0
 14 16  1  0  0  0  0
 15 14  1  0  0  0  0
 15 13  1  0  0  0  0
 17 16  1  6  0  0  0
 17 11  1  0  0  0  0
 18 20  2  0  0  0  0
 20 19  1  0  0  0  0
 21 22  1  6  0  0  0
 23 24  1  0  0  0  0
 24 25  2  0  0  0  0
 24 21  1  0  0  0  0
M  END
>  <MODEL>
6

>  <REMARK>
 VINA RESULT:      -3.2      4.781      7.884
  Name = 
  4 active torsions:
  status: ('A' for Active; 'I' for Inactive)
    1  A    between atoms: C_1  and  C_5
    2  A    between atoms: C_3  and  C_22
    3  A    between atoms: N_15  and  C_20
    4  A    between atoms: C_19  and  C_22
                            x       y       z     vdW  Elec       q    Type
                         _______ _______ _______ _____ _____    ______ ____

>  <TORSDO>
F 4

$$$$
=
 OpenBabel11072411373D

 25 28  0  0  1  0  0  0  0  0999 V2000
  161.6030  208.0710  150.9350 C   0  0  2  0  0  3  0  0  0  0  0  0
  161.7020  209.4380  151.6230 C   0  0  2  0  0  3  0  0  0  0  0  0
  161.4720  206.9100  151.9340 C   0  0  2  0  0  0  0  0  0  0  0  0
  161.6260  207.1360  153.4620 C   0  0  2  0  0  3  0  0  0  0  0  0
  159.9140  210.9160  152.1910 O   0  0  0  0  0  0  0  0  0  0  0  0
  161.5820  205.8280  154.2470 C   0  0  0  0  0  1  0  0  0  0  0  0
  159.7060  208.7880  153.1660 C   0  0  0  0  0  2  0  0  0  0  0  0
  160.3980  209.8000  152.3020 C   0  0  0  0  0  0  0  0  0  0  0  0
  160.6860  208.1260  154.0280 N   0  0  0  0  0  0  0  0  0  0  0  0
  162.7980  207.1950  151.2530 C   0  0  0  0  0  2  0  0  0  0  0  0
  160.8430  205.6150  151.3980 C   0  0  2  0  0  3  0  0  0  0  0  0
  161.7270  204.3990  151.6710 C   0  0  1  0  0  3  0  0  0  0  0  0
  160.8310  203.1660  151.8250 C   0  0  0  0  0  2  0  0  0  0  0  0
  160.0250  203.1460  149.7610 C   0  0  0  0  0  2  0  0  0  0  0  0
  160.8150  202.4080  150.6480 O   0  0  0  0  0  0  0  0  0  0  0  0
  160.8310  204.3240  149.2180 C   0  0  0  0  0  2  0  0  0  0  0  0
  161.6940  205.0400  150.2780 C   0  0  1  0  0  3  0  0  0  0  0  0
  161.7820  209.5820  155.6210 C   0  0  0  0  0  2  0  0  0  0  0  0
  160.0270  208.1680  156.4950 C   0  0  0  0  0  1  0  0  0  0  0  0
  160.8760  208.6430  155.3640 C   0  0  0  0  0  0  0  0  0  0  0  0
  162.2360  210.5330  150.6850 C   0  0  1  0  0  3  0  0  0  0  0  0
  163.6060  210.7210  150.8880 O   0  0  0  0  0  1  0  0  0  0  0  0
  161.6120  211.3460  148.3600 N   0  0  0  0  0  1  0  0  0  0  0  0
  161.9560  210.2760  149.2350 C   0  0  0  0  0  0  0  0  0  0  0  0
  162.0350  209.1040  148.7820 O   0  0  0  0  0  0  0  0  0  0  0  0
  1 10  1  1  0  0  0
  1  2  1  0  0  0  0
  1  3  1  0  0  0  0
  2 21  1  6  0  0  0
  2  8  1  0  0  0  0
  3 10  1  6  0  0  0
  3  4  1  0  0  0  0
  4  9  1  0  0  0  0
  4  6  1  1  0  0  0
  5  8  2  0  0  0  0
  7  9  1  0  0  0  0
  8  7  1  0  0  0  0
  9 20  1  0  0  0  0
 11 12  1  0  0  0  0
 11  3  1  1  0  0  0
 12 13  1  6  0  0  0
 14 15  1  0  0  0  0
 15 13  1  0  0  0  0
 16 14  1  0  0  0  0
 17 16  1  6  0  0  0
 17 11  1  0  0  0  0
 17 12  1  0  0  0  0
 20 18  2  0  0  0  0
 20 19  1  0  0  0  0
 21 22  1  6  0  0  0
 23 24  1  0  0  0  0
 24 21  1  0  0  0  0
 25 24  2  0  0  0  0
M  END
>  <MODEL>
7

>  <REMARK>
 VINA RESULT:      -3.1      2.826      3.964
  Name = 
  4 active torsions:
  status: ('A' for Active; 'I' for Inactive)
    1  A    between atoms: C_1  and  C_5
    2  A    between atoms: C_3  and  C_22
    3  A    between atoms: N_15  and  C_20
    4  A    between atoms: C_19  and  C_22
                            x       y       z     vdW  Elec       q    Type
                         _______ _______ _______ _____ _____    ______ ____

>  <TORSDO>
F 4

$$$$
=
 OpenBabel11072411373D

 25 28  0  0  1  0  0  0  0  0999 V2000
  159.6940  211.2140  155.5200 C   0  0  2  0  0  3  0  0  0  0  0  0
  160.5730  210.8480  154.3190 C   0  0  2  0  0  3  0  0  0  0  0  0
  158.7720  212.4120  155.2390 C   0  0  2  0  0  0  0  0  0  0  0  0
  158.9000  213.2430  153.9340 C   0  0  2  0  0  3  0  0  0  0  0  0
  160.0810  209.2950  152.5730 O   0  0  0  0  0  0  0  0  0  0  0  0
  157.9710  214.4530  153.9260 C   0  0  0  0  0  1  0  0  0  0  0  0
  158.4910  211.0150  152.7630 C   0  0  0  0  0  2  0  0  0  0  0  0
  159.7380  210.2970  153.1820 C   0  0  0  0  0  0  0  0  0  0  0  0
  158.7520  212.4530  152.6940 N   0  0  0  0  0  0  0  0  0  0  0  0
  160.0320  212.5880  156.0650 C   0  0  0  0  0  2  0  0  0  0  0  0
  157.5160  212.5290  156.1160 C   0  0  2  0  0  3  0  0  0  0  0  0
  156.5750  211.3400  155.9210 C   0  0  1  0  0  3  0  0  0  0  0  0
  155.8100  211.1020  157.2270 C   0  0  0  0  0  2  0  0  0  0  0  0
  154.7060  213.0230  157.2590 C   0  0  0  0  0  2  0  0  0  0  0  0
  154.5200  211.6410  157.1560 O   0  0  0  0  0  0  0  0  0  0  0  0
  155.2130  213.5690  155.9250 C   0  0  0  0  0  2  0  0  0  0  0  0
  156.2790  212.6850  155.2460 C   0  0  1  0  0  3  0  0  0  0  0  0
  160.3760  213.1130  151.0250 C   0  0  0  0  0  2  0  0  0  0  0  0
  158.0550  213.4780  150.4600 C   0  0  0  0  0  1  0  0  0  0  0  0
  159.1080  213.0190  151.4130 C   0  0  0  0  0  0  0  0  0  0  0  0
  161.7600  209.9490  154.7080 C   0  0  1  0  0  3  0  0  0  0  0  0
  162.9090  210.7190  154.9010 O   0  0  0  0  0  1  0  0  0  0  0  0
  160.3470  208.2560  155.9710 N   0  0  0  0  0  1  0  0  0  0  0  0
  161.4980  209.0930  155.9110 C   0  0  0  0  0  0  0  0  0  0  0  0
  162.3080  209.1060  156.8740 O   0  0  0  0  0  0  0  0  0  0  0  0
  1 10  1  1  0  0  0
  2 21  1  1  0  0  0
  2  1  1  0  0  0  0
  3  1  1  0  0  0  0
  3 10  1  1  0  0  0
  4  6  1  1  0  0  0
  4  3  1  0  0  0  0
  5  8  2  0  0  0  0
  7  8  1  0  0  0  0
  8  2  1  0  0  0  0
  9  7  1  0  0  0  0
  9  4  1  0  0  0  0
 11  3  1  6  0  0  0
 12 11  1  0  0  0  0
 12 13  1  1  0  0  0
 15 13  1  0  0  0  0
 15 14  1  0  0  0  0
 16 14  1  0  0  0  0
 17 12  1  0  0  0  0
 17 16  1  1  0  0  0
 17 11  1  0  0  0  0
 18 20  2  0  0  0  0
 19 20  1  0  0  0  0
 20  9  1  0  0  0  0
 21 22  1  1  0  0  0
 21 24  1  0  0  0  0
 24 23  1  0  0  0  0
 24 25  2  0  0  0  0
M  END
>  <MODEL>
8

>  <REMARK>
 VINA RESULT:      -3.1      2.912      6.613
  Name = 
  4 active torsions:
  status: ('A' for Active; 'I' for Inactive)
    1  A    between atoms: C_1  and  C_5
    2  A    between atoms: C_3  and  C_22
    3  A    between atoms: N_15  and  C_20
    4  A    between atoms: C_19  and  C_22
                            x       y       z     vdW  Elec       q    Type
                         _______ _______ _______ _____ _____    ______ ____

>  <TORSDO>
F 4

$$$$
=
 OpenBabel11072411373D

 25 28  0  0  1  0  0  0  0  0999 V2000
  161.0040  205.9620  147.4810 C   0  0  2  0  0  3  0  0  0  0  0  0
  160.7560  204.7670  146.5540 C   0  0  2  0  0  3  0  0  0  0  0  0
  160.9330  205.5860  148.9690 C   0  0  2  0  0  0  0  0  0  0  0  0
  160.4650  204.1780  149.4270 C   0  0  2  0  0  3  0  0  0  0  0  0
  162.3770  203.2720  145.6390 O   0  0  0  0  0  0  0  0  0  0  0  0
  160.3540  204.0710  150.9450 C   0  0  0  0  0  1  0  0  0  0  0  0
  162.3930  203.3350  147.9880 C   0  0  0  0  0  2  0  0  0  0  0  0
  161.8880  203.7660  146.6430 C   0  0  0  0  0  0  0  0  0  0  0  0
  161.2600  203.0630  148.8730 N   0  0  0  0  0  0  0  0  0  0  0  0
  159.7740  206.3020  148.3010 C   0  0  0  0  0  2  0  0  0  0  0  0
  161.6680  206.5160  149.9460 C   0  0  2  0  0  3  0  0  0  0  0  0
  160.7710  206.9450  151.1070 C   0  0  1  0  0  3  0  0  0  0  0  0
  161.6470  207.1940  152.3380 C   0  0  0  0  0  2  0  0  0  0  0  0
  162.8010  208.9000  151.5210 C   0  0  0  0  0  2  0  0  0  0  0  0
  161.8810  208.5620  152.5190 O   0  0  0  0  0  0  0  0  0  0  0  0
  162.0810  209.0060  150.1780 C   0  0  0  0  0  2  0  0  0  0  0  0
  161.0350  207.8990  149.9340 C   0  0  1  0  0  3  0  0  0  0  0  0
  159.6540  201.4040  149.5990 C   0  0  0  0  0  2  0  0  0  0  0  0
  161.5630  200.5780  148.3670 C   0  0  0  0  0  1  0  0  0  0  0  0
  160.7950  201.6990  148.9820 C   0  0  0  0  0  0  0  0  0  0  0  0
  160.4190  205.1950  145.1150 C   0  0  1  0  0  3  0  0  0  0  0  0
  159.3950  206.1460  145.1190 O   0  0  0  0  0  1  0  0  0  0  0  0
  161.5700  205.7640  142.9230 N   0  0  0  0  0  1  0  0  0  0  0  0
  161.6010  205.7050  144.3460 C   0  0  0  0  0  0  0  0  0  0  0  0
  162.6260  206.0950  144.9620 O   0  0  0  0  0  0  0  0  0  0  0  0
  1 10  1  1  0  0  0
  1  3  1  0  0  0  0
  2 21  1  6  0  0  0
  2  8  1  0  0  0  0
  2  1  1  0  0  0  0
  3 10  1  1  0  0  0
  3  4  1  0  0  0  0
  4  6  1  1  0  0  0
  5  8  2  0  0  0  0
  7  9  1  0  0  0  0
  8  7  1  0  0  0  0
  9 20  1  0  0  0  0
  9  4  1  0  0  0  0
 11  3  1  6  0  0  0
 11 12  1  0  0  0  0
 12 13  1  1  0  0  0
 13 15  1  0  0  0  0
 14 15  1  0  0  0  0
 16 14  1  0  0  0  0
 17 11  1  0  0  0  0
 17 16  1  1  0  0  0
 17 12  1  0  0  0  0
 19 20  1  0  0  0  0
 20 18  2  0  0  0  0
 21 22  1  1  0  0  0
 23 24  1  0  0  0  0
 24 25  2  0  0  0  0
 24 21  1  0  0  0  0
M  END
>  <MODEL>
9

>  <REMARK>
 VINA RESULT:      -3.1      5.302      8.893
  Name = 
  4 active torsions:
  status: ('A' for Active; 'I' for Inactive)
    1  A    between atoms: C_1  and  C_5
    2  A    between atoms: C_3  and  C_22
    3  A    between atoms: N_15  and  C_20
    4  A    between atoms: C_19  and  C_22
                            x       y       z     vdW  Elec       q    Type
                         _______ _______ _______ _____ _____    ______ ____

>  <TORSDO>
F 4

$$$$
