=
 OpenBabel11072411303D

 35 40  0  0  1  0  0  0  0  0999 V2000
  161.2620  210.4550  153.9180 C   0  0  2  0  0  3  0  0  0  0  0  0
  161.5370  208.2510  154.4530 C   0  0  1  0  0  3  0  0  0  0  0  0
  160.6740  211.4160  152.9360 C   0  0  0  0  0  2  0  0  0  0  0  0
  160.9790  209.1410  153.5010 O   0  0  0  0  0  0  0  0  0  0  0  0
  159.3380  211.4840  154.9130 O   0  0  0  0  0  0  0  0  0  0  0  0
  159.3370  211.7950  153.5360 C   0  0  2  0  0  0  0  0  0  0  0  0
  160.5120  210.7660  155.2010 C   0  0  1  0  0  3  0  0  0  0  0  0
  158.2420  211.0030  152.8460 C   0  0  0  0  0  1  0  0  0  0  0  0
  161.2350  208.5590  155.8130 O   0  0  0  0  0  0  0  0  0  0  0  0
  160.1530  209.4580  155.8920 C   0  0  0  0  0  2  0  0  0  0  0  0
  161.1150  206.8550  154.1390 C   0  0  0  0  0  3  0  0  0  0  0  0
  160.9850  206.4170  152.8910 C   0  0  0  0  0  3  0  0  0  0  0  0
  161.4130  204.3390  147.8750 C   0  0  0  0  0  3  0  0  0  0  0  0
  161.2380  205.4290  150.0200 C   0  0  0  0  0  0  0  0  0  0  0  0
  161.5010  205.4710  148.6810 C   0  0  0  0  0  0  0  0  0  0  0  0
  160.9140  201.8910  147.6810 C   0  0  0  0  0  1  0  0  0  0  0  0
  161.4280  206.7280  150.4420 C   0  0  0  0  0  0  0  0  0  0  0  0
  161.8190  206.6970  148.3380 O   0  0  0  0  0  0  0  0  0  0  0  0
  160.7480  203.0900  149.8790 C   0  0  0  0  0  3  0  0  0  0  0  0
  160.8450  204.2540  150.6670 C   0  0  0  0  0  3  0  0  0  0  0  0
  161.2780  207.2490  151.7660 N   0  0  0  0  0  2  0  0  0  0  0  0
  161.7860  207.4870  149.3810 N   0  0  0  0  0  0  0  0  0  0  0  0
  161.0330  203.1300  148.4930 C   0  0  0  0  0  0  0  0  0  0  0  0
  159.1090  213.2910  153.3040 C   0  0  0  0  0  2  0  0  0  0  0  0
  157.9520  213.5830  152.3430 C   0  0  2  0  0  3  0  0  0  0  0  0
  158.4320  214.2870  151.0700 C   0  0  2  0  0  3  0  0  0  0  0  0
  159.6920  214.0610  149.2300 C   0  0  0  0  0  2  0  0  0  0  0  0
  156.8470  212.9510  149.8620 O   0  0  0  0  0  1  0  0  0  0  0  0
  157.4290  214.2180  149.9330 C   0  0  2  0  0  3  0  0  0  0  0  0
  158.3020  214.4080  148.7360 C   0  0  0  0  0  2  0  0  0  0  0  0
  159.6460  213.7550  150.6010 O   0  0  0  0  0  0  0  0  0  0  0  0
  156.9190  214.4530  153.0520 C   0  0  0  0  0  2  0  0  0  0  0  0
  155.1750  214.1090  154.7120 N   0  0  0  0  0  2  0  0  0  0  0  0
  155.9630  212.8700  154.6240 C   0  0  0  0  0  2  0  0  0  0  0  0
  155.6900  213.6400  153.4150 C   0  0  2  0  0  3  0  0  0  0  0  0
  1  3  1  6  0  0  0
  1  7  1  0  0  0  0
  2 11  1  6  0  0  0
  2  9  1  0  0  0  0
  3  6  1  0  0  0  0
  4  1  1  0  0  0  0
  4  2  1  0  0  0  0
  5  7  1  0  0  0  0
  6  8  1  6  0  0  0
  6  5  1  0  0  0  0
  7 10  1  6  0  0  0
  9 10  1  0  0  0  0
 12 11  2  0  0  0  0
 13 23  2  0  0  0  0
 13 15  1  0  0  0  0
 14 17  1  0  0  0  0
 14 20  1  0  0  0  0
 15 14  2  0  0  0  0
 16 23  1  0  0  0  0
 17 21  1  0  0  0  0
 18 15  1  0  0  0  0
 18 22  1  0  0  0  0
 19 20  2  0  0  0  0
 21 12  1  0  0  0  0
 22 17  2  0  0  0  0
 23 19  1  0  0  0  0
 24  6  1  0  0  0  0
 25 32  1  1  0  0  0
 25 24  1  0  0  0  0
 26 25  1  1  0  0  0
 27 31  1  0  0  0  0
 29 28  1  6  0  0  0
 29 26  1  0  0  0  0
 30 27  1  0  0  0  0
 30 29  1  0  0  0  0
 31 26  1  0  0  0  0
 34 33  1  0  0  0  0
 35 32  1  1  0  0  0
 35 34  1  0  0  0  0
 35 33  1  0  0  0  0
M  END
>  <MODEL>
1

>  <REMARK>
 VINA RESULT:      -7.7      0.000      0.000
  Name = 
  7 active torsions:
  status: ('A' for Active; 'I' for Inactive)
    1  A    between atoms: C_1  and  C_14
    2  A    between atoms: C_3  and  N_25
    3  A    between atoms: C_4  and  C_7
    4  A    between atoms: C_4  and  C_9
    5  A    between atoms: C_4  and  C_18
    6  A    between atoms: C_9  and  C_27
    7  A    between atoms: C_18  and  C_28
                            x       y       z     vdW  Elec       q    Type
                         _______ _______ _______ _____ _____    ______ ____

>  <TORSDO>
F 7

$$$$
=
 OpenBabel11072411303D

 35 40  0  0  1  0  0  0  0  0999 V2000
  162.2080  206.3260  152.1810 C   0  0  2  0  0  3  0  0  0  0  0  0
  161.2480  207.1050  154.1020 C   0  0  1  0  0  3  0  0  0  0  0  0
  162.1880  205.2450  151.1490 C   0  0  0  0  0  2  0  0  0  0  0  0
  161.2160  206.0610  153.1430 O   0  0  0  0  0  0  0  0  0  0  0  0
  161.2520  207.2080  150.1660 O   0  0  0  0  0  0  0  0  0  0  0  0
  161.3310  205.8050  150.0350 C   0  0  2  0  0  0  0  0  0  0  0  0
  161.8460  207.5690  151.3890 C   0  0  1  0  0  3  0  0  0  0  0  0
  159.9370  205.2140  150.1370 C   0  0  0  0  0  1  0  0  0  0  0  0
  161.2600  208.4230  153.5560 O   0  0  0  0  0  0  0  0  0  0  0  0
  160.8680  208.4050  152.2030 C   0  0  0  0  0  2  0  0  0  0  0  0
  160.1020  206.9520  155.0450 C   0  0  0  0  0  3  0  0  0  0  0  0
  160.1370  207.4240  156.2860 C   0  0  0  0  0  3  0  0  0  0  0  0
  160.2340  212.8690  156.3230 C   0  0  0  0  0  3  0  0  0  0  0  0
  160.3510  210.4610  156.4020 C   0  0  0  0  0  0  0  0  0  0  0  0
  160.9200  211.6880  156.5910 C   0  0  0  0  0  0  0  0  0  0  0  0
  158.1270  213.9860  155.5510 C   0  0  0  0  0  1  0  0  0  0  0  0
  161.3350  209.5720  156.7810 C   0  0  0  0  0  0  0  0  0  0  0  0
  162.1400  211.5370  157.0480 O   0  0  0  0  0  0  0  0  0  0  0  0
  158.3170  211.4860  155.6640 C   0  0  0  0  0  3  0  0  0  0  0  0
  159.0380  210.3090  155.9460 C   0  0  0  0  0  3  0  0  0  0  0  0
  161.2660  208.1430  156.7880 N   0  0  0  0  0  2  0  0  0  0  0  0
  162.4270  210.2650  157.1740 N   0  0  0  0  0  0  0  0  0  0  0  0
  158.9110  212.7580  155.8470 C   0  0  0  0  0  0  0  0  0  0  0  0
  161.9570  205.4070  148.6960 C   0  0  0  0  0  2  0  0  0  0  0  0
  161.1880  204.2940  147.9760 C   0  0  2  0  0  3  0  0  0  0  0  0
  161.5990  202.9040  148.4720 C   0  0  2  0  0  3  0  0  0  0  0  0
  160.9240  201.1150  149.6400 C   0  0  0  0  0  2  0  0  0  0  0  0
  160.2210  201.9930  146.7310 O   0  0  0  0  0  1  0  0  0  0  0  0
  161.4190  201.8180  147.4270 C   0  0  2  0  0  3  0  0  0  0  0  0
  161.3040  200.5910  148.2690 C   0  0  0  0  0  2  0  0  0  0  0  0
  160.8780  202.5180  149.6160 O   0  0  0  0  0  0  0  0  0  0  0  0
  161.4400  204.3990  146.4760 C   0  0  0  0  0  2  0  0  0  0  0  0
  159.9990  205.9690  145.3040 N   0  0  0  0  0  2  0  0  0  0  0  0
  161.2540  205.8590  144.5450 C   0  0  0  0  0  2  0  0  0  0  0  0
  161.2860  205.8330  146.0040 C   0  0  2  0  0  3  0  0  0  0  0  0
  1  3  1  6  0  0  0
  1  4  1  0  0  0  0
  2 11  1  1  0  0  0
  4  2  1  0  0  0  0
  5  7  1  0  0  0  0
  6  8  1  1  0  0  0
  6  5  1  0  0  0  0
  6  3  1  0  0  0  0
  7  1  1  0  0  0  0
  7 10  1  1  0  0  0
  9  2  1  0  0  0  0
 10  9  1  0  0  0  0
 11 12  2  0  0  0  0
 12 21  1  0  0  0  0
 13 15  1  0  0  0  0
 14 15  2  0  0  0  0
 14 17  1  0  0  0  0
 15 18  1  0  0  0  0
 16 23  1  0  0  0  0
 17 21  1  0  0  0  0
 17 22  2  0  0  0  0
 18 22  1  0  0  0  0
 19 23  1  0  0  0  0
 19 20  2  0  0  0  0
 20 14  1  0  0  0  0
 23 13  2  0  0  0  0
 24  6  1  0  0  0  0
 25 32  1  6  0  0  0
 25 24  1  0  0  0  0
 26 25  1  6  0  0  0
 26 31  1  0  0  0  0
 29 28  1  1  0  0  0
 29 30  1  0  0  0  0
 29 26  1  0  0  0  0
 30 27  1  0  0  0  0
 31 27  1  0  0  0  0
 33 35  1  0  0  0  0
 34 33  1  0  0  0  0
 34 35  1  0  0  0  0
 35 32  1  6  0  0  0
M  END
>  <MODEL>
2

>  <REMARK>
 VINA RESULT:      -7.3      3.638      9.588
  Name = 
  7 active torsions:
  status: ('A' for Active; 'I' for Inactive)
    1  A    between atoms: C_1  and  C_14
    2  A    between atoms: C_3  and  N_25
    3  A    between atoms: C_4  and  C_7
    4  A    between atoms: C_4  and  C_9
    5  A    between atoms: C_4  and  C_18
    6  A    between atoms: C_9  and  C_27
    7  A    between atoms: C_18  and  C_28
                            x       y       z     vdW  Elec       q    Type
                         _______ _______ _______ _____ _____    ______ ____

>  <TORSDO>
F 7

$$$$
=
 OpenBabel11072411303D

 35 40  0  0  1  0  0  0  0  0999 V2000
  161.9550  209.8060  152.2770 C   0  0  2  0  0  3  0  0  0  0  0  0
  162.0350  208.0990  150.7620 C   0  0  1  0  0  3  0  0  0  0  0  0
  161.4220  211.1730  152.5590 C   0  0  0  0  0  2  0  0  0  0  0  0
  161.5260  209.4010  151.0000 O   0  0  0  0  0  0  0  0  0  0  0  0
  160.1850  209.6220  153.8860 O   0  0  0  0  0  0  0  0  0  0  0  0
  160.1560  210.9280  153.3510 C   0  0  2  0  0  0  0  0  0  0  0  0
  161.2940  208.9500  153.3430 C   0  0  1  0  0  3  0  0  0  0  0  0
  158.9590  211.0620  152.4270 C   0  0  0  0  0  1  0  0  0  0  0  0
  161.8230  207.1670  151.8220 O   0  0  0  0  0  0  0  0  0  0  0  0
  160.8380  207.6410  152.7110 C   0  0  0  0  0  2  0  0  0  0  0  0
  161.4650  207.5650  149.4910 C   0  0  0  0  0  3  0  0  0  0  0  0
  160.9900  206.3280  149.3900 C   0  0  0  0  0  3  0  0  0  0  0  0
  160.9690  200.9250  148.7050 C   0  0  0  0  0  3  0  0  0  0  0  0
  160.9970  203.2880  149.1920 C   0  0  0  0  0  0  0  0  0  0  0  0
  160.9230  201.9880  149.6040 C   0  0  0  0  0  0  0  0  0  0  0  0
  161.1630  200.1420  146.3320 C   0  0  0  0  0  1  0  0  0  0  0  0
  160.9240  204.0160  150.3610 C   0  0  0  0  0  0  0  0  0  0  0  0
  160.8190  201.9500  150.9110 O   0  0  0  0  0  0  0  0  0  0  0  0
  161.1900  202.5840  146.9120 C   0  0  0  0  0  3  0  0  0  0  0  0
  161.1420  203.6380  147.8460 C   0  0  0  0  0  3  0  0  0  0  0  0
  160.9630  205.4380  150.5090 N   0  0  0  0  0  2  0  0  0  0  0  0
  160.8140  203.1630  151.4040 N   0  0  0  0  0  0  0  0  0  0  0  0
  161.1000  201.2370  147.3370 C   0  0  0  0  0  0  0  0  0  0  0  0
  160.0660  211.9800  154.4590 C   0  0  0  0  0  2  0  0  0  0  0  0
  159.4200  211.4490  155.7440 C   0  0  2  0  0  3  0  0  0  0  0  0
  158.3010  212.3700  156.2420 C   0  0  2  0  0  3  0  0  0  0  0  0
  156.7540  213.8610  155.6070 C   0  0  0  0  0  2  0  0  0  0  0  0
  156.7420  210.7500  155.4030 O   0  0  0  0  0  1  0  0  0  0  0  0
  156.9790  211.6500  156.4420 C   0  0  2  0  0  3  0  0  0  0  0  0
  155.9960  212.7690  156.3350 C   0  0  0  0  0  2  0  0  0  0  0  0
  158.0730  213.4430  155.3620 O   0  0  0  0  0  0  0  0  0  0  0  0
  160.4900  211.3120  156.8230 C   0  0  0  0  0  2  0  0  0  0  0  0
  162.4530  209.9170  156.4850 N   0  0  0  0  0  2  0  0  0  0  0  0
  162.8680  211.0960  157.2610 C   0  0  0  0  0  2  0  0  0  0  0  0
  161.8730  211.2400  156.2030 C   0  0  2  0  0  3  0  0  0  0  0  0
  1  3  1  1  0  0  0
  1  7  1  0  0  0  0
  2 11  1  6  0  0  0
  2  4  1  0  0  0  0
  2  9  1  0  0  0  0
  3  6  1  0  0  0  0
  4  1  1  0  0  0  0
  6  8  1  6  0  0  0
  6  5  1  0  0  0  0
  6 24  1  0  0  0  0
  7 10  1  6  0  0  0
  7  5  1  0  0  0  0
  9 10  1  0  0  0  0
 12 11  2  0  0  0  0
 12 21  1  0  0  0  0
 13 15  1  0  0  0  0
 14 15  2  0  0  0  0
 14 17  1  0  0  0  0
 15 18  1  0  0  0  0
 16 23  1  0  0  0  0
 17 21  1  0  0  0  0
 17 22  2  0  0  0  0
 18 22  1  0  0  0  0
 19 23  1  0  0  0  0
 19 20  2  0  0  0  0
 20 14  1  0  0  0  0
 23 13  2  0  0  0  0
 25 24  1  6  0  0  0
 25 32  1  0  0  0  0
 26 25  1  6  0  0  0
 26 29  1  0  0  0  0
 27 30  1  0  0  0  0
 29 28  1  6  0  0  0
 30 29  1  0  0  0  0
 31 27  1  0  0  0  0
 31 26  1  0  0  0  0
 33 34  1  0  0  0  0
 35 33  1  0  0  0  0
 35 32  1  1  0  0  0
 35 34  1  0  0  0  0
M  END
>  <MODEL>
3

>  <REMARK>
 VINA RESULT:      -7.3      2.881      4.565
  Name = 
  7 active torsions:
  status: ('A' for Active; 'I' for Inactive)
    1  A    between atoms: C_1  and  C_14
    2  A    between atoms: C_3  and  N_25
    3  A    between atoms: C_4  and  C_7
    4  A    between atoms: C_4  and  C_9
    5  A    between atoms: C_4  and  C_18
    6  A    between atoms: C_9  and  C_27
    7  A    between atoms: C_18  and  C_28
                            x       y       z     vdW  Elec       q    Type
                         _______ _______ _______ _____ _____    ______ ____

>  <TORSDO>
F 7

$$$$
=
 OpenBabel11072411303D

 35 40  0  0  1  0  0  0  0  0999 V2000
  160.1560  209.7820  152.4200 C   0  0  2  0  0  3  0  0  0  0  0  0
  161.0150  208.0290  151.2340 C   0  0  1  0  0  3  0  0  0  0  0  0
  159.5610  210.2090  153.7220 C   0  0  0  0  0  2  0  0  0  0  0  0
  160.4430  208.4060  152.4750 O   0  0  0  0  0  0  0  0  0  0  0  0
  161.7890  211.0600  153.6240 O   0  0  0  0  0  0  0  0  0  0  0  0
  160.7320  210.7540  154.5100 C   0  0  2  0  0  0  0  0  0  0  0  0
  161.4450  210.5800  152.3480 C   0  0  1  0  0  3  0  0  0  0  0  0
  161.1990  209.7000  155.4980 C   0  0  0  0  0  1  0  0  0  0  0  0
  162.0690  208.8750  150.7760 O   0  0  0  0  0  0  0  0  0  0  0  0
  162.5560  209.6780  151.8270 C   0  0  0  0  0  2  0  0  0  0  0  0
  161.4890  206.6170  151.3100 C   0  0  0  0  0  3  0  0  0  0  0  0
  161.9440  205.9620  150.2470 C   0  0  0  0  0  3  0  0  0  0  0  0
  161.2170  203.1150  145.6620 C   0  0  0  0  0  3  0  0  0  0  0  0
  161.5470  204.5300  147.5880 C   0  0  0  0  0  0  0  0  0  0  0  0
  161.5290  204.3450  146.2350 C   0  0  0  0  0  0  0  0  0  0  0  0
  160.5620  200.7160  145.9800 C   0  0  0  0  0  1  0  0  0  0  0  0
  161.8870  205.8570  147.7410 C   0  0  0  0  0  0  0  0  0  0  0  0
  161.8330  205.4720  145.6370 O   0  0  0  0  0  0  0  0  0  0  0  0
  160.9160  202.2470  147.9370 C   0  0  0  0  0  3  0  0  0  0  0  0
  161.2340  203.5050  148.4860 C   0  0  0  0  0  3  0  0  0  0  0  0
  162.0410  206.5850  148.9640 N   0  0  0  0  0  2  0  0  0  0  0  0
  162.0580  206.4120  146.5200 N   0  0  0  0  0  0  0  0  0  0  0  0
  160.9110  202.0510  146.5350 C   0  0  0  0  0  0  0  0  0  0  0  0
  160.2680  211.9980  155.2710 C   0  0  0  0  0  2  0  0  0  0  0  0
  158.8150  212.3830  154.9700 C   0  0  2  0  0  3  0  0  0  0  0  0
  158.7270  213.5340  153.9620 C   0  0  2  0  0  3  0  0  0  0  0  0
  159.0140  214.0950  151.8120 C   0  0  0  0  0  2  0  0  0  0  0  0
  156.6770  212.5560  153.1890 O   0  0  0  0  0  1  0  0  0  0  0  0
  157.3200  213.7680  153.4440 C   0  0  2  0  0  3  0  0  0  0  0  0
  157.5780  214.4530  152.1420 C   0  0  0  0  0  2  0  0  0  0  0  0
  159.5620  213.3240  152.8500 O   0  0  0  0  0  0  0  0  0  0  0  0
  158.1240  212.7840  156.2690 C   0  0  0  0  0  2  0  0  0  0  0  0
  156.2030  211.3170  155.9990 N   0  0  0  0  0  2  0  0  0  0  0  0
  156.0310  212.0540  157.2610 C   0  0  0  0  0  2  0  0  0  0  0  0
  157.3620  211.6110  156.8570 C   0  0  2  0  0  3  0  0  0  0  0  0
  1  4  1  0  0  0  0
  1  3  1  1  0  0  0
  2 11  1  1  0  0  0
  2  4  1  0  0  0  0
  3  6  1  0  0  0  0
  5  6  1  0  0  0  0
  6 24  1  0  0  0  0
  6  8  1  1  0  0  0
  7 10  1  1  0  0  0
  7  1  1  0  0  0  0
  7  5  1  0  0  0  0
  9  2  1  0  0  0  0
  9 10  1  0  0  0  0
 12 11  2  0  0  0  0
 13 15  2  0  0  0  0
 13 23  1  0  0  0  0
 14 17  1  0  0  0  0
 14 20  2  0  0  0  0
 15 14  1  0  0  0  0
 16 23  1  0  0  0  0
 17 21  1  0  0  0  0
 18 15  1  0  0  0  0
 18 22  1  0  0  0  0
 19 20  1  0  0  0  0
 21 12  1  0  0  0  0
 22 17  2  0  0  0  0
 23 19  2  0  0  0  0
 25 24  1  1  0  0  0
 25 32  1  0  0  0  0
 26 25  1  1  0  0  0
 27 30  1  0  0  0  0
 27 31  1  0  0  0  0
 29 28  1  6  0  0  0
 29 26  1  0  0  0  0
 30 29  1  0  0  0  0
 31 26  1  0  0  0  0
 33 35  1  0  0  0  0
 33 34  1  0  0  0  0
 35 32  1  6  0  0  0
 35 34  1  0  0  0  0
M  END
>  <MODEL>
4

>  <REMARK>
 VINA RESULT:      -6.8      1.949      3.038
  Name = 
  7 active torsions:
  status: ('A' for Active; 'I' for Inactive)
    1  A    between atoms: C_1  and  C_14
    2  A    between atoms: C_3  and  N_25
    3  A    between atoms: C_4  and  C_7
    4  A    between atoms: C_4  and  C_9
    5  A    between atoms: C_4  and  C_18
    6  A    between atoms: C_9  and  C_27
    7  A    between atoms: C_18  and  C_28
                            x       y       z     vdW  Elec       q    Type
                         _______ _______ _______ _____ _____    ______ ____

>  <TORSDO>
F 7

$$$$
=
 OpenBabel11072411303D

 35 40  0  0  1  0  0  0  0  0999 V2000
  162.2690  206.6430  152.1240 C   0  0  2  0  0  3  0  0  0  0  0  0
  161.2540  207.2340  154.0830 C   0  0  1  0  0  3  0  0  0  0  0  0
  162.3080  205.6430  151.0150 C   0  0  0  0  0  2  0  0  0  0  0  0
  161.2790  206.2640  153.0490 O   0  0  0  0  0  0  0  0  0  0  0  0
  161.2950  207.6300  150.1670 O   0  0  0  0  0  0  0  0  0  0  0  0
  161.4390  206.2450  149.9330 C   0  0  2  0  0  0  0  0  0  0  0  0
  161.8580  207.9250  151.4200 C   0  0  1  0  0  3  0  0  0  0  0  0
  160.0710  205.5860  149.9730 C   0  0  0  0  0  1  0  0  0  0  0  0
  161.2120  208.5880  153.6370 O   0  0  0  0  0  0  0  0  0  0  0  0
  160.8350  208.6540  152.2810 C   0  0  0  0  0  2  0  0  0  0  0  0
  160.1060  206.9610  154.9960 C   0  0  0  0  0  3  0  0  0  0  0  0
  160.1000  207.3530  156.2660 C   0  0  0  0  0  3  0  0  0  0  0  0
  160.1120  212.7990  156.2310 C   0  0  0  0  0  3  0  0  0  0  0  0
  160.2600  210.3940  156.3520 C   0  0  0  0  0  0  0  0  0  0  0  0
  160.7970  211.6320  156.5610 C   0  0  0  0  0  0  0  0  0  0  0  0
  158.0430  213.8710  155.3080 C   0  0  0  0  0  1  0  0  0  0  0  0
  161.2310  209.5260  156.8070 C   0  0  0  0  0  0  0  0  0  0  0  0
  161.9870  211.5070  157.0980 O   0  0  0  0  0  0  0  0  0  0  0  0
  158.2640  211.3760  155.4680 C   0  0  0  0  0  3  0  0  0  0  0  0
  158.9830  210.2140  155.8140 C   0  0  0  0  0  3  0  0  0  0  0  0
  161.1830  208.0960  156.8300 N   0  0  0  0  0  2  0  0  0  0  0  0
  162.2840  210.2420  157.2610 N   0  0  0  0  0  0  0  0  0  0  0  0
  158.8250  212.6600  155.6720 C   0  0  0  0  0  0  0  0  0  0  0  0
  162.0960  205.9760  148.5770 C   0  0  0  0  0  2  0  0  0  0  0  0
  161.7870  204.5810  148.0220 C   0  0  2  0  0  3  0  0  0  0  0  0
  161.0370  204.6510  146.6880 C   0  0  2  0  0  3  0  0  0  0  0  0
  160.4160  206.0110  145.0190 C   0  0  0  0  0  2  0  0  0  0  0  0
  163.1810  204.6950  145.6090 O   0  0  0  0  0  1  0  0  0  0  0  0
  161.8780  204.2040  145.5050 C   0  0  2  0  0  3  0  0  0  0  0  0
  161.2010  204.8920  144.3650 C   0  0  0  0  0  2  0  0  0  0  0  0
  160.5720  205.9500  146.4140 O   0  0  0  0  0  0  0  0  0  0  0  0
  160.9530  203.8100  149.0400 C   0  0  0  0  0  2  0  0  0  0  0  0
  159.7420  201.7000  149.0480 N   0  0  0  0  0  2  0  0  0  0  0  0
  160.8140  201.6070  150.0510 C   0  0  0  0  0  2  0  0  0  0  0  0
  161.0560  202.3150  148.7980 C   0  0  2  0  0  3  0  0  0  0  0  0
  1  3  1  6  0  0  0
  1  4  1  0  0  0  0
  2 11  1  1  0  0  0
  4  2  1  0  0  0  0
  5  7  1  0  0  0  0
  6  8  1  1  0  0  0
  6  5  1  0  0  0  0
  6  3  1  0  0  0  0
  7  1  1  0  0  0  0
  7 10  1  1  0  0  0
  9  2  1  0  0  0  0
 10  9  1  0  0  0  0
 11 12  2  0  0  0  0
 12 21  1  0  0  0  0
 13 15  1  0  0  0  0
 14 15  2  0  0  0  0
 14 17  1  0  0  0  0
 15 18  1  0  0  0  0
 16 23  1  0  0  0  0
 17 21  1  0  0  0  0
 17 22  2  0  0  0  0
 18 22  1  0  0  0  0
 19 23  1  0  0  0  0
 19 20  2  0  0  0  0
 20 14  1  0  0  0  0
 23 13  2  0  0  0  0
 24  6  1  0  0  0  0
 25 24  1  1  0  0  0
 25 32  1  0  0  0  0
 26 25  1  1  0  0  0
 27 31  1  0  0  0  0
 29 28  1  1  0  0  0
 29 26  1  0  0  0  0
 30 27  1  0  0  0  0
 30 29  1  0  0  0  0
 31 26  1  0  0  0  0
 33 34  1  0  0  0  0
 35 32  1  1  0  0  0
 35 33  1  0  0  0  0
 35 34  1  0  0  0  0
M  END
>  <MODEL>
5

>  <REMARK>
 VINA RESULT:      -6.8      3.593      9.112
  Name = 
  7 active torsions:
  status: ('A' for Active; 'I' for Inactive)
    1  A    between atoms: C_1  and  C_14
    2  A    between atoms: C_3  and  N_25
    3  A    between atoms: C_4  and  C_7
    4  A    between atoms: C_4  and  C_9
    5  A    between atoms: C_4  and  C_18
    6  A    between atoms: C_9  and  C_27
    7  A    between atoms: C_18  and  C_28
                            x       y       z     vdW  Elec       q    Type
                         _______ _______ _______ _____ _____    ______ ____

>  <TORSDO>
F 7

$$$$
=
 OpenBabel11072411303D

 35 40  0  0  1  0  0  0  0  0999 V2000
  159.3310  210.2040  153.0690 C   0  0  2  0  0  3  0  0  0  0  0  0
  158.6760  212.3600  153.4430 C   0  0  1  0  0  3  0  0  0  0  0  0
  160.2310  209.3150  152.2750 C   0  0  0  0  0  2  0  0  0  0  0  0
  159.5320  211.5380  152.6680 O   0  0  0  0  0  0  0  0  0  0  0  0
  161.1080  209.4470  154.4900 O   0  0  0  0  0  0  0  0  0  0  0  0
  161.4440  209.1200  153.1580 C   0  0  2  0  0  0  0  0  0  0  0  0
  159.8200  210.0100  154.4930 C   0  0  1  0  0  3  0  0  0  0  0  0
  162.5550  210.0390  152.6830 C   0  0  0  0  0  1  0  0  0  0  0  0
  158.7150  212.1130  154.8480 O   0  0  0  0  0  0  0  0  0  0  0  0
  159.8570  211.3640  155.1910 C   0  0  0  0  0  2  0  0  0  0  0  0
  158.9790  213.7950  153.1680 C   0  0  0  0  0  3  0  0  0  0  0  0
  158.4430  214.4500  152.1440 C   0  0  0  0  0  3  0  0  0  0  0  0
  159.8050  213.2110  147.0190 C   0  0  0  0  0  3  0  0  0  0  0  0
  159.0410  213.6700  149.2610 C   0  0  0  0  0  0  0  0  0  0  0  0
  158.8080  213.2270  147.9900 C   0  0  0  0  0  0  0  0  0  0  0  0
  162.1910  213.6670  146.4010 C   0  0  0  0  0  1  0  0  0  0  0  0
  157.8270  213.5200  149.8970 C   0  0  0  0  0  0  0  0  0  0  0  0
  157.5570  212.8440  147.8850 O   0  0  0  0  0  0  0  0  0  0  0  0
  161.3290  214.1150  148.7150 C   0  0  0  0  0  3  0  0  0  0  0  0
  160.2980  214.1180  149.6760 C   0  0  0  0  0  3  0  0  0  0  0  0
  157.5100  213.8290  151.2580 N   0  0  0  0  0  2  0  0  0  0  0  0
  156.9310  213.0090  149.0230 N   0  0  0  0  0  0  0  0  0  0  0  0
  161.0840  213.6690  147.3950 C   0  0  0  0  0  0  0  0  0  0  0  0
  161.9000  207.6640  153.0420 C   0  0  0  0  0  2  0  0  0  0  0  0
  161.5430  207.0250  151.6950 C   0  0  2  0  0  3  0  0  0  0  0  0
  161.7330  205.5050  151.7180 C   0  0  2  0  0  3  0  0  0  0  0  0
  160.8370  203.5690  152.4040 C   0  0  0  0  0  2  0  0  0  0  0  0
  160.0800  205.3810  149.9820 O   0  0  0  0  0  1  0  0  0  0  0  0
  161.2770  204.8270  150.4380 C   0  0  2  0  0  3  0  0  0  0  0  0
  161.0080  203.4330  150.9040 C   0  0  0  0  0  2  0  0  0  0  0  0
  161.0450  204.9050  152.7870 O   0  0  0  0  0  0  0  0  0  0  0  0
  162.4150  207.6360  150.6030 C   0  0  0  0  0  2  0  0  0  0  0  0
  162.4570  208.0760  148.2120 N   0  0  0  0  0  2  0  0  0  0  0  0
  162.0110  209.3040  148.8870 C   0  0  0  0  0  2  0  0  0  0  0  0
  161.5800  208.0050  149.3910 C   0  0  2  0  0  3  0  0  0  0  0  0
  1  3  1  6  0  0  0
  1  7  1  0  0  0  0
  2 11  1  1  0  0  0
  2  9  1  0  0  0  0
  3  6  1  0  0  0  0
  4  1  1  0  0  0  0
  4  2  1  0  0  0  0
  5  7  1  0  0  0  0
  6  8  1  6  0  0  0
  6  5  1  0  0  0  0
  7 10  1  6  0  0  0
  9 10  1  0  0  0  0
 12 11  2  0  0  0  0
 13 23  2  0  0  0  0
 13 15  1  0  0  0  0
 14 20  1  0  0  0  0
 14 17  1  0  0  0  0
 15 14  2  0  0  0  0
 16 23  1  0  0  0  0
 17 21  1  0  0  0  0
 18 15  1  0  0  0  0
 18 22  1  0  0  0  0
 19 20  2  0  0  0  0
 21 12  1  0  0  0  0
 22 17  2  0  0  0  0
 23 19  1  0  0  0  0
 24  6  1  0  0  0  0
 25 32  1  6  0  0  0
 25 24  1  0  0  0  0
 26 25  1  6  0  0  0
 26 31  1  0  0  0  0
 27 31  1  0  0  0  0
 29 28  1  1  0  0  0
 29 30  1  0  0  0  0
 29 26  1  0  0  0  0
 30 27  1  0  0  0  0
 33 34  1  0  0  0  0
 33 35  1  0  0  0  0
 34 35  1  0  0  0  0
 35 32  1  1  0  0  0
M  END
>  <MODEL>
6

>  <REMARK>
 VINA RESULT:      -6.8      2.196      7.990
  Name = 
  7 active torsions:
  status: ('A' for Active; 'I' for Inactive)
    1  A    between atoms: C_1  and  C_14
    2  A    between atoms: C_3  and  N_25
    3  A    between atoms: C_4  and  C_7
    4  A    between atoms: C_4  and  C_9
    5  A    between atoms: C_4  and  C_18
    6  A    between atoms: C_9  and  C_27
    7  A    between atoms: C_18  and  C_28
                            x       y       z     vdW  Elec       q    Type
                         _______ _______ _______ _____ _____    ______ ____

>  <TORSDO>
F 7

$$$$
=
 OpenBabel11072411303D

 35 40  0  0  1  0  0  0  0  0999 V2000
  160.3280  206.9440  151.5830 C   0  0  2  0  0  3  0  0  0  0  0  0
  161.1900  208.4940  153.0230 C   0  0  1  0  0  3  0  0  0  0  0  0
  160.1350  206.5760  150.1480 C   0  0  0  0  0  2  0  0  0  0  0  0
  161.0100  208.1730  151.6530 O   0  0  0  0  0  0  0  0  0  0  0  0
  161.8250  205.1490  151.0450 O   0  0  0  0  0  0  0  0  0  0  0  0
  161.2920  205.6510  149.8370 C   0  0  2  0  0  0  0  0  0  0  0  0
  161.2110  205.8280  152.1120 C   0  0  1  0  0  3  0  0  0  0  0  0
  162.3670  206.4310  149.1020 C   0  0  0  0  0  1  0  0  0  0  0  0
  161.7140  207.4360  153.8240 O   0  0  0  0  0  0  0  0  0  0  0  0
  162.2800  206.4310  153.0150 C   0  0  0  0  0  2  0  0  0  0  0  0
  162.0560  209.7030  153.1420 C   0  0  0  0  0  3  0  0  0  0  0  0
  161.8210  210.6590  154.0350 C   0  0  0  0  0  3  0  0  0  0  0  0
  157.1100  213.2410  153.1400 C   0  0  0  0  0  3  0  0  0  0  0  0
  159.1160  212.0170  153.6830 C   0  0  0  0  0  0  0  0  0  0  0  0
  157.8580  212.4430  154.0010 C   0  0  0  0  0  0  0  0  0  0  0  0
  156.9430  214.4410  150.9450 C   0  0  0  0  0  1  0  0  0  0  0  0
  159.5010  211.2640  154.7730 C   0  0  0  0  0  0  0  0  0  0  0  0
  157.5250  211.9780  155.1820 O   0  0  0  0  0  0  0  0  0  0  0  0
  158.9970  213.1430  151.5740 C   0  0  0  0  0  3  0  0  0  0  0  0
  159.7280  212.3350  152.4680 C   0  0  0  0  0  3  0  0  0  0  0  0
  160.7380  210.5710  154.9640 N   0  0  0  0  0  2  0  0  0  0  0  0
  158.4990  211.2590  155.6810 N   0  0  0  0  0  0  0  0  0  0  0  0
  157.6990  213.5970  151.9090 C   0  0  0  0  0  0  0  0  0  0  0  0
  160.7810  204.5180  148.9440 C   0  0  0  0  0  2  0  0  0  0  0  0
  161.7190  204.2020  147.7740 C   0  0  2  0  0  3  0  0  0  0  0  0
  161.0770  204.5330  146.4230 C   0  0  2  0  0  3  0  0  0  0  0  0
  160.4640  206.2030  145.0600 C   0  0  0  0  0  2  0  0  0  0  0  0
  163.2870  204.9960  145.6090 O   0  0  0  0  0  1  0  0  0  0  0  0
  162.0510  204.4480  145.2610 C   0  0  2  0  0  3  0  0  0  0  0  0
  161.4050  205.3360  144.2490 C   0  0  0  0  0  2  0  0  0  0  0  0
  160.5110  205.8200  146.4110 O   0  0  0  0  0  0  0  0  0  0  0  0
  162.0920  202.7230  147.8160 C   0  0  0  0  0  2  0  0  0  0  0  0
  161.1920  200.9850  149.2590 N   0  0  0  0  0  2  0  0  0  0  0  0
  161.1960  200.4680  147.8820 C   0  0  0  0  0  2  0  0  0  0  0  0
  160.8760  201.8700  148.1270 C   0  0  2  0  0  3  0  0  0  0  0  0
  1  3  1  6  0  0  0
  1  4  1  0  0  0  0
  1  7  1  0  0  0  0
  2 11  1  6  0  0  0
  2  9  1  0  0  0  0
  4  2  1  0  0  0  0
  5  7  1  0  0  0  0
  6  8  1  6  0  0  0
  6  3  1  0  0  0  0
  6  5  1  0  0  0  0
  7 10  1  1  0  0  0
 10  9  1  0  0  0  0
 11 12  2  0  0  0  0
 12 21  1  0  0  0  0
 13 15  1  0  0  0  0
 14 15  2  0  0  0  0
 14 17  1  0  0  0  0
 15 18  1  0  0  0  0
 16 23  1  0  0  0  0
 17 21  1  0  0  0  0
 17 22  2  0  0  0  0
 18 22  1  0  0  0  0
 19 23  1  0  0  0  0
 19 20  2  0  0  0  0
 20 14  1  0  0  0  0
 23 13  2  0  0  0  0
 24  6  1  0  0  0  0
 25 32  1  6  0  0  0
 25 24  1  0  0  0  0
 26 25  1  1  0  0  0
 27 31  1  0  0  0  0
 29 28  1  1  0  0  0
 29 26  1  0  0  0  0
 30 27  1  0  0  0  0
 30 29  1  0  0  0  0
 31 26  1  0  0  0  0
 34 35  1  0  0  0  0
 34 33  1  0  0  0  0
 35 32  1  6  0  0  0
 35 33  1  0  0  0  0
M  END
>  <MODEL>
7

>  <REMARK>
 VINA RESULT:      -6.6      2.478      9.319
  Name = 
  7 active torsions:
  status: ('A' for Active; 'I' for Inactive)
    1  A    between atoms: C_1  and  C_14
    2  A    between atoms: C_3  and  N_25
    3  A    between atoms: C_4  and  C_7
    4  A    between atoms: C_4  and  C_9
    5  A    between atoms: C_4  and  C_18
    6  A    between atoms: C_9  and  C_27
    7  A    between atoms: C_18  and  C_28
                            x       y       z     vdW  Elec       q    Type
                         _______ _______ _______ _____ _____    ______ ____

>  <TORSDO>
F 7

$$$$
=
 OpenBabel11072411303D

 35 40  0  0  1  0  0  0  0  0999 V2000
  162.0490  207.8370  151.2700 C   0  0  2  0  0  3  0  0  0  0  0  0
  161.5830  210.0620  151.4930 C   0  0  1  0  0  3  0  0  0  0  0  0
  161.4770  206.4570  151.2760 C   0  0  0  0  0  2  0  0  0  0  0  0
  161.0170  208.7620  151.5150 O   0  0  0  0  0  0  0  0  0  0  0  0
  161.9730  207.0300  149.0130 O   0  0  0  0  0  0  0  0  0  0  0  0
  161.2150  206.1520  149.8170 C   0  0  2  0  0  0  0  0  0  0  0  0
  162.5610  207.9950  149.8490 C   0  0  1  0  0  3  0  0  0  0  0  0
  159.7390  206.3550  149.5250 C   0  0  0  0  0  1  0  0  0  0  0  0
  162.4190  210.3350  150.3700 O   0  0  0  0  0  0  0  0  0  0  0  0
  162.2070  209.3890  149.3480 C   0  0  0  0  0  2  0  0  0  0  0  0
  160.4960  211.0810  151.5810 C   0  0  0  0  0  3  0  0  0  0  0  0
  159.9150  211.4010  152.7320 C   0  0  0  0  0  3  0  0  0  0  0  0
  156.9460  212.0070  157.2570 C   0  0  0  0  0  3  0  0  0  0  0  0
  158.3690  211.6200  155.3480 C   0  0  0  0  0  0  0  0  0  0  0  0
  158.1030  211.4900  156.6810 C   0  0  0  0  0  0  0  0  0  0  0  0
  154.7830  213.2390  156.9660 C   0  0  0  0  0  1  0  0  0  0  0  0
  159.5800  210.9810  155.1830 C   0  0  0  0  0  0  0  0  0  0  0  0
  159.0780  210.8270  157.2570 O   0  0  0  0  0  0  0  0  0  0  0  0
  156.3090  212.7960  155.0230 C   0  0  0  0  0  3  0  0  0  0  0  0
  157.4900  212.2610  154.4700 C   0  0  0  0  0  3  0  0  0  0  0  0
  160.3220  210.8140  153.9700 N   0  0  0  0  0  2  0  0  0  0  0  0
  159.9930  210.5030  156.3780 N   0  0  0  0  0  0  0  0  0  0  0  0
  156.0400  212.6740  156.4070 C   0  0  0  0  0  0  0  0  0  0  0  0
  161.5910  204.6920  149.5510 C   0  0  0  0  0  2  0  0  0  0  0  0
  160.9200  204.1130  148.3010 C   0  0  2  0  0  3  0  0  0  0  0  0
  160.6100  202.6210  148.4590 C   0  0  2  0  0  3  0  0  0  0  0  0
  161.5210  200.5790  148.6040 C   0  0  0  0  0  2  0  0  0  0  0  0
  161.2990  202.8310  150.7490 O   0  0  0  0  0  1  0  0  0  0  0  0
  160.3810  202.2080  149.9020 C   0  0  2  0  0  3  0  0  0  0  0  0
  160.6900  200.7470  149.8600 C   0  0  0  0  0  2  0  0  0  0  0  0
  161.6380  201.8130  147.9420 O   0  0  0  0  0  0  0  0  0  0  0  0
  161.8350  204.3220  147.0980 C   0  0  0  0  0  2  0  0  0  0  0  0
  161.0650  204.2920  144.7920 N   0  0  0  0  0  2  0  0  0  0  0  0
  162.0560  205.3710  144.9200 C   0  0  0  0  0  2  0  0  0  0  0  0
  161.1250  205.1110  146.0130 C   0  0  2  0  0  3  0  0  0  0  0  0
  1  3  1  6  0  0  0
  1  4  1  0  0  0  0
  2  4  1  0  0  0  0
  2 11  1  6  0  0  0
  5  6  1  0  0  0  0
  5  7  1  0  0  0  0
  6  8  1  6  0  0  0
  6  3  1  0  0  0  0
  7 10  1  6  0  0  0
  7  1  1  0  0  0  0
  9  2  1  0  0  0  0
 10  9  1  0  0  0  0
 11 12  2  0  0  0  0
 12 21  1  0  0  0  0
 14 15  2  0  0  0  0
 15 18  1  0  0  0  0
 15 13  1  0  0  0  0
 17 14  1  0  0  0  0
 17 22  2  0  0  0  0
 19 23  1  0  0  0  0
 20 19  2  0  0  0  0
 20 14  1  0  0  0  0
 21 17  1  0  0  0  0
 22 18  1  0  0  0  0
 23 16  1  0  0  0  0
 23 13  2  0  0  0  0
 24  6  1  0  0  0  0
 25 32  1  6  0  0  0
 25 24  1  0  0  0  0
 26 25  1  1  0  0  0
 26 29  1  0  0  0  0
 27 30  1  0  0  0  0
 29 28  1  1  0  0  0
 30 29  1  0  0  0  0
 31 26  1  0  0  0  0
 31 27  1  0  0  0  0
 33 34  1  0  0  0  0
 33 35  1  0  0  0  0
 34 35  1  0  0  0  0
 35 32  1  1  0  0  0
M  END
>  <MODEL>
8

>  <REMARK>
 VINA RESULT:      -6.3      2.960     10.030
  Name = 
  7 active torsions:
  status: ('A' for Active; 'I' for Inactive)
    1  A    between atoms: C_1  and  C_14
    2  A    between atoms: C_3  and  N_25
    3  A    between atoms: C_4  and  C_7
    4  A    between atoms: C_4  and  C_9
    5  A    between atoms: C_4  and  C_18
    6  A    between atoms: C_9  and  C_27
    7  A    between atoms: C_18  and  C_28
                            x       y       z     vdW  Elec       q    Type
                         _______ _______ _______ _____ _____    ______ ____

>  <TORSDO>
F 7

$$$$
=
 OpenBabel11072411303D

 35 40  0  0  1  0  0  0  0  0999 V2000
  162.0380  205.7280  152.6410 C   0  0  2  0  0  3  0  0  0  0  0  0
  161.1280  206.7020  154.4960 C   0  0  1  0  0  3  0  0  0  0  0  0
  161.9490  204.5800  151.6890 C   0  0  0  0  0  2  0  0  0  0  0  0
  161.0290  205.5970  153.6130 O   0  0  0  0  0  0  0  0  0  0  0  0
  161.1430  206.5240  150.5630 O   0  0  0  0  0  0  0  0  0  0  0  0
  161.1310  205.1120  150.5320 C   0  0  2  0  0  0  0  0  0  0  0  0
  161.7570  206.9320  151.7600 C   0  0  1  0  0  3  0  0  0  0  0  0
  159.7010  204.6220  150.6690 C   0  0  0  0  0  1  0  0  0  0  0  0
  161.2260  207.9740  153.8580 O   0  0  0  0  0  0  0  0  0  0  0  0
  160.8340  207.8860  152.5070 C   0  0  0  0  0  2  0  0  0  0  0  0
  159.9730  206.6910  155.4400 C   0  0  0  0  0  3  0  0  0  0  0  0
  160.0150  207.3020  156.6200 C   0  0  0  0  0  3  0  0  0  0  0  0
  160.2420  212.7180  156.0920 C   0  0  0  0  0  3  0  0  0  0  0  0
  160.3020  210.3280  156.4210 C   0  0  0  0  0  0  0  0  0  0  0  0
  160.9000  211.5550  156.4820 C   0  0  0  0  0  0  0  0  0  0  0  0
  158.1600  213.7990  155.2090 C   0  0  0  0  0  1  0  0  0  0  0  0
  161.2650  209.4600  156.8900 C   0  0  0  0  0  0  0  0  0  0  0  0
  162.1180  211.4220  156.9520 O   0  0  0  0  0  0  0  0  0  0  0  0
  158.2910  211.3200  155.5800 C   0  0  0  0  0  3  0  0  0  0  0  0
  158.9850  210.1610  155.9830 C   0  0  0  0  0  3  0  0  0  0  0  0
  161.1630  208.0420  157.0450 N   0  0  0  0  0  2  0  0  0  0  0  0
  162.3740  210.1650  157.2090 N   0  0  0  0  0  0  0  0  0  0  0  0
  158.9160  212.5890  155.6300 C   0  0  0  0  0  0  0  0  0  0  0  0
  161.7310  204.5810  149.2290 C   0  0  0  0  0  2  0  0  0  0  0  0
  161.5530  205.5400  148.0460 C   0  0  2  0  0  3  0  0  0  0  0  0
  161.8710  204.8620  146.7090 C   0  0  2  0  0  3  0  0  0  0  0  0
  161.1800  203.3130  145.2460 C   0  0  0  0  0  2  0  0  0  0  0  0
  160.1400  206.2110  145.7380 O   0  0  0  0  0  1  0  0  0  0  0  0
  161.4030  205.6620  145.5070 C   0  0  2  0  0  3  0  0  0  0  0  0
  161.2770  204.6050  144.4600 C   0  0  0  0  0  2  0  0  0  0  0  0
  161.2960  203.5820  146.6200 O   0  0  0  0  0  0  0  0  0  0  0  0
  162.4650  206.7480  148.2390 C   0  0  0  0  0  2  0  0  0  0  0  0
  162.6390  209.1510  147.9110 N   0  0  0  0  0  2  0  0  0  0  0  0
  161.9720  208.9210  149.2010 C   0  0  0  0  0  2  0  0  0  0  0  0
  161.6870  208.0400  148.0730 C   0  0  2  0  0  3  0  0  0  0  0  0
  1  3  1  6  0  0  0
  1  4  1  0  0  0  0
  2 11  1  1  0  0  0
  4  2  1  0  0  0  0
  5  7  1  0  0  0  0
  6  5  1  0  0  0  0
  6  8  1  1  0  0  0
  6  3  1  0  0  0  0
  7 10  1  1  0  0  0
  7  1  1  0  0  0  0
  9  2  1  0  0  0  0
 10  9  1  0  0  0  0
 11 12  2  0  0  0  0
 12 21  1  0  0  0  0
 13 15  1  0  0  0  0
 14 15  2  0  0  0  0
 14 17  1  0  0  0  0
 15 18  1  0  0  0  0
 16 23  1  0  0  0  0
 17 21  1  0  0  0  0
 17 22  2  0  0  0  0
 18 22  1  0  0  0  0
 19 23  1  0  0  0  0
 19 20  2  0  0  0  0
 20 14  1  0  0  0  0
 23 13  2  0  0  0  0
 24  6  1  0  0  0  0
 25 32  1  1  0  0  0
 25 24  1  0  0  0  0
 26 25  1  1  0  0  0
 27 31  1  0  0  0  0
 29 28  1  1  0  0  0
 29 26  1  0  0  0  0
 30 27  1  0  0  0  0
 30 29  1  0  0  0  0
 31 26  1  0  0  0  0
 33 35  1  0  0  0  0
 33 34  1  0  0  0  0
 35 32  1  1  0  0  0
 35 34  1  0  0  0  0
M  END
>  <MODEL>
9

>  <REMARK>
 VINA RESULT:      -6.1      3.556      8.732
  Name = 
  7 active torsions:
  status: ('A' for Active; 'I' for Inactive)
    1  A    between atoms: C_1  and  C_14
    2  A    between atoms: C_3  and  N_25
    3  A    between atoms: C_4  and  C_7
    4  A    between atoms: C_4  and  C_9
    5  A    between atoms: C_4  and  C_18
    6  A    between atoms: C_9  and  C_27
    7  A    between atoms: C_18  and  C_28
                            x       y       z     vdW  Elec       q    Type
                         _______ _______ _______ _____ _____    ______ ____

>  <TORSDO>
F 7

$$$$
