=
 OpenBabel11072411053D

 30 34  0  0  1  0  0  0  0  0999 V2000
  160.8310  209.9720  153.9990 C   0  0  2  0  0  3  0  0  0  0  0  0
  160.9440  210.3010  157.0220 O   0  0  0  0  0  0  0  0  0  0  0  0
  161.2740  210.9330  150.4600 C   0  0  0  0  0  0  0  0  0  0  0  0
  159.6190  207.0130  156.1830 C   0  0  0  0  0  2  0  0  0  0  0  0
  160.2330  206.9520  154.8510 C   0  0  0  0  0  0  0  0  0  0  0  0
  158.0920  212.2440  153.2830 C   0  0  1  0  0  3  0  0  0  0  0  0
  157.6510  213.6190  153.8070 C   0  0  0  0  0  2  0  0  0  0  0  0
  161.0970  212.4050  149.5200 Cl  0  0  0  0  0  0  0  0  0  0  0  0
  158.4790  211.7900  155.7760 C   0  0  0  0  0  2  0  0  0  0  0  0
  161.5730  209.4830  156.2990 C   0  0  0  0  0  0  0  0  0  0  0  0
  161.8520  208.5630  150.5320 C   0  0  0  0  0  0  0  0  0  0  0  0
  161.6940  209.7670  149.8250 C   0  0  0  0  0  3  0  0  0  0  0  0
  161.0060  210.8950  151.8310 C   0  0  0  0  0  0  0  0  0  0  0  0
  161.1980  209.7440  152.5660 C   0  0  0  0  0  0  0  0  0  0  0  0
  160.4570  212.0100  152.6470 C   0  0  2  0  0  3  0  0  0  0  0  0
  158.7310  213.2830  156.0570 C   0  0  1  0  0  3  0  0  0  0  0  0
  160.2760  211.4010  154.0400 C   0  0  1  0  0  3  0  0  0  0  0  0
  161.7690  208.1400  156.7400 N   0  0  0  0  0  2  0  0  0  0  0  0
  160.0720  213.4720  156.7340 C   0  0  0  0  0  1  0  0  0  0  0  0
  159.0750  212.4090  152.1420 C   0  0  0  0  0  2  0  0  0  0  0  0
  161.7400  207.2160  152.6720 C   0  0  0  0  0  2  0  0  0  0  0  0
  160.6760  207.3200  157.2610 C   0  0  0  0  0  2  0  0  0  0  0  0
  160.8590  207.0270  153.8250 C   0  0  0  0  0  0  0  0  0  0  0  0
  161.5710  208.5250  151.9290 C   0  0  0  0  0  0  0  0  0  0  0  0
  158.7850  211.3690  154.3320 C   0  0  2  0  0  3  0  0  0  0  0  0
  162.0350  209.8810  154.9330 C   0  0  0  0  0  2  0  0  0  0  0  0
  158.6530  214.1720  154.8140 C   0  0  0  0  0  2  0  0  0  0  0  0
  161.6850  206.1880  150.0200 O   0  0  0  0  0  0  0  0  0  0  0  0
  163.0880  207.5040  148.8400 O   0  0  0  0  0  0  0  0  0  0  0  0
  162.2870  207.4040  149.7930 N   0  0  0  0  0  0  0  0  0  0  0  0
  1 17  1  0  0  0  0
  1 26  1  1  0  0  0
  3 13  1  0  0  0  0
  4 22  1  0  0  0  0
  5  4  1  0  0  0  0
  6 20  1  6  0  0  0
  6  7  1  0  0  0  0
  6 25  1  0  0  0  0
  7 27  1  0  0  0  0
  8  3  1  0  0  0  0
  9 16  1  0  0  0  0
 10 18  1  0  0  0  0
 10  2  2  0  0  0  0
 11 24  2  0  0  0  0
 12  3  2  0  0  0  0
 12 11  1  0  0  0  0
 13 14  2  0  0  0  0
 13 15  1  0  0  0  0
 14  1  1  0  0  0  0
 15 20  1  6  0  0  0
 15 17  1  0  0  0  0
 16 19  1  6  0  0  0
 17 25  1  0  0  0  0
 18 22  1  0  0  0  0
 21 23  1  0  0  0  0
 23  5  3  0  0  0  0
 24 14  1  0  0  0  0
 24 21  1  0  0  0  0
 25  9  1  0  0  0  0
 26 10  1  0  0  0  0
 27 16  1  0  0  0  0
 29 30  2  0  0  0  0
 30 28  2  0  0  0  0
 30 11  1  0  0  0  0
M  END
>  <MODEL>
1

>  <REMARK>
 VINA RESULT:      -7.0      0.000      0.000
  Name = 
  1 active torsions:
  status: ('A' for Active; 'I' for Inactive)
    1  A    between atoms: C_13  and  N_26
                            x       y       z     vdW  Elec       q    Type
                         _______ _______ _______ _____ _____    ______ ____

>  <TORSDO>
F 1

$$$$
=
 OpenBabel11072411053D

 30 34  0  0  1  0  0  0  0  0999 V2000
  161.6620  205.0650  148.4940 C   0  0  2  0  0  3  0  0  0  0  0  0
  162.4300  203.3550  146.0970 O   0  0  0  0  0  0  0  0  0  0  0  0
  161.6780  206.1770  152.0160 C   0  0  0  0  0  0  0  0  0  0  0  0
  160.1140  205.9680  145.0610 C   0  0  0  0  0  2  0  0  0  0  0  0
  160.4240  206.8770  146.1710 C   0  0  0  0  0  0  0  0  0  0  0  0
  159.5750  202.6720  150.2530 C   0  0  1  0  0  3  0  0  0  0  0  0
  159.6380  201.1620  150.5230 C   0  0  0  0  0  2  0  0  0  0  0  0
  161.7400  205.3950  153.5860 Cl  0  0  0  0  0  0  0  0  0  0  0  0
  160.2840  201.9440  147.9000 C   0  0  0  0  0  2  0  0  0  0  0  0
  162.6600  204.5770  146.2920 C   0  0  0  0  0  0  0  0  0  0  0  0
  161.5800  208.2420  150.7180 C   0  0  0  0  0  0  0  0  0  0  0  0
  161.6310  207.5670  151.9500 C   0  0  0  0  0  3  0  0  0  0  0  0
  161.6730  205.4450  150.8260 C   0  0  0  0  0  0  0  0  0  0  0  0
  161.6740  206.0750  149.5980 C   0  0  0  0  0  0  0  0  0  0  0  0
  161.6180  203.9640  150.7090 C   0  0  2  0  0  3  0  0  0  0  0  0
  160.9870  200.6900  148.4500 C   0  0  1  0  0  3  0  0  0  0  0  0
  161.5420  203.7100  149.2010 C   0  0  1  0  0  3  0  0  0  0  0  0
  162.5570  205.5070  145.2140 N   0  0  0  0  0  2  0  0  0  0  0  0
  162.4310  200.6540  147.9940 C   0  0  0  0  0  1  0  0  0  0  0  0
  160.3310  203.4290  151.3250 C   0  0  0  0  0  2  0  0  0  0  0  0
  161.5060  208.2380  148.1880 C   0  0  0  0  0  2  0  0  0  0  0  0
  161.3980  205.5460  144.3230 C   0  0  0  0  0  2  0  0  0  0  0  0
  160.8410  207.5290  147.0940 C   0  0  0  0  0  0  0  0  0  0  0  0
  161.5680  207.4930  149.5050 C   0  0  0  0  0  0  0  0  0  0  0  0
  160.1840  203.0940  148.9110 C   0  0  2  0  0  3  0  0  0  0  0  0
  162.9480  205.0820  147.6710 C   0  0  0  0  0  2  0  0  0  0  0  0
  160.9250  200.5580  149.9730 C   0  0  0  0  0  2  0  0  0  0  0  0
  160.9340  210.3240  151.8060 O   0  0  0  0  0  0  0  0  0  0  0  0
  162.1530  210.3690  149.9070 O   0  0  0  0  0  0  0  0  0  0  0  0
  161.5300  209.6830  150.7440 N   0  0  0  0  0  0  0  0  0  0  0  0
  1 26  1  1  0  0  0
  1 17  1  0  0  0  0
  1 14  1  0  0  0  0
  2 10  2  0  0  0  0
  3  8  1  0  0  0  0
  4  5  1  0  0  0  0
  5 23  3  0  0  0  0
  6  7  1  1  0  0  0
  6 20  1  0  0  0  0
  9 16  1  0  0  0  0
  9 25  1  0  0  0  0
 10 26  1  0  0  0  0
 11 30  1  0  0  0  0
 11 12  2  0  0  0  0
 12  3  1  0  0  0  0
 13  3  2  0  0  0  0
 14 13  1  0  0  0  0
 15 13  1  0  0  0  0
 15 20  1  1  0  0  0
 16 19  1  1  0  0  0
 16 27  1  0  0  0  0
 17 15  1  0  0  0  0
 18 10  1  0  0  0  0
 21 24  1  0  0  0  0
 22  4  1  0  0  0  0
 22 18  1  0  0  0  0
 23 21  1  0  0  0  0
 24 14  2  0  0  0  0
 24 11  1  0  0  0  0
 25 17  1  0  0  0  0
 25  6  1  0  0  0  0
 27  7  1  0  0  0  0
 29 30  2  0  0  0  0
 30 28  2  0  0  0  0
M  END
>  <MODEL>
2

>  <REMARK>
 VINA RESULT:      -4.7      5.069      9.413
  Name = 
  1 active torsions:
  status: ('A' for Active; 'I' for Inactive)
    1  A    between atoms: C_13  and  N_26
                            x       y       z     vdW  Elec       q    Type
                         _______ _______ _______ _____ _____    ______ ____

>  <TORSDO>
F 1

$$$$
