=
 OpenBabel11072415043D

 39 42  0  0  1  0  0  0  0  0999 V2000
  161.9480  208.7110  150.9890 C   0  0  0  0  0  0  0  0  0  0  0  0
  160.6340  207.6320  154.7790 N   0  0  0  0  0  0  0  0  0  0  0  0
  161.0890  209.5060  153.1420 C   0  0  0  0  0  0  0  0  0  0  0  0
  161.5470  209.7670  151.8350 C   0  0  0  0  0  3  0  0  0  0  0  0
  161.4470  207.1650  152.6900 C   0  0  0  0  0  0  0  0  0  0  0  0
  160.7640  206.1750  154.7220 C   0  0  0  0  0  2  0  0  0  0  0  0
  161.0600  208.1570  153.5390 C   0  0  0  0  0  0  0  0  0  0  0  0
  161.3100  205.8320  153.3200 C   0  0  0  0  0  3  0  0  0  0  0  0
  161.8810  207.4230  151.4320 N   0  0  0  0  0  0  0  0  0  0  0  0
  160.9690  211.6830  156.2460 N   0  0  0  0  0  1  0  0  0  0  0  0
  161.5330  210.9880  155.1380 C   0  0  0  0  0  0  0  0  0  0  0  0
  160.7040  210.5900  154.0250 N   0  0  0  0  0  0  0  0  0  0  0  0
  162.7690  210.7460  155.1380 O   0  0  0  0  0  0  0  0  0  0  0  0
  159.3620  211.1670  153.9100 C   0  0  0  0  0  2  0  0  0  0  0  0
  159.3540  212.4330  151.7400 C   0  0  0  0  0  2  0  0  0  0  0  0
  158.0030  213.1340  153.2450 C   0  0  0  0  0  2  0  0  0  0  0  0
  159.3990  212.5450  153.2530 C   0  0  1  0  0  3  0  0  0  0  0  0
  157.9530  213.0180  151.7340 C   0  0  1  0  0  3  0  0  0  0  0  0
  157.9720  214.3480  151.1450 N   0  0  0  0  0  2  0  0  0  0  0  0
  156.8160  214.4530  150.2670 C   0  0  2  0  0  3  0  0  0  0  0  0
  155.6530  214.4250  151.0340 O   0  0  0  0  0  1  0  0  0  0  0  0
  156.7950  213.2900  149.2850 C   0  0  0  0  0  2  0  0  0  0  0  0
  157.6340  213.5910  148.0900 C   0  0  0  0  0  0  0  0  0  0  0  0
  158.8910  213.5790  148.1810 O   0  0  0  0  0  1  0  0  0  0  0  0
  157.0310  213.8560  146.8680 O   0  0  0  0  0  0  0  0  0  0  0  0
  162.3850  208.9740  149.5830 C   0  0  2  0  0  3  0  0  0  0  0  0
  161.5660  210.0050  148.9570 N   0  0  0  0  0  1  0  0  0  0  0  0
  163.4020  207.3960  148.1130 O   0  0  0  0  0  0  0  0  0  0  0  0
  162.3750  207.7130  148.7690 C   0  0  0  0  0  0  0  0  0  0  0  0
  161.2220  206.9250  148.6310 O   0  0  0  0  0  0  0  0  0  0  0  0
  161.2550  203.5600  147.0790 C   0  0  0  0  0  3  0  0  0  0  0  0
  161.0240  203.2950  149.4700 C   0  0  0  0  0  0  0  0  0  0  0  0
  160.8650  202.2600  150.8740 Cl  0  0  0  0  0  0  0  0  0  0  0  0
  161.2790  204.9580  147.2250 C   0  0  0  0  0  0  0  0  0  0  0  0
  161.1280  202.7330  148.1960 C   0  0  0  0  0  3  0  0  0  0  0  0
  161.0510  204.6820  149.6230 C   0  0  0  0  0  3  0  0  0  0  0  0
  161.1720  205.5260  148.5060 C   0  0  0  0  0  0  0  0  0  0  0  0
  161.4040  205.7980  146.1130 O   0  0  0  0  0  0  0  0  0  0  0  0
  161.3070  205.3230  144.7760 C   0  0  0  0  0  1  0  0  0  0  0  0
  1  9  2  0  0  0  0
  1  4  1  0  0  0  0
  3  7  1  0  0  0  0
  3 12  1  0  0  0  0
  4  3  2  0  0  0  0
  5  8  2  0  0  0  0
  5  7  1  0  0  0  0
  6  2  1  0  0  0  0
  7  2  2  0  0  0  0
  8  6  1  0  0  0  0
  9  5  1  0  0  0  0
 11 13  2  0  0  0  0
 11 10  1  0  0  0  0
 12 11  1  0  0  0  0
 14 12  1  0  0  0  0
 15 17  1  0  0  0  0
 16 17  1  0  0  0  0
 17 14  1  1  0  0  0
 18 19  1  6  0  0  0
 18 15  1  0  0  0  0
 18 16  1  0  0  0  0
 20 21  1  1  0  0  0
 20 19  1  0  0  0  0
 22 20  1  0  0  0  0
 23 24  1  0  0  0  0
 23 22  1  0  0  0  0
 25 23  2  0  0  0  0
 26 27  1  6  0  0  0
 26  1  1  0  0  0  0
 28 29  2  0  0  0  0
 29 26  1  0  0  0  0
 30 29  1  0  0  0  0
 31 34  2  0  0  0  0
 31 35  1  0  0  0  0
 32 36  1  0  0  0  0
 32 33  1  0  0  0  0
 34 37  1  0  0  0  0
 35 32  2  0  0  0  0
 37 30  1  0  0  0  0
 37 36  2  0  0  0  0
 38 34  1  0  0  0  0
 39 38  1  0  0  0  0
M  END
>  <MODEL>
1

>  <REMARK>
 VINA RESULT:      -7.0      0.000      0.000
  Name = 
  12 active torsions:
  status: ('A' for Active; 'I' for Inactive)
    1  A    between atoms: C_2  and  C_11
    2  A    between atoms: O_5  and  C_19
    3  A    between atoms: O_8  and  C_30
    4  A    between atoms: O_8  and  C_36
    5  A    between atoms: C_11  and  C_36
    6  A    between atoms: C_13  and  N_27
    7  A    between atoms: C_14  and  C_38
    8  A    between atoms: C_17  and  C_33
    9  A    between atoms: C_20  and  N_26
   10  A    between atoms: C_20  and  C_38
   11  A    between atoms: N_26  and  C_31
   12  A    between atoms: N_27  and  C_33
                            x       y       z     vdW  Elec       q    Type
                         _______ _______ _______ _____ _____    ______ ____

>  <TORSDO>
F 12

$$$$
=
 OpenBabel11072415043D

 39 42  0  0  1  0  0  0  0  0999 V2000
  161.0240  208.3680  152.5440 C   0  0  0  0  0  0  0  0  0  0  0  0
  160.8060  211.6200  155.1200 N   0  0  0  0  0  0  0  0  0  0  0  0
  160.3670  210.7150  152.7980 C   0  0  0  0  0  0  0  0  0  0  0  0
  160.4810  209.5540  152.0070 C   0  0  0  0  0  3  0  0  0  0  0  0
  161.3310  209.4500  154.6100 C   0  0  0  0  0  0  0  0  0  0  0  0
  161.3590  211.0480  156.3480 C   0  0  0  0  0  3  0  0  0  0  0  0
  160.8210  210.6170  154.1260 C   0  0  0  0  0  0  0  0  0  0  0  0
  161.7200  209.5820  156.0320 C   0  0  0  0  0  3  0  0  0  0  0  0
  161.4310  208.3350  153.8440 N   0  0  0  0  0  2  0  0  0  0  0  0
  157.8310  213.2440  151.5470 N   0  0  0  0  0  1  0  0  0  0  0  0
  158.4650  212.3390  152.4470 C   0  0  0  0  0  0  0  0  0  0  0  0
  159.8390  211.9460  152.2410 N   0  0  0  0  0  0  0  0  0  0  0  0
  157.8130  211.9070  153.4340 O   0  0  0  0  0  0  0  0  0  0  0  0
  160.6510  212.7090  151.2900 C   0  0  0  0  0  2  0  0  0  0  0  0
  160.1860  213.5790  148.9800 C   0  0  0  0  0  2  0  0  0  0  0  0
  161.5940  211.9720  149.1160 C   0  0  0  0  0  2  0  0  0  0  0  0
  160.3180  212.3400  149.8460 C   0  0  1  0  0  3  0  0  0  0  0  0
  161.4680  213.2120  148.2520 C   0  0  1  0  0  3  0  0  0  0  0  0
  161.1680  212.8210  146.8840 N   0  0  0  0  0  2  0  0  0  0  0  0
  162.2000  213.3930  146.0310 C   0  0  2  0  0  3  0  0  0  0  0  0
  162.8110  214.4530  146.6980 O   0  0  0  0  0  1  0  0  0  0  0  0
  161.5860  213.9050  144.7350 C   0  0  0  0  0  2  0  0  0  0  0  0
  161.8430  212.9540  143.6160 C   0  0  0  0  0  0  0  0  0  0  0  0
  162.9490  212.9710  143.0140 O   0  0  0  0  0  0  0  0  0  0  0  0
  160.8730  212.0290  143.2560 O   0  0  0  0  0  1  0  0  0  0  0  0
  161.0990  207.1170  151.7270 C   0  0  2  0  0  3  0  0  0  0  0  0
  162.0180  206.1520  152.3180 N   0  0  0  0  0  1  0  0  0  0  0  0
  162.3170  208.3320  150.0760 O   0  0  0  0  0  0  0  0  0  0  0  0
  161.4790  207.4210  150.3070 C   0  0  0  0  0  0  0  0  0  0  0  0
  160.8530  206.7940  149.2190 O   0  0  0  0  0  0  0  0  0  0  0  0
  161.3820  203.8000  147.1000 C   0  0  0  0  0  3  0  0  0  0  0  0
  161.0280  203.0710  149.3770 C   0  0  0  0  0  0  0  0  0  0  0  0
  160.9010  201.7810  150.5560 Cl  0  0  0  0  0  0  0  0  0  0  0  0
  161.2320  205.1410  147.4950 C   0  0  0  0  0  0  0  0  0  0  0  0
  161.2810  202.7700  148.0370 C   0  0  0  0  0  3  0  0  0  0  0  0
  160.8830  204.4000  149.7770 C   0  0  0  0  0  3  0  0  0  0  0  0
  160.9760  205.4450  148.8430 C   0  0  0  0  0  0  0  0  0  0  0  0
  161.3300  206.1820  146.5650 O   0  0  0  0  0  0  0  0  0  0  0  0
  160.5310  206.2400  145.3900 C   0  0  0  0  0  1  0  0  0  0  0  0
  1  9  1  0  0  0  0
  2  6  2  0  0  0  0
  3  7  2  0  0  0  0
  4  1  2  0  0  0  0
  4  3  1  0  0  0  0
  5  8  2  0  0  0  0
  7  5  1  0  0  0  0
  7  2  1  0  0  0  0
  8  6  1  0  0  0  0
  9  5  1  0  0  0  0
 10 11  1  0  0  0  0
 11 13  2  0  0  0  0
 12 11  1  0  0  0  0
 12  3  1  0  0  0  0
 14 12  1  0  0  0  0
 15 17  1  0  0  0  0
 16 17  1  0  0  0  0
 17 14  1  1  0  0  0
 18 19  1  6  0  0  0
 18 15  1  0  0  0  0
 18 16  1  0  0  0  0
 20 21  1  1  0  0  0
 20 19  1  0  0  0  0
 22 20  1  0  0  0  0
 23 22  1  0  0  0  0
 24 23  2  0  0  0  0
 25 23  1  0  0  0  0
 26 27  1  1  0  0  0
 26  1  1  0  0  0  0
 28 29  2  0  0  0  0
 29 26  1  0  0  0  0
 30 29  1  0  0  0  0
 31 34  2  0  0  0  0
 31 35  1  0  0  0  0
 32 36  1  0  0  0  0
 32 33  1  0  0  0  0
 34 37  1  0  0  0  0
 35 32  2  0  0  0  0
 37 30  1  0  0  0  0
 37 36  2  0  0  0  0
 38 34  1  0  0  0  0
 39 38  1  0  0  0  0
M  END
>  <MODEL>
2

>  <REMARK>
 VINA RESULT:      -6.7      2.723      4.000
  Name = 
  12 active torsions:
  status: ('A' for Active; 'I' for Inactive)
    1  A    between atoms: C_2  and  C_11
    2  A    between atoms: O_5  and  C_19
    3  A    between atoms: O_8  and  C_30
    4  A    between atoms: O_8  and  C_36
    5  A    between atoms: C_11  and  C_36
    6  A    between atoms: C_13  and  N_27
    7  A    between atoms: C_14  and  C_38
    8  A    between atoms: C_17  and  C_33
    9  A    between atoms: C_20  and  N_26
   10  A    between atoms: C_20  and  C_38
   11  A    between atoms: N_26  and  C_31
   12  A    between atoms: N_27  and  C_33
                            x       y       z     vdW  Elec       q    Type
                         _______ _______ _______ _____ _____    ______ ____

>  <TORSDO>
F 12

$$$$
=
 OpenBabel11072415043D

 39 42  0  0  1  0  0  0  0  0999 V2000
  160.8560  208.3530  154.2180 C   0  0  0  0  0  0  0  0  0  0  0  0
  161.2090  211.8430  156.4440 N   0  0  0  0  0  0  0  0  0  0  0  0
  159.9210  210.5710  154.6760 C   0  0  0  0  0  0  0  0  0  0  0  0
  159.8870  209.3490  153.9750 C   0  0  0  0  0  3  0  0  0  0  0  0
  161.8730  209.7420  155.8230 C   0  0  0  0  0  0  0  0  0  0  0  0
  162.3860  211.5430  157.2600 C   0  0  0  0  0  3  0  0  0  0  0  0
  160.9610  210.7310  155.6100 C   0  0  0  0  0  0  0  0  0  0  0  0
  162.8540  210.1280  156.8620 C   0  0  0  0  0  3  0  0  0  0  0  0
  161.8290  208.5650  155.1490 N   0  0  0  0  0  2  0  0  0  0  0  0
  156.5440  212.2290  154.1870 N   0  0  0  0  0  1  0  0  0  0  0  0
  157.5720  211.4860  154.8350 C   0  0  0  0  0  0  0  0  0  0  0  0
  158.9450  211.6100  154.4070 N   0  0  0  0  0  0  0  0  0  0  0  0
  157.2640  210.7370  155.8000 O   0  0  0  0  0  0  0  0  0  0  0  0
  159.3040  212.7170  153.5180 C   0  0  0  0  0  2  0  0  0  0  0  0
  158.3960  213.6070  151.3510 C   0  0  0  0  0  2  0  0  0  0  0  0
  160.2290  212.5100  151.2240 C   0  0  0  0  0  2  0  0  0  0  0  0
  158.9720  212.3970  152.0620 C   0  0  1  0  0  3  0  0  0  0  0  0
  159.6590  213.7230  150.5150 C   0  0  1  0  0  3  0  0  0  0  0  0
  159.3710  213.3850  149.1300 N   0  0  0  0  0  2  0  0  0  0  0  0
  159.9990  214.3980  148.2950 C   0  0  2  0  0  3  0  0  0  0  0  0
  159.7110  214.1330  146.9570 O   0  0  0  0  0  1  0  0  0  0  0  0
  161.5080  214.3820  148.4950 C   0  0  0  0  0  2  0  0  0  0  0  0
  162.1110  213.1660  147.8780 C   0  0  0  0  0  0  0  0  0  0  0  0
  162.5960  212.2610  148.6080 O   0  0  0  0  0  1  0  0  0  0  0  0
  162.1110  213.0160  146.4980 O   0  0  0  0  0  0  0  0  0  0  0  0
  160.7960  207.0330  153.5190 C   0  0  2  0  0  3  0  0  0  0  0  0
  161.5920  206.0280  154.2120 N   0  0  0  0  0  1  0  0  0  0  0  0
  162.2920  207.7700  151.8140 O   0  0  0  0  0  0  0  0  0  0  0  0
  161.2230  207.1610  152.0850 C   0  0  0  0  0  0  0  0  0  0  0  0
  160.4180  206.7170  151.0250 O   0  0  0  0  0  0  0  0  0  0  0  0
  161.4260  204.9370  147.9360 C   0  0  0  0  0  3  0  0  0  0  0  0
  160.9290  203.2930  149.6360 C   0  0  0  0  0  0  0  0  0  0  0  0
  160.8150  201.6200  150.1430 Cl  0  0  0  0  0  0  0  0  0  0  0  0
  161.1130  205.9740  148.8320 C   0  0  0  0  0  0  0  0  0  0  0  0
  161.3340  203.6030  148.3360 C   0  0  0  0  0  3  0  0  0  0  0  0
  160.6220  204.3170  150.5320 C   0  0  0  0  0  3  0  0  0  0  0  0
  160.7030  205.6640  150.1390 C   0  0  0  0  0  0  0  0  0  0  0  0
  161.1980  207.3150  148.4420 O   0  0  0  0  0  0  0  0  0  0  0  0
  162.4220  208.0390  148.4420 C   0  0  0  0  0  1  0  0  0  0  0  0
  1  9  1  0  0  0  0
  2  6  2  0  0  0  0
  3  7  2  0  0  0  0
  4  1  2  0  0  0  0
  4  3  1  0  0  0  0
  5  8  2  0  0  0  0
  7  5  1  0  0  0  0
  7  2  1  0  0  0  0
  8  6  1  0  0  0  0
  9  5  1  0  0  0  0
 10 11  1  0  0  0  0
 11 13  2  0  0  0  0
 12  3  1  0  0  0  0
 12 11  1  0  0  0  0
 14 12  1  0  0  0  0
 15 17  1  0  0  0  0
 16 17  1  0  0  0  0
 17 14  1  1  0  0  0
 18 19  1  6  0  0  0
 18 16  1  0  0  0  0
 18 15  1  0  0  0  0
 20 21  1  6  0  0  0
 20 22  1  0  0  0  0
 20 19  1  0  0  0  0
 23 22  1  0  0  0  0
 23 24  1  0  0  0  0
 25 23  2  0  0  0  0
 26 27  1  1  0  0  0
 26  1  1  0  0  0  0
 28 29  2  0  0  0  0
 29 26  1  0  0  0  0
 30 29  1  0  0  0  0
 31 35  2  0  0  0  0
 31 34  1  0  0  0  0
 32 33  1  0  0  0  0
 32 36  2  0  0  0  0
 34 37  2  0  0  0  0
 35 32  1  0  0  0  0
 37 36  1  0  0  0  0
 37 30  1  0  0  0  0
 38 34  1  0  0  0  0
 39 38  1  0  0  0  0
M  END
>  <MODEL>
3

>  <REMARK>
 VINA RESULT:      -6.6      2.212      3.711
  Name = 
  12 active torsions:
  status: ('A' for Active; 'I' for Inactive)
    1  A    between atoms: C_2  and  C_11
    2  A    between atoms: O_5  and  C_19
    3  A    between atoms: O_8  and  C_30
    4  A    between atoms: O_8  and  C_36
    5  A    between atoms: C_11  and  C_36
    6  A    between atoms: C_13  and  N_27
    7  A    between atoms: C_14  and  C_38
    8  A    between atoms: C_17  and  C_33
    9  A    between atoms: C_20  and  N_26
   10  A    between atoms: C_20  and  C_38
   11  A    between atoms: N_26  and  C_31
   12  A    between atoms: N_27  and  C_33
                            x       y       z     vdW  Elec       q    Type
                         _______ _______ _______ _____ _____    ______ ____

>  <TORSDO>
F 12

$$$$
=
 OpenBabel11072415043D

 39 42  0  0  1  0  0  0  0  0999 V2000
  160.2320  211.5540  153.0350 C   0  0  0  0  0  0  0  0  0  0  0  0
  161.9690  208.9690  155.7860 N   0  0  0  0  0  0  0  0  0  0  0  0
  160.9970  209.2660  153.4690 C   0  0  0  0  0  0  0  0  0  0  0  0
  160.4200  210.2220  152.6090 C   0  0  0  0  0  3  0  0  0  0  0  0
  161.1750  211.0120  155.1220 C   0  0  0  0  0  0  0  0  0  0  0  0
  162.1820  209.8640  156.9230 C   0  0  0  0  0  3  0  0  0  0  0  0
  161.3640  209.7150  154.7500 C   0  0  0  0  0  0  0  0  0  0  0  0
  161.6570  211.2520  156.5010 C   0  0  0  0  0  3  0  0  0  0  0  0
  160.6250  211.9270  154.2870 N   0  0  0  0  0  2  0  0  0  0  0  0
  161.3830  205.4990  153.7080 N   0  0  0  0  0  1  0  0  0  0  0  0
  160.8010  206.7850  153.9020 C   0  0  0  0  0  0  0  0  0  0  0  0
  161.1640  207.8890  153.0450 N   0  0  0  0  0  0  0  0  0  0  0  0
  159.9510  206.9360  154.8190 O   0  0  0  0  0  0  0  0  0  0  0  0
  161.8920  207.6040  151.8060 C   0  0  0  0  0  2  0  0  0  0  0  0
  161.4210  207.9370  149.3610 C   0  0  0  0  0  2  0  0  0  0  0  0
  161.2510  205.9310  150.0880 C   0  0  0  0  0  2  0  0  0  0  0  0
  160.9380  207.3020  150.6520 C   0  0  1  0  0  3  0  0  0  0  0  0
  161.7390  206.5630  148.7990 C   0  0  1  0  0  3  0  0  0  0  0  0
  160.8170  206.2410  147.7210 N   0  0  0  0  0  2  0  0  0  0  0  0
  161.5950  206.1480  146.4940 C   0  0  2  0  0  3  0  0  0  0  0  0
  160.7290  206.0890  145.4050 O   0  0  0  0  0  1  0  0  0  0  0  0
  162.4600  204.8960  146.5140 C   0  0  0  0  0  2  0  0  0  0  0  0
  161.6150  203.6710  146.6020 C   0  0  0  0  0  0  0  0  0  0  0  0
  161.3260  203.1820  147.7270 O   0  0  0  0  0  1  0  0  0  0  0  0
  161.1220  203.0840  145.4450 O   0  0  0  0  0  0  0  0  0  0  0  0
  159.6700  212.5860  152.1120 C   0  0  2  0  0  3  0  0  0  0  0  0
  158.2370  212.4050  151.9230 N   0  0  0  0  0  1  0  0  0  0  0  0
  161.2210  211.6680  150.5510 O   0  0  0  0  0  0  0  0  0  0  0  0
  160.3900  212.5830  150.7950 C   0  0  0  0  0  0  0  0  0  0  0  0
  160.2470  213.6240  149.8650 O   0  0  0  0  0  0  0  0  0  0  0  0
  160.7440  213.2970  146.2070 C   0  0  0  0  0  3  0  0  0  0  0  0
  158.3720  213.2190  146.6650 C   0  0  0  0  0  0  0  0  0  0  0  0
  156.7210  213.0730  146.0990 Cl  0  0  0  0  0  0  0  0  0  0  0  0
  161.0140  213.4520  147.5780 C   0  0  0  0  0  0  0  0  0  0  0  0
  159.4290  213.1820  145.7530 C   0  0  0  0  0  3  0  0  0  0  0  0
  158.6330  213.3680  148.0280 C   0  0  0  0  0  3  0  0  0  0  0  0
  159.9520  213.4920  148.4970 C   0  0  0  0  0  0  0  0  0  0  0  0
  162.3280  213.5710  148.0450 O   0  0  0  0  0  0  0  0  0  0  0  0
  163.2970  212.5430  147.8840 C   0  0  0  0  0  1  0  0  0  0  0  0
  1  9  1  0  0  0  0
  2  6  2  0  0  0  0
  3  7  2  0  0  0  0
  4  1  2  0  0  0  0
  4  3  1  0  0  0  0
  5  8  2  0  0  0  0
  7  5  1  0  0  0  0
  7  2  1  0  0  0  0
  8  6  1  0  0  0  0
  9  5  1  0  0  0  0
 10 11  1  0  0  0  0
 11 13  2  0  0  0  0
 12  3  1  0  0  0  0
 12 11  1  0  0  0  0
 14 12  1  0  0  0  0
 15 17  1  0  0  0  0
 16 17  1  0  0  0  0
 17 14  1  1  0  0  0
 18 19  1  6  0  0  0
 18 15  1  0  0  0  0
 18 16  1  0  0  0  0
 20 21  1  6  0  0  0
 20 22  1  0  0  0  0
 20 19  1  0  0  0  0
 22 23  1  0  0  0  0
 23 24  1  0  0  0  0
 25 23  2  0  0  0  0
 26 27  1  6  0  0  0
 26  1  1  0  0  0  0
 28 29  2  0  0  0  0
 29 26  1  0  0  0  0
 30 29  1  0  0  0  0
 31 34  1  0  0  0  0
 32 36  2  0  0  0  0
 33 32  1  0  0  0  0
 34 38  1  0  0  0  0
 34 37  2  0  0  0  0
 35 31  2  0  0  0  0
 35 32  1  0  0  0  0
 36 37  1  0  0  0  0
 37 30  1  0  0  0  0
 39 38  1  0  0  0  0
M  END
>  <MODEL>
4

>  <REMARK>
 VINA RESULT:      -6.5      3.012      7.597
  Name = 
  12 active torsions:
  status: ('A' for Active; 'I' for Inactive)
    1  A    between atoms: C_2  and  C_11
    2  A    between atoms: O_5  and  C_19
    3  A    between atoms: O_8  and  C_30
    4  A    between atoms: O_8  and  C_36
    5  A    between atoms: C_11  and  C_36
    6  A    between atoms: C_13  and  N_27
    7  A    between atoms: C_14  and  C_38
    8  A    between atoms: C_17  and  C_33
    9  A    between atoms: C_20  and  N_26
   10  A    between atoms: C_20  and  C_38
   11  A    between atoms: N_26  and  C_31
   12  A    between atoms: N_27  and  C_33
                            x       y       z     vdW  Elec       q    Type
                         _______ _______ _______ _____ _____    ______ ____

>  <TORSDO>
F 12

$$$$
=
 OpenBabel11072415043D

 39 42  0  0  1  0  0  0  0  0999 V2000
  160.9230  207.6110  154.0820 C   0  0  0  0  0  0  0  0  0  0  0  0
  161.3430  204.9630  150.9080 N   0  0  0  0  0  0  0  0  0  0  0  0
  161.2900  207.3740  151.6700 C   0  0  0  0  0  0  0  0  0  0  0  0
  161.1390  208.1870  152.8120 C   0  0  0  0  0  3  0  0  0  0  0  0
  161.0110  205.4660  153.1170 C   0  0  0  0  0  0  0  0  0  0  0  0
  161.2090  203.6760  151.5920 C   0  0  0  0  0  3  0  0  0  0  0  0
  161.2120  205.9850  151.8740 C   0  0  0  0  0  0  0  0  0  0  0  0
  160.9860  203.9870  153.0860 C   0  0  0  0  0  3  0  0  0  0  0  0
  160.8730  206.2550  154.2120 N   0  0  0  0  0  2  0  0  0  0  0  0
  161.8380  210.0300  149.0160 N   0  0  0  0  0  1  0  0  0  0  0  0
  162.0790  209.2680  150.1960 C   0  0  0  0  0  0  0  0  0  0  0  0
  161.4820  207.9640  150.3590 N   0  0  0  0  0  0  0  0  0  0  0  0
  162.8380  209.7430  151.0820 O   0  0  0  0  0  0  0  0  0  0  0  0
  160.8840  207.3160  149.1880 C   0  0  0  0  0  2  0  0  0  0  0  0
  161.3600  205.1600  147.9890 C   0  0  0  0  0  2  0  0  0  0  0  0
  161.9100  206.9530  146.9580 C   0  0  0  0  0  2  0  0  0  0  0  0
  161.9180  206.5080  148.4060 C   0  0  1  0  0  3  0  0  0  0  0  0
  161.3470  205.6090  146.5380 C   0  0  1  0  0  3  0  0  0  0  0  0
  162.3520  204.8770  145.7830 N   0  0  0  0  0  2  0  0  0  0  0  0
  161.7020  204.3480  144.5920 C   0  0  2  0  0  3  0  0  0  0  0  0
  161.4800  205.3880  143.6910 O   0  0  0  0  0  1  0  0  0  0  0  0
  160.3700  203.7110  144.9590 C   0  0  0  0  0  2  0  0  0  0  0  0
  160.5600  202.2970  145.3900 C   0  0  0  0  0  0  0  0  0  0  0  0
  161.2600  202.0330  146.4030 O   0  0  0  0  0  1  0  0  0  0  0  0
  159.9400  201.2700  144.6910 O   0  0  0  0  0  0  0  0  0  0  0  0
  160.8150  208.4630  155.3060 C   0  0  2  0  0  3  0  0  0  0  0  0
  159.7400  208.0070  156.1770 N   0  0  0  0  0  1  0  0  0  0  0  0
  161.5610  210.7260  155.1990 O   0  0  0  0  0  0  0  0  0  0  0  0
  160.6370  209.9090  154.9430 C   0  0  0  0  0  0  0  0  0  0  0  0
  159.4300  210.4020  154.4230 O   0  0  0  0  0  0  0  0  0  0  0  0
  158.3200  213.8090  153.4780 C   0  0  0  0  0  3  0  0  0  0  0  0
  159.6950  212.9330  151.6950 C   0  0  0  0  0  0  0  0  0  0  0  0
  160.4540  213.1260  150.1280 Cl  0  0  0  0  0  0  0  0  0  0  0  0
  158.4840  212.6170  154.2050 C   0  0  0  0  0  0  0  0  0  0  0  0
  158.9220  213.9660  152.2290 C   0  0  0  0  0  3  0  0  0  0  0  0
  159.8670  211.7490  152.4130 C   0  0  0  0  0  3  0  0  0  0  0  0
  159.2600  211.5760  153.6680 C   0  0  0  0  0  0  0  0  0  0  0  0
  157.8840  212.4470  155.4580 O   0  0  0  0  0  0  0  0  0  0  0  0
  156.4760  212.5020  155.6490 C   0  0  0  0  0  1  0  0  0  0  0  0
  1  9  1  0  0  0  0
  1 26  1  0  0  0  0
  2  6  2  0  0  0  0
  2  7  1  0  0  0  0
  3  7  2  0  0  0  0
  3  4  1  0  0  0  0
  4  1  2  0  0  0  0
  5  9  1  0  0  0  0
  6  8  1  0  0  0  0
  7  5  1  0  0  0  0
  8  5  2  0  0  0  0
 10 11  1  0  0  0  0
 11 12  1  0  0  0  0
 11 13  2  0  0  0  0
 12  3  1  0  0  0  0
 14 12  1  0  0  0  0
 15 17  1  0  0  0  0
 16 17  1  0  0  0  0
 17 14  1  1  0  0  0
 18 19  1  6  0  0  0
 18 16  1  0  0  0  0
 18 15  1  0  0  0  0
 20 21  1  6  0  0  0
 20 22  1  0  0  0  0
 20 19  1  0  0  0  0
 22 23  1  0  0  0  0
 23 24  1  0  0  0  0
 25 23  2  0  0  0  0
 26 27  1  6  0  0  0
 29 28  2  0  0  0  0
 29 26  1  0  0  0  0
 30 29  1  0  0  0  0
 31 34  1  0  0  0  0
 32 35  1  0  0  0  0
 32 36  2  0  0  0  0
 33 32  1  0  0  0  0
 34 38  1  0  0  0  0
 35 31  2  0  0  0  0
 36 37  1  0  0  0  0
 37 34  2  0  0  0  0
 37 30  1  0  0  0  0
 38 39  1  0  0  0  0
M  END
>  <MODEL>
5

>  <REMARK>
 VINA RESULT:      -6.3      3.362      8.725
  Name = 
  12 active torsions:
  status: ('A' for Active; 'I' for Inactive)
    1  A    between atoms: C_2  and  C_11
    2  A    between atoms: O_5  and  C_19
    3  A    between atoms: O_8  and  C_30
    4  A    between atoms: O_8  and  C_36
    5  A    between atoms: C_11  and  C_36
    6  A    between atoms: C_13  and  N_27
    7  A    between atoms: C_14  and  C_38
    8  A    between atoms: C_17  and  C_33
    9  A    between atoms: C_20  and  N_26
   10  A    between atoms: C_20  and  C_38
   11  A    between atoms: N_26  and  C_31
   12  A    between atoms: N_27  and  C_33
                            x       y       z     vdW  Elec       q    Type
                         _______ _______ _______ _____ _____    ______ ____

>  <TORSDO>
F 12

$$$$
=
 OpenBabel11072415043D

 39 42  0  0  1  0  0  0  0  0999 V2000
  159.6320  211.9160  153.2270 C   0  0  0  0  0  0  0  0  0  0  0  0
  162.1610  209.5530  155.5250 N   0  0  0  0  0  0  0  0  0  0  0  0
  160.9090  209.8270  153.3440 C   0  0  0  0  0  0  0  0  0  0  0  0
  160.0530  210.7020  152.6450 C   0  0  0  0  0  3  0  0  0  0  0  0
  160.8850  211.4180  155.1560 C   0  0  0  0  0  0  0  0  0  0  0  0
  162.2980  210.3710  156.7310 C   0  0  0  0  0  3  0  0  0  0  0  0
  161.3050  210.2330  154.6310 C   0  0  0  0  0  0  0  0  0  0  0  0
  161.4470  211.6380  156.5070 C   0  0  0  0  0  3  0  0  0  0  0  0
  160.0660  212.2570  154.4740 N   0  0  0  0  0  2  0  0  0  0  0  0
  161.9560  206.1870  153.1360 N   0  0  0  0  0  1  0  0  0  0  0  0
  161.1540  207.3160  153.4690 C   0  0  0  0  0  0  0  0  0  0  0  0
  161.3190  208.5640  152.7610 N   0  0  0  0  0  0  0  0  0  0  0  0
  160.2870  207.2000  154.3740 O   0  0  0  0  0  0  0  0  0  0  0  0
  162.0910  208.5670  151.5160 C   0  0  0  0  0  2  0  0  0  0  0  0
  161.9010  208.6520  149.0130 C   0  0  0  0  0  2  0  0  0  0  0  0
  161.3390  206.8050  149.9390 C   0  0  0  0  0  2  0  0  0  0  0  0
  161.2070  208.2690  150.3070 C   0  0  1  0  0  3  0  0  0  0  0  0
  162.0370  207.1840  148.6470 C   0  0  1  0  0  3  0  0  0  0  0  0
  161.1740  206.8710  147.5190 N   0  0  0  0  0  2  0  0  0  0  0  0
  161.9910  206.2030  146.5160 C   0  0  2  0  0  3  0  0  0  0  0  0
  161.1940  205.8660  145.4250 O   0  0  0  0  0  1  0  0  0  0  0  0
  162.6050  204.9370  147.0970 C   0  0  0  0  0  2  0  0  0  0  0  0
  161.5810  203.8600  147.2190 C   0  0  0  0  0  0  0  0  0  0  0  0
  160.9260  203.7290  148.2870 O   0  0  0  0  0  1  0  0  0  0  0  0
  161.3290  203.0190  146.1440 O   0  0  0  0  0  0  0  0  0  0  0  0
  158.7680  212.8740  152.4720 C   0  0  2  0  0  3  0  0  0  0  0  0
  157.5140  212.2520  152.0670 N   0  0  0  0  0  1  0  0  0  0  0  0
  160.4560  214.2310  151.4740 O   0  0  0  0  0  0  0  0  0  0  0  0
  159.4950  213.4390  151.2860 C   0  0  0  0  0  0  0  0  0  0  0  0
  159.0750  213.1950  149.9700 O   0  0  0  0  0  0  0  0  0  0  0  0
  160.1510  213.3780  146.4280 C   0  0  0  0  0  3  0  0  0  0  0  0
  162.0390  212.6770  147.7650 C   0  0  0  0  0  0  0  0  0  0  0  0
  163.7220  212.2030  147.8860 Cl  0  0  0  0  0  0  0  0  0  0  0  0
  159.3450  213.4350  147.5790 C   0  0  0  0  0  0  0  0  0  0  0  0
  161.4920  213.0000  146.5210 C   0  0  0  0  0  3  0  0  0  0  0  0
  161.2460  212.7360  148.9110 C   0  0  0  0  0  3  0  0  0  0  0  0
  159.8930  213.1080  148.8300 C   0  0  0  0  0  0  0  0  0  0  0  0
  157.9990  213.8100  147.4980 O   0  0  0  0  0  0  0  0  0  0  0  0
  157.4400  214.4250  146.3440 C   0  0  0  0  0  1  0  0  0  0  0  0
  1  9  1  0  0  0  0
  2  6  2  0  0  0  0
  3  7  2  0  0  0  0
  4  1  2  0  0  0  0
  4  3  1  0  0  0  0
  5  8  2  0  0  0  0
  7  5  1  0  0  0  0
  7  2  1  0  0  0  0
  8  6  1  0  0  0  0
  9  5  1  0  0  0  0
 10 11  1  0  0  0  0
 11 13  2  0  0  0  0
 12  3  1  0  0  0  0
 12 11  1  0  0  0  0
 14 12  1  0  0  0  0
 15 17  1  0  0  0  0
 16 17  1  0  0  0  0
 17 14  1  1  0  0  0
 18 19  1  6  0  0  0
 18 15  1  0  0  0  0
 18 16  1  0  0  0  0
 20 21  1  6  0  0  0
 20 22  1  0  0  0  0
 20 19  1  0  0  0  0
 22 23  1  0  0  0  0
 23 24  1  0  0  0  0
 25 23  2  0  0  0  0
 26 27  1  6  0  0  0
 26  1  1  0  0  0  0
 29 28  2  0  0  0  0
 29 26  1  0  0  0  0
 30 29  1  0  0  0  0
 31 35  2  0  0  0  0
 31 34  1  0  0  0  0
 32 33  1  0  0  0  0
 32 36  2  0  0  0  0
 34 37  2  0  0  0  0
 35 32  1  0  0  0  0
 37 36  1  0  0  0  0
 37 30  1  0  0  0  0
 38 34  1  0  0  0  0
 39 38  1  0  0  0  0
M  END
>  <MODEL>
6

>  <REMARK>
 VINA RESULT:      -6.1      2.762      7.594
  Name = 
  12 active torsions:
  status: ('A' for Active; 'I' for Inactive)
    1  A    between atoms: C_2  and  C_11
    2  A    between atoms: O_5  and  C_19
    3  A    between atoms: O_8  and  C_30
    4  A    between atoms: O_8  and  C_36
    5  A    between atoms: C_11  and  C_36
    6  A    between atoms: C_13  and  N_27
    7  A    between atoms: C_14  and  C_38
    8  A    between atoms: C_17  and  C_33
    9  A    between atoms: C_20  and  N_26
   10  A    between atoms: C_20  and  C_38
   11  A    between atoms: N_26  and  C_31
   12  A    between atoms: N_27  and  C_33
                            x       y       z     vdW  Elec       q    Type
                         _______ _______ _______ _____ _____    ______ ____

>  <TORSDO>
F 12

$$$$
=
 OpenBabel11072415043D

 39 42  0  0  1  0  0  0  0  0999 V2000
  158.9730  213.0030  152.5800 C   0  0  0  0  0  0  0  0  0  0  0  0
  158.0390  210.5180  155.7760 N   0  0  0  0  0  0  0  0  0  0  0  0
  159.8390  211.4390  154.2560 C   0  0  0  0  0  0  0  0  0  0  0  0
  160.0520  212.3100  153.1680 C   0  0  0  0  0  3  0  0  0  0  0  0
  157.4990  212.0010  154.1160 C   0  0  0  0  0  0  0  0  0  0  0  0
  156.5930  210.7190  155.8790 C   0  0  0  0  0  2  0  0  0  0  0  0
  158.5130  211.3070  154.7050 C   0  0  0  0  0  0  0  0  0  0  0  0
  156.2020  211.7190  154.7710 C   0  0  0  0  0  3  0  0  0  0  0  0
  157.7130  212.8420  153.0740 N   0  0  0  0  0  0  0  0  0  0  0  0
  162.9250  210.7330  156.3470 N   0  0  0  0  0  1  0  0  0  0  0  0
  161.5980  211.1540  156.0470 C   0  0  0  0  0  0  0  0  0  0  0  0
  160.9410  210.7010  154.8440 N   0  0  0  0  0  0  0  0  0  0  0  0
  161.0020  211.9100  156.8590 O   0  0  0  0  0  0  0  0  0  0  0  0
  161.5300  209.5830  154.1030 C   0  0  0  0  0  2  0  0  0  0  0  0
  162.1160  209.5550  151.6600 C   0  0  0  0  0  2  0  0  0  0  0  0
  160.7280  208.0610  152.3130 C   0  0  0  0  0  2  0  0  0  0  0  0
  160.9900  209.5090  152.6760 C   0  0  1  0  0  3  0  0  0  0  0  0
  161.8560  208.1020  151.3010 C   0  0  1  0  0  3  0  0  0  0  0  0
  161.3060  208.0130  149.9580 N   0  0  0  0  0  2  0  0  0  0  0  0
  161.9590  206.8950  149.2920 C   0  0  2  0  0  3  0  0  0  0  0  0
  162.5630  207.3480  148.1200 O   0  0  0  0  0  1  0  0  0  0  0  0
  160.9380  205.8210  148.9460 C   0  0  0  0  0  2  0  0  0  0  0  0
  161.1710  204.5890  149.7530 C   0  0  0  0  0  0  0  0  0  0  0  0
  160.8040  203.4670  149.3150 O   0  0  0  0  0  0  0  0  0  0  0  0
  161.8200  204.6750  150.9770 O   0  0  0  0  0  1  0  0  0  0  0  0
  159.1970  213.9690  151.4610 C   0  0  2  0  0  3  0  0  0  0  0  0
  157.9350  214.4520  150.9170 N   0  0  0  0  0  1  0  0  0  0  0  0
  160.6450  212.2760  150.6120 O   0  0  0  0  0  0  0  0  0  0  0  0
  160.0490  213.3610  150.3850 C   0  0  0  0  0  0  0  0  0  0  0  0
  160.2890  214.0150  149.1670 O   0  0  0  0  0  0  0  0  0  0  0  0
  160.3080  212.4710  145.7980 C   0  0  0  0  0  3  0  0  0  0  0  0
  158.1220  213.4250  146.1870 C   0  0  0  0  0  0  0  0  0  0  0  0
  156.4880  213.7490  145.6440 Cl  0  0  0  0  0  0  0  0  0  0  0  0
  160.7360  212.9070  147.0640 C   0  0  0  0  0  0  0  0  0  0  0  0
  159.0070  212.7290  145.3620 C   0  0  0  0  0  3  0  0  0  0  0  0
  158.5380  213.8570  147.4480 C   0  0  0  0  0  3  0  0  0  0  0  0
  159.8470  213.6090  147.8950 C   0  0  0  0  0  0  0  0  0  0  0  0
  162.0380  212.6570  147.5120 O   0  0  0  0  0  0  0  0  0  0  0  0
  162.4030  211.4570  148.1820 C   0  0  0  0  0  1  0  0  0  0  0  0
  1  9  2  0  0  0  0
  1  4  1  0  0  0  0
  2  6  1  0  0  0  0
  3  7  1  0  0  0  0
  3 12  1  0  0  0  0
  4  3  2  0  0  0  0
  5  7  1  0  0  0  0
  5  8  2  0  0  0  0
  7  2  2  0  0  0  0
  8  6  1  0  0  0  0
  9  5  1  0  0  0  0
 11 10  1  0  0  0  0
 11 13  2  0  0  0  0
 12 11  1  0  0  0  0
 14 12  1  0  0  0  0
 15 17  1  0  0  0  0
 16 17  1  0  0  0  0
 17 14  1  1  0  0  0
 18 19  1  6  0  0  0
 18 15  1  0  0  0  0
 18 16  1  0  0  0  0
 20 21  1  6  0  0  0
 20 19  1  0  0  0  0
 22 20  1  0  0  0  0
 22 23  1  0  0  0  0
 23 25  1  0  0  0  0
 24 23  2  0  0  0  0
 26 27  1  6  0  0  0
 26  1  1  0  0  0  0
 29 28  2  0  0  0  0
 29 26  1  0  0  0  0
 30 29  1  0  0  0  0
 31 34  1  0  0  0  0
 32 36  2  0  0  0  0
 33 32  1  0  0  0  0
 34 38  1  0  0  0  0
 34 37  2  0  0  0  0
 35 31  2  0  0  0  0
 35 32  1  0  0  0  0
 36 37  1  0  0  0  0
 37 30  1  0  0  0  0
 38 39  1  0  0  0  0
M  END
>  <MODEL>
7

>  <REMARK>
 VINA RESULT:      -5.7      2.993      7.277
  Name = 
  12 active torsions:
  status: ('A' for Active; 'I' for Inactive)
    1  A    between atoms: C_2  and  C_11
    2  A    between atoms: O_5  and  C_19
    3  A    between atoms: O_8  and  C_30
    4  A    between atoms: O_8  and  C_36
    5  A    between atoms: C_11  and  C_36
    6  A    between atoms: C_13  and  N_27
    7  A    between atoms: C_14  and  C_38
    8  A    between atoms: C_17  and  C_33
    9  A    between atoms: C_20  and  N_26
   10  A    between atoms: C_20  and  C_38
   11  A    between atoms: N_26  and  C_31
   12  A    between atoms: N_27  and  C_33
                            x       y       z     vdW  Elec       q    Type
                         _______ _______ _______ _____ _____    ______ ____

>  <TORSDO>
F 12

$$$$
=
 OpenBabel11072415043D

 39 42  0  0  1  0  0  0  0  0999 V2000
  161.8170  206.9880  148.2730 C   0  0  0  0  0  0  0  0  0  0  0  0
  161.8440  208.1450  152.2630 N   0  0  0  0  0  0  0  0  0  0  0  0
  161.7210  208.8680  149.8420 C   0  0  0  0  0  0  0  0  0  0  0  0
  161.7170  208.3730  148.5220 C   0  0  0  0  0  3  0  0  0  0  0  0
  161.9160  206.5840  150.5900 C   0  0  0  0  0  0  0  0  0  0  0  0
  161.9520  206.8490  152.9350 C   0  0  0  0  0  3  0  0  0  0  0  0
  161.8310  207.9150  150.8700 C   0  0  0  0  0  0  0  0  0  0  0  0
  162.0000  205.7770  151.8270 C   0  0  0  0  0  3  0  0  0  0  0  0
  161.9050  206.1150  149.3170 N   0  0  0  0  0  2  0  0  0  0  0  0
  162.2670  212.5940  149.3760 N   0  0  0  0  0  1  0  0  0  0  0  0
  161.8680  211.2640  149.0550 C   0  0  0  0  0  0  0  0  0  0  0  0
  161.6500  210.2940  150.1010 N   0  0  0  0  0  0  0  0  0  0  0  0
  161.6900  210.9580  147.8460 O   0  0  0  0  0  0  0  0  0  0  0  0
  161.5480  210.7660  151.4850 C   0  0  0  0  0  2  0  0  0  0  0  0
  159.7630  210.7000  153.2510 C   0  0  0  0  0  2  0  0  0  0  0  0
  160.0750  212.5910  152.2970 C   0  0  0  0  0  2  0  0  0  0  0  0
  160.1130  211.1450  151.8430 C   0  0  1  0  0  3  0  0  0  0  0  0
  159.7310  212.1480  153.7060 C   0  0  1  0  0  3  0  0  0  0  0  0
  158.3650  212.5410  154.0170 N   0  0  0  0  0  2  0  0  0  0  0  0
  158.2880  212.7460  155.4570 C   0  0  2  0  0  3  0  0  0  0  0  0
  159.5570  213.0490  155.9460 O   0  0  0  0  0  1  0  0  0  0  0  0
  157.7770  211.4850  156.1400 C   0  0  0  0  0  2  0  0  0  0  0  0
  156.2860  211.4500  156.1400 C   0  0  0  0  0  0  0  0  0  0  0  0
  155.6670  210.8780  155.2050 O   0  0  0  0  0  0  0  0  0  0  0  0
  155.5800  212.0230  157.1890 O   0  0  0  0  0  1  0  0  0  0  0  0
  161.7590  206.4500  146.8790 C   0  0  2  0  0  3  0  0  0  0  0  0
  160.4230  206.5830  146.3140 N   0  0  0  0  0  1  0  0  0  0  0  0
  163.4550  204.7800  146.7230 O   0  0  0  0  0  0  0  0  0  0  0  0
  162.2240  205.0230  146.8310 C   0  0  0  0  0  0  0  0  0  0  0  0
  161.3230  203.9480  146.7980 O   0  0  0  0  0  0  0  0  0  0  0  0
  160.9670  200.6090  148.3670 C   0  0  0  0  0  3  0  0  0  0  0  0
  160.9220  202.2810  150.1120 C   0  0  0  0  0  0  0  0  0  0  0  0
  160.8060  202.7020  151.8080 Cl  0  0  0  0  0  0  0  0  0  0  0  0
  161.1090  201.6140  147.3940 C   0  0  0  0  0  0  0  0  0  0  0  0
  160.8730  200.9420  149.7200 C   0  0  0  0  0  3  0  0  0  0  0  0
  161.0680  203.2830  149.1510 C   0  0  0  0  0  3  0  0  0  0  0  0
  161.1560  202.9620  147.7860 C   0  0  0  0  0  0  0  0  0  0  0  0
  161.2020  201.2930  146.0340 O   0  0  0  0  0  0  0  0  0  0  0  0
  160.0790  201.3120  145.1630 C   0  0  0  0  0  1  0  0  0  0  0  0
  1  4  2  0  0  0  0
  1  9  1  0  0  0  0
  2  6  2  0  0  0  0
  3 12  1  0  0  0  0
  3  7  2  0  0  0  0
  4  3  1  0  0  0  0
  5  7  1  0  0  0  0
  5  8  2  0  0  0  0
  7  2  1  0  0  0  0
  8  6  1  0  0  0  0
  9  5  1  0  0  0  0
 11 10  1  0  0  0  0
 11 12  1  0  0  0  0
 12 14  1  0  0  0  0
 13 11  2  0  0  0  0
 15 18  1  0  0  0  0
 16 18  1  0  0  0  0
 17 14  1  1  0  0  0
 17 16  1  0  0  0  0
 17 15  1  0  0  0  0
 18 19  1  6  0  0  0
 19 20  1  0  0  0  0
 20 21  1  1  0  0  0
 20 22  1  0  0  0  0
 23 22  1  0  0  0  0
 23 25  1  0  0  0  0
 24 23  2  0  0  0  0
 26 27  1  1  0  0  0
 26  1  1  0  0  0  0
 28 29  2  0  0  0  0
 29 26  1  0  0  0  0
 30 29  1  0  0  0  0
 30 37  1  0  0  0  0
 31 35  1  0  0  0  0
 32 33  1  0  0  0  0
 34 37  1  0  0  0  0
 34 31  2  0  0  0  0
 35 32  2  0  0  0  0
 36 32  1  0  0  0  0
 37 36  2  0  0  0  0
 38 34  1  0  0  0  0
 39 38  1  0  0  0  0
M  END
>  <MODEL>
8

>  <REMARK>
 VINA RESULT:      -5.7      2.639      4.504
  Name = 
  12 active torsions:
  status: ('A' for Active; 'I' for Inactive)
    1  A    between atoms: C_2  and  C_11
    2  A    between atoms: O_5  and  C_19
    3  A    between atoms: O_8  and  C_30
    4  A    between atoms: O_8  and  C_36
    5  A    between atoms: C_11  and  C_36
    6  A    between atoms: C_13  and  N_27
    7  A    between atoms: C_14  and  C_38
    8  A    between atoms: C_17  and  C_33
    9  A    between atoms: C_20  and  N_26
   10  A    between atoms: C_20  and  C_38
   11  A    between atoms: N_26  and  C_31
   12  A    between atoms: N_27  and  C_33
                            x       y       z     vdW  Elec       q    Type
                         _______ _______ _______ _____ _____    ______ ____

>  <TORSDO>
F 12

$$$$
=
 OpenBabel11072415043D

 39 42  0  0  1  0  0  0  0  0999 V2000
  161.9800  210.2780  149.5330 C   0  0  0  0  0  0  0  0  0  0  0  0
  161.6060  206.1660  149.0740 N   0  0  0  0  0  0  0  0  0  0  0  0
  161.6970  208.1260  150.6710 C   0  0  0  0  0  0  0  0  0  0  0  0
  161.8280  209.5280  150.7190 C   0  0  0  0  0  3  0  0  0  0  0  0
  161.8680  208.2950  148.2720 C   0  0  0  0  0  0  0  0  0  0  0  0
  161.6770  206.0340  147.6180 C   0  0  0  0  0  3  0  0  0  0  0  0
  161.7290  207.5360  149.3950 C   0  0  2  0  0  3  0  0  0  0  0  0
  161.8520  207.4580  147.0510 C   0  0  0  0  0  3  0  0  0  0  0  0
  161.9870  209.6450  148.3260 N   0  0  0  0  0  0  0  0  0  0  0  0
  161.2080  207.3490  154.3520 N   0  0  0  0  0  1  0  0  0  0  0  0
  160.9210  207.8820  153.0620 C   0  0  0  0  0  0  0  0  0  0  0  0
  161.5720  207.3490  151.8890 N   0  0  0  0  0  0  0  0  0  0  0  0
  160.0760  208.8110  152.9630 O   0  0  0  0  0  0  0  0  0  0  0  0
  162.2870  206.0750  152.0030 C   0  0  0  0  0  2  0  0  0  0  0  0
  160.4730  204.7390  150.8910 C   0  0  0  0  0  2  0  0  0  0  0  0
  162.0470  203.6130  151.8060 C   0  0  0  0  0  2  0  0  0  0  0  0
  161.3200  204.9000  152.1390 C   0  0  1  0  0  3  0  0  0  0  0  0
  161.2050  203.4520  150.5550 C   0  0  1  0  0  3  0  0  0  0  0  0
  160.3110  202.3160  150.7140 N   0  0  0  0  0  2  0  0  0  0  0  0
  160.0320  201.7910  149.3850 C   0  0  2  0  0  3  0  0  0  0  0  0
  158.8880  200.9970  149.4360 O   0  0  0  0  0  1  0  0  0  0  0  0
  161.2020  200.9490  148.8970 C   0  0  0  0  0  2  0  0  0  0  0  0
  161.2230  200.8850  147.4070 C   0  0  0  0  0  0  0  0  0  0  0  0
  161.5810  199.8270  146.8250 O   0  0  0  0  0  1  0  0  0  0  0  0
  160.8190  201.9830  146.6600 O   0  0  0  0  0  0  0  0  0  0  0  0
  162.0660  211.7710  149.5710 C   0  0  2  0  0  3  0  0  0  0  0  0
  160.8150  212.3620  150.0270 N   0  0  0  0  0  1  0  0  0  0  0  0
  163.6330  212.1190  147.8080 O   0  0  0  0  0  0  0  0  0  0  0  0
  162.4660  212.3230  148.2340 C   0  0  0  0  0  0  0  0  0  0  0  0
  161.6140  213.1490  147.4850 O   0  0  0  0  0  0  0  0  0  0  0  0
  159.2500  212.3900  144.7340 C   0  0  0  0  0  3  0  0  0  0  0  0
  161.4470  212.7200  143.7830 C   0  0  0  0  0  0  0  0  0  0  0  0
  162.5030  212.7840  142.3860 Cl  0  0  0  0  0  0  0  0  0  0  0  0
  159.7620  212.6200  146.0230 C   0  0  0  0  0  0  0  0  0  0  0  0
  160.0890  212.4390  143.6190 C   0  0  0  0  0  3  0  0  0  0  0  0
  161.9610  212.9530  145.0590 C   0  0  0  0  0  3  0  0  0  0  0  0
  161.1290  212.9000  146.1890 C   0  0  0  0  0  0  0  0  0  0  0  0
  158.9320  212.5710  147.1490 O   0  0  0  0  0  0  0  0  0  0  0  0
  157.5130  212.5790  147.0580 C   0  0  0  0  0  1  0  0  0  0  0  0
  1 26  1  0  0  0  0
  1  4  1  0  0  0  0
  2  7  1  0  0  0  0
  3  4  2  0  0  0  0
  3 12  1  0  0  0  0
  5  9  1  0  0  0  0
  6  2  2  0  0  0  0
  7  5  1  6  0  0  0
  7  3  1  0  0  0  0
  8  6  1  0  0  0  0
  8  5  2  0  0  0  0
  9  1  2  0  0  0  0
 11 10  1  0  0  0  0
 12 14  1  0  0  0  0
 12 11  1  0  0  0  0
 13 11  2  0  0  0  0
 15 17  1  0  0  0  0
 16 17  1  0  0  0  0
 17 14  1  6  0  0  0
 18 19  1  1  0  0  0
 18 15  1  0  0  0  0
 18 16  1  0  0  0  0
 20 21  1  1  0  0  0
 20 19  1  0  0  0  0
 22 20  1  0  0  0  0
 23 22  1  0  0  0  0
 24 23  1  0  0  0  0
 25 23  2  0  0  0  0
 26 27  1  6  0  0  0
 28 29  2  0  0  0  0
 29 26  1  0  0  0  0
 30 29  1  0  0  0  0
 31 34  1  0  0  0  0
 32 36  2  0  0  0  0
 33 32  1  0  0  0  0
 34 37  2  0  0  0  0
 34 38  1  0  0  0  0
 35 32  1  0  0  0  0
 35 31  2  0  0  0  0
 36 37  1  0  0  0  0
 37 30  1  0  0  0  0
 39 38  1  0  0  0  0
M  END
>  <MODEL>
9

>  <REMARK>
 VINA RESULT:      -5.7      3.789      8.479
  Name = 
  12 active torsions:
  status: ('A' for Active; 'I' for Inactive)
    1  A    between atoms: C_2  and  C_11
    2  A    between atoms: O_5  and  C_19
    3  A    between atoms: O_8  and  C_30
    4  A    between atoms: O_8  and  C_36
    5  A    between atoms: C_11  and  C_36
    6  A    between atoms: C_13  and  N_27
    7  A    between atoms: C_14  and  C_38
    8  A    between atoms: C_17  and  C_33
    9  A    between atoms: C_20  and  N_26
   10  A    between atoms: C_20  and  C_38
   11  A    between atoms: N_26  and  C_31
   12  A    between atoms: N_27  and  C_33
                            x       y       z     vdW  Elec       q    Type
                         _______ _______ _______ _____ _____    ______ ____

>  <TORSDO>
F 12

$$$$
