=
 OpenBabel11072413373D

 43 52  0  0  1  0  0  0  0  0999 V2000
  160.6860  207.2570  150.0840 C   0  0  0  0  0  2  0  0  0  0  0  0
  162.1290  209.0900  149.4620 C   0  0  1  0  0  3  0  0  0  0  0  0
  162.1000  207.5390  152.0480 C   0  0  2  0  0  0  0  0  0  0  0  0
  162.0940  207.0630  150.6200 C   0  0  2  0  0  0  0  0  0  0  0  0
  162.2740  208.5370  150.8790 C   0  0  2  0  0  0  0  0  0  0  0  0
  160.8920  208.7500  150.2260 C   0  0  2  0  0  3  0  0  0  0  0  0
  162.4250  206.1250  151.7170 N   0  0  0  0  0  0  0  0  0  0  0  0
  160.8200  210.2610  152.7200 C   0  0  0  0  0  3  0  0  0  0  0  0
  160.9100  206.7960  154.1440 C   0  0  0  0  0  3  0  0  0  0  0  0
  159.9500  208.3950  155.6680 N   0  0  0  0  0  0  0  0  0  0  0  0
  160.6190  209.1740  153.4770 C   0  0  0  0  0  0  0  0  0  0  0  0
  160.5970  211.6560  153.2370 C   0  0  0  0  0  2  0  0  0  0  0  0
  160.0040  209.3720  154.8150 C   0  0  0  0  0  0  0  0  0  0  0  0
  160.8320  207.7450  152.9600 C   0  0  1  0  0  3  0  0  0  0  0  0
  159.3760  211.6980  154.1530 C   0  0  0  0  0  2  0  0  0  0  0  0
  159.4910  210.6590  155.1710 N   0  0  0  0  0  2  0  0  0  0  0  0
  160.4680  207.0950  155.3670 C   0  0  0  0  0  3  0  0  0  0  0  0
  161.5200  204.4230  153.0510 O   0  0  0  0  0  1  0  0  0  0  0  0
  160.2010  205.4320  151.5120 O   0  0  0  0  0  1  0  0  0  0  0  0
  161.4920  204.9580  151.7580 C   0  0  0  0  0  0  0  0  0  0  0  0
  161.7990  203.9020  150.7850 N   0  0  0  0  0  2  0  0  0  0  0  0
  160.6060  203.5150  150.0430 C   0  0  0  0  0  2  0  0  0  0  0  0
  160.9440  202.4250  149.0840 C   0  0  0  0  0  0  0  0  0  0  0  0
  161.0580  201.1880  149.5560 C   0  0  0  0  0  2  0  0  0  0  0  0
  160.8630  201.9850  146.7100 N   0  0  0  0  0  2  0  0  0  0  0  0
  161.2850  202.7410  147.6730 C   0  0  0  0  0  0  0  0  0  0  0  0
  162.0070  204.0060  147.3270 C   0  0  0  0  0  2  0  0  0  0  0  0
  161.3370  204.6870  146.1450 C   0  0  0  0  0  3  0  0  0  0  0  0
  161.1300  206.1530  146.4710 C   0  0  0  0  0  2  0  0  0  0  0  0
  162.2790  205.7330  145.5750 C   0  0  0  0  0  2  0  0  0  0  0  0
  162.3760  210.5920  149.4920 C   0  0  0  0  0  2  0  0  0  0  0  0
  160.9590  211.6690  147.9780 C   0  0  0  0  0  2  0  0  0  0  0  0
  159.5280  212.8500  146.4890 O   0  0  0  0  0  1  0  0  0  0  0  0
  163.1470  212.9310  146.7190 C   0  0  0  0  0  2  0  0  0  0  0  0
  163.2470  212.2660  148.0880 C   0  0  0  0  0  2  0  0  0  0  0  0
  162.3120  211.1460  148.1480 N   0  0  0  0  0  0  0  0  0  0  0  0
  160.8300  212.3600  146.6200 C   0  0  1  0  0  3  0  0  0  0  0  0
  161.7940  213.4630  146.5180 N   0  0  0  0  0  0  0  0  0  0  0  0
  161.7380  213.9660  145.1480 C   0  0  0  0  0  2  0  0  0  0  0  0
  162.7760  213.2770  144.2710 C   0  0  2  0  0  0  0  0  0  0  0  0
  162.1390  212.5290  143.1260 C   0  0  0  0  0  2  0  0  0  0  0  0
  163.7580  214.1720  143.8080 O   0  0  0  0  0  0  0  0  0  0  0  0
  162.6920  213.9210  142.9290 C   0  0  2  0  0  3  0  0  0  0  0  0
  1  6  1  0  0  0  0
  2 31  1  1  0  0  0
  2  6  1  0  0  0  0
  2  5  1  0  0  0  0
  3  7  1  1  0  0  0
  3 14  1  0  0  0  0
  4  1  1  6  0  0  0
  4  5  1  0  0  0  0
  4  7  1  0  0  0  0
  4  3  1  0  0  0  0
  5  3  1  0  0  0  0
  6  5  1  0  0  0  0
  7 20  1  0  0  0  0
  8 12  1  0  0  0  0
  8 11  2  0  0  0  0
  9 17  2  0  0  0  0
 11 13  1  0  0  0  0
 12 15  1  0  0  0  0
 13 16  1  0  0  0  0
 13 10  2  0  0  0  0
 14 11  1  0  0  0  0
 14  9  1  0  0  0  0
 15 16  1  0  0  0  0
 17 10  1  0  0  0  0
 19 20  1  0  0  0  0
 20 18  1  0  0  0  0
 21 20  1  0  0  0  0
 22 21  1  0  0  0  0
 23 24  2  0  0  0  0
 23 22  1  0  0  0  0
 25 26  2  0  0  0  0
 26 23  1  0  0  0  0
 27 26  1  0  0  0  0
 28 29  1  0  0  0  0
 28 27  1  0  0  0  0
 30 28  1  0  0  0  0
 30 29  1  0  0  0  0
 32 36  1  0  0  0  0
 33 37  1  0  0  0  0
 34 35  1  0  0  0  0
 35 36  1  0  0  0  0
 36 31  1  0  0  0  0
 37 32  1  0  0  0  0
 38 37  1  0  0  0  0
 38 34  1  0  0  0  0
 39 38  1  0  0  0  0
 40 39  1  0  0  0  0
 41 40  1  0  0  0  0
 42 40  1  0  0  0  0
 43 41  1  0  0  0  0
 43 42  1  0  0  0  0
 43 40  1  0  0  0  0
M  END
>  <MODEL>
1

>  <REMARK>
 VINA RESULT:      -7.8      0.000      0.000
  Name = 
  12 active torsions:
  status: ('A' for Active; 'I' for Inactive)
    1  A    between atoms: C_1  and  C_12
    2  A    between atoms: C_1  and  N_35
    3  A    between atoms: C_4  and  C_30
    4  A    between atoms: C_5  and  C_25
    5  A    between atoms: C_5  and  C_43
    6  A    between atoms: C_10  and  C_13
    7  A    between atoms: C_10  and  N_39
    8  A    between atoms: N_16  and  C_24
    9  A    between atoms: N_16  and  C_43
   10  A    between atoms: C_24  and  N_41
   11  A    between atoms: C_25  and  C_30
   12  A    between atoms: C_26  and  C_28
                            x       y       z     vdW  Elec       q    Type
                         _______ _______ _______ _____ _____    ______ ____

>  <TORSDO>
F 12

$$$$
=
 OpenBabel11072413373D

 43 52  0  0  1  0  0  0  0  0999 V2000
  160.6930  207.1480  149.9610 C   0  0  0  0  0  2  0  0  0  0  0  0
  162.2130  208.9270  149.3670 C   0  0  1  0  0  3  0  0  0  0  0  0
  162.1310  207.3240  151.9200 C   0  0  2  0  0  0  0  0  0  0  0  0
  162.0940  206.8800  150.4830 C   0  0  2  0  0  0  0  0  0  0  0  0
  162.3420  208.3390  150.7710 C   0  0  2  0  0  0  0  0  0  0  0  0
  160.9670  208.6270  150.1330 C   0  0  2  0  0  3  0  0  0  0  0  0
  162.3900  205.9050  151.5560 N   0  0  0  0  0  0  0  0  0  0  0  0
  160.9670  210.0850  152.6430 C   0  0  0  0  0  3  0  0  0  0  0  0
  160.9270  206.5970  154.0140 C   0  0  0  0  0  3  0  0  0  0  0  0
  160.0450  208.2100  155.5700 N   0  0  0  0  0  0  0  0  0  0  0  0
  160.7280  208.9960  153.3860 C   0  0  0  0  0  0  0  0  0  0  0  0
  160.8050  211.4800  153.1830 C   0  0  0  0  0  2  0  0  0  0  0  0
  160.1320  209.1970  154.7310 C   0  0  0  0  0  0  0  0  0  0  0  0
  160.8790  207.5670  152.8450 C   0  0  1  0  0  3  0  0  0  0  0  0
  159.5940  211.5570  154.1110 C   0  0  0  0  0  2  0  0  0  0  0  0
  159.6740  210.4980  155.1110 N   0  0  0  0  0  2  0  0  0  0  0  0
  160.5080  206.8950  155.2450 C   0  0  0  0  0  3  0  0  0  0  0  0
  161.3200  204.3030  152.8930 O   0  0  0  0  0  1  0  0  0  0  0  0
  160.1570  205.2940  151.2230 O   0  0  0  0  0  1  0  0  0  0  0  0
  161.4060  204.7790  151.5800 C   0  0  0  0  0  0  0  0  0  0  0  0
  161.7330  203.6690  150.6770 N   0  0  0  0  0  2  0  0  0  0  0  0
  160.5400  203.1840  149.9950 C   0  0  0  0  0  2  0  0  0  0  0  0
  160.9330  202.2440  148.9070 C   0  0  0  0  0  0  0  0  0  0  0  0
  161.0490  200.9540  149.2050 C   0  0  0  0  0  2  0  0  0  0  0  0
  160.9410  202.1490  146.4930 N   0  0  0  0  0  2  0  0  0  0  0  0
  161.3220  202.7600  147.5690 C   0  0  0  0  0  0  0  0  0  0  0  0
  162.0490  204.0610  147.4350 C   0  0  0  0  0  2  0  0  0  0  0  0
  161.2860  204.9960  146.5100 C   0  0  0  0  0  3  0  0  0  0  0  0
  161.8210  206.4040  146.6790 C   0  0  0  0  0  2  0  0  0  0  0  0
  162.2460  205.5730  145.4840 C   0  0  0  0  0  2  0  0  0  0  0  0
  162.5260  210.4160  149.4270 C   0  0  0  0  0  2  0  0  0  0  0  0
  161.3300  212.3910  149.7810 C   0  0  0  0  0  2  0  0  0  0  0  0
  160.1860  214.4530  150.0990 O   0  0  0  0  0  1  0  0  0  0  0  0
  160.5690  212.5020  147.0660 C   0  0  0  0  0  2  0  0  0  0  0  0
  161.6940  211.6080  147.5770 C   0  0  0  0  0  2  0  0  0  0  0  0
  161.3960  211.1950  148.9460 N   0  0  0  0  0  0  0  0  0  0  0  0
  160.2210  213.3200  149.2830 C   0  0  1  0  0  3  0  0  0  0  0  0
  160.4760  213.7120  147.8910 N   0  0  0  0  0  0  0  0  0  0  0  0
  159.3060  214.4510  147.4240 C   0  0  0  0  0  2  0  0  0  0  0  0
  158.2760  213.5110  146.8120 C   0  0  2  0  0  0  0  0  0  0  0  0
  157.0890  213.3070  147.7210 C   0  0  0  0  0  2  0  0  0  0  0  0
  157.8680  213.9320  145.5330 O   0  0  0  0  0  0  0  0  0  0  0  0
  157.0400  214.3180  146.6000 C   0  0  2  0  0  3  0  0  0  0  0  0
  1  6  1  0  0  0  0
  2 31  1  1  0  0  0
  2  6  1  0  0  0  0
  2  5  1  0  0  0  0
  3  7  1  1  0  0  0
  3 14  1  0  0  0  0
  4  1  1  6  0  0  0
  4  5  1  0  0  0  0
  4  7  1  0  0  0  0
  4  3  1  0  0  0  0
  5  3  1  0  0  0  0
  6  5  1  0  0  0  0
  7 20  1  0  0  0  0
  8 12  1  0  0  0  0
  8 11  2  0  0  0  0
  9 17  2  0  0  0  0
 11 13  1  0  0  0  0
 12 15  1  0  0  0  0
 13 16  1  0  0  0  0
 13 10  2  0  0  0  0
 14 11  1  0  0  0  0
 14  9  1  0  0  0  0
 15 16  1  0  0  0  0
 17 10  1  0  0  0  0
 19 20  1  0  0  0  0
 20 18  1  0  0  0  0
 21 20  1  0  0  0  0
 22 21  1  0  0  0  0
 23 24  2  0  0  0  0
 23 22  1  0  0  0  0
 25 26  2  0  0  0  0
 26 23  1  0  0  0  0
 27 26  1  0  0  0  0
 28 29  1  0  0  0  0
 28 27  1  0  0  0  0
 30 28  1  0  0  0  0
 30 29  1  0  0  0  0
 34 35  1  0  0  0  0
 34 38  1  0  0  0  0
 35 36  1  0  0  0  0
 36 31  1  0  0  0  0
 36 32  1  0  0  0  0
 37 32  1  0  0  0  0
 37 33  1  0  0  0  0
 38 37  1  0  0  0  0
 39 38  1  0  0  0  0
 40 39  1  0  0  0  0
 40 41  1  0  0  0  0
 42 43  1  0  0  0  0
 42 40  1  0  0  0  0
 43 40  1  0  0  0  0
 43 41  1  0  0  0  0
M  END
>  <MODEL>
2

>  <REMARK>
 VINA RESULT:      -7.2      1.678      2.235
  Name = 
  12 active torsions:
  status: ('A' for Active; 'I' for Inactive)
    1  A    between atoms: C_1  and  C_12
    2  A    between atoms: C_1  and  N_35
    3  A    between atoms: C_4  and  C_30
    4  A    between atoms: C_5  and  C_25
    5  A    between atoms: C_5  and  C_43
    6  A    between atoms: C_10  and  C_13
    7  A    between atoms: C_10  and  N_39
    8  A    between atoms: N_16  and  C_24
    9  A    between atoms: N_16  and  C_43
   10  A    between atoms: C_24  and  N_41
   11  A    between atoms: C_25  and  C_30
   12  A    between atoms: C_26  and  C_28
                            x       y       z     vdW  Elec       q    Type
                         _______ _______ _______ _____ _____    ______ ____

>  <TORSDO>
F 12

$$$$
=
 OpenBabel11072413373D

 43 52  0  0  1  0  0  0  0  0999 V2000
  160.7840  207.3620  150.4400 C   0  0  0  0  0  2  0  0  0  0  0  0
  162.2370  209.2100  149.8890 C   0  0  1  0  0  3  0  0  0  0  0  0
  162.1020  207.6520  152.4690 C   0  0  2  0  0  0  0  0  0  0  0  0
  162.1670  207.1800  151.0410 C   0  0  2  0  0  0  0  0  0  0  0  0
  162.3210  208.6550  151.3100 C   0  0  2  0  0  0  0  0  0  0  0  0
  160.9690  208.8560  150.5940 C   0  0  2  0  0  3  0  0  0  0  0  0
  162.4550  206.2430  152.1500 N   0  0  0  0  0  0  0  0  0  0  0  0
  160.7710  210.3610  153.0920 C   0  0  0  0  0  3  0  0  0  0  0  0
  160.8200  206.8900  154.5020 C   0  0  0  0  0  3  0  0  0  0  0  0
  159.7780  208.4740  155.9870 N   0  0  0  0  0  0  0  0  0  0  0  0
  160.5430  209.2700  153.8340 C   0  0  0  0  0  0  0  0  0  0  0  0
  160.5130  211.7520  153.6050 C   0  0  0  0  0  2  0  0  0  0  0  0
  159.8640  209.4560  155.1420 C   0  0  0  0  0  0  0  0  0  0  0  0
  160.7900  207.8440  153.3200 C   0  0  1  0  0  3  0  0  0  0  0  0
  159.2500  211.7800  154.4630 C   0  0  0  0  0  2  0  0  0  0  0  0
  159.3250  210.7370  155.4800 N   0  0  0  0  0  2  0  0  0  0  0  0
  160.3190  207.1800  155.7040 C   0  0  0  0  0  3  0  0  0  0  0  0
  161.3990  204.6130  153.4630 O   0  0  0  0  0  1  0  0  0  0  0  0
  160.2810  205.5050  151.7080 O   0  0  0  0  0  1  0  0  0  0  0  0
  161.5330  205.0660  152.1450 C   0  0  0  0  0  0  0  0  0  0  0  0
  161.9690  203.9570  151.2890 N   0  0  0  0  0  2  0  0  0  0  0  0
  160.8260  203.2850  150.6850 C   0  0  0  0  0  2  0  0  0  0  0  0
  161.0550  203.1240  149.2210 C   0  0  0  0  0  0  0  0  0  0  0  0
  161.2770  204.2180  148.4970 C   0  0  0  0  0  2  0  0  0  0  0  0
  161.4120  200.7380  149.1120 N   0  0  0  0  0  2  0  0  0  0  0  0
  160.8960  201.7970  148.5740 C   0  0  0  0  0  0  0  0  0  0  0  0
  160.0300  201.6360  147.3650 C   0  0  0  0  0  2  0  0  0  0  0  0
  160.8860  201.5420  146.1130 C   0  0  0  0  0  3  0  0  0  0  0  0
  159.9850  201.3520  144.9090 C   0  0  0  0  0  2  0  0  0  0  0  0
  160.5720  202.7180  145.2050 C   0  0  0  0  0  2  0  0  0  0  0  0
  162.4680  210.7140  149.9340 C   0  0  0  0  0  2  0  0  0  0  0  0
  160.8870  212.2530  149.1660 C   0  0  0  0  0  2  0  0  0  0  0  0
  159.3350  213.8950  148.4170 O   0  0  0  0  0  1  0  0  0  0  0  0
  162.4870  212.8910  146.9310 C   0  0  0  0  0  2  0  0  0  0  0  0
  163.0210  212.1420  148.1470 C   0  0  0  0  0  2  0  0  0  0  0  0
  161.9450  211.3450  148.7310 N   0  0  0  0  0  0  0  0  0  0  0  0
  160.3410  213.0360  147.9700 C   0  0  1  0  0  3  0  0  0  0  0  0
  161.4170  213.8090  147.3370 N   0  0  0  0  0  0  0  0  0  0  0  0
  160.8740  214.3910  146.1120 C   0  0  0  0  0  2  0  0  0  0  0  0
  161.0050  213.4240  144.9440 C   0  0  2  0  0  0  0  0  0  0  0  0
  159.6640  212.8930  144.4990 C   0  0  0  0  0  2  0  0  0  0  0  0
  161.7100  213.9860  143.8650 O   0  0  0  0  0  0  0  0  0  0  0  0
  160.3100  214.0590  143.7880 C   0  0  2  0  0  3  0  0  0  0  0  0
  1  6  1  0  0  0  0
  2 31  1  1  0  0  0
  2  6  1  0  0  0  0
  2  5  1  0  0  0  0
  3  7  1  1  0  0  0
  3 14  1  0  0  0  0
  4  1  1  6  0  0  0
  4  5  1  0  0  0  0
  4  7  1  0  0  0  0
  4  3  1  0  0  0  0
  5  3  1  0  0  0  0
  6  5  1  0  0  0  0
  8 12  1  0  0  0  0
  8 11  2  0  0  0  0
  9 17  2  0  0  0  0
 11 13  1  0  0  0  0
 12 15  1  0  0  0  0
 13 16  1  0  0  0  0
 13 10  2  0  0  0  0
 14 11  1  0  0  0  0
 14  9  1  0  0  0  0
 15 16  1  0  0  0  0
 17 10  1  0  0  0  0
 19 20  1  0  0  0  0
 20  7  1  0  0  0  0
 20 18  1  0  0  0  0
 21 20  1  0  0  0  0
 22 21  1  0  0  0  0
 23 22  1  0  0  0  0
 24 23  2  0  0  0  0
 26 25  2  0  0  0  0
 26 23  1  0  0  0  0
 27 26  1  0  0  0  0
 28 27  1  0  0  0  0
 29 30  1  0  0  0  0
 29 28  1  0  0  0  0
 30 28  1  0  0  0  0
 34 38  1  0  0  0  0
 34 35  1  0  0  0  0
 35 36  1  0  0  0  0
 36 32  1  0  0  0  0
 36 31  1  0  0  0  0
 37 33  1  0  0  0  0
 37 32  1  0  0  0  0
 38 37  1  0  0  0  0
 39 38  1  0  0  0  0
 40 39  1  0  0  0  0
 41 40  1  0  0  0  0
 42 40  1  0  0  0  0
 43 42  1  0  0  0  0
 43 41  1  0  0  0  0
 43 40  1  0  0  0  0
M  END
>  <MODEL>
3

>  <REMARK>
 VINA RESULT:      -7.1      1.313      1.660
  Name = 
  12 active torsions:
  status: ('A' for Active; 'I' for Inactive)
    1  A    between atoms: C_1  and  C_12
    2  A    between atoms: C_1  and  N_35
    3  A    between atoms: C_4  and  C_30
    4  A    between atoms: C_5  and  C_25
    5  A    between atoms: C_5  and  C_43
    6  A    between atoms: C_10  and  C_13
    7  A    between atoms: C_10  and  N_39
    8  A    between atoms: N_16  and  C_24
    9  A    between atoms: N_16  and  C_43
   10  A    between atoms: C_24  and  N_41
   11  A    between atoms: C_25  and  C_30
   12  A    between atoms: C_26  and  C_28
                            x       y       z     vdW  Elec       q    Type
                         _______ _______ _______ _____ _____    ______ ____

>  <TORSDO>
F 12

$$$$
=
 OpenBabel11072413373D

 43 52  0  0  1  0  0  0  0  0999 V2000
  162.5060  206.3370  153.2490 C   0  0  0  0  0  2  0  0  0  0  0  0
  161.3060  208.0570  154.4460 C   0  0  1  0  0  3  0  0  0  0  0  0
  160.6810  206.8950  151.7340 C   0  0  2  0  0  0  0  0  0  0  0  0
  161.0060  206.2180  153.0380 C   0  0  2  0  0  0  0  0  0  0  0  0
  160.8160  207.7140  153.0400 C   0  0  2  0  0  0  0  0  0  0  0  0
  162.3190  207.8340  153.3710 C   0  0  2  0  0  3  0  0  0  0  0  0
  160.3990  205.4470  151.9300 N   0  0  0  0  0  0  0  0  0  0  0  0
  161.5860  209.7330  150.9440 C   0  0  0  0  0  3  0  0  0  0  0  0
  161.4470  206.3210  149.4010 C   0  0  0  0  0  3  0  0  0  0  0  0
  161.9390  208.0430  147.7900 N   0  0  0  0  0  0  0  0  0  0  0  0
  161.6990  208.6920  150.1080 C   0  0  0  0  0  0  0  0  0  0  0  0
  161.5910  211.1580  150.4610 C   0  0  0  0  0  2  0  0  0  0  0  0
  161.9980  208.9830  148.6820 C   0  0  0  0  0  0  0  0  0  0  0  0
  161.7070  207.2340  150.5870 C   0  0  1  0  0  3  0  0  0  0  0  0
  162.5810  211.3300  149.3110 C   0  0  0  0  0  2  0  0  0  0  0  0
  162.3270  210.3190  148.2900 N   0  0  0  0  0  2  0  0  0  0  0  0
  161.5930  206.6960  148.1290 C   0  0  0  0  0  3  0  0  0  0  0  0
  162.5850  204.6050  151.8390 O   0  0  0  0  0  1  0  0  0  0  0  0
  160.8740  203.1790  152.2440 O   0  0  0  0  0  1  0  0  0  0  0  0
  161.2600  204.3010  151.5060 C   0  0  0  0  0  0  0  0  0  0  0  0
  161.1760  203.9760  150.0770 N   0  0  0  0  0  2  0  0  0  0  0  0
  160.1800  202.9400  149.8370 C   0  0  0  0  0  2  0  0  0  0  0  0
  160.7310  201.9240  148.8950 C   0  0  0  0  0  0  0  0  0  0  0  0
  161.2060  200.7910  149.4030 C   0  0  0  0  0  2  0  0  0  0  0  0
  160.6030  201.3410  146.5550 N   0  0  0  0  0  2  0  0  0  0  0  0
  160.8760  202.2360  147.4500 C   0  0  0  0  0  0  0  0  0  0  0  0
  161.2110  203.6220  146.9980 C   0  0  0  0  0  2  0  0  0  0  0  0
  161.9120  203.5810  145.6500 C   0  0  0  0  0  3  0  0  0  0  0  0
  161.5630  204.8340  144.8720 C   0  0  0  0  0  2  0  0  0  0  0  0
  162.9050  204.7270  145.5700 C   0  0  0  0  0  2  0  0  0  0  0  0
  161.1060  209.5470  154.6860 C   0  0  0  0  0  2  0  0  0  0  0  0
  159.2620  210.4470  155.8040 C   0  0  0  0  0  2  0  0  0  0  0  0
  157.4260  211.4550  156.9330 O   0  0  0  0  0  1  0  0  0  0  0  0
  158.1930  211.4410  153.3880 C   0  0  0  0  0  2  0  0  0  0  0  0
  159.6380  210.9730  153.5260 C   0  0  0  0  0  2  0  0  0  0  0  0
  159.7060  209.9070  154.5210 N   0  0  0  0  0  0  0  0  0  0  0  0
  157.8190  210.9430  155.6940 C   0  0  1  0  0  3  0  0  0  0  0  0
  157.7180  211.9850  154.6650 N   0  0  0  0  0  0  0  0  0  0  0  0
  156.3000  212.2910  154.4910 C   0  0  0  0  0  2  0  0  0  0  0  0
  156.0810  213.7890  154.3310 C   0  0  2  0  0  0  0  0  0  0  0  0
  156.2680  214.2360  152.9020 C   0  0  0  0  0  2  0  0  0  0  0  0
  154.8310  214.1990  154.8300 O   0  0  0  0  0  0  0  0  0  0  0  0
  154.8890  213.9510  153.4500 C   0  0  2  0  0  3  0  0  0  0  0  0
  1  6  1  0  0  0  0
  2 31  1  6  0  0  0
  3  7  1  6  0  0  0
  3  4  1  0  0  0  0
  3  5  1  0  0  0  0
  4  5  1  0  0  0  0
  4  1  1  1  0  0  0
  5  6  1  0  0  0  0
  5  2  1  0  0  0  0
  6  2  1  0  0  0  0
  7  4  1  0  0  0  0
  9 14  1  0  0  0  0
 10 17  1  0  0  0  0
 10 13  2  0  0  0  0
 11 14  1  0  0  0  0
 11  8  2  0  0  0  0
 12  8  1  0  0  0  0
 13 11  1  0  0  0  0
 14  3  1  0  0  0  0
 15 12  1  0  0  0  0
 16 13  1  0  0  0  0
 16 15  1  0  0  0  0
 17  9  2  0  0  0  0
 20 18  1  0  0  0  0
 20  7  1  0  0  0  0
 20 19  1  0  0  0  0
 21 20  1  0  0  0  0
 22 21  1  0  0  0  0
 23 24  2  0  0  0  0
 23 22  1  0  0  0  0
 25 26  2  0  0  0  0
 26 23  1  0  0  0  0
 27 26  1  0  0  0  0
 28 27  1  0  0  0  0
 29 30  1  0  0  0  0
 29 28  1  0  0  0  0
 30 28  1  0  0  0  0
 34 35  1  0  0  0  0
 34 38  1  0  0  0  0
 35 36  1  0  0  0  0
 36 31  1  0  0  0  0
 36 32  1  0  0  0  0
 37 32  1  0  0  0  0
 37 33  1  0  0  0  0
 38 37  1  0  0  0  0
 39 38  1  0  0  0  0
 40 39  1  0  0  0  0
 40 42  1  0  0  0  0
 41 43  1  0  0  0  0
 41 40  1  0  0  0  0
 43 40  1  0  0  0  0
 43 42  1  0  0  0  0
M  END
>  <MODEL>
4

>  <REMARK>
 VINA RESULT:      -5.8      3.348      6.340
  Name = 
  12 active torsions:
  status: ('A' for Active; 'I' for Inactive)
    1  A    between atoms: C_1  and  C_12
    2  A    between atoms: C_1  and  N_35
    3  A    between atoms: C_4  and  C_30
    4  A    between atoms: C_5  and  C_25
    5  A    between atoms: C_5  and  C_43
    6  A    between atoms: C_10  and  C_13
    7  A    between atoms: C_10  and  N_39
    8  A    between atoms: N_16  and  C_24
    9  A    between atoms: N_16  and  C_43
   10  A    between atoms: C_24  and  N_41
   11  A    between atoms: C_25  and  C_30
   12  A    between atoms: C_26  and  C_28
                            x       y       z     vdW  Elec       q    Type
                         _______ _______ _______ _____ _____    ______ ____

>  <TORSDO>
F 12

$$$$
=
 OpenBabel11072413373D

 43 52  0  0  1  0  0  0  0  0999 V2000
  160.3210  211.9720  151.5820 C   0  0  0  0  0  2  0  0  0  0  0  0
  160.4740  209.5640  151.6900 C   0  0  1  0  0  3  0  0  0  0  0  0
  158.9530  211.4170  153.5210 C   0  0  2  0  0  0  0  0  0  0  0  0
  159.0050  211.3490  152.0180 C   0  0  2  0  0  0  0  0  0  0  0  0
  159.6980  210.2650  152.8040 C   0  0  2  0  0  0  0  0  0  0  0  0
  161.0320  210.8240  152.2660 C   0  0  2  0  0  3  0  0  0  0  0  0
  157.9300  212.1100  152.6930 N   0  0  0  0  0  0  0  0  0  0  0  0
  161.6420  210.6310  154.8060 C   0  0  0  0  0  3  0  0  0  0  0  0
  158.9190  213.1450  155.3570 C   0  0  0  0  0  3  0  0  0  0  0  0
  160.4590  213.0320  157.2060 N   0  0  0  0  0  0  0  0  0  0  0  0
  160.8970  211.6390  155.2770 C   0  0  0  0  0  0  0  0  0  0  0  0
  162.6910  209.9460  155.6390 C   0  0  0  0  0  2  0  0  0  0  0  0
  161.2450  212.1870  156.6130 C   0  0  0  0  0  0  0  0  0  0  0  0
  159.8310  212.3540  154.4350 C   0  0  1  0  0  3  0  0  0  0  0  0
  163.4190  210.9590  156.5200 C   0  0  0  0  0  2  0  0  0  0  0  0
  162.4460  211.7550  157.2600 N   0  0  0  0  0  2  0  0  0  0  0  0
  159.2370  213.4790  156.6090 C   0  0  0  0  0  3  0  0  0  0  0  0
  157.3550  214.2910  153.3360 O   0  0  0  0  0  1  0  0  0  0  0  0
  159.2540  213.9600  152.1480 O   0  0  0  0  0  1  0  0  0  0  0  0
  157.9260  213.5510  152.2930 C   0  0  0  0  0  0  0  0  0  0  0  0
  157.2070  213.8320  151.0440 N   0  0  0  0  0  2  0  0  0  0  0  0
  158.0900  214.4520  150.0640 C   0  0  0  0  0  2  0  0  0  0  0  0
  157.8700  213.8290  148.7280 C   0  0  0  0  0  0  0  0  0  0  0  0
  156.6280  213.5040  148.3850 C   0  0  0  0  0  2  0  0  0  0  0  0
  158.8780  213.3180  146.5930 N   0  0  0  0  0  2  0  0  0  0  0  0
  159.0250  213.4540  147.8720 C   0  0  0  0  0  0  0  0  0  0  0  0
  160.4020  213.3540  148.4490 C   0  0  0  0  0  2  0  0  0  0  0  0
  161.1630  212.2110  147.7990 C   0  0  0  0  0  3  0  0  0  0  0  0
  162.3650  212.7700  147.0660 C   0  0  0  0  0  2  0  0  0  0  0  0
  162.5450  212.1160  148.4210 C   0  0  0  0  0  2  0  0  0  0  0  0
  161.1870  208.3520  152.2750 C   0  0  0  0  0  2  0  0  0  0  0  0
  160.8550  206.3160  151.1790 C   0  0  0  0  0  2  0  0  0  0  0  0
  160.4390  204.2830  150.0140 O   0  0  0  0  0  1  0  0  0  0  0  0
  161.9870  207.3300  148.8000 C   0  0  0  0  0  2  0  0  0  0  0  0
  161.5360  208.2230  149.9520 C   0  0  0  0  0  2  0  0  0  0  0  0
  161.7040  207.5040  151.2120 N   0  0  0  0  0  0  0  0  0  0  0  0
  161.2690  205.4060  150.0210 C   0  0  1  0  0  3  0  0  0  0  0  0
  161.1530  206.1240  148.7450 N   0  0  0  0  0  0  0  0  0  0  0  0
  161.7210  205.2660  147.7080 C   0  0  0  0  0  2  0  0  0  0  0  0
  161.7200  205.9690  146.3580 C   0  0  2  0  0  0  0  0  0  0  0  0
  162.5770  205.2480  145.3460 C   0  0  0  0  0  2  0  0  0  0  0  0
  160.4180  206.1730  145.8660 O   0  0  0  0  0  0  0  0  0  0  0  0
  161.0820  205.0300  145.3910 C   0  0  2  0  0  3  0  0  0  0  0  0
  1  6  1  0  0  0  0
  2  6  1  0  0  0  0
  2 31  1  1  0  0  0
  2  5  1  0  0  0  0
  3  7  1  1  0  0  0
  3 14  1  0  0  0  0
  4  1  1  6  0  0  0
  4  7  1  0  0  0  0
  4  5  1  0  0  0  0
  4  3  1  0  0  0  0
  5  3  1  0  0  0  0
  6  5  1  0  0  0  0
  8 11  2  0  0  0  0
  8 12  1  0  0  0  0
  9 17  2  0  0  0  0
 11 13  1  0  0  0  0
 12 15  1  0  0  0  0
 13 10  2  0  0  0  0
 13 16  1  0  0  0  0
 14 11  1  0  0  0  0
 14  9  1  0  0  0  0
 15 16  1  0  0  0  0
 17 10  1  0  0  0  0
 19 20  1  0  0  0  0
 20  7  1  0  0  0  0
 20 18  1  0  0  0  0
 21 20  1  0  0  0  0
 22 21  1  0  0  0  0
 23 22  1  0  0  0  0
 24 23  2  0  0  0  0
 25 26  2  0  0  0  0
 26 27  1  0  0  0  0
 26 23  1  0  0  0  0
 28 30  1  0  0  0  0
 28 27  1  0  0  0  0
 29 28  1  0  0  0  0
 29 30  1  0  0  0  0
 32 36  1  0  0  0  0
 33 37  1  0  0  0  0
 34 35  1  0  0  0  0
 35 36  1  0  0  0  0
 36 31  1  0  0  0  0
 37 32  1  0  0  0  0
 38 34  1  0  0  0  0
 38 37  1  0  0  0  0
 39 38  1  0  0  0  0
 40 39  1  0  0  0  0
 41 43  1  0  0  0  0
 41 40  1  0  0  0  0
 42 40  1  0  0  0  0
 43 42  1  0  0  0  0
 43 40  1  0  0  0  0
M  END
>  <MODEL>
5

>  <REMARK>
 VINA RESULT:      -5.7      2.937      7.507
  Name = 
  12 active torsions:
  status: ('A' for Active; 'I' for Inactive)
    1  A    between atoms: C_1  and  C_12
    2  A    between atoms: C_1  and  N_35
    3  A    between atoms: C_4  and  C_30
    4  A    between atoms: C_5  and  C_25
    5  A    between atoms: C_5  and  C_43
    6  A    between atoms: C_10  and  C_13
    7  A    between atoms: C_10  and  N_39
    8  A    between atoms: N_16  and  C_24
    9  A    between atoms: N_16  and  C_43
   10  A    between atoms: C_24  and  N_41
   11  A    between atoms: C_25  and  C_30
   12  A    between atoms: C_26  and  C_28
                            x       y       z     vdW  Elec       q    Type
                         _______ _______ _______ _____ _____    ______ ____

>  <TORSDO>
F 12

$$$$
=
 OpenBabel11072413373D

 43 52  0  0  1  0  0  0  0  0999 V2000
  162.8230  207.3190  150.7770 C   0  0  0  0  0  2  0  0  0  0  0  0
  162.1290  209.3310  149.6380 C   0  0  1  0  0  3  0  0  0  0  0  0
  160.7750  206.6370  149.6480 C   0  0  2  0  0  0  0  0  0  0  0  0
  161.3110  207.4680  150.7820 C   0  0  2  0  0  0  0  0  0  0  0  0
  161.2960  208.0730  149.4010 C   0  0  2  0  0  0  0  0  0  0  0  0
  162.8380  208.0320  149.4420 C   0  0  2  0  0  3  0  0  0  0  0  0
  160.3850  206.3460  151.0530 N   0  0  0  0  0  0  0  0  0  0  0  0
  161.0790  206.3800  146.5910 C   0  0  0  0  0  3  0  0  0  0  0  0
  161.2540  204.1610  149.6060 C   0  0  0  0  0  3  0  0  0  0  0  0
  161.2080  202.9150  147.5450 N   0  0  0  0  0  0  0  0  0  0  0  0
  161.2280  205.3310  147.4110 C   0  0  0  0  0  0  0  0  0  0  0  0
  160.7810  206.2210  145.1250 C   0  0  0  0  0  2  0  0  0  0  0  0
  161.2520  203.9770  146.8000 C   0  0  0  0  0  0  0  0  0  0  0  0
  161.5440  205.4780  148.9060 C   0  0  1  0  0  3  0  0  0  0  0  0
  161.5410  205.0270  144.5510 C   0  0  0  0  0  2  0  0  0  0  0  0
  161.2980  203.8480  145.3760 N   0  0  0  0  0  2  0  0  0  0  0  0
  161.1400  202.9920  148.9730 C   0  0  0  0  0  3  0  0  0  0  0  0
  160.4960  204.0660  151.5900 O   0  0  0  0  0  1  0  0  0  0  0  0
  162.3710  205.3250  151.7450 O   0  0  0  0  0  1  0  0  0  0  0  0
  160.9910  205.3230  151.9590 C   0  0  0  0  0  0  0  0  0  0  0  0
  160.7350  205.5490  153.3870 N   0  0  0  0  0  2  0  0  0  0  0  0
  161.6530  206.5430  153.9280 C   0  0  0  0  0  2  0  0  0  0  0  0
  160.9100  207.4760  154.8220 C   0  0  0  0  0  0  0  0  0  0  0  0
  160.2220  206.9590  155.8350 C   0  0  0  0  0  2  0  0  0  0  0  0
  161.4630  209.4070  153.4800 N   0  0  0  0  0  2  0  0  0  0  0  0
  160.8270  208.9240  154.4990 C   0  0  0  0  0  0  0  0  0  0  0  0
  159.9070  209.8240  155.2620 C   0  0  0  0  0  2  0  0  0  0  0  0
  159.4470  210.9750  154.3820 C   0  0  0  0  0  3  0  0  0  0  0  0
  157.9640  211.1980  154.5930 C   0  0  0  0  0  2  0  0  0  0  0  0
  158.9680  212.1150  155.2630 C   0  0  0  0  0  2  0  0  0  0  0  0
  162.1580  210.1510  148.3550 C   0  0  0  0  0  2  0  0  0  0  0  0
  161.2840  212.1830  149.1070 C   0  0  0  0  0  2  0  0  0  0  0  0
  160.4540  214.3000  149.8080 O   0  0  0  0  0  1  0  0  0  0  0  0
  159.7010  212.4430  146.7840 C   0  0  0  0  0  2  0  0  0  0  0  0
  160.8630  211.4610  146.8920 C   0  0  0  0  0  2  0  0  0  0  0  0
  160.9910  211.0170  148.2770 N   0  0  0  0  0  0  0  0  0  0  0  0
  160.1440  213.1980  149.0070 C   0  0  1  0  0  3  0  0  0  0  0  0
  159.9650  213.6250  147.6130 N   0  0  0  0  0  0  0  0  0  0  0  0
  158.7630  214.4530  147.5610 C   0  0  0  0  0  2  0  0  0  0  0  0
  157.5220  213.6000  147.3410 C   0  0  2  0  0  0  0  0  0  0  0  0
  156.7790  213.3440  148.6290 C   0  0  0  0  0  2  0  0  0  0  0  0
  156.6690  214.1440  146.3640 O   0  0  0  0  0  0  0  0  0  0  0  0
  156.3520  214.4530  147.6960 C   0  0  2  0  0  3  0  0  0  0  0  0
  2 31  1  6  0  0  0
  3  4  1  0  0  0  0
  3  7  1  6  0  0  0
  4  1  1  1  0  0  0
  4  7  1  0  0  0  0
  5  6  1  0  0  0  0
  5  2  1  0  0  0  0
  5  3  1  0  0  0  0
  5  4  1  0  0  0  0
  6  2  1  0  0  0  0
  6  1  1  0  0  0  0
  7 20  1  0  0  0  0
  8 11  2  0  0  0  0
 10 17  1  0  0  0  0
 11 14  1  0  0  0  0
 12  8  1  0  0  0  0
 13 11  1  0  0  0  0
 13 10  2  0  0  0  0
 14  9  1  0  0  0  0
 14  3  1  0  0  0  0
 15 12  1  0  0  0  0
 15 16  1  0  0  0  0
 16 13  1  0  0  0  0
 17  9  2  0  0  0  0
 18 20  1  0  0  0  0
 19 20  1  0  0  0  0
 20 21  1  0  0  0  0
 21 22  1  0  0  0  0
 22 23  1  0  0  0  0
 23 24  2  0  0  0  0
 25 26  2  0  0  0  0
 26 23  1  0  0  0  0
 26 27  1  0  0  0  0
 28 29  1  0  0  0  0
 28 27  1  0  0  0  0
 28 30  1  0  0  0  0
 29 30  1  0  0  0  0
 34 35  1  0  0  0  0
 34 38  1  0  0  0  0
 35 36  1  0  0  0  0
 36 31  1  0  0  0  0
 36 32  1  0  0  0  0
 37 32  1  0  0  0  0
 37 33  1  0  0  0  0
 38 37  1  0  0  0  0
 39 38  1  0  0  0  0
 40 39  1  0  0  0  0
 40 43  1  0  0  0  0
 40 41  1  0  0  0  0
 42 40  1  0  0  0  0
 42 43  1  0  0  0  0
 43 41  1  0  0  0  0
M  END
>  <MODEL>
6

>  <REMARK>
 VINA RESULT:      -5.6      2.221      6.679
  Name = 
  12 active torsions:
  status: ('A' for Active; 'I' for Inactive)
    1  A    between atoms: C_1  and  C_12
    2  A    between atoms: C_1  and  N_35
    3  A    between atoms: C_4  and  C_30
    4  A    between atoms: C_5  and  C_25
    5  A    between atoms: C_5  and  C_43
    6  A    between atoms: C_10  and  C_13
    7  A    between atoms: C_10  and  N_39
    8  A    between atoms: N_16  and  C_24
    9  A    between atoms: N_16  and  C_43
   10  A    between atoms: C_24  and  N_41
   11  A    between atoms: C_25  and  C_30
   12  A    between atoms: C_26  and  C_28
                            x       y       z     vdW  Elec       q    Type
                         _______ _______ _______ _____ _____    ______ ____

>  <TORSDO>
F 12

$$$$
=
 OpenBabel11072413373D

 43 52  0  0  1  0  0  0  0  0999 V2000
  160.6780  211.2990  151.3810 C   0  0  0  0  0  2  0  0  0  0  0  0
  160.6140  208.9270  151.8300 C   0  0  1  0  0  3  0  0  0  0  0  0
  159.1280  211.1320  153.2540 C   0  0  2  0  0  0  0  0  0  0  0  0
  159.2850  210.8460  151.7850 C   0  0  2  0  0  0  0  0  0  0  0  0
  159.8210  209.8370  152.7670 C   0  0  2  0  0  0  0  0  0  0  0  0
  161.2350  210.2110  152.2740 C   0  0  2  0  0  3  0  0  0  0  0  0
  158.2330  211.7750  152.2550 N   0  0  0  0  0  0  0  0  0  0  0  0
  161.5790  210.3210  154.9370 C   0  0  0  0  0  3  0  0  0  0  0  0
  159.1120  213.1370  154.7840 C   0  0  0  0  0  3  0  0  0  0  0  0
  160.4490  213.1890  156.7870 N   0  0  0  0  0  0  0  0  0  0  0  0
  160.9100  211.4590  155.1600 C   0  0  0  0  0  0  0  0  0  0  0  0
  162.4630  209.6890  155.9790 C   0  0  0  0  0  2  0  0  0  0  0  0
  161.1890  212.1860  156.4250 C   0  0  0  0  0  0  0  0  0  0  0  0
  160.0140  212.1210  154.1030 C   0  0  1  0  0  3  0  0  0  0  0  0
  163.2120  210.7610  156.7660 C   0  0  0  0  0  2  0  0  0  0  0  0
  162.2670  211.7570  157.2610 N   0  0  0  0  0  2  0  0  0  0  0  0
  159.3450  213.6430  155.9960 C   0  0  0  0  0  3  0  0  0  0  0  0
  157.6780  214.0430  152.4690 O   0  0  0  0  0  1  0  0  0  0  0  0
  159.7370  213.4820  151.7120 O   0  0  0  0  0  1  0  0  0  0  0  0
  158.3830  213.1400  151.6640 C   0  0  0  0  0  0  0  0  0  0  0  0
  157.9170  213.2550  150.2770 N   0  0  0  0  0  2  0  0  0  0  0  0
  158.9440  213.8480  149.4300 C   0  0  0  0  0  2  0  0  0  0  0  0
  158.6140  213.6050  147.9970 C   0  0  0  0  0  0  0  0  0  0  0  0
  157.4080  213.1290  147.7040 C   0  0  0  0  0  2  0  0  0  0  0  0
  159.3200  213.8750  145.7030 N   0  0  0  0  0  2  0  0  0  0  0  0
  159.6550  213.7530  146.9480 C   0  0  0  0  0  0  0  0  0  0  0  0
  161.0980  213.8950  147.3190 C   0  0  0  0  0  2  0  0  0  0  0  0
  161.8160  212.5650  147.1590 C   0  0  0  0  0  3  0  0  0  0  0  0
  163.2790  212.7470  147.5110 C   0  0  0  0  0  2  0  0  0  0  0  0
  162.3330  212.1130  148.5130 C   0  0  0  0  0  2  0  0  0  0  0  0
  161.1740  207.7610  152.6330 C   0  0  0  0  0  2  0  0  0  0  0  0
  161.2490  205.4450  152.3360 C   0  0  0  0  0  2  0  0  0  0  0  0
  161.2300  203.0890  152.0050 O   0  0  0  0  0  1  0  0  0  0  0  0
  161.3830  205.7370  149.5320 C   0  0  0  0  0  2  0  0  0  0  0  0
  160.9680  206.8690  150.4650 C   0  0  0  0  0  2  0  0  0  0  0  0
  161.6580  206.7160  151.7440 N   0  0  0  0  0  0  0  0  0  0  0  0
  161.6350  204.2870  151.4130 C   0  0  1  0  0  3  0  0  0  0  0  0
  160.9890  204.4450  150.1040 N   0  0  0  0  0  0  0  0  0  0  0  0
  161.5290  203.4120  149.2240 C   0  0  0  0  0  2  0  0  0  0  0  0
  160.4210  202.5070  148.7020 C   0  0  2  0  0  0  0  0  0  0  0  0
  160.8310  201.7840  147.4420 C   0  0  0  0  0  2  0  0  0  0  0  0
  159.9690  201.6030  149.6800 O   0  0  0  0  0  0  0  0  0  0  0  0
  160.9370  201.1110  148.7910 C   0  0  2  0  0  3  0  0  0  0  0  0
  1  6  1  0  0  0  0
  2  6  1  0  0  0  0
  2 31  1  1  0  0  0
  2  5  1  0  0  0  0
  3  7  1  1  0  0  0
  3 14  1  0  0  0  0
  4  1  1  6  0  0  0
  4  7  1  0  0  0  0
  4  5  1  0  0  0  0
  4  3  1  0  0  0  0
  5  3  1  0  0  0  0
  6  5  1  0  0  0  0
  8 11  2  0  0  0  0
  8 12  1  0  0  0  0
  9 17  2  0  0  0  0
 11 13  1  0  0  0  0
 12 15  1  0  0  0  0
 13 10  2  0  0  0  0
 13 16  1  0  0  0  0
 14  9  1  0  0  0  0
 14 11  1  0  0  0  0
 15 16  1  0  0  0  0
 17 10  1  0  0  0  0
 20 19  1  0  0  0  0
 20  7  1  0  0  0  0
 20 18  1  0  0  0  0
 21 20  1  0  0  0  0
 22 21  1  0  0  0  0
 23 22  1  0  0  0  0
 24 23  2  0  0  0  0
 25 26  2  0  0  0  0
 26 27  1  0  0  0  0
 26 23  1  0  0  0  0
 28 27  1  0  0  0  0
 28 29  1  0  0  0  0
 28 30  1  0  0  0  0
 29 30  1  0  0  0  0
 34 38  1  0  0  0  0
 34 35  1  0  0  0  0
 35 36  1  0  0  0  0
 36 32  1  0  0  0  0
 36 31  1  0  0  0  0
 37 33  1  0  0  0  0
 37 32  1  0  0  0  0
 38 37  1  0  0  0  0
 39 38  1  0  0  0  0
 40 43  1  0  0  0  0
 40 39  1  0  0  0  0
 40 42  1  0  0  0  0
 41 40  1  0  0  0  0
 41 43  1  0  0  0  0
 43 42  1  0  0  0  0
M  END
>  <MODEL>
7

>  <REMARK>
 VINA RESULT:      -5.5      2.794      8.313
  Name = 
  12 active torsions:
  status: ('A' for Active; 'I' for Inactive)
    1  A    between atoms: C_1  and  C_12
    2  A    between atoms: C_1  and  N_35
    3  A    between atoms: C_4  and  C_30
    4  A    between atoms: C_5  and  C_25
    5  A    between atoms: C_5  and  C_43
    6  A    between atoms: C_10  and  C_13
    7  A    between atoms: C_10  and  N_39
    8  A    between atoms: N_16  and  C_24
    9  A    between atoms: N_16  and  C_43
   10  A    between atoms: C_24  and  N_41
   11  A    between atoms: C_25  and  C_30
   12  A    between atoms: C_26  and  C_28
                            x       y       z     vdW  Elec       q    Type
                         _______ _______ _______ _____ _____    ______ ____

>  <TORSDO>
F 12

$$$$
=
 OpenBabel11072413373D

 43 52  0  0  1  0  0  0  0  0999 V2000
  160.4330  208.5850  152.9710 C   0  0  0  0  0  2  0  0  0  0  0  0
  162.0180  208.0870  151.2190 C   0  0  1  0  0  3  0  0  0  0  0  0
  161.6330  210.6880  152.6970 C   0  0  2  0  0  0  0  0  0  0  0  0
  161.7630  209.2790  153.2100 C   0  0  2  0  0  0  0  0  0  0  0  0
  161.9800  209.5240  151.7380 C   0  0  2  0  0  0  0  0  0  0  0  0
  160.6900  208.7160  151.4850 C   0  0  2  0  0  3  0  0  0  0  0  0
  161.9280  210.4260  154.1310 N   0  0  0  0  0  0  0  0  0  0  0  0
  160.8950  212.0640  150.0390 C   0  0  0  0  0  3  0  0  0  0  0  0
  159.8900  212.2450  153.6450 C   0  0  0  0  0  3  0  0  0  0  0  0
  159.0220  214.0820  152.3510 N   0  0  0  0  0  0  0  0  0  0  0  0
  160.2970  212.3830  151.1950 C   0  0  0  0  0  0  0  0  0  0  0  0
  160.8930  212.9870  148.8500 C   0  0  0  0  0  2  0  0  0  0  0  0
  159.4750  213.6190  151.2270 C   0  0  0  0  0  0  0  0  0  0  0  0
  160.2820  211.4470  152.4120 C   0  0  1  0  0  3  0  0  0  0  0  0
  159.5490  213.7020  148.7310 C   0  0  0  0  0  2  0  0  0  0  0  0
  159.2060  214.3190  150.0080 N   0  0  0  0  0  2  0  0  0  0  0  0
  159.2810  213.4310  153.6000 C   0  0  0  0  0  3  0  0  0  0  0  0
  159.6830  210.0920  154.7240 O   0  0  0  0  0  1  0  0  0  0  0  0
  161.3100  209.3470  156.1110 O   0  0  0  0  0  1  0  0  0  0  0  0
  160.9440  210.3890  155.2560 C   0  0  0  0  0  0  0  0  0  0  0  0
  160.8650  211.6320  156.0340 N   0  0  0  0  0  2  0  0  0  0  0  0
  159.7850  211.5660  157.0110 C   0  0  0  0  0  2  0  0  0  0  0  0
  159.1140  212.8930  157.1060 C   0  0  0  0  0  0  0  0  0  0  0  0
  159.8770  213.9710  157.2610 C   0  0  0  0  0  2  0  0  0  0  0  0
  157.0500  214.1410  157.2310 N   0  0  0  0  0  2  0  0  0  0  0  0
  157.6330  212.9870  157.1710 C   0  0  0  0  0  0  0  0  0  0  0  0
  156.7850  211.7610  157.0380 C   0  0  0  0  0  2  0  0  0  0  0  0
  155.8240  211.9120  155.8700 C   0  0  0  0  0  3  0  0  0  0  0  0
  156.4840  211.3820  154.6130 C   0  0  0  0  0  2  0  0  0  0  0  0
  155.4610  210.5350  155.3440 C   0  0  0  0  0  2  0  0  0  0  0  0
  162.3270  208.1110  149.7280 C   0  0  0  0  0  2  0  0  0  0  0  0
  162.4880  206.6910  147.8810 C   0  0  0  0  0  2  0  0  0  0  0  0
  162.7260  205.1940  146.0460 O   0  0  0  0  0  1  0  0  0  0  0  0
  161.1240  204.6350  149.2520 C   0  0  0  0  0  2  0  0  0  0  0  0
  161.7190  205.8500  149.9560 C   0  0  0  0  0  2  0  0  0  0  0  0
  161.6760  206.9980  149.0550 N   0  0  0  0  0  0  0  0  0  0  0  0
  161.9270  205.4630  147.1600 C   0  0  1  0  0  3  0  0  0  0  0  0
  161.9180  204.3050  148.0630 N   0  0  0  0  0  0  0  0  0  0  0  0
  161.2190  203.2220  147.3770 C   0  0  0  0  0  2  0  0  0  0  0  0
  161.2180  201.9530  148.2190 C   0  0  2  0  0  0  0  0  0  0  0  0
  160.0140  201.8800  149.1260 C   0  0  0  0  0  2  0  0  0  0  0  0
  161.3310  200.7930  147.4320 O   0  0  0  0  0  0  0  0  0  0  0  0
  160.0270  201.1640  147.7950 C   0  0  2  0  0  3  0  0  0  0  0  0
  2 31  1  6  0  0  0
  2  6  1  0  0  0  0
  2  5  1  0  0  0  0
  3  4  1  0  0  0  0
  3  7  1  1  0  0  0
  4  1  1  1  0  0  0
  4  7  1  0  0  0  0
  5  3  1  0  0  0  0
  5  4  1  0  0  0  0
  6  5  1  0  0  0  0
  6  1  1  0  0  0  0
  7 20  1  0  0  0  0
  8 11  2  0  0  0  0
 10 17  1  0  0  0  0
 11 13  1  0  0  0  0
 11 14  1  0  0  0  0
 12  8  1  0  0  0  0
 13 10  2  0  0  0  0
 14  3  1  0  0  0  0
 14  9  1  0  0  0  0
 15 12  1  0  0  0  0
 15 16  1  0  0  0  0
 16 13  1  0  0  0  0
 17  9  2  0  0  0  0
 18 20  1  0  0  0  0
 20 21  1  0  0  0  0
 20 19  1  0  0  0  0
 21 22  1  0  0  0  0
 22 23  1  0  0  0  0
 23 26  1  0  0  0  0
 23 24  2  0  0  0  0
 26 25  2  0  0  0  0
 27 26  1  0  0  0  0
 28 27  1  0  0  0  0
 29 30  1  0  0  0  0
 29 28  1  0  0  0  0
 30 28  1  0  0  0  0
 32 36  1  0  0  0  0
 33 37  1  0  0  0  0
 34 35  1  0  0  0  0
 36 31  1  0  0  0  0
 36 35  1  0  0  0  0
 37 32  1  0  0  0  0
 37 38  1  0  0  0  0
 38 34  1  0  0  0  0
 39 38  1  0  0  0  0
 39 40  1  0  0  0  0
 40 41  1  0  0  0  0
 42 43  1  0  0  0  0
 42 40  1  0  0  0  0
 43 40  1  0  0  0  0
 43 41  1  0  0  0  0
M  END
>  <MODEL>
8

>  <REMARK>
 VINA RESULT:      -5.3      3.358      8.876
  Name = 
  12 active torsions:
  status: ('A' for Active; 'I' for Inactive)
    1  A    between atoms: C_1  and  C_12
    2  A    between atoms: C_1  and  N_35
    3  A    between atoms: C_4  and  C_30
    4  A    between atoms: C_5  and  C_25
    5  A    between atoms: C_5  and  C_43
    6  A    between atoms: C_10  and  C_13
    7  A    between atoms: C_10  and  N_39
    8  A    between atoms: N_16  and  C_24
    9  A    between atoms: N_16  and  C_43
   10  A    between atoms: C_24  and  N_41
   11  A    between atoms: C_25  and  C_30
   12  A    between atoms: C_26  and  C_28
                            x       y       z     vdW  Elec       q    Type
                         _______ _______ _______ _____ _____    ______ ____

>  <TORSDO>
F 12

$$$$
=
 OpenBabel11072413373D

 43 52  0  0  1  0  0  0  0  0999 V2000
  159.8060  207.9570  154.2810 C   0  0  0  0  0  2  0  0  0  0  0  0
  161.8170  206.9220  153.4350 C   0  0  1  0  0  3  0  0  0  0  0  0
  161.3580  209.8270  154.1010 C   0  0  2  0  0  0  0  0  0  0  0  0
  161.0520  208.5810  154.8880 C   0  0  2  0  0  0  0  0  0  0  0  0
  161.8320  208.4400  153.6060 C   0  0  2  0  0  0  0  0  0  0  0  0
  160.6090  207.6990  153.0250 C   0  0  2  0  0  3  0  0  0  0  0  0
  161.0560  209.9020  155.5550 N   0  0  0  0  0  0  0  0  0  0  0  0
  161.7800  210.3410  151.0910 C   0  0  0  0  0  3  0  0  0  0  0  0
  159.7850  211.7900  153.9130 C   0  0  0  0  0  3  0  0  0  0  0  0
  159.7680  213.1930  151.9550 N   0  0  0  0  0  0  0  0  0  0  0  0
  160.9400  211.0800  151.8270 C   0  0  0  0  0  0  0  0  0  0  0  0
  162.3380  210.8220  149.7790 C   0  0  0  0  0  2  0  0  0  0  0  0
  160.4330  212.3440  151.2330 C   0  0  0  0  0  0  0  0  0  0  0  0
  160.3540  210.5980  153.1620 C   0  0  1  0  0  3  0  0  0  0  0  0
  161.2810  211.6040  149.0030 C   0  0  0  0  0  2  0  0  0  0  0  0
  160.7060  212.6350  149.8590 N   0  0  0  0  0  2  0  0  0  0  0  0
  159.4880  212.9570  153.3390 C   0  0  0  0  0  3  0  0  0  0  0  0
  158.7330  209.9610  155.2410 O   0  0  0  0  0  1  0  0  0  0  0  0
  159.5550  209.3500  157.2610 O   0  0  0  0  0  1  0  0  0  0  0  0
  159.7370  210.2200  156.1830 C   0  0  0  0  0  0  0  0  0  0  0  0
  159.6100  211.6010  156.6630 N   0  0  0  0  0  2  0  0  0  0  0  0
  158.2750  211.8470  157.1930 C   0  0  0  0  0  2  0  0  0  0  0  0
  157.7970  213.1850  156.7450 C   0  0  0  0  0  0  0  0  0  0  0  0
  158.6300  214.2160  156.8520 C   0  0  0  0  0  2  0  0  0  0  0  0
  155.4180  212.8790  157.0280 N   0  0  0  0  0  2  0  0  0  0  0  0
  156.3840  213.3810  156.3280 C   0  0  0  0  0  0  0  0  0  0  0  0
  156.0460  214.2670  155.1710 C   0  0  0  0  0  2  0  0  0  0  0  0
  155.8190  213.4350  153.9200 C   0  0  0  0  0  3  0  0  0  0  0  0
  154.6210  213.9830  153.1710 C   0  0  0  0  0  2  0  0  0  0  0  0
  156.0230  214.3110  152.6960 C   0  0  0  0  0  2  0  0  0  0  0  0
  162.6510  206.5550  152.2150 C   0  0  0  0  0  2  0  0  0  0  0  0
  162.4330  207.2000  149.9800 C   0  0  0  0  0  2  0  0  0  0  0  0
  162.2830  207.7910  147.6800 O   0  0  0  0  0  1  0  0  0  0  0  0
  161.0170  204.8380  149.3630 C   0  0  0  0  0  2  0  0  0  0  0  0
  161.8240  205.0110  150.6450 C   0  0  0  0  0  2  0  0  0  0  0  0
  161.8040  206.4170  151.0410 N   0  0  0  0  0  0  0  0  0  0  0  0
  161.6570  207.0330  148.6730 C   0  0  1  0  0  3  0  0  0  0  0  0
  161.6230  205.6180  148.2800 N   0  0  0  0  0  0  0  0  0  0  0  0
  160.7310  205.5060  147.1290 C   0  0  0  0  0  2  0  0  0  0  0  0
  161.4830  205.0090  145.9020 C   0  0  2  0  0  0  0  0  0  0  0  0
  161.0640  203.6120  145.5130 C   0  0  0  0  0  2  0  0  0  0  0  0
  161.3690  205.8930  144.8140 O   0  0  0  0  0  0  0  0  0  0  0  0
  160.4650  204.8190  144.8290 C   0  0  2  0  0  3  0  0  0  0  0  0
  2 31  1  6  0  0  0
  2  5  1  0  0  0  0
  3  4  1  0  0  0  0
  3  7  1  1  0  0  0
  4  1  1  6  0  0  0
  4  7  1  0  0  0  0
  5  3  1  0  0  0  0
  5  4  1  0  0  0  0
  6  2  1  0  0  0  0
  6  5  1  0  0  0  0
  6  1  1  0  0  0  0
  7 20  1  0  0  0  0
  8 11  2  0  0  0  0
 10 17  1  0  0  0  0
 11 14  1  0  0  0  0
 12  8  1  0  0  0  0
 13 11  1  0  0  0  0
 13 10  2  0  0  0  0
 14  9  1  0  0  0  0
 14  3  1  0  0  0  0
 15 12  1  0  0  0  0
 15 16  1  0  0  0  0
 16 13  1  0  0  0  0
 17  9  2  0  0  0  0
 18 20  1  0  0  0  0
 20 21  1  0  0  0  0
 20 19  1  0  0  0  0
 21 22  1  0  0  0  0
 23 24  2  0  0  0  0
 23 22  1  0  0  0  0
 26 23  1  0  0  0  0
 26 25  2  0  0  0  0
 27 26  1  0  0  0  0
 28 27  1  0  0  0  0
 29 28  1  0  0  0  0
 30 29  1  0  0  0  0
 30 28  1  0  0  0  0
 32 36  1  0  0  0  0
 33 37  1  0  0  0  0
 34 35  1  0  0  0  0
 35 36  1  0  0  0  0
 36 31  1  0  0  0  0
 37 32  1  0  0  0  0
 38 37  1  0  0  0  0
 38 34  1  0  0  0  0
 39 38  1  0  0  0  0
 40 39  1  0  0  0  0
 41 40  1  0  0  0  0
 42 43  1  0  0  0  0
 42 40  1  0  0  0  0
 43 41  1  0  0  0  0
 43 40  1  0  0  0  0
M  END
>  <MODEL>
9

>  <REMARK>
 VINA RESULT:      -4.8      3.119      8.386
  Name = 
  12 active torsions:
  status: ('A' for Active; 'I' for Inactive)
    1  A    between atoms: C_1  and  C_12
    2  A    between atoms: C_1  and  N_35
    3  A    between atoms: C_4  and  C_30
    4  A    between atoms: C_5  and  C_25
    5  A    between atoms: C_5  and  C_43
    6  A    between atoms: C_10  and  C_13
    7  A    between atoms: C_10  and  N_39
    8  A    between atoms: N_16  and  C_24
    9  A    between atoms: N_16  and  C_43
   10  A    between atoms: C_24  and  N_41
   11  A    between atoms: C_25  and  C_30
   12  A    between atoms: C_26  and  C_28
                            x       y       z     vdW  Elec       q    Type
                         _______ _______ _______ _____ _____    ______ ____

>  <TORSDO>
F 12

$$$$
