=
 OpenBabel11072414123D

 28 33  0  0  1  0  0  0  0  0999 V2000
  160.9070  208.9730  155.0220 O   0  0  0  0  0  0  0  0  0  0  0  0
  161.9200  207.7920  151.1880 C   0  0  2  0  0  3  0  0  0  0  0  0
  161.3500  206.8450  152.2070 C   0  0  0  0  0  3  0  0  0  0  0  0
  161.5060  209.7200  152.8160 C   0  0  1  0  0  3  0  0  0  0  0  0
  161.1080  208.6610  153.8180 C   0  0  0  0  0  0  0  0  0  0  0  0
  161.3910  209.2290  151.3520 C   0  0  1  0  0  3  0  0  0  0  0  0
  161.0080  207.2490  153.4280 C   0  0  0  0  0  3  0  0  0  0  0  0
  161.6860  207.2660  149.8030 C   0  0  0  0  0  0  0  0  0  0  0  0
  160.2720  206.0610  148.2450 C   0  0  0  0  0  3  0  0  0  0  0  0
  161.2390  206.2110  147.2470 C   0  0  0  0  0  3  0  0  0  0  0  0
  162.4330  206.8860  147.5230 C   0  0  0  0  0  3  0  0  0  0  0  0
  160.4940  206.5880  149.5210 C   0  0  0  0  0  3  0  0  0  0  0  0
  162.6570  207.4100  148.7990 C   0  0  0  0  0  3  0  0  0  0  0  0
  160.8970  211.5400  154.4940 C   0  0  0  0  0  1  0  0  0  0  0  0
  160.7310  211.0240  153.0730 C   0  0  0  0  0  3  0  0  0  0  0  0
  159.2590  210.8900  152.7250 C   0  0  0  0  0  1  0  0  0  0  0  0
  161.5730  210.6940  149.5000 C   0  0  0  0  0  3  0  0  0  0  0  0
  162.1380  210.1160  150.4930 N   0  0  0  0  0  0  0  0  0  0  0  0
  162.0790  212.8910  148.8070 C   0  0  2  0  0  3  0  0  0  0  0  0
  158.4360  214.4520  148.8290 C   0  0  0  0  0  3  0  0  0  0  0  0
  160.2400  212.8090  147.5440 C   0  0  0  0  0  0  0  0  0  0  0  0
  159.0430  212.9910  146.8950 C   0  0  0  0  0  0  0  0  0  0  0  0
  161.4790  212.3130  147.6780 N   0  0  0  0  0  4  0  0  0  0  0  0
  162.3750  211.5820  148.6070 C   0  0  2  0  0  3  0  0  0  0  0  0
  158.1250  213.8310  147.5740 C   0  0  0  0  0  2  0  0  0  0  0  0
  160.5750  213.4550  148.8300 C   0  0  1  0  0  0  0  0  0  0  0  0
  159.6840  214.2820  149.4850 C   0  0  0  0  0  3  0  0  0  0  0  0
  158.6790  212.2510  145.3510 Cl  0  0  0  0  0  0  0  0  0  0  0  0
  2  8  1  6  0  0  0
  2  6  1  0  0  0  0
  2  3  1  0  0  0  0
  3  7  2  0  0  0  0
  4 15  1  6  0  0  0
  4  5  1  0  0  0  0
  5  1  2  0  0  0  0
  6 18  1  6  0  0  0
  6  4  1  0  0  0  0
  7  5  1  0  0  0  0
  9 12  2  0  0  0  0
 10 11  2  0  0  0  0
 10  9  1  0  0  0  0
 11 13  1  0  0  0  0
 12  8  1  0  0  0  0
 13  8  2  0  0  0  0
 15 14  1  0  0  0  0
 16 15  1  0  0  0  0
 17 18  2  0  0  0  0
 19 23  1  6  0  0  0
 19 26  1  0  0  0  0
 20 27  2  0  0  0  0
 21 23  1  0  0  0  0
 21 26  1  0  0  0  0
 22 21  2  0  0  0  0
 22 25  1  0  0  0  0
 23 24  1  0  0  0  0
 23 26  1  0  0  0  0
 24 19  1  0  0  0  0
 24 17  1  1  0  0  0
 25 20  1  0  0  0  0
 26 27  1  1  0  0  0
 28 22  1  0  0  0  0
M  END
>  <MODEL>
1

>  <REMARK>
 VINA RESULT:      -7.4      0.000      0.000
  Name = 
  4 active torsions:
  status: ('A' for Active; 'I' for Inactive)
    1  A    between atoms: C_4  and  C_11
    2  A    between atoms: C_5  and  C_19
    3  A    between atoms: C_8  and  C_17
    4  A    between atoms: N_12  and  C_21
                            x       y       z     vdW  Elec       q    Type
                         _______ _______ _______ _____ _____    ______ ____

>  <TORSDO>
F 4

$$$$
=
 OpenBabel11072414123D

 28 33  0  0  1  0  0  0  0  0999 V2000
  161.3220  206.7350  153.2780 O   0  0  0  0  0  0  0  0  0  0  0  0
  162.0170  206.3850  149.2150 C   0  0  2  0  0  3  0  0  0  0  0  0
  161.4610  205.2620  150.0440 C   0  0  0  0  0  3  0  0  0  0  0  0
  161.8200  207.9230  151.2470 C   0  0  1  0  0  3  0  0  0  0  0  0
  161.4270  206.6880  152.0240 C   0  0  0  0  0  0  0  0  0  0  0  0
  161.5840  207.7720  149.7250 C   0  0  1  0  0  3  0  0  0  0  0  0
  161.2210  205.4020  151.3450 C   0  0  0  0  0  3  0  0  0  0  0  0
  161.6650  206.1860  147.7700 C   0  0  0  0  0  0  0  0  0  0  0  0
  160.0150  206.2870  145.9970 C   0  0  0  0  0  3  0  0  0  0  0  0
  160.9490  205.7690  145.0950 C   0  0  0  0  0  3  0  0  0  0  0  0
  162.2420  205.4550  145.5260 C   0  0  0  0  0  3  0  0  0  0  0  0
  160.3730  206.4960  147.3330 C   0  0  0  0  0  3  0  0  0  0  0  0
  162.5990  205.6620  146.8610 C   0  0  0  0  0  3  0  0  0  0  0  0
  162.1340  210.1920  152.3690 C   0  0  0  0  0  1  0  0  0  0  0  0
  161.1390  209.1710  151.8380 C   0  0  0  0  0  3  0  0  0  0  0  0
  160.1240  208.8110  152.9080 C   0  0  0  0  0  1  0  0  0  0  0  0
  161.8260  209.9610  148.8540 C   0  0  0  0  0  3  0  0  0  0  0  0
  162.3240  208.7930  149.0250 N   0  0  0  0  0  0  0  0  0  0  0  0
  162.3990  212.2350  148.6040 C   0  0  2  0  0  3  0  0  0  0  0  0
  158.8700  213.8940  149.3200 C   0  0  0  0  0  3  0  0  0  0  0  0
  160.4540  212.5040  147.5400 C   0  0  0  0  0  0  0  0  0  0  0  0
  159.2180  212.8710  147.0670 C   0  0  0  0  0  0  0  0  0  0  0  0
  161.6680  211.9440  147.4420 N   0  0  0  0  0  4  0  0  0  0  0  0
  162.5970  210.9910  148.0990 C   0  0  2  0  0  3  0  0  0  0  0  0
  158.4140  213.5760  147.9970 C   0  0  0  0  0  2  0  0  0  0  0  0
  160.9380  212.8380  148.8960 C   0  0  1  0  0  0  0  0  0  0  0  0
  160.1590  213.5350  149.7980 C   0  0  0  0  0  3  0  0  0  0  0  0
  158.6770  212.5030  145.4430 Cl  0  0  0  0  0  0  0  0  0  0  0  0
  2  8  1  6  0  0  0
  2  6  1  0  0  0  0
  2  3  1  0  0  0  0
  3  7  2  0  0  0  0
  4 15  1  1  0  0  0
  4  5  1  0  0  0  0
  5  1  2  0  0  0  0
  6 18  1  6  0  0  0
  6  4  1  0  0  0  0
  7  5  1  0  0  0  0
  9 12  2  0  0  0  0
 10 11  2  0  0  0  0
 10  9  1  0  0  0  0
 11 13  1  0  0  0  0
 12  8  1  0  0  0  0
 13  8  2  0  0  0  0
 15 14  1  0  0  0  0
 15 16  1  0  0  0  0
 17 18  2  0  0  0  0
 19 23  1  6  0  0  0
 19 26  1  0  0  0  0
 20 27  2  0  0  0  0
 21 26  1  0  0  0  0
 22 21  2  0  0  0  0
 22 25  1  0  0  0  0
 23 21  1  0  0  0  0
 23 24  1  0  0  0  0
 23 26  1  0  0  0  0
 24 19  1  0  0  0  0
 24 17  1  1  0  0  0
 25 20  1  0  0  0  0
 26 27  1  1  0  0  0
 28 22  1  0  0  0  0
M  END
>  <MODEL>
2

>  <REMARK>
 VINA RESULT:      -7.1      1.278      1.957
  Name = 
  4 active torsions:
  status: ('A' for Active; 'I' for Inactive)
    1  A    between atoms: C_4  and  C_11
    2  A    between atoms: C_5  and  C_19
    3  A    between atoms: C_8  and  C_17
    4  A    between atoms: N_12  and  C_21
                            x       y       z     vdW  Elec       q    Type
                         _______ _______ _______ _____ _____    ______ ____

>  <TORSDO>
F 4

$$$$
=
 OpenBabel11072414123D

 28 33  0  0  1  0  0  0  0  0999 V2000
  161.1720  205.3080  150.6240 O   0  0  0  0  0  0  0  0  0  0  0  0
  160.9690  208.0590  153.7080 C   0  0  2  0  0  3  0  0  0  0  0  0
  161.2180  206.5950  153.9390 C   0  0  0  0  0  3  0  0  0  0  0  0
  161.1500  207.6450  151.1910 C   0  0  1  0  0  3  0  0  0  0  0  0
  161.2260  206.1750  151.5360 C   0  0  0  0  0  0  0  0  0  0  0  0
  161.5560  208.5580  152.3740 C   0  0  1  0  0  3  0  0  0  0  0  0
  161.3040  205.7290  152.9330 C   0  0  0  0  0  3  0  0  0  0  0  0
  161.4710  208.8600  154.8720 C   0  0  0  0  0  0  0  0  0  0  0  0
  161.4730  209.2890  157.2580 C   0  0  0  0  0  3  0  0  0  0  0  0
  162.3340  210.3740  157.0660 C   0  0  0  0  0  3  0  0  0  0  0  0
  162.7640  210.7070  155.7780 C   0  0  0  0  0  3  0  0  0  0  0  0
  161.0420  208.5330  156.1630 C   0  0  0  0  0  3  0  0  0  0  0  0
  162.3330  209.9540  154.6820 C   0  0  0  0  0  3  0  0  0  0  0  0
  162.3250  209.4060  149.7690 C   0  0  0  0  0  1  0  0  0  0  0  0
  161.9440  207.9390  149.9060 C   0  0  0  0  0  3  0  0  0  0  0  0
  161.2150  207.4610  148.6640 C   0  0  0  0  0  1  0  0  0  0  0  0
  159.9100  210.2580  152.4490 C   0  0  0  0  0  3  0  0  0  0  0  0
  161.0950  209.9000  152.1180 N   0  0  0  0  0  0  0  0  0  0  0  0
  159.6550  212.4820  153.1900 C   0  0  2  0  0  3  0  0  0  0  0  0
  158.5570  211.8140  156.9390 C   0  0  0  0  0  3  0  0  0  0  0  0
  157.8280  211.8040  154.2790 C   0  0  0  0  0  0  0  0  0  0  0  0
  156.8240  211.5040  155.1660 C   0  0  0  0  0  0  0  0  0  0  0  0
  158.3370  212.0210  153.0570 N   0  0  0  0  0  4  0  0  0  0  0  0
  159.4440  211.6430  152.1440 C   0  0  2  0  0  3  0  0  0  0  0  0
  157.2180  211.5050  156.5280 C   0  0  0  0  0  2  0  0  0  0  0  0
  159.2070  212.1380  154.6930 C   0  0  1  0  0  0  0  0  0  0  0  0
  159.5870  212.1490  156.0210 C   0  0  0  0  0  3  0  0  0  0  0  0
  155.1850  211.1530  154.6600 Cl  0  0  0  0  0  0  0  0  0  0  0  0
  1  5  2  0  0  0  0
  2  3  1  0  0  0  0
  2  8  1  1  0  0  0
  4 15  1  6  0  0  0
  4  5  1  0  0  0  0
  4  6  1  0  0  0  0
  5  7  1  0  0  0  0
  6 18  1  6  0  0  0
  6  2  1  0  0  0  0
  7  3  2  0  0  0  0
  8 12  1  0  0  0  0
 10  9  1  0  0  0  0
 11 10  2  0  0  0  0
 12  9  2  0  0  0  0
 13  8  2  0  0  0  0
 13 11  1  0  0  0  0
 14 15  1  0  0  0  0
 16 15  1  0  0  0  0
 18 17  2  0  0  0  0
 19 23  1  6  0  0  0
 19 26  1  0  0  0  0
 21 26  1  0  0  0  0
 21 22  2  0  0  0  0
 22 25  1  0  0  0  0
 23 21  1  0  0  0  0
 23 26  1  0  0  0  0
 24 17  1  1  0  0  0
 24 23  1  0  0  0  0
 24 19  1  0  0  0  0
 25 20  1  0  0  0  0
 26 27  1  1  0  0  0
 27 20  2  0  0  0  0
 28 22  1  0  0  0  0
M  END
>  <MODEL>
3

>  <REMARK>
 VINA RESULT:      -6.1      3.470      6.351
  Name = 
  4 active torsions:
  status: ('A' for Active; 'I' for Inactive)
    1  A    between atoms: C_4  and  C_11
    2  A    between atoms: C_5  and  C_19
    3  A    between atoms: C_8  and  C_17
    4  A    between atoms: N_12  and  C_21
                            x       y       z     vdW  Elec       q    Type
                         _______ _______ _______ _____ _____    ______ ____

>  <TORSDO>
F 4

$$$$
=
 OpenBabel11072414123D

 28 33  0  0  1  0  0  0  0  0999 V2000
  161.1530  209.4230  151.8880 O   0  0  0  0  0  0  0  0  0  0  0  0
  161.7260  205.4200  151.0120 C   0  0  2  0  0  3  0  0  0  0  0  0
  160.9620  205.8870  152.2200 C   0  0  0  0  0  3  0  0  0  0  0  0
  161.8620  207.8460  150.2160 C   0  0  1  0  0  3  0  0  0  0  0  0
  161.2350  208.2150  151.5410 C   0  0  0  0  0  0  0  0  0  0  0  0
  161.5860  206.3770  149.8130 C   0  0  1  0  0  3  0  0  0  0  0  0
  160.7680  207.1790  152.4710 C   0  0  0  0  0  3  0  0  0  0  0  0
  161.3280  204.0190  150.6570 C   0  0  0  0  0  0  0  0  0  0  0  0
  160.2040  202.4950  149.1430 C   0  0  0  0  0  3  0  0  0  0  0  0
  160.5090  201.4240  149.9900 C   0  0  0  0  0  3  0  0  0  0  0  0
  161.2220  201.6470  151.1730 C   0  0  0  0  0  3  0  0  0  0  0  0
  160.6130  203.7900  149.4760 C   0  0  0  0  0  3  0  0  0  0  0  0
  161.6290  202.9420  151.5070 C   0  0  0  0  0  3  0  0  0  0  0  0
  161.4580  208.2500  147.7310 C   0  0  0  0  0  1  0  0  0  0  0  0
  161.4510  208.8540  149.1270 C   0  0  0  0  0  3  0  0  0  0  0  0
  162.3000  210.1120  149.1670 C   0  0  0  0  0  1  0  0  0  0  0  0
  162.0880  205.4550  147.6910 C   0  0  0  0  0  3  0  0  0  0  0  0
  162.5100  205.9870  148.7770 N   0  0  0  0  0  0  0  0  0  0  0  0
  162.5030  205.0110  145.4120 C   0  0  2  0  0  3  0  0  0  0  0  0
  159.1080  203.2030  144.4560 C   0  0  0  0  0  3  0  0  0  0  0  0
  161.5470  203.0190  145.7300 C   0  0  0  0  0  0  0  0  0  0  0  0
  160.8020  201.8650  145.7120 C   0  0  0  0  0  0  0  0  0  0  0  0
  162.6270  203.7550  146.0260 N   0  0  0  0  0  4  0  0  0  0  0  0
  163.0660  205.0300  146.6470 C   0  0  2  0  0  3  0  0  0  0  0  0
  159.5490  201.9800  145.0610 C   0  0  0  0  0  2  0  0  0  0  0  0
  161.1080  204.2800  145.0980 C   0  0  1  0  0  0  0  0  0  0  0  0
  159.8900  204.3890  144.4540 C   0  0  0  0  0  3  0  0  0  0  0  0
  161.3580  200.3680  146.4290 Cl  0  0  0  0  0  0  0  0  0  0  0  0
  2  8  1  6  0  0  0
  2  3  1  0  0  0  0
  3  7  2  0  0  0  0
  4 15  1  6  0  0  0
  4  5  1  0  0  0  0
  5  1  2  0  0  0  0
  5  7  1  0  0  0  0
  6 18  1  6  0  0  0
  6  4  1  0  0  0  0
  6  2  1  0  0  0  0
  8 13  1  0  0  0  0
  9 12  1  0  0  0  0
  9 10  2  0  0  0  0
 10 11  1  0  0  0  0
 11 13  2  0  0  0  0
 12  8  2  0  0  0  0
 14 15  1  0  0  0  0
 15 16  1  0  0  0  0
 17 18  2  0  0  0  0
 19 23  1  6  0  0  0
 19 24  1  0  0  0  0
 20 25  1  0  0  0  0
 21 23  1  0  0  0  0
 22 21  2  0  0  0  0
 22 28  1  0  0  0  0
 23 24  1  0  0  0  0
 24 17  1  1  0  0  0
 25 22  1  0  0  0  0
 26 27  1  1  0  0  0
 26 19  1  0  0  0  0
 26 21  1  0  0  0  0
 26 23  1  0  0  0  0
 27 20  2  0  0  0  0
M  END
>  <MODEL>
4

>  <REMARK>
 VINA RESULT:      -5.7      4.081      7.130
  Name = 
  4 active torsions:
  status: ('A' for Active; 'I' for Inactive)
    1  A    between atoms: C_4  and  C_11
    2  A    between atoms: C_5  and  C_19
    3  A    between atoms: C_8  and  C_17
    4  A    between atoms: N_12  and  C_21
                            x       y       z     vdW  Elec       q    Type
                         _______ _______ _______ _____ _____    ______ ____

>  <TORSDO>
F 4

$$$$
=
 OpenBabel11072414123D

 28 33  0  0  1  0  0  0  0  0999 V2000
  159.9770  208.9000  156.5950 O   0  0  0  0  0  0  0  0  0  0  0  0
  161.4300  208.6890  152.7280 C   0  0  2  0  0  3  0  0  0  0  0  0
  161.1570  207.4690  153.5610 C   0  0  0  0  0  3  0  0  0  0  0  0
  160.3780  210.1230  154.5640 C   0  0  1  0  0  3  0  0  0  0  0  0
  160.3040  208.8530  155.3800 C   0  0  0  0  0  0  0  0  0  0  0  0
  160.4700  209.8510  153.0430 C   0  0  1  0  0  3  0  0  0  0  0  0
  160.6670  207.5560  154.7950 C   0  0  0  0  0  3  0  0  0  0  0  0
  161.4180  208.3350  151.2700 C   0  0  0  0  0  0  0  0  0  0  0  0
  160.8740  206.7510  149.5180 C   0  0  0  0  0  3  0  0  0  0  0  0
  161.4340  207.6070  148.5650 C   0  0  0  0  0  3  0  0  0  0  0  0
  161.9900  208.8280  148.9610 C   0  0  0  0  0  3  0  0  0  0  0  0
  160.8650  207.1140  150.8680 C   0  0  0  0  0  3  0  0  0  0  0  0
  161.9840  209.1910  150.3110 C   0  0  0  0  0  3  0  0  0  0  0  0
  158.1160  211.0900  153.8910 C   0  0  0  0  0  1  0  0  0  0  0  0
  159.2220  211.0700  154.9350 C   0  0  0  0  0  3  0  0  0  0  0  0
  159.7110  212.4790  155.2190 C   0  0  0  0  0  1  0  0  0  0  0  0
  160.1160  211.7520  151.6750 C   0  0  0  0  0  3  0  0  0  0  0  0
  160.9250  211.0450  152.3730 N   0  0  0  0  0  0  0  0  0  0  0  0
  159.8680  214.0590  151.2520 C   0  0  2  0  0  3  0  0  0  0  0  0
  155.9170  214.2700  151.0110 C   0  0  0  0  0  3  0  0  0  0  0  0
  158.2720  213.5160  149.7880 C   0  0  0  0  0  0  0  0  0  0  0  0
  157.1370  213.3610  149.0290 C   0  0  0  0  0  0  0  0  0  0  0  0
  159.5920  213.4600  150.0140 N   0  0  0  0  0  4  0  0  0  0  0  0
  160.6180  212.9650  150.9650 C   0  0  2  0  0  3  0  0  0  0  0  0
  155.9360  213.7460  149.6760 C   0  0  0  0  0  2  0  0  0  0  0  0
  158.2640  214.0690  151.1590 C   0  0  1  0  0  0  0  0  0  0  0  0
  157.0940  214.4530  151.7840 C   0  0  0  0  0  3  0  0  0  0  0  0
  157.1700  212.7440  147.3920 Cl  0  0  0  0  0  0  0  0  0  0  0  0
  2  8  1  6  0  0  0
  2  6  1  0  0  0  0
  2  3  1  0  0  0  0
  3  7  2  0  0  0  0
  4 15  1  6  0  0  0
  4  5  1  0  0  0  0
  5  1  2  0  0  0  0
  6 18  1  6  0  0  0
  6  4  1  0  0  0  0
  7  5  1  0  0  0  0
  9 12  2  0  0  0  0
 10 11  2  0  0  0  0
 10  9  1  0  0  0  0
 11 13  1  0  0  0  0
 12  8  1  0  0  0  0
 13  8  2  0  0  0  0
 14 15  1  0  0  0  0
 15 16  1  0  0  0  0
 17 18  2  0  0  0  0
 19 23  1  6  0  0  0
 20 27  2  0  0  0  0
 21 23  1  0  0  0  0
 21 26  1  0  0  0  0
 22 25  1  0  0  0  0
 22 21  2  0  0  0  0
 23 24  1  0  0  0  0
 23 26  1  0  0  0  0
 24 19  1  0  0  0  0
 24 17  1  1  0  0  0
 25 20  1  0  0  0  0
 26 19  1  0  0  0  0
 26 27  1  1  0  0  0
 28 22  1  0  0  0  0
M  END
>  <MODEL>
5

>  <REMARK>
 VINA RESULT:      -5.4      1.909      2.566
  Name = 
  4 active torsions:
  status: ('A' for Active; 'I' for Inactive)
    1  A    between atoms: C_4  and  C_11
    2  A    between atoms: C_5  and  C_19
    3  A    between atoms: C_8  and  C_17
    4  A    between atoms: N_12  and  C_21
                            x       y       z     vdW  Elec       q    Type
                         _______ _______ _______ _____ _____    ______ ____

>  <TORSDO>
F 4

$$$$
=
 OpenBabel11072414123D

 28 33  0  0  1  0  0  0  0  0999 V2000
  161.1590  202.6260  152.4160 O   0  0  0  0  0  0  0  0  0  0  0  0
  161.6330  204.3650  148.6920 C   0  0  2  0  0  3  0  0  0  0  0  0
  161.1340  202.9590  148.8750 C   0  0  0  0  0  3  0  0  0  0  0  0
  161.5330  204.6830  151.2270 C   0  0  1  0  0  3  0  0  0  0  0  0
  161.1960  203.2110  151.3010 C   0  0  0  0  0  0  0  0  0  0  0  0
  161.2140  205.2990  149.8430 C   0  0  1  0  0  3  0  0  0  0  0  0
  160.9660  202.4250  150.0820 C   0  0  0  0  0  3  0  0  0  0  0  0
  161.2040  204.8970  147.3570 C   0  0  0  0  0  0  0  0  0  0  0  0
  161.2240  204.7170  144.9400 C   0  0  0  0  0  3  0  0  0  0  0  0
  160.4770  205.8960  144.8420 C   0  0  0  0  0  3  0  0  0  0  0  0
  160.0920  206.5790  146.0000 C   0  0  0  0  0  3  0  0  0  0  0  0
  161.5870  204.2190  146.1940 C   0  0  0  0  0  3  0  0  0  0  0  0
  160.4570  206.0830  147.2550 C   0  0  0  0  0  3  0  0  0  0  0  0
  161.8650  205.8560  153.4660 C   0  0  0  0  0  1  0  0  0  0  0  0
  160.8730  205.4460  152.3890 C   0  0  0  0  0  3  0  0  0  0  0  0
  159.7190  204.6700  152.9970 C   0  0  0  0  0  1  0  0  0  0  0  0
  161.4280  207.6230  150.2450 C   0  0  0  0  0  3  0  0  0  0  0  0
  161.9040  206.5590  149.7140 N   0  0  0  0  0  0  0  0  0  0  0  0
  162.7060  209.3420  151.2300 C   0  0  2  0  0  3  0  0  0  0  0  0
  160.8470  209.6400  154.7180 C   0  0  0  0  0  3  0  0  0  0  0  0
  160.7910  210.1800  152.0150 C   0  0  0  0  0  0  0  0  0  0  0  0
  159.7410  210.6880  152.7390 C   0  0  0  0  0  0  0  0  0  0  0  0
  161.4990  209.9730  150.8940 N   0  0  0  0  0  4  0  0  0  0  0  0
  162.1430  208.9210  150.0700 C   0  0  2  0  0  3  0  0  0  0  0  0
  159.7820  210.3940  154.1250 C   0  0  0  0  0  2  0  0  0  0  0  0
  161.9010  209.4140  152.6190 C   0  0  1  0  0  0  0  0  0  0  0  0
  161.9450  209.1370  153.9710 C   0  0  0  0  0  3  0  0  0  0  0  0
  158.4560  211.6300  152.0130 Cl  0  0  0  0  0  0  0  0  0  0  0  0
  2  8  1  6  0  0  0
  2  3  1  0  0  0  0
  2  6  1  0  0  0  0
  3  7  2  0  0  0  0
  4  5  1  0  0  0  0
  4 15  1  1  0  0  0
  5  1  2  0  0  0  0
  6 18  1  6  0  0  0
  6  4  1  0  0  0  0
  7  5  1  0  0  0  0
  9 12  1  0  0  0  0
 10  9  2  0  0  0  0
 10 11  1  0  0  0  0
 11 13  2  0  0  0  0
 12  8  2  0  0  0  0
 13  8  1  0  0  0  0
 15 16  1  0  0  0  0
 15 14  1  0  0  0  0
 18 17  2  0  0  0  0
 19 23  1  6  0  0  0
 19 26  1  0  0  0  0
 21 26  1  0  0  0  0
 21 22  2  0  0  0  0
 22 25  1  0  0  0  0
 23 21  1  0  0  0  0
 23 26  1  0  0  0  0
 24 17  1  1  0  0  0
 24 23  1  0  0  0  0
 24 19  1  0  0  0  0
 25 20  1  0  0  0  0
 26 27  1  6  0  0  0
 27 20  2  0  0  0  0
 28 22  1  0  0  0  0
M  END
>  <MODEL>
6

>  <REMARK>
 VINA RESULT:      -5.2      3.488      5.223
  Name = 
  4 active torsions:
  status: ('A' for Active; 'I' for Inactive)
    1  A    between atoms: C_4  and  C_11
    2  A    between atoms: C_5  and  C_19
    3  A    between atoms: C_8  and  C_17
    4  A    between atoms: N_12  and  C_21
                            x       y       z     vdW  Elec       q    Type
                         _______ _______ _______ _____ _____    ______ ____

>  <TORSDO>
F 4

$$$$
=
 OpenBabel11072414123D

 28 33  0  0  1  0  0  0  0  0999 V2000
  162.3890  209.2760  151.5710 O   0  0  0  0  0  0  0  0  0  0  0  0
  161.0000  206.9170  148.4700 C   0  0  2  0  0  3  0  0  0  0  0  0
  161.8610  208.1280  148.2470 C   0  0  0  0  0  3  0  0  0  0  0  0
  161.3490  207.1880  150.9880 C   0  0  1  0  0  3  0  0  0  0  0  0
  162.0580  208.4800  150.6530 C   0  0  0  0  0  0  0  0  0  0  0  0
  161.3140  206.2000  149.7970 C   0  0  1  0  0  3  0  0  0  0  0  0
  162.3180  208.8610  149.2590 C   0  0  0  0  0  3  0  0  0  0  0  0
  161.0990  205.9870  147.2970 C   0  0  0  0  0  0  0  0  0  0  0  0
  162.2170  204.1410  146.1930 C   0  0  0  0  0  3  0  0  0  0  0  0
  161.3590  204.2740  145.0960 C   0  0  0  0  0  3  0  0  0  0  0  0
  160.3710  205.2630  145.0950 C   0  0  0  0  0  3  0  0  0  0  0  0
  162.0870  204.9960  147.2910 C   0  0  0  0  0  3  0  0  0  0  0  0
  160.2420  206.1200  146.1920 C   0  0  0  0  0  3  0  0  0  0  0  0
  163.0470  205.5630  151.9780 C   0  0  0  0  0  1  0  0  0  0  0  0
  161.9390  206.5650  152.2660 C   0  0  0  0  0  3  0  0  0  0  0  0
  160.8680  205.9370  153.1390 C   0  0  0  0  0  1  0  0  0  0  0  0
  160.6200  203.9470  150.0220 C   0  0  0  0  0  3  0  0  0  0  0  0
  160.3140  205.1910  150.0450 N   0  0  0  0  0  0  0  0  0  0  0  0
  160.0650  201.6620  150.1960 C   0  0  2  0  0  3  0  0  0  0  0  0
  162.3180  200.2050  147.2780 C   0  0  0  0  0  3  0  0  0  0  0  0
  160.0400  201.6010  147.9640 C   0  0  0  0  0  0  0  0  0  0  0  0
  160.1980  201.3530  146.6230 C   0  0  0  0  0  0  0  0  0  0  0  0
  159.3950  202.0820  149.0370 N   0  0  0  0  0  4  0  0  0  0  0  0
  159.5610  202.9210  150.2500 C   0  0  2  0  0  3  0  0  0  0  0  0
  161.3770  200.6420  146.2870 C   0  0  0  0  0  2  0  0  0  0  0  0
  160.9960  201.1420  148.9940 C   0  0  1  0  0  0  0  0  0  0  0  0
  162.1390  200.4400  148.6670 C   0  0  0  0  0  3  0  0  0  0  0  0
  159.0340  201.8670  145.4210 Cl  0  0  0  0  0  0  0  0  0  0  0  0
  2  8  1  6  0  0  0
  2  6  1  0  0  0  0
  3  2  1  0  0  0  0
  3  7  2  0  0  0  0
  4 15  1  1  0  0  0
  5  4  1  0  0  0  0
  5  1  2  0  0  0  0
  6 18  1  1  0  0  0
  6  4  1  0  0  0  0
  7  5  1  0  0  0  0
  9 12  2  0  0  0  0
 10  9  1  0  0  0  0
 11 10  2  0  0  0  0
 11 13  1  0  0  0  0
 12  8  1  0  0  0  0
 13  8  2  0  0  0  0
 14 15  1  0  0  0  0
 15 16  1  0  0  0  0
 17 18  2  0  0  0  0
 19 23  1  6  0  0  0
 19 24  1  0  0  0  0
 20 27  2  0  0  0  0
 21 26  1  0  0  0  0
 21 23  1  0  0  0  0
 22 21  2  0  0  0  0
 23 24  1  0  0  0  0
 24 17  1  6  0  0  0
 25 22  1  0  0  0  0
 25 20  1  0  0  0  0
 26 27  1  6  0  0  0
 26 23  1  0  0  0  0
 26 19  1  0  0  0  0
 28 22  1  0  0  0  0
M  END
>  <MODEL>
7

>  <REMARK>
 VINA RESULT:      -5.2      4.342      7.988
  Name = 
  4 active torsions:
  status: ('A' for Active; 'I' for Inactive)
    1  A    between atoms: C_4  and  C_11
    2  A    between atoms: C_5  and  C_19
    3  A    between atoms: C_8  and  C_17
    4  A    between atoms: N_12  and  C_21
                            x       y       z     vdW  Elec       q    Type
                         _______ _______ _______ _____ _____    ______ ____

>  <TORSDO>
F 4

$$$$
=
 OpenBabel11072414123D

 28 33  0  0  1  0  0  0  0  0999 V2000
  161.5490  209.8050  148.9680 O   0  0  0  0  0  0  0  0  0  0  0  0
  160.7060  205.9190  150.1120 C   0  0  2  0  0  3  0  0  0  0  0  0
  161.0870  206.2880  148.7060 C   0  0  0  0  0  3  0  0  0  0  0  0
  161.2080  208.3210  150.8300 C   0  0  1  0  0  3  0  0  0  0  0  0
  161.4070  208.6170  149.3610 C   0  0  0  0  0  0  0  0  0  0  0  0
  161.3780  206.8200  151.1660 C   0  0  1  0  0  3  0  0  0  0  0  0
  161.3780  207.5400  148.3630 C   0  0  0  0  0  3  0  0  0  0  0  0
  160.9850  204.4670  150.3610 C   0  0  0  0  0  0  0  0  0  0  0  0
  161.0560  202.1890  149.5330 C   0  0  0  0  0  3  0  0  0  0  0  0
  161.4330  201.7370  150.8010 C   0  0  0  0  0  3  0  0  0  0  0  0
  161.5860  202.6460  151.8530 C   0  0  0  0  0  3  0  0  0  0  0  0
  160.8320  203.5520  149.3130 C   0  0  0  0  0  3  0  0  0  0  0  0
  161.3610  204.0080  151.6340 C   0  0  0  0  0  3  0  0  0  0  0  0
  161.3620  210.4480  152.2290 C   0  0  0  0  0  1  0  0  0  0  0  0
  162.1020  209.2330  151.6890 C   0  0  0  0  0  3  0  0  0  0  0  0
  163.3570  209.6590  150.9500 C   0  0  0  0  0  1  0  0  0  0  0  0
  161.3480  207.0130  153.5260 C   0  0  0  0  0  3  0  0  0  0  0  0
  160.8030  206.5540  152.4610 N   0  0  0  0  0  0  0  0  0  0  0  0
  159.7800  207.5830  155.1920 C   0  0  2  0  0  3  0  0  0  0  0  0
  160.1330  211.5300  155.1190 C   0  0  0  0  0  3  0  0  0  0  0  0
  161.2350  209.1240  155.8940 C   0  0  0  0  0  0  0  0  0  0  0  0
  161.9180  210.2440  156.3010 C   0  0  0  0  0  0  0  0  0  0  0  0
  161.0200  207.8030  155.8110 N   0  0  0  0  0  4  0  0  0  0  0  0
  160.7520  206.6980  154.8570 C   0  0  2  0  0  3  0  0  0  0  0  0
  161.3420  211.4700  155.8870 C   0  0  0  0  0  2  0  0  0  0  0  0
  159.9810  209.1750  155.1150 C   0  0  1  0  0  0  0  0  0  0  0  0
  159.4150  210.3710  154.7200 C   0  0  0  0  0  3  0  0  0  0  0  0
  163.3800  210.1650  157.2610 Cl  0  0  0  0  0  0  0  0  0  0  0  0
  1  5  2  0  0  0  0
  2  8  1  1  0  0  0
  2  6  1  0  0  0  0
  3  2  1  0  0  0  0
  4  6  1  0  0  0  0
  4 15  1  1  0  0  0
  5  4  1  0  0  0  0
  6 18  1  1  0  0  0
  7  3  2  0  0  0  0
  7  5  1  0  0  0  0
  8 13  1  0  0  0  0
  9 10  2  0  0  0  0
 10 11  1  0  0  0  0
 12  9  1  0  0  0  0
 12  8  2  0  0  0  0
 13 11  2  0  0  0  0
 15 14  1  0  0  0  0
 16 15  1  0  0  0  0
 18 17  2  0  0  0  0
 19 23  1  1  0  0  0
 20 25  1  0  0  0  0
 21 22  2  0  0  0  0
 22 28  1  0  0  0  0
 23 21  1  0  0  0  0
 24 17  1  6  0  0  0
 24 19  1  0  0  0  0
 24 23  1  0  0  0  0
 25 22  1  0  0  0  0
 26 27  1  6  0  0  0
 26 19  1  0  0  0  0
 26 23  1  0  0  0  0
 26 21  1  0  0  0  0
 27 20  2  0  0  0  0
M  END
>  <MODEL>
8

>  <REMARK>
 VINA RESULT:      -5.2      4.276      6.393
  Name = 
  4 active torsions:
  status: ('A' for Active; 'I' for Inactive)
    1  A    between atoms: C_4  and  C_11
    2  A    between atoms: C_5  and  C_19
    3  A    between atoms: C_8  and  C_17
    4  A    between atoms: N_12  and  C_21
                            x       y       z     vdW  Elec       q    Type
                         _______ _______ _______ _____ _____    ______ ____

>  <TORSDO>
F 4

$$$$
=
 OpenBabel11072414123D

 28 33  0  0  1  0  0  0  0  0999 V2000
  156.3760  213.0050  155.6730 O   0  0  0  0  0  0  0  0  0  0  0  0
  158.1140  212.8980  151.9200 C   0  0  2  0  0  3  0  0  0  0  0  0
  156.8720  213.6890  152.2180 C   0  0  0  0  0  3  0  0  0  0  0  0
  158.3270  212.3770  154.4140 C   0  0  1  0  0  3  0  0  0  0  0  0
  156.9860  213.0550  154.5720 C   0  0  0  0  0  0  0  0  0  0  0  0
  159.0680  212.8110  153.1260 C   0  0  1  0  0  3  0  0  0  0  0  0
  156.3410  213.7300  153.4380 C   0  0  0  0  0  3  0  0  0  0  0  0
  158.8000  213.4480  150.7050 C   0  0  0  0  0  0  0  0  0  0  0  0
  158.7720  213.8950  148.3220 C   0  0  0  0  0  3  0  0  0  0  0  0
  160.0720  214.4060  148.4000 C   0  0  0  0  0  3  0  0  0  0  0  0
  160.7400  214.4380  149.6280 C   0  0  0  0  0  3  0  0  0  0  0  0
  158.1370  213.4170  149.4720 C   0  0  0  0  0  3  0  0  0  0  0  0
  160.1070  213.9580  150.7780 C   0  0  0  0  0  3  0  0  0  0  0  0
  158.6430  211.7690  156.8700 C   0  0  0  0  0  1  0  0  0  0  0  0
  159.1760  212.5590  155.6850 C   0  0  0  0  0  3  0  0  0  0  0  0
  159.3430  214.0230  156.0520 C   0  0  0  0  0  1  0  0  0  0  0  0
  159.8490  210.6310  152.6330 C   0  0  0  0  0  3  0  0  0  0  0  0
  160.1190  211.8660  152.8400 N   0  0  0  0  0  0  0  0  0  0  0  0
  160.8020  208.5220  153.0870 C   0  0  2  0  0  3  0  0  0  0  0  0
  160.1420  208.3190  156.9900 C   0  0  0  0  0  3  0  0  0  0  0  0
  161.6420  209.4160  154.9520 C   0  0  0  0  0  0  0  0  0  0  0  0
  162.0390  209.7520  156.2230 C   0  0  0  0  0  0  0  0  0  0  0  0
  161.7320  209.4310  153.6140 N   0  0  0  0  0  4  0  0  0  0  0  0
  160.9560  209.6650  152.3710 C   0  0  2  0  0  3  0  0  0  0  0  0
  161.2520  209.1870  157.2570 C   0  0  0  0  0  2  0  0  0  0  0  0
  160.5100  208.5110  154.6660 C   0  0  1  0  0  0  0  0  0  0  0  0
  159.7500  207.9520  155.6750 C   0  0  0  0  0  3  0  0  0  0  0  0
  163.4100  210.7920  156.5440 Cl  0  0  0  0  0  0  0  0  0  0  0  0
  2  8  1  6  0  0  0
  2  3  1  0  0  0  0
  2  6  1  0  0  0  0
  3  7  2  0  0  0  0
  4  5  1  0  0  0  0
  4 15  1  1  0  0  0
  5  1  2  0  0  0  0
  6 18  1  6  0  0  0
  6  4  1  0  0  0  0
  7  5  1  0  0  0  0
  8 13  1  0  0  0  0
  9 10  2  0  0  0  0
  9 12  1  0  0  0  0
 10 11  1  0  0  0  0
 11 13  2  0  0  0  0
 12  8  2  0  0  0  0
 15 16  1  0  0  0  0
 15 14  1  0  0  0  0
 17 18  2  0  0  0  0
 19 23  1  1  0  0  0
 19 26  1  0  0  0  0
 20 25  1  0  0  0  0
 21 22  2  0  0  0  0
 22 28  1  0  0  0  0
 22 25  1  0  0  0  0
 23 26  1  0  0  0  0
 23 21  1  0  0  0  0
 24 17  1  1  0  0  0
 24 19  1  0  0  0  0
 24 23  1  0  0  0  0
 26 21  1  0  0  0  0
 26 27  1  6  0  0  0
 27 20  2  0  0  0  0
M  END
>  <MODEL>
9

>  <REMARK>
 VINA RESULT:      -5.1      3.941      7.326
  Name = 
  4 active torsions:
  status: ('A' for Active; 'I' for Inactive)
    1  A    between atoms: C_4  and  C_11
    2  A    between atoms: C_5  and  C_19
    3  A    between atoms: C_8  and  C_17
    4  A    between atoms: N_12  and  C_21
                            x       y       z     vdW  Elec       q    Type
                         _______ _______ _______ _____ _____    ______ ____

>  <TORSDO>
F 4

$$$$
