=
 OpenBabel11072410163D

 37 43  0  0  1  0  0  0  0  0999 V2000
  161.0670  205.5030  152.9370 C   0  0  0  0  0  2  0  0  0  0  0  0
  161.3670  205.2220  151.4460 C   0  0  2  0  0  3  0  0  0  0  0  0
  161.7920  210.9910  152.1740 N   0  0  0  0  0  2  0  0  0  0  0  0
  162.1330  209.1890  150.6440 C   0  0  2  0  0  3  0  0  0  0  0  0
  161.2590  209.2910  153.9290 C   0  0  0  0  0  2  0  0  0  0  0  0
  162.0130  208.5130  149.2670 C   0  0  0  0  0  2  0  0  0  0  0  0
  160.8920  208.9070  151.3970 C   0  0  1  0  0  3  0  0  0  0  0  0
  161.6720  206.9870  149.4110 C   0  0  0  0  0  2  0  0  0  0  0  0
  161.1810  206.5690  150.8010 C   0  0  2  0  0  3  0  0  0  0  0  0
  160.9580  207.4750  151.7330 C   0  0  1  0  0  3  0  0  0  0  0  0
  160.7060  207.8550  154.1280 C   0  0  1  0  0  3  0  0  0  0  0  0
  160.8840  209.8950  152.5530 C   0  0  2  0  0  3  0  0  0  0  0  0
  161.3500  206.9890  153.0540 C   0  0  1  0  0  3  0  0  0  0  0  0
  162.3140  210.6820  150.8290 C   0  0  1  0  0  3  0  0  0  0  0  0
  160.5880  203.8430  149.3900 C   0  0  2  0  0  3  0  0  0  0  0  0
  160.9960  202.4390  149.0960 C   0  0  1  0  0  0  0  0  0  0  0  0
  161.9390  203.4810  149.1580 O   0  0  0  0  0  0  0  0  0  0  0  0
  160.1150  200.5350  150.2430 F   0  0  0  0  0  0  0  0  0  0  0  0
  160.3850  204.1840  150.8830 C   0  0  1  0  0  3  0  0  0  0  0  0
  161.2130  202.1250  151.6070 C   0  0  2  0  0  3  0  0  0  0  0  0
  162.4660  202.6580  151.8670 F   0  0  0  0  0  0  0  0  0  0  0  0
  161.1620  201.4390  150.2490 C   0  0  2  0  0  3  0  0  0  0  0  0
  160.1800  203.0760  151.7440 O   0  0  0  0  0  0  0  0  0  0  0  0
  161.4600  200.6640  147.5600 O   0  0  0  0  0  1  0  0  0  0  0  0
  160.8090  201.8960  147.6620 C   0  0  0  0  0  0  0  0  0  0  0  0
  159.4450  201.7100  147.4290 O   0  0  0  0  0  1  0  0  0  0  0  0
  160.6930  202.6550  145.2470 C   0  0  0  0  0  1  0  0  0  0  0  0
  161.3710  202.8460  146.5940 C   0  0  0  0  0  2  0  0  0  0  0  0
  161.3000  212.1690  147.4620 C   0  0  0  0  0  3  0  0  0  0  0  0
  161.6290  211.5090  149.7770 C   0  0  0  0  0  0  0  0  0  0  0  0
  160.3490  213.1090  147.8640 C   0  0  0  0  0  3  0  0  0  0  0  0
  160.6780  212.4570  150.1730 C   0  0  0  0  0  3  0  0  0  0  0  0
  160.0380  213.2530  149.2200 C   0  0  0  0  0  3  0  0  0  0  0  0
  161.9420  211.3710  148.4150 C   0  0  0  0  0  3  0  0  0  0  0  0
  161.9030  208.1670  156.2050 O   0  0  0  0  0  1  0  0  0  0  0  0
  159.7550  207.1350  156.3330 C   0  0  0  0  0  1  0  0  0  0  0  0
  161.0250  207.3190  155.5250 C   0  0  1  0  0  3  0  0  0  0  0  0
  1 13  1  0  0  0  0
  2  1  1  1  0  0  0
  3 12  1  0  0  0  0
  4  6  1  6  0  0  0
  4 14  1  0  0  0  0
  4  7  1  0  0  0  0
  5 11  1  0  0  0  0
  6  8  1  0  0  0  0
  7 10  1  0  0  0  0
  7 12  1  0  0  0  0
  8  9  1  0  0  0  0
  9  2  1  0  0  0  0
  9 10  1  0  0  0  0
 10 13  1  0  0  0  0
 11 37  1  0  0  0  0
 12  5  1  0  0  0  0
 13 11  1  0  0  0  0
 14  3  1  0  0  0  0
 15 19  1  0  0  0  0
 16 17  1  0  0  0  0
 16 15  1  0  0  0  0
 16 22  1  0  0  0  0
 17 15  1  0  0  0  0
 18 22  1  0  0  0  0
 19  2  1  0  0  0  0
 19 23  1  0  0  0  0
 20 23  1  0  0  0  0
 20 21  1  0  0  0  0
 22 20  1  0  0  0  0
 24 25  1  0  0  0  0
 25 16  1  0  0  0  0
 26 25  1  0  0  0  0
 27 28  1  0  0  0  0
 28 25  1  0  0  0  0
 29 31  2  0  0  0  0
 29 34  1  0  0  0  0
 30 32  1  0  0  0  0
 30 14  1  0  0  0  0
 31 33  1  0  0  0  0
 33 32  2  0  0  0  0
 34 30  2  0  0  0  0
 37 35  1  0  0  0  0
 37 36  1  0  0  0  0
M  END
>  <MODEL>
1

>  <REMARK>
 VINA RESULT:      -8.3      0.000      0.000
  Name = 
  5 active torsions:
  status: ('A' for Active; 'I' for Inactive)
    1  A    between atoms: C_4  and  C_22
    2  A    between atoms: C_13  and  C_14
    3  A    between atoms: C_13  and  C_31
    4  A    between atoms: C_20  and  C_35
    5  A    between atoms: C_27  and  C_36
                            x       y       z     vdW  Elec       q    Type
                         _______ _______ _______ _____ _____    ______ ____

>  <TORSDO>
F 5

$$$$
=
 OpenBabel11072410163D

 37 43  0  0  1  0  0  0  0  0999 V2000
  161.7620  208.2650  148.1210 C   0  0  0  0  0  2  0  0  0  0  0  0
  161.3070  206.9500  148.7980 C   0  0  2  0  0  3  0  0  0  0  0  0
  161.2360  211.0630  152.9290 N   0  0  0  0  0  2  0  0  0  0  0  0
  160.6620  208.8010  152.4200 C   0  0  2  0  0  3  0  0  0  0  0  0
  161.8510  211.3610  150.5230 C   0  0  0  0  0  2  0  0  0  0  0  0
  160.6160  207.2940  152.7220 C   0  0  0  0  0  2  0  0  0  0  0  0
  161.9540  209.0930  151.7640 C   0  0  1  0  0  3  0  0  0  0  0  0
  160.8940  206.4460  151.4290 C   0  0  0  0  0  2  0  0  0  0  0  0
  161.4960  207.2370  150.2630 C   0  0  2  0  0  3  0  0  0  0  0  0
  161.8510  208.4980  150.4210 C   0  0  1  0  0  3  0  0  0  0  0  0
  162.3490  210.5900  149.2730 C   0  0  1  0  0  3  0  0  0  0  0  0
  162.1210  210.6020  151.8460 C   0  0  2  0  0  3  0  0  0  0  0  0
  161.5640  209.2860  149.2250 C   0  0  1  0  0  3  0  0  0  0  0  0
  160.5720  209.8700  153.4900 C   0  0  1  0  0  3  0  0  0  0  0  0
  161.6380  204.3770  148.7150 C   0  0  2  0  0  3  0  0  0  0  0  0
  161.2500  203.5000  147.5740 C   0  0  1  0  0  0  0  0  0  0  0  0
  160.2940  204.2470  148.2850 O   0  0  0  0  0  0  0  0  0  0  0  0
  162.4860  203.3530  145.5330 F   0  0  0  0  0  0  0  0  0  0  0  0
  162.1790  205.7730  148.3340 C   0  0  1  0  0  3  0  0  0  0  0  0
  161.6660  205.5050  146.0720 C   0  0  2  0  0  3  0  0  0  0  0  0
  160.4870  206.2220  146.1980 F   0  0  0  0  0  0  0  0  0  0  0  0
  161.4250  204.0040  146.1340 C   0  0  2  0  0  3  0  0  0  0  0  0
  162.6480  205.9090  147.0020 O   0  0  0  0  0  0  0  0  0  0  0  0
  160.7160  201.3680  146.6260 O   0  0  0  0  0  1  0  0  0  0  0  0
  161.1120  201.9800  147.8180 C   0  0  0  0  0  0  0  0  0  0  0  0
  162.3570  201.4750  148.1970 O   0  0  0  0  0  1  0  0  0  0  0  0
  160.7540  201.2890  150.2290 C   0  0  0  0  0  1  0  0  0  0  0  0
  160.0860  201.6500  148.9120 C   0  0  0  0  0  2  0  0  0  0  0  0
  161.4100  207.9430  156.6770 C   0  0  0  0  0  3  0  0  0  0  0  0
  161.1920  209.4690  154.7990 C   0  0  0  0  0  0  0  0  0  0  0  0
  162.3520  208.7940  157.2600 C   0  0  0  0  0  3  0  0  0  0  0  0
  162.1330  210.3190  155.3920 C   0  0  0  0  0  3  0  0  0  0  0  0
  162.7140  209.9820  156.6180 C   0  0  0  0  0  3  0  0  0  0  0  0
  160.8290  208.2800  155.4510 C   0  0  0  0  0  3  0  0  0  0  0  0
  160.8390  211.9040  147.9180 O   0  0  0  0  0  1  0  0  0  0  0  0
  163.1390  212.5380  147.9070 C   0  0  0  0  0  1  0  0  0  0  0  0
  162.1410  211.4000  147.9930 C   0  0  1  0  0  3  0  0  0  0  0  0
  1 13  1  0  0  0  0
  2  1  1  6  0  0  0
  2  9  1  0  0  0  0
  3 14  1  0  0  0  0
  4  6  1  1  0  0  0
  4 14  1  0  0  0  0
  5 12  1  0  0  0  0
  7 12  1  0  0  0  0
  7  4  1  0  0  0  0
  8  6  1  0  0  0  0
  9 10  1  0  0  0  0
  9  8  1  0  0  0  0
 10  7  1  0  0  0  0
 11  5  1  0  0  0  0
 12  3  1  0  0  0  0
 13 11  1  0  0  0  0
 13 10  1  0  0  0  0
 14 30  1  0  0  0  0
 16 25  1  0  0  0  0
 16 17  1  0  0  0  0
 16 15  1  0  0  0  0
 17 15  1  0  0  0  0
 18 22  1  0  0  0  0
 19 15  1  0  0  0  0
 19  2  1  0  0  0  0
 20 22  1  0  0  0  0
 20 21  1  0  0  0  0
 20 23  1  0  0  0  0
 22 16  1  0  0  0  0
 23 19  1  0  0  0  0
 24 25  1  0  0  0  0
 25 26  1  0  0  0  0
 25 28  1  0  0  0  0
 28 27  1  0  0  0  0
 29 31  1  0  0  0  0
 30 32  2  0  0  0  0
 30 34  1  0  0  0  0
 32 33  1  0  0  0  0
 33 31  2  0  0  0  0
 34 29  2  0  0  0  0
 35 37  1  0  0  0  0
 36 37  1  0  0  0  0
 37 11  1  0  0  0  0
M  END
>  <MODEL>
2

>  <REMARK>
 VINA RESULT:      -7.5      2.521      5.433
  Name = 
  5 active torsions:
  status: ('A' for Active; 'I' for Inactive)
    1  A    between atoms: C_4  and  C_22
    2  A    between atoms: C_13  and  C_14
    3  A    between atoms: C_13  and  C_31
    4  A    between atoms: C_20  and  C_35
    5  A    between atoms: C_27  and  C_36
                            x       y       z     vdW  Elec       q    Type
                         _______ _______ _______ _____ _____    ______ ____

>  <TORSDO>
F 5

$$$$
