=
 OpenBabel11072413153D

 34 38  0  0  1  0  0  0  0  0999 V2000
  160.1620  207.5340  155.8640 N   0  0  0  0  0  2  0  0  0  0  0  0
  160.7530  206.0330  154.1960 O   0  0  0  0  0  0  0  0  0  0  0  0
  161.1250  210.3420  151.6900 C   0  0  0  0  0  3  0  0  0  0  0  0
  161.3750  208.0420  152.3350 C   0  0  0  0  0  3  0  0  0  0  0  0
  160.6460  210.6700  152.9650 C   0  0  0  0  0  0  0  0  0  0  0  0
  160.6240  207.2350  154.5530 C   0  0  0  0  0  0  0  0  0  0  0  0
  161.5250  209.0420  151.3720 C   0  0  0  0  0  0  0  0  0  0  0  0
  160.8900  208.3370  153.6140 C   0  0  0  0  0  0  0  0  0  0  0  0
  160.5750  209.6710  153.9750 C   0  0  0  0  0  0  0  0  0  0  0  0
  160.3460  208.8700  156.4040 C   0  0  0  0  0  2  0  0  0  0  0  0
  160.0110  209.9580  155.3750 C   0  0  1  0  0  3  0  0  0  0  0  0
  160.4960  211.2480  155.9540 C   0  0  0  0  0  0  0  0  0  0  0  0
  159.5990  212.2650  156.2610 O   0  0  0  0  0  1  0  0  0  0  0  0
  161.7280  211.4260  156.1410 O   0  0  0  0  0  0  0  0  0  0  0  0
  162.0310  208.7300  150.0580 N   0  0  0  0  0  0  0  0  0  0  0  0
  162.0220  209.7280  148.9990 C   0  0  0  0  0  1  0  0  0  0  0  0
  162.6460  207.4410  149.7570 C   0  0  0  0  0  2  0  0  0  0  0  0
  162.3220  207.0010  148.3340 C   0  0  0  0  0  2  0  0  0  0  0  0
  160.1130  206.5910  147.5710 O   0  0  0  0  0  0  0  0  0  0  0  0
  161.0650  206.1960  148.2960 C   0  0  0  0  0  0  0  0  0  0  0  0
  160.9590  204.9420  149.0740 C   0  0  0  0  0  0  0  0  0  0  0  0
  160.5900  204.9100  150.5290 C   0  0  1  0  0  3  0  0  0  0  0  0
  161.0050  202.7490  149.6370 N   0  0  0  0  0  2  0  0  0  0  0  0
  161.1530  203.7130  148.6150 C   0  0  0  0  0  0  0  0  0  0  0  0
  161.5520  203.3430  147.2260 C   0  0  0  0  0  1  0  0  0  0  0  0
  160.6100  203.4190  150.8720 C   0  0  1  0  0  3  0  0  0  0  0  0
  161.7170  204.3330  151.3720 C   0  0  0  0  0  2  0  0  0  0  0  0
  160.1070  212.0580  153.1690 C   0  0  0  0  0  2  0  0  0  0  0  0
  158.5490  213.7330  149.5650 C   0  0  0  0  0  3  0  0  0  0  0  0
  159.9330  213.7030  149.7550 C   0  0  0  0  0  3  0  0  0  0  0  0
  160.4470  213.1570  150.9320 C   0  0  0  0  0  3  0  0  0  0  0  0
  157.7180  213.2340  150.5200 N   0  0  0  0  0  0  0  0  0  0  0  0
  158.2010  212.6980  151.6740 C   0  0  0  0  0  3  0  0  0  0  0  0
  159.5780  212.6530  151.9030 C   0  0  0  0  0  0  0  0  0  0  0  0
  1 10  1  0  0  0  0
  2  6  2  0  0  0  0
  3  5  1  0  0  0  0
  4  8  2  0  0  0  0
  5 28  1  0  0  0  0
  5  9  2  0  0  0  0
  6  1  1  0  0  0  0
  7  3  2  0  0  0  0
  7  4  1  0  0  0  0
  8  9  1  0  0  0  0
  8  6  1  0  0  0  0
  9 11  1  0  0  0  0
 11 12  1  1  0  0  0
 11 10  1  0  0  0  0
 12 14  2  0  0  0  0
 12 13  1  0  0  0  0
 15  7  1  0  0  0  0
 16 15  1  0  0  0  0
 17 15  1  0  0  0  0
 18 17  1  0  0  0  0
 19 20  2  0  0  0  0
 20 18  1  0  0  0  0
 20 21  1  0  0  0  0
 21 22  1  0  0  0  0
 22 26  1  0  0  0  0
 22 27  1  1  0  0  0
 23 26  1  0  0  0  0
 24 21  2  0  0  0  0
 24 23  1  0  0  0  0
 25 24  1  0  0  0  0
 26 27  1  1  0  0  0
 29 30  2  0  0  0  0
 29 32  1  0  0  0  0
 30 31  1  0  0  0  0
 31 34  2  0  0  0  0
 32 33  2  0  0  0  0
 33 34  1  0  0  0  0
 34 28  1  0  0  0  0
M  END
>  <MODEL>
1

>  <REMARK>
 VINA RESULT:      -8.0      0.000      0.000
  Name = 
  8 active torsions:
  status: ('A' for Active; 'I' for Inactive)
    1  A    between atoms: C_3  and  C_10
    2  A    between atoms: C_3  and  C_32
    3  A    between atoms: C_5  and  N_25
    4  A    between atoms: C_5  and  C_34
    5  A    between atoms: C_8  and  C_14
    6  A    between atoms: C_14  and  C_34
    7  A    between atoms: C_15  and  C_30
    8  A    between atoms: C_22  and  N_25
                            x       y       z     vdW  Elec       q    Type
                         _______ _______ _______ _____ _____    ______ ____

>  <TORSDO>
F 8

$$$$
=
 OpenBabel11072413153D

 34 38  0  0  1  0  0  0  0  0999 V2000
  160.5870  206.9090  155.8750 N   0  0  0  0  0  2  0  0  0  0  0  0
  160.7900  205.7140  153.8960 O   0  0  0  0  0  0  0  0  0  0  0  0
  161.3910  210.3740  152.1900 C   0  0  0  0  0  3  0  0  0  0  0  0
  161.4310  207.9790  152.3640 C   0  0  0  0  0  3  0  0  0  0  0  0
  161.1090  210.4900  153.5570 C   0  0  0  0  0  0  0  0  0  0  0  0
  160.8510  206.8290  154.4800 C   0  0  0  0  0  0  0  0  0  0  0  0
  161.5880  209.1290  151.5880 C   0  0  0  0  0  0  0  0  0  0  0  0
  161.1390  208.0620  153.7300 C   0  0  0  0  0  0  0  0  0  0  0  0
  161.0350  209.3240  154.3680 C   0  0  0  0  0  0  0  0  0  0  0  0
  160.9960  208.0880  156.6180 C   0  0  0  0  0  2  0  0  0  0  0  0
  160.6790  209.3840  155.8610 C   0  0  1  0  0  3  0  0  0  0  0  0
  161.3840  210.4810  156.5930 C   0  0  0  0  0  0  0  0  0  0  0  0
  160.6590  211.4690  157.2500 O   0  0  0  0  0  1  0  0  0  0  0  0
  162.6420  210.5260  156.5930 O   0  0  0  0  0  0  0  0  0  0  0  0
  161.8940  209.0330  150.1820 N   0  0  0  0  0  0  0  0  0  0  0  0
  161.9910  210.2280  149.3570 C   0  0  0  0  0  1  0  0  0  0  0  0
  162.2000  207.7550  149.5470 C   0  0  0  0  0  2  0  0  0  0  0  0
  160.9570  207.1570  148.8980 C   0  0  0  0  0  2  0  0  0  0  0  0
  161.7350  205.7510  147.1520 O   0  0  0  0  0  0  0  0  0  0  0  0
  161.2510  205.8150  148.3140 C   0  0  0  0  0  0  0  0  0  0  0  0
  161.0060  204.5870  149.1040 C   0  0  0  0  0  0  0  0  0  0  0  0
  160.6370  204.6100  150.5580 C   0  0  1  0  0  3  0  0  0  0  0  0
  160.8070  202.4090  149.6860 N   0  0  0  0  0  2  0  0  0  0  0  0
  161.0620  203.3410  148.6550 C   0  0  0  0  0  0  0  0  0  0  0  0
  161.4160  202.9150  147.2700 C   0  0  0  0  0  1  0  0  0  0  0  0
  160.4900  203.1290  150.9140 C   0  0  1  0  0  3  0  0  0  0  0  0
  161.6920  203.9180  151.4070 C   0  0  0  0  0  2  0  0  0  0  0  0
  160.7730  211.8560  154.0830 C   0  0  0  0  0  2  0  0  0  0  0  0
  156.7100  212.9460  153.3540 C   0  0  0  0  0  3  0  0  0  0  0  0
  156.9910  212.0010  154.3450 C   0  0  0  0  0  3  0  0  0  0  0  0
  158.3170  211.6410  154.5860 C   0  0  0  0  0  3  0  0  0  0  0  0
  157.7230  213.5050  152.6380 N   0  0  0  0  0  0  0  0  0  0  0  0
  159.0220  213.1670  152.8590 C   0  0  0  0  0  3  0  0  0  0  0  0
  159.3440  212.2230  153.8380 C   0  0  0  0  0  0  0  0  0  0  0  0
  1 10  1  0  0  0  0
  2  6  2  0  0  0  0
  3  5  1  0  0  0  0
  4  8  2  0  0  0  0
  5 28  1  0  0  0  0
  5  9  2  0  0  0  0
  6  1  1  0  0  0  0
  7  3  2  0  0  0  0
  7  4  1  0  0  0  0
  8  9  1  0  0  0  0
  8  6  1  0  0  0  0
  9 11  1  0  0  0  0
 11 12  1  1  0  0  0
 11 10  1  0  0  0  0
 12 13  1  0  0  0  0
 14 12  2  0  0  0  0
 15  7  1  0  0  0  0
 16 15  1  0  0  0  0
 17 15  1  0  0  0  0
 18 17  1  0  0  0  0
 19 20  2  0  0  0  0
 20 18  1  0  0  0  0
 20 21  1  0  0  0  0
 21 22  1  0  0  0  0
 22 26  1  0  0  0  0
 22 27  1  1  0  0  0
 23 26  1  0  0  0  0
 24 21  2  0  0  0  0
 24 23  1  0  0  0  0
 25 24  1  0  0  0  0
 26 27  1  1  0  0  0
 29 30  1  0  0  0  0
 30 31  2  0  0  0  0
 32 33  1  0  0  0  0
 32 29  2  0  0  0  0
 33 34  2  0  0  0  0
 34 28  1  0  0  0  0
 34 31  1  0  0  0  0
M  END
>  <MODEL>
2

>  <REMARK>
 VINA RESULT:      -7.9      1.278      1.733
  Name = 
  8 active torsions:
  status: ('A' for Active; 'I' for Inactive)
    1  A    between atoms: C_3  and  C_10
    2  A    between atoms: C_3  and  C_32
    3  A    between atoms: C_5  and  N_25
    4  A    between atoms: C_5  and  C_34
    5  A    between atoms: C_8  and  C_14
    6  A    between atoms: C_14  and  C_34
    7  A    between atoms: C_15  and  C_30
    8  A    between atoms: C_22  and  N_25
                            x       y       z     vdW  Elec       q    Type
                         _______ _______ _______ _____ _____    ______ ____

>  <TORSDO>
F 8

$$$$
=
 OpenBabel11072413153D

 34 38  0  0  1  0  0  0  0  0999 V2000
  161.1300  201.9180  146.8310 N   0  0  0  0  0  2  0  0  0  0  0  0
  160.9210  201.0380  148.9680 O   0  0  0  0  0  0  0  0  0  0  0  0
  161.6350  205.8640  150.0560 C   0  0  0  0  0  3  0  0  0  0  0  0
  161.0240  203.5470  150.2240 C   0  0  0  0  0  3  0  0  0  0  0  0
  161.7540  205.7540  148.6650 C   0  0  0  0  0  0  0  0  0  0  0  0
  161.0410  202.0620  148.2430 C   0  0  0  0  0  0  0  0  0  0  0  0
  161.2380  204.7810  150.8440 C   0  0  0  0  0  0  0  0  0  0  0  0
  161.1450  203.4030  148.8380 C   0  0  0  0  0  0  0  0  0  0  0  0
  161.4510  204.5220  148.0220 C   0  0  0  0  0  0  0  0  0  0  0  0
  160.9090  203.0700  145.9750 C   0  0  0  0  0  2  0  0  0  0  0  0
  161.6130  204.3260  146.5070 C   0  0  1  0  0  3  0  0  0  0  0  0
  161.0880  205.4730  145.7030 C   0  0  0  0  0  0  0  0  0  0  0  0
  159.8950  206.0930  146.0560 O   0  0  0  0  0  1  0  0  0  0  0  0
  161.7170  205.8640  144.6850 O   0  0  0  0  0  0  0  0  0  0  0  0
  161.1050  204.9200  152.2730 N   0  0  0  0  0  0  0  0  0  0  0  0
  160.3850  203.9260  153.0550 C   0  0  0  0  0  1  0  0  0  0  0  0
  161.7500  206.0070  153.0030 C   0  0  0  0  0  2  0  0  0  0  0  0
  160.8220  207.2100  153.1220 C   0  0  0  0  0  2  0  0  0  0  0  0
  160.4630  206.7050  155.4130 O   0  0  0  0  0  0  0  0  0  0  0  0
  160.6410  207.6070  154.5500 C   0  0  0  0  0  0  0  0  0  0  0  0
  160.7030  209.0330  154.9420 C   0  0  0  0  0  0  0  0  0  0  0  0
  159.9670  210.1160  154.2090 C   0  0  1  0  0  3  0  0  0  0  0  0
  161.2470  210.9430  156.0290 N   0  0  0  0  0  2  0  0  0  0  0  0
  161.3800  209.5370  155.9640 C   0  0  0  0  0  0  0  0  0  0  0  0
  162.2470  208.7780  156.9100 C   0  0  0  0  0  1  0  0  0  0  0  0
  160.3370  211.3860  154.9780 C   0  0  1  0  0  3  0  0  0  0  0  0
  160.9290  211.1250  153.6020 C   0  0  0  0  0  2  0  0  0  0  0  0
  162.3230  206.9290  147.9210 C   0  0  0  0  0  2  0  0  0  0  0  0
  162.0270  210.5850  150.1050 C   0  0  0  0  0  3  0  0  0  0  0  0
  162.2710  209.3980  150.8010 C   0  0  0  0  0  3  0  0  0  0  0  0
  162.3670  208.2010  150.0920 C   0  0  0  0  0  3  0  0  0  0  0  0
  161.8880  210.5660  148.7520 N   0  0  0  0  0  0  0  0  0  0  0  0
  161.9780  209.4090  148.0430 C   0  0  0  0  0  3  0  0  0  0  0  0
  162.2170  208.2000  148.7030 C   0  0  0  0  0  0  0  0  0  0  0  0
  1  6  1  0  0  0  0
  3  7  1  0  0  0  0
  4  7  2  0  0  0  0
  5  3  2  0  0  0  0
  6  8  1  0  0  0  0
  6  2  2  0  0  0  0
  7 15  1  0  0  0  0
  8  4  1  0  0  0  0
  9  5  1  0  0  0  0
  9  8  2  0  0  0  0
 10 11  1  0  0  0  0
 10  1  1  0  0  0  0
 11 12  1  6  0  0  0
 11  9  1  0  0  0  0
 12 13  1  0  0  0  0
 14 12  2  0  0  0  0
 15 17  1  0  0  0  0
 15 16  1  0  0  0  0
 17 18  1  0  0  0  0
 18 20  1  0  0  0  0
 20 21  1  0  0  0  0
 20 19  2  0  0  0  0
 21 24  2  0  0  0  0
 22 27  1  6  0  0  0
 22 21  1  0  0  0  0
 22 26  1  0  0  0  0
 24 23  1  0  0  0  0
 24 25  1  0  0  0  0
 26 27  1  6  0  0  0
 26 23  1  0  0  0  0
 28  5  1  0  0  0  0
 28 34  1  0  0  0  0
 29 30  1  0  0  0  0
 31 30  2  0  0  0  0
 32 29  2  0  0  0  0
 33 34  2  0  0  0  0
 33 32  1  0  0  0  0
 34 31  1  0  0  0  0
M  END
>  <MODEL>
3

>  <REMARK>
 VINA RESULT:      -7.3      2.453      7.950
  Name = 
  8 active torsions:
  status: ('A' for Active; 'I' for Inactive)
    1  A    between atoms: C_3  and  C_10
    2  A    between atoms: C_3  and  C_32
    3  A    between atoms: C_5  and  N_25
    4  A    between atoms: C_5  and  C_34
    5  A    between atoms: C_8  and  C_14
    6  A    between atoms: C_14  and  C_34
    7  A    between atoms: C_15  and  C_30
    8  A    between atoms: C_22  and  N_25
                            x       y       z     vdW  Elec       q    Type
                         _______ _______ _______ _____ _____    ______ ____

>  <TORSDO>
F 8

$$$$
=
 OpenBabel11072413153D

 34 38  0  0  1  0  0  0  0  0999 V2000
  160.7540  205.3930  148.7320 N   0  0  0  0  0  2  0  0  0  0  0  0
  160.8780  206.8450  146.9270 O   0  0  0  0  0  0  0  0  0  0  0  0
  161.9110  209.9890  150.6740 C   0  0  0  0  0  3  0  0  0  0  0  0
  161.7370  209.0200  148.4830 C   0  0  0  0  0  3  0  0  0  0  0  0
  161.6220  208.7540  151.2670 C   0  0  0  0  0  0  0  0  0  0  0  0
  161.0290  206.6680  148.1650 C   0  0  0  0  0  0  0  0  0  0  0  0
  162.0060  210.1300  149.2870 C   0  0  0  0  0  0  0  0  0  0  0  0
  161.4350  207.7750  149.0460 C   0  0  0  0  0  0  0  0  0  0  0  0
  161.4330  207.6020  150.4530 C   0  0  0  0  0  0  0  0  0  0  0  0
  161.2550  205.0720  150.0570 C   0  0  0  0  0  2  0  0  0  0  0  0
  161.0630  206.2330  151.0420 C   0  0  1  0  0  3  0  0  0  0  0  0
  161.8520  205.8820  152.2630 C   0  0  0  0  0  0  0  0  0  0  0  0
  161.2050  205.5700  153.4540 O   0  0  0  0  0  1  0  0  0  0  0  0
  163.1100  205.8950  152.2210 O   0  0  0  0  0  0  0  0  0  0  0  0
  162.3220  211.4070  148.6980 N   0  0  0  0  0  0  0  0  0  0  0  0
  163.6620  211.6890  148.2030 C   0  0  0  0  0  1  0  0  0  0  0  0
  161.3050  212.4340  148.4950 C   0  0  0  0  0  2  0  0  0  0  0  0
  160.6920  212.3270  147.1030 C   0  0  0  0  0  2  0  0  0  0  0  0
  161.6430  214.4530  146.6450 O   0  0  0  0  0  0  0  0  0  0  0  0
  161.2870  213.3370  146.1780 C   0  0  0  0  0  0  0  0  0  0  0  0
  161.4820  213.0150  144.7470 C   0  0  1  0  0  3  0  0  0  0  0  0
  162.8310  212.9770  144.0930 C   0  0  1  0  0  3  0  0  0  0  0  0
  161.0630  212.4960  142.5840 N   0  0  0  0  0  0  0  0  0  0  0  0
  160.5300  212.7140  143.8740 C   0  0  0  0  0  0  0  0  0  0  0  0
  159.0650  212.6690  144.1450 C   0  0  0  0  0  1  0  0  0  0  0  0
  162.5170  212.6040  142.6420 C   0  0  1  0  0  3  0  0  0  0  0  0
  162.9430  214.0210  142.9920 C   0  0  0  0  0  2  0  0  0  0  0  0
  161.4000  208.7310  152.7520 C   0  0  0  0  0  2  0  0  0  0  0  0
  159.5390  212.2880  154.2050 C   0  0  0  0  0  3  0  0  0  0  0  0
  158.9390  211.5910  153.1530 C   0  0  0  0  0  3  0  0  0  0  0  0
  159.5440  210.4290  152.6740 C   0  0  0  0  0  3  0  0  0  0  0  0
  160.6980  211.8330  154.7520 N   0  0  0  0  0  0  0  0  0  0  0  0
  161.3030  210.7020  154.2980 C   0  0  0  0  0  3  0  0  0  0  0  0
  160.7370  209.9780  153.2460 C   0  0  0  0  0  0  0  0  0  0  0  0
  1 10  1  0  0  0  0
  2  6  2  0  0  0  0
  3  5  1  0  0  0  0
  4  8  2  0  0  0  0
  4  7  1  0  0  0  0
  5 28  1  0  0  0  0
  6  1  1  0  0  0  0
  6  8  1  0  0  0  0
  7  3  2  0  0  0  0
  8  9  1  0  0  0  0
  9 11  1  0  0  0  0
  9  5  2  0  0  0  0
 10 11  1  0  0  0  0
 11 12  1  1  0  0  0
 12 13  1  0  0  0  0
 14 12  2  0  0  0  0
 15  7  1  0  0  0  0
 16 15  1  0  0  0  0
 17 15  1  0  0  0  0
 18 17  1  0  0  0  0
 20 19  2  0  0  0  0
 20 18  1  0  0  0  0
 21 20  1  1  0  0  0
 22 27  1  6  0  0  0
 22 21  1  0  0  0  0
 23 26  1  0  0  0  0
 23 24  2  0  0  0  0
 24 25  1  0  0  0  0
 24 21  1  0  0  0  0
 26 27  1  6  0  0  0
 26 22  1  0  0  0  0
 28 34  1  0  0  0  0
 29 32  1  0  0  0  0
 30 29  2  0  0  0  0
 31 30  1  0  0  0  0
 31 34  2  0  0  0  0
 33 32  2  0  0  0  0
 34 33  1  0  0  0  0
M  END
>  <MODEL>
4

>  <REMARK>
 VINA RESULT:      -7.1      3.738      6.963
  Name = 
  8 active torsions:
  status: ('A' for Active; 'I' for Inactive)
    1  A    between atoms: C_3  and  C_10
    2  A    between atoms: C_3  and  C_32
    3  A    between atoms: C_5  and  N_25
    4  A    between atoms: C_5  and  C_34
    5  A    between atoms: C_8  and  C_14
    6  A    between atoms: C_14  and  C_34
    7  A    between atoms: C_15  and  C_30
    8  A    between atoms: C_22  and  N_25
                            x       y       z     vdW  Elec       q    Type
                         _______ _______ _______ _____ _____    ______ ____

>  <TORSDO>
F 8

$$$$
=
 OpenBabel11072413153D

 34 38  0  0  1  0  0  0  0  0999 V2000
  160.8310  202.5600  152.4940 N   0  0  0  0  0  2  0  0  0  0  0  0
  161.1460  204.6840  153.3730 O   0  0  0  0  0  0  0  0  0  0  0  0
  161.7750  205.6300  148.5040 C   0  0  0  0  0  3  0  0  0  0  0  0
  161.3620  205.9080  150.8540 C   0  0  0  0  0  3  0  0  0  0  0  0
  161.5950  204.2450  148.6150 C   0  0  0  0  0  0  0  0  0  0  0  0
  161.0410  203.9580  152.3480 C   0  0  0  0  0  0  0  0  0  0  0  0
  161.6280  206.4760  149.6060 C   0  0  0  0  0  0  0  0  0  0  0  0
  161.1880  204.5270  150.9980 C   0  0  0  0  0  0  0  0  0  0  0  0
  161.2390  203.6730  149.8680 C   0  0  0  0  0  0  0  0  0  0  0  0
  160.3570  201.7810  151.3630 C   0  0  0  0  0  2  0  0  0  0  0  0
  161.0790  202.1580  150.0620 C   0  0  1  0  0  3  0  0  0  0  0  0
  160.3210  201.4970  148.9550 C   0  0  0  0  0  0  0  0  0  0  0  0
  160.9780  200.6780  148.0430 O   0  0  0  0  0  0  0  0  0  0  0  0
  159.0860  201.7030  148.8310 O   0  0  0  0  0  1  0  0  0  0  0  0
  161.8000  207.9010  149.4670 N   0  0  0  0  0  0  0  0  0  0  0  0
  161.5170  208.5660  148.2040 C   0  0  0  0  0  1  0  0  0  0  0  0
  162.1810  208.7430  150.5960 C   0  0  0  0  0  2  0  0  0  0  0  0
  161.1070  208.7230  151.6780 C   0  0  0  0  0  2  0  0  0  0  0  0
  162.4870  210.3270  152.7540 O   0  0  0  0  0  0  0  0  0  0  0  0
  161.5400  209.5040  152.8750 C   0  0  0  0  0  0  0  0  0  0  0  0
  160.8440  209.3320  154.1700 C   0  0  0  0  0  0  0  0  0  0  0  0
  161.2050  208.2610  155.1580 C   0  0  1  0  0  3  0  0  0  0  0  0
  159.3950  209.6140  155.8870 N   0  0  0  0  0  2  0  0  0  0  0  0
  159.8490  210.0770  154.6320 C   0  0  0  0  0  0  0  0  0  0  0  0
  159.2030  211.2230  153.9290 C   0  0  0  0  0  1  0  0  0  0  0  0
  160.2250  208.4910  156.3110 C   0  0  1  0  0  3  0  0  0  0  0  0
  160.0460  207.3020  155.3810 C   0  0  0  0  0  2  0  0  0  0  0  0
  161.9140  203.4050  147.4110 C   0  0  0  0  0  2  0  0  0  0  0  0
  161.2100  205.4610  143.7360 C   0  0  0  0  0  3  0  0  0  0  0  0
  162.3110  205.8250  144.5160 C   0  0  0  0  0  3  0  0  0  0  0  0
  162.5440  205.1570  145.7180 C   0  0  0  0  0  3  0  0  0  0  0  0
  160.3810  204.4640  144.1500 N   0  0  0  0  0  0  0  0  0  0  0  0
  160.5920  203.8010  145.3190 C   0  0  0  0  0  3  0  0  0  0  0  0
  161.6800  204.1390  146.1290 C   0  0  0  0  0  0  0  0  0  0  0  0
  3  5  2  0  0  0  0
  3  7  1  0  0  0  0
  4  8  1  0  0  0  0
  5  9  1  0  0  0  0
  6  1  1  0  0  0  0
  6  2  2  0  0  0  0
  7  4  2  0  0  0  0
  8  6  1  0  0  0  0
  9 11  1  0  0  0  0
  9  8  2  0  0  0  0
 10  1  1  0  0  0  0
 11 12  1  6  0  0  0
 11 10  1  0  0  0  0
 13 12  2  0  0  0  0
 14 12  1  0  0  0  0
 15  7  1  0  0  0  0
 15 17  1  0  0  0  0
 16 15  1  0  0  0  0
 17 18  1  0  0  0  0
 18 20  1  0  0  0  0
 19 20  2  0  0  0  0
 20 21  1  0  0  0  0
 21 24  2  0  0  0  0
 21 22  1  0  0  0  0
 22 27  1  6  0  0  0
 22 26  1  0  0  0  0
 23 26  1  0  0  0  0
 24 23  1  0  0  0  0
 25 24  1  0  0  0  0
 26 27  1  6  0  0  0
 28  5  1  0  0  0  0
 29 32  2  0  0  0  0
 29 30  1  0  0  0  0
 30 31  2  0  0  0  0
 31 34  1  0  0  0  0
 32 33  1  0  0  0  0
 33 34  2  0  0  0  0
 34 28  1  0  0  0  0
M  END
>  <MODEL>
5

>  <REMARK>
 VINA RESULT:      -6.8      2.606      8.083
  Name = 
  8 active torsions:
  status: ('A' for Active; 'I' for Inactive)
    1  A    between atoms: C_3  and  C_10
    2  A    between atoms: C_3  and  C_32
    3  A    between atoms: C_5  and  N_25
    4  A    between atoms: C_5  and  C_34
    5  A    between atoms: C_8  and  C_14
    6  A    between atoms: C_14  and  C_34
    7  A    between atoms: C_15  and  C_30
    8  A    between atoms: C_22  and  N_25
                            x       y       z     vdW  Elec       q    Type
                         _______ _______ _______ _____ _____    ______ ____

>  <TORSDO>
F 8

$$$$
=
 OpenBabel11072413153D

 34 38  0  0  1  0  0  0  0  0999 V2000
  161.1400  205.3200  148.4100 N   0  0  0  0  0  2  0  0  0  0  0  0
  161.3000  206.8990  146.7170 O   0  0  0  0  0  0  0  0  0  0  0  0
  161.7380  209.8470  150.7310 C   0  0  0  0  0  3  0  0  0  0  0  0
  161.8370  209.0210  148.4770 C   0  0  0  0  0  3  0  0  0  0  0  0
  161.5010  208.5550  151.2170 C   0  0  0  0  0  0  0  0  0  0  0  0
  161.3570  206.6480  147.9510 C   0  0  0  0  0  0  0  0  0  0  0  0
  161.9420  210.0900  149.3700 C   0  0  0  0  0  0  0  0  0  0  0  0
  161.5910  207.7200  148.9320 C   0  0  0  0  0  0  0  0  0  0  0  0
  161.4800  207.4510  150.3190 C   0  0  0  0  0  0  0  0  0  0  0  0
  161.5480  204.9480  149.7530 C   0  0  0  0  0  2  0  0  0  0  0  0
  161.1750  206.0200  150.7860 C   0  0  1  0  0  3  0  0  0  0  0  0
  161.8800  205.6470  152.0510 C   0  0  0  0  0  0  0  0  0  0  0  0
  163.2540  205.8310  152.1720 O   0  0  0  0  0  0  0  0  0  0  0  0
  161.2330  205.1390  153.0030 O   0  0  0  0  0  1  0  0  0  0  0  0
  162.2010  211.4250  148.8920 N   0  0  0  0  0  0  0  0  0  0  0  0
  163.4150  211.7290  148.1490 C   0  0  0  0  0  1  0  0  0  0  0  0
  161.2300  212.5030  149.0570 C   0  0  0  0  0  2  0  0  0  0  0  0
  161.7280  213.7890  148.4070 C   0  0  0  0  0  2  0  0  0  0  0  0
  161.7180  214.4440  146.1260 O   0  0  0  0  0  0  0  0  0  0  0  0
  161.0390  214.0310  147.1050 C   0  0  0  0  0  0  0  0  0  0  0  0
  159.5910  213.7600  146.9650 C   0  0  1  0  0  3  0  0  0  0  0  0
  158.5480  214.4180  147.8210 C   0  0  1  0  0  3  0  0  0  0  0  0
  157.6240  212.8910  146.2560 N   0  0  0  0  0  0  0  0  0  0  0  0
  159.0260  212.9390  146.0900 C   0  0  0  0  0  0  0  0  0  0  0  0
  159.7360  212.0930  145.0880 C   0  0  0  0  0  1  0  0  0  0  0  0
  157.2340  213.8280  147.3050 C   0  0  1  0  0  3  0  0  0  0  0  0
  157.7890  213.3960  148.6530 C   0  0  0  0  0  2  0  0  0  0  0  0
  161.1520  208.4130  152.6710 C   0  0  0  0  0  2  0  0  0  0  0  0
  159.8060  212.0710  154.4130 C   0  0  0  0  0  3  0  0  0  0  0  0
  159.0600  211.4970  153.3790 C   0  0  0  0  0  3  0  0  0  0  0  0
  159.4970  210.3030  152.8060 C   0  0  0  0  0  3  0  0  0  0  0  0
  160.9430  211.4650  154.8510 N   0  0  0  0  0  0  0  0  0  0  0  0
  161.3840  210.3000  154.3050 C   0  0  0  0  0  3  0  0  0  0  0  0
  160.6690  209.6970  153.2660 C   0  0  0  0  0  0  0  0  0  0  0  0
  1 10  1  0  0  0  0
  2  6  2  0  0  0  0
  3  5  1  0  0  0  0
  4  8  2  0  0  0  0
  4  7  1  0  0  0  0
  5 28  1  0  0  0  0
  6  1  1  0  0  0  0
  6  8  1  0  0  0  0
  7  3  2  0  0  0  0
  8  9  1  0  0  0  0
  9 11  1  0  0  0  0
  9  5  2  0  0  0  0
 10 11  1  0  0  0  0
 11 12  1  1  0  0  0
 12 13  2  0  0  0  0
 12 14  1  0  0  0  0
 15 17  1  0  0  0  0
 15  7  1  0  0  0  0
 16 15  1  0  0  0  0
 18 17  1  0  0  0  0
 19 20  2  0  0  0  0
 20 18  1  0  0  0  0
 21 20  1  6  0  0  0
 21 22  1  0  0  0  0
 22 27  1  1  0  0  0
 23 26  1  0  0  0  0
 24 23  2  0  0  0  0
 24 21  1  0  0  0  0
 25 24  1  0  0  0  0
 26 22  1  0  0  0  0
 26 27  1  1  0  0  0
 28 34  1  0  0  0  0
 29 32  1  0  0  0  0
 30 29  2  0  0  0  0
 31 34  2  0  0  0  0
 31 30  1  0  0  0  0
 33 32  2  0  0  0  0
 34 33  1  0  0  0  0
M  END
>  <MODEL>
6

>  <REMARK>
 VINA RESULT:      -6.6      2.651      6.847
  Name = 
  8 active torsions:
  status: ('A' for Active; 'I' for Inactive)
    1  A    between atoms: C_3  and  C_10
    2  A    between atoms: C_3  and  C_32
    3  A    between atoms: C_5  and  N_25
    4  A    between atoms: C_5  and  C_34
    5  A    between atoms: C_8  and  C_14
    6  A    between atoms: C_14  and  C_34
    7  A    between atoms: C_15  and  C_30
    8  A    between atoms: C_22  and  N_25
                            x       y       z     vdW  Elec       q    Type
                         _______ _______ _______ _____ _____    ______ ____

>  <TORSDO>
F 8

$$$$
=
 OpenBabel11072413153D

 34 38  0  0  1  0  0  0  0  0999 V2000
  161.0020  202.9700  150.1210 N   0  0  0  0  0  2  0  0  0  0  0  0
  160.5720  202.9770  152.4010 O   0  0  0  0  0  0  0  0  0  0  0  0
  161.5850  207.8170  151.6700 C   0  0  0  0  0  3  0  0  0  0  0  0
  160.7830  205.7680  152.6320 C   0  0  0  0  0  3  0  0  0  0  0  0
  161.7940  207.1820  150.4380 C   0  0  0  0  0  0  0  0  0  0  0  0
  160.8230  203.6430  151.3610 C   0  0  0  0  0  0  0  0  0  0  0  0
  161.0490  207.1330  152.7630 C   0  0  0  0  0  0  0  0  0  0  0  0
  160.9910  205.1030  151.4190 C   0  0  0  0  0  0  0  0  0  0  0  0
  161.4420  205.8130  150.2770 C   0  0  0  0  0  0  0  0  0  0  0  0
  160.9330  203.7210  148.8800 C   0  0  0  0  0  2  0  0  0  0  0  0
  161.6940  205.0500  148.9680 C   0  0  1  0  0  3  0  0  0  0  0  0
  161.3200  205.8300  147.7480 C   0  0  0  0  0  0  0  0  0  0  0  0
  162.2620  206.0800  146.7560 O   0  0  0  0  0  0  0  0  0  0  0  0
  160.1530  206.2860  147.6300 O   0  0  0  0  0  1  0  0  0  0  0  0
  160.8270  207.8100  154.0170 N   0  0  0  0  0  0  0  0  0  0  0  0
  160.7470  207.0630  155.2640 C   0  0  0  0  0  1  0  0  0  0  0  0
  160.7560  209.2650  154.1030 C   0  0  0  0  0  2  0  0  0  0  0  0
  159.8810  209.7000  155.2740 C   0  0  0  0  0  2  0  0  0  0  0  0
  160.6960  211.9170  155.5000 O   0  0  0  0  0  0  0  0  0  0  0  0
  159.6960  211.1810  155.2810 C   0  0  0  0  0  0  0  0  0  0  0  0
  158.3660  211.7690  155.0050 C   0  0  1  0  0  3  0  0  0  0  0  0
  157.2430  211.7570  156.0010 C   0  0  1  0  0  3  0  0  0  0  0  0
  156.6430  212.7880  153.9490 N   0  0  0  0  0  0  0  0  0  0  0  0
  157.9930  212.3780  153.8880 C   0  0  0  0  0  0  0  0  0  0  0  0
  158.8250  212.5670  152.6650 C   0  0  0  0  0  1  0  0  0  0  0  0
  156.1050  212.4690  155.2670 C   0  0  1  0  0  3  0  0  0  0  0  0
  156.0530  210.9650  155.4830 C   0  0  0  0  0  2  0  0  0  0  0  0
  162.5050  207.9600  149.3680 C   0  0  0  0  0  2  0  0  0  0  0  0
  161.4530  212.0970  149.3370 C   0  0  0  0  0  3  0  0  0  0  0  0
  161.6430  211.4550  150.5640 C   0  0  0  0  0  3  0  0  0  0  0  0
  161.9860  210.1030  150.5790 C   0  0  0  0  0  3  0  0  0  0  0  0
  161.6030  211.4060  148.1750 N   0  0  0  0  0  0  0  0  0  0  0  0
  161.9370  210.0860  148.1700 C   0  0  0  0  0  3  0  0  0  0  0  0
  162.1320  209.4080  149.3750 C   0  0  0  0  0  0  0  0  0  0  0  0
  1  6  1  0  0  0  0
  3  7  1  0  0  0  0
  4  7  2  0  0  0  0
  5  3  2  0  0  0  0
  6  8  1  0  0  0  0
  6  2  2  0  0  0  0
  7 15  1  0  0  0  0
  8  4  1  0  0  0  0
  9  5  1  0  0  0  0
  9  8  2  0  0  0  0
 10 11  1  0  0  0  0
 10  1  1  0  0  0  0
 11 12  1  6  0  0  0
 11  9  1  0  0  0  0
 13 12  2  0  0  0  0
 14 12  1  0  0  0  0
 15 17  1  0  0  0  0
 15 16  1  0  0  0  0
 17 18  1  0  0  0  0
 18 20  1  0  0  0  0
 20 19  2  0  0  0  0
 21 20  1  1  0  0  0
 21 22  1  0  0  0  0
 22 27  1  6  0  0  0
 23 26  1  0  0  0  0
 24 23  2  0  0  0  0
 24 21  1  0  0  0  0
 25 24  1  0  0  0  0
 26 27  1  6  0  0  0
 26 22  1  0  0  0  0
 28 34  1  0  0  0  0
 28  5  1  0  0  0  0
 29 30  1  0  0  0  0
 30 31  2  0  0  0  0
 32 29  2  0  0  0  0
 33 32  1  0  0  0  0
 33 34  2  0  0  0  0
 34 31  1  0  0  0  0
M  END
>  <MODEL>
7

>  <REMARK>
 VINA RESULT:      -6.6      1.951      7.460
  Name = 
  8 active torsions:
  status: ('A' for Active; 'I' for Inactive)
    1  A    between atoms: C_3  and  C_10
    2  A    between atoms: C_3  and  C_32
    3  A    between atoms: C_5  and  N_25
    4  A    between atoms: C_5  and  C_34
    5  A    between atoms: C_8  and  C_14
    6  A    between atoms: C_14  and  C_34
    7  A    between atoms: C_15  and  C_30
    8  A    between atoms: C_22  and  N_25
                            x       y       z     vdW  Elec       q    Type
                         _______ _______ _______ _____ _____    ______ ____

>  <TORSDO>
F 8

$$$$
=
 OpenBabel11072413153D

 34 38  0  0  1  0  0  0  0  0999 V2000
  160.8400  204.1950  147.8020 N   0  0  0  0  0  2  0  0  0  0  0  0
  161.0670  206.0930  146.4870 O   0  0  0  0  0  0  0  0  0  0  0  0
  161.4220  208.1170  151.0440 C   0  0  0  0  0  3  0  0  0  0  0  0
  161.5780  207.7840  148.6700 C   0  0  0  0  0  3  0  0  0  0  0  0
  161.1570  206.7550  151.2390 C   0  0  0  0  0  0  0  0  0  0  0  0
  161.0860  205.5860  147.6400 C   0  0  0  0  0  0  0  0  0  0  0  0
  161.6690  208.6380  149.7710 C   0  0  0  0  0  0  0  0  0  0  0  0
  161.3030  206.4220  148.8320 C   0  0  0  0  0  0  0  0  0  0  0  0
  161.1500  205.8670  150.1280 C   0  0  0  0  0  0  0  0  0  0  0  0
  161.2040  203.5390  149.0460 C   0  0  0  0  0  2  0  0  0  0  0  0
  160.8140  204.3750  150.2720 C   0  0  1  0  0  3  0  0  0  0  0  0
  161.4790  203.7310  151.4470 C   0  0  0  0  0  0  0  0  0  0  0  0
  160.7370  202.9780  152.3500 O   0  0  0  0  0  1  0  0  0  0  0  0
  162.7120  203.8940  151.6360 O   0  0  0  0  0  0  0  0  0  0  0  0
  161.9570  210.0400  149.5940 N   0  0  0  0  0  0  0  0  0  0  0  0
  162.3340  210.8720  150.7270 C   0  0  0  0  0  1  0  0  0  0  0  0
  161.9650  210.6630  148.2750 C   0  0  0  0  0  2  0  0  0  0  0  0
  162.8510  211.9040  148.2630 C   0  0  0  0  0  2  0  0  0  0  0  0
  162.7030  213.6670  146.6820 O   0  0  0  0  0  0  0  0  0  0  0  0
  162.1440  213.0590  147.6350 C   0  0  0  0  0  0  0  0  0  0  0  0
  160.8000  213.4580  148.1070 C   0  0  0  0  0  0  0  0  0  0  0  0
  160.5670  214.1750  149.4040 C   0  0  1  0  0  3  0  0  0  0  0  0
  158.5560  213.7340  148.2230 N   0  0  0  0  0  2  0  0  0  0  0  0
  159.6530  213.2590  147.4710 C   0  0  0  0  0  0  0  0  0  0  0  0
  159.4770  212.5620  146.1640 C   0  0  0  0  0  1  0  0  0  0  0  0
  159.0490  214.3640  149.4430 C   0  0  1  0  0  3  0  0  0  0  0  0
  159.7150  213.3430  150.3510 C   0  0  0  0  0  2  0  0  0  0  0  0
  160.7650  206.3150  152.6210 C   0  0  0  0  0  2  0  0  0  0  0  0
  160.9390  209.4740  155.4870 C   0  0  0  0  0  3  0  0  0  0  0  0
  160.5150  209.7610  154.1870 C   0  0  0  0  0  3  0  0  0  0  0  0
  160.4570  208.7330  153.2470 C   0  0  0  0  0  3  0  0  0  0  0  0
  161.2890  208.2030  155.8250 N   0  0  0  0  0  0  0  0  0  0  0  0
  161.2400  207.1870  154.9220 C   0  0  0  0  0  3  0  0  0  0  0  0
  160.8250  207.4340  153.6110 C   0  0  0  0  0  0  0  0  0  0  0  0
  1 10  1  0  0  0  0
  2  6  2  0  0  0  0
  3  5  1  0  0  0  0
  4  8  2  0  0  0  0
  4  7  1  0  0  0  0
  5 28  1  0  0  0  0
  6  1  1  0  0  0  0
  6  8  1  0  0  0  0
  7  3  2  0  0  0  0
  8  9  1  0  0  0  0
  9 11  1  0  0  0  0
  9  5  2  0  0  0  0
 10 11  1  0  0  0  0
 11 12  1  1  0  0  0
 12 14  2  0  0  0  0
 12 13  1  0  0  0  0
 15  7  1  0  0  0  0
 15 16  1  0  0  0  0
 17 15  1  0  0  0  0
 18 17  1  0  0  0  0
 19 20  2  0  0  0  0
 20 21  1  0  0  0  0
 20 18  1  0  0  0  0
 21 22  1  0  0  0  0
 22 26  1  0  0  0  0
 22 27  1  1  0  0  0
 23 26  1  0  0  0  0
 24 21  2  0  0  0  0
 24 23  1  0  0  0  0
 25 24  1  0  0  0  0
 26 27  1  1  0  0  0
 28 34  1  0  0  0  0
 29 32  1  0  0  0  0
 30 29  2  0  0  0  0
 31 34  2  0  0  0  0
 31 30  1  0  0  0  0
 33 32  2  0  0  0  0
 34 33  1  0  0  0  0
M  END
>  <MODEL>
8

>  <REMARK>
 VINA RESULT:      -6.6      2.730      7.315
  Name = 
  8 active torsions:
  status: ('A' for Active; 'I' for Inactive)
    1  A    between atoms: C_3  and  C_10
    2  A    between atoms: C_3  and  C_32
    3  A    between atoms: C_5  and  N_25
    4  A    between atoms: C_5  and  C_34
    5  A    between atoms: C_8  and  C_14
    6  A    between atoms: C_14  and  C_34
    7  A    between atoms: C_15  and  C_30
    8  A    between atoms: C_22  and  N_25
                            x       y       z     vdW  Elec       q    Type
                         _______ _______ _______ _____ _____    ______ ____

>  <TORSDO>
F 8

$$$$
=
 OpenBabel11072413153D

 34 38  0  0  1  0  0  0  0  0999 V2000
  160.8570  206.9160  155.2410 N   0  0  0  0  0  2  0  0  0  0  0  0
  160.9420  205.2060  153.6750 O   0  0  0  0  0  0  0  0  0  0  0  0
  161.1770  209.1870  150.6610 C   0  0  0  0  0  3  0  0  0  0  0  0
  161.3420  206.9440  151.5060 C   0  0  0  0  0  3  0  0  0  0  0  0
  161.0110  209.6870  151.9590 C   0  0  0  0  0  0  0  0  0  0  0  0
  161.0020  206.4430  153.9080 C   0  0  0  0  0  0  0  0  0  0  0  0
  161.3790  207.8250  150.4230 C   0  0  0  0  0  0  0  0  0  0  0  0
  161.1670  207.4120  152.8130 C   0  0  0  0  0  0  0  0  0  0  0  0
  161.0600  208.8020  153.0720 C   0  0  0  0  0  0  0  0  0  0  0  0
  161.2750  208.2670  155.5740 C   0  0  0  0  0  2  0  0  0  0  0  0
  160.8330  209.2840  154.5130 C   0  0  1  0  0  3  0  0  0  0  0  0
  161.5480  210.5580  154.8300 C   0  0  0  0  0  0  0  0  0  0  0  0
  162.9290  210.6440  154.6930 O   0  0  0  0  0  0  0  0  0  0  0  0
  160.9000  211.5520  155.2500 O   0  0  0  0  0  1  0  0  0  0  0  0
  161.5650  207.3330  149.0800 N   0  0  0  0  0  0  0  0  0  0  0  0
  162.7160  207.7440  148.2890 C   0  0  0  0  0  1  0  0  0  0  0  0
  160.6650  206.3480  148.4900 C   0  0  0  0  0  2  0  0  0  0  0  0
  161.4450  205.1650  147.9270 C   0  0  0  0  0  2  0  0  0  0  0  0
  160.7410  203.9690  149.8520 O   0  0  0  0  0  0  0  0  0  0  0  0
  161.0920  203.9030  148.6430 C   0  0  0  0  0  0  0  0  0  0  0  0
  161.1270  202.6060  147.9310 C   0  0  1  0  0  3  0  0  0  0  0  0
  161.2480  202.4940  146.4400 C   0  0  1  0  0  3  0  0  0  0  0  0
  161.0940  200.3810  147.5120 N   0  0  0  0  0  0  0  0  0  0  0  0
  161.0730  201.4030  148.4870 C   0  0  0  0  0  0  0  0  0  0  0  0
  160.9310  201.1080  149.9420 C   0  0  0  0  0  1  0  0  0  0  0  0
  161.2440  200.9840  146.1910 C   0  0  1  0  0  3  0  0  0  0  0  0
  160.0250  201.8200  145.8350 C   0  0  0  0  0  2  0  0  0  0  0  0
  160.6590  211.1400  152.1040 C   0  0  0  0  0  2  0  0  0  0  0  0
  161.1360  213.3260  148.4680 C   0  0  0  0  0  3  0  0  0  0  0  0
  161.9800  212.2420  148.7220 C   0  0  0  0  0  3  0  0  0  0  0  0
  161.8280  211.5250  149.9090 C   0  0  0  0  0  3  0  0  0  0  0  0
  160.1790  213.6730  149.3710 N   0  0  0  0  0  0  0  0  0  0  0  0
  160.0170  212.9860  150.5350 C   0  0  0  0  0  3  0  0  0  0  0  0
  160.8430  211.8980  150.8280 C   0  0  0  0  0  0  0  0  0  0  0  0
  1 10  1  0  0  0  0
  2  6  2  0  0  0  0
  3  5  1  0  0  0  0
  4  8  2  0  0  0  0
  5 28  1  0  0  0  0
  5  9  2  0  0  0  0
  6  1  1  0  0  0  0
  7  3  2  0  0  0  0
  7  4  1  0  0  0  0
  8  9  1  0  0  0  0
  8  6  1  0  0  0  0
  9 11  1  0  0  0  0
 11 12  1  1  0  0  0
 11 10  1  0  0  0  0
 12 14  1  0  0  0  0
 13 12  2  0  0  0  0
 15  7  1  0  0  0  0
 16 15  1  0  0  0  0
 17 15  1  0  0  0  0
 18 17  1  0  0  0  0
 18 20  1  0  0  0  0
 20 19  2  0  0  0  0
 21 24  1  0  0  0  0
 21 20  1  1  0  0  0
 22 27  1  6  0  0  0
 22 21  1  0  0  0  0
 23 24  2  0  0  0  0
 24 25  1  0  0  0  0
 26 27  1  6  0  0  0
 26 22  1  0  0  0  0
 26 23  1  0  0  0  0
 29 30  2  0  0  0  0
 29 32  1  0  0  0  0
 30 31  1  0  0  0  0
 31 34  2  0  0  0  0
 32 33  2  0  0  0  0
 33 34  1  0  0  0  0
 34 28  1  0  0  0  0
M  END
>  <MODEL>
9

>  <REMARK>
 VINA RESULT:      -6.6      1.719      2.667
  Name = 
  8 active torsions:
  status: ('A' for Active; 'I' for Inactive)
    1  A    between atoms: C_3  and  C_10
    2  A    between atoms: C_3  and  C_32
    3  A    between atoms: C_5  and  N_25
    4  A    between atoms: C_5  and  C_34
    5  A    between atoms: C_8  and  C_14
    6  A    between atoms: C_14  and  C_34
    7  A    between atoms: C_15  and  C_30
    8  A    between atoms: C_22  and  N_25
                            x       y       z     vdW  Elec       q    Type
                         _______ _______ _______ _____ _____    ______ ____

>  <TORSDO>
F 8

$$$$
