=
 OpenBabel11072413093D

 35 37  0  0  1  0  0  0  0  0999 V2000
  162.3610  209.9400  151.9810 C   0  0  0  0  0  2  0  0  0  0  0  0
  161.3900  207.0850  152.1480 C   0  0  0  0  0  0  0  0  0  0  0  0
  161.1050  208.1310  153.1480 C   0  0  0  0  0  3  0  0  0  0  0  0
  161.4640  209.4160  153.0620 C   0  0  0  0  0  0  0  0  0  0  0  0
  162.2200  208.4410  150.1970 C   0  0  0  0  0  2  0  0  0  0  0  0
  161.5630  205.8430  152.5930 C   0  0  0  0  0  3  0  0  0  0  0  0
  161.7640  209.7380  150.6720 N   0  0  0  0  0  2  0  0  0  0  0  0
  161.2730  207.3510  150.6720 C   0  0  0  0  0  2  0  0  0  0  0  0
  160.2610  203.3450  152.8460 O   0  0  0  0  0  0  0  0  0  0  0  0
  161.7460  204.7420  151.7020 N   0  0  0  0  0  2  0  0  0  0  0  0
  161.0550  203.5060  151.8800 C   0  0  0  0  0  0  0  0  0  0  0  0
  161.2930  202.3820  150.9310 C   0  0  0  0  0  2  0  0  0  0  0  0
  160.3330  202.4580  149.7540 C   0  0  0  0  0  2  0  0  0  0  0  0
  160.3340  201.2440  149.0430 O   0  0  0  0  0  0  0  0  0  0  0  0
  161.5150  200.0840  147.4070 O   0  0  0  0  0  1  0  0  0  0  0  0
  161.2530  201.3370  147.9730 C   0  0  1  0  0  3  0  0  0  0  0  0
  160.8190  202.3490  146.9120 C   0  0  0  0  0  2  0  0  0  0  0  0
  161.6730  203.6060  146.9750 C   0  0  0  0  0  2  0  0  0  0  0  0
  161.8520  204.1580  145.6390 N   0  0  0  0  0  0  0  0  0  0  0  0
  160.8240  203.7170  144.8710 O   0  0  0  0  0  1  0  0  0  0  0  0
  162.1720  206.1540  147.1110 C   0  0  0  0  0  1  0  0  0  0  0  0
  160.4160  206.1200  145.3420 C   0  0  0  0  0  1  0  0  0  0  0  0
  161.7950  205.6220  145.7310 C   0  0  0  0  0  3  0  0  0  0  0  0
  161.0150  210.3530  154.1300 C   0  0  0  0  0  2  0  0  0  0  0  0
  158.6960  212.6850  152.2580 N   0  0  0  0  0  0  0  0  0  0  0  0
  158.1140  212.4180  153.3780 C   0  0  2  0  0  3  0  0  0  0  0  0
  158.3800  211.1750  155.3900 N   0  0  0  0  0  0  0  0  0  0  0  0
  158.8410  211.6000  154.1860 C   0  0  0  0  0  0  0  0  0  0  0  0
  159.9820  211.2980  153.6040 C   0  0  0  0  0  0  0  0  0  0  0  0
  156.4020  212.4320  155.0100 N   0  0  0  0  0  0  0  0  0  0  0  0
  159.9770  211.9700  152.2620 C   0  0  0  0  0  3  0  0  0  0  0  0
  157.1480  211.5990  155.8000 C   0  0  0  0  0  3  0  0  0  0  0  0
  156.8620  212.8580  153.7930 C   0  0  0  0  0  0  0  0  0  0  0  0
  156.0990  213.7010  152.9820 O   0  0  0  0  0  0  0  0  0  0  0  0
  154.7290  213.9580  153.2460 C   0  0  0  0  0  1  0  0  0  0  0  0
  1  4  1  0  0  0  0
  2  6  2  0  0  0  0
  2  3  1  0  0  0  0
  4  3  2  0  0  0  0
  4 24  1  0  0  0  0
  5  7  1  0  0  0  0
  5  8  1  0  0  0  0
  7  1  1  0  0  0  0
  8  2  1  0  0  0  0
 10 11  1  0  0  0  0
 10  6  1  0  0  0  0
 11  9  2  0  0  0  0
 12 11  1  0  0  0  0
 13 12  1  0  0  0  0
 14 13  1  0  0  0  0
 16 15  1  6  0  0  0
 16 14  1  0  0  0  0
 17 18  1  0  0  0  0
 17 16  1  0  0  0  0
 19 23  1  0  0  0  0
 19 18  1  0  0  0  0
 20 19  1  0  0  0  0
 22 23  1  0  0  0  0
 23 21  1  0  0  0  0
 25 31  2  0  0  0  0
 26 25  1  6  0  0  0
 26 33  1  0  0  0  0
 26 28  1  0  0  0  0
 27 32  2  0  0  0  0
 28 27  1  0  0  0  0
 29 24  1  0  0  0  0
 29 28  2  0  0  0  0
 30 32  1  0  0  0  0
 31 29  1  0  0  0  0
 33 30  2  0  0  0  0
 34 35  1  0  0  0  0
 34 33  1  0  0  0  0
M  END
>  <MODEL>
1

>  <REMARK>
 VINA RESULT:      -7.6      0.000      0.000
  Name = 
  12 active torsions:
  status: ('A' for Active; 'I' for Inactive)
    1  A    between atoms: O_1  and  C_34
    2  A    between atoms: C_7  and  C_9
    3  A    between atoms: C_9  and  C_18
    4  A    between atoms: C_13  and  N_25
    5  A    between atoms: C_14  and  C_30
    6  A    between atoms: C_14  and  O_33
    7  A    between atoms: C_22  and  C_24
    8  A    between atoms: C_22  and  O_33
    9  A    between atoms: C_23  and  N_26
   10  A    between atoms: C_24  and  C_27
   11  A    between atoms: N_26  and  C_28
   12  A    between atoms: C_28  and  C_30
                            x       y       z     vdW  Elec       q    Type
                         _______ _______ _______ _____ _____    ______ ____

>  <TORSDO>
F 12

$$$$
=
 OpenBabel11072413093D

 35 37  0  0  1  0  0  0  0  0999 V2000
  160.7460  206.9270  154.2730 C   0  0  0  0  0  2  0  0  0  0  0  0
  161.2920  207.4200  151.3440 C   0  0  0  0  0  0  0  0  0  0  0  0
  161.4500  208.4260  152.4110 C   0  0  0  0  0  3  0  0  0  0  0  0
  161.2810  208.2130  153.7190 C   0  0  0  0  0  0  0  0  0  0  0  0
  161.1350  205.2830  152.6630 C   0  0  0  0  0  2  0  0  0  0  0  0
  160.8670  207.8450  150.1570 C   0  0  0  0  0  3  0  0  0  0  0  0
  161.6150  205.8150  153.9290 N   0  0  0  0  0  2  0  0  0  0  0  0
  161.7980  206.0120  151.5060 C   0  0  0  0  0  2  0  0  0  0  0  0
  162.6650  207.8530  147.9740 O   0  0  0  0  0  0  0  0  0  0  0  0
  160.7750  206.9720  149.0320 N   0  0  0  0  0  2  0  0  0  0  0  0
  161.7180  207.0210  147.9610 C   0  0  0  0  0  0  0  0  0  0  0  0
  161.5680  206.0970  146.8010 C   0  0  0  0  0  2  0  0  0  0  0  0
  162.9210  205.5640  146.3580 C   0  0  0  0  0  2  0  0  0  0  0  0
  162.7560  204.4630  145.4980 O   0  0  0  0  0  0  0  0  0  0  0  0
  160.8790  204.3620  144.1270 O   0  0  0  0  0  1  0  0  0  0  0  0
  161.3820  204.1440  145.4150 C   0  0  1  0  0  3  0  0  0  0  0  0
  161.0760  202.7270  145.9020 C   0  0  0  0  0  2  0  0  0  0  0  0
  161.3450  202.5930  147.3930 C   0  0  0  0  0  2  0  0  0  0  0  0
  160.5860  201.4770  147.9400 N   0  0  0  0  0  0  0  0  0  0  0  0
  161.3850  200.3810  147.9060 O   0  0  0  0  0  1  0  0  0  0  0  0
  160.5530  203.2300  149.7230 C   0  0  0  0  0  1  0  0  0  0  0  0
  160.9600  200.8320  150.2730 C   0  0  0  0  0  1  0  0  0  0  0  0
  160.2460  201.7850  149.3340 C   0  0  0  0  0  3  0  0  0  0  0  0
  161.5660  209.3300  154.6640 C   0  0  0  0  0  2  0  0  0  0  0  0
  158.4460  211.0690  155.9130 N   0  0  0  0  0  0  0  0  0  0  0  0
  158.7840  211.6730  154.8250 C   0  0  0  0  0  0  0  0  0  0  0  0
  160.4230  211.6660  153.1000 N   0  0  0  0  0  0  0  0  0  0  0  0
  159.8890  211.1430  154.2330 C   0  0  0  0  0  0  0  0  0  0  0  0
  160.3250  210.1200  154.9360 C   0  0  0  0  0  0  0  0  0  0  0  0
  158.6970  213.2960  153.1070 N   0  0  0  0  0  0  0  0  0  0  0  0
  159.4210  209.9950  156.1280 C   0  0  0  0  0  2  0  0  0  0  0  0
  159.8160  212.7520  152.5360 C   0  0  0  0  0  3  0  0  0  0  0  0
  158.1580  212.7740  154.2530 C   0  0  0  0  0  0  0  0  0  0  0  0
  157.0220  213.3330  154.8410 O   0  0  0  0  0  0  0  0  0  0  0  0
  155.7120  212.9810  154.4280 C   0  0  0  0  0  1  0  0  0  0  0  0
  2  8  1  0  0  0  0
  2  3  1  0  0  0  0
  3  4  2  0  0  0  0
  4  1  1  0  0  0  0
  4 24  1  0  0  0  0
  5  7  1  0  0  0  0
  6  2  2  0  0  0  0
  7  1  1  0  0  0  0
  8  5  1  0  0  0  0
 10  6  1  0  0  0  0
 11  9  2  0  0  0  0
 11 10  1  0  0  0  0
 12 11  1  0  0  0  0
 13 12  1  0  0  0  0
 14 13  1  0  0  0  0
 16 15  1  6  0  0  0
 16 14  1  0  0  0  0
 16 17  1  0  0  0  0
 17 18  1  0  0  0  0
 18 19  1  0  0  0  0
 19 23  1  0  0  0  0
 20 19  1  0  0  0  0
 23 21  1  0  0  0  0
 23 22  1  0  0  0  0
 24 29  1  0  0  0  0
 25 31  1  0  0  0  0
 26 25  2  0  0  0  0
 27 28  1  0  0  0  0
 28 26  1  0  0  0  0
 28 29  2  0  0  0  0
 29 31  1  0  0  0  0
 30 33  2  0  0  0  0
 32 27  2  0  0  0  0
 32 30  1  0  0  0  0
 33 26  1  0  0  0  0
 33 34  1  0  0  0  0
 35 34  1  0  0  0  0
M  END
>  <MODEL>
2

>  <REMARK>
 VINA RESULT:      -7.5      1.857      3.891
  Name = 
  12 active torsions:
  status: ('A' for Active; 'I' for Inactive)
    1  A    between atoms: O_1  and  C_34
    2  A    between atoms: C_7  and  C_9
    3  A    between atoms: C_9  and  C_18
    4  A    between atoms: C_13  and  N_25
    5  A    between atoms: C_14  and  C_30
    6  A    between atoms: C_14  and  O_33
    7  A    between atoms: C_22  and  C_24
    8  A    between atoms: C_22  and  O_33
    9  A    between atoms: C_23  and  N_26
   10  A    between atoms: C_24  and  C_27
   11  A    between atoms: N_26  and  C_28
   12  A    between atoms: C_28  and  C_30
                            x       y       z     vdW  Elec       q    Type
                         _______ _______ _______ _____ _____    ______ ____

>  <TORSDO>
F 12

$$$$
=
 OpenBabel11072413093D

 35 37  0  0  1  0  0  0  0  0999 V2000
  159.3380  209.6170  155.5430 C   0  0  0  0  0  2  0  0  0  0  0  0
  161.0190  207.7290  153.8920 C   0  0  0  0  0  0  0  0  0  0  0  0
  161.1330  209.1990  153.8660 C   0  0  0  0  0  3  0  0  0  0  0  0
  160.4500  210.0510  154.6370 C   0  0  0  0  0  0  0  0  0  0  0  0
  159.6650  207.3470  155.9780 C   0  0  0  0  0  2  0  0  0  0  0  0
  161.2190  207.0780  152.7480 C   0  0  0  0  0  3  0  0  0  0  0  0
  159.8220  208.6790  156.5410 N   0  0  0  0  0  2  0  0  0  0  0  0
  160.9050  206.9670  155.1850 C   0  0  0  0  0  2  0  0  0  0  0  0
  161.4240  205.5840  150.3560 O   0  0  0  0  0  0  0  0  0  0  0  0
  161.2300  205.6520  152.6840 N   0  0  0  0  0  2  0  0  0  0  0  0
  161.3400  204.9530  151.4440 C   0  0  0  0  0  0  0  0  0  0  0  0
  161.3300  203.4630  151.4310 C   0  0  0  0  0  2  0  0  0  0  0  0
  160.3550  202.9400  150.3880 C   0  0  0  0  0  2  0  0  0  0  0  0
  160.6880  201.6230  150.0240 O   0  0  0  0  0  0  0  0  0  0  0  0
  161.4610  200.3740  148.2190 O   0  0  0  0  0  1  0  0  0  0  0  0
  161.3890  201.6470  148.7970 C   0  0  1  0  0  3  0  0  0  0  0  0
  160.8230  202.6750  147.8170 C   0  0  0  0  0  2  0  0  0  0  0  0
  161.9240  203.5690  147.2670 C   0  0  0  0  0  2  0  0  0  0  0  0
  161.7770  203.7160  145.8260 N   0  0  0  0  0  0  0  0  0  0  0  0
  160.9300  202.7470  145.3980 O   0  0  0  0  0  1  0  0  0  0  0  0
  161.3870  205.4920  144.1090 C   0  0  0  0  0  1  0  0  0  0  0  0
  161.7450  206.0680  146.5090 C   0  0  0  0  0  1  0  0  0  0  0  0
  161.1870  205.0320  145.5510 C   0  0  0  0  0  3  0  0  0  0  0  0
  160.7560  211.5060  154.5330 C   0  0  0  0  0  2  0  0  0  0  0  0
  158.7810  212.7650  151.5610 N   0  0  0  0  0  0  0  0  0  0  0  0
  158.2130  213.2600  152.6080 C   0  0  2  0  0  3  0  0  0  0  0  0
  158.3550  213.3070  154.9840 N   0  0  0  0  0  0  0  0  0  0  0  0
  158.8280  212.9150  153.7730 C   0  0  0  0  0  0  0  0  0  0  0  0
  159.8740  212.1600  153.5170 C   0  0  0  0  0  0  0  0  0  0  0  0
  156.6020  214.4520  153.8640 N   0  0  0  0  0  0  0  0  0  0  0  0
  159.9230  211.9710  152.0290 C   0  0  0  0  0  3  0  0  0  0  0  0
  157.2320  214.0830  155.0230 C   0  0  0  0  0  3  0  0  0  0  0  0
  157.0730  214.0550  152.6420 C   0  0  0  0  0  0  0  0  0  0  0  0
  156.4270  214.4230  151.4600 O   0  0  0  0  0  0  0  0  0  0  0  0
  155.0400  214.2000  151.2610 C   0  0  0  0  0  1  0  0  0  0  0  0
  1  7  1  0  0  0  0
  2  8  1  0  0  0  0
  3  2  1  0  0  0  0
  3  4  2  0  0  0  0
  4  1  1  0  0  0  0
  5  7  1  0  0  0  0
  6  2  2  0  0  0  0
  8  5  1  0  0  0  0
  9 11  2  0  0  0  0
 10  6  1  0  0  0  0
 11 10  1  0  0  0  0
 12 11  1  0  0  0  0
 13 12  1  0  0  0  0
 14 13  1  0  0  0  0
 16 15  1  6  0  0  0
 16 14  1  0  0  0  0
 17 16  1  0  0  0  0
 18 17  1  0  0  0  0
 19 18  1  0  0  0  0
 20 19  1  0  0  0  0
 21 23  1  0  0  0  0
 23 19  1  0  0  0  0
 23 22  1  0  0  0  0
 24  4  1  0  0  0  0
 25 31  2  0  0  0  0
 26 25  1  1  0  0  0
 26 33  1  0  0  0  0
 26 28  1  0  0  0  0
 27 32  2  0  0  0  0
 28 27  1  0  0  0  0
 29 28  2  0  0  0  0
 29 24  1  0  0  0  0
 30 32  1  0  0  0  0
 31 29  1  0  0  0  0
 33 30  2  0  0  0  0
 34 33  1  0  0  0  0
 35 34  1  0  0  0  0
M  END
>  <MODEL>
3

>  <REMARK>
 VINA RESULT:      -7.4      1.659      2.420
  Name = 
  12 active torsions:
  status: ('A' for Active; 'I' for Inactive)
    1  A    between atoms: O_1  and  C_34
    2  A    between atoms: C_7  and  C_9
    3  A    between atoms: C_9  and  C_18
    4  A    between atoms: C_13  and  N_25
    5  A    between atoms: C_14  and  C_30
    6  A    between atoms: C_14  and  O_33
    7  A    between atoms: C_22  and  C_24
    8  A    between atoms: C_22  and  O_33
    9  A    between atoms: C_23  and  N_26
   10  A    between atoms: C_24  and  C_27
   11  A    between atoms: N_26  and  C_28
   12  A    between atoms: C_28  and  C_30
                            x       y       z     vdW  Elec       q    Type
                         _______ _______ _______ _____ _____    ______ ____

>  <TORSDO>
F 12

$$$$
=
 OpenBabel11072413093D

 35 37  0  0  1  0  0  0  0  0999 V2000
  158.2200  212.8230  153.0220 C   0  0  0  0  0  2  0  0  0  0  0  0
  160.2100  210.5720  152.7180 C   0  0  0  0  0  0  0  0  0  0  0  0
  160.2590  211.8450  151.9750 C   0  0  0  0  0  3  0  0  0  0  0  0
  159.4320  212.8810  152.1410 C   0  0  0  0  0  0  0  0  0  0  0  0
  158.5840  211.1080  154.5620 C   0  0  0  0  0  2  0  0  0  0  0  0
  160.6050  209.4730  152.0790 C   0  0  0  0  0  3  0  0  0  0  0  0
  158.5950  212.5530  154.3990 N   0  0  0  0  0  2  0  0  0  0  0  0
  159.9440  210.5320  154.1980 C   0  0  0  0  0  2  0  0  0  0  0  0
  162.2150  207.3190  151.2040 O   0  0  0  0  0  0  0  0  0  0  0  0
  160.6910  208.2090  152.7370 N   0  0  0  0  0  2  0  0  0  0  0  0
  161.5270  207.1600  152.2480 C   0  0  0  0  0  0  0  0  0  0  0  0
  161.5680  205.8540  152.9630 C   0  0  0  0  0  2  0  0  0  0  0  0
  162.0260  204.7430  152.0310 C   0  0  0  0  0  2  0  0  0  0  0  0
  160.9330  203.9450  151.6460 O   0  0  0  0  0  0  0  0  0  0  0  0
  160.2310  202.5810  149.8970 O   0  0  0  0  0  1  0  0  0  0  0  0
  161.0250  203.6740  150.2620 C   0  0  1  0  0  3  0  0  0  0  0  0
  160.7180  204.9010  149.4010 C   0  0  0  0  0  2  0  0  0  0  0  0
  161.4520  204.8310  148.0710 C   0  0  0  0  0  2  0  0  0  0  0  0
  161.1010  205.9770  147.2440 N   0  0  0  0  0  0  0  0  0  0  0  0
  161.5080  207.0940  147.8960 O   0  0  0  0  0  1  0  0  0  0  0  0
  160.9180  205.5000  144.7960 C   0  0  0  0  0  1  0  0  0  0  0  0
  162.9520  204.8630  146.0900 C   0  0  0  0  0  1  0  0  0  0  0  0
  161.8220  205.8680  145.9700 C   0  0  0  0  0  3  0  0  0  0  0  0
  159.6810  214.1240  151.3580 C   0  0  0  0  0  2  0  0  0  0  0  0
  158.3690  213.6440  147.8420 N   0  0  0  0  0  0  0  0  0  0  0  0
  159.6460  213.7880  147.7340 C   0  0  0  0  0  0  0  0  0  0  0  0
  161.6150  214.1540  149.0200 N   0  0  0  0  0  0  0  0  0  0  0  0
  160.2770  213.9490  148.9300 C   0  0  0  0  0  0  0  0  0  0  0  0
  159.3970  213.9010  149.9070 C   0  0  0  0  0  0  0  0  0  0  0  0
  161.7370  214.0150  146.6530 N   0  0  0  0  0  0  0  0  0  0  0  0
  158.0490  213.7200  149.2720 C   0  0  0  0  0  2  0  0  0  0  0  0
  162.3470  214.1850  147.8670 C   0  0  0  0  0  3  0  0  0  0  0  0
  160.3860  213.8130  146.5580 C   0  0  0  0  0  0  0  0  0  0  0  0
  159.7620  213.6480  145.3200 O   0  0  0  0  0  0  0  0  0  0  0  0
  159.4820  212.3640  144.7850 C   0  0  0  0  0  1  0  0  0  0  0  0
  1  7  1  0  0  0  0
  2  8  1  0  0  0  0
  3  4  2  0  0  0  0
  3  2  1  0  0  0  0
  4  1  1  0  0  0  0
  6  2  2  0  0  0  0
  6 10  1  0  0  0  0
  7  5  1  0  0  0  0
  8  5  1  0  0  0  0
  9 11  2  0  0  0  0
 11 10  1  0  0  0  0
 11 12  1  0  0  0  0
 13 12  1  0  0  0  0
 14 13  1  0  0  0  0
 16 15  1  6  0  0  0
 16 14  1  0  0  0  0
 17 16  1  0  0  0  0
 18 17  1  0  0  0  0
 19 20  1  0  0  0  0
 19 18  1  0  0  0  0
 21 23  1  0  0  0  0
 23 22  1  0  0  0  0
 23 19  1  0  0  0  0
 24  4  1  0  0  0  0
 25 31  1  0  0  0  0
 26 25  2  0  0  0  0
 26 28  1  0  0  0  0
 28 27  1  0  0  0  0
 28 29  2  0  0  0  0
 29 24  1  0  0  0  0
 30 32  1  0  0  0  0
 31 29  1  0  0  0  0
 32 27  2  0  0  0  0
 33 30  2  0  0  0  0
 33 26  1  0  0  0  0
 34 33  1  0  0  0  0
 35 34  1  0  0  0  0
M  END
>  <MODEL>
4

>  <REMARK>
 VINA RESULT:      -7.3      3.430      5.359
  Name = 
  12 active torsions:
  status: ('A' for Active; 'I' for Inactive)
    1  A    between atoms: O_1  and  C_34
    2  A    between atoms: C_7  and  C_9
    3  A    between atoms: C_9  and  C_18
    4  A    between atoms: C_13  and  N_25
    5  A    between atoms: C_14  and  C_30
    6  A    between atoms: C_14  and  O_33
    7  A    between atoms: C_22  and  C_24
    8  A    between atoms: C_22  and  O_33
    9  A    between atoms: C_23  and  N_26
   10  A    between atoms: C_24  and  C_27
   11  A    between atoms: N_26  and  C_28
   12  A    between atoms: C_28  and  C_30
                            x       y       z     vdW  Elec       q    Type
                         _______ _______ _______ _____ _____    ______ ____

>  <TORSDO>
F 12

$$$$
=
 OpenBabel11072413093D

 35 37  0  0  1  0  0  0  0  0999 V2000
  161.5650  206.4990  153.5730 C   0  0  0  0  0  2  0  0  0  0  0  0
  161.3950  208.3820  151.2180 C   0  0  0  0  0  0  0  0  0  0  0  0
  161.2420  206.9170  151.1370 C   0  0  0  0  0  3  0  0  0  0  0  0
  161.2440  206.0720  152.1720 C   0  0  0  0  0  0  0  0  0  0  0  0
  161.1630  208.7950  153.6890 C   0  0  0  0  0  2  0  0  0  0  0  0
  161.9920  208.9940  150.1970 C   0  0  0  0  0  3  0  0  0  0  0  0
  160.6150  207.4940  154.0390 N   0  0  0  0  0  2  0  0  0  0  0  0
  160.7160  209.1900  152.2900 C   0  0  0  0  0  2  0  0  0  0  0  0
  161.5390  210.5260  147.8640 O   0  0  0  0  0  0  0  0  0  0  0  0
  162.1020  210.4150  150.1300 N   0  0  0  0  0  2  0  0  0  0  0  0
  161.8560  211.1340  148.9220 C   0  0  0  0  0  0  0  0  0  0  0  0
  162.0000  212.6170  148.9020 C   0  0  0  0  0  2  0  0  0  0  0  0
  162.9760  213.0490  147.8190 C   0  0  0  0  0  2  0  0  0  0  0  0
  162.3430  213.9100  146.9030 O   0  0  0  0  0  0  0  0  0  0  0  0
  160.6070  213.0360  145.6240 O   0  0  0  0  0  1  0  0  0  0  0  0
  161.9950  213.1770  145.7470 C   0  0  1  0  0  3  0  0  0  0  0  0
  162.6120  213.7580  144.4740 C   0  0  0  0  0  2  0  0  0  0  0  0
  162.4530  212.7990  143.3040 C   0  0  0  0  0  2  0  0  0  0  0  0
  162.0230  213.5250  142.1170 N   0  0  0  0  0  0  0  0  0  0  0  0
  162.9040  213.2460  141.1230 O   0  0  0  0  0  1  0  0  0  0  0  0
  159.5560  213.8800  142.3170 C   0  0  0  0  0  1  0  0  0  0  0  0
  160.5230  211.5880  142.1380 C   0  0  0  0  0  1  0  0  0  0  0  0
  160.6910  213.0410  141.7340 C   0  0  0  0  0  3  0  0  0  0  0  0
  160.9910  204.6260  151.9100 C   0  0  0  0  0  2  0  0  0  0  0  0
  161.1050  204.5240  148.1300 N   0  0  0  0  0  0  0  0  0  0  0  0
  161.0510  203.2970  148.5220 C   0  0  0  0  0  0  0  0  0  0  0  0
  160.9540  201.9490  150.4820 N   0  0  0  0  0  0  0  0  0  0  0  0
  160.9800  203.1630  149.8750 C   0  0  0  0  0  0  0  0  0  0  0  0
  160.9710  204.3510  150.4400 C   0  0  0  0  0  0  0  0  0  0  0  0
  161.0490  200.9390  148.3350 N   0  0  0  0  0  0  0  0  0  0  0  0
  161.0790  205.3610  149.3340 C   0  0  0  0  0  2  0  0  0  0  0  0
  160.9890  200.8310  149.6990 C   0  0  0  0  0  3  0  0  0  0  0  0
  161.0800  202.1620  147.7200 C   0  0  0  0  0  0  0  0  0  0  0  0
  161.1510  202.2740  146.3300 O   0  0  0  0  0  0  0  0  0  0  0  0
  160.2320  201.6110  145.4760 C   0  0  0  0  0  1  0  0  0  0  0  0
  1  7  1  0  0  0  0
  2  8  1  0  0  0  0
  3  2  1  0  0  0  0
  3  4  2  0  0  0  0
  4  1  1  0  0  0  0
  5  7  1  0  0  0  0
  6  2  2  0  0  0  0
  8  5  1  0  0  0  0
  9 11  2  0  0  0  0
 10  6  1  0  0  0  0
 11 10  1  0  0  0  0
 12 11  1  0  0  0  0
 13 12  1  0  0  0  0
 14 13  1  0  0  0  0
 16 15  1  6  0  0  0
 16 14  1  0  0  0  0
 17 16  1  0  0  0  0
 18 17  1  0  0  0  0
 19 18  1  0  0  0  0
 20 19  1  0  0  0  0
 23 19  1  0  0  0  0
 23 22  1  0  0  0  0
 23 21  1  0  0  0  0
 24  4  1  0  0  0  0
 25 26  2  0  0  0  0
 25 31  1  0  0  0  0
 26 28  1  0  0  0  0
 28 29  2  0  0  0  0
 28 27  1  0  0  0  0
 29 24  1  0  0  0  0
 30 32  1  0  0  0  0
 31 29  1  0  0  0  0
 32 27  2  0  0  0  0
 33 30  2  0  0  0  0
 33 26  1  0  0  0  0
 34 33  1  0  0  0  0
 35 34  1  0  0  0  0
M  END
>  <MODEL>
5

>  <REMARK>
 VINA RESULT:      -7.3      4.969      9.533
  Name = 
  12 active torsions:
  status: ('A' for Active; 'I' for Inactive)
    1  A    between atoms: O_1  and  C_34
    2  A    between atoms: C_7  and  C_9
    3  A    between atoms: C_9  and  C_18
    4  A    between atoms: C_13  and  N_25
    5  A    between atoms: C_14  and  C_30
    6  A    between atoms: C_14  and  O_33
    7  A    between atoms: C_22  and  C_24
    8  A    between atoms: C_22  and  O_33
    9  A    between atoms: C_23  and  N_26
   10  A    between atoms: C_24  and  C_27
   11  A    between atoms: N_26  and  C_28
   12  A    between atoms: C_28  and  C_30
                            x       y       z     vdW  Elec       q    Type
                         _______ _______ _______ _____ _____    ______ ____

>  <TORSDO>
F 12

$$$$
=
 OpenBabel11072413093D

 35 37  0  0  1  0  0  0  0  0999 V2000
  160.0490  207.5610  155.0400 C   0  0  0  0  0  2  0  0  0  0  0  0
  161.3170  208.2000  152.3750 C   0  0  0  0  0  0  0  0  0  0  0  0
  161.0040  209.1940  153.4180 C   0  0  0  0  0  3  0  0  0  0  0  0
  160.5080  208.9280  154.6300 C   0  0  0  0  0  0  0  0  0  0  0  0
  161.1350  206.0360  153.6460 C   0  0  0  0  0  2  0  0  0  0  0  0
  161.1830  208.5790  151.1060 C   0  0  0  0  0  3  0  0  0  0  0  0
  161.1460  206.6100  154.9820 N   0  0  0  0  0  2  0  0  0  0  0  0
  161.9740  206.8880  152.7060 C   0  0  0  0  0  2  0  0  0  0  0  0
  162.1300  209.4940  148.6030 O   0  0  0  0  0  0  0  0  0  0  0  0
  161.5540  207.7280  150.0220 N   0  0  0  0  0  2  0  0  0  0  0  0
  162.0310  208.2510  148.7820 C   0  0  0  0  0  0  0  0  0  0  0  0
  162.3900  207.3190  147.6760 C   0  0  0  0  0  2  0  0  0  0  0  0
  161.1420  206.6950  147.0700 C   0  0  0  0  0  2  0  0  0  0  0  0
  161.4640  206.0050  145.8870 O   0  0  0  0  0  0  0  0  0  0  0  0
  161.5410  203.8850  144.9320 O   0  0  0  0  0  1  0  0  0  0  0  0
  161.2390  204.6240  146.0820 C   0  0  1  0  0  3  0  0  0  0  0  0
  161.9720  204.0760  147.3070 C   0  0  0  0  0  2  0  0  0  0  0  0
  161.0250  203.2970  148.2060 C   0  0  0  0  0  2  0  0  0  0  0  0
  161.1780  203.7290  149.5890 N   0  0  0  0  0  0  0  0  0  0  0  0
  160.3950  204.8220  149.7670 O   0  0  0  0  0  1  0  0  0  0  0  0
  161.2020  202.7880  151.9060 C   0  0  0  0  0  1  0  0  0  0  0  0
  161.1210  201.3000  149.9060 C   0  0  0  0  0  1  0  0  0  0  0  0
  160.7110  202.6490  150.4670 C   0  0  0  0  0  3  0  0  0  0  0  0
  160.3310  210.0540  155.5900 C   0  0  0  0  0  2  0  0  0  0  0  0
  158.9970  212.9750  153.5880 N   0  0  0  0  0  0  0  0  0  0  0  0
  157.9950  212.5040  154.2510 C   0  0  2  0  0  3  0  0  0  0  0  0
  157.3950  210.7950  155.7940 N   0  0  0  0  0  0  0  0  0  0  0  0
  158.3200  211.4500  155.0490 C   0  0  0  0  0  0  0  0  0  0  0  0
  159.6060  211.1910  154.9420 C   0  0  0  0  0  0  0  0  0  0  0  0
  155.7490  212.2880  154.9580 N   0  0  0  0  0  0  0  0  0  0  0  0
  160.1660  212.1630  153.9440 C   0  0  0  0  0  3  0  0  0  0  0  0
  156.0990  211.2230  155.7440 C   0  0  0  0  0  3  0  0  0  0  0  0
  156.6790  212.9480  154.2010 C   0  0  0  0  0  0  0  0  0  0  0  0
  156.3220  214.0290  153.3920 O   0  0  0  0  0  0  0  0  0  0  0  0
  155.1040  214.0530  152.6650 C   0  0  0  0  0  1  0  0  0  0  0  0
  2  8  1  0  0  0  0
  2  3  1  0  0  0  0
  3  4  2  0  0  0  0
  4  1  1  0  0  0  0
  4 24  1  0  0  0  0
  5  7  1  0  0  0  0
  6  2  2  0  0  0  0
  7  1  1  0  0  0  0
  8  5  1  0  0  0  0
  9 11  2  0  0  0  0
 10  6  1  0  0  0  0
 11 10  1  0  0  0  0
 12 11  1  0  0  0  0
 13 12  1  0  0  0  0
 14 16  1  0  0  0  0
 14 13  1  0  0  0  0
 16 15  1  6  0  0  0
 16 17  1  0  0  0  0
 17 18  1  0  0  0  0
 18 19  1  0  0  0  0
 19 20  1  0  0  0  0
 19 23  1  0  0  0  0
 22 23  1  0  0  0  0
 23 21  1  0  0  0  0
 25 31  2  0  0  0  0
 26 25  1  6  0  0  0
 26 28  1  0  0  0  0
 28 27  1  0  0  0  0
 29 28  2  0  0  0  0
 29 24  1  0  0  0  0
 30 32  1  0  0  0  0
 31 29  1  0  0  0  0
 32 27  2  0  0  0  0
 33 26  1  0  0  0  0
 33 30  2  0  0  0  0
 34 33  1  0  0  0  0
 35 34  1  0  0  0  0
M  END
>  <MODEL>
6

>  <REMARK>
 VINA RESULT:      -7.2      1.927      3.777
  Name = 
  12 active torsions:
  status: ('A' for Active; 'I' for Inactive)
    1  A    between atoms: O_1  and  C_34
    2  A    between atoms: C_7  and  C_9
    3  A    between atoms: C_9  and  C_18
    4  A    between atoms: C_13  and  N_25
    5  A    between atoms: C_14  and  C_30
    6  A    between atoms: C_14  and  O_33
    7  A    between atoms: C_22  and  C_24
    8  A    between atoms: C_22  and  O_33
    9  A    between atoms: C_23  and  N_26
   10  A    between atoms: C_24  and  C_27
   11  A    between atoms: N_26  and  C_28
   12  A    between atoms: C_28  and  C_30
                            x       y       z     vdW  Elec       q    Type
                         _______ _______ _______ _____ _____    ______ ____

>  <TORSDO>
F 12

$$$$
=
 OpenBabel11072413093D

 35 37  0  0  1  0  0  0  0  0999 V2000
  161.2430  207.3280  149.1480 C   0  0  0  0  0  2  0  0  0  0  0  0
  161.1660  209.0500  151.6270 C   0  0  0  0  0  0  0  0  0  0  0  0
  161.1280  207.5760  151.6250 C   0  0  0  0  0  3  0  0  0  0  0  0
  161.2310  206.7910  150.5480 C   0  0  0  0  0  0  0  0  0  0  0  0
  161.9270  209.5550  149.2830 C   0  0  0  0  0  2  0  0  0  0  0  0
  160.4560  209.6810  152.5600 C   0  0  0  0  0  3  0  0  0  0  0  0
  162.3770  208.2140  148.9460 N   0  0  0  0  0  2  0  0  0  0  0  0
  162.1330  209.8170  150.7660 C   0  0  0  0  0  2  0  0  0  0  0  0
  158.1790  211.3440  152.7730 O   0  0  0  0  0  0  0  0  0  0  0  0
  160.5030  211.1000  152.7110 N   0  0  0  0  0  2  0  0  0  0  0  0
  159.3160  211.8860  152.8180 C   0  0  0  0  0  0  0  0  0  0  0  0
  159.4200  213.3660  152.9580 C   0  0  0  0  0  2  0  0  0  0  0  0
  159.0640  214.0570  151.6510 C   0  0  0  0  0  2  0  0  0  0  0  0
  160.1810  214.0930  150.7970 O   0  0  0  0  0  0  0  0  0  0  0  0
  158.9030  214.1180  148.8530 O   0  0  0  0  0  1  0  0  0  0  0  0
  159.8640  213.4210  149.5950 C   0  0  1  0  0  3  0  0  0  0  0  0
  161.1010  213.1080  148.7520 C   0  0  0  0  0  2  0  0  0  0  0  0
  161.2800  214.1350  147.6450 C   0  0  0  0  0  2  0  0  0  0  0  0
  162.4370  213.7940  146.8280 N   0  0  0  0  0  0  0  0  0  0  0  0
  163.0850  212.7710  147.4400 O   0  0  0  0  0  1  0  0  0  0  0  0
  163.0620  213.3240  144.4530 C   0  0  0  0  0  1  0  0  0  0  0  0
  160.8140  214.2250  145.0460 C   0  0  0  0  0  1  0  0  0  0  0  0
  161.9620  213.3510  145.5120 C   0  0  0  0  0  3  0  0  0  0  0  0
  161.2560  205.3140  150.7430 C   0  0  0  0  0  2  0  0  0  0  0  0
  161.4600  204.0400  147.1860 N   0  0  0  0  0  0  0  0  0  0  0  0
  161.1960  203.0140  147.9230 C   0  0  0  0  0  0  0  0  0  0  0  0
  160.8280  202.3630  150.1820 N   0  0  0  0  0  0  0  0  0  0  0  0
  161.0660  203.3140  149.2440 C   0  0  0  0  0  0  0  0  0  0  0  0
  161.2340  204.6070  149.4260 C   0  0  0  0  0  0  0  0  0  0  0  0
  160.8190  200.7400  148.4490 N   0  0  0  0  0  0  0  0  0  0  0  0
  161.5350  205.2010  148.0800 C   0  0  0  0  0  2  0  0  0  0  0  0
  160.7030  201.0650  149.7740 C   0  0  0  0  0  3  0  0  0  0  0  0
  161.0650  201.6960  147.5010 C   0  0  0  0  0  0  0  0  0  0  0  0
  161.1920  201.3650  146.1510 O   0  0  0  0  0  0  0  0  0  0  0  0
  160.0830  201.3770  145.2670 C   0  0  0  0  0  1  0  0  0  0  0  0
  1  4  1  0  0  0  0
  2  6  2  0  0  0  0
  3  2  1  0  0  0  0
  4 24  1  0  0  0  0
  4  3  2  0  0  0  0
  5  8  1  0  0  0  0
  6 10  1  0  0  0  0
  7  1  1  0  0  0  0
  7  5  1  0  0  0  0
  8  2  1  0  0  0  0
  9 11  2  0  0  0  0
 10 11  1  0  0  0  0
 11 12  1  0  0  0  0
 13 12  1  0  0  0  0
 14 13  1  0  0  0  0
 16 15  1  6  0  0  0
 16 14  1  0  0  0  0
 17 16  1  0  0  0  0
 18 17  1  0  0  0  0
 19 20  1  0  0  0  0
 19 18  1  0  0  0  0
 21 23  1  0  0  0  0
 22 23  1  0  0  0  0
 23 19  1  0  0  0  0
 25 26  2  0  0  0  0
 25 31  1  0  0  0  0
 26 28  1  0  0  0  0
 28 29  2  0  0  0  0
 28 27  1  0  0  0  0
 29 24  1  0  0  0  0
 30 32  1  0  0  0  0
 31 29  1  0  0  0  0
 32 27  2  0  0  0  0
 33 26  1  0  0  0  0
 33 30  2  0  0  0  0
 34 33  1  0  0  0  0
 35 34  1  0  0  0  0
M  END
>  <MODEL>
7

>  <REMARK>
 VINA RESULT:      -6.9      3.664      9.675
  Name = 
  12 active torsions:
  status: ('A' for Active; 'I' for Inactive)
    1  A    between atoms: O_1  and  C_34
    2  A    between atoms: C_7  and  C_9
    3  A    between atoms: C_9  and  C_18
    4  A    between atoms: C_13  and  N_25
    5  A    between atoms: C_14  and  C_30
    6  A    between atoms: C_14  and  O_33
    7  A    between atoms: C_22  and  C_24
    8  A    between atoms: C_22  and  O_33
    9  A    between atoms: C_23  and  N_26
   10  A    between atoms: C_24  and  C_27
   11  A    between atoms: N_26  and  C_28
   12  A    between atoms: C_28  and  C_30
                            x       y       z     vdW  Elec       q    Type
                         _______ _______ _______ _____ _____    ______ ____

>  <TORSDO>
F 12

$$$$
=
 OpenBabel11072413093D

 35 37  0  0  1  0  0  0  0  0999 V2000
  158.9540  212.8520  144.8060 C   0  0  0  0  0  2  0  0  0  0  0  0
  161.0480  212.8370  146.9820 C   0  0  0  0  0  0  0  0  0  0  0  0
  161.2550  213.3600  145.6190 C   0  0  0  0  0  3  0  0  0  0  0  0
  160.3250  213.4400  144.6620 C   0  0  0  0  0  0  0  0  0  0  0  0
  158.5410  212.6520  147.0950 C   0  0  0  0  0  2  0  0  0  0  0  0
  162.0800  212.2380  147.5730 C   0  0  0  0  0  3  0  0  0  0  0  0
  158.2470  213.4590  145.9210 N   0  0  0  0  0  2  0  0  0  0  0  0
  159.8060  213.1560  147.7710 C   0  0  0  0  0  2  0  0  0  0  0  0
  161.9720  209.5220  148.3510 O   0  0  0  0  0  0  0  0  0  0  0  0
  162.0160  211.7870  148.9260 N   0  0  0  0  0  2  0  0  0  0  0  0
  161.9670  210.3990  149.2560 C   0  0  0  0  0  0  0  0  0  0  0  0
  161.8840  209.9810  150.6840 C   0  0  0  0  0  2  0  0  0  0  0  0
  162.3260  208.5360  150.8490 C   0  0  0  0  0  2  0  0  0  0  0  0
  161.2280  207.7240  151.1870 O   0  0  0  0  0  0  0  0  0  0  0  0
  161.9530  205.8340  152.3340 O   0  0  0  0  0  1  0  0  0  0  0  0
  161.6090  206.3670  151.0860 C   0  0  1  0  0  3  0  0  0  0  0  0
  160.5540  205.5100  150.3850 C   0  0  0  0  0  2  0  0  0  0  0  0
  160.5530  205.7660  148.8860 C   0  0  0  0  0  2  0  0  0  0  0  0
  161.6740  205.0790  148.2600 N   0  0  0  0  0  0  0  0  0  0  0  0
  161.2910  203.7990  148.0230 O   0  0  0  0  0  1  0  0  0  0  0  0
  160.7180  206.2030  146.2400 C   0  0  0  0  0  1  0  0  0  0  0  0
  162.7930  204.8280  146.0950 C   0  0  0  0  0  1  0  0  0  0  0  0
  161.9690  205.7410  146.9830 C   0  0  0  0  0  3  0  0  0  0  0  0
  160.6920  214.0750  143.3650 C   0  0  0  0  0  2  0  0  0  0  0  0
  162.0610  211.3090  141.1760 N   0  0  0  0  0  0  0  0  0  0  0  0
  160.8840  211.5790  140.7230 C   0  0  0  0  0  0  0  0  0  0  0  0
  159.0000  212.9860  141.0940 N   0  0  0  0  0  0  0  0  0  0  0  0
  160.2610  212.5840  141.3970 C   0  0  0  0  0  0  0  0  0  0  0  0
  161.0480  213.0360  142.3500 C   0  0  0  0  0  0  0  0  0  0  0  0
  158.9600  211.3570  139.3660 N   0  0  0  0  0  0  0  0  0  0  0  0
  162.3030  212.2130  142.3050 C   0  0  0  0  0  2  0  0  0  0  0  0
  158.3500  212.3630  140.0670 C   0  0  0  0  0  3  0  0  0  0  0  0
  160.2290  210.9460  139.6730 C   0  0  0  0  0  0  0  0  0  0  0  0
  160.8490  209.9140  138.9650 O   0  0  0  0  0  0  0  0  0  0  0  0
  160.1130  208.8370  138.4080 C   0  0  0  0  0  1  0  0  0  0  0  0
  1  7  1  0  0  0  0
  2  6  2  0  0  0  0
  2  8  1  0  0  0  0
  3  2  1  0  0  0  0
  4  1  1  0  0  0  0
  4  3  2  0  0  0  0
  5  8  1  0  0  0  0
  6 10  1  0  0  0  0
  7  5  1  0  0  0  0
  9 11  2  0  0  0  0
 10 11  1  0  0  0  0
 11 12  1  0  0  0  0
 12 13  1  0  0  0  0
 13 14  1  0  0  0  0
 16 14  1  0  0  0  0
 16 15  1  1  0  0  0
 17 16  1  0  0  0  0
 18 17  1  0  0  0  0
 19 18  1  0  0  0  0
 20 19  1  0  0  0  0
 21 23  1  0  0  0  0
 22 23  1  0  0  0  0
 23 19  1  0  0  0  0
 24  4  1  0  0  0  0
 25 31  1  0  0  0  0
 26 25  2  0  0  0  0
 26 28  1  0  0  0  0
 27 28  1  0  0  0  0
 28 29  2  0  0  0  0
 29 24  1  0  0  0  0
 30 33  2  0  0  0  0
 30 32  1  0  0  0  0
 31 29  1  0  0  0  0
 32 27  2  0  0  0  0
 33 26  1  0  0  0  0
 34 33  1  0  0  0  0
 35 34  1  0  0  0  0
M  END
>  <MODEL>
8

>  <REMARK>
 VINA RESULT:      -6.8      5.930      9.636
  Name = 
  12 active torsions:
  status: ('A' for Active; 'I' for Inactive)
    1  A    between atoms: O_1  and  C_34
    2  A    between atoms: C_7  and  C_9
    3  A    between atoms: C_9  and  C_18
    4  A    between atoms: C_13  and  N_25
    5  A    between atoms: C_14  and  C_30
    6  A    between atoms: C_14  and  O_33
    7  A    between atoms: C_22  and  C_24
    8  A    between atoms: C_22  and  O_33
    9  A    between atoms: C_23  and  N_26
   10  A    between atoms: C_24  and  C_27
   11  A    between atoms: N_26  and  C_28
   12  A    between atoms: C_28  and  C_30
                            x       y       z     vdW  Elec       q    Type
                         _______ _______ _______ _____ _____    ______ ____

>  <TORSDO>
F 12

$$$$
=
 OpenBabel11072413093D

 35 37  0  0  1  0  0  0  0  0999 V2000
  159.1360  213.7920  146.9570 C   0  0  0  0  0  2  0  0  0  0  0  0
  161.4790  212.4740  148.3330 C   0  0  0  0  0  0  0  0  0  0  0  0
  161.5220  213.0710  146.9850 C   0  0  0  0  0  3  0  0  0  0  0  0
  160.5200  213.7200  146.3840 C   0  0  0  0  0  0  0  0  0  0  0  0
  159.3340  213.4150  149.2520 C   0  0  0  0  0  2  0  0  0  0  0  0
  162.2170  211.3870  148.5460 C   0  0  0  0  0  3  0  0  0  0  0  0
  159.1480  214.4530  148.2510 N   0  0  0  0  0  2  0  0  0  0  0  0
  160.8170  213.1770  149.4870 C   0  0  0  0  0  2  0  0  0  0  0  0
  161.6130  208.6840  149.1180 O   0  0  0  0  0  0  0  0  0  0  0  0
  162.3240  210.7910  149.8390 N   0  0  0  0  0  2  0  0  0  0  0  0
  162.0080  209.4170  150.0640 C   0  0  0  0  0  0  0  0  0  0  0  0
  162.1210  208.8480  151.4360 C   0  0  0  0  0  2  0  0  0  0  0  0
  160.7560  208.4340  151.9630 C   0  0  0  0  0  2  0  0  0  0  0  0
  160.8770  207.3300  152.8260 O   0  0  0  0  0  0  0  0  0  0  0  0
  161.6830  205.1510  152.9550 O   0  0  0  0  0  1  0  0  0  0  0  0
  161.4930  206.2660  152.1290 C   0  0  1  0  0  3  0  0  0  0  0  0
  160.7450  205.8910  150.8490 C   0  0  0  0  0  2  0  0  0  0  0  0
  161.2680  204.5830  150.2750 C   0  0  0  0  0  2  0  0  0  0  0  0
  160.6840  204.3430  148.9630 N   0  0  0  0  0  0  0  0  0  0  0  0
  160.6240  205.5330  148.3150 O   0  0  0  0  0  1  0  0  0  0  0  0
  161.9780  203.9720  146.8560 C   0  0  0  0  0  1  0  0  0  0  0  0
  160.9050  202.0740  148.0660 C   0  0  0  0  0  1  0  0  0  0  0  0
  161.5640  203.4310  148.2230 C   0  0  0  0  0  3  0  0  0  0  0  0
  160.7680  214.3320  145.0480 C   0  0  0  0  0  2  0  0  0  0  0  0
  160.4390  211.4540  142.6140 N   0  0  0  0  0  0  0  0  0  0  0  0
  161.3480  212.2320  142.1320 C   0  0  0  0  0  0  0  0  0  0  0  0
  162.5010  214.2700  142.5570 N   0  0  0  0  0  0  0  0  0  0  0  0
  161.6040  213.3160  142.9140 C   0  0  0  0  0  0  0  0  0  0  0  0
  160.8470  213.2770  143.9900 C   0  0  0  0  0  0  0  0  0  0  0  0
  162.9410  213.0330  140.5790 N   0  0  0  0  0  0  0  0  0  0  0  0
  159.9880  212.0520  143.8750 C   0  0  0  0  0  2  0  0  0  0  0  0
  163.1730  214.1210  141.3780 C   0  0  0  0  0  3  0  0  0  0  0  0
  162.0340  212.0720  140.9330 C   0  0  0  0  0  0  0  0  0  0  0  0
  161.7900  210.9660  140.1160 O   0  0  0  0  0  0  0  0  0  0  0  0
  161.9800  211.0150  138.7110 C   0  0  0  0  0  1  0  0  0  0  0  0
  1  7  1  0  0  0  0
  2  6  2  0  0  0  0
  2  8  1  0  0  0  0
  3  2  1  0  0  0  0
  4  1  1  0  0  0  0
  4  3  2  0  0  0  0
  5  8  1  0  0  0  0
  6 10  1  0  0  0  0
  7  5  1  0  0  0  0
  9 11  2  0  0  0  0
 10 11  1  0  0  0  0
 11 12  1  0  0  0  0
 12 13  1  0  0  0  0
 13 14  1  0  0  0  0
 16 14  1  0  0  0  0
 16 15  1  1  0  0  0
 17 16  1  0  0  0  0
 18 17  1  0  0  0  0
 19 18  1  0  0  0  0
 20 19  1  0  0  0  0
 21 23  1  0  0  0  0
 22 23  1  0  0  0  0
 23 19  1  0  0  0  0
 24  4  1  0  0  0  0
 25 31  1  0  0  0  0
 26 25  2  0  0  0  0
 26 28  1  0  0  0  0
 27 28  1  0  0  0  0
 28 29  2  0  0  0  0
 29 24  1  0  0  0  0
 30 33  2  0  0  0  0
 30 32  1  0  0  0  0
 31 29  1  0  0  0  0
 32 27  2  0  0  0  0
 33 26  1  0  0  0  0
 34 33  1  0  0  0  0
 35 34  1  0  0  0  0
M  END
>  <MODEL>
9

>  <REMARK>
 VINA RESULT:      -6.8      5.557      9.007
  Name = 
  12 active torsions:
  status: ('A' for Active; 'I' for Inactive)
    1  A    between atoms: O_1  and  C_34
    2  A    between atoms: C_7  and  C_9
    3  A    between atoms: C_9  and  C_18
    4  A    between atoms: C_13  and  N_25
    5  A    between atoms: C_14  and  C_30
    6  A    between atoms: C_14  and  O_33
    7  A    between atoms: C_22  and  C_24
    8  A    between atoms: C_22  and  O_33
    9  A    between atoms: C_23  and  N_26
   10  A    between atoms: C_24  and  C_27
   11  A    between atoms: N_26  and  C_28
   12  A    between atoms: C_28  and  C_30
                            x       y       z     vdW  Elec       q    Type
                         _______ _______ _______ _____ _____    ______ ____

>  <TORSDO>
F 12

$$$$
