=
 OpenBabel11072414173D

 34 37  0  0  1  0  0  0  0  0999 V2000
  161.4840  208.1040  149.5440 N   0  0  0  0  0  0  0  0  0  0  0  0
  161.5520  210.0250  148.2030 O   0  0  0  0  0  0  0  0  0  0  0  0
  162.0600  210.4410  149.4460 C   0  0  0  0  0  2  0  0  0  0  0  0
  162.3450  209.0930  148.9010 C   0  0  1  0  0  3  0  0  0  0  0  0
  160.8650  207.2350  148.5330 C   0  0  0  0  0  2  0  0  0  0  0  0
  161.1020  203.5560  145.6350 O   0  0  0  0  0  0  0  0  0  0  0  0
  162.5550  206.5550  146.7850 C   0  0  0  0  0  3  0  0  0  0  0  0
  161.4730  204.5550  146.3030 C   0  0  0  0  0  0  0  0  0  0  0  0
  162.4120  205.4860  145.8140 N   0  0  0  0  0  0  0  0  0  0  0  0
  160.9530  204.8920  147.6470 C   0  0  2  0  0  3  0  0  0  0  0  0
  161.7840  206.1150  148.0370 C   0  0  2  0  0  3  0  0  0  0  0  0
  160.6830  201.3470  148.5490 C   0  0  0  0  0  3  0  0  0  0  0  0
  160.3960  201.0490  149.8150 C   0  0  0  0  0  3  0  0  0  0  0  0
  161.1540  203.7780  148.6290 C   0  0  0  0  0  0  0  0  0  0  0  0
  161.0380  204.0650  149.9280 C   0  0  0  0  0  3  0  0  0  0  0  0
  161.1650  203.1020  151.0400 C   0  0  0  0  0  3  0  0  0  0  0  0
  160.8850  201.7930  150.9920 C   0  0  0  0  0  3  0  0  0  0  0  0
  161.6270  202.4350  148.1610 C   0  0  0  0  0  2  0  0  0  0  0  0
  162.3020  207.2950  150.4440 C   0  0  0  0  0  2  0  0  0  0  0  0
  160.8200  208.7060  153.6280 C   0  0  0  0  0  3  0  0  0  0  0  0
  160.7910  207.5760  154.4610 C   0  0  0  0  0  0  0  0  0  0  0  0
  161.7840  207.3910  151.8370 C   0  0  0  0  0  0  0  0  0  0  0  0
  161.7430  206.2560  152.6510 C   0  0  0  0  0  3  0  0  0  0  0  0
  161.2470  206.3490  153.9560 C   0  0  0  0  0  3  0  0  0  0  0  0
  161.3150  208.6150  152.3250 C   0  0  0  0  0  3  0  0  0  0  0  0
  159.2650  206.9530  156.1540 O   0  0  0  0  0  0  0  0  0  0  0  0
  160.2320  207.6940  155.8320 C   0  0  0  0  0  0  0  0  0  0  0  0
  160.7260  208.5820  156.7960 O   0  0  0  0  0  0  0  0  0  0  0  0
  160.1110  209.8180  157.1350 C   0  0  0  0  0  2  0  0  0  0  0  0
  161.1280  210.9380  157.0450 C   0  0  0  0  0  2  0  0  0  0  0  0
  161.2430  211.3730  155.6980 O   0  0  0  0  0  0  0  0  0  0  0  0
  160.0730  212.1670  153.7330 O   0  0  0  0  0  0  0  0  0  0  0  0
  160.2770  212.1870  155.1100 C   0  0  0  0  0  0  0  0  0  0  0  0
  159.5770  212.9420  155.8330 O   0  0  0  0  0  1  0  0  0  0  0  0
  1 19  1  0  0  0  0
  2  4  1  0  0  0  0
  2  3  1  0  0  0  0
  4  3  1  0  0  0  0
  4  1  1  1  0  0  0
  5  1  1  0  0  0  0
  6  8  2  0  0  0  0
  7 11  1  0  0  0  0
  8 10  1  0  0  0  0
  9  8  1  0  0  0  0
  9  7  2  0  0  0  0
 10 11  1  0  0  0  0
 10 14  1  1  0  0  0
 11  5  1  6  0  0  0
 12 13  2  0  0  0  0
 13 17  1  0  0  0  0
 14 15  2  0  0  0  0
 15 16  1  0  0  0  0
 17 16  2  0  0  0  0
 18 12  1  0  0  0  0
 18 14  1  0  0  0  0
 19 22  1  0  0  0  0
 20 21  1  0  0  0  0
 21 27  1  0  0  0  0
 22 25  1  0  0  0  0
 22 23  2  0  0  0  0
 23 24  1  0  0  0  0
 24 21  2  0  0  0  0
 25 20  2  0  0  0  0
 27 26  2  0  0  0  0
 27 28  1  0  0  0  0
 28 29  1  0  0  0  0
 30 29  1  0  0  0  0
 31 30  1  0  0  0  0
 32 33  2  0  0  0  0
 33 31  1  0  0  0  0
 33 34  1  0  0  0  0
M  END
>  <MODEL>
1

>  <REMARK>
 VINA RESULT:      -7.8      0.000      0.000
  Name = 
  12 active torsions:
  status: ('A' for Active; 'I' for Inactive)
    1  A    between atoms: C_6  and  C_32
    2  A    between atoms: O_8  and  C_11
    3  A    between atoms: O_8  and  C_15
    4  A    between atoms: C_10  and  C_15
    5  A    between atoms: C_11  and  C_18
    6  A    between atoms: C_13  and  C_33
    7  A    between atoms: C_17  and  N_27
    8  A    between atoms: C_17  and  C_34
    9  A    between atoms: C_18  and  O_23
   10  A    between atoms: C_21  and  N_27
   11  A    between atoms: O_23  and  C_28
   12  A    between atoms: N_27  and  C_33
                            x       y       z     vdW  Elec       q    Type
                         _______ _______ _______ _____ _____    ______ ____

>  <TORSDO>
F 12

$$$$
=
 OpenBabel11072414173D

 34 37  0  0  1  0  0  0  0  0999 V2000
  161.9210  205.2890  151.3440 N   0  0  0  0  0  0  0  0  0  0  0  0
  160.1250  203.7850  151.4190 O   0  0  0  0  0  0  0  0  0  0  0  0
  161.1840  203.1050  152.0450 C   0  0  0  0  0  2  0  0  0  0  0  0
  160.9930  204.5650  152.2090 C   0  0  1  0  0  3  0  0  0  0  0  0
  161.1820  206.0190  150.3040 C   0  0  0  0  0  2  0  0  0  0  0  0
  160.2060  206.2010  145.7210 O   0  0  0  0  0  0  0  0  0  0  0  0
  162.2510  207.2670  148.3870 C   0  0  0  0  0  3  0  0  0  0  0  0
  160.8560  206.3120  146.7920 C   0  0  0  0  0  0  0  0  0  0  0  0
  161.7300  207.3900  147.0380 N   0  0  0  0  0  0  0  0  0  0  0  0
  160.7580  205.3620  147.9230 C   0  0  2  0  0  3  0  0  0  0  0  0
  161.7980  205.8960  148.9080 C   0  0  2  0  0  3  0  0  0  0  0  0
  160.8850  202.7300  145.3710 C   0  0  0  0  0  3  0  0  0  0  0  0
  160.6380  201.4800  145.7580 C   0  0  0  0  0  3  0  0  0  0  0  0
  161.0850  203.9580  147.5140 C   0  0  0  0  0  0  0  0  0  0  0  0
  160.9430  202.9950  148.4280 C   0  0  0  0  0  3  0  0  0  0  0  0
  161.1800  201.5540  148.2080 C   0  0  0  0  0  3  0  0  0  0  0  0
  161.0460  200.8960  147.0500 C   0  0  0  0  0  3  0  0  0  0  0  0
  161.7010  203.6850  146.1750 C   0  0  0  0  0  2  0  0  0  0  0  0
  162.6700  206.2380  152.1630 C   0  0  0  0  0  2  0  0  0  0  0  0
  160.2640  208.8560  153.4620 C   0  0  0  0  0  3  0  0  0  0  0  0
  160.4830  209.9190  152.5720 C   0  0  0  0  0  0  0  0  0  0  0  0
  161.9100  207.5120  152.3000 C   0  0  0  0  0  0  0  0  0  0  0  0
  162.1500  208.5700  151.4190 C   0  0  0  0  0  3  0  0  0  0  0  0
  161.4400  209.7680  151.5560 C   0  0  0  0  0  3  0  0  0  0  0  0
  160.9710  207.6580  153.3260 C   0  0  0  0  0  3  0  0  0  0  0  0
  158.7780  211.2140  153.5700 O   0  0  0  0  0  0  0  0  0  0  0  0
  159.7400  211.1910  152.7570 C   0  0  0  0  0  0  0  0  0  0  0  0
  160.0530  212.3770  152.0790 O   0  0  0  0  0  0  0  0  0  0  0  0
  159.1860  213.0260  151.1600 C   0  0  0  0  0  2  0  0  0  0  0  0
  159.9890  213.5790  149.9990 C   0  0  0  0  0  2  0  0  0  0  0  0
  161.0990  212.7330  149.7400 O   0  0  0  0  0  0  0  0  0  0  0  0
  162.0160  211.0710  148.2370 O   0  0  0  0  0  1  0  0  0  0  0  0
  161.4020  212.3020  148.4500 C   0  0  0  0  0  0  0  0  0  0  0  0
  161.1080  213.0310  147.4670 O   0  0  0  0  0  0  0  0  0  0  0  0
  1 19  1  0  0  0  0
  2  3  1  0  0  0  0
  2  4  1  0  0  0  0
  3  4  1  0  0  0  0
  4  1  1  6  0  0  0
  5  1  1  0  0  0  0
  6  8  2  0  0  0  0
  7 11  1  0  0  0  0
  8  9  1  0  0  0  0
  8 10  1  0  0  0  0
  9  7  2  0  0  0  0
 10 14  1  6  0  0  0
 10 11  1  0  0  0  0
 11  5  1  1  0  0  0
 12 13  2  0  0  0  0
 12 18  1  0  0  0  0
 13 17  1  0  0  0  0
 14 15  2  0  0  0  0
 16 15  1  0  0  0  0
 17 16  2  0  0  0  0
 18 14  1  0  0  0  0
 19 22  1  0  0  0  0
 21 27  1  0  0  0  0
 21 20  2  0  0  0  0
 22 25  2  0  0  0  0
 23 24  2  0  0  0  0
 23 22  1  0  0  0  0
 24 21  1  0  0  0  0
 25 20  1  0  0  0  0
 27 26  2  0  0  0  0
 28 27  1  0  0  0  0
 29 28  1  0  0  0  0
 30 29  1  0  0  0  0
 31 30  1  0  0  0  0
 32 33  1  0  0  0  0
 33 31  1  0  0  0  0
 34 33  2  0  0  0  0
M  END
>  <MODEL>
2

>  <REMARK>
 VINA RESULT:      -7.3      2.257      4.436
  Name = 
  12 active torsions:
  status: ('A' for Active; 'I' for Inactive)
    1  A    between atoms: C_6  and  C_32
    2  A    between atoms: O_8  and  C_11
    3  A    between atoms: O_8  and  C_15
    4  A    between atoms: C_10  and  C_15
    5  A    between atoms: C_11  and  C_18
    6  A    between atoms: C_13  and  C_33
    7  A    between atoms: C_17  and  N_27
    8  A    between atoms: C_17  and  C_34
    9  A    between atoms: C_18  and  O_23
   10  A    between atoms: C_21  and  N_27
   11  A    between atoms: O_23  and  C_28
   12  A    between atoms: N_27  and  C_33
                            x       y       z     vdW  Elec       q    Type
                         _______ _______ _______ _____ _____    ______ ____

>  <TORSDO>
F 12

$$$$
=
 OpenBabel11072414173D

 34 37  0  0  1  0  0  0  0  0999 V2000
  162.0200  208.3600  151.1900 N   0  0  0  0  0  0  0  0  0  0  0  0
  161.9710  209.8190  149.3570 O   0  0  0  0  0  0  0  0  0  0  0  0
  162.4030  208.5930  148.8240 C   0  0  0  0  0  2  0  0  0  0  0  0
  161.3930  208.6570  149.9050 C   0  0  1  0  0  3  0  0  0  0  0  0
  162.1500  209.5880  151.9890 C   0  0  0  0  0  2  0  0  0  0  0  0
  160.4030  212.5120  155.2120 O   0  0  0  0  0  0  0  0  0  0  0  0
  160.1260  211.0970  151.9950 C   0  0  0  0  0  3  0  0  0  0  0  0
  160.4530  211.7740  154.1940 C   0  0  0  0  0  0  0  0  0  0  0  0
  159.8010  212.1040  152.9880 N   0  0  0  0  0  0  0  0  0  0  0  0
  161.2170  210.5090  154.1240 C   0  0  2  0  0  3  0  0  0  0  0  0
  160.8700  209.9770  152.7340 C   0  0  2  0  0  3  0  0  0  0  0  0
  161.9610  208.5810  157.1560 C   0  0  0  0  0  3  0  0  0  0  0  0
  161.4330  207.3630  157.2610 C   0  0  0  0  0  3  0  0  0  0  0  0
  160.8000  209.5350  155.1850 C   0  0  0  0  0  0  0  0  0  0  0  0
  159.9460  208.5680  154.8410 C   0  0  0  0  0  3  0  0  0  0  0  0
  159.4470  207.5000  155.7300 C   0  0  0  0  0  3  0  0  0  0  0  0
  160.0930  206.9750  156.7790 C   0  0  0  0  0  3  0  0  0  0  0  0
  161.2100  209.7500  156.6110 C   0  0  0  0  0  2  0  0  0  0  0  0
  161.1780  207.4040  151.9050 C   0  0  0  0  0  2  0  0  0  0  0  0
  161.1340  203.6990  151.1300 C   0  0  0  0  0  3  0  0  0  0  0  0
  160.9510  203.6950  149.7380 C   0  0  0  0  0  0  0  0  0  0  0  0
  161.1040  206.1210  151.1520 C   0  0  0  0  0  0  0  0  0  0  0  0
  160.9030  206.1290  149.7690 C   0  0  0  0  0  3  0  0  0  0  0  0
  160.8260  204.9210  149.0670 C   0  0  0  0  0  3  0  0  0  0  0  0
  161.2120  204.9040  151.8330 C   0  0  0  0  0  3  0  0  0  0  0  0
  160.1180  201.4960  149.5150 O   0  0  0  0  0  0  0  0  0  0  0  0
  160.8410  202.4000  149.0200 C   0  0  0  0  0  0  0  0  0  0  0  0
  161.4960  202.1280  147.8110 O   0  0  0  0  0  0  0  0  0  0  0  0
  160.8640  201.5660  146.6690 C   0  0  0  0  0  2  0  0  0  0  0  0
  160.7600  202.6090  145.5750 C   0  0  0  0  0  2  0  0  0  0  0  0
  161.8710  203.4910  145.6480 O   0  0  0  0  0  0  0  0  0  0  0  0
  162.1740  205.8550  146.0750 O   0  0  0  0  0  1  0  0  0  0  0  0
  161.7760  204.8190  145.2350 C   0  0  0  0  0  0  0  0  0  0  0  0
  161.3320  205.0820  144.0880 O   0  0  0  0  0  0  0  0  0  0  0  0
  1 19  1  0  0  0  0
  1  5  1  0  0  0  0
  2  4  1  0  0  0  0
  3  2  1  0  0  0  0
  3  4  1  0  0  0  0
  4  1  1  1  0  0  0
  7 11  1  0  0  0  0
  7  9  2  0  0  0  0
  8  6  2  0  0  0  0
  9  8  1  0  0  0  0
 10  8  1  0  0  0  0
 10 14  1  1  0  0  0
 11  5  1  6  0  0  0
 11 10  1  0  0  0  0
 12 13  2  0  0  0  0
 14 18  1  0  0  0  0
 15 14  2  0  0  0  0
 15 16  1  0  0  0  0
 16 17  2  0  0  0  0
 17 13  1  0  0  0  0
 18 12  1  0  0  0  0
 20 25  1  0  0  0  0
 21 20  2  0  0  0  0
 22 25  2  0  0  0  0
 22 19  1  0  0  0  0
 23 22  1  0  0  0  0
 24 21  1  0  0  0  0
 24 23  2  0  0  0  0
 27 26  2  0  0  0  0
 27 21  1  0  0  0  0
 28 27  1  0  0  0  0
 29 28  1  0  0  0  0
 30 31  1  0  0  0  0
 30 29  1  0  0  0  0
 33 31  1  0  0  0  0
 33 32  1  0  0  0  0
 34 33  2  0  0  0  0
M  END
>  <MODEL>
3

>  <REMARK>
 VINA RESULT:      -6.9      2.111      8.677
  Name = 
  12 active torsions:
  status: ('A' for Active; 'I' for Inactive)
    1  A    between atoms: C_6  and  C_32
    2  A    between atoms: O_8  and  C_11
    3  A    between atoms: O_8  and  C_15
    4  A    between atoms: C_10  and  C_15
    5  A    between atoms: C_11  and  C_18
    6  A    between atoms: C_13  and  C_33
    7  A    between atoms: C_17  and  N_27
    8  A    between atoms: C_17  and  C_34
    9  A    between atoms: C_18  and  O_23
   10  A    between atoms: C_21  and  N_27
   11  A    between atoms: O_23  and  C_28
   12  A    between atoms: N_27  and  C_33
                            x       y       z     vdW  Elec       q    Type
                         _______ _______ _______ _____ _____    ______ ____

>  <TORSDO>
F 12

$$$$
=
 OpenBabel11072414173D

 34 37  0  0  1  0  0  0  0  0999 V2000
  161.7120  207.4780  152.0790 N   0  0  0  0  0  0  0  0  0  0  0  0
  161.9120  206.1100  153.9710 O   0  0  0  0  0  0  0  0  0  0  0  0
  161.2250  205.3210  153.0320 C   0  0  0  0  0  2  0  0  0  0  0  0
  162.2980  206.2570  152.6240 C   0  0  1  0  0  3  0  0  0  0  0  0
  160.8440  207.1610  150.9350 C   0  0  0  0  0  2  0  0  0  0  0  0
  160.3830  206.1240  146.3860 O   0  0  0  0  0  0  0  0  0  0  0  0
  162.1490  207.8650  148.8920 C   0  0  0  0  0  3  0  0  0  0  0  0
  160.9140  206.5170  147.4570 C   0  0  0  0  0  0  0  0  0  0  0  0
  161.7830  207.6260  147.5080 N   0  0  0  0  0  0  0  0  0  0  0  0
  160.6680  205.8980  148.7790 C   0  0  2  0  0  3  0  0  0  0  0  0
  161.6070  206.6770  149.6990 C   0  0  2  0  0  3  0  0  0  0  0  0
  161.1800  202.7270  147.0080 C   0  0  0  0  0  3  0  0  0  0  0  0
  160.8000  201.6060  147.6200 C   0  0  0  0  0  3  0  0  0  0  0  0
  161.0030  204.4370  148.7920 C   0  0  0  0  0  0  0  0  0  0  0  0
  160.6320  203.7230  149.8580 C   0  0  0  0  0  3  0  0  0  0  0  0
  160.8400  202.2730  150.0410 C   0  0  0  0  0  3  0  0  0  0  0  0
  160.9100  201.3530  149.0690 C   0  0  0  0  0  3  0  0  0  0  0  0
  161.8620  203.8490  147.7140 C   0  0  0  0  0  2  0  0  0  0  0  0
  160.9170  208.1160  153.1270 C   0  0  0  0  0  2  0  0  0  0  0  0
  161.0840  211.5110  151.4620 C   0  0  0  0  0  3  0  0  0  0  0  0
  159.9570  212.1540  151.9990 C   0  0  0  0  0  0  0  0  0  0  0  0
  160.5860  209.5160  152.7410 C   0  0  0  0  0  0  0  0  0  0  0  0
  159.4510  210.1390  153.2680 C   0  0  0  0  0  3  0  0  0  0  0  0
  159.1390  211.4510  152.8970 C   0  0  0  0  0  3  0  0  0  0  0  0
  161.3980  210.2010  151.8320 C   0  0  0  0  0  3  0  0  0  0  0  0
  158.9830  214.2770  152.3520 O   0  0  0  0  0  0  0  0  0  0  0  0
  159.6290  213.5350  151.5650 C   0  0  0  0  0  0  0  0  0  0  0  0
  160.0060  214.0680  150.3250 O   0  0  0  0  0  0  0  0  0  0  0  0
  159.2990  213.8470  149.1120 C   0  0  0  0  0  2  0  0  0  0  0  0
  160.2650  213.8710  147.9440 C   0  0  0  0  0  2  0  0  0  0  0  0
  161.5810  213.6040  148.4060 O   0  0  0  0  0  0  0  0  0  0  0  0
  163.6230  212.4020  147.9090 O   0  0  0  0  0  0  0  0  0  0  0  0
  162.2420  212.4210  148.0810 C   0  0  0  0  0  0  0  0  0  0  0  0
  161.5820  211.3580  147.9500 O   0  0  0  0  0  1  0  0  0  0  0  0
  1 19  1  0  0  0  0
  3  2  1  0  0  0  0
  4  1  1  6  0  0  0
  4  3  1  0  0  0  0
  4  2  1  0  0  0  0
  5  1  1  0  0  0  0
  6  8  2  0  0  0  0
  7 11  1  0  0  0  0
  8  9  1  0  0  0  0
  8 10  1  0  0  0  0
  9  7  2  0  0  0  0
 10 14  1  6  0  0  0
 10 11  1  0  0  0  0
 11  5  1  1  0  0  0
 12 13  2  0  0  0  0
 12 18  1  0  0  0  0
 13 17  1  0  0  0  0
 14 15  2  0  0  0  0
 15 16  1  0  0  0  0
 17 16  2  0  0  0  0
 18 14  1  0  0  0  0
 20 25  2  0  0  0  0
 20 21  1  0  0  0  0
 21 24  2  0  0  0  0
 22 19  1  0  0  0  0
 22 23  2  0  0  0  0
 24 23  1  0  0  0  0
 25 22  1  0  0  0  0
 27 21  1  0  0  0  0
 27 26  2  0  0  0  0
 28 27  1  0  0  0  0
 29 28  1  0  0  0  0
 30 31  1  0  0  0  0
 30 29  1  0  0  0  0
 32 33  2  0  0  0  0
 33 31  1  0  0  0  0
 34 33  1  0  0  0  0
M  END
>  <MODEL>
4

>  <REMARK>
 VINA RESULT:      -6.9      2.322      5.087
  Name = 
  12 active torsions:
  status: ('A' for Active; 'I' for Inactive)
    1  A    between atoms: C_6  and  C_32
    2  A    between atoms: O_8  and  C_11
    3  A    between atoms: O_8  and  C_15
    4  A    between atoms: C_10  and  C_15
    5  A    between atoms: C_11  and  C_18
    6  A    between atoms: C_13  and  C_33
    7  A    between atoms: C_17  and  N_27
    8  A    between atoms: C_17  and  C_34
    9  A    between atoms: C_18  and  O_23
   10  A    between atoms: C_21  and  N_27
   11  A    between atoms: O_23  and  C_28
   12  A    between atoms: N_27  and  C_33
                            x       y       z     vdW  Elec       q    Type
                         _______ _______ _______ _____ _____    ______ ____

>  <TORSDO>
F 12

$$$$
=
 OpenBabel11072414173D

 34 37  0  0  1  0  0  0  0  0999 V2000
  161.4310  205.7870  150.4000 N   0  0  0  0  0  0  0  0  0  0  0  0
  160.3370  206.7150  148.5470 O   0  0  0  0  0  0  0  0  0  0  0  0
  161.2060  207.7270  148.9900 C   0  0  0  0  0  2  0  0  0  0  0  0
  161.5890  206.2970  149.0410 C   0  0  1  0  0  3  0  0  0  0  0  0
  161.6180  204.3290  150.4220 C   0  0  0  0  0  2  0  0  0  0  0  0
  161.4240  200.4380  147.8130 O   0  0  0  0  0  0  0  0  0  0  0  0
  159.8030  202.6110  150.0660 C   0  0  0  0  0  3  0  0  0  0  0  0
  161.0320  201.4210  148.4940 C   0  0  0  0  0  0  0  0  0  0  0  0
  159.9390  201.3400  149.3790 N   0  0  0  0  0  0  0  0  0  0  0  0
  161.6820  202.7510  148.4770 C   0  0  2  0  0  3  0  0  0  0  0  0
  160.7760  203.5840  149.3840 C   0  0  2  0  0  3  0  0  0  0  0  0
  162.6460  205.4610  146.2000 C   0  0  0  0  0  3  0  0  0  0  0  0
  161.8310  205.7350  145.1830 C   0  0  0  0  0  3  0  0  0  0  0  0
  161.7370  203.3380  147.0990 C   0  0  0  0  0  0  0  0  0  0  0  0
  160.7320  203.0630  146.2640 C   0  0  0  0  0  3  0  0  0  0  0  0
  160.5900  203.5730  144.8850 C   0  0  0  0  0  3  0  0  0  0  0  0
  161.0660  204.7340  144.4160 C   0  0  0  0  0  3  0  0  0  0  0  0
  162.9620  204.0710  146.6390 C   0  0  0  0  0  2  0  0  0  0  0  0
  162.4380  206.4180  151.2500 C   0  0  0  0  0  2  0  0  0  0  0  0
  160.9620  209.0550  153.5290 C   0  0  0  0  0  3  0  0  0  0  0  0
  160.5490  208.2900  154.6310 C   0  0  0  0  0  0  0  0  0  0  0  0
  161.7880  207.0650  152.4240 C   0  0  0  0  0  0  0  0  0  0  0  0
  161.3660  206.2900  153.5070 C   0  0  0  0  0  3  0  0  0  0  0  0
  160.7480  206.9010  154.6040 C   0  0  0  0  0  3  0  0  0  0  0  0
  161.5790  208.4480  152.4330 C   0  0  0  0  0  3  0  0  0  0  0  0
  160.0760  208.5230  156.9340 O   0  0  0  0  0  0  0  0  0  0  0  0
  159.8680  208.9560  155.7700 C   0  0  0  0  0  0  0  0  0  0  0  0
  159.0070  210.0520  155.6230 O   0  0  0  0  0  0  0  0  0  0  0  0
  159.0400  211.2110  156.4440 C   0  0  0  0  0  2  0  0  0  0  0  0
  159.6330  212.3710  155.6700 C   0  0  0  0  0  2  0  0  0  0  0  0
  158.6730  212.8750  154.7530 O   0  0  0  0  0  0  0  0  0  0  0  0
  160.0750  212.3490  152.8510 O   0  0  0  0  0  1  0  0  0  0  0  0
  158.8590  212.7780  153.3760 C   0  0  0  0  0  0  0  0  0  0  0  0
  157.9140  213.0730  152.5990 O   0  0  0  0  0  0  0  0  0  0  0  0
  1  5  1  0  0  0  0
  1 19  1  0  0  0  0
  2  3  1  0  0  0  0
  2  4  1  0  0  0  0
  3  4  1  0  0  0  0
  4  1  1  1  0  0  0
  6  8  2  0  0  0  0
  8  9  1  0  0  0  0
  9  7  2  0  0  0  0
 10 14  1  6  0  0  0
 10  8  1  0  0  0  0
 10 11  1  0  0  0  0
 11  7  1  0  0  0  0
 11  5  1  1  0  0  0
 12 18  1  0  0  0  0
 13 12  2  0  0  0  0
 15 14  2  0  0  0  0
 16 15  1  0  0  0  0
 17 16  2  0  0  0  0
 17 13  1  0  0  0  0
 18 14  1  0  0  0  0
 19 22  1  0  0  0  0
 20 21  1  0  0  0  0
 21 27  1  0  0  0  0
 22 25  1  0  0  0  0
 22 23  2  0  0  0  0
 23 24  1  0  0  0  0
 24 21  2  0  0  0  0
 25 20  2  0  0  0  0
 27 26  2  0  0  0  0
 28 27  1  0  0  0  0
 28 29  1  0  0  0  0
 30 29  1  0  0  0  0
 31 30  1  0  0  0  0
 32 33  1  0  0  0  0
 33 31  1  0  0  0  0
 34 33  2  0  0  0  0
M  END
>  <MODEL>
5

>  <REMARK>
 VINA RESULT:      -6.6      1.922      3.447
  Name = 
  12 active torsions:
  status: ('A' for Active; 'I' for Inactive)
    1  A    between atoms: C_6  and  C_32
    2  A    between atoms: O_8  and  C_11
    3  A    between atoms: O_8  and  C_15
    4  A    between atoms: C_10  and  C_15
    5  A    between atoms: C_11  and  C_18
    6  A    between atoms: C_13  and  C_33
    7  A    between atoms: C_17  and  N_27
    8  A    between atoms: C_17  and  C_34
    9  A    between atoms: C_18  and  O_23
   10  A    between atoms: C_21  and  N_27
   11  A    between atoms: O_23  and  C_28
   12  A    between atoms: N_27  and  C_33
                            x       y       z     vdW  Elec       q    Type
                         _______ _______ _______ _____ _____    ______ ____

>  <TORSDO>
F 12

$$$$
=
 OpenBabel11072414173D

 34 37  0  0  1  0  0  0  0  0999 V2000
  160.8320  210.2960  155.1750 N   0  0  0  0  0  0  0  0  0  0  0  0
  160.2170  209.2530  157.1810 O   0  0  0  0  0  0  0  0  0  0  0  0
  159.7980  208.3640  156.1750 C   0  0  0  0  0  2  0  0  0  0  0  0
  161.0500  209.1470  156.0490 C   0  0  1  0  0  3  0  0  0  0  0  0
  160.7100  211.5260  155.9720 C   0  0  0  0  0  2  0  0  0  0  0  0
  156.2670  210.9470  154.5890 O   0  0  0  0  0  0  0  0  0  0  0  0
  158.5050  212.1180  157.0480 C   0  0  0  0  0  3  0  0  0  0  0  0
  157.2530  211.3970  155.2280 C   0  0  0  0  0  0  0  0  0  0  0  0
  157.1870  211.7080  156.6010 N   0  0  0  0  0  0  0  0  0  0  0  0
  158.5920  211.6190  154.6370 C   0  0  2  0  0  3  0  0  0  0  0  0
  159.3740  212.2490  155.7890 C   0  0  2  0  0  3  0  0  0  0  0  0
  156.7850  214.0240  152.5380 C   0  0  0  0  0  3  0  0  0  0  0  0
  157.0260  214.0080  151.2280 C   0  0  0  0  0  3  0  0  0  0  0  0
  158.5460  212.5440  153.4580 C   0  0  0  0  0  0  0  0  0  0  0  0
  159.2540  212.2100  152.3770 C   0  0  0  0  0  3  0  0  0  0  0  0
  159.3090  212.9690  151.1110 C   0  0  0  0  0  3  0  0  0  0  0  0
  158.3410  213.7480  150.6120 C   0  0  0  0  0  3  0  0  0  0  0  0
  157.8550  213.8700  153.5650 C   0  0  0  0  0  2  0  0  0  0  0  0
  161.9770  210.4140  154.2740 C   0  0  0  0  0  2  0  0  0  0  0  0
  161.9720  209.3040  150.6550 C   0  0  0  0  0  3  0  0  0  0  0  0
  161.3470  208.0500  150.7360 C   0  0  0  0  0  0  0  0  0  0  0  0
  161.7530  209.5960  153.0490 C   0  0  0  0  0  0  0  0  0  0  0  0
  161.1450  208.3410  153.1440 C   0  0  0  0  0  3  0  0  0  0  0  0
  160.9450  207.5720  151.9930 C   0  0  0  0  0  3  0  0  0  0  0  0
  162.1730  210.0740  151.8040 C   0  0  0  0  0  3  0  0  0  0  0  0
  161.7490  207.6160  148.4490 O   0  0  0  0  0  0  0  0  0  0  0  0
  161.1730  207.2400  149.5040 C   0  0  0  0  0  0  0  0  0  0  0  0
  160.4050  206.0690  149.4490 O   0  0  0  0  0  0  0  0  0  0  0  0
  160.8920  204.7770  149.7830 C   0  0  0  0  0  2  0  0  0  0  0  0
  161.1500  203.9830  148.5180 C   0  0  0  0  0  2  0  0  0  0  0  0
  160.7500  202.6340  148.7090 O   0  0  0  0  0  0  0  0  0  0  0  0
  161.3860  200.3770  148.1100 O   0  0  0  0  0  1  0  0  0  0  0  0
  160.9880  201.6590  147.7430 C   0  0  0  0  0  0  0  0  0  0  0  0
  160.8330  201.9400  146.5260 O   0  0  0  0  0  0  0  0  0  0  0  0
  1  5  1  0  0  0  0
  3  2  1  0  0  0  0
  4  1  1  6  0  0  0
  4  3  1  0  0  0  0
  4  2  1  0  0  0  0
  6  8  2  0  0  0  0
  8  9  1  0  0  0  0
  9  7  2  0  0  0  0
 10 14  1  6  0  0  0
 10  8  1  0  0  0  0
 10 11  1  0  0  0  0
 11  5  1  1  0  0  0
 11  7  1  0  0  0  0
 12 18  1  0  0  0  0
 13 12  2  0  0  0  0
 14 18  1  0  0  0  0
 15 14  2  0  0  0  0
 16 15  1  0  0  0  0
 17 16  2  0  0  0  0
 17 13  1  0  0  0  0
 19  1  1  0  0  0  0
 20 21  2  0  0  0  0
 20 25  1  0  0  0  0
 21 24  1  0  0  0  0
 22 23  1  0  0  0  0
 22 19  1  0  0  0  0
 24 23  2  0  0  0  0
 25 22  2  0  0  0  0
 26 27  2  0  0  0  0
 27 21  1  0  0  0  0
 28 27  1  0  0  0  0
 28 29  1  0  0  0  0
 30 31  1  0  0  0  0
 30 29  1  0  0  0  0
 33 32  1  0  0  0  0
 33 31  1  0  0  0  0
 34 33  2  0  0  0  0
M  END
>  <MODEL>
6

>  <REMARK>
 VINA RESULT:      -6.6      3.223      9.751
  Name = 
  12 active torsions:
  status: ('A' for Active; 'I' for Inactive)
    1  A    between atoms: C_6  and  C_32
    2  A    between atoms: O_8  and  C_11
    3  A    between atoms: O_8  and  C_15
    4  A    between atoms: C_10  and  C_15
    5  A    between atoms: C_11  and  C_18
    6  A    between atoms: C_13  and  C_33
    7  A    between atoms: C_17  and  N_27
    8  A    between atoms: C_17  and  C_34
    9  A    between atoms: C_18  and  O_23
   10  A    between atoms: C_21  and  N_27
   11  A    between atoms: O_23  and  C_28
   12  A    between atoms: N_27  and  C_33
                            x       y       z     vdW  Elec       q    Type
                         _______ _______ _______ _____ _____    ______ ____

>  <TORSDO>
F 12

$$$$
=
 OpenBabel11072414173D

 34 37  0  0  1  0  0  0  0  0999 V2000
  160.8050  207.7920  152.3850 N   0  0  0  0  0  0  0  0  0  0  0  0
  161.0800  206.4870  154.3120 O   0  0  0  0  0  0  0  0  0  0  0  0
  161.3220  205.6030  153.2460 C   0  0  0  0  0  2  0  0  0  0  0  0
  161.7470  207.0200  153.1910 C   0  0  1  0  0  3  0  0  0  0  0  0
  160.0840  208.7570  153.2290 C   0  0  0  0  0  2  0  0  0  0  0  0
  160.0800  212.7520  155.6840 O   0  0  0  0  0  0  0  0  0  0  0  0
  161.8790  209.9380  154.5540 C   0  0  0  0  0  2  0  0  0  0  0  0
  160.5220  211.7580  155.0510 C   0  0  0  0  0  0  0  0  0  0  0  0
  161.6950  211.0780  155.4340 N   0  0  0  0  0  2  0  0  0  0  0  0
  159.8580  211.1690  153.8660 C   0  0  2  0  0  3  0  0  0  0  0  0
  160.8350  210.0750  153.4370 C   0  0  2  0  0  3  0  0  0  0  0  0
  157.6770  213.3620  151.8930 C   0  0  0  0  0  3  0  0  0  0  0  0
  157.9540  213.5100  150.5990 C   0  0  0  0  0  3  0  0  0  0  0  0
  159.6660  212.1700  152.7670 C   0  0  0  0  0  0  0  0  0  0  0  0
  160.4560  212.0760  151.6950 C   0  0  0  0  0  3  0  0  0  0  0  0
  160.3980  212.9420  150.5000 C   0  0  0  0  0  3  0  0  0  0  0  0
  159.3110  213.5630  150.0230 C   0  0  0  0  0  3  0  0  0  0  0  0
  158.7280  213.3240  152.9510 C   0  0  0  0  0  2  0  0  0  0  0  0
  161.5570  208.5120  151.3600 C   0  0  0  0  0  2  0  0  0  0  0  0
  162.3080  207.4230  147.8130 C   0  0  0  0  0  3  0  0  0  0  0  0
  161.3740  206.3930  147.6210 C   0  0  0  0  0  0  0  0  0  0  0  0
  161.4880  207.7800  150.0640 C   0  0  0  0  0  0  0  0  0  0  0  0
  160.5660  206.7450  149.8900 C   0  0  0  0  0  3  0  0  0  0  0  0
  160.5110  206.0540  148.6740 C   0  0  0  0  0  3  0  0  0  0  0  0
  162.3650  208.1140  149.0260 C   0  0  0  0  0  3  0  0  0  0  0  0
  160.8170  206.2000  145.3330 O   0  0  0  0  0  0  0  0  0  0  0  0
  161.3560  205.6550  146.3330 C   0  0  0  0  0  0  0  0  0  0  0  0
  161.9140  204.3810  146.1630 O   0  0  0  0  0  0  0  0  0  0  0  0
  161.2080  203.2620  145.6430 C   0  0  0  0  0  2  0  0  0  0  0  0
  161.2060  202.1390  146.6620 C   0  0  0  0  0  2  0  0  0  0  0  0
  161.5090  202.6600  147.9480 O   0  0  0  0  0  0  0  0  0  0  0  0
  160.8160  203.0930  150.2270 O   0  0  0  0  0  1  0  0  0  0  0  0
  160.7480  202.3270  149.0670 C   0  0  0  0  0  0  0  0  0  0  0  0
  159.9850  201.3270  149.0230 O   0  0  0  0  0  0  0  0  0  0  0  0
  1  5  1  0  0  0  0
  3  2  1  0  0  0  0
  4  1  1  6  0  0  0
  4  3  1  0  0  0  0
  4  2  1  0  0  0  0
  7  9  1  0  0  0  0
  8  9  1  0  0  0  0
  8  6  2  0  0  0  0
 10 14  1  6  0  0  0
 10  8  1  0  0  0  0
 11  5  1  1  0  0  0
 11 10  1  0  0  0  0
 11  7  1  0  0  0  0
 12 18  1  0  0  0  0
 13 12  2  0  0  0  0
 14 18  1  0  0  0  0
 15 14  2  0  0  0  0
 16 15  1  0  0  0  0
 17 16  2  0  0  0  0
 17 13  1  0  0  0  0
 19  1  1  0  0  0  0
 20 25  1  0  0  0  0
 21 20  2  0  0  0  0
 21 24  1  0  0  0  0
 22 19  1  0  0  0  0
 23 22  1  0  0  0  0
 24 23  2  0  0  0  0
 25 22  2  0  0  0  0
 26 27  2  0  0  0  0
 27 21  1  0  0  0  0
 28 27  1  0  0  0  0
 29 28  1  0  0  0  0
 29 30  1  0  0  0  0
 30 31  1  0  0  0  0
 31 33  1  0  0  0  0
 33 32  1  0  0  0  0
 34 33  2  0  0  0  0
M  END
>  <MODEL>
7

>  <REMARK>
 VINA RESULT:      -6.6      2.651      9.478
  Name = 
  12 active torsions:
  status: ('A' for Active; 'I' for Inactive)
    1  A    between atoms: C_6  and  C_32
    2  A    between atoms: O_8  and  C_11
    3  A    between atoms: O_8  and  C_15
    4  A    between atoms: C_10  and  C_15
    5  A    between atoms: C_11  and  C_18
    6  A    between atoms: C_13  and  C_33
    7  A    between atoms: C_17  and  N_27
    8  A    between atoms: C_17  and  C_34
    9  A    between atoms: C_18  and  O_23
   10  A    between atoms: C_21  and  N_27
   11  A    between atoms: O_23  and  C_28
   12  A    between atoms: N_27  and  C_33
                            x       y       z     vdW  Elec       q    Type
                         _______ _______ _______ _____ _____    ______ ____

>  <TORSDO>
F 12

$$$$
=
 OpenBabel11072414173D

 34 37  0  0  1  0  0  0  0  0999 V2000
  161.1910  210.2220  151.4030 N   0  0  0  0  0  0  0  0  0  0  0  0
  160.3650  211.6760  153.0450 O   0  0  0  0  0  0  0  0  0  0  0  0
  159.2900  210.8180  152.7570 C   0  0  0  0  0  2  0  0  0  0  0  0
  160.6890  210.3320  152.7700 C   0  0  1  0  0  3  0  0  0  0  0  0
  161.5860  211.5450  150.8980 C   0  0  0  0  0  2  0  0  0  0  0  0
  162.3480  214.4520  147.2990 O   0  0  0  0  0  0  0  0  0  0  0  0
  162.6430  211.2020  148.6310 C   0  0  0  0  0  3  0  0  0  0  0  0
  162.2070  213.3750  147.9340 C   0  0  0  0  0  0  0  0  0  0  0  0
  162.9960  212.2360  147.6770 N   0  0  0  0  0  0  0  0  0  0  0  0
  161.2370  213.1850  149.0360 C   0  0  2  0  0  3  0  0  0  0  0  0
  161.4060  211.7070  149.3870 C   0  0  2  0  0  3  0  0  0  0  0  0
  157.7190  213.8130  149.8610 C   0  0  0  0  0  3  0  0  0  0  0  0
  156.7920  213.3300  149.0350 C   0  0  0  0  0  3  0  0  0  0  0  0
  159.8300  213.4730  148.6090 C   0  0  0  0  0  0  0  0  0  0  0  0
  159.4130  212.9570  147.4500 C   0  0  0  0  0  3  0  0  0  0  0  0
  158.0590  213.0990  146.8790 C   0  0  0  0  0  3  0  0  0  0  0  0
  156.9210  213.2580  147.5670 C   0  0  0  0  0  3  0  0  0  0  0  0
  158.9870  214.4380  149.3870 C   0  0  0  0  0  2  0  0  0  0  0  0
  162.3550  209.3380  151.4090 C   0  0  0  0  0  2  0  0  0  0  0  0
  161.6800  205.6190  151.6070 C   0  0  0  0  0  3  0  0  0  0  0  0
  161.1790  205.3460  150.3250 C   0  0  0  0  0  0  0  0  0  0  0  0
  161.9520  207.9550  151.0300 C   0  0  0  0  0  0  0  0  0  0  0  0
  161.4370  207.6980  149.7560 C   0  0  0  0  0  3  0  0  0  0  0  0
  161.0510  206.4000  149.4070 C   0  0  0  0  0  3  0  0  0  0  0  0
  162.0660  206.9150  151.9580 C   0  0  0  0  0  3  0  0  0  0  0  0
  160.5120  203.1610  150.9290 O   0  0  0  0  0  0  0  0  0  0  0  0
  160.7480  203.9650  149.9880 C   0  0  0  0  0  0  0  0  0  0  0  0
  160.5800  203.5040  148.6750 O   0  0  0  0  0  0  0  0  0  0  0  0
  161.6510  203.1940  147.7940 C   0  0  0  0  0  2  0  0  0  0  0  0
  161.1370  203.1190  146.3700 C   0  0  0  0  0  2  0  0  0  0  0  0
  161.9100  203.9690  145.5360 O   0  0  0  0  0  0  0  0  0  0  0  0
  161.1480  206.2160  146.0180 O   0  0  0  0  0  1  0  0  0  0  0  0
  161.4270  205.2030  145.1050 C   0  0  0  0  0  0  0  0  0  0  0  0
  161.2500  205.4050  143.8760 O   0  0  0  0  0  0  0  0  0  0  0  0
  1 19  1  0  0  0  0
  3  4  1  0  0  0  0
  3  2  1  0  0  0  0
  4  1  1  6  0  0  0
  4  2  1  0  0  0  0
  5  1  1  0  0  0  0
  6  8  2  0  0  0  0
  7 11  1  0  0  0  0
  8 10  1  0  0  0  0
  9  8  1  0  0  0  0
  9  7  2  0  0  0  0
 10 14  1  6  0  0  0
 10 11  1  0  0  0  0
 11  5  1  1  0  0  0
 13 12  2  0  0  0  0
 14 18  1  0  0  0  0
 15 14  2  0  0  0  0
 16 15  1  0  0  0  0
 16 17  2  0  0  0  0
 17 13  1  0  0  0  0
 18 12  1  0  0  0  0
 20 25  1  0  0  0  0
 21 20  2  0  0  0  0
 22 19  1  0  0  0  0
 22 25  2  0  0  0  0
 23 22  1  0  0  0  0
 24 23  2  0  0  0  0
 24 21  1  0  0  0  0
 27 21  1  0  0  0  0
 27 26  2  0  0  0  0
 28 27  1  0  0  0  0
 29 28  1  0  0  0  0
 30 29  1  0  0  0  0
 31 30  1  0  0  0  0
 33 31  1  0  0  0  0
 33 32  1  0  0  0  0
 34 33  2  0  0  0  0
M  END
>  <MODEL>
8

>  <REMARK>
 VINA RESULT:      -6.5      3.205      8.761
  Name = 
  12 active torsions:
  status: ('A' for Active; 'I' for Inactive)
    1  A    between atoms: C_6  and  C_32
    2  A    between atoms: O_8  and  C_11
    3  A    between atoms: O_8  and  C_15
    4  A    between atoms: C_10  and  C_15
    5  A    between atoms: C_11  and  C_18
    6  A    between atoms: C_13  and  C_33
    7  A    between atoms: C_17  and  N_27
    8  A    between atoms: C_17  and  C_34
    9  A    between atoms: C_18  and  O_23
   10  A    between atoms: C_21  and  N_27
   11  A    between atoms: O_23  and  C_28
   12  A    between atoms: N_27  and  C_33
                            x       y       z     vdW  Elec       q    Type
                         _______ _______ _______ _____ _____    ______ ____

>  <TORSDO>
F 12

$$$$
=
 OpenBabel11072414173D

 34 37  0  0  1  0  0  0  0  0999 V2000
  161.6750  208.0640  150.1620 N   0  0  0  0  0  0  0  0  0  0  0  0
  162.5870  207.4690  148.0870 O   0  0  0  0  0  0  0  0  0  0  0  0
  161.1970  207.4610  147.8800 C   0  0  0  0  0  2  0  0  0  0  0  0
  161.8450  208.4560  148.7660 C   0  0  1  0  0  3  0  0  0  0  0  0
  162.2550  206.7320  150.3910 C   0  0  0  0  0  2  0  0  0  0  0  0
  161.7240  202.3600  152.0020 O   0  0  0  0  0  0  0  0  0  0  0  0
  160.7540  205.7460  152.1650 C   0  0  0  0  0  3  0  0  0  0  0  0
  161.4660  203.5690  151.7680 C   0  0  0  0  0  0  0  0  0  0  0  0
  160.8240  204.4010  152.7070 N   0  0  0  0  0  0  0  0  0  0  0  0
  161.8280  204.2660  150.5130 C   0  0  2  0  0  3  0  0  0  0  0  0
  161.2150  205.6530  150.7040 C   0  0  2  0  0  3  0  0  0  0  0  0
  160.5530  201.2620  148.8380 C   0  0  0  0  0  3  0  0  0  0  0  0
  160.8130  201.1180  147.5400 C   0  0  0  0  0  3  0  0  0  0  0  0
  161.2540  203.5930  149.3040 C   0  0  0  0  0  0  0  0  0  0  0  0
  161.6340  204.0380  148.1040 C   0  0  0  0  0  3  0  0  0  0  0  0
  161.2070  203.4860  146.8020 C   0  0  0  0  0  3  0  0  0  0  0  0
  160.8530  202.2180  146.5570 C   0  0  0  0  0  3  0  0  0  0  0  0
  160.1710  202.5660  149.4530 C   0  0  0  0  0  2  0  0  0  0  0  0
  162.3620  209.0420  151.0020 C   0  0  0  0  0  2  0  0  0  0  0  0
  159.7990  211.1510  152.8220 C   0  0  0  0  0  3  0  0  0  0  0  0
  159.6990  210.4870  154.0550 C   0  0  0  0  0  0  0  0  0  0  0  0
  161.4440  209.5440  152.0630 C   0  0  0  0  0  0  0  0  0  0  0  0
  161.3400  208.8650  153.2800 C   0  0  0  0  0  3  0  0  0  0  0  0
  160.4700  209.3340  154.2700 C   0  0  0  0  0  3  0  0  0  0  0  0
  160.6680  210.6840  151.8320 C   0  0  0  0  0  3  0  0  0  0  0  0
  158.8790  210.5970  156.2680 O   0  0  0  0  0  0  0  0  0  0  0  0
  158.7460  210.9880  155.0780 C   0  0  0  0  0  0  0  0  0  0  0  0
  157.7050  211.8820  154.7950 O   0  0  0  0  0  0  0  0  0  0  0  0
  156.3940  211.7800  155.3340 C   0  0  0  0  0  2  0  0  0  0  0  0
  155.9320  213.1390  155.8190 C   0  0  0  0  0  2  0  0  0  0  0  0
  156.2510  214.1270  154.8510 O   0  0  0  0  0  0  0  0  0  0  0  0
  156.5000  214.1030  152.4430 O   0  0  0  0  0  0  0  0  0  0  0  0
  155.6900  214.1050  153.5750 C   0  0  0  0  0  0  0  0  0  0  0  0
  154.4390  214.0790  153.4480 O   0  0  0  0  0  1  0  0  0  0  0  0
  1  5  1  0  0  0  0
  1 19  1  0  0  0  0
  2  4  1  0  0  0  0
  3  2  1  0  0  0  0
  3  4  1  0  0  0  0
  4  1  1  1  0  0  0
  7  9  2  0  0  0  0
  8  6  2  0  0  0  0
  8  9  1  0  0  0  0
 10 14  1  6  0  0  0
 10 11  1  0  0  0  0
 10  8  1  0  0  0  0
 11  5  1  1  0  0  0
 11  7  1  0  0  0  0
 12 18  1  0  0  0  0
 13 12  2  0  0  0  0
 14 18  1  0  0  0  0
 15 14  2  0  0  0  0
 16 15  1  0  0  0  0
 17 16  2  0  0  0  0
 17 13  1  0  0  0  0
 19 22  1  0  0  0  0
 20 21  1  0  0  0  0
 21 24  2  0  0  0  0
 21 27  1  0  0  0  0
 22 23  2  0  0  0  0
 23 24  1  0  0  0  0
 25 22  1  0  0  0  0
 25 20  2  0  0  0  0
 27 26  2  0  0  0  0
 28 27  1  0  0  0  0
 28 29  1  0  0  0  0
 29 30  1  0  0  0  0
 31 30  1  0  0  0  0
 32 33  2  0  0  0  0
 33 31  1  0  0  0  0
 34 33  1  0  0  0  0
M  END
>  <MODEL>
9

>  <REMARK>
 VINA RESULT:      -6.5      2.747      3.899
  Name = 
  12 active torsions:
  status: ('A' for Active; 'I' for Inactive)
    1  A    between atoms: C_6  and  C_32
    2  A    between atoms: O_8  and  C_11
    3  A    between atoms: O_8  and  C_15
    4  A    between atoms: C_10  and  C_15
    5  A    between atoms: C_11  and  C_18
    6  A    between atoms: C_13  and  C_33
    7  A    between atoms: C_17  and  N_27
    8  A    between atoms: C_17  and  C_34
    9  A    between atoms: C_18  and  O_23
   10  A    between atoms: C_21  and  N_27
   11  A    between atoms: O_23  and  C_28
   12  A    between atoms: N_27  and  C_33
                            x       y       z     vdW  Elec       q    Type
                         _______ _______ _______ _____ _____    ______ ____

>  <TORSDO>
F 12

$$$$
