=
 OpenBabel11072411193D

 28 31  0  0  1  0  0  0  0  0999 V2000
  161.8880  203.8170  146.1080 C   0  0  0  0  0  0  0  0  0  0  0  0
  160.0840  201.8660  150.4670 C   0  0  0  0  0  3  0  0  0  0  0  0
  161.2380  204.1210  149.8400 C   0  0  1  0  0  3  0  0  0  0  0  0
  162.2090  202.5710  151.6070 C   0  0  0  0  0  2  0  0  0  0  0  0
  160.5600  201.9070  146.8020 C   0  0  0  0  0  3  0  0  0  0  0  0
  161.0980  203.3210  152.3290 C   0  0  0  0  0  2  0  0  0  0  0  0
  161.9050  204.2810  147.4250 C   0  0  0  0  0  3  0  0  0  0  0  0
  160.9720  203.0070  150.8560 C   0  0  0  0  0  0  0  0  0  0  0  0
  161.2100  202.6310  145.7980 C   0  0  0  0  0  3  0  0  0  0  0  0
  161.2590  203.5650  148.4400 C   0  0  0  0  0  0  0  0  0  0  0  0
  159.9260  201.5660  149.1760 C   0  0  0  0  0  3  0  0  0  0  0  0
  160.5840  202.3630  148.1230 C   0  0  0  0  0  0  0  0  0  0  0  0
  162.6930  205.8350  145.1470 O   0  0  0  0  0  0  0  0  0  0  0  0
  162.5830  204.5830  145.0720 C   0  0  0  0  0  3  0  0  0  0  0  0
  160.1590  205.1900  149.9470 C   0  0  0  0  0  2  0  0  0  0  0  0
  160.7230  206.7180  149.1410 S   0  0  0  0  0  0  0  0  0  0  0  0
  161.6190  207.2720  150.6210 C   0  0  0  0  0  2  0  0  0  0  0  0
  161.1900  208.5630  153.2040 N   0  0  0  0  0  2  0  0  0  0  0  0
  161.1010  210.5940  152.0460 O   0  0  0  0  0  0  0  0  0  0  0  0
  161.5040  208.7140  150.7480 N   0  0  0  0  0  2  0  0  0  0  0  0
  161.2560  209.3440  152.0040 C   0  0  0  0  0  0  0  0  0  0  0  0
  160.9300  209.1180  154.5280 C   0  0  2  0  0  0  0  0  0  0  0  0
  159.6700  209.6990  154.5470 F   0  0  0  0  0  0  0  0  0  0  0  0
  161.9680  210.1790  154.8540 C   0  0  0  0  0  1  0  0  0  0  0  0
  159.9500  206.9690  157.2260 O   0  0  0  0  0  1  0  0  0  0  0  0
  160.4740  206.8530  155.0970 O   0  0  0  0  0  0  0  0  0  0  0  0
  161.0500  207.9930  155.5600 C   0  0  2  0  0  3  0  0  0  0  0  0
  159.7530  207.5770  156.0330 N   0  0  0  0  0  0  0  0  0  0  0  0
  1  7  1  0  0  0  0
  2  8  1  0  0  0  0
  3 15  1  6  0  0  0
  3  8  1  0  0  0  0
  4  6  1  0  0  0  0
  5 12  2  0  0  0  0
  7 10  2  0  0  0  0
  8  4  1  0  0  0  0
  8  6  1  0  0  0  0
  9  1  2  0  0  0  0
  9  5  1  0  0  0  0
 10  3  1  0  0  0  0
 11  2  2  0  0  0  0
 12 10  1  0  0  0  0
 12 11  1  0  0  0  0
 14 13  2  0  0  0  0
 14  1  1  0  0  0  0
 16 15  1  0  0  0  0
 16 17  1  0  0  0  0
 17 20  1  0  0  0  0
 18 22  1  0  0  0  0
 20 21  1  0  0  0  0
 21 19  2  0  0  0  0
 21 18  1  0  0  0  0
 22 23  1  0  0  0  0
 22 24  1  1  0  0  0
 26 27  1  0  0  0  0
 26 28  1  0  0  0  0
 27 22  1  6  0  0  0
 27 28  1  0  0  0  0
 28 25  1  0  0  0  0
M  END
>  <MODEL>
1

>  <REMARK>
 VINA RESULT:      -8.1      0.000      0.000
  Name = 
  7 active torsions:
  status: ('A' for Active; 'I' for Inactive)
    1  A    between atoms: C_1  and  C_25
    2  A    between atoms: C_3  and  C_4
    3  A    between atoms: C_4  and  S_14
    4  A    between atoms: C_5  and  N_13
    5  A    between atoms: C_5  and  C_23
    6  A    between atoms: C_8  and  S_14
    7  A    between atoms: C_8  and  N_20
                            x       y       z     vdW  Elec       q    Type
                         _______ _______ _______ _____ _____    ______ ____

>  <TORSDO>
F 7

$$$$
=
 OpenBabel11072411193D

 28 31  0  0  1  0  0  0  0  0999 V2000
  161.7780  203.9130  146.0390 C   0  0  0  0  0  0  0  0  0  0  0  0
  160.2250  201.6290  150.3320 C   0  0  0  0  0  3  0  0  0  0  0  0
  161.1860  203.9940  149.7920 C   0  0  1  0  0  3  0  0  0  0  0  0
  162.3130  202.4460  151.4660 C   0  0  0  0  0  2  0  0  0  0  0  0
  160.6190  201.8740  146.6650 C   0  0  0  0  0  3  0  0  0  0  0  0
  161.1630  203.0730  152.2430 C   0  0  0  0  0  2  0  0  0  0  0  0
  161.7860  204.3170  147.3760 C   0  0  0  0  0  3  0  0  0  0  0  0
  161.0300  202.8170  150.7590 C   0  0  0  0  0  0  0  0  0  0  0  0
  161.1880  202.6930  145.6850 C   0  0  0  0  0  3  0  0  0  0  0  0
  161.2200  203.5060  148.3670 C   0  0  0  0  0  0  0  0  0  0  0  0
  160.0640  201.3770  149.0320 C   0  0  0  0  0  3  0  0  0  0  0  0
  160.6350  202.2710  148.0050 C   0  0  0  0  0  0  0  0  0  0  0  0
  161.6870  205.3870  144.1770 O   0  0  0  0  0  0  0  0  0  0  0  0
  162.3890  204.7780  145.0280 C   0  0  0  0  0  3  0  0  0  0  0  0
  160.0300  204.9690  149.9690 C   0  0  0  0  0  2  0  0  0  0  0  0
  160.5470  206.6360  149.4650 S   0  0  0  0  0  0  0  0  0  0  0  0
  161.8200  206.7260  150.7570 C   0  0  0  0  0  2  0  0  0  0  0  0
  161.2220  208.8720  152.6450 N   0  0  0  0  0  2  0  0  0  0  0  0
  162.7360  210.1930  151.4470 O   0  0  0  0  0  0  0  0  0  0  0  0
  162.4900  208.0140  150.6920 N   0  0  0  0  0  2  0  0  0  0  0  0
  162.1700  209.0760  151.5890 C   0  0  0  0  0  0  0  0  0  0  0  0
  160.8260  209.9010  153.6000 C   0  0  2  0  0  0  0  0  0  0  0  0
  161.9310  210.6740  153.9320 F   0  0  0  0  0  0  0  0  0  0  0  0
  160.2810  209.2500  154.8610 C   0  0  0  0  0  1  0  0  0  0  0  0
  158.2530  212.3920  153.4140 O   0  0  0  0  0  1  0  0  0  0  0  0
  160.2040  211.9270  152.5180 O   0  0  0  0  0  0  0  0  0  0  0  0
  159.7130  210.7450  152.9740 C   0  0  2  0  0  3  0  0  0  0  0  0
  159.5020  211.9650  153.7130 N   0  0  0  0  0  0  0  0  0  0  0  0
  1  7  1  0  0  0  0
  2  8  1  0  0  0  0
  3 15  1  6  0  0  0
  3  8  1  0  0  0  0
  4  6  1  0  0  0  0
  5 12  2  0  0  0  0
  7 10  2  0  0  0  0
  8  4  1  0  0  0  0
  8  6  1  0  0  0  0
  9  1  2  0  0  0  0
  9  5  1  0  0  0  0
 10  3  1  0  0  0  0
 11  2  2  0  0  0  0
 12 10  1  0  0  0  0
 12 11  1  0  0  0  0
 13 14  2  0  0  0  0
 14  1  1  0  0  0  0
 16 15  1  0  0  0  0
 16 17  1  0  0  0  0
 18 22  1  0  0  0  0
 19 21  2  0  0  0  0
 20 17  1  0  0  0  0
 20 21  1  0  0  0  0
 21 18  1  0  0  0  0
 22 23  1  0  0  0  0
 22 24  1  1  0  0  0
 25 28  1  0  0  0  0
 26 27  1  0  0  0  0
 26 28  1  0  0  0  0
 27 22  1  1  0  0  0
 27 28  1  0  0  0  0
M  END
>  <MODEL>
2

>  <REMARK>
 VINA RESULT:      -7.9      2.012      2.245
  Name = 
  7 active torsions:
  status: ('A' for Active; 'I' for Inactive)
    1  A    between atoms: C_1  and  C_25
    2  A    between atoms: C_3  and  C_4
    3  A    between atoms: C_4  and  S_14
    4  A    between atoms: C_5  and  N_13
    5  A    between atoms: C_5  and  C_23
    6  A    between atoms: C_8  and  S_14
    7  A    between atoms: C_8  and  N_20
                            x       y       z     vdW  Elec       q    Type
                         _______ _______ _______ _____ _____    ______ ____

>  <TORSDO>
F 7

$$$$
=
 OpenBabel11072411193D

 28 31  0  0  1  0  0  0  0  0999 V2000
  161.8680  204.0950  146.1340 C   0  0  0  0  0  0  0  0  0  0  0  0
  160.2190  201.6650  150.3100 C   0  0  0  0  0  3  0  0  0  0  0  0
  161.2780  204.0130  149.8870 C   0  0  1  0  0  3  0  0  0  0  0  0
  162.3390  202.3370  151.4800 C   0  0  0  0  0  2  0  0  0  0  0  0
  160.6250  202.0780  146.6590 C   0  0  0  0  0  3  0  0  0  0  0  0
  161.2150  202.9720  152.2890 C   0  0  0  0  0  2  0  0  0  0  0  0
  161.8930  204.4310  147.4900 C   0  0  0  0  0  3  0  0  0  0  0  0
  161.0720  202.7960  150.7950 C   0  0  0  0  0  0  0  0  0  0  0  0
  161.2290  202.9200  145.7200 C   0  0  0  0  0  3  0  0  0  0  0  0
  161.2930  203.5950  148.4400 C   0  0  0  0  0  0  0  0  0  0  0  0
  160.0480  201.4860  148.9980 C   0  0  0  0  0  3  0  0  0  0  0  0
  160.6570  202.4050  148.0170 C   0  0  0  0  0  0  0  0  0  0  0  0
  161.8470  205.5960  144.2920 O   0  0  0  0  0  0  0  0  0  0  0  0
  162.5150  204.9840  145.1670 C   0  0  0  0  0  3  0  0  0  0  0  0
  160.1630  205.0240  150.1140 C   0  0  0  0  0  2  0  0  0  0  0  0
  160.8030  206.7090  149.8850 S   0  0  0  0  0  0  0  0  0  0  0  0
  161.9700  206.5480  151.2680 C   0  0  0  0  0  2  0  0  0  0  0  0
  161.2240  208.6720  153.1270 N   0  0  0  0  0  2  0  0  0  0  0  0
  160.3280  207.0020  154.4980 O   0  0  0  0  0  0  0  0  0  0  0  0
  161.2380  206.2740  152.4930 N   0  0  0  0  0  2  0  0  0  0  0  0
  160.9070  207.3050  153.4210 C   0  0  0  0  0  0  0  0  0  0  0  0
  160.9340  209.7900  154.0200 C   0  0  2  0  0  0  0  0  0  0  0  0
  159.7380  209.5540  154.6820 F   0  0  0  0  0  0  0  0  0  0  0  0
  160.8100  211.0720  153.2140 C   0  0  0  0  0  1  0  0  0  0  0  0
  162.8080  211.1370  156.7650 O   0  0  0  0  0  1  0  0  0  0  0  0
  161.8670  209.2530  156.1430 O   0  0  0  0  0  0  0  0  0  0  0  0
  162.1020  209.9470  154.9980 C   0  0  2  0  0  3  0  0  0  0  0  0
  161.6890  210.6270  156.2010 N   0  0  0  0  0  0  0  0  0  0  0  0
  1  7  1  0  0  0  0
  2  8  1  0  0  0  0
  3 15  1  6  0  0  0
  3  8  1  0  0  0  0
  4  6  1  0  0  0  0
  5 12  2  0  0  0  0
  7 10  2  0  0  0  0
  8  4  1  0  0  0  0
  8  6  1  0  0  0  0
  9  1  2  0  0  0  0
  9  5  1  0  0  0  0
 10  3  1  0  0  0  0
 11  2  2  0  0  0  0
 12 10  1  0  0  0  0
 12 11  1  0  0  0  0
 13 14  2  0  0  0  0
 14  1  1  0  0  0  0
 16 15  1  0  0  0  0
 16 17  1  0  0  0  0
 17 20  1  0  0  0  0
 18 21  1  0  0  0  0
 18 22  1  0  0  0  0
 20 21  1  0  0  0  0
 21 19  2  0  0  0  0
 22 24  1  6  0  0  0
 22 23  1  0  0  0  0
 26 28  1  0  0  0  0
 27 22  1  6  0  0  0
 27 26  1  0  0  0  0
 27 28  1  0  0  0  0
 28 25  1  0  0  0  0
M  END
>  <MODEL>
3

>  <REMARK>
 VINA RESULT:      -7.8      1.554      1.865
  Name = 
  7 active torsions:
  status: ('A' for Active; 'I' for Inactive)
    1  A    between atoms: C_1  and  C_25
    2  A    between atoms: C_3  and  C_4
    3  A    between atoms: C_4  and  S_14
    4  A    between atoms: C_5  and  N_13
    5  A    between atoms: C_5  and  C_23
    6  A    between atoms: C_8  and  S_14
    7  A    between atoms: C_8  and  N_20
                            x       y       z     vdW  Elec       q    Type
                         _______ _______ _______ _____ _____    ______ ____

>  <TORSDO>
F 7

$$$$
=
 OpenBabel11072411193D

 28 31  0  0  1  0  0  0  0  0999 V2000
  161.8270  204.0390  146.6600 C   0  0  0  0  0  0  0  0  0  0  0  0
  160.7630  203.9600  151.6520 C   0  0  0  0  0  3  0  0  0  0  0  0
  161.7610  205.7600  150.0480 C   0  0  1  0  0  3  0  0  0  0  0  0
  163.0260  204.9540  152.1030 C   0  0  0  0  0  2  0  0  0  0  0  0
  160.6610  202.5910  148.2200 C   0  0  0  0  0  3  0  0  0  0  0  0
  162.0260  205.9680  152.6440 C   0  0  0  0  0  2  0  0  0  0  0  0
  162.0400  204.9670  147.6830 C   0  0  0  0  0  3  0  0  0  0  0  0
  161.6780  205.1250  151.4400 C   0  0  0  0  0  0  0  0  0  0  0  0
  161.1320  202.8540  146.9300 C   0  0  0  0  0  3  0  0  0  0  0  0
  161.5740  204.7150  148.9790 C   0  0  0  0  0  0  0  0  0  0  0  0
  160.4110  203.2010  150.6120 C   0  0  0  0  0  3  0  0  0  0  0  0
  160.8820  203.5120  149.2480 C   0  0  0  0  0  0  0  0  0  0  0  0
  161.6000  204.8360  144.4330 O   0  0  0  0  0  0  0  0  0  0  0  0
  162.3380  204.3270  145.3180 C   0  0  0  0  0  3  0  0  0  0  0  0
  160.6920  206.8340  149.9030 C   0  0  0  0  0  2  0  0  0  0  0  0
  161.4470  208.3790  149.3170 S   0  0  0  0  0  0  0  0  0  0  0  0
  162.0120  208.8370  150.9810 C   0  0  0  0  0  2  0  0  0  0  0  0
  161.4680  209.5260  153.7660 N   0  0  0  0  0  2  0  0  0  0  0  0
  160.5750  211.5380  152.9750 O   0  0  0  0  0  0  0  0  0  0  0  0
  161.4360  210.1160  151.3570 N   0  0  0  0  0  2  0  0  0  0  0  0
  161.1340  210.4390  152.7130 C   0  0  0  0  0  0  0  0  0  0  0  0
  161.1870  209.7650  155.1780 C   0  0  2  0  0  0  0  0  0  0  0  0
  159.9630  210.4080  155.3030 F   0  0  0  0  0  0  0  0  0  0  0  0
  162.2720  210.6460  155.7750 C   0  0  0  0  0  1  0  0  0  0  0  0
  159.8880  206.9810  157.0270 O   0  0  0  0  0  1  0  0  0  0  0  0
  160.8090  207.4170  155.0820 O   0  0  0  0  0  0  0  0  0  0  0  0
  161.1990  208.4210  155.9110 C   0  0  2  0  0  3  0  0  0  0  0  0
  159.8720  207.8630  156.0010 N   0  0  0  0  0  0  0  0  0  0  0  0
  1  9  2  0  0  0  0
  1  7  1  0  0  0  0
  3 15  1  1  0  0  0
  3  8  1  0  0  0  0
  4  6  1  0  0  0  0
  5 12  2  0  0  0  0
  7 10  2  0  0  0  0
  8  2  1  0  0  0  0
  8  4  1  0  0  0  0
  8  6  1  0  0  0  0
  9  5  1  0  0  0  0
 10 12  1  0  0  0  0
 10  3  1  0  0  0  0
 11  2  2  0  0  0  0
 12 11  1  0  0  0  0
 13 14  2  0  0  0  0
 14  1  1  0  0  0  0
 16 15  1  0  0  0  0
 16 17  1  0  0  0  0
 17 20  1  0  0  0  0
 18 22  1  0  0  0  0
 20 21  1  0  0  0  0
 21 19  2  0  0  0  0
 21 18  1  0  0  0  0
 22 23  1  0  0  0  0
 22 24  1  1  0  0  0
 26 27  1  0  0  0  0
 26 28  1  0  0  0  0
 27 22  1  6  0  0  0
 27 28  1  0  0  0  0
 28 25  1  0  0  0  0
M  END
>  <MODEL>
4

>  <REMARK>
 VINA RESULT:      -7.5      1.276      1.543
  Name = 
  7 active torsions:
  status: ('A' for Active; 'I' for Inactive)
    1  A    between atoms: C_1  and  C_25
    2  A    between atoms: C_3  and  C_4
    3  A    between atoms: C_4  and  S_14
    4  A    between atoms: C_5  and  N_13
    5  A    between atoms: C_5  and  C_23
    6  A    between atoms: C_8  and  S_14
    7  A    between atoms: C_8  and  N_20
                            x       y       z     vdW  Elec       q    Type
                         _______ _______ _______ _____ _____    ______ ____

>  <TORSDO>
F 7

$$$$
=
 OpenBabel11072411193D

 28 31  0  0  1  0  0  0  0  0999 V2000
  160.8030  203.2760  150.3440 C   0  0  0  0  0  0  0  0  0  0  0  0
  161.2070  203.5060  145.2610 C   0  0  0  0  0  3  0  0  0  0  0  0
  161.3200  205.2890  147.1620 C   0  0  1  0  0  3  0  0  0  0  0  0
  159.6280  205.4610  145.2700 C   0  0  0  0  0  2  0  0  0  0  0  0
  161.0040  201.7210  148.4910 C   0  0  0  0  0  3  0  0  0  0  0  0
  160.9240  205.9930  144.6720 C   0  0  0  0  0  2  0  0  0  0  0  0
  160.9420  204.3470  149.4580 C   0  0  0  0  0  3  0  0  0  0  0  0
  160.9600  204.9080  145.7230 C   0  0  0  0  0  0  0  0  0  0  0  0
  160.8390  201.9630  149.8580 C   0  0  0  0  0  3  0  0  0  0  0  0
  161.1070  204.1180  148.0870 C   0  0  0  0  0  0  0  0  0  0  0  0
  161.2690  202.5190  146.1570 C   0  0  0  0  0  3  0  0  0  0  0  0
  161.1340  202.7910  147.6010 C   0  0  0  0  0  0  0  0  0  0  0  0
  161.2530  204.4720  152.3470 O   0  0  0  0  0  0  0  0  0  0  0  0
  160.6200  203.5490  151.7710 C   0  0  0  0  0  3  0  0  0  0  0  0
  162.7730  205.7370  147.2340 C   0  0  0  0  0  2  0  0  0  0  0  0
  163.0240  206.7840  148.6970 S   0  0  0  0  0  0  0  0  0  0  0  0
  161.6230  207.8610  148.2750 C   0  0  0  0  0  2  0  0  0  0  0  0
  161.5060  208.8890  151.0050 N   0  0  0  0  0  2  0  0  0  0  0  0
  162.1000  210.9730  150.1250 O   0  0  0  0  0  0  0  0  0  0  0  0
  161.9560  209.2390  148.5910 N   0  0  0  0  0  2  0  0  0  0  0  0
  161.8610  209.7530  149.9180 C   0  0  0  0  0  0  0  0  0  0  0  0
  161.3740  209.3280  152.3910 C   0  0  2  0  0  0  0  0  0  0  0  0
  162.5160  210.0210  152.7670 F   0  0  0  0  0  0  0  0  0  0  0  0
  161.2060  208.1210  153.2980 C   0  0  0  0  0  1  0  0  0  0  0  0
  158.6870  211.0800  153.9940 O   0  0  0  0  0  1  0  0  0  0  0  0
  160.4520  211.4920  152.7540 O   0  0  0  0  0  0  0  0  0  0  0  0
  160.1190  210.1980  152.5080 C   0  0  2  0  0  3  0  0  0  0  0  0
  159.9910  210.7530  153.8330 N   0  0  0  0  0  0  0  0  0  0  0  0
  1 14  1  0  0  0  0
  2  8  1  0  0  0  0
  2 11  2  0  0  0  0
  3 15  1  6  0  0  0
  3 10  1  0  0  0  0
  4  8  1  0  0  0  0
  5  9  2  0  0  0  0
  6  4  1  0  0  0  0
  6  8  1  0  0  0  0
  7  1  2  0  0  0  0
  8  3  1  0  0  0  0
  9  1  1  0  0  0  0
 10  7  1  0  0  0  0
 11 12  1  0  0  0  0
 12 10  2  0  0  0  0
 12  5  1  0  0  0  0
 14 13  2  0  0  0  0
 15 16  1  0  0  0  0
 17 20  1  0  0  0  0
 17 16  1  0  0  0  0
 18 22  1  0  0  0  0
 20 21  1  0  0  0  0
 21 19  2  0  0  0  0
 21 18  1  0  0  0  0
 22 23  1  0  0  0  0
 22 24  1  1  0  0  0
 26 28  1  0  0  0  0
 27 22  1  1  0  0  0
 27 26  1  0  0  0  0
 27 28  1  0  0  0  0
 28 25  1  0  0  0  0
M  END
>  <MODEL>
5

>  <REMARK>
 VINA RESULT:      -7.5      2.469      4.263
  Name = 
  7 active torsions:
  status: ('A' for Active; 'I' for Inactive)
    1  A    between atoms: C_1  and  C_25
    2  A    between atoms: C_3  and  C_4
    3  A    between atoms: C_4  and  S_14
    4  A    between atoms: C_5  and  N_13
    5  A    between atoms: C_5  and  C_23
    6  A    between atoms: C_8  and  S_14
    7  A    between atoms: C_8  and  N_20
                            x       y       z     vdW  Elec       q    Type
                         _______ _______ _______ _____ _____    ______ ____

>  <TORSDO>
F 7

$$$$
=
 OpenBabel11072411193D

 28 31  0  0  1  0  0  0  0  0999 V2000
  160.7360  203.3510  150.4840 C   0  0  0  0  0  0  0  0  0  0  0  0
  161.4960  204.1780  145.5050 C   0  0  0  0  0  3  0  0  0  0  0  0
  161.0120  205.7380  147.5400 C   0  0  1  0  0  3  0  0  0  0  0  0
  159.4940  205.6960  145.4990 C   0  0  0  0  0  2  0  0  0  0  0  0
  161.4650  202.0820  148.5490 C   0  0  0  0  0  3  0  0  0  0  0  0
  160.6660  206.5760  145.0840 C   0  0  0  0  0  2  0  0  0  0  0  0
  160.6840  204.5090  149.7040 C   0  0  0  0  0  3  0  0  0  0  0  0
  160.8780  205.4300  146.0460 C   0  0  0  0  0  0  0  0  0  0  0  0
  161.1320  202.1390  149.9060 C   0  0  0  0  0  3  0  0  0  0  0  0
  161.0140  204.4640  148.3440 C   0  0  0  0  0  0  0  0  0  0  0  0
  161.7210  203.1490  146.3240 C   0  0  0  0  0  3  0  0  0  0  0  0
  161.4040  203.2350  147.7620 C   0  0  0  0  0  0  0  0  0  0  0  0
  160.9390  204.2440  152.6770 O   0  0  0  0  0  0  0  0  0  0  0  0
  160.3740  203.4290  151.9010 C   0  0  0  0  0  3  0  0  0  0  0  0
  162.3010  206.5060  147.7980 C   0  0  0  0  0  2  0  0  0  0  0  0
  161.9170  208.1300  148.5160 S   0  0  0  0  0  0  0  0  0  0  0  0
  162.8360  207.7710  150.0410 C   0  0  0  0  0  2  0  0  0  0  0  0
  161.4070  209.4010  151.9980 N   0  0  0  0  0  2  0  0  0  0  0  0
  160.5580  207.4040  152.8710 O   0  0  0  0  0  0  0  0  0  0  0  0
  161.9410  207.1830  151.0220 N   0  0  0  0  0  2  0  0  0  0  0  0
  161.2720  207.9740  152.0040 C   0  0  0  0  0  0  0  0  0  0  0  0
  160.7720  210.2880  152.9670 C   0  0  2  0  0  0  0  0  0  0  0  0
  159.5770  209.7250  153.3940 F   0  0  0  0  0  0  0  0  0  0  0  0
  160.4830  211.6320  152.3200 C   0  0  0  0  0  1  0  0  0  0  0  0
  161.8810  211.3560  156.2050 O   0  0  0  0  0  1  0  0  0  0  0  0
  161.6370  209.5090  155.0420 O   0  0  0  0  0  0  0  0  0  0  0  0
  161.7410  210.5110  154.1300 C   0  0  2  0  0  3  0  0  0  0  0  0
  161.0320  210.7130  155.3700 N   0  0  0  0  0  0  0  0  0  0  0  0
  1 14  1  0  0  0  0
  2  8  1  0  0  0  0
  2 11  2  0  0  0  0
  3 15  1  6  0  0  0
  3 10  1  0  0  0  0
  4  8  1  0  0  0  0
  5  9  2  0  0  0  0
  6  4  1  0  0  0  0
  6  8  1  0  0  0  0
  7  1  2  0  0  0  0
  8  3  1  0  0  0  0
  9  1  1  0  0  0  0
 10  7  1  0  0  0  0
 11 12  1  0  0  0  0
 12 10  2  0  0  0  0
 12  5  1  0  0  0  0
 14 13  2  0  0  0  0
 15 16  1  0  0  0  0
 16 17  1  0  0  0  0
 17 20  1  0  0  0  0
 18 21  1  0  0  0  0
 18 22  1  0  0  0  0
 20 21  1  0  0  0  0
 21 19  2  0  0  0  0
 22 24  1  6  0  0  0
 22 23  1  0  0  0  0
 26 28  1  0  0  0  0
 27 22  1  6  0  0  0
 27 26  1  0  0  0  0
 27 28  1  0  0  0  0
 28 25  1  0  0  0  0
M  END
>  <MODEL>
6

>  <REMARK>
 VINA RESULT:      -7.5      2.306      4.098
  Name = 
  7 active torsions:
  status: ('A' for Active; 'I' for Inactive)
    1  A    between atoms: C_1  and  C_25
    2  A    between atoms: C_3  and  C_4
    3  A    between atoms: C_4  and  S_14
    4  A    between atoms: C_5  and  N_13
    5  A    between atoms: C_5  and  C_23
    6  A    between atoms: C_8  and  S_14
    7  A    between atoms: C_8  and  N_20
                            x       y       z     vdW  Elec       q    Type
                         _______ _______ _______ _____ _____    ______ ____

>  <TORSDO>
F 7

$$$$
=
 OpenBabel11072411193D

 28 31  0  0  1  0  0  0  0  0999 V2000
  161.0350  202.1880  147.5930 C   0  0  0  0  0  0  0  0  0  0  0  0
  160.8700  203.9480  152.3820 C   0  0  0  0  0  3  0  0  0  0  0  0
  161.4510  205.0320  150.0800 C   0  0  1  0  0  3  0  0  0  0  0  0
  163.1060  205.0310  152.0110 C   0  0  0  0  0  2  0  0  0  0  0  0
  160.2580  201.4170  149.7590 C   0  0  0  0  0  3  0  0  0  0  0  0
  162.1530  206.1760  152.3270 C   0  0  0  0  0  2  0  0  0  0  0  0
  161.3620  203.4260  148.1530 C   0  0  0  0  0  3  0  0  0  0  0  0
  161.6550  204.9510  151.5960 C   0  0  0  0  0  0  0  0  0  0  0  0
  160.4770  201.1870  148.3970 C   0  0  0  0  0  3  0  0  0  0  0  0
  161.1480  203.6680  149.5150 C   0  0  0  0  0  0  0  0  0  0  0  0
  160.3920  202.8620  151.7710 C   0  0  0  0  0  3  0  0  0  0  0  0
  160.5950  202.6500  150.3250 C   0  0  0  0  0  0  0  0  0  0  0  0
  160.3670  202.1070  145.3140 O   0  0  0  0  0  0  0  0  0  0  0  0
  161.2820  201.9620  146.1670 C   0  0  0  0  0  3  0  0  0  0  0  0
  160.3050  205.9810  149.7600 C   0  0  0  0  0  2  0  0  0  0  0  0
  160.7470  207.0250  148.3400 S   0  0  0  0  0  0  0  0  0  0  0  0
  162.2800  207.5980  149.1280 C   0  0  0  0  0  2  0  0  0  0  0  0
  161.6090  209.1790  151.4890 N   0  0  0  0  0  2  0  0  0  0  0  0
  161.9470  211.0820  150.1710 O   0  0  0  0  0  0  0  0  0  0  0  0
  162.3210  209.0500  149.1160 N   0  0  0  0  0  2  0  0  0  0  0  0
  161.9560  209.8250  150.2570 C   0  0  0  0  0  0  0  0  0  0  0  0
  161.2120  209.8880  152.7010 C   0  0  2  0  0  0  0  0  0  0  0  0
  162.2720  210.6630  153.1520 F   0  0  0  0  0  0  0  0  0  0  0  0
  160.8370  208.8880  153.7820 C   0  0  0  0  0  1  0  0  0  0  0  0
  158.1640  211.6740  153.3160 O   0  0  0  0  0  1  0  0  0  0  0  0
  160.2230  212.0520  152.6520 O   0  0  0  0  0  0  0  0  0  0  0  0
  159.9820  210.7420  152.3850 C   0  0  2  0  0  3  0  0  0  0  0  0
  159.4550  211.3610  153.5770 N   0  0  0  0  0  0  0  0  0  0  0  0
  1  7  2  0  0  0  0
  1  9  1  0  0  0  0
  3 15  1  1  0  0  0
  3  8  1  0  0  0  0
  4  6  1  0  0  0  0
  5 12  1  0  0  0  0
  7 10  1  0  0  0  0
  8  4  1  0  0  0  0
  8  6  1  0  0  0  0
  8  2  1  0  0  0  0
  9  5  2  0  0  0  0
 10  3  1  0  0  0  0
 10 12  2  0  0  0  0
 11  2  2  0  0  0  0
 12 11  1  0  0  0  0
 13 14  2  0  0  0  0
 14  1  1  0  0  0  0
 16 17  1  0  0  0  0
 16 15  1  0  0  0  0
 18 22  1  0  0  0  0
 19 21  2  0  0  0  0
 20 17  1  0  0  0  0
 20 21  1  0  0  0  0
 21 18  1  0  0  0  0
 22 23  1  0  0  0  0
 22 24  1  1  0  0  0
 25 28  1  0  0  0  0
 26 28  1  0  0  0  0
 27 26  1  0  0  0  0
 27 22  1  1  0  0  0
 27 28  1  0  0  0  0
M  END
>  <MODEL>
7

>  <REMARK>
 VINA RESULT:      -7.4      2.437      2.989
  Name = 
  7 active torsions:
  status: ('A' for Active; 'I' for Inactive)
    1  A    between atoms: C_1  and  C_25
    2  A    between atoms: C_3  and  C_4
    3  A    between atoms: C_4  and  S_14
    4  A    between atoms: C_5  and  N_13
    5  A    between atoms: C_5  and  C_23
    6  A    between atoms: C_8  and  S_14
    7  A    between atoms: C_8  and  N_20
                            x       y       z     vdW  Elec       q    Type
                         _______ _______ _______ _____ _____    ______ ____

>  <TORSDO>
F 7

$$$$
=
 OpenBabel11072411193D

 28 31  0  0  1  0  0  0  0  0999 V2000
  160.3850  209.5840  153.2340 C   0  0  0  0  0  0  0  0  0  0  0  0
  161.6440  204.7890  152.0160 C   0  0  0  0  0  3  0  0  0  0  0  0
  161.2380  206.9580  150.6230 C   0  0  1  0  0  3  0  0  0  0  0  0
  159.8940  204.8370  150.2140 C   0  0  0  0  0  2  0  0  0  0  0  0
  161.0670  207.5620  154.3910 C   0  0  0  0  0  3  0  0  0  0  0  0
  161.2120  204.5980  149.4890 C   0  0  0  0  0  2  0  0  0  0  0  0
  160.5650  208.9410  152.0070 C   0  0  0  0  0  3  0  0  0  0  0  0
  161.1760  205.4320  150.7480 C   0  0  0  0  0  0  0  0  0  0  0  0
  160.6420  208.8940  154.4250 C   0  0  0  0  0  3  0  0  0  0  0  0
  160.9900  207.6070  151.9590 C   0  0  0  0  0  0  0  0  0  0  0  0
  161.6510  205.4960  153.1490 C   0  0  0  0  0  3  0  0  0  0  0  0
  161.2380  206.9130  153.1650 C   0  0  0  0  0  0  0  0  0  0  0  0
  158.8600  211.3200  152.6790 O   0  0  0  0  0  0  0  0  0  0  0  0
  159.9280  210.9750  153.2500 C   0  0  0  0  0  3  0  0  0  0  0  0
  162.6020  207.3810  150.0960 C   0  0  0  0  0  2  0  0  0  0  0  0
  162.4970  207.7150  148.3130 S   0  0  0  0  0  0  0  0  0  0  0  0
  161.5840  209.2640  148.5680 C   0  0  0  0  0  2  0  0  0  0  0  0
  161.1090  211.9590  147.5490 N   0  0  0  0  0  2  0  0  0  0  0  0
  163.1860  212.5440  148.4500 O   0  0  0  0  0  0  0  0  0  0  0  0
  162.5210  210.3500  148.8020 N   0  0  0  0  0  2  0  0  0  0  0  0
  162.3090  211.6570  148.2710 C   0  0  0  0  0  0  0  0  0  0  0  0
  160.8120  213.2620  146.9620 C   0  0  2  0  0  0  0  0  0  0  0  0
  161.9650  213.7880  146.3980 F   0  0  0  0  0  0  0  0  0  0  0  0
  160.3120  214.2090  148.0400 C   0  0  0  0  0  1  0  0  0  0  0  0
  159.2880  213.1580  143.7180 O   0  0  0  0  0  1  0  0  0  0  0  0
  159.7170  211.8270  145.4110 O   0  0  0  0  0  0  0  0  0  0  0  0
  159.7020  213.0860  145.9230 C   0  0  2  0  0  3  0  0  0  0  0  0
  160.2480  212.8280  144.6130 N   0  0  0  0  0  0  0  0  0  0  0  0
  1 14  1  0  0  0  0
  1  9  1  0  0  0  0
  2 11  2  0  0  0  0
  3 15  1  1  0  0  0
  3  8  1  0  0  0  0
  3 10  1  0  0  0  0
  4  8  1  0  0  0  0
  5  9  2  0  0  0  0
  6  4  1  0  0  0  0
  6  8  1  0  0  0  0
  7  1  2  0  0  0  0
  8  2  1  0  0  0  0
 10  7  1  0  0  0  0
 10 12  2  0  0  0  0
 11 12  1  0  0  0  0
 12  5  1  0  0  0  0
 13 14  2  0  0  0  0
 16 17  1  0  0  0  0
 16 15  1  0  0  0  0
 17 20  1  0  0  0  0
 18 21  1  0  0  0  0
 21 19  2  0  0  0  0
 21 20  1  0  0  0  0
 22 18  1  0  0  0  0
 22 24  1  1  0  0  0
 23 22  1  0  0  0  0
 25 28  1  0  0  0  0
 26 27  1  0  0  0  0
 27 22  1  1  0  0  0
 28 26  1  0  0  0  0
 28 27  1  0  0  0  0
M  END
>  <MODEL>
8

>  <REMARK>
 VINA RESULT:      -7.3      4.275      7.733
  Name = 
  7 active torsions:
  status: ('A' for Active; 'I' for Inactive)
    1  A    between atoms: C_1  and  C_25
    2  A    between atoms: C_3  and  C_4
    3  A    between atoms: C_4  and  S_14
    4  A    between atoms: C_5  and  N_13
    5  A    between atoms: C_5  and  C_23
    6  A    between atoms: C_8  and  S_14
    7  A    between atoms: C_8  and  N_20
                            x       y       z     vdW  Elec       q    Type
                         _______ _______ _______ _____ _____    ______ ____

>  <TORSDO>
F 7

$$$$
=
 OpenBabel11072411193D

 28 31  0  0  1  0  0  0  0  0999 V2000
  161.2120  202.8030  147.2910 C   0  0  0  0  0  0  0  0  0  0  0  0
  160.8540  204.2300  152.1790 C   0  0  0  0  0  3  0  0  0  0  0  0
  161.5490  205.4610  149.9850 C   0  0  1  0  0  3  0  0  0  0  0  0
  163.1170  205.3040  151.9820 C   0  0  0  0  0  2  0  0  0  0  0  0
  160.3320  201.8940  149.3620 C   0  0  0  0  0  3  0  0  0  0  0  0
  162.1640  206.4380  152.3360 C   0  0  0  0  0  2  0  0  0  0  0  0
  161.5290  203.9940  147.9490 C   0  0  0  0  0  3  0  0  0  0  0  0
  161.6850  205.2730  151.5000 C   0  0  0  0  0  0  0  0  0  0  0  0
  160.6090  201.7560  147.9980 C   0  0  0  0  0  3  0  0  0  0  0  0
  161.2570  204.1440  149.3140 C   0  0  0  0  0  0  0  0  0  0  0  0
  160.3920  203.1950  151.4740 C   0  0  0  0  0  3  0  0  0  0  0  0
  160.6570  203.0800  150.0260 C   0  0  0  0  0  0  0  0  0  0  0  0
  161.1420  203.5390  145.0320 O   0  0  0  0  0  0  0  0  0  0  0  0
  161.5200  202.6730  145.8650 C   0  0  0  0  0  3  0  0  0  0  0  0
  160.4290  206.4470  149.6830 C   0  0  0  0  0  2  0  0  0  0  0  0
  160.7210  207.2370  148.0730 S   0  0  0  0  0  0  0  0  0  0  0  0
  162.3160  207.9260  148.6030 C   0  0  0  0  0  2  0  0  0  0  0  0
  162.0210  210.8240  148.3950 N   0  0  0  0  0  2  0  0  0  0  0  0
  161.9100  210.8660  150.7310 O   0  0  0  0  0  0  0  0  0  0  0  0
  162.1200  208.7640  149.7740 N   0  0  0  0  0  2  0  0  0  0  0  0
  162.0150  210.1830  149.6770 C   0  0  0  0  0  0  0  0  0  0  0  0
  161.9300  212.2670  148.2000 C   0  0  2  0  0  0  0  0  0  0  0  0
  163.1590  212.8490  148.4770 F   0  0  0  0  0  0  0  0  0  0  0  0
  160.8850  212.8470  149.1380 C   0  0  0  0  0  1  0  0  0  0  0  0
  159.9150  212.0180  145.2440 O   0  0  0  0  0  1  0  0  0  0  0  0
  160.5470  213.5160  146.7200 O   0  0  0  0  0  0  0  0  0  0  0  0
  161.4880  212.5370  146.7600 C   0  0  2  0  0  3  0  0  0  0  0  0
  160.0950  212.2140  146.5710 N   0  0  0  0  0  0  0  0  0  0  0  0
  1  7  2  0  0  0  0
  1  9  1  0  0  0  0
  3 15  1  1  0  0  0
  3  8  1  0  0  0  0
  4  6  1  0  0  0  0
  5 12  1  0  0  0  0
  7 10  1  0  0  0  0
  8  4  1  0  0  0  0
  8  2  1  0  0  0  0
  8  6  1  0  0  0  0
  9  5  2  0  0  0  0
 10  3  1  0  0  0  0
 10 12  2  0  0  0  0
 11  2  2  0  0  0  0
 12 11  1  0  0  0  0
 13 14  2  0  0  0  0
 14  1  1  0  0  0  0
 16 17  1  0  0  0  0
 16 15  1  0  0  0  0
 17 20  1  0  0  0  0
 18 21  1  0  0  0  0
 21 20  1  0  0  0  0
 21 19  2  0  0  0  0
 22 18  1  0  0  0  0
 22 23  1  0  0  0  0
 22 24  1  1  0  0  0
 25 28  1  0  0  0  0
 26 27  1  0  0  0  0
 27 22  1  1  0  0  0
 28 26  1  0  0  0  0
 28 27  1  0  0  0  0
M  END
>  <MODEL>
9

>  <REMARK>
 VINA RESULT:      -7.2      3.357      5.245
  Name = 
  7 active torsions:
  status: ('A' for Active; 'I' for Inactive)
    1  A    between atoms: C_1  and  C_25
    2  A    between atoms: C_3  and  C_4
    3  A    between atoms: C_4  and  S_14
    4  A    between atoms: C_5  and  N_13
    5  A    between atoms: C_5  and  C_23
    6  A    between atoms: C_8  and  S_14
    7  A    between atoms: C_8  and  N_20
                            x       y       z     vdW  Elec       q    Type
                         _______ _______ _______ _____ _____    ______ ____

>  <TORSDO>
F 7

$$$$
