=
 OpenBabel11072409483D

 49 54  0  0  1  0  0  0  0  0999 V2000
  162.8360  205.8560  148.0640 C   0  0  0  0  0  2  0  0  0  0  0  0
  162.4740  207.6630  149.7500 C   0  0  1  0  0  0  0  0  0  0  0  0
  161.5920  208.8390  150.0940 C   0  0  1  0  0  0  0  0  0  0  0  0
  161.2230  207.1470  151.8100 C   0  0  1  0  0  3  0  0  0  0  0  0
  161.1950  208.0050  148.9170 C   0  0  2  0  0  3  0  0  0  0  0  0
  160.9420  208.5910  151.4460 C   0  0  0  0  0  2  0  0  0  0  0  0
  163.3580  207.2210  148.5920 C   0  0  0  0  0  2  0  0  0  0  0  0
  161.2940  205.8090  147.8300 C   0  0  1  0  0  3  0  0  0  0  0  0
  160.4750  206.6680  148.8240 C   0  0  0  0  0  2  0  0  0  0  0  0
  162.3630  206.6730  150.9210 C   0  0  0  0  0  2  0  0  0  0  0  0
  162.2420  210.1780  149.8060 C   0  0  0  0  0  2  0  0  0  0  0  0
  161.4610  211.2060  150.3370 O   0  0  0  0  0  1  0  0  0  0  0  0
  159.9910  206.8910  146.2030 O   0  0  0  0  0  0  0  0  0  0  0  0
  160.8730  206.0730  146.4070 C   0  0  0  0  0  0  0  0  0  0  0  0
  161.1970  205.9160  143.7460 O   0  0  0  0  0  0  0  0  0  0  0  0
  163.0850  205.2410  145.1620 O   0  0  0  0  0  0  0  0  0  0  0  0
  161.5900  205.2340  145.0270 S   0  0  0  0  0  0  0  0  0  0  0  0
  161.0400  203.5920  145.0000 N   0  0  0  0  0  2  0  0  0  0  0  0
  161.5880  202.9210  146.1700 C   0  0  0  0  0  2  0  0  0  0  0  0
  160.3660  201.2410  147.8510 C   0  0  2  0  0  3  0  0  0  0  0  0
  161.3250  199.3510  146.5580 C   0  0  0  0  0  2  0  0  0  0  0  0
  160.8420  199.5890  145.2610 O   0  0  0  0  0  0  0  0  0  0  0  0
  161.6300  200.6720  147.2250 C   0  0  1  0  0  3  0  0  0  0  0  0
  160.8040  201.6470  146.4480 C   0  0  2  0  0  0  0  0  0  0  0  0
  160.2440  200.8600  145.2870 C   0  0  0  0  0  2  0  0  0  0  0  0
  160.7410  202.2830  148.9010 C   0  0  0  0  0  2  0  0  0  0  0  0
  160.4020  201.8310  150.3230 C   0  0  1  0  0  3  0  0  0  0  0  0
  160.7870  200.5060  150.5400 O   0  0  0  0  0  1  0  0  0  0  0  0
  161.1080  202.9440  151.6570 P   0  0  0  0  0  0  0  0  0  0  0  0
  162.2060  203.8530  150.6670 O   0  0  0  0  0  1  0  0  0  0  0  0
  159.8410  204.1320  151.6470 O   0  0  0  0  0  1  0  0  0  0  0  0
  161.5700  207.0130  153.2850 C   0  0  0  0  0  2  0  0  0  0  0  0
  160.8110  208.0370  154.1150 C   0  0  0  0  0  2  0  0  0  0  0  0
  161.4460  209.4160  153.9790 C   0  0  0  0  0  2  0  0  0  0  0  0
  160.6530  210.5080  154.7010 C   0  0  1  0  0  3  0  0  0  0  0  0
  161.3090  210.8940  156.0360 C   0  0  2  0  0  3  0  0  0  0  0  0
  162.6900  210.2520  156.1730 C   0  0  0  0  0  3  0  0  0  0  0  0
  163.6510  211.2370  156.3960 O   0  0  0  0  0  1  0  0  0  0  0  0
  162.7080  209.3510  157.2390 O   0  0  0  0  0  1  0  0  0  0  0  0
  160.4140  210.5700  157.2330 C   0  0  0  0  0  2  0  0  0  0  0  0
  159.0930  210.4140  156.8150 O   0  0  0  0  0  1  0  0  0  0  0  0
  160.3320  211.7170  153.8030 C   0  0  0  0  0  2  0  0  0  0  0  0
  158.9440  212.3500  154.0260 C   0  0  2  0  0  3  0  0  0  0  0  0
  158.2260  212.8460  152.7760 C   0  0  2  0  0  3  0  0  0  0  0  0
  159.0590  212.8610  151.6530 O   0  0  0  0  0  1  0  0  0  0  0  0
  158.2860  214.1950  153.4600 C   0  0  0  0  0  2  0  0  0  0  0  0
  159.0110  213.6810  154.6180 N   0  0  0  0  0  0  0  0  0  0  0  0
  158.8210  213.8300  156.9320 O   0  0  0  0  0  1  0  0  0  0  0  0
  158.0960  213.7070  155.7470 C   0  0  0  0  0  2  0  0  0  0  0  0
  1  7  1  0  0  0  0
  2  7  1  6  0  0  0
  2  3  1  0  0  0  0
  2 10  1  0  0  0  0
  3 11  1  6  0  0  0
  3  6  1  0  0  0  0
  4 32  1  1  0  0  0
  5  9  1  1  0  0  0
  5  2  1  0  0  0  0
  5  3  1  0  0  0  0
  6  4  1  0  0  0  0
  8 14  1  6  0  0  0
  8  1  1  0  0  0  0
  8  9  1  0  0  0  0
 10  4  1  0  0  0  0
 11 12  1  0  0  0  0
 13 14  2  0  0  0  0
 15 17  2  0  0  0  0
 17 16  2  0  0  0  0
 17 14  1  0  0  0  0
 18 17  1  0  0  0  0
 18 19  1  0  0  0  0
 20 26  1  1  0  0  0
 22 25  1  0  0  0  0
 22 21  1  0  0  0  0
 23 21  1  6  0  0  0
 23 20  1  0  0  0  0
 24 19  1  6  0  0  0
 24 23  1  0  0  0  0
 24 20  1  0  0  0  0
 25 24  1  0  0  0  0
 26 27  1  0  0  0  0
 27 28  1  1  0  0  0
 27 29  1  0  0  0  0
 30 29  1  0  0  0  0
 31 29  1  0  0  0  0
 32 33  1  0  0  0  0
 34 33  1  0  0  0  0
 34 35  1  0  0  0  0
 35 42  1  6  0  0  0
 35 36  1  0  0  0  0
 36 37  1  0  0  0  0
 36 40  1  1  0  0  0
 37 38  1  0  0  0  0
 37 39  1  0  0  0  0
 41 40  1  0  0  0  0
 43 42  1  6  0  0  0
 43 47  1  0  0  0  0
 44 45  1  6  0  0  0
 44 46  1  0  0  0  0
 44 43  1  0  0  0  0
 46 47  1  0  0  0  0
 47 49  1  0  0  0  0
 49 48  1  0  0  0  0
M  END
>  <MODEL>
1

>  <REMARK>
 VINA RESULT:      -5.1      0.000      0.000
  Name = 
  19 active torsions:
  status: ('A' for Active; 'I' for Inactive)
    1  A    between atoms: C_3  and  C_43
    2  A    between atoms: C_4  and  C_8
    3  A    between atoms: P_5  and  C_25
    4  A    between atoms: C_6  and  C_21
    5  A    between atoms: C_9  and  C_27
    6  A    between atoms: C_14  and  C_43
    7  A    between atoms: C_17  and  C_30
    8  A    between atoms: C_17  and  C_39
    9  A    between atoms: C_17  and  C_43
   10  A    between atoms: N_20  and  C_33
   11  A    between atoms: N_20  and  S_45
   12  A    between atoms: C_21  and  C_25
   13  A    between atoms: C_23  and  C_27
   14  A    between atoms: C_23  and  C_30
   15  A    between atoms: C_24  and  C_39
   16  A    between atoms: C_28  and  C_40
   17  A    between atoms: C_33  and  C_46
   18  A    between atoms: C_40  and  S_45
   19  A    between atoms: C_41  and  N_47
                            x       y       z     vdW  Elec       q    Type
                         _______ _______ _______ _____ _____    ______ ____

>  <TORSDO>
F 19

$$$$
=
 OpenBabel11072409483D

 49 54  0  0  1  0  0  0  0  0999 V2000
  163.0740  206.3990  147.5550 C   0  0  0  0  0  2  0  0  0  0  0  0
  162.1980  204.8200  145.8310 C   0  0  1  0  0  0  0  0  0  0  0  0
  160.9810  204.0260  145.4230 C   0  0  1  0  0  0  0  0  0  0  0  0
  161.3290  205.7230  143.7090 C   0  0  1  0  0  3  0  0  0  0  0  0
  160.8350  204.9570  146.5850 C   0  0  2  0  0  3  0  0  0  0  0  0
  160.5380  204.4730  144.0390 C   0  0  0  0  0  2  0  0  0  0  0  0
  163.1130  204.9330  147.0420 C   0  0  0  0  0  2  0  0  0  0  0  0
  161.6370  206.9870  147.7010 C   0  0  1  0  0  3  0  0  0  0  0  0
  160.6270  206.4620  146.6520 C   0  0  0  0  0  2  0  0  0  0  0  0
  162.5100  205.7740  144.6670 C   0  0  0  0  0  2  0  0  0  0  0  0
  161.1000  202.5460  145.7320 C   0  0  0  0  0  2  0  0  0  0  0  0
  160.0180  201.8590  145.1820 O   0  0  0  0  0  1  0  0  0  0  0  0
  160.0590  206.2400  149.2730 O   0  0  0  0  0  0  0  0  0  0  0  0
  161.0680  206.9020  149.0940 C   0  0  0  0  0  0  0  0  0  0  0  0
  162.9480  206.9390  151.0120 O   0  0  0  0  0  0  0  0  0  0  0  0
  162.2710  209.0910  150.0430 O   0  0  0  0  0  0  0  0  0  0  0  0
  161.7920  207.7350  150.4750 S   0  0  0  0  0  0  0  0  0  0  0  0
  160.6010  207.9350  151.7170 N   0  0  0  0  0  2  0  0  0  0  0  0
  160.8290  209.2280  152.3460 C   0  0  0  0  0  2  0  0  0  0  0  0
  159.7380  210.2790  154.5470 C   0  0  2  0  0  3  0  0  0  0  0  0
  161.6510  209.3760  155.8480 C   0  0  0  0  0  2  0  0  0  0  0  0
  161.5890  208.0000  155.5710 O   0  0  0  0  0  0  0  0  0  0  0  0
  161.2520  210.1500  154.6140 C   0  0  1  0  0  3  0  0  0  0  0  0
  160.4680  209.1530  153.8220 C   0  0  2  0  0  0  0  0  0  0  0  0
  160.6320  207.8430  154.5550 C   0  0  0  0  0  2  0  0  0  0  0  0
  159.3640  211.4260  153.6130 C   0  0  0  0  0  2  0  0  0  0  0  0
  157.9380  211.9300  153.8440 C   0  0  1  0  0  3  0  0  0  0  0  0
  157.3270  211.2560  154.9050 O   0  0  0  0  0  1  0  0  0  0  0  0
  157.8250  213.7850  154.0980 P   0  0  0  0  0  0  0  0  0  0  0  0
  159.1940  213.9770  155.1460 O   0  0  0  0  0  1  0  0  0  0  0  0
  158.6520  214.2560  152.6450 O   0  0  0  0  0  1  0  0  0  0  0  0
  161.7850  205.7120  142.2570 C   0  0  0  0  0  2  0  0  0  0  0  0
  161.6960  207.1040  141.6510 C   0  0  0  0  0  2  0  0  0  0  0  0
  161.8980  207.0460  140.1410 C   0  0  0  0  0  2  0  0  0  0  0  0
  162.1320  208.4250  139.5210 C   0  0  1  0  0  3  0  0  0  0  0  0
  161.6910  208.4640  138.0480 C   0  0  2  0  0  3  0  0  0  0  0  0
  160.3030  209.0890  137.9110 C   0  0  0  0  0  3  0  0  0  0  0  0
  160.3780  210.2460  137.1350 O   0  0  0  0  0  1  0  0  0  0  0  0
  159.4200  208.1940  137.3040 O   0  0  0  0  0  1  0  0  0  0  0  0
  161.7580  207.0860  137.3900 C   0  0  0  0  0  2  0  0  0  0  0  0
  163.0680  206.7980  137.0120 O   0  0  0  0  0  1  0  0  0  0  0  0
  161.5570  209.5750  140.3650 C   0  0  0  0  0  2  0  0  0  0  0  0
  162.4640  210.8150  140.4930 C   0  0  2  0  0  3  0  0  0  0  0  0
  162.1010  211.8000  141.5990 C   0  0  2  0  0  3  0  0  0  0  0  0
  160.8500  211.5310  142.1630 O   0  0  0  0  0  1  0  0  0  0  0  0
  161.9350  212.7840  140.4610 C   0  0  0  0  0  2  0  0  0  0  0  0
  162.2470  211.7940  139.4340 N   0  0  0  0  0  0  0  0  0  0  0  0
  163.4040  212.4900  137.5400 O   0  0  0  0  0  1  0  0  0  0  0  0
  163.5470  212.1400  138.8820 C   0  0  0  0  0  2  0  0  0  0  0  0
  1  8  1  0  0  0  0
  2 10  1  6  0  0  0
  2  5  1  0  0  0  0
  2  7  1  0  0  0  0
  3 11  1  1  0  0  0
  3  2  1  0  0  0  0
  3  5  1  0  0  0  0
  4 32  1  6  0  0  0
  4  6  1  0  0  0  0
  4 10  1  0  0  0  0
  5  9  1  6  0  0  0
  6  3  1  0  0  0  0
  7  1  1  0  0  0  0
  8 14  1  1  0  0  0
  9  8  1  0  0  0  0
 12 11  1  0  0  0  0
 14 13  2  0  0  0  0
 14 17  1  0  0  0  0
 16 17  2  0  0  0  0
 17 15  2  0  0  0  0
 17 18  1  0  0  0  0
 18 19  1  0  0  0  0
 20 26  1  6  0  0  0
 20 23  1  0  0  0  0
 22 21  1  0  0  0  0
 23 21  1  1  0  0  0
 24 19  1  6  0  0  0
 24 20  1  0  0  0  0
 24 25  1  0  0  0  0
 24 23  1  0  0  0  0
 25 22  1  0  0  0  0
 26 27  1  0  0  0  0
 27 29  1  0  0  0  0
 27 28  1  1  0  0  0
 29 30  1  0  0  0  0
 31 29  1  0  0  0  0
 33 32  1  0  0  0  0
 34 33  1  0  0  0  0
 35 34  1  1  0  0  0
 35 42  1  0  0  0  0
 36 40  1  1  0  0  0
 36 35  1  0  0  0  0
 37 36  1  0  0  0  0
 38 37  1  0  0  0  0
 39 37  1  0  0  0  0
 41 40  1  0  0  0  0
 43 42  1  6  0  0  0
 43 44  1  0  0  0  0
 44 45  1  6  0  0  0
 46 44  1  0  0  0  0
 47 46  1  0  0  0  0
 47 43  1  0  0  0  0
 48 49  1  0  0  0  0
 49 47  1  0  0  0  0
M  END
>  <MODEL>
2

>  <REMARK>
 VINA RESULT:      -5.0      5.380     12.089
  Name = 
  19 active torsions:
  status: ('A' for Active; 'I' for Inactive)
    1  A    between atoms: C_3  and  C_43
    2  A    between atoms: C_4  and  C_8
    3  A    between atoms: P_5  and  C_25
    4  A    between atoms: C_6  and  C_21
    5  A    between atoms: C_9  and  C_27
    6  A    between atoms: C_14  and  C_43
    7  A    between atoms: C_17  and  C_30
    8  A    between atoms: C_17  and  C_39
    9  A    between atoms: C_17  and  C_43
   10  A    between atoms: N_20  and  C_33
   11  A    between atoms: N_20  and  S_45
   12  A    between atoms: C_21  and  C_25
   13  A    between atoms: C_23  and  C_27
   14  A    between atoms: C_23  and  C_30
   15  A    between atoms: C_24  and  C_39
   16  A    between atoms: C_28  and  C_40
   17  A    between atoms: C_33  and  C_46
   18  A    between atoms: C_40  and  S_45
   19  A    between atoms: C_41  and  N_47
                            x       y       z     vdW  Elec       q    Type
                         _______ _______ _______ _____ _____    ______ ____

>  <TORSDO>
F 19

$$$$
=
 OpenBabel11072409483D

 49 54  0  0  1  0  0  0  0  0999 V2000
  162.9430  206.2740  147.5030 C   0  0  0  0  0  2  0  0  0  0  0  0
  162.0740  204.7780  145.7030 C   0  0  1  0  0  0  0  0  0  0  0  0
  160.8490  204.0290  145.2370 C   0  0  1  0  0  0  0  0  0  0  0  0
  161.2820  205.7760  143.5930 C   0  0  1  0  0  3  0  0  0  0  0  0
  160.6960  204.9220  146.4270 C   0  0  2  0  0  3  0  0  0  0  0  0
  160.4530  204.5350  143.8590 C   0  0  0  0  0  2  0  0  0  0  0  0
  162.9610  204.8270  146.9400 C   0  0  0  0  0  2  0  0  0  0  0  0
  161.5170  206.8920  147.6340 C   0  0  1  0  0  3  0  0  0  0  0  0
  160.5220  206.4290  146.5420 C   0  0  0  0  0  2  0  0  0  0  0  0
  162.4390  205.7630  144.5820 C   0  0  0  0  0  2  0  0  0  0  0  0
  160.9250  202.5370  145.4970 C   0  0  0  0  0  2  0  0  0  0  0  0
  159.8250  201.9000  144.9220 O   0  0  0  0  0  1  0  0  0  0  0  0
  159.8250  206.2290  149.1220 O   0  0  0  0  0  0  0  0  0  0  0  0
  160.9110  206.7730  149.0090 C   0  0  0  0  0  0  0  0  0  0  0  0
  161.2280  206.6520  151.6720 O   0  0  0  0  0  0  0  0  0  0  0  0
  163.1870  207.2550  150.3220 O   0  0  0  0  0  0  0  0  0  0  0  0
  161.7000  207.4030  150.4590 S   0  0  0  0  0  0  0  0  0  0  0  0
  161.3220  209.0840  150.6370 N   0  0  0  0  0  2  0  0  0  0  0  0
  162.0460  209.5820  151.7980 C   0  0  0  0  0  2  0  0  0  0  0  0
  160.9680  210.6000  154.0210 C   0  0  2  0  0  3  0  0  0  0  0  0
  158.9060  211.0810  152.7250 C   0  0  0  0  0  2  0  0  0  0  0  0
  159.3800  211.8990  151.6850 O   0  0  0  0  0  0  0  0  0  0  0  0
  159.9460  210.0340  153.0470 C   0  0  1  0  0  3  0  0  0  0  0  0
  161.2100  210.6310  152.5160 C   0  0  2  0  0  0  0  0  0  0  0  0
  160.7820  211.8710  151.7660 C   0  0  0  0  0  2  0  0  0  0  0  0
  161.7090  209.4550  154.7060 C   0  0  0  0  0  2  0  0  0  0  0  0
  161.9080  209.6960  156.2030 C   0  0  1  0  0  3  0  0  0  0  0  0
  162.2020  211.0370  156.4670 O   0  0  0  0  0  1  0  0  0  0  0  0
  160.4660  209.1250  157.2580 P   0  0  0  0  0  0  0  0  0  0  0  0
  159.3320  210.3620  156.8200 O   0  0  0  0  0  1  0  0  0  0  0  0
  159.8510  207.9290  156.1590 O   0  0  0  0  0  1  0  0  0  0  0  0
  161.7750  205.8030  142.1540 C   0  0  0  0  0  2  0  0  0  0  0  0
  162.0250  207.2310  141.6940 C   0  0  0  0  0  2  0  0  0  0  0  0
  161.5610  207.4220  140.2550 C   0  0  0  0  0  2  0  0  0  0  0  0
  162.2470  208.6010  139.5620 C   0  0  1  0  0  3  0  0  0  0  0  0
  161.4320  209.1000  138.3570 C   0  0  2  0  0  3  0  0  0  0  0  0
  159.9550  208.7370  138.5090 C   0  0  0  0  0  3  0  0  0  0  0  0
  159.1840  209.8980  138.5590 O   0  0  0  0  0  1  0  0  0  0  0  0
  159.5290  207.9560  137.4330 O   0  0  0  0  0  1  0  0  0  0  0  0
  162.0030  208.6020  137.0290 C   0  0  0  0  0  2  0  0  0  0  0  0
  162.5050  207.3100  137.1770 O   0  0  0  0  0  1  0  0  0  0  0  0
  162.6540  209.7220  140.5340 C   0  0  0  0  0  2  0  0  0  0  0  0
  161.9850  211.0880  140.2800 C   0  0  2  0  0  3  0  0  0  0  0  0
  162.6680  211.9860  139.2540 C   0  0  2  0  0  3  0  0  0  0  0  0
  163.9330  211.5150  138.8890 O   0  0  0  0  0  1  0  0  0  0  0  0
  162.8080  212.9490  140.4140 C   0  0  0  0  0  2  0  0  0  0  0  0
  162.1870  212.0350  141.3690 N   0  0  0  0  0  0  0  0  0  0  0  0
  160.6630  212.4300  143.0820 O   0  0  0  0  0  1  0  0  0  0  0  0
  160.8890  212.5910  141.7150 C   0  0  0  0  0  2  0  0  0  0  0  0
  1  8  1  0  0  0  0
  2 10  1  6  0  0  0
  2  5  1  0  0  0  0
  2  7  1  0  0  0  0
  3 11  1  1  0  0  0
  3  2  1  0  0  0  0
  3  5  1  0  0  0  0
  4 32  1  6  0  0  0
  4  6  1  0  0  0  0
  4 10  1  0  0  0  0
  5  9  1  6  0  0  0
  6  3  1  0  0  0  0
  7  1  1  0  0  0  0
  8 14  1  1  0  0  0
  9  8  1  0  0  0  0
 12 11  1  0  0  0  0
 14 13  2  0  0  0  0
 14 17  1  0  0  0  0
 16 17  2  0  0  0  0
 17 18  1  0  0  0  0
 17 15  2  0  0  0  0
 18 19  1  0  0  0  0
 20 26  1  1  0  0  0
 22 25  1  0  0  0  0
 22 21  1  0  0  0  0
 23 21  1  6  0  0  0
 23 20  1  0  0  0  0
 24 19  1  6  0  0  0
 24 23  1  0  0  0  0
 24 20  1  0  0  0  0
 25 24  1  0  0  0  0
 26 27  1  0  0  0  0
 27 28  1  6  0  0  0
 27 29  1  0  0  0  0
 30 29  1  0  0  0  0
 31 29  1  0  0  0  0
 33 32  1  0  0  0  0
 34 33  1  0  0  0  0
 35 34  1  1  0  0  0
 35 42  1  0  0  0  0
 36 40  1  6  0  0  0
 36 37  1  0  0  0  0
 36 35  1  0  0  0  0
 37 38  1  0  0  0  0
 39 37  1  0  0  0  0
 40 41  1  0  0  0  0
 43 42  1  1  0  0  0
 43 47  1  0  0  0  0
 44 45  1  1  0  0  0
 44 43  1  0  0  0  0
 44 46  1  0  0  0  0
 46 47  1  0  0  0  0
 47 49  1  0  0  0  0
 49 48  1  0  0  0  0
M  END
>  <MODEL>
3

>  <REMARK>
 VINA RESULT:      -3.6      5.177     11.673
  Name = 
  19 active torsions:
  status: ('A' for Active; 'I' for Inactive)
    1  A    between atoms: C_3  and  C_43
    2  A    between atoms: C_4  and  C_8
    3  A    between atoms: P_5  and  C_25
    4  A    between atoms: C_6  and  C_21
    5  A    between atoms: C_9  and  C_27
    6  A    between atoms: C_14  and  C_43
    7  A    between atoms: C_17  and  C_30
    8  A    between atoms: C_17  and  C_39
    9  A    between atoms: C_17  and  C_43
   10  A    between atoms: N_20  and  C_33
   11  A    between atoms: N_20  and  S_45
   12  A    between atoms: C_21  and  C_25
   13  A    between atoms: C_23  and  C_27
   14  A    between atoms: C_23  and  C_30
   15  A    between atoms: C_24  and  C_39
   16  A    between atoms: C_28  and  C_40
   17  A    between atoms: C_33  and  C_46
   18  A    between atoms: C_40  and  S_45
   19  A    between atoms: C_41  and  N_47
                            x       y       z     vdW  Elec       q    Type
                         _______ _______ _______ _____ _____    ______ ____

>  <TORSDO>
F 19

$$$$
=
 OpenBabel11072409483D

 49 54  0  0  1  0  0  0  0  0999 V2000
  162.3650  204.7660  152.0840 C   0  0  0  0  0  2  0  0  0  0  0  0
  162.1700  207.2390  151.7960 C   0  0  1  0  0  0  0  0  0  0  0  0
  161.4330  208.3150  151.0370 C   0  0  1  0  0  0  0  0  0  0  0  0
  160.7820  208.5240  153.3760 C   0  0  1  0  0  3  0  0  0  0  0  0
  160.9800  206.9040  150.8390 C   0  0  2  0  0  3  0  0  0  0  0  0
  160.7030  209.2090  152.0270 C   0  0  0  0  0  2  0  0  0  0  0  0
  163.0360  206.0280  151.4770 C   0  0  0  0  0  2  0  0  0  0  0  0
  160.8410  204.6420  151.7760 C   0  0  1  0  0  3  0  0  0  0  0  0
  160.0990  205.9980  151.6860 C   0  0  0  0  0  2  0  0  0  0  0  0
  161.8870  207.4820  153.2870 C   0  0  0  0  0  2  0  0  0  0  0  0
  162.2600  208.9380  149.9290 C   0  0  0  0  0  2  0  0  0  0  0  0
  161.5120  208.9910  148.7520 O   0  0  0  0  0  1  0  0  0  0  0  0
  159.9480  204.2620  149.6370 O   0  0  0  0  0  0  0  0  0  0  0  0
  160.5140  203.7630  150.5960 C   0  0  0  0  0  0  0  0  0  0  0  0
  161.7500  201.6690  151.7340 O   0  0  0  0  0  0  0  0  0  0  0  0
  159.6270  201.2430  150.5780 O   0  0  0  0  0  0  0  0  0  0  0  0
  160.8990  202.0390  150.5520 S   0  0  0  0  0  0  0  0  0  0  0  0
  161.7530  201.6770  149.0890 N   0  0  0  0  0  2  0  0  0  0  0  0
  160.9210  200.7810  148.3000 C   0  0  0  0  0  2  0  0  0  0  0  0
  161.4750  202.3970  146.2450 C   0  0  2  0  0  3  0  0  0  0  0  0
  159.8190  201.1370  144.8910 C   0  0  0  0  0  2  0  0  0  0  0  0
  160.3060  199.8210  144.9550 O   0  0  0  0  0  0  0  0  0  0  0  0
  160.0660  201.8240  146.2130 C   0  0  1  0  0  3  0  0  0  0  0  0
  161.1710  201.0170  146.8180 C   0  0  2  0  0  0  0  0  0  0  0  0
  161.3440  199.8280  145.9020 C   0  0  0  0  0  2  0  0  0  0  0  0
  161.5650  203.4690  147.3280 C   0  0  0  0  0  2  0  0  0  0  0  0
  161.2850  204.8730  146.7890 C   0  0  1  0  0  3  0  0  0  0  0  0
  162.1650  205.8110  147.3350 O   0  0  0  0  0  1  0  0  0  0  0  0
  161.2980  204.9790  144.9160 P   0  0  0  0  0  0  0  0  0  0  0  0
  160.4370  206.4760  144.7460 O   0  0  0  0  0  1  0  0  0  0  0  0
  162.8820  205.6710  144.7470 O   0  0  0  0  0  1  0  0  0  0  0  0
  161.0490  209.5310  154.4840 C   0  0  0  0  0  2  0  0  0  0  0  0
  159.7970  209.7690  155.3150 C   0  0  0  0  0  2  0  0  0  0  0  0
  159.7880  211.1840  155.8800 C   0  0  0  0  0  2  0  0  0  0  0  0
  158.5220  211.9620  155.5120 C   0  0  1  0  0  3  0  0  0  0  0  0
  157.7950  212.4820  156.7630 C   0  0  2  0  0  3  0  0  0  0  0  0
  156.3700  211.9320  156.8340 C   0  0  0  0  0  3  0  0  0  0  0  0
  155.4970  212.9330  157.2600 O   0  0  0  0  0  1  0  0  0  0  0  0
  155.9580  211.4730  155.5820 O   0  0  0  0  0  1  0  0  0  0  0  0
  157.8170  214.0080  156.8490 C   0  0  0  0  0  2  0  0  0  0  0  0
  159.1010  214.4530  157.1600 O   0  0  0  0  0  1  0  0  0  0  0  0
  158.7670  213.0470  154.4480 C   0  0  0  0  0  2  0  0  0  0  0  0
  157.8030  213.0160  153.2450 C   0  0  2  0  0  3  0  0  0  0  0  0
  158.4520  212.8740  151.8720 C   0  0  2  0  0  3  0  0  0  0  0  0
  159.8390  213.0390  151.9180 O   0  0  0  0  0  1  0  0  0  0  0  0
  157.7980  214.2110  151.5930 C   0  0  0  0  0  2  0  0  0  0  0  0
  157.2340  214.3220  152.9350 N   0  0  0  0  0  0  0  0  0  0  0  0
  155.2110  214.2050  154.0780 O   0  0  0  0  0  1  0  0  0  0  0  0
  155.7950  214.1560  152.8130 C   0  0  0  0  0  2  0  0  0  0  0  0
  2  7  1  6  0  0  0
  2 10  1  0  0  0  0
  3 11  1  6  0  0  0
  3  2  1  0  0  0  0
  3  6  1  0  0  0  0
  4 32  1  1  0  0  0
  5  3  1  0  0  0  0
  5  9  1  1  0  0  0
  5  2  1  0  0  0  0
  6  4  1  0  0  0  0
  7  1  1  0  0  0  0
  8 14  1  6  0  0  0
  8  1  1  0  0  0  0
  9  8  1  0  0  0  0
 10  4  1  0  0  0  0
 12 11  1  0  0  0  0
 13 14  2  0  0  0  0
 17 16  2  0  0  0  0
 17 14  1  0  0  0  0
 17 15  2  0  0  0  0
 18 17  1  0  0  0  0
 19 18  1  0  0  0  0
 20 24  1  0  0  0  0
 20 26  1  1  0  0  0
 21 22  1  0  0  0  0
 22 25  1  0  0  0  0
 23 21  1  6  0  0  0
 23 20  1  0  0  0  0
 23 24  1  0  0  0  0
 24 19  1  1  0  0  0
 25 24  1  0  0  0  0
 27 26  1  0  0  0  0
 27 28  1  1  0  0  0
 29 27  1  0  0  0  0
 30 29  1  0  0  0  0
 31 29  1  0  0  0  0
 32 33  1  0  0  0  0
 33 34  1  0  0  0  0
 35 42  1  6  0  0  0
 35 34  1  0  0  0  0
 35 36  1  0  0  0  0
 36 37  1  0  0  0  0
 36 40  1  6  0  0  0
 37 38  1  0  0  0  0
 39 37  1  0  0  0  0
 40 41  1  0  0  0  0
 43 42  1  1  0  0  0
 44 45  1  1  0  0  0
 44 43  1  0  0  0  0
 46 44  1  0  0  0  0
 46 47  1  0  0  0  0
 47 43  1  0  0  0  0
 49 47  1  0  0  0  0
 49 48  1  0  0  0  0
M  END
>  <MODEL>
4

>  <REMARK>
 VINA RESULT:      -3.6      2.424      4.242
  Name = 
  19 active torsions:
  status: ('A' for Active; 'I' for Inactive)
    1  A    between atoms: C_3  and  C_43
    2  A    between atoms: C_4  and  C_8
    3  A    between atoms: P_5  and  C_25
    4  A    between atoms: C_6  and  C_21
    5  A    between atoms: C_9  and  C_27
    6  A    between atoms: C_14  and  C_43
    7  A    between atoms: C_17  and  C_30
    8  A    between atoms: C_17  and  C_39
    9  A    between atoms: C_17  and  C_43
   10  A    between atoms: N_20  and  C_33
   11  A    between atoms: N_20  and  S_45
   12  A    between atoms: C_21  and  C_25
   13  A    between atoms: C_23  and  C_27
   14  A    between atoms: C_23  and  C_30
   15  A    between atoms: C_24  and  C_39
   16  A    between atoms: C_28  and  C_40
   17  A    between atoms: C_33  and  C_46
   18  A    between atoms: C_40  and  S_45
   19  A    between atoms: C_41  and  N_47
                            x       y       z     vdW  Elec       q    Type
                         _______ _______ _______ _____ _____    ______ ____

>  <TORSDO>
F 19

$$$$
=
 OpenBabel11072409483D

 49 54  0  0  1  0  0  0  0  0999 V2000
  160.5330  205.7180  149.5580 C   0  0  0  0  0  2  0  0  0  0  0  0
  160.8000  208.0660  150.3640 C   0  0  1  0  0  0  0  0  0  0  0  0
  161.3340  208.9030  151.5010 C   0  0  1  0  0  0  0  0  0  0  0  0
  162.7020  209.4050  149.5470 C   0  0  1  0  0  3  0  0  0  0  0  0
  161.6010  207.4320  151.5470 C   0  0  2  0  0  3  0  0  0  0  0  0
  162.4000  209.8460  150.9650 C   0  0  0  0  0  2  0  0  0  0  0  0
  159.7950  206.9400  150.1710 C   0  0  0  0  0  2  0  0  0  0  0  0
  161.8700  205.3540  150.2740 C   0  0  1  0  0  3  0  0  0  0  0  0
  162.6380  206.5720  150.8410 C   0  0  0  0  0  2  0  0  0  0  0  0
  161.5550  208.5100  149.1010 C   0  0  0  0  0  2  0  0  0  0  0  0
  160.2460  209.4380  152.4120 C   0  0  0  0  0  2  0  0  0  0  0  0
  160.3020  210.8320  152.4490 O   0  0  0  0  0  1  0  0  0  0  0  0
  161.9240  204.5430  152.4780 O   0  0  0  0  0  0  0  0  0  0  0  0
  161.7460  204.2610  151.3040 C   0  0  0  0  0  0  0  0  0  0  0  0
  162.0240  201.6480  151.8560 O   0  0  0  0  0  0  0  0  0  0  0  0
  159.8830  202.3870  150.9120 O   0  0  0  0  0  0  0  0  0  0  0  0
  161.3700  202.5870  150.8820 S   0  0  0  0  0  0  0  0  0  0  0  0
  161.9450  202.2520  149.2820 N   0  0  0  0  0  2  0  0  0  0  0  0
  161.0180  201.3150  148.6650 C   0  0  0  0  0  2  0  0  0  0  0  0
  161.6370  202.3230  146.2680 C   0  0  2  0  0  3  0  0  0  0  0  0
  160.1560  200.6160  145.2390 C   0  0  0  0  0  2  0  0  0  0  0  0
  160.7070  199.4110  145.7050 O   0  0  0  0  0  0  0  0  0  0  0  0
  160.2670  201.6640  146.3220 C   0  0  1  0  0  3  0  0  0  0  0  0
  161.3650  201.1420  147.1930 C   0  0  2  0  0  0  0  0  0  0  0  0
  161.6690  199.7590  146.6660 C   0  0  0  0  0  2  0  0  0  0  0  0
  161.5890  203.6600  147.0030 C   0  0  0  0  0  2  0  0  0  0  0  0
  161.9150  204.8440  146.0900 C   0  0  1  0  0  3  0  0  0  0  0  0
  163.2440  204.8000  145.6580 O   0  0  0  0  0  1  0  0  0  0  0  0
  160.7570  205.0090  144.6240 P   0  0  0  0  0  0  0  0  0  0  0  0
  159.9300  206.4500  145.1230 O   0  0  0  0  0  1  0  0  0  0  0  0
  161.8690  205.8080  143.5550 O   0  0  0  0  0  1  0  0  0  0  0  0
  162.8690  210.6050  148.6270 C   0  0  0  0  0  2  0  0  0  0  0  0
  161.8780  211.7020  148.9820 C   0  0  0  0  0  2  0  0  0  0  0  0
  160.8090  211.8310  147.9030 C   0  0  0  0  0  2  0  0  0  0  0  0
  160.7390  213.2360  147.3020 C   0  0  1  0  0  3  0  0  0  0  0  0
  160.9330  213.2090  145.7770 C   0  0  2  0  0  3  0  0  0  0  0  0
  162.1710  214.0080  145.3690 C   0  0  0  0  0  3  0  0  0  0  0  0
  162.8450  214.4510  146.5070 O   0  0  0  0  0  1  0  0  0  0  0  0
  163.0360  213.2190  144.6090 O   0  0  0  0  0  1  0  0  0  0  0  0
  159.6850  213.6790  145.0290 C   0  0  0  0  0  2  0  0  0  0  0  0
  160.0460  214.2730  143.8200 O   0  0  0  0  0  1  0  0  0  0  0  0
  159.4940  214.0240  147.7480 C   0  0  0  0  0  2  0  0  0  0  0  0
  158.5910  213.3020  148.7680 C   0  0  2  0  0  3  0  0  0  0  0  0
  157.1560  213.0390  148.3220 C   0  0  2  0  0  3  0  0  0  0  0  0
  156.8310  213.7180  147.1440 O   0  0  0  0  0  1  0  0  0  0  0  0
  156.7890  213.9000  149.5120 C   0  0  0  0  0  2  0  0  0  0  0  0
  158.1800  214.1580  149.8740 N   0  0  0  0  0  0  0  0  0  0  0  0
  158.8990  214.3310  152.0800 O   0  0  0  0  0  1  0  0  0  0  0  0
  158.4450  213.4390  151.1090 C   0  0  0  0  0  2  0  0  0  0  0  0
  1  7  1  0  0  0  0
  1  8  1  0  0  0  0
  2 10  1  6  0  0  0
  2  3  1  0  0  0  0
  2  5  1  0  0  0  0
  3  5  1  0  0  0  0
  3 11  1  1  0  0  0
  4 32  1  6  0  0  0
  4  6  1  0  0  0  0
  5  9  1  6  0  0  0
  6  3  1  0  0  0  0
  7  2  1  0  0  0  0
  8  9  1  0  0  0  0
  8 14  1  1  0  0  0
 10  4  1  0  0  0  0
 11 12  1  0  0  0  0
 14 13  2  0  0  0  0
 17 16  2  0  0  0  0
 17 14  1  0  0  0  0
 17 15  2  0  0  0  0
 18 17  1  0  0  0  0
 19 18  1  0  0  0  0
 20 23  1  0  0  0  0
 20 26  1  1  0  0  0
 20 24  1  0  0  0  0
 21 22  1  0  0  0  0
 22 25  1  0  0  0  0
 23 21  1  6  0  0  0
 23 24  1  0  0  0  0
 24 19  1  1  0  0  0
 25 24  1  0  0  0  0
 27 28  1  6  0  0  0
 27 26  1  0  0  0  0
 29 30  1  0  0  0  0
 29 27  1  0  0  0  0
 31 29  1  0  0  0  0
 32 33  1  0  0  0  0
 34 33  1  0  0  0  0
 35 42  1  6  0  0  0
 35 34  1  0  0  0  0
 36 40  1  6  0  0  0
 36 35  1  0  0  0  0
 37 36  1  0  0  0  0
 37 38  1  0  0  0  0
 39 37  1  0  0  0  0
 41 40  1  0  0  0  0
 43 42  1  6  0  0  0
 43 47  1  0  0  0  0
 44 45  1  6  0  0  0
 44 43  1  0  0  0  0
 44 46  1  0  0  0  0
 46 47  1  0  0  0  0
 47 49  1  0  0  0  0
 49 48  1  0  0  0  0
M  END
>  <MODEL>
5

>  <REMARK>
 VINA RESULT:      -3.2      3.350      6.236
  Name = 
  19 active torsions:
  status: ('A' for Active; 'I' for Inactive)
    1  A    between atoms: C_3  and  C_43
    2  A    between atoms: C_4  and  C_8
    3  A    between atoms: P_5  and  C_25
    4  A    between atoms: C_6  and  C_21
    5  A    between atoms: C_9  and  C_27
    6  A    between atoms: C_14  and  C_43
    7  A    between atoms: C_17  and  C_30
    8  A    between atoms: C_17  and  C_39
    9  A    between atoms: C_17  and  C_43
   10  A    between atoms: N_20  and  C_33
   11  A    between atoms: N_20  and  S_45
   12  A    between atoms: C_21  and  C_25
   13  A    between atoms: C_23  and  C_27
   14  A    between atoms: C_23  and  C_30
   15  A    between atoms: C_24  and  C_39
   16  A    between atoms: C_28  and  C_40
   17  A    between atoms: C_33  and  C_46
   18  A    between atoms: C_40  and  S_45
   19  A    between atoms: C_41  and  N_47
                            x       y       z     vdW  Elec       q    Type
                         _______ _______ _______ _____ _____    ______ ____

>  <TORSDO>
F 19

$$$$
=
 OpenBabel11072409483D

 49 54  0  0  1  0  0  0  0  0999 V2000
  159.9920  204.7020  150.2560 C   0  0  0  0  0  2  0  0  0  0  0  0
  160.5450  206.3760  152.0250 C   0  0  1  0  0  0  0  0  0  0  0  0
  161.3280  206.5760  153.3000 C   0  0  1  0  0  0  0  0  0  0  0  0
  162.3440  208.0090  151.6100 C   0  0  1  0  0  3  0  0  0  0  0  0
  161.5090  205.2770  152.5810 C   0  0  2  0  0  3  0  0  0  0  0  0
  162.3340  207.6980  153.0930 C   0  0  0  0  0  2  0  0  0  0  0  0
  159.4540  205.4480  151.5090 C   0  0  0  0  0  2  0  0  0  0  0  0
  161.4120  204.0850  150.4400 C   0  0  1  0  0  3  0  0  0  0  0  0
  162.3450  204.9030  151.3660 C   0  0  0  0  0  2  0  0  0  0  0  0
  161.0820  207.4020  151.0150 C   0  0  0  0  0  2  0  0  0  0  0  0
  160.4600  206.5650  154.5430 C   0  0  0  0  0  2  0  0  0  0  0  0
  160.3980  207.8470  155.0890 O   0  0  0  0  0  1  0  0  0  0  0  0
  161.9170  202.3000  151.8820 O   0  0  0  0  0  0  0  0  0  0  0  0
  161.4120  202.6260  150.8200 C   0  0  0  0  0  0  0  0  0  0  0  0
  161.7400  200.2840  149.5490 O   0  0  0  0  0  0  0  0  0  0  0  0
  159.5100  200.7880  150.4440 O   0  0  0  0  0  0  0  0  0  0  0  0
  160.7270  201.3690  149.7840 S   0  0  0  0  0  0  0  0  0  0  0  0
  160.2600  202.0620  148.2670 N   0  0  0  0  0  2  0  0  0  0  0  0
  161.4570  202.6000  147.6380 C   0  0  0  0  0  2  0  0  0  0  0  0
  162.0730  203.4780  145.1900 C   0  0  2  0  0  3  0  0  0  0  0  0
  159.6820  203.2300  144.5690 C   0  0  0  0  0  2  0  0  0  0  0  0
  159.4350  201.8730  144.8320 O   0  0  0  0  0  0  0  0  0  0  0  0
  160.6390  203.7710  145.6040 C   0  0  1  0  0  3  0  0  0  0  0  0
  161.3140  202.5420  146.1240 C   0  0  2  0  0  0  0  0  0  0  0  0
  160.5720  201.3850  145.4980 C   0  0  0  0  0  2  0  0  0  0  0  0
  163.0220  204.4070  145.9430 C   0  0  0  0  0  2  0  0  0  0  0  0
  162.5010  205.8430  146.0180 C   0  0  1  0  0  3  0  0  0  0  0  0
  161.5030  206.0710  145.0670 O   0  0  0  0  0  1  0  0  0  0  0  0
  161.9040  206.3420  147.7240 P   0  0  0  0  0  0  0  0  0  0  0  0
  162.6720  207.8950  147.8120 O   0  0  0  0  0  1  0  0  0  0  0  0
  160.3480  206.9450  147.2440 O   0  0  0  0  0  1  0  0  0  0  0  0
  162.4130  209.5090  151.3680 C   0  0  0  0  0  2  0  0  0  0  0  0
  161.6270  210.2650  152.4270 C   0  0  0  0  0  2  0  0  0  0  0  0
  160.4240  210.9650  151.8060 C   0  0  0  0  0  2  0  0  0  0  0  0
  159.7080  211.8970  152.7860 C   0  0  1  0  0  3  0  0  0  0  0  0
  159.2770  213.2080  152.1070 C   0  0  2  0  0  3  0  0  0  0  0  0
  157.7620  213.3960  152.1950 C   0  0  0  0  0  3  0  0  0  0  0  0
  157.4650  214.4480  153.0600 O   0  0  0  0  0  1  0  0  0  0  0  0
  157.2300  213.6800  150.9360 O   0  0  0  0  0  1  0  0  0  0  0  0
  159.7760  213.3000  150.6650 C   0  0  0  0  0  2  0  0  0  0  0  0
  160.5760  214.4300  150.5050 O   0  0  0  0  0  1  0  0  0  0  0  0
  158.5730  211.2050  153.5610 C   0  0  0  0  0  2  0  0  0  0  0  0
  158.8870  210.8800  155.0360 C   0  0  2  0  0  3  0  0  0  0  0  0
  157.7570  211.1250  156.0300 C   0  0  2  0  0  3  0  0  0  0  0  0
  156.6950  211.8370  155.4660 O   0  0  0  0  0  1  0  0  0  0  0  0
  158.7300  212.0970  156.6640 C   0  0  0  0  0  2  0  0  0  0  0  0
  159.7650  211.8600  155.6630 N   0  0  0  0  0  0  0  0  0  0  0  0
  161.9000  210.9660  155.4260 O   0  0  0  0  0  1  0  0  0  0  0  0
  160.8400  211.1330  156.3170 C   0  0  0  0  0  2  0  0  0  0  0  0
  1  8  1  0  0  0  0
  1  7  1  0  0  0  0
  2 10  1  6  0  0  0
  2  5  1  0  0  0  0
  2  3  1  0  0  0  0
  3 11  1  1  0  0  0
  4 32  1  1  0  0  0
  4  6  1  0  0  0  0
  5  9  1  6  0  0  0
  5  3  1  0  0  0  0
  6  3  1  0  0  0  0
  7  2  1  0  0  0  0
  8 14  1  1  0  0  0
  8  9  1  0  0  0  0
 10  4  1  0  0  0  0
 11 12  1  0  0  0  0
 14 13  2  0  0  0  0
 15 17  2  0  0  0  0
 17 16  2  0  0  0  0
 17 14  1  0  0  0  0
 18 17  1  0  0  0  0
 19 18  1  0  0  0  0
 20 23  1  0  0  0  0
 20 26  1  1  0  0  0
 20 24  1  0  0  0  0
 21 22  1  0  0  0  0
 22 25  1  0  0  0  0
 23 21  1  6  0  0  0
 23 24  1  0  0  0  0
 24 19  1  1  0  0  0
 25 24  1  0  0  0  0
 26 27  1  0  0  0  0
 27 28  1  6  0  0  0
 27 29  1  0  0  0  0
 29 30  1  0  0  0  0
 31 29  1  0  0  0  0
 32 33  1  0  0  0  0
 34 33  1  0  0  0  0
 35 34  1  6  0  0  0
 35 42  1  0  0  0  0
 36 40  1  6  0  0  0
 36 37  1  0  0  0  0
 36 35  1  0  0  0  0
 37 38  1  0  0  0  0
 39 37  1  0  0  0  0
 41 40  1  0  0  0  0
 43 42  1  6  0  0  0
 43 47  1  0  0  0  0
 43 44  1  0  0  0  0
 44 45  1  6  0  0  0
 44 46  1  0  0  0  0
 47 49  1  0  0  0  0
 47 46  1  0  0  0  0
 48 49  1  0  0  0  0
M  END
>  <MODEL>
6

>  <REMARK>
 VINA RESULT:      -3.0      2.250      4.913
  Name = 
  19 active torsions:
  status: ('A' for Active; 'I' for Inactive)
    1  A    between atoms: C_3  and  C_43
    2  A    between atoms: C_4  and  C_8
    3  A    between atoms: P_5  and  C_25
    4  A    between atoms: C_6  and  C_21
    5  A    between atoms: C_9  and  C_27
    6  A    between atoms: C_14  and  C_43
    7  A    between atoms: C_17  and  C_30
    8  A    between atoms: C_17  and  C_39
    9  A    between atoms: C_17  and  C_43
   10  A    between atoms: N_20  and  C_33
   11  A    between atoms: N_20  and  S_45
   12  A    between atoms: C_21  and  C_25
   13  A    between atoms: C_23  and  C_27
   14  A    between atoms: C_23  and  C_30
   15  A    between atoms: C_24  and  C_39
   16  A    between atoms: C_28  and  C_40
   17  A    between atoms: C_33  and  C_46
   18  A    between atoms: C_40  and  S_45
   19  A    between atoms: C_41  and  N_47
                            x       y       z     vdW  Elec       q    Type
                         _______ _______ _______ _____ _____    ______ ____

>  <TORSDO>
F 19

$$$$
=
 OpenBabel11072409483D

 49 54  0  0  1  0  0  0  0  0999 V2000
  163.0780  206.1680  147.7270 C   0  0  0  0  0  2  0  0  0  0  0  0
  162.0950  204.7250  145.9420 C   0  0  1  0  0  0  0  0  0  0  0  0
  160.8280  204.0290  145.5080 C   0  0  1  0  0  0  0  0  0  0  0  0
  161.2780  205.7750  143.8670 C   0  0  1  0  0  3  0  0  0  0  0  0
  160.7470  204.9160  146.7100 C   0  0  2  0  0  3  0  0  0  0  0  0
  160.4100  204.5650  144.1480 C   0  0  0  0  0  2  0  0  0  0  0  0
  163.0210  204.7260  147.1510 C   0  0  0  0  0  2  0  0  0  0  0  0
  161.6820  206.8400  147.9080 C   0  0  1  0  0  3  0  0  0  0  0  0
  160.6370  206.4270  146.8450 C   0  0  0  0  0  2  0  0  0  0  0  0
  162.4630  205.7070  144.8190 C   0  0  0  0  0  2  0  0  0  0  0  0
  160.8530  202.5330  145.7510 C   0  0  0  0  0  2  0  0  0  0  0  0
  160.0750  201.8840  144.7920 O   0  0  0  0  0  1  0  0  0  0  0  0
  159.9550  206.3730  149.4310 O   0  0  0  0  0  0  0  0  0  0  0  0
  161.1150  206.7300  149.3000 C   0  0  0  0  0  0  0  0  0  0  0  0
  161.6340  206.2270  151.8860 O   0  0  0  0  0  0  0  0  0  0  0  0
  163.5130  206.9130  150.4640 O   0  0  0  0  0  0  0  0  0  0  0  0
  162.0530  207.1140  150.7480 S   0  0  0  0  0  0  0  0  0  0  0  0
  161.7930  208.7710  151.1810 N   0  0  0  0  0  2  0  0  0  0  0  0
  160.4430  208.8840  151.7130 C   0  0  0  0  0  2  0  0  0  0  0  0
  160.0560  210.9870  153.3170 C   0  0  2  0  0  3  0  0  0  0  0  0
  162.1750  210.4120  154.4760 C   0  0  0  0  0  2  0  0  0  0  0  0
  161.9440  209.0950  154.9050 O   0  0  0  0  0  0  0  0  0  0  0  0
  161.5200  210.6190  153.1310 C   0  0  1  0  0  3  0  0  0  0  0  0
  160.4830  209.5420  153.0850 C   0  0  2  0  0  0  0  0  0  0  0  0
  160.7420  208.6870  154.3040 C   0  0  0  0  0  2  0  0  0  0  0  0
  159.5300  211.6490  152.0460 C   0  0  0  0  0  2  0  0  0  0  0  0
  159.6350  213.1740  152.0930 C   0  0  1  0  0  3  0  0  0  0  0  0
  160.4090  213.6620  151.0360 O   0  0  0  0  0  1  0  0  0  0  0  0
  157.9740  214.0440  152.1400 P   0  0  0  0  0  0  0  0  0  0  0  0
  157.2230  213.2200  150.8110 O   0  0  0  0  0  1  0  0  0  0  0  0
  157.2500  213.0670  153.3800 O   0  0  0  0  0  1  0  0  0  0  0  0
  161.7260  205.7990  142.4130 C   0  0  0  0  0  2  0  0  0  0  0  0
  161.8170  207.2260  141.8970 C   0  0  0  0  0  2  0  0  0  0  0  0
  162.5060  207.2640  140.5390 C   0  0  0  0  0  2  0  0  0  0  0  0
  162.0470  208.4390  139.6720 C   0  0  1  0  0  3  0  0  0  0  0  0
  160.9600  208.0120  138.6720 C   0  0  2  0  0  3  0  0  0  0  0  0
  161.5010  208.0150  137.2420 C   0  0  0  0  0  3  0  0  0  0  0  0
  162.2820  209.1510  137.0330 O   0  0  0  0  0  1  0  0  0  0  0  0
  162.2810  206.8800  137.0110 O   0  0  0  0  0  1  0  0  0  0  0  0
  159.6950  208.8620  138.7990 C   0  0  0  0  0  2  0  0  0  0  0  0
  159.0900  209.0110  137.5520 O   0  0  0  0  0  1  0  0  0  0  0  0
  161.6710  209.6860  140.4920 C   0  0  0  0  0  2  0  0  0  0  0  0
  161.4150  210.9630  139.6670 C   0  0  2  0  0  3  0  0  0  0  0  0
  162.6550  211.7310  139.2220 C   0  0  2  0  0  3  0  0  0  0  0  0
  163.8190  211.2750  139.8490 O   0  0  0  0  0  1  0  0  0  0  0  0
  162.0600  212.8620  140.0350 C   0  0  0  0  0  2  0  0  0  0  0  0
  160.9120  212.0710  140.4690 N   0  0  0  0  0  0  0  0  0  0  0  0
  159.1460  213.5810  140.5940 O   0  0  0  0  0  1  0  0  0  0  0  0
  159.7400  212.6050  139.7940 C   0  0  0  0  0  2  0  0  0  0  0  0
  1  8  1  0  0  0  0
  2 10  1  6  0  0  0
  2  5  1  0  0  0  0
  2  7  1  0  0  0  0
  3 11  1  1  0  0  0
  3  2  1  0  0  0  0
  3  5  1  0  0  0  0
  4 32  1  6  0  0  0
  4  6  1  0  0  0  0
  4 10  1  0  0  0  0
  5  9  1  6  0  0  0
  6  3  1  0  0  0  0
  7  1  1  0  0  0  0
  8 14  1  1  0  0  0
  9  8  1  0  0  0  0
 12 11  1  0  0  0  0
 14 13  2  0  0  0  0
 14 17  1  0  0  0  0
 16 17  2  0  0  0  0
 17 18  1  0  0  0  0
 17 15  2  0  0  0  0
 18 19  1  0  0  0  0
 20 26  1  6  0  0  0
 21 22  1  0  0  0  0
 23 20  1  0  0  0  0
 23 21  1  1  0  0  0
 24 19  1  6  0  0  0
 24 23  1  0  0  0  0
 24 20  1  0  0  0  0
 24 25  1  0  0  0  0
 25 22  1  0  0  0  0
 26 27  1  0  0  0  0
 27 28  1  6  0  0  0
 27 29  1  0  0  0  0
 29 31  1  0  0  0  0
 30 29  1  0  0  0  0
 33 32  1  0  0  0  0
 34 33  1  0  0  0  0
 35 42  1  1  0  0  0
 35 34  1  0  0  0  0
 36 40  1  6  0  0  0
 36 35  1  0  0  0  0
 37 36  1  0  0  0  0
 38 37  1  0  0  0  0
 39 37  1  0  0  0  0
 41 40  1  0  0  0  0
 43 47  1  0  0  0  0
 43 42  1  1  0  0  0
 44 43  1  0  0  0  0
 44 45  1  1  0  0  0
 44 46  1  0  0  0  0
 46 47  1  0  0  0  0
 49 47  1  0  0  0  0
 49 48  1  0  0  0  0
M  END
>  <MODEL>
7

>  <REMARK>
 VINA RESULT:      -2.9      5.376     11.903
  Name = 
  19 active torsions:
  status: ('A' for Active; 'I' for Inactive)
    1  A    between atoms: C_3  and  C_43
    2  A    between atoms: C_4  and  C_8
    3  A    between atoms: P_5  and  C_25
    4  A    between atoms: C_6  and  C_21
    5  A    between atoms: C_9  and  C_27
    6  A    between atoms: C_14  and  C_43
    7  A    between atoms: C_17  and  C_30
    8  A    between atoms: C_17  and  C_39
    9  A    between atoms: C_17  and  C_43
   10  A    between atoms: N_20  and  C_33
   11  A    between atoms: N_20  and  S_45
   12  A    between atoms: C_21  and  C_25
   13  A    between atoms: C_23  and  C_27
   14  A    between atoms: C_23  and  C_30
   15  A    between atoms: C_24  and  C_39
   16  A    between atoms: C_28  and  C_40
   17  A    between atoms: C_33  and  C_46
   18  A    between atoms: C_40  and  S_45
   19  A    between atoms: C_41  and  N_47
                            x       y       z     vdW  Elec       q    Type
                         _______ _______ _______ _____ _____    ______ ____

>  <TORSDO>
F 19

$$$$
=
 OpenBabel11072409483D

 49 54  0  0  1  0  0  0  0  0999 V2000
  163.0170  206.6770  147.5090 C   0  0  0  0  0  2  0  0  0  0  0  0
  162.1450  204.9660  145.9130 C   0  0  1  0  0  0  0  0  0  0  0  0
  160.9420  204.1150  145.5880 C   0  0  1  0  0  0  0  0  0  0  0  0
  161.2020  205.7060  143.7590 C   0  0  1  0  0  3  0  0  0  0  0  0
  160.7970  205.1160  146.6900 C   0  0  2  0  0  3  0  0  0  0  0  0
  160.4540  204.4590  144.1900 C   0  0  0  0  0  2  0  0  0  0  0  0
  163.0850  205.1830  147.0910 C   0  0  0  0  0  2  0  0  0  0  0  0
  161.5680  207.2360  147.6520 C   0  0  1  0  0  3  0  0  0  0  0  0
  160.5490  206.6170  146.6650 C   0  0  0  0  0  2  0  0  0  0  0  0
  162.4030  205.8500  144.6820 C   0  0  0  0  0  2  0  0  0  0  0  0
  161.1100  202.6630  145.9890 C   0  0  0  0  0  2  0  0  0  0  0  0
  160.7950  202.5060  147.3400 O   0  0  0  0  0  1  0  0  0  0  0  0
  160.0210  206.5910  149.2980 O   0  0  0  0  0  0  0  0  0  0  0  0
  161.0350  207.2270  149.0620 C   0  0  0  0  0  0  0  0  0  0  0  0
  163.1470  207.5100  150.6950 O   0  0  0  0  0  0  0  0  0  0  0  0
  161.9830  209.5490  149.9810 O   0  0  0  0  0  0  0  0  0  0  0  0
  161.8070  208.1130  150.3810 S   0  0  0  0  0  0  0  0  0  0  0  0
  160.7990  208.0460  151.7890 N   0  0  0  0  0  2  0  0  0  0  0  0
  161.5300  208.6590  152.8880 C   0  0  0  0  0  2  0  0  0  0  0  0
  161.3810  206.2510  154.0360 C   0  0  2  0  0  3  0  0  0  0  0  0
  159.7560  207.1960  155.6580 C   0  0  0  0  0  2  0  0  0  0  0  0
  160.4780  208.2530  156.2360 O   0  0  0  0  0  0  0  0  0  0  0  0
  160.1200  207.0870  154.1960 C   0  0  1  0  0  3  0  0  0  0  0  0
  161.4470  207.7720  154.1210 C   0  0  2  0  0  0  0  0  0  0  0  0
  161.6570  208.3860  155.4850 C   0  0  0  0  0  2  0  0  0  0  0  0
  161.4780  205.7440  152.6000 C   0  0  0  0  0  2  0  0  0  0  0  0
  161.4550  204.2170  152.5140 C   0  0  1  0  0  3  0  0  0  0  0  0
  160.3290  203.6890  153.1510 O   0  0  0  0  0  1  0  0  0  0  0  0
  161.5830  203.5570  150.7620 P   0  0  0  0  0  0  0  0  0  0  0  0
  161.3660  201.8720  151.1150 O   0  0  0  0  0  1  0  0  0  0  0  0
  159.9360  203.8500  150.2970 O   0  0  0  0  0  1  0  0  0  0  0  0
  161.6240  205.6120  142.3000 C   0  0  0  0  0  2  0  0  0  0  0  0
  161.9430  206.9880  141.7390 C   0  0  0  0  0  2  0  0  0  0  0  0
  161.9420  206.9610  140.2150 C   0  0  0  0  0  2  0  0  0  0  0  0
  162.1690  208.3420  139.5960 C   0  0  1  0  0  3  0  0  0  0  0  0
  161.7750  208.3660  138.1100 C   0  0  2  0  0  3  0  0  0  0  0  0
  160.3920  208.9900  137.9210 C   0  0  0  0  0  3  0  0  0  0  0  0
  160.5000  210.1670  137.1810 O   0  0  0  0  0  1  0  0  0  0  0  0
  159.5430  208.1090  137.2500 O   0  0  0  0  0  1  0  0  0  0  0  0
  161.8620  206.9810  137.4680 C   0  0  0  0  0  2  0  0  0  0  0  0
  163.1580  206.7450  137.0120 O   0  0  0  0  0  1  0  0  0  0  0  0
  161.5420  209.4830  140.4160 C   0  0  0  0  0  2  0  0  0  0  0  0
  162.4170  210.7450  140.5610 C   0  0  2  0  0  3  0  0  0  0  0  0
  161.9250  211.7890  141.5580 C   0  0  2  0  0  3  0  0  0  0  0  0
  160.6240  211.5330  142.0000 O   0  0  0  0  0  1  0  0  0  0  0  0
  161.8720  212.6980  140.3480 C   0  0  0  0  0  2  0  0  0  0  0  0
  162.3040  211.6520  139.4260 N   0  0  0  0  0  0  0  0  0  0  0  0
  163.7360  213.3570  138.7490 O   0  0  0  0  0  1  0  0  0  0  0  0
  163.6520  211.9870  138.9950 C   0  0  0  0  0  2  0  0  0  0  0  0
  1  8  1  0  0  0  0
  2 10  1  6  0  0  0
  2  5  1  0  0  0  0
  2  7  1  0  0  0  0
  3  2  1  0  0  0  0
  3 11  1  1  0  0  0
  3  5  1  0  0  0  0
  4 32  1  6  0  0  0
  4  6  1  0  0  0  0
  4 10  1  0  0  0  0
  5  9  1  6  0  0  0
  6  3  1  0  0  0  0
  7  1  1  0  0  0  0
  8 14  1  1  0  0  0
  9  8  1  0  0  0  0
 11 12  1  0  0  0  0
 14 13  2  0  0  0  0
 14 17  1  0  0  0  0
 16 17  2  0  0  0  0
 17 15  2  0  0  0  0
 17 18  1  0  0  0  0
 18 19  1  0  0  0  0
 20 26  1  6  0  0  0
 20 24  1  0  0  0  0
 20 23  1  0  0  0  0
 21 22  1  0  0  0  0
 23 21  1  1  0  0  0
 24 19  1  6  0  0  0
 24 23  1  0  0  0  0
 24 25  1  0  0  0  0
 25 22  1  0  0  0  0
 27 26  1  0  0  0  0
 27 28  1  6  0  0  0
 29 30  1  0  0  0  0
 29 27  1  0  0  0  0
 31 29  1  0  0  0  0
 33 32  1  0  0  0  0
 34 33  1  0  0  0  0
 35 34  1  1  0  0  0
 35 42  1  0  0  0  0
 36 40  1  1  0  0  0
 36 35  1  0  0  0  0
 37 36  1  0  0  0  0
 38 37  1  0  0  0  0
 39 37  1  0  0  0  0
 41 40  1  0  0  0  0
 43 42  1  6  0  0  0
 43 44  1  0  0  0  0
 44 45  1  6  0  0  0
 46 44  1  0  0  0  0
 47 46  1  0  0  0  0
 47 43  1  0  0  0  0
 48 49  1  0  0  0  0
 49 47  1  0  0  0  0
M  END
>  <MODEL>
8

>  <REMARK>
 VINA RESULT:      -2.9      5.123     11.306
  Name = 
  19 active torsions:
  status: ('A' for Active; 'I' for Inactive)
    1  A    between atoms: C_3  and  C_43
    2  A    between atoms: C_4  and  C_8
    3  A    between atoms: P_5  and  C_25
    4  A    between atoms: C_6  and  C_21
    5  A    between atoms: C_9  and  C_27
    6  A    between atoms: C_14  and  C_43
    7  A    between atoms: C_17  and  C_30
    8  A    between atoms: C_17  and  C_39
    9  A    between atoms: C_17  and  C_43
   10  A    between atoms: N_20  and  C_33
   11  A    between atoms: N_20  and  S_45
   12  A    between atoms: C_21  and  C_25
   13  A    between atoms: C_23  and  C_27
   14  A    between atoms: C_23  and  C_30
   15  A    between atoms: C_24  and  C_39
   16  A    between atoms: C_28  and  C_40
   17  A    between atoms: C_33  and  C_46
   18  A    between atoms: C_40  and  S_45
   19  A    between atoms: C_41  and  N_47
                            x       y       z     vdW  Elec       q    Type
                         _______ _______ _______ _____ _____    ______ ____

>  <TORSDO>
F 19

$$$$
=
 OpenBabel11072409483D

 49 54  0  0  1  0  0  0  0  0999 V2000
  159.7830  208.4760  154.5300 C   0  0  0  0  0  2  0  0  0  0  0  0
  160.8630  207.4470  152.5270 C   0  0  1  0  0  0  0  0  0  0  0  0
  162.1990  207.1530  151.8880 C   0  0  1  0  0  0  0  0  0  0  0  0
  161.2010  205.0060  152.4690 C   0  0  1  0  0  3  0  0  0  0  0  0
  162.2100  207.7350  153.2660 C   0  0  2  0  0  3  0  0  0  0  0  0
  162.3400  205.6500  151.7050 C   0  0  0  0  0  2  0  0  0  0  0  0
  160.0950  208.6660  153.0200 C   0  0  0  0  0  2  0  0  0  0  0  0
  161.0070  208.0220  155.3830 C   0  0  1  0  0  3  0  0  0  0  0  0
  161.9980  207.1010  154.6330 C   0  0  0  0  0  2  0  0  0  0  0  0
  160.1690  206.0920  152.7360 C   0  0  0  0  0  2  0  0  0  0  0  0
  162.5310  208.0850  150.7400 C   0  0  0  0  0  2  0  0  0  0  0  0
  161.4820  208.0950  149.8200 O   0  0  0  0  0  1  0  0  0  0  0  0
  162.0110  209.0160  157.2600 O   0  0  0  0  0  0  0  0  0  0  0  0
  161.7300  209.1470  156.0800 C   0  0  0  0  0  0  0  0  0  0  0  0
  163.5600  211.0670  155.6630 O   0  0  0  0  0  0  0  0  0  0  0  0
  162.1170  210.4450  153.7770 O   0  0  0  0  0  0  0  0  0  0  0  0
  162.1730  210.6500  155.2630 S   0  0  0  0  0  0  0  0  0  0  0  0
  161.0480  211.8940  155.6960 N   0  0  0  0  0  2  0  0  0  0  0  0
  159.7380  211.5020  155.1970 C   0  0  0  0  0  2  0  0  0  0  0  0
  158.2520  213.5340  154.3020 C   0  0  2  0  0  3  0  0  0  0  0  0
  157.9270  212.2810  152.1840 C   0  0  0  0  0  2  0  0  0  0  0  0
  159.2450  212.0730  151.7450 O   0  0  0  0  0  0  0  0  0  0  0  0
  157.8850  212.1910  153.6910 C   0  0  1  0  0  3  0  0  0  0  0  0
  159.3030  212.4510  154.0900 C   0  0  2  0  0  0  0  0  0  0  0  0
  160.0820  212.4800  152.7960 C   0  0  0  0  0  2  0  0  0  0  0  0
  157.7580  213.5900  155.7450 C   0  0  0  0  0  2  0  0  0  0  0  0
  156.2310  213.5740  155.8440 C   0  0  1  0  0  3  0  0  0  0  0  0
  155.6400  213.6510  154.5810 O   0  0  0  0  0  1  0  0  0  0  0  0
  155.5520  212.1070  156.7950 P   0  0  0  0  0  0  0  0  0  0  0  0
  155.2870  211.0420  155.4510 O   0  0  0  0  0  1  0  0  0  0  0  0
  157.0780  211.4210  157.2600 O   0  0  0  0  0  1  0  0  0  0  0  0
  160.6050  203.8460  151.6850 C   0  0  0  0  0  2  0  0  0  0  0  0
  161.3750  203.6130  150.3940 C   0  0  0  0  0  2  0  0  0  0  0  0
  161.1700  204.7740  149.4280 C   0  0  0  0  0  2  0  0  0  0  0  0
  161.1390  204.3300  147.9640 C   0  0  1  0  0  3  0  0  0  0  0  0
  161.6960  205.4190  147.0320 C   0  0  2  0  0  3  0  0  0  0  0  0
  160.6550  206.5090  146.7820 C   0  0  0  0  0  3  0  0  0  0  0  0
  159.9900  206.2630  145.5810 O   0  0  0  0  0  1  0  0  0  0  0  0
  159.7210  206.5430  147.8190 O   0  0  0  0  0  1  0  0  0  0  0  0
  162.2320  204.8370  145.7230 C   0  0  0  0  0  2  0  0  0  0  0  0
  163.4240  205.4680  145.3700 O   0  0  0  0  0  1  0  0  0  0  0  0
  161.7720  202.9450  147.7380 C   0  0  0  0  0  2  0  0  0  0  0  0
  160.7840  201.8280  147.3450 C   0  0  2  0  0  3  0  0  0  0  0  0
  160.9440  200.5040  148.0830 C   0  0  2  0  0  3  0  0  0  0  0  0
  162.1260  200.4470  148.8270 O   0  0  0  0  0  1  0  0  0  0  0  0
  161.1970  199.9390  146.7010 C   0  0  0  0  0  2  0  0  0  0  0  0
  161.0770  201.2370  146.0450 N   0  0  0  0  0  0  0  0  0  0  0  0
  160.0840  200.6940  144.0120 O   0  0  0  0  0  1  0  0  0  0  0  0
  159.8410  201.2220  145.2800 C   0  0  0  0  0  2  0  0  0  0  0  0
  1  8  1  0  0  0  0
  2 10  1  1  0  0  0
  2  7  1  0  0  0  0
  2  5  1  0  0  0  0
  3 11  1  6  0  0  0
  3  2  1  0  0  0  0
  3  5  1  0  0  0  0
  4 32  1  6  0  0  0
  4 10  1  0  0  0  0
  5  9  1  1  0  0  0
  6  3  1  0  0  0  0
  6  4  1  0  0  0  0
  7  1  1  0  0  0  0
  8 14  1  6  0  0  0
  9  8  1  0  0  0  0
 12 11  1  0  0  0  0
 14 13  2  0  0  0  0
 16 17  2  0  0  0  0
 17 15  2  0  0  0  0
 17 18  1  0  0  0  0
 17 14  1  0  0  0  0
 19 18  1  0  0  0  0
 20 26  1  1  0  0  0
 22 21  1  0  0  0  0
 22 25  1  0  0  0  0
 23 21  1  6  0  0  0
 23 24  1  0  0  0  0
 23 20  1  0  0  0  0
 24 20  1  0  0  0  0
 24 19  1  1  0  0  0
 25 24  1  0  0  0  0
 26 27  1  0  0  0  0
 27 28  1  6  0  0  0
 27 29  1  0  0  0  0
 29 31  1  0  0  0  0
 30 29  1  0  0  0  0
 33 32  1  0  0  0  0
 34 33  1  0  0  0  0
 35 42  1  1  0  0  0
 35 34  1  0  0  0  0
 36 40  1  6  0  0  0
 36 35  1  0  0  0  0
 37 36  1  0  0  0  0
 37 39  1  0  0  0  0
 38 37  1  0  0  0  0
 41 40  1  0  0  0  0
 43 42  1  1  0  0  0
 43 44  1  0  0  0  0
 44 45  1  1  0  0  0
 46 44  1  0  0  0  0
 47 46  1  0  0  0  0
 47 43  1  0  0  0  0
 48 49  1  0  0  0  0
 49 47  1  0  0  0  0
M  END
>  <MODEL>
9

>  <REMARK>
 VINA RESULT:      -2.9      2.965     11.139
  Name = 
  19 active torsions:
  status: ('A' for Active; 'I' for Inactive)
    1  A    between atoms: C_3  and  C_43
    2  A    between atoms: C_4  and  C_8
    3  A    between atoms: P_5  and  C_25
    4  A    between atoms: C_6  and  C_21
    5  A    between atoms: C_9  and  C_27
    6  A    between atoms: C_14  and  C_43
    7  A    between atoms: C_17  and  C_30
    8  A    between atoms: C_17  and  C_39
    9  A    between atoms: C_17  and  C_43
   10  A    between atoms: N_20  and  C_33
   11  A    between atoms: N_20  and  S_45
   12  A    between atoms: C_21  and  C_25
   13  A    between atoms: C_23  and  C_27
   14  A    between atoms: C_23  and  C_30
   15  A    between atoms: C_24  and  C_39
   16  A    between atoms: C_28  and  C_40
   17  A    between atoms: C_33  and  C_46
   18  A    between atoms: C_40  and  S_45
   19  A    between atoms: C_41  and  N_47
                            x       y       z     vdW  Elec       q    Type
                         _______ _______ _______ _____ _____    ______ ____

>  <TORSDO>
F 19

$$$$
