=
 OpenBabel11072412413D

 31 34  0  0  1  0  0  0  0  0999 V2000
  159.0640  209.9510  155.9520 C   0  0  0  0  0  2  0  0  0  0  0  0
  158.0490  211.0750  155.6610 C   0  0  1  0  0  3  0  0  0  0  0  0
  161.2290  208.7730  155.4260 C   0  0  0  0  0  2  0  0  0  0  0  0
  163.0140  210.6260  156.2610 O   0  0  0  0  0  0  0  0  0  0  0  0
  161.0190  211.3490  155.1490 C   0  0  2  0  0  3  0  0  0  0  0  0
  161.9390  211.5130  156.3550 C   0  0  0  0  0  2  0  0  0  0  0  0
  162.7920  209.6470  157.2420 C   0  0  0  0  0  2  0  0  0  0  0  0
  158.6190  212.2040  154.7850 C   0  0  2  0  0  3  0  0  0  0  0  0
  161.6130  208.7270  156.9060 C   0  0  0  0  0  2  0  0  0  0  0  0
  160.0620  212.5510  155.1500 C   0  0  0  0  0  2  0  0  0  0  0  0
  160.3080  209.9580  155.0410 C   0  0  2  0  0  0  0  0  0  0  0  0
  161.4400  207.5560  150.9280 C   0  0  0  0  0  0  0  0  0  0  0  0
  162.4530  209.3950  149.6720 C   0  0  0  0  0  3  0  0  0  0  0  0
  160.1130  208.3080  153.0510 C   0  0  0  0  0  2  0  0  0  0  0  0
  161.1780  209.8490  151.6520 C   0  0  0  0  0  0  0  0  0  0  0  0
  160.5940  210.6460  152.6590 N   0  0  0  0  0  2  0  0  0  0  0  0
  160.9320  208.5130  151.8260 C   0  0  0  0  0  0  0  0  0  0  0  0
  159.8770  209.7490  153.5680 C   0  0  2  0  0  3  0  0  0  0  0  0
  162.2070  208.0210  149.8430 C   0  0  0  0  0  3  0  0  0  0  0  0
  161.9370  210.3250  150.5850 C   0  0  0  0  0  3  0  0  0  0  0  0
  161.2020  206.1070  151.0810 C   0  0  0  0  0  0  0  0  0  0  0  0
  161.7610  205.4200  152.1530 O   0  0  0  0  0  1  0  0  0  0  0  0
  160.4960  205.4740  150.2520 O   0  0  0  0  0  0  0  0  0  0  0  0
  155.6250  210.6550  155.5900 C   0  0  0  0  0  2  0  0  0  0  0  0
  156.8200  210.5040  155.0250 C   0  0  0  0  0  3  0  0  0  0  0  0
  157.7280  213.4520  154.7810 C   0  0  0  0  0  2  0  0  0  0  0  0
  157.1820  213.7980  153.4230 C   0  0  0  0  0  0  0  0  0  0  0  0
  155.8710  213.9040  153.2550 C   0  0  0  0  0  2  0  0  0  0  0  0
  157.4300  213.1910  149.9280 O   0  0  0  0  0  0  0  0  0  0  0  0
  157.7360  213.5810  151.0620 C   0  0  0  0  0  0  0  0  0  0  0  0
  158.0580  213.9910  152.2590 C   0  0  0  0  0  3  0  0  0  0  0  0
  2 25  1  6  0  0  0
  2  1  1  0  0  0  0
  3  9  1  0  0  0  0
  4  6  1  0  0  0  0
  4  7  1  0  0  0  0
  5 10  1  1  0  0  0
  5  6  1  0  0  0  0
  8 26  1  1  0  0  0
  8 10  1  0  0  0  0
  8  2  1  0  0  0  0
  9  7  1  0  0  0  0
 11  5  1  0  0  0  0
 11  3  1  1  0  0  0
 11  1  1  0  0  0  0
 12 21  1  0  0  0  0
 12 17  1  0  0  0  0
 13 19  1  0  0  0  0
 13 20  2  0  0  0  0
 15 17  2  0  0  0  0
 15 16  1  0  0  0  0
 16 18  1  0  0  0  0
 17 14  1  0  0  0  0
 18 14  1  6  0  0  0
 18 11  1  0  0  0  0
 19 12  2  0  0  0  0
 20 15  1  0  0  0  0
 21 22  1  0  0  0  0
 23 21  2  0  0  0  0
 25 24  2  0  0  0  0
 27 26  1  0  0  0  0
 28 27  2  0  0  0  0
 29 30  2  0  0  0  0
 30 31  2  0  0  0  0
 31 27  1  0  0  0  0
M  END
>  <MODEL>
1

>  <REMARK>
 VINA RESULT:      -5.6      0.000      0.000
  Name = 
  6 active torsions:
  status: ('A' for Active; 'I' for Inactive)
    1  A    between atoms: C_3  and  C_17
    2  A    between atoms: C_4  and  C_12
    3  A    between atoms: C_18  and  C_20
    4  A    between atoms: C_18  and  C_23
    5  A    between atoms: C_21  and  C_23
    6  A    between atoms: C_22  and  C_31
                            x       y       z     vdW  Elec       q    Type
                         _______ _______ _______ _____ _____    ______ ____

>  <TORSDO>
F 6

$$$$
=
 OpenBabel11072412413D

 31 34  0  0  1  0  0  0  0  0999 V2000
  159.0490  214.1940  153.3260 C   0  0  0  0  0  2  0  0  0  0  0  0
  157.9730  214.4520  154.3990 C   0  0  1  0  0  3  0  0  0  0  0  0
  159.9170  212.8430  151.3830 C   0  0  0  0  0  2  0  0  0  0  0  0
  158.1440  213.5440  149.4640 O   0  0  0  0  0  0  0  0  0  0  0  0
  157.3650  213.2150  151.7050 C   0  0  2  0  0  3  0  0  0  0  0  0
  157.3840  214.1260  150.4810 C   0  0  0  0  0  2  0  0  0  0  0  0
  159.3210  214.3040  149.3790 C   0  0  0  0  0  2  0  0  0  0  0  0
  156.6450  213.7270  154.1220 C   0  0  2  0  0  3  0  0  0  0  0  0
  160.2410  214.1110  150.5910 C   0  0  0  0  0  2  0  0  0  0  0  0
  156.2680  213.7470  152.6410 C   0  0  0  0  0  2  0  0  0  0  0  0
  158.7540  213.0010  152.3950 C   0  0  2  0  0  0  0  0  0  0  0  0
  161.4840  209.7820  154.8750 C   0  0  0  0  0  0  0  0  0  0  0  0
  161.5030  207.9550  153.2470 C   0  0  0  0  0  3  0  0  0  0  0  0
  159.7140  211.6410  154.3830 C   0  0  0  0  0  2  0  0  0  0  0  0
  159.9520  209.7680  153.0030 C   0  0  0  0  0  0  0  0  0  0  0  0
  158.9150  210.5110  152.3980 N   0  0  0  0  0  2  0  0  0  0  0  0
  160.4390  210.3650  154.1350 C   0  0  0  0  0  0  0  0  0  0  0  0
  158.6840  211.6960  153.2270 C   0  0  2  0  0  3  0  0  0  0  0  0
  162.0090  208.5610  154.4110 C   0  0  0  0  0  3  0  0  0  0  0  0
  160.4630  208.5620  152.5290 C   0  0  0  0  0  3  0  0  0  0  0  0
  162.0410  210.3940  156.0980 C   0  0  0  0  0  0  0  0  0  0  0  0
  161.2370  210.5620  157.2200 O   0  0  0  0  0  1  0  0  0  0  0  0
  163.2420  210.7710  156.1460 O   0  0  0  0  0  0  0  0  0  0  0  0
  159.7040  214.4530  156.1490 C   0  0  0  0  0  2  0  0  0  0  0  0
  158.4930  214.0690  155.7490 C   0  0  0  0  0  3  0  0  0  0  0  0
  155.4970  214.2470  154.9970 C   0  0  0  0  0  2  0  0  0  0  0  0
  155.2280  213.3950  156.2070 C   0  0  0  0  0  0  0  0  0  0  0  0
  154.3760  213.8220  157.1290 C   0  0  0  0  0  2  0  0  0  0  0  0
  155.1510  209.9600  155.2920 O   0  0  0  0  0  0  0  0  0  0  0  0
  155.5200  211.0060  155.8400 C   0  0  0  0  0  0  0  0  0  0  0  0
  155.9090  212.1100  156.4190 C   0  0  0  0  0  3  0  0  0  0  0  0
  1  2  1  0  0  0  0
  2 25  1  1  0  0  0
  4  6  1  0  0  0  0
  5  6  1  6  0  0  0
  5 11  1  0  0  0  0
  5 10  1  0  0  0  0
  7  4  1  0  0  0  0
  7  9  1  0  0  0  0
  8  2  1  0  0  0  0
  8 26  1  1  0  0  0
  9  3  1  0  0  0  0
 10  8  1  0  0  0  0
 11  3  1  6  0  0  0
 11 18  1  0  0  0  0
 11  1  1  0  0  0  0
 12 21  1  0  0  0  0
 13 19  2  0  0  0  0
 15 17  1  0  0  0  0
 16 15  1  0  0  0  0
 16 18  1  0  0  0  0
 17 14  1  0  0  0  0
 17 12  2  0  0  0  0
 18 14  1  1  0  0  0
 19 12  1  0  0  0  0
 20 15  2  0  0  0  0
 20 13  1  0  0  0  0
 21 23  2  0  0  0  0
 21 22  1  0  0  0  0
 25 24  2  0  0  0  0
 26 27  1  0  0  0  0
 27 31  1  0  0  0  0
 27 28  2  0  0  0  0
 29 30  2  0  0  0  0
 30 31  2  0  0  0  0
M  END
>  <MODEL>
2

>  <REMARK>
 VINA RESULT:      -3.1      2.561      5.415
  Name = 
  6 active torsions:
  status: ('A' for Active; 'I' for Inactive)
    1  A    between atoms: C_3  and  C_17
    2  A    between atoms: C_4  and  C_12
    3  A    between atoms: C_18  and  C_20
    4  A    between atoms: C_18  and  C_23
    5  A    between atoms: C_21  and  C_23
    6  A    between atoms: C_22  and  C_31
                            x       y       z     vdW  Elec       q    Type
                         _______ _______ _______ _____ _____    ______ ____

>  <TORSDO>
F 6

$$$$
=
 OpenBabel11072412413D

 31 34  0  0  1  0  0  0  0  0999 V2000
  157.8230  211.6080  153.1500 C   0  0  0  0  0  2  0  0  0  0  0  0
  156.9040  212.5530  153.9490 C   0  0  1  0  0  3  0  0  0  0  0  0
  160.0290  211.1420  152.0210 C   0  0  0  0  0  2  0  0  0  0  0  0
  161.6490  210.9240  154.1770 O   0  0  0  0  0  0  0  0  0  0  0  0
  159.9220  212.5850  154.1810 C   0  0  2  0  0  3  0  0  0  0  0  0
  160.5910  211.4370  154.9320 C   0  0  0  0  0  2  0  0  0  0  0  0
  161.2230  209.6660  153.7240 C   0  0  0  0  0  2  0  0  0  0  0  0
  157.6530  213.7240  154.6080 C   0  0  2  0  0  3  0  0  0  0  0  0
  160.1160  209.7590  152.6670 C   0  0  0  0  0  2  0  0  0  0  0  0
  159.0030  213.3000  155.1850 C   0  0  0  0  0  2  0  0  0  0  0  0
  159.2210  212.1810  152.8410 C   0  0  2  0  0  0  0  0  0  0  0  0
  158.5840  213.7230  148.2380 C   0  0  0  0  0  0  0  0  0  0  0  0
  160.8700  214.4510  147.7540 C   0  0  0  0  0  3  0  0  0  0  0  0
  158.1110  213.2790  150.7710 C   0  0  0  0  0  2  0  0  0  0  0  0
  160.2050  213.9950  150.0130 C   0  0  0  0  0  0  0  0  0  0  0  0
  160.3690  213.8720  151.4090 N   0  0  0  0  0  2  0  0  0  0  0  0
  158.9400  213.6730  149.5990 C   0  0  0  0  0  0  0  0  0  0  0  0
  159.0820  213.4520  151.9670 C   0  0  2  0  0  3  0  0  0  0  0  0
  159.5730  214.1210  147.3190 C   0  0  0  0  0  3  0  0  0  0  0  0
  161.1960  214.3870  149.1160 C   0  0  0  0  0  3  0  0  0  0  0  0
  157.2340  213.3800  147.7490 C   0  0  0  0  0  0  0  0  0  0  0  0
  157.0690  212.3540  146.8250 O   0  0  0  0  0  0  0  0  0  0  0  0
  156.2180  214.0040  148.1560 O   0  0  0  0  0  1  0  0  0  0  0  0
  155.5570  214.3790  152.9960 C   0  0  0  0  0  2  0  0  0  0  0  0
  155.8130  213.0740  153.0670 C   0  0  0  0  0  3  0  0  0  0  0  0
  156.8020  214.4530  155.6550 C   0  0  0  0  0  2  0  0  0  0  0  0
  156.0230  213.5270  156.5490 C   0  0  0  0  0  0  0  0  0  0  0  0
  155.0090  214.0050  157.2560 C   0  0  0  0  0  2  0  0  0  0  0  0
  154.6170  210.2740  156.8320 O   0  0  0  0  0  0  0  0  0  0  0  0
  155.4720  211.1660  156.7630 C   0  0  0  0  0  0  0  0  0  0  0  0
  156.3740  212.1080  156.6920 C   0  0  0  0  0  3  0  0  0  0  0  0
  1  2  1  0  0  0  0
  2 25  1  6  0  0  0
  2  8  1  0  0  0  0
  3  9  1  0  0  0  0
  4  6  1  0  0  0  0
  5  6  1  1  0  0  0
  5 10  1  0  0  0  0
  7  4  1  0  0  0  0
  8 10  1  0  0  0  0
  8 26  1  1  0  0  0
  9  7  1  0  0  0  0
 11  3  1  6  0  0  0
 11  1  1  0  0  0  0
 11  5  1  0  0  0  0
 12 17  1  0  0  0  0
 13 20  2  0  0  0  0
 15 16  1  0  0  0  0
 16 18  1  0  0  0  0
 17 15  2  0  0  0  0
 17 14  1  0  0  0  0
 18 14  1  6  0  0  0
 18 11  1  0  0  0  0
 19 13  1  0  0  0  0
 19 12  2  0  0  0  0
 20 15  1  0  0  0  0
 21 23  1  0  0  0  0
 21 12  1  0  0  0  0
 22 21  2  0  0  0  0
 24 25  2  0  0  0  0
 26 27  1  0  0  0  0
 27 31  1  0  0  0  0
 27 28  2  0  0  0  0
 30 29  2  0  0  0  0
 31 30  2  0  0  0  0
M  END
>  <MODEL>
3

>  <REMARK>
 VINA RESULT:      -2.9      2.747      5.227
  Name = 
  6 active torsions:
  status: ('A' for Active; 'I' for Inactive)
    1  A    between atoms: C_3  and  C_17
    2  A    between atoms: C_4  and  C_12
    3  A    between atoms: C_18  and  C_20
    4  A    between atoms: C_18  and  C_23
    5  A    between atoms: C_21  and  C_23
    6  A    between atoms: C_22  and  C_31
                            x       y       z     vdW  Elec       q    Type
                         _______ _______ _______ _____ _____    ______ ____

>  <TORSDO>
F 6

$$$$
=
 OpenBabel11072412413D

 31 34  0  0  1  0  0  0  0  0999 V2000
  162.3810  208.9650  153.0460 C   0  0  0  0  0  2  0  0  0  0  0  0
  162.1130  207.6460  152.2930 C   0  0  1  0  0  3  0  0  0  0  0  0
  161.5420  210.9110  154.4100 C   0  0  0  0  0  2  0  0  0  0  0  0
  160.9810  209.6690  156.7470 O   0  0  0  0  0  0  0  0  0  0  0  0
  160.4950  208.5480  154.6860 C   0  0  2  0  0  3  0  0  0  0  0  0
  161.1490  208.4640  156.0620 C   0  0  0  0  0  2  0  0  0  0  0  0
  162.2470  210.2750  156.7770 C   0  0  0  0  0  2  0  0  0  0  0  0
  160.7600  207.0040  152.6440 C   0  0  2  0  0  3  0  0  0  0  0  0
  162.7000  210.7720  155.4000 C   0  0  0  0  0  2  0  0  0  0  0  0
  160.4320  207.1160  154.1320 C   0  0  0  0  0  2  0  0  0  0  0  0
  161.1370  209.5890  153.7090 C   0  0  2  0  0  0  0  0  0  0  0  0
  159.7110  213.1310  150.6450 C   0  0  0  0  0  0  0  0  0  0  0  0
  157.7380  213.9210  151.8580 C   0  0  0  0  0  3  0  0  0  0  0  0
  160.6490  210.8430  151.4930 C   0  0  0  0  0  2  0  0  0  0  0  0
  158.7640  211.8380  152.4570 C   0  0  0  0  0  0  0  0  0  0  0  0
  158.9360  210.6450  153.1910 N   0  0  0  0  0  2  0  0  0  0  0  0
  159.7090  211.9970  151.4780 C   0  0  0  0  0  0  0  0  0  0  0  0
  160.0900  209.9430  152.6240 C   0  0  2  0  0  3  0  0  0  0  0  0
  158.7050  214.0940  150.8510 C   0  0  0  0  0  3  0  0  0  0  0  0
  157.7640  212.7830  152.6750 C   0  0  0  0  0  3  0  0  0  0  0  0
  160.7130  213.3440  149.5820 C   0  0  0  0  0  0  0  0  0  0  0  0
  161.0270  212.3110  148.7050 O   0  0  0  0  0  0  0  0  0  0  0  0
  161.2950  214.4530  149.4510 O   0  0  0  0  0  1  0  0  0  0  0  0
  163.3070  207.5490  150.1420 C   0  0  0  0  0  2  0  0  0  0  0  0
  162.2050  207.8720  150.8160 C   0  0  0  0  0  3  0  0  0  0  0  0
  160.6520  205.5540  152.1550 C   0  0  0  0  0  2  0  0  0  0  0  0
  160.7790  205.4100  150.6640 C   0  0  0  0  0  0  0  0  0  0  0  0
  161.4400  204.3760  150.1630 C   0  0  0  0  0  2  0  0  0  0  0  0
  160.1710  206.0470  147.2190 O   0  0  0  0  0  0  0  0  0  0  0  0
  160.1930  206.2200  148.4440 C   0  0  0  0  0  0  0  0  0  0  0  0
  160.2170  206.4020  149.7370 C   0  0  0  0  0  3  0  0  0  0  0  0
  2 25  1  6  0  0  0
  2  8  1  0  0  0  0
  2  1  1  0  0  0  0
  3  9  1  0  0  0  0
  4  7  1  0  0  0  0
  5 10  1  6  0  0  0
  5  6  1  0  0  0  0
  6  4  1  0  0  0  0
  8 26  1  1  0  0  0
  8 10  1  0  0  0  0
  9  7  1  0  0  0  0
 11  1  1  6  0  0  0
 11  3  1  0  0  0  0
 11  5  1  0  0  0  0
 12 19  2  0  0  0  0
 12 17  1  0  0  0  0
 13 20  2  0  0  0  0
 15 20  1  0  0  0  0
 15 16  1  0  0  0  0
 17 14  1  0  0  0  0
 17 15  2  0  0  0  0
 18 14  1  6  0  0  0
 18 16  1  0  0  0  0
 18 11  1  0  0  0  0
 19 13  1  0  0  0  0
 21 12  1  0  0  0  0
 22 21  2  0  0  0  0
 23 21  1  0  0  0  0
 24 25  2  0  0  0  0
 27 26  1  0  0  0  0
 28 27  2  0  0  0  0
 29 30  2  0  0  0  0
 30 31  2  0  0  0  0
 31 27  1  0  0  0  0
M  END
>  <MODEL>
4

>  <REMARK>
 VINA RESULT:      -2.9      2.227      6.260
  Name = 
  6 active torsions:
  status: ('A' for Active; 'I' for Inactive)
    1  A    between atoms: C_3  and  C_17
    2  A    between atoms: C_4  and  C_12
    3  A    between atoms: C_18  and  C_20
    4  A    between atoms: C_18  and  C_23
    5  A    between atoms: C_21  and  C_23
    6  A    between atoms: C_22  and  C_31
                            x       y       z     vdW  Elec       q    Type
                         _______ _______ _______ _____ _____    ______ ____

>  <TORSDO>
F 6

$$$$
