=
 OpenBabel11072414203D

 56 60  0  0  1  0  0  0  0  0999 V2000
  159.3730  211.6790  151.5700 O   0  0  0  0  0  0  0  0  0  0  0  0
  159.3130  212.1840  155.2390 C   0  0  0  0  0  0  0  0  0  0  0  0
  160.5600  211.5970  155.5240 C   0  0  0  0  0  3  0  0  0  0  0  0
  160.4880  211.1490  150.8520 C   0  0  2  0  0  3  0  0  0  0  0  0
  160.8040  211.0300  153.1940 C   0  0  0  0  0  0  0  0  0  0  0  0
  158.8400  212.2350  153.9180 C   0  0  0  0  0  3  0  0  0  0  0  0
  161.4110  210.5180  151.9210 C   0  0  1  0  0  3  0  0  0  0  0  0
  161.3240  211.0260  154.4930 C   0  0  0  0  0  0  0  0  0  0  0  0
  159.6230  211.6560  152.9200 C   0  0  0  0  0  0  0  0  0  0  0  0
  158.5860  212.7370  156.2380 F   0  0  0  0  0  0  0  0  0  0  0  0
  162.5710  210.4830  154.7720 O   0  0  0  0  0  1  0  0  0  0  0  0
  161.2030  212.2890  150.1360 C   0  0  0  0  0  2  0  0  0  0  0  0
  161.3260  212.0560  148.6230 C   0  0  0  0  0  2  0  0  0  0  0  0
  160.8970  212.7860  146.2400 C   0  0  0  0  0  2  0  0  0  0  0  0
  160.8470  213.2080  147.7170 C   0  0  1  0  0  0  0  0  0  0  0  0
  160.2690  213.8830  145.3860 C   0  0  2  0  0  3  0  0  0  0  0  0
  159.4220  213.5520  148.0770 C   0  0  0  0  0  3  0  0  0  0  0  0
  158.5680  214.0660  147.1790 C   0  0  0  0  0  0  0  0  0  0  0  0
  158.9460  214.1770  145.8290 O   0  0  0  0  0  0  0  0  0  0  0  0
  160.3190  213.5580  143.9270 C   0  0  0  0  0  0  0  0  0  0  0  0
  159.6060  212.9570  141.9150 N   0  0  0  0  0  0  0  0  0  0  0  0
  161.3900  213.5520  143.0400 C   0  0  0  0  0  0  0  0  0  0  0  0
  159.2090  213.1910  143.1820 C   0  0  0  0  0  3  0  0  0  0  0  0
  160.9120  213.1690  141.8430 N   0  0  0  0  0  0  0  0  0  0  0  0
  161.6550  212.9730  140.6680 C   0  0  0  0  0  0  0  0  0  0  0  0
  162.2840  212.8060  139.6500 C   0  0  0  0  0  3  0  0  0  0  0  0
  163.5540  213.3810  144.2240 C   0  0  0  0  0  2  0  0  0  0  0  0
  162.8030  213.9120  143.2680 C   0  0  0  0  0  3  0  0  0  0  0  0
  163.2140  214.1820  147.7290 C   0  0  0  0  0  1  0  0  0  0  0  0
  161.7270  214.4530  147.9240 C   0  0  0  0  0  2  0  0  0  0  0  0
  157.1680  214.4520  147.5800 C   0  0  1  0  0  3  0  0  0  0  0  0
  156.2560  214.1930  146.5500 O   0  0  0  0  0  1  0  0  0  0  0  0
  156.2310  214.3230  149.7850 O   0  0  0  0  0  1  0  0  0  0  0  0
  156.7430  213.7110  148.8090 C   0  0  0  0  0  0  0  0  0  0  0  0
  156.9070  212.3320  148.8750 O   0  0  0  0  0  0  0  0  0  0  0  0
  161.2470  209.0000  151.7650 C   0  0  0  0  0  2  0  0  0  0  0  0
  162.2950  209.2260  149.5770 C   0  0  0  0  0  2  0  0  0  0  0  0
  161.5880  208.4620  150.4070 C   0  0  0  0  0  0  0  0  0  0  0  0
  161.4480  207.0050  150.0650 C   0  0  2  0  0  3  0  0  0  0  0  0
  161.5710  206.2370  147.6580 C   0  0  0  0  0  0  0  0  0  0  0  0
  160.8780  206.8720  148.7320 N   0  0  0  0  0  2  0  0  0  0  0  0
  162.6300  205.5870  147.8720 O   0  0  0  0  0  0  0  0  0  0  0  0
  161.0480  206.3800  146.2670 C   0  0  0  0  0  2  0  0  0  0  0  0
  161.1990  205.5280  144.0240 O   0  0  0  0  0  0  0  0  0  0  0  0
  160.9750  204.3880  144.8160 C   0  0  0  0  0  2  0  0  0  0  0  0
  161.8250  205.5050  145.2880 C   0  0  2  0  0  3  0  0  0  0  0  0
  160.6490  206.2480  151.0370 N   0  0  0  0  0  2  0  0  0  0  0  0
  160.9490  204.8080  151.0310 C   0  0  1  0  0  3  0  0  0  0  0  0
  161.0490  204.3030  152.4640 C   0  0  0  0  0  2  0  0  0  0  0  0
  161.6070  205.3710  153.3890 C   0  0  0  0  0  2  0  0  0  0  0  0
  160.4730  206.0040  154.1650 C   0  0  0  0  0  1  0  0  0  0  0  0
  159.9000  203.9770  150.2790 C   0  0  0  0  0  2  0  0  0  0  0  0
  160.5460  202.9760  149.3230 C   0  0  0  0  0  2  0  0  0  0  0  0
  161.9760  201.5930  150.6320 O   0  0  0  0  0  1  0  0  0  0  0  0
  160.0440  200.5900  149.9110 O   0  0  0  0  0  0  0  0  0  0  0  0
  160.9000  201.6830  149.9840 C   0  0  0  0  0  0  0  0  0  0  0  0
  1  9  1  0  0  0  0
  2  3  1  0  0  0  0
  2 10  1  0  0  0  0
  4 12  1  1  0  0  0
  4  1  1  0  0  0  0
  4  7  1  0  0  0  0
  5  8  1  0  0  0  0
  6  2  2  0  0  0  0
  7 36  1  1  0  0  0
  7  5  1  0  0  0  0
  8 11  1  0  0  0  0
  8  3  2  0  0  0  0
  9  5  2  0  0  0  0
  9  6  1  0  0  0  0
 13 12  1  0  0  0  0
 14 15  1  0  0  0  0
 15 30  1  1  0  0  0
 15 17  1  0  0  0  0
 15 13  1  0  0  0  0
 16 20  1  6  0  0  0
 16 19  1  0  0  0  0
 16 14  1  0  0  0  0
 18 31  1  0  0  0  0
 18 17  2  0  0  0  0
 19 18  1  0  0  0  0
 21 23  2  0  0  0  0
 22 28  1  0  0  0  0
 22 20  2  0  0  0  0
 23 20  1  0  0  0  0
 24 21  1  0  0  0  0
 24 22  1  0  0  0  0
 25 24  1  0  0  0  0
 26 25  3  0  0  0  0
 28 27  2  0  0  0  0
 29 30  1  0  0  0  0
 31 32  1  6  0  0  0
 31 34  1  0  0  0  0
 34 35  2  0  0  0  0
 34 33  1  0  0  0  0
 37 38  2  0  0  0  0
 38 36  1  0  0  0  0
 39 41  1  6  0  0  0
 39 38  1  0  0  0  0
 39 47  1  0  0  0  0
 40 42  2  0  0  0  0
 40 41  1  0  0  0  0
 43 40  1  0  0  0  0
 44 45  1  0  0  0  0
 44 46  1  0  0  0  0
 45 46  1  0  0  0  0
 46 43  1  1  0  0  0
 48 52  1  6  0  0  0
 48 47  1  0  0  0  0
 48 49  1  0  0  0  0
 49 50  1  0  0  0  0
 50 51  1  0  0  0  0
 53 56  1  0  0  0  0
 53 52  1  0  0  0  0
 55 56  2  0  0  0  0
 56 54  1  0  0  0  0
M  END
>  <MODEL>
1

>  <REMARK>
 VINA RESULT:      -4.9      0.000      0.000
  Name = 
  22 active torsions:
  status: ('A' for Active; 'I' for Inactive)
    1  A    between atoms: C_1  and  C_15
    2  A    between atoms: C_1  and  C_18
    3  A    between atoms: C_2  and  C_31
    4  A    between atoms: C_2  and  C_47
    5  A    between atoms: C_8  and  C_32
    6  A    between atoms: C_8  and  C_54
    7  A    between atoms: C_11  and  C_14
    8  A    between atoms: C_11  and  N_27
    9  A    between atoms: C_11  and  C_41
   10  A    between atoms: C_12  and  C_36
   11  A    between atoms: C_14  and  C_50
   12  A    between atoms: C_15  and  C_20
   13  A    between atoms: C_16  and  C_22
   14  A    between atoms: C_17  and  C_41
   15  A    between atoms: C_20  and  C_40
   16  A    between atoms: C_21  and  N_27
   17  A    between atoms: C_21  and  N_42
   18  A    between atoms: C_21  and  C_54
   19  A    between atoms: C_23  and  C_46
   20  A    between atoms: C_25  and  N_48
   21  A    between atoms: C_43  and  C_46
   22  A    between atoms: C_50  and  C_52
                            x       y       z     vdW  Elec       q    Type
                         _______ _______ _______ _____ _____    ______ ____

>  <TORSDO>
F 22

$$$$
=
 OpenBabel11072414203D

 56 60  0  0  1  0  0  0  0  0999 V2000
  163.0010  208.4310  147.9720 O   0  0  0  0  0  0  0  0  0  0  0  0
  161.7230  205.1140  146.9300 C   0  0  0  0  0  0  0  0  0  0  0  0
  160.7140  204.9930  147.9040 C   0  0  0  0  0  3  0  0  0  0  0  0
  162.4100  209.2320  148.9950 C   0  0  2  0  0  3  0  0  0  0  0  0
  161.4230  207.0850  148.8690 C   0  0  0  0  0  0  0  0  0  0  0  0
  162.5470  206.2500  146.9020 C   0  0  0  0  0  3  0  0  0  0  0  0
  161.4550  208.2890  149.7650 C   0  0  1  0  0  3  0  0  0  0  0  0
  160.5490  205.9930  148.8770 C   0  0  0  0  0  0  0  0  0  0  0  0
  162.3570  207.2210  147.8840 C   0  0  0  0  0  0  0  0  0  0  0  0
  161.8720  204.1480  145.9930 F   0  0  0  0  0  0  0  0  0  0  0  0
  159.5280  205.8900  149.8120 O   0  0  0  0  0  1  0  0  0  0  0  0
  161.6290  210.3680  148.3460 C   0  0  0  0  0  2  0  0  0  0  0  0
  161.9980  211.7460  148.9160 C   0  0  0  0  0  2  0  0  0  0  0  0
  161.1210  212.6620  146.7290 C   0  0  0  0  0  2  0  0  0  0  0  0
  161.3640  212.9640  148.2160 C   0  0  1  0  0  0  0  0  0  0  0  0
  160.3500  213.8210  146.1050 C   0  0  2  0  0  3  0  0  0  0  0  0
  160.0400  213.2700  148.8740 C   0  0  0  0  0  3  0  0  0  0  0  0
  159.0320  213.8500  148.2030 C   0  0  0  0  0  0  0  0  0  0  0  0
  159.1410  214.0720  146.8190 O   0  0  0  0  0  0  0  0  0  0  0  0
  160.1110  213.6150  144.6430 C   0  0  0  0  0  0  0  0  0  0  0  0
  159.0190  213.1550  142.7690 N   0  0  0  0  0  0  0  0  0  0  0  0
  160.9830  213.7130  143.5630 C   0  0  0  0  0  0  0  0  0  0  0  0
  158.8800  213.2750  144.1040 C   0  0  0  0  0  3  0  0  0  0  0  0
  160.2800  213.4120  142.4570 N   0  0  0  0  0  0  0  0  0  0  0  0
  160.7750  213.3330  141.1460 C   0  0  0  0  0  0  0  0  0  0  0  0
  161.1950  213.2740  140.0150 C   0  0  0  0  0  3  0  0  0  0  0  0
  163.3830  213.3470  144.0320 C   0  0  0  0  0  2  0  0  0  0  0  0
  162.4080  214.0970  143.5360 C   0  0  0  0  0  3  0  0  0  0  0  0
  163.6910  213.9540  147.8240 C   0  0  0  0  0  1  0  0  0  0  0  0
  162.2800  214.1940  148.3470 C   0  0  0  0  0  2  0  0  0  0  0  0
  157.7420  214.1950  148.8990 C   0  0  1  0  0  3  0  0  0  0  0  0
  156.6400  213.6770  148.2090 O   0  0  0  0  0  1  0  0  0  0  0  0
  157.2850  212.5170  150.5530 O   0  0  0  0  0  0  0  0  0  0  0  0
  157.7350  213.6670  150.3000 C   0  0  0  0  0  0  0  0  0  0  0  0
  158.2380  214.4480  151.3330 O   0  0  0  0  0  1  0  0  0  0  0  0
  162.1470  208.0030  151.1040 C   0  0  0  0  0  2  0  0  0  0  0  0
  160.7950  209.7130  152.1930 C   0  0  0  0  0  2  0  0  0  0  0  0
  161.4480  208.5580  152.3100 C   0  0  0  0  0  0  0  0  0  0  0  0
  161.1840  207.7290  153.5350 C   0  0  2  0  0  3  0  0  0  0  0  0
  162.2660  205.6620  152.5560 C   0  0  0  0  0  0  0  0  0  0  0  0
  161.1590  206.3190  153.1710 N   0  0  0  0  0  2  0  0  0  0  0  0
  163.3890  206.2300  152.4810 O   0  0  0  0  0  0  0  0  0  0  0  0
  162.0720  204.3030  151.9670 C   0  0  0  0  0  2  0  0  0  0  0  0
  160.3650  202.6460  152.3080 O   0  0  0  0  0  0  0  0  0  0  0  0
  160.4090  202.8190  150.9130 C   0  0  0  0  0  2  0  0  0  0  0  0
  160.5910  203.9590  151.8410 C   0  0  2  0  0  3  0  0  0  0  0  0
  159.9470  208.0950  154.2360 N   0  0  0  0  0  2  0  0  0  0  0  0
  160.1600  208.3920  155.6610 C   0  0  1  0  0  3  0  0  0  0  0  0
  161.6420  208.2700  155.9900 C   0  0  0  0  0  2  0  0  0  0  0  0
  162.0640  209.2960  157.0280 C   0  0  0  0  0  2  0  0  0  0  0  0
  162.8790  210.3800  156.3580 C   0  0  0  0  0  1  0  0  0  0  0  0
  159.6710  209.7910  156.0640 C   0  0  0  0  0  2  0  0  0  0  0  0
  158.9830  210.5070  154.9030 C   0  0  0  0  0  2  0  0  0  0  0  0
  156.6650  210.6350  155.4360 O   0  0  0  0  0  0  0  0  0  0  0  0
  157.8140  212.6110  155.6110 O   0  0  0  0  0  1  0  0  0  0  0  0
  157.7570  211.2520  155.3220 C   0  0  0  0  0  0  0  0  0  0  0  0
  1  4  1  0  0  0  0
  2  3  1  0  0  0  0
  3  8  2  0  0  0  0
  4 12  1  6  0  0  0
  4  7  1  0  0  0  0
  5  8  1  0  0  0  0
  5  7  1  0  0  0  0
  6  2  2  0  0  0  0
  6  9  1  0  0  0  0
  7 36  1  1  0  0  0
  8 11  1  0  0  0  0
  9  1  1  0  0  0  0
  9  5  2  0  0  0  0
 10  2  1  0  0  0  0
 12 13  1  0  0  0  0
 14 15  1  0  0  0  0
 15 30  1  1  0  0  0
 15 17  1  0  0  0  0
 15 13  1  0  0  0  0
 16 20  1  6  0  0  0
 16 14  1  0  0  0  0
 16 19  1  0  0  0  0
 18 17  2  0  0  0  0
 18 31  1  0  0  0  0
 19 18  1  0  0  0  0
 21 23  2  0  0  0  0
 22 20  2  0  0  0  0
 23 20  1  0  0  0  0
 24 21  1  0  0  0  0
 24 22  1  0  0  0  0
 25 24  1  0  0  0  0
 26 25  3  0  0  0  0
 28 22  1  0  0  0  0
 28 27  2  0  0  0  0
 29 30  1  0  0  0  0
 31 32  1  6  0  0  0
 31 34  1  0  0  0  0
 34 33  2  0  0  0  0
 34 35  1  0  0  0  0
 36 38  1  0  0  0  0
 37 38  2  0  0  0  0
 39 38  1  6  0  0  0
 39 47  1  0  0  0  0
 40 41  1  0  0  0  0
 41 39  1  0  0  0  0
 42 40  2  0  0  0  0
 43 40  1  0  0  0  0
 45 46  1  0  0  0  0
 45 44  1  0  0  0  0
 46 43  1  1  0  0  0
 46 44  1  0  0  0  0
 47 48  1  0  0  0  0
 48 49  1  6  0  0  0
 48 52  1  0  0  0  0
 49 50  1  0  0  0  0
 51 50  1  0  0  0  0
 53 56  1  0  0  0  0
 53 52  1  0  0  0  0
 56 54  2  0  0  0  0
 56 55  1  0  0  0  0
M  END
>  <MODEL>
2

>  <REMARK>
 VINA RESULT:      -4.5      2.676      5.753
  Name = 
  22 active torsions:
  status: ('A' for Active; 'I' for Inactive)
    1  A    between atoms: C_1  and  C_15
    2  A    between atoms: C_1  and  C_18
    3  A    between atoms: C_2  and  C_31
    4  A    between atoms: C_2  and  C_47
    5  A    between atoms: C_8  and  C_32
    6  A    between atoms: C_8  and  C_54
    7  A    between atoms: C_11  and  C_14
    8  A    between atoms: C_11  and  N_27
    9  A    between atoms: C_11  and  C_41
   10  A    between atoms: C_12  and  C_36
   11  A    between atoms: C_14  and  C_50
   12  A    between atoms: C_15  and  C_20
   13  A    between atoms: C_16  and  C_22
   14  A    between atoms: C_17  and  C_41
   15  A    between atoms: C_20  and  C_40
   16  A    between atoms: C_21  and  N_27
   17  A    between atoms: C_21  and  N_42
   18  A    between atoms: C_21  and  C_54
   19  A    between atoms: C_23  and  C_46
   20  A    between atoms: C_25  and  N_48
   21  A    between atoms: C_43  and  C_46
   22  A    between atoms: C_50  and  C_52
                            x       y       z     vdW  Elec       q    Type
                         _______ _______ _______ _____ _____    ______ ____

>  <TORSDO>
F 22

$$$$
=
 OpenBabel11072414203D

 56 60  0  0  1  0  0  0  0  0999 V2000
  160.2850  210.6070  151.4680 O   0  0  0  0  0  0  0  0  0  0  0  0
  160.0520  209.4900  154.9930 C   0  0  0  0  0  0  0  0  0  0  0  0
  160.9390  208.4010  154.8980 C   0  0  0  0  0  3  0  0  0  0  0  0
  161.1750  210.0410  150.5060 C   0  0  2  0  0  3  0  0  0  0  0  0
  161.1800  208.8290  152.5380 C   0  0  0  0  0  0  0  0  0  0  0  0
  159.7730  210.2760  153.8630 C   0  0  0  0  0  3  0  0  0  0  0  0
  161.6670  208.7120  151.1230 C   0  0  1  0  0  3  0  0  0  0  0  0
  161.5230  208.0720  153.6640 C   0  0  0  0  0  0  0  0  0  0  0  0
  160.3670  209.9190  152.6540 C   0  0  0  0  0  0  0  0  0  0  0  0
  159.4980  209.8040  156.1880 F   0  0  0  0  0  0  0  0  0  0  0  0
  162.4270  207.0210  153.5810 O   0  0  0  0  0  1  0  0  0  0  0  0
  162.3440  210.9950  150.2910 C   0  0  0  0  0  2  0  0  0  0  0  0
  162.6200  211.2730  148.8060 C   0  0  0  0  0  2  0  0  0  0  0  0
  161.3490  212.2950  146.8740 C   0  0  0  0  0  2  0  0  0  0  0  0
  162.0120  212.5690  148.2330 C   0  0  1  0  0  0  0  0  0  0  0  0
  160.6230  213.5540  146.4110 C   0  0  2  0  0  3  0  0  0  0  0  0
  160.9670  213.0830  149.1910 C   0  0  0  0  0  3  0  0  0  0  0  0
  159.9160  213.8070  148.7730 C   0  0  0  0  0  0  0  0  0  0  0  0
  159.6930  213.9970  147.3980 O   0  0  0  0  0  0  0  0  0  0  0  0
  159.9830  213.3750  145.0710 C   0  0  0  0  0  0  0  0  0  0  0  0
  158.3840  213.2670  143.5390 N   0  0  0  0  0  0  0  0  0  0  0  0
  160.5460  213.0680  143.8370 C   0  0  0  0  0  0  0  0  0  0  0  0
  158.6220  213.5060  144.8430 C   0  0  0  0  0  3  0  0  0  0  0  0
  159.5390  213.0000  142.9470 N   0  0  0  0  0  0  0  0  0  0  0  0
  159.6430  212.6620  141.5890 C   0  0  0  0  0  0  0  0  0  0  0  0
  159.7340  212.3830  140.4170 C   0  0  0  0  0  3  0  0  0  0  0  0
  162.9380  213.6930  143.8320 C   0  0  0  0  0  2  0  0  0  0  0  0
  161.9620  212.8700  143.4710 C   0  0  0  0  0  3  0  0  0  0  0  0
  163.0060  214.4000  146.7460 C   0  0  0  0  0  1  0  0  0  0  0  0
  163.1030  213.6420  148.0630 C   0  0  0  0  0  2  0  0  0  0  0  0
  158.9170  214.3550  149.7580 C   0  0  1  0  0  3  0  0  0  0  0  0
  157.6200  214.3290  149.2330 O   0  0  0  0  0  1  0  0  0  0  0  0
  159.9570  213.6050  151.7870 O   0  0  0  0  0  1  0  0  0  0  0  0
  158.9450  213.5730  151.0350 C   0  0  0  0  0  0  0  0  0  0  0  0
  157.8420  212.8120  151.4010 O   0  0  0  0  0  0  0  0  0  0  0  0
  160.9450  207.6020  150.3470 C   0  0  0  0  0  2  0  0  0  0  0  0
  162.6740  207.7680  148.6370 C   0  0  0  0  0  2  0  0  0  0  0  0
  161.7180  207.0280  149.1970 C   0  0  0  0  0  0  0  0  0  0  0  0
  161.6830  205.5640  148.8600 C   0  0  2  0  0  3  0  0  0  0  0  0
  162.5470  204.6950  146.6470 C   0  0  0  0  0  0  0  0  0  0  0  0
  161.5740  205.4000  147.4180 N   0  0  0  0  0  2  0  0  0  0  0  0
  163.4430  204.0130  147.2130 O   0  0  0  0  0  0  0  0  0  0  0  0
  162.5140  204.8020  145.1580 C   0  0  0  0  0  2  0  0  0  0  0  0
  160.2480  204.9910  144.3770 O   0  0  0  0  0  0  0  0  0  0  0  0
  161.0280  205.4300  143.2940 C   0  0  0  0  0  2  0  0  0  0  0  0
  161.4030  205.7380  144.6930 C   0  0  2  0  0  3  0  0  0  0  0  0
  160.6060  204.8310  149.5380 N   0  0  0  0  0  2  0  0  0  0  0  0
  160.9670  203.4390  149.8520 C   0  0  1  0  0  3  0  0  0  0  0  0
  160.7190  203.1710  151.3300 C   0  0  0  0  0  2  0  0  0  0  0  0
  160.9070  204.4290  152.1590 C   0  0  0  0  0  2  0  0  0  0  0  0
  162.3830  204.7460  152.2600 C   0  0  0  0  0  1  0  0  0  0  0  0
  160.1850  202.4130  149.0180 C   0  0  0  0  0  2  0  0  0  0  0  0
  161.0750  201.2600  148.5570 C   0  0  0  0  0  2  0  0  0  0  0  0
  161.4670  199.9580  146.6030 O   0  0  0  0  0  1  0  0  0  0  0  0
  160.4490  201.9800  146.2370 O   0  0  0  0  0  0  0  0  0  0  0  0
  161.0160  201.0320  147.0820 C   0  0  0  0  0  0  0  0  0  0  0  0
  1  9  1  0  0  0  0
  2 10  1  0  0  0  0
  3  2  1  0  0  0  0
  4 12  1  1  0  0  0
  4  7  1  0  0  0  0
  4  1  1  0  0  0  0
  5  9  2  0  0  0  0
  5  8  1  0  0  0  0
  6  2  2  0  0  0  0
  7 36  1  6  0  0  0
  7  5  1  0  0  0  0
  8  3  2  0  0  0  0
  9  6  1  0  0  0  0
 11  8  1  0  0  0  0
 13 12  1  0  0  0  0
 14 15  1  0  0  0  0
 15 30  1  6  0  0  0
 15 13  1  0  0  0  0
 15 17  1  0  0  0  0
 16 20  1  6  0  0  0
 16 14  1  0  0  0  0
 16 19  1  0  0  0  0
 18 17  2  0  0  0  0
 18 31  1  0  0  0  0
 19 18  1  0  0  0  0
 21 23  2  0  0  0  0
 22 20  2  0  0  0  0
 23 20  1  0  0  0  0
 24 21  1  0  0  0  0
 24 22  1  0  0  0  0
 25 24  1  0  0  0  0
 26 25  3  0  0  0  0
 28 27  2  0  0  0  0
 28 22  1  0  0  0  0
 29 30  1  0  0  0  0
 31 32  1  6  0  0  0
 31 34  1  0  0  0  0
 34 35  2  0  0  0  0
 34 33  1  0  0  0  0
 37 38  2  0  0  0  0
 38 36  1  0  0  0  0
 39 41  1  6  0  0  0
 39 38  1  0  0  0  0
 39 47  1  0  0  0  0
 40 42  2  0  0  0  0
 40 41  1  0  0  0  0
 43 40  1  0  0  0  0
 44 46  1  0  0  0  0
 45 44  1  0  0  0  0
 45 46  1  0  0  0  0
 46 43  1  1  0  0  0
 47 48  1  0  0  0  0
 48 52  1  6  0  0  0
 48 49  1  0  0  0  0
 49 50  1  0  0  0  0
 50 51  1  0  0  0  0
 53 52  1  0  0  0  0
 54 56  1  0  0  0  0
 55 56  2  0  0  0  0
 56 53  1  0  0  0  0
M  END
>  <MODEL>
3

>  <REMARK>
 VINA RESULT:      -4.4      1.844      2.272
  Name = 
  22 active torsions:
  status: ('A' for Active; 'I' for Inactive)
    1  A    between atoms: C_1  and  C_15
    2  A    between atoms: C_1  and  C_18
    3  A    between atoms: C_2  and  C_31
    4  A    between atoms: C_2  and  C_47
    5  A    between atoms: C_8  and  C_32
    6  A    between atoms: C_8  and  C_54
    7  A    between atoms: C_11  and  C_14
    8  A    between atoms: C_11  and  N_27
    9  A    between atoms: C_11  and  C_41
   10  A    between atoms: C_12  and  C_36
   11  A    between atoms: C_14  and  C_50
   12  A    between atoms: C_15  and  C_20
   13  A    between atoms: C_16  and  C_22
   14  A    between atoms: C_17  and  C_41
   15  A    between atoms: C_20  and  C_40
   16  A    between atoms: C_21  and  N_27
   17  A    between atoms: C_21  and  N_42
   18  A    between atoms: C_21  and  C_54
   19  A    between atoms: C_23  and  C_46
   20  A    between atoms: C_25  and  N_48
   21  A    between atoms: C_43  and  C_46
   22  A    between atoms: C_50  and  C_52
                            x       y       z     vdW  Elec       q    Type
                         _______ _______ _______ _____ _____    ______ ____

>  <TORSDO>
F 22

$$$$
=
 OpenBabel11072414203D

 56 60  0  0  1  0  0  0  0  0999 V2000
  160.3640  210.3810  151.5540 O   0  0  0  0  0  0  0  0  0  0  0  0
  160.8040  208.5290  154.7330 C   0  0  0  0  0  0  0  0  0  0  0  0
  161.6410  207.5120  154.2360 C   0  0  0  0  0  3  0  0  0  0  0  0
  161.0420  210.0600  150.3400 C   0  0  2  0  0  3  0  0  0  0  0  0
  161.4250  208.4410  152.0230 C   0  0  0  0  0  0  0  0  0  0  0  0
  160.3220  209.5300  153.8740 C   0  0  0  0  0  3  0  0  0  0  0  0
  161.6270  208.6440  150.5490 C   0  0  1  0  0  3  0  0  0  0  0  0
  161.9690  207.4710  152.8710 C   0  0  0  0  0  0  0  0  0  0  0  0
  160.6660  209.4570  152.5250 C   0  0  0  0  0  0  0  0  0  0  0  0
  160.4980  208.5640  156.0510 F   0  0  0  0  0  0  0  0  0  0  0  0
  162.8260  206.4890  152.3920 O   0  0  0  0  0  1  0  0  0  0  0  0
  162.1600  211.0710  150.1150 C   0  0  0  0  0  2  0  0  0  0  0  0
  162.5300  211.2280  148.6320 C   0  0  0  0  0  2  0  0  0  0  0  0
  162.4630  212.5280  146.4650 C   0  0  0  0  0  2  0  0  0  0  0  0
  162.0290  212.5100  147.9380 C   0  0  1  0  0  0  0  0  0  0  0  0
  161.8190  213.7240  145.7700 C   0  0  2  0  0  3  0  0  0  0  0  0
  160.5210  212.5420  148.0030 C   0  0  0  0  0  3  0  0  0  0  0  0
  159.7840  213.1650  147.0700 C   0  0  0  0  0  0  0  0  0  0  0  0
  160.4020  213.6990  145.9240 O   0  0  0  0  0  0  0  0  0  0  0  0
  162.2300  213.8300  144.3360 C   0  0  0  0  0  0  0  0  0  0  0  0
  163.4510  214.3790  142.5670 N   0  0  0  0  0  0  0  0  0  0  0  0
  161.6050  213.3690  143.1820 C   0  0  0  0  0  0  0  0  0  0  0  0
  163.3960  214.4490  143.9120 C   0  0  0  0  0  3  0  0  0  0  0  0
  162.3730  213.7370  142.1400 N   0  0  0  0  0  0  0  0  0  0  0  0
  162.0960  213.5280  140.7800 C   0  0  0  0  0  0  0  0  0  0  0  0
  161.8650  213.3570  139.6070 C   0  0  0  0  0  3  0  0  0  0  0  0
  159.3730  212.9310  142.2140 C   0  0  0  0  0  2  0  0  0  0  0  0
  160.3600  212.5910  143.0320 C   0  0  0  0  0  3  0  0  0  0  0  0
  164.0500  214.0270  148.3420 C   0  0  0  0  0  1  0  0  0  0  0  0
  162.5830  213.7560  148.6520 C   0  0  0  0  0  2  0  0  0  0  0  0
  158.2840  213.2280  147.1880 C   0  0  1  0  0  3  0  0  0  0  0  0
  157.6910  212.0310  146.7680 O   0  0  0  0  0  1  0  0  0  0  0  0
  158.4160  214.4400  149.2540 O   0  0  0  0  0  1  0  0  0  0  0  0
  157.8730  213.5100  148.6000 C   0  0  0  0  0  0  0  0  0  0  0  0
  156.8760  212.7460  149.1940 O   0  0  0  0  0  0  0  0  0  0  0  0
  160.7530  207.7060  149.7060 C   0  0  0  0  0  2  0  0  0  0  0  0
  162.3930  207.6710  147.9040 C   0  0  0  0  0  2  0  0  0  0  0  0
  161.4700  207.0020  148.5930 C   0  0  0  0  0  0  0  0  0  0  0  0
  161.4260  205.5090  148.4300 C   0  0  2  0  0  3  0  0  0  0  0  0
  160.7130  203.9570  150.2950 C   0  0  0  0  0  0  0  0  0  0  0  0
  161.6440  204.8720  149.7210 N   0  0  0  0  0  2  0  0  0  0  0  0
  159.7510  203.5070  149.6160 O   0  0  0  0  0  0  0  0  0  0  0  0
  160.8680  203.5610  151.7280 C   0  0  0  0  0  2  0  0  0  0  0  0
  161.8910  201.6830  150.6300 O   0  0  0  0  0  0  0  0  0  0  0  0
  161.0210  201.1050  151.5700 C   0  0  0  0  0  2  0  0  0  0  0  0
  161.7760  202.3430  151.8720 C   0  0  2  0  0  3  0  0  0  0  0  0
  162.3850  204.9970  147.4430 N   0  0  0  0  0  2  0  0  0  0  0  0
  161.7380  204.4800  146.2260 C   0  0  1  0  0  3  0  0  0  0  0  0
  162.2480  205.2470  145.0140 C   0  0  0  0  0  2  0  0  0  0  0  0
  161.1060  205.8990  144.2530 C   0  0  0  0  0  2  0  0  0  0  0  0
  159.9620  206.1720  145.2040 C   0  0  0  0  0  1  0  0  0  0  0  0
  161.9810  202.9790  146.0080 C   0  0  0  0  0  2  0  0  0  0  0  0
  160.8110  202.1360  146.5110 C   0  0  0  0  0  2  0  0  0  0  0  0
  159.4490  201.6670  144.6150 O   0  0  0  0  0  0  0  0  0  0  0  0
  160.6560  199.8870  145.4100 O   0  0  0  0  0  1  0  0  0  0  0  0
  160.2620  201.2190  145.4660 C   0  0  0  0  0  0  0  0  0  0  0  0
  1  9  1  0  0  0  0
  2 10  1  0  0  0  0
  3  2  1  0  0  0  0
  4 12  1  1  0  0  0
  4  7  1  0  0  0  0
  4  1  1  0  0  0  0
  5  9  2  0  0  0  0
  5  8  1  0  0  0  0
  6  2  2  0  0  0  0
  7 36  1  6  0  0  0
  7  5  1  0  0  0  0
  8  3  2  0  0  0  0
  9  6  1  0  0  0  0
 11  8  1  0  0  0  0
 13 12  1  0  0  0  0
 14 15  1  0  0  0  0
 15 17  1  0  0  0  0
 15 13  1  1  0  0  0
 15 30  1  0  0  0  0
 16 20  1  6  0  0  0
 16 19  1  0  0  0  0
 16 14  1  0  0  0  0
 18 31  1  0  0  0  0
 18 17  2  0  0  0  0
 19 18  1  0  0  0  0
 21 23  2  0  0  0  0
 22 20  2  0  0  0  0
 23 20  1  0  0  0  0
 24 21  1  0  0  0  0
 24 22  1  0  0  0  0
 25 24  1  0  0  0  0
 26 25  3  0  0  0  0
 27 28  2  0  0  0  0
 28 22  1  0  0  0  0
 29 30  1  0  0  0  0
 31 32  1  1  0  0  0
 31 34  1  0  0  0  0
 34 35  2  0  0  0  0
 34 33  1  0  0  0  0
 37 38  2  0  0  0  0
 38 36  1  0  0  0  0
 39 47  1  6  0  0  0
 39 38  1  0  0  0  0
 39 41  1  0  0  0  0
 40 43  1  0  0  0  0
 41 40  1  0  0  0  0
 42 40  2  0  0  0  0
 44 45  1  0  0  0  0
 44 46  1  0  0  0  0
 45 46  1  0  0  0  0
 46 43  1  6  0  0  0
 48 49  1  6  0  0  0
 48 47  1  0  0  0  0
 50 49  1  0  0  0  0
 50 51  1  0  0  0  0
 52 48  1  0  0  0  0
 52 53  1  0  0  0  0
 54 56  2  0  0  0  0
 55 56  1  0  0  0  0
 56 53  1  0  0  0  0
M  END
>  <MODEL>
4

>  <REMARK>
 VINA RESULT:      -3.6      1.975      3.970
  Name = 
  22 active torsions:
  status: ('A' for Active; 'I' for Inactive)
    1  A    between atoms: C_1  and  C_15
    2  A    between atoms: C_1  and  C_18
    3  A    between atoms: C_2  and  C_31
    4  A    between atoms: C_2  and  C_47
    5  A    between atoms: C_8  and  C_32
    6  A    between atoms: C_8  and  C_54
    7  A    between atoms: C_11  and  C_14
    8  A    between atoms: C_11  and  N_27
    9  A    between atoms: C_11  and  C_41
   10  A    between atoms: C_12  and  C_36
   11  A    between atoms: C_14  and  C_50
   12  A    between atoms: C_15  and  C_20
   13  A    between atoms: C_16  and  C_22
   14  A    between atoms: C_17  and  C_41
   15  A    between atoms: C_20  and  C_40
   16  A    between atoms: C_21  and  N_27
   17  A    between atoms: C_21  and  N_42
   18  A    between atoms: C_21  and  C_54
   19  A    between atoms: C_23  and  C_46
   20  A    between atoms: C_25  and  N_48
   21  A    between atoms: C_43  and  C_46
   22  A    between atoms: C_50  and  C_52
                            x       y       z     vdW  Elec       q    Type
                         _______ _______ _______ _____ _____    ______ ____

>  <TORSDO>
F 22

$$$$
=
 OpenBabel11072414203D

 56 60  0  0  1  0  0  0  0  0999 V2000
  162.9400  208.6720  147.6450 O   0  0  0  0  0  0  0  0  0  0  0  0
  161.3820  205.5220  146.4710 C   0  0  0  0  0  0  0  0  0  0  0  0
  160.4530  205.3770  147.5190 C   0  0  0  0  0  3  0  0  0  0  0  0
  162.4860  209.4180  148.7740 C   0  0  2  0  0  3  0  0  0  0  0  0
  161.3650  207.3440  148.5740 C   0  0  0  0  0  0  0  0  0  0  0  0
  162.2670  206.6120  146.4570 C   0  0  0  0  0  3  0  0  0  0  0  0
  161.5450  208.4680  149.5510 C   0  0  1  0  0  3  0  0  0  0  0  0
  160.4300  206.3020  148.5760 C   0  0  0  0  0  0  0  0  0  0  0  0
  162.2190  207.5090  147.5230 C   0  0  0  0  0  0  0  0  0  0  0  0
  161.3930  204.6290  145.4540 F   0  0  0  0  0  0  0  0  0  0  0  0
  159.4870  206.1790  149.5870 O   0  0  0  0  0  1  0  0  0  0  0  0
  161.7230  210.6430  148.2850 C   0  0  0  0  0  2  0  0  0  0  0  0
  162.0930  211.9200  149.0540 C   0  0  0  0  0  2  0  0  0  0  0  0
  160.6140  213.0180  147.3210 C   0  0  0  0  0  2  0  0  0  0  0  0
  161.2960  213.1890  148.6870 C   0  0  1  0  0  0  0  0  0  0  0  0
  159.7100  214.2190  147.0620 C   0  0  2  0  0  3  0  0  0  0  0  0
  160.2360  213.4190  149.7360 C   0  0  0  0  0  3  0  0  0  0  0  0
  159.0830  214.0450  149.4540 C   0  0  0  0  0  0  0  0  0  0  0  0
  158.7750  214.3910  148.1260 O   0  0  0  0  0  0  0  0  0  0  0  0
  159.0400  214.1420  145.7270 C   0  0  0  0  0  0  0  0  0  0  0  0
  157.4090  213.9390  144.2390 N   0  0  0  0  0  0  0  0  0  0  0  0
  159.5730  214.2110  144.4450 C   0  0  0  0  0  0  0  0  0  0  0  0
  157.6730  213.9840  145.5600 C   0  0  0  0  0  3  0  0  0  0  0  0
  158.5520  214.0700  143.5810 N   0  0  0  0  0  0  0  0  0  0  0  0
  158.6380  214.0220  142.1810 C   0  0  0  0  0  0  0  0  0  0  0  0
  158.7120  213.9700  140.9770 C   0  0  0  0  0  3  0  0  0  0  0  0
  161.8810  213.4670  143.9610 C   0  0  0  0  0  2  0  0  0  0  0  0
  160.9690  214.4290  144.0160 C   0  0  0  0  0  3  0  0  0  0  0  0
  163.1800  214.4070  147.4550 C   0  0  0  0  0  1  0  0  0  0  0  0
  162.2290  214.4120  148.6450 C   0  0  0  0  0  2  0  0  0  0  0  0
  158.0660  214.3110  150.5330 C   0  0  1  0  0  3  0  0  0  0  0  0
  156.7610  214.1860  150.0410 O   0  0  0  0  0  1  0  0  0  0  0  0
  158.6310  212.1830  151.4860 O   0  0  0  0  0  0  0  0  0  0  0  0
  158.2500  213.3680  151.6810 C   0  0  0  0  0  0  0  0  0  0  0  0
  158.0070  213.8060  152.9780 O   0  0  0  0  0  1  0  0  0  0  0  0
  162.3280  208.0370  150.7990 C   0  0  0  0  0  2  0  0  0  0  0  0
  160.4520  208.5920  152.2530 C   0  0  0  0  0  2  0  0  0  0  0  0
  161.4910  207.7910  152.0190 C   0  0  0  0  0  0  0  0  0  0  0  0
  161.5750  206.5120  152.8020 C   0  0  2  0  0  3  0  0  0  0  0  0
  160.9590  206.9490  155.2160 C   0  0  0  0  0  0  0  0  0  0  0  0
  161.9320  206.8100  154.1820 N   0  0  0  0  0  2  0  0  0  0  0  0
  159.7580  206.6240  155.0170 O   0  0  0  0  0  0  0  0  0  0  0  0
  161.3720  207.5210  156.5330 C   0  0  0  0  0  2  0  0  0  0  0  0
  160.4600  209.6300  155.8260 O   0  0  0  0  0  0  0  0  0  0  0  0
  161.3310  209.9620  156.8780 C   0  0  0  0  0  2  0  0  0  0  0  0
  160.5150  208.7260  156.9090 C   0  0  2  0  0  3  0  0  0  0  0  0
  162.5130  205.5360  152.2340 N   0  0  0  0  0  2  0  0  0  0  0  0
  161.8560  204.2940  151.7970 C   0  0  1  0  0  3  0  0  0  0  0  0
  160.3780  204.3460  152.1570 C   0  0  0  0  0  2  0  0  0  0  0  0
  160.0200  203.2820  153.1800 C   0  0  0  0  0  2  0  0  0  0  0  0
  160.0240  201.9240  152.5110 C   0  0  0  0  0  1  0  0  0  0  0  0
  161.9960  204.0380  150.2890 C   0  0  0  0  0  2  0  0  0  0  0  0
  160.7760  203.3170  149.7200 C   0  0  0  0  0  2  0  0  0  0  0  0
  161.4360  201.0290  149.7720 O   0  0  0  0  0  1  0  0  0  0  0  0
  161.0690  201.8890  147.6780 O   0  0  0  0  0  0  0  0  0  0  0  0
  161.1190  202.0200  149.0620 C   0  0  0  0  0  0  0  0  0  0  0  0
  1  4  1  0  0  0  0
  2  3  1  0  0  0  0
  3  8  2  0  0  0  0
  4 12  1  6  0  0  0
  4  7  1  0  0  0  0
  5  8  1  0  0  0  0
  5  7  1  0  0  0  0
  6  2  2  0  0  0  0
  6  9  1  0  0  0  0
  7 36  1  1  0  0  0
  8 11  1  0  0  0  0
  9  1  1  0  0  0  0
  9  5  2  0  0  0  0
 10  2  1  0  0  0  0
 12 13  1  0  0  0  0
 14 15  1  0  0  0  0
 15 30  1  6  0  0  0
 15 13  1  0  0  0  0
 15 17  1  0  0  0  0
 16 20  1  6  0  0  0
 16 14  1  0  0  0  0
 16 19  1  0  0  0  0
 18 17  2  0  0  0  0
 18 31  1  0  0  0  0
 19 18  1  0  0  0  0
 21 23  2  0  0  0  0
 22 20  2  0  0  0  0
 23 20  1  0  0  0  0
 24 21  1  0  0  0  0
 24 22  1  0  0  0  0
 25 24  1  0  0  0  0
 26 25  3  0  0  0  0
 27 28  2  0  0  0  0
 28 22  1  0  0  0  0
 29 30  1  0  0  0  0
 31 32  1  6  0  0  0
 31 34  1  0  0  0  0
 33 34  2  0  0  0  0
 34 35  1  0  0  0  0
 36 38  1  0  0  0  0
 38 37  2  0  0  0  0
 39 38  1  6  0  0  0
 39 41  1  0  0  0  0
 40 43  1  0  0  0  0
 41 40  1  0  0  0  0
 42 40  2  0  0  0  0
 44 45  1  0  0  0  0
 44 46  1  0  0  0  0
 45 46  1  0  0  0  0
 46 43  1  6  0  0  0
 47 39  1  0  0  0  0
 48 52  1  6  0  0  0
 48 49  1  0  0  0  0
 48 47  1  0  0  0  0
 49 50  1  0  0  0  0
 51 50  1  0  0  0  0
 53 52  1  0  0  0  0
 55 56  2  0  0  0  0
 56 53  1  0  0  0  0
 56 54  1  0  0  0  0
M  END
>  <MODEL>
5

>  <REMARK>
 VINA RESULT:      -2.2      2.749      5.601
  Name = 
  22 active torsions:
  status: ('A' for Active; 'I' for Inactive)
    1  A    between atoms: C_1  and  C_15
    2  A    between atoms: C_1  and  C_18
    3  A    between atoms: C_2  and  C_31
    4  A    between atoms: C_2  and  C_47
    5  A    between atoms: C_8  and  C_32
    6  A    between atoms: C_8  and  C_54
    7  A    between atoms: C_11  and  C_14
    8  A    between atoms: C_11  and  N_27
    9  A    between atoms: C_11  and  C_41
   10  A    between atoms: C_12  and  C_36
   11  A    between atoms: C_14  and  C_50
   12  A    between atoms: C_15  and  C_20
   13  A    between atoms: C_16  and  C_22
   14  A    between atoms: C_17  and  C_41
   15  A    between atoms: C_20  and  C_40
   16  A    between atoms: C_21  and  N_27
   17  A    between atoms: C_21  and  N_42
   18  A    between atoms: C_21  and  C_54
   19  A    between atoms: C_23  and  C_46
   20  A    between atoms: C_25  and  N_48
   21  A    between atoms: C_43  and  C_46
   22  A    between atoms: C_50  and  C_52
                            x       y       z     vdW  Elec       q    Type
                         _______ _______ _______ _____ _____    ______ ____

>  <TORSDO>
F 22

$$$$
