=
 OpenBabel11072413383D

 59 63  0  0  1  0  0  0  0  0999 V2000
  156.4690  213.1600  151.9900 C   0  0  0  0  0  2  0  0  0  0  0  0
  160.0410  212.8190  151.0010 N   0  0  0  0  0  0  0  0  0  0  0  0
  156.0800  213.5110  154.4200 C   0  0  0  0  0  0  0  0  0  0  0  0
  157.9330  213.5620  151.9830 C   0  0  1  0  0  3  0  0  0  0  0  0
  157.3550  213.8230  154.9060 O   0  0  0  0  0  0  0  0  0  0  0  0
  159.9240  214.4530  155.7440 O   0  0  0  0  0  0  0  0  0  0  0  0
  155.2580  212.8550  155.1160 O   0  0  0  0  0  0  0  0  0  0  0  0
  160.2630  211.2900  156.0150 O   0  0  0  0  0  0  0  0  0  0  0  0
  157.8140  213.4050  156.1850 C   0  0  1  0  0  3  0  0  0  0  0  0
  160.0720  211.5190  153.1210 C   0  0  0  0  0  2  0  0  0  0  0  0
  161.4100  211.5810  155.2640 C   0  0  0  0  0  2  0  0  0  0  0  0
  158.6030  212.9820  150.7460 C   0  0  1  0  0  3  0  0  0  0  0  0
  158.2130  214.4530  150.7960 C   0  0  0  0  0  2  0  0  0  0  0  0
  161.3060  210.9980  153.8530 C   0  0  1  0  0  3  0  0  0  0  0  0
  160.0250  212.3910  156.7480 O   0  0  0  0  0  0  0  0  0  0  0  0
  155.7000  213.9460  153.0430 C   0  0  0  0  0  2  0  0  0  0  0  0
  160.3080  211.5010  151.6170 C   0  0  1  0  0  3  0  0  0  0  0  0
  159.3040  213.4560  156.2140 C   0  0  0  0  0  0  0  0  0  0  0  0
  157.2520  214.3240  157.2600 C   0  0  0  0  0  1  0  0  0  0  0  0
  159.5890  210.3370  150.9370 C   0  0  0  0  0  1  0  0  0  0  0  0
  161.5430  208.7580  155.0340 O   0  0  0  0  0  0  0  0  0  0  0  0
  161.2430  208.8280  152.7540 C   0  0  0  0  0  0  0  0  0  0  0  0
  161.1310  207.9190  151.8360 C   0  0  0  0  0  3  0  0  0  0  0  0
  162.4120  205.7270  153.7640 O   0  0  0  0  0  0  0  0  0  0  0  0
  160.5540  207.8640  155.5510 C   0  0  1  0  0  3  0  0  0  0  0  0
  160.7030  206.5670  152.3230 C   0  0  2  0  0  3  0  0  0  0  0  0
  160.4530  206.4610  154.9100 C   0  0  2  0  0  3  0  0  0  0  0  0
  161.2750  206.6810  156.1660 C   0  0  0  0  0  2  0  0  0  0  0  0
  161.3570  209.4970  153.8560 C   0  0  0  0  0  0  0  0  0  0  0  0
  161.2910  206.2140  153.6780 C   0  0  0  0  0  0  0  0  0  0  0  0
  161.8820  202.0010  151.0970 O   0  0  0  0  0  1  0  0  0  0  0  0
  160.8520  205.4700  151.2990 C   0  0  0  0  0  0  0  0  0  0  0  0
  161.2910  203.4520  149.3310 C   0  0  0  0  0  3  0  0  0  0  0  0
  161.3320  204.7520  149.0020 C   0  0  0  0  0  0  0  0  0  0  0  0
  160.7320  203.7380  153.0160 C   0  0  0  0  0  2  0  0  0  0  0  0
  160.8790  204.0480  151.7260 C   0  0  0  0  0  0  0  0  0  0  0  0
  160.9130  202.9310  150.7030 C   0  0  2  0  0  0  0  0  0  0  0  0
  161.0660  205.7850  150.0180 C   0  0  0  0  0  3  0  0  0  0  0  0
  162.0050  206.3510  147.3910 O   0  0  0  0  0  0  0  0  0  0  0  0
  161.7270  205.1400  147.6380 C   0  0  0  0  0  0  0  0  0  0  0  0
  161.7910  204.1490  146.5970 N   0  0  0  0  0  2  0  0  0  0  0  0
  163.5540  204.4880  144.9160 C   0  0  0  0  0  1  0  0  0  0  0  0
  162.0530  204.4370  145.1890 C   0  0  0  0  0  3  0  0  0  0  0  0
  161.4100  205.7620  144.7810 C   0  0  0  0  0  1  0  0  0  0  0  0
  159.5510  201.4200  149.6010 C   0  0  0  0  0  1  0  0  0  0  0  0
  159.6270  202.3360  150.6670 O   0  0  0  0  0  0  0  0  0  0  0  0
  160.7860  213.0050  149.7340 C   0  0  2  0  0  3  0  0  0  0  0  0
  159.9670  212.5950  148.4890 C   0  0  0  0  0  2  0  0  0  0  0  0
  159.1730  213.7390  147.8810 C   0  0  0  0  0  2  0  0  0  0  0  0
  158.1930  213.2420  146.8380 C   0  0  0  0  0  2  0  0  0  0  0  0
  158.3270  214.0990  145.5960 C   0  0  0  0  0  1  0  0  0  0  0  0
  162.0760  212.1780  149.7840 C   0  0  0  0  0  2  0  0  0  0  0  0
  162.5480  211.7820  148.3890 C   0  0  1  0  0  3  0  0  0  0  0  0
  161.7960  210.7100  147.9010 O   0  0  0  0  0  1  0  0  0  0  0  0
  162.5070  212.9660  147.4280 C   0  0  0  0  0  2  0  0  0  0  0  0
  163.4060  212.7670  146.2160 C   0  0  0  0  0  2  0  0  0  0  0  0
  161.3950  213.0500  144.9810 O   0  0  0  0  0  1  0  0  0  0  0  0
  162.6510  213.1150  144.9820 C   0  0  0  0  0  0  0  0  0  0  0  0
  163.3350  213.3820  143.8040 O   0  0  0  0  0  0  0  0  0  0  0  0
  1 16  1  0  0  0  0
  2 17  1  0  0  0  0
  3  5  1  0  0  0  0
  3  7  2  0  0  0  0
  4 13  1  6  0  0  0
  4  1  1  0  0  0  0
  5  9  1  0  0  0  0
  6 18  2  0  0  0  0
  8 15  1  0  0  0  0
  9 18  1  0  0  0  0
  9 19  1  1  0  0  0
 10 14  1  0  0  0  0
 11  8  1  0  0  0  0
 12 13  1  6  0  0  0
 12  2  1  0  0  0  0
 12  4  1  0  0  0  0
 14 29  1  1  0  0  0
 14 11  1  0  0  0  0
 16  3  1  0  0  0  0
 17 20  1  6  0  0  0
 17 10  1  0  0  0  0
 18 15  1  0  0  0  0
 21 25  1  0  0  0  0
 22 29  2  0  0  0  0
 23 26  1  0  0  0  0
 23 22  2  0  0  0  0
 25 28  1  1  0  0  0
 26 32  1  6  0  0  0
 26 30  1  0  0  0  0
 27 25  1  0  0  0  0
 27 28  1  1  0  0  0
 29 21  1  0  0  0  0
 30 24  2  0  0  0  0
 30 27  1  0  0  0  0
 32 36  1  0  0  0  0
 33 37  1  0  0  0  0
 34 33  2  0  0  0  0
 34 38  1  0  0  0  0
 36 35  2  0  0  0  0
 37 31  1  1  0  0  0
 37 36  1  0  0  0  0
 38 32  2  0  0  0  0
 39 40  2  0  0  0  0
 40 34  1  0  0  0  0
 41 40  1  0  0  0  0
 42 43  1  0  0  0  0
 43 41  1  0  0  0  0
 44 43  1  0  0  0  0
 45 46  1  0  0  0  0
 46 37  1  0  0  0  0
 47 48  1  6  0  0  0
 47 52  1  0  0  0  0
 47  2  1  0  0  0  0
 49 48  1  0  0  0  0
 50 49  1  0  0  0  0
 51 50  1  0  0  0  0
 53 54  1  6  0  0  0
 53 52  1  0  0  0  0
 55 53  1  0  0  0  0
 56 55  1  0  0  0  0
 57 58  1  0  0  0  0
 58 56  1  0  0  0  0
 59 58  2  0  0  0  0
M  END
>  <MODEL>
1

>  <REMARK>
 VINA RESULT:      -2.2      0.000      0.000
  Name = 
  14 active torsions:
  status: ('A' for Active; 'I' for Inactive)
    1  A    between atoms: C_2  and  C_32
    2  A    between atoms: N_10  and  C_27
    3  A    between atoms: C_14  and  C_30
    4  A    between atoms: C_15  and  C_20
    5  A    between atoms: C_15  and  C_39
    6  A    between atoms: C_17  and  C_50
    7  A    between atoms: C_18  and  N_42
    8  A    between atoms: C_19  and  C_38
    9  A    between atoms: C_19  and  C_50
   10  A    between atoms: C_27  and  C_39
   11  A    between atoms: C_27  and  C_58
   12  A    between atoms: C_36  and  C_44
   13  A    between atoms: O_37  and  C_52
   14  A    between atoms: C_38  and  C_58
                            x       y       z     vdW  Elec       q    Type
                         _______ _______ _______ _____ _____    ______ ____

>  <TORSDO>
F 14

$$$$
=
 OpenBabel11072413383D

 59 63  0  0  1  0  0  0  0  0999 V2000
  156.7920  213.3270  151.9910 C   0  0  0  0  0  2  0  0  0  0  0  0
  160.3050  212.6650  150.9540 N   0  0  0  0  0  0  0  0  0  0  0  0
  156.4710  213.7270  154.4230 C   0  0  0  0  0  0  0  0  0  0  0  0
  158.2860  213.5980  151.9600 C   0  0  1  0  0  3  0  0  0  0  0  0
  157.7760  213.9280  154.8890 O   0  0  0  0  0  0  0  0  0  0  0  0
  160.4030  214.3340  155.6860 O   0  0  0  0  0  0  0  0  0  0  0  0
  155.6050  213.1510  155.1360 O   0  0  0  0  0  0  0  0  0  0  0  0
  160.4650  211.1550  155.9770 O   0  0  0  0  0  0  0  0  0  0  0  0
  158.2160  213.4800  156.1650 C   0  0  1  0  0  3  0  0  0  0  0  0
  160.2520  211.3810  153.0840 C   0  0  0  0  0  2  0  0  0  0  0  0
  161.6210  211.3390  155.2070 C   0  0  0  0  0  2  0  0  0  0  0  0
  158.8830  212.9530  150.7190 C   0  0  1  0  0  3  0  0  0  0  0  0
  158.6250  214.4530  150.7620 C   0  0  0  0  0  2  0  0  0  0  0  0
  161.4460  210.7570  153.8030 C   0  0  1  0  0  3  0  0  0  0  0  0
  160.3360  212.2770  156.7040 O   0  0  0  0  0  0  0  0  0  0  0  0
  156.1120  214.1850  153.0480 C   0  0  0  0  0  2  0  0  0  0  0  0
  160.4630  211.3320  151.5770 C   0  0  1  0  0  3  0  0  0  0  0  0
  159.7040  213.3990  156.1720 C   0  0  0  0  0  0  0  0  0  0  0  0
  157.7530  214.4520  157.2400 C   0  0  0  0  0  1  0  0  0  0  0  0
  159.6340  210.2320  150.9170 C   0  0  0  0  0  1  0  0  0  0  0  0
  161.3250  208.5230  155.0110 O   0  0  0  0  0  0  0  0  0  0  0  0
  161.3390  208.5860  152.7110 C   0  0  0  0  0  0  0  0  0  0  0  0
  161.2700  207.6760  151.7890 C   0  0  0  0  0  3  0  0  0  0  0  0
  162.0860  205.4100  153.8770 O   0  0  0  0  0  0  0  0  0  0  0  0
  160.2010  207.7250  155.3940 C   0  0  1  0  0  3  0  0  0  0  0  0
  160.6640  206.3730  152.2180 C   0  0  2  0  0  3  0  0  0  0  0  0
  160.0630  206.3280  154.7480 C   0  0  2  0  0  3  0  0  0  0  0  0
  160.7270  206.4930  156.1030 C   0  0  0  0  0  2  0  0  0  0  0  0
  161.3640  209.2580  153.8170 C   0  0  0  0  0  0  0  0  0  0  0  0
  161.0330  205.9910  153.6410 C   0  0  0  0  0  0  0  0  0  0  0  0
  162.0650  201.8400  151.1110 O   0  0  0  0  0  1  0  0  0  0  0  0
  160.8510  205.2530  151.2270 C   0  0  0  0  0  0  0  0  0  0  0  0
  161.3580  203.1980  149.3140 C   0  0  0  0  0  3  0  0  0  0  0  0
  161.3200  204.4860  148.9430 C   0  0  0  0  0  0  0  0  0  0  0  0
  160.8630  203.5750  153.0000 C   0  0  0  0  0  2  0  0  0  0  0  0
  160.9650  203.8490  151.6980 C   0  0  0  0  0  0  0  0  0  0  0  0
  161.0390  202.7030  150.7110 C   0  0  2  0  0  0  0  0  0  0  0  0
  161.0200  205.5370  149.9310 C   0  0  0  0  0  3  0  0  0  0  0  0
  162.1320  206.0020  147.3150 O   0  0  0  0  0  0  0  0  0  0  0  0
  161.6650  204.8500  147.5590 C   0  0  0  0  0  0  0  0  0  0  0  0
  161.4650  203.9030  146.4950 N   0  0  0  0  0  2  0  0  0  0  0  0
  162.1400  205.6260  144.8750 C   0  0  0  0  0  1  0  0  0  0  0  0
  161.6580  204.1930  145.0750 C   0  0  0  0  0  3  0  0  0  0  0  0
  160.3600  203.9720  144.2990 C   0  0  0  0  0  1  0  0  0  0  0  0
  159.9400  200.7150  150.2660 C   0  0  0  0  0  1  0  0  0  0  0  0
  159.7860  202.0380  150.7230 O   0  0  0  0  0  0  0  0  0  0  0  0
  161.0450  212.7750  149.6760 C   0  0  2  0  0  3  0  0  0  0  0  0
  162.4550  212.1450  149.7400 C   0  0  0  0  0  2  0  0  0  0  0  0
  162.9240  211.5690  148.4130 C   0  0  0  0  0  2  0  0  0  0  0  0
  162.0340  210.4290  147.9580 C   0  0  0  0  0  2  0  0  0  0  0  0
  162.1450  209.2980  148.9590 C   0  0  0  0  0  1  0  0  0  0  0  0
  161.1700  214.2540  149.2950 C   0  0  0  0  0  2  0  0  0  0  0  0
  161.1390  214.4530  147.7830 C   0  0  1  0  0  3  0  0  0  0  0  0
  161.9160  213.4850  147.1420 O   0  0  0  0  0  1  0  0  0  0  0  0
  159.7100  214.4530  147.2490 C   0  0  0  0  0  2  0  0  0  0  0  0
  159.1490  213.0480  147.0790 C   0  0  0  0  0  2  0  0  0  0  0  0
  157.1150  212.1300  146.2620 O   0  0  0  0  0  1  0  0  0  0  0  0
  157.9020  213.1110  146.2690 C   0  0  0  0  0  0  0  0  0  0  0  0
  157.6790  214.1900  145.4260 O   0  0  0  0  0  0  0  0  0  0  0  0
  1 16  1  0  0  0  0
  2 17  1  0  0  0  0
  3  5  1  0  0  0  0
  3  7  2  0  0  0  0
  4 13  1  6  0  0  0
  4  1  1  0  0  0  0
  5  9  1  0  0  0  0
  6 18  2  0  0  0  0
  8 15  1  0  0  0  0
  9 18  1  0  0  0  0
  9 19  1  1  0  0  0
 10 14  1  0  0  0  0
 11  8  1  0  0  0  0
 12 13  1  6  0  0  0
 12  2  1  0  0  0  0
 12  4  1  0  0  0  0
 14 29  1  1  0  0  0
 14 11  1  0  0  0  0
 16  3  1  0  0  0  0
 17 20  1  6  0  0  0
 17 10  1  0  0  0  0
 18 15  1  0  0  0  0
 21 25  1  0  0  0  0
 22 29  2  0  0  0  0
 23 26  1  0  0  0  0
 23 22  2  0  0  0  0
 25 28  1  1  0  0  0
 26 32  1  6  0  0  0
 26 30  1  0  0  0  0
 27 25  1  0  0  0  0
 27 28  1  1  0  0  0
 29 21  1  0  0  0  0
 30 24  2  0  0  0  0
 30 27  1  0  0  0  0
 32 36  1  0  0  0  0
 33 37  1  0  0  0  0
 34 33  2  0  0  0  0
 34 38  1  0  0  0  0
 36 35  2  0  0  0  0
 37 46  1  0  0  0  0
 37 31  1  1  0  0  0
 37 36  1  0  0  0  0
 38 32  2  0  0  0  0
 39 40  2  0  0  0  0
 40 34  1  0  0  0  0
 41 40  1  0  0  0  0
 42 43  1  0  0  0  0
 43 41  1  0  0  0  0
 44 43  1  0  0  0  0
 45 46  1  0  0  0  0
 47 52  1  1  0  0  0
 47 48  1  0  0  0  0
 47  2  1  0  0  0  0
 49 48  1  0  0  0  0
 50 49  1  0  0  0  0
 50 51  1  0  0  0  0
 53 54  1  6  0  0  0
 53 52  1  0  0  0  0
 55 53  1  0  0  0  0
 56 55  1  0  0  0  0
 57 58  1  0  0  0  0
 58 56  1  0  0  0  0
 59 58  2  0  0  0  0
M  END
>  <MODEL>
2

>  <REMARK>
 VINA RESULT:      -1.2      1.092      2.045
  Name = 
  14 active torsions:
  status: ('A' for Active; 'I' for Inactive)
    1  A    between atoms: C_2  and  C_32
    2  A    between atoms: N_10  and  C_27
    3  A    between atoms: C_14  and  C_30
    4  A    between atoms: C_15  and  C_20
    5  A    between atoms: C_15  and  C_39
    6  A    between atoms: C_17  and  C_50
    7  A    between atoms: C_18  and  N_42
    8  A    between atoms: C_19  and  C_38
    9  A    between atoms: C_19  and  C_50
   10  A    between atoms: C_27  and  C_39
   11  A    between atoms: C_27  and  C_58
   12  A    between atoms: C_36  and  C_44
   13  A    between atoms: O_37  and  C_52
   14  A    between atoms: C_38  and  C_58
                            x       y       z     vdW  Elec       q    Type
                         _______ _______ _______ _____ _____    ______ ____

>  <TORSDO>
F 14

$$$$
