=
 OpenBabel11072411533D

 32 35  0  0  0  0  0  0  0  0999 V2000
  160.8200  211.7860  155.7450 C   0  0  0  0  0  2  0  0  0  0  0  0
  158.5480  213.1990  153.2610 C   0  0  0  0  0  0  0  0  0  0  0  0
  160.8850  207.3440  152.8740 C   0  0  0  0  0  0  0  0  0  0  0  0
  161.7770  210.6530  155.9500 C   0  0  0  0  0  2  0  0  0  0  0  0
  160.6400  209.6370  153.9170 C   0  0  0  0  0  0  0  0  0  0  0  0
  160.9780  206.9430  155.3200 C   0  0  0  0  0  3  0  0  0  0  0  0
  161.3140  209.4220  155.2220 C   0  0  0  0  0  0  0  0  0  0  0  0
  161.4810  208.2310  155.8190 C   0  0  0  0  0  0  0  0  0  0  0  0
  162.1120  208.1880  157.0600 O   0  0  0  0  0  1  0  0  0  0  0  0
  160.7730  208.6710  152.8120 C   0  0  0  0  0  3  0  0  0  0  0  0
  159.2820  213.0390  154.4470 C   0  0  0  0  0  0  0  0  0  0  0  0
  159.2920  211.0290  152.5010 C   0  0  0  0  0  3  0  0  0  0  0  0
  160.7420  206.6010  154.0910 N   0  0  0  0  0  2  0  0  0  0  0  0
  158.5680  212.2000  152.2890 C   0  0  0  0  0  3  0  0  0  0  0  0
  159.2670  214.0500  155.4070 O   0  0  0  0  0  1  0  0  0  0  0  0
  160.0230  210.8270  153.6860 C   0  0  0  0  0  0  0  0  0  0  0  0
  160.0460  211.8750  154.6520 C   0  0  0  0  0  0  0  0  0  0  0  0
  161.1960  205.1640  149.1880 C   0  0  0  0  0  3  0  0  0  0  0  0
  160.9920  207.2590  150.3790 C   0  0  0  0  0  3  0  0  0  0  0  0
  161.2000  204.4650  150.4040 C   0  0  0  0  0  0  0  0  0  0  0  0
  161.0920  206.5570  149.1760 C   0  0  0  0  0  3  0  0  0  0  0  0
  160.9960  206.5800  151.6070 C   0  0  0  0  0  0  0  0  0  0  0  0
  161.1000  205.1770  151.6040 C   0  0  0  0  0  3  0  0  0  0  0  0
  161.3020  203.0690  150.4550 O   0  0  0  0  0  0  0  0  0  0  0  0
  160.9070  202.1990  149.3960 C   0  0  0  0  0  0  0  0  0  0  0  0
  161.3360  200.9170  149.6820 F   0  0  0  0  0  0  0  0  0  0  0  0
  159.5280  202.1950  149.2750 F   0  0  0  0  0  0  0  0  0  0  0  0
  161.4790  202.6090  148.2060 F   0  0  0  0  0  0  0  0  0  0  0  0
  157.7330  214.4300  153.0220 C   0  0  0  0  0  2  0  0  0  0  0  0
  155.6870  214.3010  151.8060 O   0  0  0  0  0  0  0  0  0  0  0  0
  155.5810  213.5400  153.9980 N   0  0  0  0  0  1  0  0  0  0  0  0
  156.2890  214.0840  152.8890 C   0  0  0  0  0  0  0  0  0  0  0  0
  1  4  1  0  0  0  0
  2 11  1  0  0  0  0
  3 13  1  0  0  0  0
  5  7  2  0  0  0  0
  6  8  2  0  0  0  0
  7  8  1  0  0  0  0
  7  4  1  0  0  0  0
  8  9  1  0  0  0  0
 10  3  2  0  0  0  0
 10  5  1  0  0  0  0
 11 17  2  0  0  0  0
 11 15  1  0  0  0  0
 12 16  2  0  0  0  0
 13  6  1  0  0  0  0
 14 12  1  0  0  0  0
 14  2  2  0  0  0  0
 16  5  1  0  0  0  0
 16 17  1  0  0  0  0
 17  1  1  0  0  0  0
 18 20  1  0  0  0  0
 19 22  2  0  0  0  0
 20 24  1  0  0  0  0
 20 23  2  0  0  0  0
 21 18  2  0  0  0  0
 21 19  1  0  0  0  0
 22  3  1  0  0  0  0
 23 22  1  0  0  0  0
 25 26  1  0  0  0  0
 25 24  1  0  0  0  0
 27 25  1  0  0  0  0
 28 25  1  0  0  0  0
 29  2  1  0  0  0  0
 30 32  2  0  0  0  0
 32 29  1  0  0  0  0
 32 31  1  0  0  0  0
M  END
>  <MODEL>
1

>  <REMARK>
 VINA RESULT:      -8.9      0.000      0.000
  Name = 
  5 active torsions:
  status: ('A' for Active; 'I' for Inactive)
    1  A    between atoms: C_2  and  C_3
    2  A    between atoms: C_2  and  C_32
    3  A    between atoms: C_4  and  C_18
    4  A    between atoms: C_9  and  O_31
    5  A    between atoms: C_15  and  O_31
                            x       y       z     vdW  Elec       q    Type
                         _______ _______ _______ _____ _____    ______ ____

>  <TORSDO>
F 5

$$$$
=
 OpenBabel11072411533D

 32 35  0  0  0  0  0  0  0  0999 V2000
  160.8770  205.2000  150.1450 C   0  0  0  0  0  2  0  0  0  0  0  0
  161.8590  204.4540  146.7100 C   0  0  0  0  0  0  0  0  0  0  0  0
  161.9510  210.2810  149.1430 C   0  0  0  0  0  0  0  0  0  0  0  0
  160.4980  206.3420  151.0350 C   0  0  0  0  0  2  0  0  0  0  0  0
  161.4960  207.7920  149.2030 C   0  0  0  0  0  0  0  0  0  0  0  0
  162.5240  209.5850  151.4530 C   0  0  0  0  0  3  0  0  0  0  0  0
  161.2420  207.5910  150.6510 C   0  0  0  0  0  0  0  0  0  0  0  0
  161.6760  208.3990  151.6320 C   0  0  0  0  0  0  0  0  0  0  0  0
  161.3810  208.0660  152.9520 O   0  0  0  0  0  1  0  0  0  0  0  0
  161.5240  209.1390  148.6050 C   0  0  0  0  0  3  0  0  0  0  0  0
  161.5060  204.2730  148.0560 C   0  0  0  0  0  0  0  0  0  0  0  0
  161.8770  206.8490  147.0290 C   0  0  0  0  0  3  0  0  0  0  0  0
  162.6170  210.3500  150.4100 N   0  0  0  0  0  2  0  0  0  0  0  0
  162.0300  205.7400  146.2010 C   0  0  0  0  0  3  0  0  0  0  0  0
  161.3250  202.9830  148.5530 O   0  0  0  0  0  1  0  0  0  0  0  0
  161.5420  206.7040  148.3880 C   0  0  0  0  0  0  0  0  0  0  0  0
  161.3130  205.3900  148.8910 C   0  0  0  0  0  0  0  0  0  0  0  0
  161.7970  213.8760  146.8000 C   0  0  0  0  0  3  0  0  0  0  0  0
  163.0250  212.3290  148.1950 C   0  0  0  0  0  3  0  0  0  0  0  0
  160.6460  213.0820  146.9210 C   0  0  0  0  0  0  0  0  0  0  0  0
  162.9820  213.5000  147.4350 C   0  0  0  0  0  3  0  0  0  0  0  0
  161.8860  211.5190  148.3280 C   0  0  0  0  0  0  0  0  0  0  0  0
  160.6980  211.9110  147.6840 C   0  0  0  0  0  3  0  0  0  0  0  0
  159.4400  213.4280  146.2990 O   0  0  0  0  0  0  0  0  0  0  0  0
  158.8780  212.7250  145.1930 C   0  0  0  0  0  0  0  0  0  0  0  0
  157.7220  212.0900  145.6010 F   0  0  0  0  0  0  0  0  0  0  0  0
  158.5690  213.6110  144.1750 F   0  0  0  0  0  0  0  0  0  0  0  0
  159.7730  211.7770  144.7300 F   0  0  0  0  0  0  0  0  0  0  0  0
  162.0660  203.2800  145.8060 C   0  0  0  0  0  2  0  0  0  0  0  0
  160.1500  203.7030  144.4530 O   0  0  0  0  0  0  0  0  0  0  0  0
  160.2510  201.5780  145.3840 N   0  0  0  0  0  1  0  0  0  0  0  0
  160.7820  202.8800  145.1640 C   0  0  0  0  0  0  0  0  0  0  0  0
  1  4  1  0  0  0  0
  2 11  1  0  0  0  0
  3 13  1  0  0  0  0
  5  7  2  0  0  0  0
  6  8  2  0  0  0  0
  7  4  1  0  0  0  0
  7  8  1  0  0  0  0
  8  9  1  0  0  0  0
 10  3  2  0  0  0  0
 10  5  1  0  0  0  0
 11 15  1  0  0  0  0
 11 17  2  0  0  0  0
 12 16  2  0  0  0  0
 13  6  1  0  0  0  0
 14  2  2  0  0  0  0
 14 12  1  0  0  0  0
 16 17  1  0  0  0  0
 16  5  1  0  0  0  0
 17  1  1  0  0  0  0
 18 20  2  0  0  0  0
 18 21  1  0  0  0  0
 19 22  1  0  0  0  0
 20 23  1  0  0  0  0
 21 19  2  0  0  0  0
 22  3  1  0  0  0  0
 23 22  2  0  0  0  0
 24 20  1  0  0  0  0
 25 26  1  0  0  0  0
 25 24  1  0  0  0  0
 27 25  1  0  0  0  0
 28 25  1  0  0  0  0
 29  2  1  0  0  0  0
 30 32  2  0  0  0  0
 32 31  1  0  0  0  0
 32 29  1  0  0  0  0
M  END
>  <MODEL>
2

>  <REMARK>
 VINA RESULT:      -8.9      5.411      9.438
  Name = 
  5 active torsions:
  status: ('A' for Active; 'I' for Inactive)
    1  A    between atoms: C_2  and  C_3
    2  A    between atoms: C_2  and  C_32
    3  A    between atoms: C_4  and  C_18
    4  A    between atoms: C_9  and  O_31
    5  A    between atoms: C_15  and  O_31
                            x       y       z     vdW  Elec       q    Type
                         _______ _______ _______ _____ _____    ______ ____

>  <TORSDO>
F 5

$$$$
=
 OpenBabel11072411533D

 32 35  0  0  0  0  0  0  0  0999 V2000
  160.7520  203.3070  148.9460 C   0  0  0  0  0  2  0  0  0  0  0  0
  162.0770  205.5950  146.4290 C   0  0  0  0  0  0  0  0  0  0  0  0
  161.0630  207.2730  152.4330 C   0  0  0  0  0  0  0  0  0  0  0  0
  160.1350  203.2930  150.3100 C   0  0  0  0  0  2  0  0  0  0  0  0
  161.0110  205.6720  150.4730 C   0  0  0  0  0  0  0  0  0  0  0  0
  161.5800  205.0520  153.4100 C   0  0  0  0  0  3  0  0  0  0  0  0
  160.6930  204.3970  151.1630 C   0  0  0  0  0  0  0  0  0  0  0  0
  160.9230  204.1430  152.4610 C   0  0  0  0  0  0  0  0  0  0  0  0
  160.5950  202.8860  152.9650 O   0  0  0  0  0  1  0  0  0  0  0  0
  160.8630  206.9730  151.1500 C   0  0  0  0  0  3  0  0  0  0  0  0
  161.6650  204.4090  147.0560 C   0  0  0  0  0  0  0  0  0  0  0  0
  161.6870  206.8190  148.4760 C   0  0  0  0  0  3  0  0  0  0  0  0
  161.6210  206.3480  153.3760 N   0  0  0  0  0  2  0  0  0  0  0  0
  162.0730  206.7950  147.1380 C   0  0  0  0  0  3  0  0  0  0  0  0
  161.6600  203.2150  146.3350 O   0  0  0  0  0  1  0  0  0  0  0  0
  161.2870  205.6460  149.1410 C   0  0  0  0  0  0  0  0  0  0  0  0
  161.2380  204.4310  148.3980 C   0  0  0  0  0  0  0  0  0  0  0  0
  160.4550  211.3130  153.7530 C   0  0  0  0  0  3  0  0  0  0  0  0
  160.7480  208.9640  154.2460 C   0  0  0  0  0  3  0  0  0  0  0  0
  160.5590  211.0450  152.3790 C   0  0  0  0  0  0  0  0  0  0  0  0
  160.5490  210.2750  154.6820 C   0  0  0  0  0  3  0  0  0  0  0  0
  160.8570  208.6730  152.8770 C   0  0  0  0  0  0  0  0  0  0  0  0
  160.7580  209.7280  151.9520 C   0  0  0  0  0  3  0  0  0  0  0  0
  160.4690  212.0590  151.4180 O   0  0  0  0  0  0  0  0  0  0  0  0
  159.3620  212.9510  151.2960 C   0  0  0  0  0  0  0  0  0  0  0  0
  159.2170  213.3120  149.9710 F   0  0  0  0  0  0  0  0  0  0  0  0
  158.2020  212.3270  151.7210 F   0  0  0  0  0  0  0  0  0  0  0  0
  159.5830  214.0890  152.0510 F   0  0  0  0  0  0  0  0  0  0  0  0
  162.5310  205.5930  145.0050 C   0  0  0  0  0  2  0  0  0  0  0  0
  160.2010  205.7990  144.5460 O   0  0  0  0  0  0  0  0  0  0  0  0
  161.5810  205.8270  142.6780 N   0  0  0  0  0  1  0  0  0  0  0  0
  161.3710  205.7560  144.0840 C   0  0  0  0  0  0  0  0  0  0  0  0
  1  4  1  0  0  0  0
  2 11  2  0  0  0  0
  2 14  1  0  0  0  0
  3 22  1  0  0  0  0
  3 13  1  0  0  0  0
  4  7  1  0  0  0  0
  5 10  1  0  0  0  0
  5  7  2  0  0  0  0
  7  8  1  0  0  0  0
  8  9  1  0  0  0  0
  8  6  2  0  0  0  0
 10  3  2  0  0  0  0
 11 17  1  0  0  0  0
 12 16  1  0  0  0  0
 13  6  1  0  0  0  0
 14 12  2  0  0  0  0
 15 11  1  0  0  0  0
 16  5  1  0  0  0  0
 17  1  1  0  0  0  0
 17 16  2  0  0  0  0
 18 21  1  0  0  0  0
 19 21  2  0  0  0  0
 20 18  2  0  0  0  0
 22 19  1  0  0  0  0
 23 20  1  0  0  0  0
 23 22  2  0  0  0  0
 24 20  1  0  0  0  0
 25 24  1  0  0  0  0
 25 27  1  0  0  0  0
 25 28  1  0  0  0  0
 26 25  1  0  0  0  0
 29  2  1  0  0  0  0
 31 32  1  0  0  0  0
 32 30  2  0  0  0  0
 32 29  1  0  0  0  0
M  END
>  <MODEL>
3

>  <REMARK>
 VINA RESULT:      -8.7      4.648      9.019
  Name = 
  5 active torsions:
  status: ('A' for Active; 'I' for Inactive)
    1  A    between atoms: C_2  and  C_3
    2  A    between atoms: C_2  and  C_32
    3  A    between atoms: C_4  and  C_18
    4  A    between atoms: C_9  and  O_31
    5  A    between atoms: C_15  and  O_31
                            x       y       z     vdW  Elec       q    Type
                         _______ _______ _______ _____ _____    ______ ____

>  <TORSDO>
F 5

$$$$
=
 OpenBabel11072411533D

 32 35  0  0  0  0  0  0  0  0999 V2000
  160.8340  203.3650  149.1030 C   0  0  0  0  0  2  0  0  0  0  0  0
  162.0870  205.5250  146.4400 C   0  0  0  0  0  0  0  0  0  0  0  0
  161.0180  207.5570  152.3240 C   0  0  0  0  0  0  0  0  0  0  0  0
  160.2170  203.4200  150.4650 C   0  0  0  0  0  2  0  0  0  0  0  0
  161.0170  205.8310  150.4720 C   0  0  0  0  0  0  0  0  0  0  0  0
  161.6040  205.4220  153.4430 C   0  0  0  0  0  3  0  0  0  0  0  0
  160.7390  204.5950  151.2440 C   0  0  0  0  0  0  0  0  0  0  0  0
  160.9760  204.4320  152.5560 C   0  0  0  0  0  0  0  0  0  0  0  0
  160.6880  203.2020  153.1400 O   0  0  0  0  0  1  0  0  0  0  0  0
  160.8280  207.1680  151.0630 C   0  0  0  0  0  3  0  0  0  0  0  0
  161.7130  204.3700  147.1430 C   0  0  0  0  0  0  0  0  0  0  0  0
  161.6580  206.8670  148.4040 C   0  0  0  0  0  3  0  0  0  0  0  0
  161.6040  206.7140  153.3240 N   0  0  0  0  0  2  0  0  0  0  0  0
  162.0450  206.7680  147.0690 C   0  0  0  0  0  3  0  0  0  0  0  0
  161.7450  203.1320  146.5010 O   0  0  0  0  0  1  0  0  0  0  0  0
  161.2940  205.7270  149.1440 C   0  0  0  0  0  0  0  0  0  0  0  0
  161.2840  204.4660  148.4810 C   0  0  0  0  0  0  0  0  0  0  0  0
  160.3120  211.6750  153.3120 C   0  0  0  0  0  3  0  0  0  0  0  0
  160.9760  209.9810  151.7180 C   0  0  0  0  0  3  0  0  0  0  0  0
  160.0990  210.6870  154.2850 C   0  0  0  0  0  0  0  0  0  0  0  0
  160.7500  211.3230  152.0340 C   0  0  0  0  0  3  0  0  0  0  0  0
  160.7670  208.9760  152.6760 C   0  0  0  0  0  0  0  0  0  0  0  0
  160.3290  209.3460  153.9610 C   0  0  0  0  0  3  0  0  0  0  0  0
  159.6630  211.0030  155.5770 O   0  0  0  0  0  0  0  0  0  0  0  0
  158.3370  211.4230  155.8950 C   0  0  0  0  0  0  0  0  0  0  0  0
  157.4400  210.7110  155.1220 F   0  0  0  0  0  0  0  0  0  0  0  0
  158.0700  211.1810  157.2310 F   0  0  0  0  0  0  0  0  0  0  0  0
  158.1900  212.7720  155.6260 F   0  0  0  0  0  0  0  0  0  0  0  0
  162.5420  205.4450  145.0180 C   0  0  0  0  0  2  0  0  0  0  0  0
  160.2180  205.2870  144.5150 O   0  0  0  0  0  0  0  0  0  0  0  0
  161.5820  205.8270  142.7150 N   0  0  0  0  0  1  0  0  0  0  0  0
  161.3780  205.5220  144.0900 C   0  0  0  0  0  0  0  0  0  0  0  0
  1  4  1  0  0  0  0
  2 14  2  0  0  0  0
  2 11  1  0  0  0  0
  3 22  1  0  0  0  0
  3 13  1  0  0  0  0
  4  7  1  0  0  0  0
  5 10  1  0  0  0  0
  5  7  2  0  0  0  0
  7  8  1  0  0  0  0
  8  9  1  0  0  0  0
  8  6  2  0  0  0  0
 10  3  2  0  0  0  0
 11 17  2  0  0  0  0
 12 16  2  0  0  0  0
 13  6  1  0  0  0  0
 14 12  1  0  0  0  0
 15 11  1  0  0  0  0
 16  5  1  0  0  0  0
 17  1  1  0  0  0  0
 17 16  1  0  0  0  0
 18 20  1  0  0  0  0
 19 21  1  0  0  0  0
 19 22  2  0  0  0  0
 20 24  1  0  0  0  0
 21 18  2  0  0  0  0
 22 23  1  0  0  0  0
 23 20  2  0  0  0  0
 24 25  1  0  0  0  0
 25 27  1  0  0  0  0
 26 25  1  0  0  0  0
 28 25  1  0  0  0  0
 29  2  1  0  0  0  0
 31 32  1  0  0  0  0
 32 30  2  0  0  0  0
 32 29  1  0  0  0  0
M  END
>  <MODEL>
4

>  <REMARK>
 VINA RESULT:      -8.7      4.703      9.092
  Name = 
  5 active torsions:
  status: ('A' for Active; 'I' for Inactive)
    1  A    between atoms: C_2  and  C_3
    2  A    between atoms: C_2  and  C_32
    3  A    between atoms: C_4  and  C_18
    4  A    between atoms: C_9  and  O_31
    5  A    between atoms: C_15  and  O_31
                            x       y       z     vdW  Elec       q    Type
                         _______ _______ _______ _____ _____    ______ ____

>  <TORSDO>
F 5

$$$$
=
 OpenBabel11072411533D

 32 35  0  0  0  0  0  0  0  0999 V2000
  160.2290  211.4050  156.1840 C   0  0  0  0  0  2  0  0  0  0  0  0
  157.9440  213.2630  154.0270 C   0  0  0  0  0  0  0  0  0  0  0  0
  160.9820  208.0480  152.1660 C   0  0  0  0  0  0  0  0  0  0  0  0
  161.3020  210.3620  156.1340 C   0  0  0  0  0  2  0  0  0  0  0  0
  160.4080  209.8900  153.8030 C   0  0  0  0  0  0  0  0  0  0  0  0
  160.9900  206.9490  154.3890 C   0  0  0  0  0  3  0  0  0  0  0  0
  161.0310  209.3650  155.0440 C   0  0  0  0  0  0  0  0  0  0  0  0
  161.3070  208.0720  155.2820 C   0  0  0  0  0  0  0  0  0  0  0  0
  161.8700  207.7240  156.5070 O   0  0  0  0  0  1  0  0  0  0  0  0
  160.7160  209.3150  152.4820 C   0  0  0  0  0  3  0  0  0  0  0  0
  158.6250  212.8300  155.1750 C   0  0  0  0  0  0  0  0  0  0  0  0
  158.9820  211.5010  152.7390 C   0  0  0  0  0  3  0  0  0  0  0  0
  160.8630  206.9660  153.0980 N   0  0  0  0  0  2  0  0  0  0  0  0
  158.1360  212.6050  152.8130 C   0  0  0  0  0  3  0  0  0  0  0  0
  158.4370  213.5030  156.3820 O   0  0  0  0  0  1  0  0  0  0  0  0
  159.6660  211.0290  153.8740 C   0  0  0  0  0  0  0  0  0  0  0  0
  159.5110  211.7380  155.1000 C   0  0  0  0  0  0  0  0  0  0  0  0
  161.7760  207.1090  148.0520 C   0  0  0  0  0  3  0  0  0  0  0  0
  161.9630  208.6120  149.9380 C   0  0  0  0  0  3  0  0  0  0  0  0
  161.0630  206.1950  148.8420 C   0  0  0  0  0  0  0  0  0  0  0  0
  162.2230  208.3140  148.5980 C   0  0  0  0  0  3  0  0  0  0  0  0
  161.2530  207.7110  150.7470 C   0  0  0  0  0  0  0  0  0  0  0  0
  160.8060  206.5020  150.1820 C   0  0  0  0  0  3  0  0  0  0  0  0
  160.5970  204.9780  148.3280 O   0  0  0  0  0  0  0  0  0  0  0  0
  161.3730  203.7820  148.2740 C   0  0  0  0  0  0  0  0  0  0  0  0
  161.7050  203.4010  149.5600 F   0  0  0  0  0  0  0  0  0  0  0  0
  160.6410  202.7690  147.6800 F   0  0  0  0  0  0  0  0  0  0  0  0
  162.5340  204.0020  147.5560 F   0  0  0  0  0  0  0  0  0  0  0  0
  157.0010  214.4220  154.0850 C   0  0  0  0  0  2  0  0  0  0  0  0
  155.2170  213.5700  155.4160 O   0  0  0  0  0  0  0  0  0  0  0  0
  154.7060  213.8950  153.1750 N   0  0  0  0  0  1  0  0  0  0  0  0
  155.6000  213.9500  154.2800 C   0  0  0  0  0  0  0  0  0  0  0  0
  2 29  1  0  0  0  0
  2 11  1  0  0  0  0
  3 10  2  0  0  0  0
  3 13  1  0  0  0  0
  4  1  1  0  0  0  0
  5 16  1  0  0  0  0
  5  7  2  0  0  0  0
  6  8  2  0  0  0  0
  7  8  1  0  0  0  0
  7  4  1  0  0  0  0
  8  9  1  0  0  0  0
 10  5  1  0  0  0  0
 11 15  1  0  0  0  0
 12 14  1  0  0  0  0
 12 16  2  0  0  0  0
 13  6  1  0  0  0  0
 14  2  2  0  0  0  0
 16 17  1  0  0  0  0
 17 11  2  0  0  0  0
 17  1  1  0  0  0  0
 18 21  2  0  0  0  0
 18 20  1  0  0  0  0
 19 22  2  0  0  0  0
 20 23  2  0  0  0  0
 21 19  1  0  0  0  0
 22  3  1  0  0  0  0
 23 22  1  0  0  0  0
 24 20  1  0  0  0  0
 25 24  1  0  0  0  0
 25 26  1  0  0  0  0
 27 25  1  0  0  0  0
 28 25  1  0  0  0  0
 29 32  1  0  0  0  0
 31 32  1  0  0  0  0
 32 30  2  0  0  0  0
M  END
>  <MODEL>
5

>  <REMARK>
 VINA RESULT:      -8.7      1.441      1.599
  Name = 
  5 active torsions:
  status: ('A' for Active; 'I' for Inactive)
    1  A    between atoms: C_2  and  C_3
    2  A    between atoms: C_2  and  C_32
    3  A    between atoms: C_4  and  C_18
    4  A    between atoms: C_9  and  O_31
    5  A    between atoms: C_15  and  O_31
                            x       y       z     vdW  Elec       q    Type
                         _______ _______ _______ _____ _____    ______ ____

>  <TORSDO>
F 5

$$$$
=
 OpenBabel11072411533D

 32 35  0  0  0  0  0  0  0  0999 V2000
  161.1500  205.3610  153.1370 C   0  0  0  0  0  2  0  0  0  0  0  0
  161.2920  205.2460  149.4910 C   0  0  0  0  0  0  0  0  0  0  0  0
  160.7200  210.6200  152.7610 C   0  0  0  0  0  0  0  0  0  0  0  0
  160.7810  206.2690  154.2690 C   0  0  0  0  0  2  0  0  0  0  0  0
  160.8790  208.1060  152.5160 C   0  0  0  0  0  0  0  0  0  0  0  0
  162.0500  209.8720  154.7160 C   0  0  0  0  0  3  0  0  0  0  0  0
  161.0860  207.7010  153.9290 C   0  0  0  0  0  0  0  0  0  0  0  0
  161.5770  208.4920  154.8960 C   0  0  0  0  0  0  0  0  0  0  0  0
  161.7410  207.9640  156.1740 O   0  0  0  0  0  1  0  0  0  0  0  0
  160.4340  209.4640  152.1600 C   0  0  0  0  0  3  0  0  0  0  0  0
  161.3730  204.8460  150.8340 C   0  0  0  0  0  0  0  0  0  0  0  0
  160.8510  207.5180  150.1890 C   0  0  0  0  0  3  0  0  0  0  0  0
  161.6760  210.7340  153.8230 N   0  0  0  0  0  2  0  0  0  0  0  0
  161.0180  206.5760  149.1760 C   0  0  0  0  0  3  0  0  0  0  0  0
  161.6350  203.5100  151.1390 O   0  0  0  0  0  1  0  0  0  0  0  0
  160.9450  207.1550  151.5450 C   0  0  0  0  0  0  0  0  0  0  0  0
  161.1680  205.7840  151.8640 C   0  0  0  0  0  0  0  0  0  0  0  0
  159.0510  214.2410  151.1690 C   0  0  0  0  0  3  0  0  0  0  0  0
  159.1880  212.5870  152.9280 C   0  0  0  0  0  3  0  0  0  0  0  0
  160.0140  213.5410  150.4260 C   0  0  0  0  0  0  0  0  0  0  0  0
  158.6400  213.7640  152.4150 C   0  0  0  0  0  3  0  0  0  0  0  0
  160.1540  211.8720  152.2020 C   0  0  0  0  0  0  0  0  0  0  0  0
  160.5570  212.3620  150.9470 C   0  0  0  0  0  3  0  0  0  0  0  0
  160.4500  213.9880  149.1720 O   0  0  0  0  0  0  0  0  0  0  0  0
  160.2020  213.3020  147.9460 C   0  0  0  0  0  0  0  0  0  0  0  0
  161.0650  212.2280  147.8470 F   0  0  0  0  0  0  0  0  0  0  0  0
  158.8990  212.8350  147.9190 F   0  0  0  0  0  0  0  0  0  0  0  0
  160.4160  214.1510  146.8760 F   0  0  0  0  0  0  0  0  0  0  0  0
  161.5030  204.2650  148.3820 C   0  0  0  0  0  2  0  0  0  0  0  0
  160.7950  205.4560  146.4430 O   0  0  0  0  0  0  0  0  0  0  0  0
  163.0810  205.0780  146.5880 N   0  0  0  0  0  1  0  0  0  0  0  0
  161.7560  204.9740  147.0960 C   0  0  0  0  0  0  0  0  0  0  0  0
  1  4  1  0  0  0  0
  2 11  1  0  0  0  0
  3 13  1  0  0  0  0
  5  7  2  0  0  0  0
  6  8  2  0  0  0  0
  7  4  1  0  0  0  0
  7  8  1  0  0  0  0
  8  9  1  0  0  0  0
 10  5  1  0  0  0  0
 10  3  2  0  0  0  0
 11 15  1  0  0  0  0
 11 17  2  0  0  0  0
 12 16  2  0  0  0  0
 13  6  1  0  0  0  0
 14  2  2  0  0  0  0
 14 12  1  0  0  0  0
 16 17  1  0  0  0  0
 16  5  1  0  0  0  0
 17  1  1  0  0  0  0
 18 21  1  0  0  0  0
 20 23  1  0  0  0  0
 20 18  2  0  0  0  0
 21 19  2  0  0  0  0
 22  3  1  0  0  0  0
 22 19  1  0  0  0  0
 23 22  2  0  0  0  0
 24 20  1  0  0  0  0
 25 24  1  0  0  0  0
 26 25  1  0  0  0  0
 27 25  1  0  0  0  0
 28 25  1  0  0  0  0
 29  2  1  0  0  0  0
 30 32  2  0  0  0  0
 31 32  1  0  0  0  0
 32 29  1  0  0  0  0
M  END
>  <MODEL>
6

>  <REMARK>
 VINA RESULT:      -8.4      4.101      8.204
  Name = 
  5 active torsions:
  status: ('A' for Active; 'I' for Inactive)
    1  A    between atoms: C_2  and  C_3
    2  A    between atoms: C_2  and  C_32
    3  A    between atoms: C_4  and  C_18
    4  A    between atoms: C_9  and  O_31
    5  A    between atoms: C_15  and  O_31
                            x       y       z     vdW  Elec       q    Type
                         _______ _______ _______ _____ _____    ______ ____

>  <TORSDO>
F 5

$$$$
=
 OpenBabel11072411533D

 32 35  0  0  0  0  0  0  0  0999 V2000
  162.2180  206.3170  147.9050 C   0  0  0  0  0  2  0  0  0  0  0  0
  160.5220  203.3370  149.1600 C   0  0  0  0  0  0  0  0  0  0  0  0
  161.2390  208.6030  152.5740 C   0  0  0  0  0  0  0  0  0  0  0  0
  162.8300  207.6020  148.3700 C   0  0  0  0  0  2  0  0  0  0  0  0
  161.5620  207.1520  150.5250 C   0  0  0  0  0  0  0  0  0  0  0  0
  161.1080  210.1710  150.6570 C   0  0  0  0  0  3  0  0  0  0  0  0
  162.0920  208.1470  149.5600 C   0  0  0  0  0  0  0  0  0  0  0  0
  161.9100  209.4750  149.6410 C   0  0  0  0  0  0  0  0  0  0  0  0
  162.4470  210.2850  148.6440 O   0  0  0  0  0  1  0  0  0  0  0  0
  161.4860  207.4410  151.9680 C   0  0  0  0  0  2  0  0  0  0  0  0
  161.1300  204.2430  148.2770 C   0  0  0  0  0  0  0  0  0  0  0  0
  160.6990  204.9530  150.9490 C   0  0  0  0  0  3  0  0  0  0  0  0
  160.8470  209.7870  151.8680 N   0  0  0  0  0  0  0  0  0  0  0  0
  160.3220  203.6910  150.4930 C   0  0  0  0  0  3  0  0  0  0  0  0
  161.3390  203.8750  146.9480 O   0  0  0  0  0  1  0  0  0  0  0  0
  161.2940  205.8920  150.0870 C   0  0  0  0  0  0  0  0  0  0  0  0
  161.5490  205.5060  148.7390 C   0  0  0  0  0  0  0  0  0  0  0  0
  161.1230  208.6690  156.8660 C   0  0  0  0  0  3  0  0  0  0  0  0
  161.0720  207.4430  154.7810 C   0  0  0  0  0  3  0  0  0  0  0  0
  161.2530  209.8760  156.1610 C   0  0  0  0  0  0  0  0  0  0  0  0
  161.0320  207.4580  156.1770 C   0  0  0  0  0  3  0  0  0  0  0  0
  161.2040  208.6380  154.0570 C   0  0  0  0  0  0  0  0  0  0  0  0
  161.2920  209.8520  154.7630 C   0  0  0  0  0  3  0  0  0  0  0  0
  161.3460  211.1090  156.8170 O   0  0  0  0  0  0  0  0  0  0  0  0
  160.4480  212.1970  156.6080 C   0  0  0  0  0  0  0  0  0  0  0  0
  159.2070  211.8620  157.1140 F   0  0  0  0  0  0  0  0  0  0  0  0
  160.9100  213.3260  157.2610 F   0  0  0  0  0  0  0  0  0  0  0  0
  160.3250  212.4580  155.2550 F   0  0  0  0  0  0  0  0  0  0  0  0
  160.0740  201.9900  148.6900 C   0  0  0  0  0  2  0  0  0  0  0  0
  161.6260  200.8220  150.0720 O   0  0  0  0  0  0  0  0  0  0  0  0
  161.6300  200.1960  147.8360 N   0  0  0  0  0  1  0  0  0  0  0  0
  161.1390  200.9730  148.9220 C   0  0  0  0  0  0  0  0  0  0  0  0
  1  4  1  0  0  0  0
  1 17  1  0  0  0  0
  2 14  1  0  0  0  0
  3 22  1  0  0  0  0
  4  7  1  0  0  0  0
  5 10  1  0  0  0  0
  6 13  1  0  0  0  0
  7  8  1  0  0  0  0
  7  5  2  0  0  0  0
  8  6  2  0  0  0  0
  9  8  1  0  0  0  0
 10  3  1  0  0  0  0
 11 17  1  0  0  0  0
 11  2  2  0  0  0  0
 13  3  2  0  0  0  0
 14 12  2  0  0  0  0
 15 11  1  0  0  0  0
 16  5  1  0  0  0  0
 16 12  1  0  0  0  0
 17 16  2  0  0  0  0
 19 21  2  0  0  0  0
 20 24  1  0  0  0  0
 20 18  2  0  0  0  0
 21 18  1  0  0  0  0
 22 23  2  0  0  0  0
 22 19  1  0  0  0  0
 23 20  1  0  0  0  0
 25 24  1  0  0  0  0
 25 26  1  0  0  0  0
 25 27  1  0  0  0  0
 28 25  1  0  0  0  0
 29 32  1  0  0  0  0
 29  2  1  0  0  0  0
 31 32  1  0  0  0  0
 32 30  2  0  0  0  0
M  END
>  <MODEL>
7

>  <REMARK>
 VINA RESULT:      -8.3      4.798      9.546
  Name = 
  5 active torsions:
  status: ('A' for Active; 'I' for Inactive)
    1  A    between atoms: C_2  and  C_3
    2  A    between atoms: C_2  and  C_32
    3  A    between atoms: C_4  and  C_18
    4  A    between atoms: C_9  and  O_31
    5  A    between atoms: C_15  and  O_31
                            x       y       z     vdW  Elec       q    Type
                         _______ _______ _______ _____ _____    ______ ____

>  <TORSDO>
F 5

$$$$
=
 OpenBabel11072411533D

 32 35  0  0  0  0  0  0  0  0999 V2000
  160.8430  211.8540  155.7540 C   0  0  0  0  0  2  0  0  0  0  0  0
  158.5840  213.1520  153.1970 C   0  0  0  0  0  0  0  0  0  0  0  0
  160.9010  207.2770  153.1030 C   0  0  0  0  0  0  0  0  0  0  0  0
  161.7950  210.7290  156.0170 C   0  0  0  0  0  2  0  0  0  0  0  0
  160.6610  209.6190  154.0330 C   0  0  0  0  0  0  0  0  0  0  0  0
  160.9860  206.9960  155.5660 C   0  0  0  0  0  3  0  0  0  0  0  0
  161.3310  209.4660  155.3480 C   0  0  0  0  0  0  0  0  0  0  0  0
  161.4920  208.3040  156.0030 C   0  0  0  0  0  0  0  0  0  0  0  0
  162.1190  208.3190  157.2470 O   0  0  0  0  0  1  0  0  0  0  0  0
  160.7940  208.6000  152.9760 C   0  0  0  0  0  3  0  0  0  0  0  0
  159.3140  213.0480  154.3910 C   0  0  0  0  0  0  0  0  0  0  0  0
  159.3230  210.9440  152.5460 C   0  0  0  0  0  3  0  0  0  0  0  0
  160.7520  206.5950  154.3550 N   0  0  0  0  0  2  0  0  0  0  0  0
  158.6030  212.1070  152.2750 C   0  0  0  0  0  3  0  0  0  0  0  0
  159.2990  214.1040  155.3010 O   0  0  0  0  0  1  0  0  0  0  0  0
  160.0490  210.7990  153.7420 C   0  0  0  0  0  0  0  0  0  0  0  0
  160.0730  211.8920  154.6550 C   0  0  0  0  0  0  0  0  0  0  0  0
  161.2410  204.8600  149.5700 C   0  0  0  0  0  3  0  0  0  0  0  0
  161.1600  205.0600  151.9790 C   0  0  0  0  0  3  0  0  0  0  0  0
  161.0980  206.2500  149.4430 C   0  0  0  0  0  0  0  0  0  0  0  0
  161.2730  204.2680  150.8340 C   0  0  0  0  0  3  0  0  0  0  0  0
  161.0140  206.4520  151.8750 C   0  0  0  0  0  0  0  0  0  0  0  0
  160.9860  207.0350  150.5950 C   0  0  0  0  0  3  0  0  0  0  0  0
  161.0640  206.8790  148.1920 O   0  0  0  0  0  0  0  0  0  0  0  0
  161.2040  206.1960  146.9480 C   0  0  0  0  0  0  0  0  0  0  0  0
  161.2850  204.8370  147.1860 F   0  0  0  0  0  0  0  0  0  0  0  0
  160.1060  206.4470  146.1430 F   0  0  0  0  0  0  0  0  0  0  0  0
  162.3570  206.6100  146.3070 F   0  0  0  0  0  0  0  0  0  0  0  0
  157.7740  214.3720  152.8960 C   0  0  0  0  0  2  0  0  0  0  0  0
  155.6290  214.1360  151.8840 O   0  0  0  0  0  0  0  0  0  0  0  0
  155.6980  213.6990  154.1630 N   0  0  0  0  0  1  0  0  0  0  0  0
  156.3170  214.0570  152.9340 C   0  0  0  0  0  0  0  0  0  0  0  0
  1  4  1  0  0  0  0
  2 11  1  0  0  0  0
  3 13  1  0  0  0  0
  5  7  2  0  0  0  0
  6  8  2  0  0  0  0
  7  8  1  0  0  0  0
  7  4  1  0  0  0  0
  8  9  1  0  0  0  0
 10  3  2  0  0  0  0
 10  5  1  0  0  0  0
 11 17  2  0  0  0  0
 11 15  1  0  0  0  0
 12 16  2  0  0  0  0
 13  6  1  0  0  0  0
 14 12  1  0  0  0  0
 14  2  2  0  0  0  0
 16  5  1  0  0  0  0
 16 17  1  0  0  0  0
 17  1  1  0  0  0  0
 18 21  1  0  0  0  0
 20 18  2  0  0  0  0
 20 23  1  0  0  0  0
 21 19  2  0  0  0  0
 22 19  1  0  0  0  0
 22  3  1  0  0  0  0
 23 22  2  0  0  0  0
 24 20  1  0  0  0  0
 25 26  1  0  0  0  0
 25 24  1  0  0  0  0
 27 25  1  0  0  0  0
 28 25  1  0  0  0  0
 29 32  1  0  0  0  0
 29  2  1  0  0  0  0
 30 32  2  0  0  0  0
 32 31  1  0  0  0  0
M  END
>  <MODEL>
8

>  <REMARK>
 VINA RESULT:      -8.2      1.517      2.068
  Name = 
  5 active torsions:
  status: ('A' for Active; 'I' for Inactive)
    1  A    between atoms: C_2  and  C_3
    2  A    between atoms: C_2  and  C_32
    3  A    between atoms: C_4  and  C_18
    4  A    between atoms: C_9  and  O_31
    5  A    between atoms: C_15  and  O_31
                            x       y       z     vdW  Elec       q    Type
                         _______ _______ _______ _____ _____    ______ ____

>  <TORSDO>
F 5

$$$$
=
 OpenBabel11072411533D

 32 35  0  0  0  0  0  0  0  0999 V2000
  161.0040  203.7230  149.9300 C   0  0  0  0  0  2  0  0  0  0  0  0
  162.0450  205.1660  146.7420 C   0  0  0  0  0  0  0  0  0  0  0  0
  161.0700  208.6140  151.9430 C   0  0  0  0  0  0  0  0  0  0  0  0
  160.4320  204.1050  151.2590 C   0  0  0  0  0  2  0  0  0  0  0  0
  161.0990  206.4670  150.6030 C   0  0  0  0  0  0  0  0  0  0  0  0
  161.8100  206.8730  153.5470 C   0  0  0  0  0  3  0  0  0  0  0  0
  160.9160  205.4630  151.6810 C   0  0  0  0  0  0  0  0  0  0  0  0
  161.2070  205.6600  152.9780 C   0  0  0  0  0  0  0  0  0  0  0  0
  161.0060  204.6130  153.8740 O   0  0  0  0  0  1  0  0  0  0  0  0
  160.8580  207.9020  150.8360 C   0  0  0  0  0  3  0  0  0  0  0  0
  161.7580  204.2190  147.7370 C   0  0  0  0  0  0  0  0  0  0  0  0
  161.6110  206.9540  148.3090 C   0  0  0  0  0  3  0  0  0  0  0  0
  161.7350  208.0880  153.0980 N   0  0  0  0  0  2  0  0  0  0  0  0
  161.9560  206.5270  147.0290 C   0  0  0  0  0  3  0  0  0  0  0  0
  161.8360  202.8590  147.4370 O   0  0  0  0  0  1  0  0  0  0  0  0
  161.3360  206.0320  149.3360 C   0  0  0  0  0  0  0  0  0  0  0  0
  161.3710  204.6420  149.0240 C   0  0  0  0  0  0  0  0  0  0  0  0
  160.1360  212.8050  151.9290 C   0  0  0  0  0  3  0  0  0  0  0  0
  160.2250  210.6760  153.0740 C   0  0  0  0  0  3  0  0  0  0  0  0
  160.6620  212.2120  150.7710 C   0  0  0  0  0  0  0  0  0  0  0  0
  159.9170  212.0390  153.0750 C   0  0  0  0  0  3  0  0  0  0  0  0
  160.7540  210.0640  151.9270 C   0  0  0  0  0  0  0  0  0  0  0  0
  160.9670  210.8470  150.7780 C   0  0  0  0  0  3  0  0  0  0  0  0
  160.8930  212.9490  149.6020 O   0  0  0  0  0  0  0  0  0  0  0  0
  161.7210  212.5080  148.5280 C   0  0  0  0  0  0  0  0  0  0  0  0
  161.0030  211.6330  147.7350 F   0  0  0  0  0  0  0  0  0  0  0  0
  162.1170  213.5890  147.7600 F   0  0  0  0  0  0  0  0  0  0  0  0
  162.8340  211.8540  149.0240 F   0  0  0  0  0  0  0  0  0  0  0  0
  162.4540  204.7370  145.3690 C   0  0  0  0  0  2  0  0  0  0  0  0
  161.3620  205.8440  143.5630 O   0  0  0  0  0  0  0  0  0  0  0  0
  160.2000  204.0490  144.4670 N   0  0  0  0  0  1  0  0  0  0  0  0
  161.3280  204.9130  144.4080 C   0  0  0  0  0  0  0  0  0  0  0  0
  1  4  1  0  0  0  0
  2 14  2  0  0  0  0
  2 11  1  0  0  0  0
  3 13  1  0  0  0  0
  4  7  1  0  0  0  0
  5 10  1  0  0  0  0
  5  7  2  0  0  0  0
  7  8  1  0  0  0  0
  8  6  2  0  0  0  0
  8  9  1  0  0  0  0
 10  3  2  0  0  0  0
 11 17  2  0  0  0  0
 12 16  2  0  0  0  0
 13  6  1  0  0  0  0
 14 12  1  0  0  0  0
 15 11  1  0  0  0  0
 16  5  1  0  0  0  0
 17 16  1  0  0  0  0
 17  1  1  0  0  0  0
 18 21  1  0  0  0  0
 19 21  2  0  0  0  0
 20 23  1  0  0  0  0
 20 18  2  0  0  0  0
 22  3  1  0  0  0  0
 22 19  1  0  0  0  0
 23 22  2  0  0  0  0
 24 20  1  0  0  0  0
 25 28  1  0  0  0  0
 25 24  1  0  0  0  0
 26 25  1  0  0  0  0
 27 25  1  0  0  0  0
 29  2  1  0  0  0  0
 30 32  2  0  0  0  0
 32 31  1  0  0  0  0
 32 29  1  0  0  0  0
M  END
>  <MODEL>
9

>  <REMARK>
 VINA RESULT:      -8.2      4.387      8.792
  Name = 
  5 active torsions:
  status: ('A' for Active; 'I' for Inactive)
    1  A    between atoms: C_2  and  C_3
    2  A    between atoms: C_2  and  C_32
    3  A    between atoms: C_4  and  C_18
    4  A    between atoms: C_9  and  O_31
    5  A    between atoms: C_15  and  O_31
                            x       y       z     vdW  Elec       q    Type
                         _______ _______ _______ _____ _____    ______ ____

>  <TORSDO>
F 5

$$$$
