=
 OpenBabel11072412453D

 55 58  0  0  1  0  0  0  0  0999 V2000
  162.2560  211.4680  148.8340 C   0  0  0  0  0  2  0  0  0  0  0  0
  161.8540  213.4520  147.9000 C   0  0  1  0  0  3  0  0  0  0  0  0
  161.2770  209.9870  150.5140 N   0  0  0  0  0  0  0  0  0  0  0  0
  160.2710  214.4530  149.6030 O   0  0  0  0  0  0  0  0  0  0  0  0
  160.5290  214.1870  148.2260 C   0  0  2  0  0  3  0  0  0  0  0  0
  161.2510  211.1230  149.9100 C   0  0  0  0  0  0  0  0  0  0  0  0
  160.2240  212.1320  150.3300 C   0  0  0  0  0  2  0  0  0  0  0  0
  161.6300  212.0740  147.7430 O   0  0  0  0  0  0  0  0  0  0  0  0
  160.8650  213.5090  150.4650 C   0  0  0  0  0  2  0  0  0  0  0  0
  162.3440  208.7470  148.7160 C   0  0  0  0  0  1  0  0  0  0  0  0
  162.2440  208.9520  150.2190 C   0  0  2  0  0  3  0  0  0  0  0  0
  161.9060  207.6570  150.9760 C   0  0  1  0  0  3  0  0  0  0  0  0
  161.4830  208.0460  153.5960 C   0  0  0  0  0  3  0  0  0  0  0  0
  161.6720  207.8720  152.4150 C   0  0  0  0  0  0  0  0  0  0  0  0
  160.7350  206.9120  150.3460 C   0  0  0  0  0  2  0  0  0  0  0  0
  161.2340  202.6550  150.7030 C   0  0  0  0  0  3  0  0  0  0  0  0
  161.3390  203.2480  149.4440 C   0  0  0  0  0  3  0  0  0  0  0  0
  161.1800  204.6350  149.2990 C   0  0  0  0  0  0  0  0  0  0  0  0
  160.9290  205.4290  150.4380 C   0  0  0  0  0  0  0  0  0  0  0  0
  160.9740  203.4430  151.8290 C   0  0  0  0  0  3  0  0  0  0  0  0
  160.8220  204.8250  151.6960 C   0  0  0  0  0  3  0  0  0  0  0  0
  161.2730  205.2490  147.9350 C   0  0  2  0  0  3  0  0  0  0  0  0
  160.2880  206.2240  147.7750 O   0  0  0  0  0  1  0  0  0  0  0  0
  161.1380  204.2690  146.9510 O   0  0  0  0  0  0  0  0  0  0  0  0
  161.1810  204.0910  144.3430 O   0  0  0  0  0  0  0  0  0  0  0  0
  161.2530  205.0950  145.4710 P   0  0  0  0  0  0  0  0  0  0  0  0
  159.9680  206.1910  145.3200 O   0  0  0  0  0  1  0  0  0  0  0  0
  162.7230  205.9340  145.3810 O   0  0  0  0  0  1  0  0  0  0  0  0
  159.2910  213.5980  147.5140 C   0  0  1  0  0  3  0  0  0  0  0  0
  157.9520  213.9420  148.1890 C   0  0  1  0  0  3  0  0  0  0  0  0
  156.8750  214.3690  147.2050 C   0  0  0  0  0  1  0  0  0  0  0  0
  157.5020  212.8690  148.9610 O   0  0  0  0  0  0  0  0  0  0  0  0
  156.4320  213.3270  149.5770 O   0  0  0  0  0  1  0  0  0  0  0  0
  159.2950  213.8170  145.9950 C   0  0  0  0  0  2  0  0  0  0  0  0
  159.0000  212.5400  145.2260 C   0  0  0  0  0  2  0  0  0  0  0  0
  160.1060  212.2720  144.2270 C   0  0  0  0  0  2  0  0  0  0  0  0
  159.5010  211.8830  142.8890 C   0  0  0  0  0  2  0  0  0  0  0  0
  160.3250  214.0520  142.3320 O   0  0  0  0  0  1  0  0  0  0  0  0
  159.9000  212.8490  141.7820 C   0  0  2  0  0  3  0  0  0  0  0  0
  159.6030  210.6660  139.5630 S   0  0  0  0  0  0  0  0  0  0  0  0
  160.7990  211.8310  138.9540 C   0  0  0  0  0  0  0  0  0  0  0  0
  158.6910  213.1140  140.8860 C   0  0  1  0  0  3  0  0  0  0  0  0
  159.0120  213.3850  139.4010 C   0  0  2  0  0  3  0  0  0  0  0  0
  158.4250  212.0460  139.8300 C   0  0  1  0  0  0  0  0  0  0  0  0
  160.4180  213.1000  138.9630 C   0  0  0  0  0  0  0  0  0  0  0  0
  161.2640  214.1280  138.5580 O   0  0  0  0  0  1  0  0  0  0  0  0
  155.2160  210.3600  138.4540 C   0  0  0  0  0  1  0  0  0  0  0  0
  156.9900  211.8390  139.4690 C   0  0  0  0  0  0  0  0  0  0  0  0
  156.1270  212.7200  139.7470 O   0  0  0  0  0  0  0  0  0  0  0  0
  156.6060  210.6440  138.7890 N   0  0  0  0  0  2  0  0  0  0  0  0
  162.7620  210.6750  139.5460 F   0  0  0  0  0  0  0  0  0  0  0  0
  162.1600  211.3910  138.5260 C   0  0  0  0  0  2  0  0  0  0  0  0
  162.4880  214.0270  146.6460 C   0  0  0  0  0  2  0  0  0  0  0  0
  163.3470  213.5460  144.6720 C   0  0  0  0  0  1  0  0  0  0  0  0
  162.4100  213.1030  145.6050 O   0  0  0  0  0  0  0  0  0  0  0  0
  1  6  1  0  0  0  0
  2 53  1  6  0  0  0
  2  5  1  0  0  0  0
  4  9  1  0  0  0  0
  5 29  1  1  0  0  0
  5  4  1  0  0  0  0
  6  7  1  0  0  0  0
  6  3  2  0  0  0  0
  7  9  1  0  0  0  0
  8  2  1  0  0  0  0
  8  1  1  0  0  0  0
 11 10  1  6  0  0  0
 11  3  1  0  0  0  0
 11 12  1  0  0  0  0
 12 15  1  6  0  0  0
 12 14  1  0  0  0  0
 14 13  3  0  0  0  0
 15 19  1  0  0  0  0
 16 20  1  0  0  0  0
 17 16  2  0  0  0  0
 18 17  1  0  0  0  0
 18 19  2  0  0  0  0
 19 21  1  0  0  0  0
 21 20  2  0  0  0  0
 22 23  1  6  0  0  0
 22 18  1  0  0  0  0
 24 22  1  0  0  0  0
 25 26  2  0  0  0  0
 26 24  1  0  0  0  0
 27 26  1  0  0  0  0
 28 26  1  0  0  0  0
 29 34  1  6  0  0  0
 29 30  1  0  0  0  0
 30 31  1  6  0  0  0
 30 32  1  0  0  0  0
 32 33  1  0  0  0  0
 35 34  1  0  0  0  0
 36 35  1  0  0  0  0
 37 36  1  0  0  0  0
 39 38  1  1  0  0  0
 39 37  1  0  0  0  0
 40 44  1  0  0  0  0
 41 45  2  0  0  0  0
 41 40  1  0  0  0  0
 42 39  1  1  0  0  0
 43 45  1  1  0  0  0
 43 44  1  0  0  0  0
 43 42  1  0  0  0  0
 44 48  1  6  0  0  0
 44 42  1  0  0  0  0
 46 45  1  0  0  0  0
 47 50  1  0  0  0  0
 48 49  2  0  0  0  0
 50 48  1  0  0  0  0
 52 41  1  0  0  0  0
 52 51  1  0  0  0  0
 54 55  1  0  0  0  0
 55 53  1  0  0  0  0
M  END
>  <MODEL>
1

>  <REMARK>
 VINA RESULT:      -6.0      0.000      0.000
  Name = 
  21 active torsions:
  status: ('A' for Active; 'I' for Inactive)
    1  A    between atoms: C_1  and  O_6
    2  A    between atoms: C_1  and  C_7
    3  A    between atoms: C_2  and  C_14
    4  A    between atoms: C_2  and  O_16
    5  A    between atoms: C_7  and  C_38
    6  A    between atoms: C_7  and  C_49
    7  A    between atoms: C_12  and  C_34
    8  A    between atoms: C_12  and  C_49
    9  A    between atoms: C_13  and  C_32
   10  A    between atoms: C_15  and  C_24
   11  A    between atoms: C_17  and  C_46
   12  A    between atoms: C_21  and  O_28
   13  A    between atoms: C_21  and  C_36
   14  A    between atoms: C_23  and  C_32
   15  A    between atoms: C_23  and  C_43
   16  A    between atoms: P_25  and  O_28
   17  A    between atoms: C_26  and  C_45
   18  A    between atoms: N_30  and  C_37
   19  A    between atoms: C_32  and  C_37
   20  A    between atoms: C_34  and  C_47
   21  A    between atoms: C_45  and  C_47
                            x       y       z     vdW  Elec       q    Type
                         _______ _______ _______ _____ _____    ______ ____

>  <TORSDO>
F 21

$$$$
