=
 OpenBabel11072412023D

 45 52  0  0  1  0  0  0  0  0999 V2000
  160.3080  209.4280  155.0420 C   0  0  0  0  0  0  0  0  0  0  0  0
  159.1740  209.3880  155.4950 O   0  0  0  0  0  0  0  0  0  0  0  0
  161.0100  211.2310  153.3100 C   0  0  1  0  0  3  0  0  0  0  0  0
  160.7510  211.8910  155.7960 C   0  0  2  0  0  3  0  0  0  0  0  0
  160.6420  211.4040  157.2320 C   0  0  0  0  0  1  0  0  0  0  0  0
  158.4090  212.1550  154.8790 C   0  0  0  0  0  2  0  0  0  0  0  0
  157.4000  214.1680  150.5450 O   0  0  0  0  0  1  0  0  0  0  0  0
  158.4810  210.6870  152.8390 C   0  0  0  0  0  2  0  0  0  0  0  0
  159.7980  212.0120  151.1170 C   0  0  1  0  0  3  0  0  0  0  0  0
  159.6230  212.8640  155.4500 C   0  0  0  0  0  2  0  0  0  0  0  0
  157.4750  212.9920  152.6220 C   0  0  0  0  0  0  0  0  0  0  0  0
  160.9810  210.7590  154.7740 C   0  0  1  0  0  3  0  0  0  0  0  0
  162.0820  210.9250  151.0620 C   0  0  0  0  0  2  0  0  0  0  0  0
  160.2330  213.4820  150.9720 C   0  0  2  0  0  3  0  0  0  0  0  0
  160.7350  211.0650  150.3570 C   0  0  0  0  0  2  0  0  0  0  0  0
  156.2860  212.7240  152.6970 O   0  0  0  0  0  0  0  0  0  0  0  0
  158.4680  212.1240  153.3570 C   0  0  1  0  0  0  0  0  0  0  0  0
  157.8990  214.2150  151.8470 C   0  0  1  0  0  3  0  0  0  0  0  0
  161.8890  210.3250  152.4490 C   0  0  0  0  0  2  0  0  0  0  0  0
  159.4160  214.4530  151.8470 C   0  0  0  0  0  2  0  0  0  0  0  0
  159.6800  211.5820  152.5880 C   0  0  2  0  0  0  0  0  0  0  0  0
  161.5530  214.4480  149.0830 C   0  0  0  0  0  1  0  0  0  0  0  0
  160.1960  213.9160  149.5110 C   0  0  0  0  0  2  0  0  0  0  0  0
  161.0020  208.1370  154.6960 C   0  0  2  0  0  0  0  0  0  0  0  0
  160.7680  204.2270  152.9490 C   0  0  0  0  0  3  0  0  0  0  0  0
  161.1490  206.6130  152.7290 C   0  0  0  0  0  0  0  0  0  0  0  0
  160.6150  205.6480  154.8920 O   0  0  0  0  0  0  0  0  0  0  0  0
  159.8540  207.0910  156.6590 O   0  0  0  0  0  1  0  0  0  0  0  0
  162.0830  207.5360  155.6220 C   0  0  1  0  0  3  0  0  0  0  0  0
  161.2180  207.8860  153.3060 O   0  0  0  0  0  0  0  0  0  0  0  0
  162.2960  208.3090  156.9190 C   0  0  0  0  0  1  0  0  0  0  0  0
  160.9970  204.0630  151.5830 C   0  0  0  0  0  3  0  0  0  0  0  0
  160.6840  206.9140  155.5460 C   0  0  2  0  0  0  0  0  0  0  0  0
  161.3830  206.4530  151.3550 C   0  0  0  0  0  0  0  0  0  0  0  0
  160.8450  205.4960  153.5240 C   0  0  0  0  0  0  0  0  0  0  0  0
  161.3040  205.1720  150.7900 C   0  0  0  0  0  3  0  0  0  0  0  0
  161.7000  207.6030  150.5580 N   0  0  0  0  0  2  0  0  0  0  0  0
  161.6240  208.9550  148.2490 O   0  0  0  0  0  0  0  0  0  0  0  0
  163.4180  207.3250  148.5660 O   0  0  0  0  0  0  0  0  0  0  0  0
  161.9700  207.6190  148.8420 S   0  0  0  0  0  0  0  0  0  0  0  0
  160.9450  206.3830  148.0760 C   0  0  0  0  0  2  0  0  0  0  0  0
  160.2300  206.3800  145.4950 O   0  0  0  0  0  1  0  0  0  0  0  0
  160.9710  204.5110  146.5900 O   0  0  0  0  0  0  0  0  0  0  0  0
  161.7820  205.5250  147.1350 C   0  0  1  0  0  3  0  0  0  0  0  0
  161.3340  205.5470  145.7110 C   0  0  2  0  0  3  0  0  0  0  0  0
  1  2  2  0  0  0  0
  3 19  1  6  0  0  0
  3 12  1  0  0  0  0
  4  5  1  1  0  0  0
  6 10  1  0  0  0  0
  9 15  1  6  0  0  0
  9 21  1  0  0  0  0
 10  4  1  0  0  0  0
 11 16  2  0  0  0  0
 11 17  1  0  0  0  0
 12  1  1  6  0  0  0
 12  4  1  0  0  0  0
 13 19  1  0  0  0  0
 14 23  1  6  0  0  0
 14  9  1  0  0  0  0
 14 20  1  0  0  0  0
 15 13  1  0  0  0  0
 17  8  1  6  0  0  0
 17  6  1  0  0  0  0
 18  7  1  6  0  0  0
 18 20  1  0  0  0  0
 18 11  1  0  0  0  0
 21  8  1  6  0  0  0
 21  3  1  0  0  0  0
 21 17  1  0  0  0  0
 22 23  1  0  0  0  0
 24  1  1  1  0  0  0
 24 33  1  0  0  0  0
 24 29  1  0  0  0  0
 25 35  1  0  0  0  0
 26 30  1  0  0  0  0
 26 35  2  0  0  0  0
 27 33  1  0  0  0  0
 29 31  1  1  0  0  0
 30 24  1  0  0  0  0
 32 25  2  0  0  0  0
 33 29  1  0  0  0  0
 33 28  1  1  0  0  0
 34 26  1  0  0  0  0
 35 27  1  0  0  0  0
 36 34  2  0  0  0  0
 36 32  1  0  0  0  0
 37 34  1  0  0  0  0
 38 40  2  0  0  0  0
 39 40  2  0  0  0  0
 40 37  1  0  0  0  0
 41 40  1  0  0  0  0
 43 44  1  0  0  0  0
 44 41  1  1  0  0  0
 45 42  1  1  0  0  0
 45 43  1  0  0  0  0
 45 44  1  0  0  0  0
M  END
>  <MODEL>
1

>  <REMARK>
 VINA RESULT:      -3.8      0.000      0.000
  Name = 
  7 active torsions:
  status: ('A' for Active; 'I' for Inactive)
    1  A    between atoms: C_1  and  C_11
    2  A    between atoms: C_11  and  C_25
    3  A    between atoms: C_23  and  C_31
    4  A    between atoms: C_23  and  S_32
    5  A    between atoms: C_29  and  C_34
    6  A    between atoms: S_32  and  N_35
    7  A    between atoms: N_35  and  C_39
                            x       y       z     vdW  Elec       q    Type
                         _______ _______ _______ _____ _____    ______ ____

>  <TORSDO>
F 7

$$$$
=
 OpenBabel11072412023D

 45 52  0  0  1  0  0  0  0  0999 V2000
  160.6670  207.4190  151.6070 C   0  0  0  0  0  0  0  0  0  0  0  0
  159.7160  207.5860  150.8590 O   0  0  0  0  0  0  0  0  0  0  0  0
  161.7250  205.3280  150.4870 C   0  0  1  0  0  3  0  0  0  0  0  0
  162.9860  207.5840  150.4120 C   0  0  2  0  0  3  0  0  0  0  0  0
  163.1110  208.9870  150.9880 C   0  0  0  0  0  1  0  0  0  0  0  0
  161.4710  207.6990  148.3910 C   0  0  0  0  0  2  0  0  0  0  0  0
  160.7080  203.9530  145.3520 O   0  0  0  0  0  1  0  0  0  0  0  0
  159.6860  206.0300  148.9830 C   0  0  0  0  0  2  0  0  0  0  0  0
  160.7610  203.7570  148.6200 C   0  0  1  0  0  3  0  0  0  0  0  0
  162.9030  207.6140  148.8860 C   0  0  0  0  0  2  0  0  0  0  0  0
  160.6840  205.9470  146.6660 C   0  0  0  0  0  0  0  0  0  0  0  0
  161.9180  206.7200  151.1140 C   0  0  1  0  0  3  0  0  0  0  0  0
  161.2820  202.9010  150.9440 C   0  0  0  0  0  2  0  0  0  0  0  0
  162.0190  203.2500  147.8940 C   0  0  2  0  0  3  0  0  0  0  0  0
  160.3360  202.8100  149.7490 C   0  0  0  0  0  2  0  0  0  0  0  0
  159.8280  206.5450  146.0330 O   0  0  0  0  0  0  0  0  0  0  0  0
  160.9110  206.3100  148.1130 C   0  0  1  0  0  0  0  0  0  0  0  0
  161.5210  204.9110  145.9590 C   0  0  1  0  0  3  0  0  0  0  0  0
  161.2580  204.3100  151.5250 C   0  0  0  0  0  2  0  0  0  0  0  0
  162.5750  204.2470  146.8580 C   0  0  0  0  0  2  0  0  0  0  0  0
  160.9340  205.1860  149.1570 C   0  0  2  0  0  0  0  0  0  0  0  0
  161.5880  200.8240  148.3130 C   0  0  0  0  0  1  0  0  0  0  0  0
  161.7620  201.8930  147.2480 C   0  0  0  0  0  2  0  0  0  0  0  0
  160.5540  207.8620  153.0420 C   0  0  2  0  0  0  0  0  0  0  0  0
  161.8780  210.4940  156.1600 C   0  0  0  0  0  3  0  0  0  0  0  0
  160.4170  210.0210  154.2820 C   0  0  0  0  0  0  0  0  0  0  0  0
  162.0570  208.3840  155.0050 O   0  0  0  0  0  0  0  0  0  0  0  0
  162.6630  206.5990  153.5110 O   0  0  0  0  0  1  0  0  0  0  0  0
  160.2670  206.8490  154.1730 C   0  0  1  0  0  3  0  0  0  0  0  0
  159.9950  209.1590  153.2630 O   0  0  0  0  0  0  0  0  0  0  0  0
  160.2070  205.3980  153.7110 C   0  0  0  0  0  1  0  0  0  0  0  0
  161.2770  211.7430  156.3140 C   0  0  0  0  0  3  0  0  0  0  0  0
  161.6660  207.4510  153.9980 C   0  0  2  0  0  0  0  0  0  0  0  0
  159.8070  211.2760  154.4350 C   0  0  0  0  0  0  0  0  0  0  0  0
  161.4500  209.6310  155.1480 C   0  0  0  0  0  0  0  0  0  0  0  0
  160.2460  212.1310  155.4550 C   0  0  0  0  0  3  0  0  0  0  0  0
  158.7480  211.6550  153.5440 N   0  0  0  0  0  2  0  0  0  0  0  0
  157.4810  213.0890  151.6720 O   0  0  0  0  0  0  0  0  0  0  0  0
  158.8850  214.2830  153.2780 O   0  0  0  0  0  0  0  0  0  0  0  0
  158.7510  213.0220  152.4720 S   0  0  0  0  0  0  0  0  0  0  0  0
  160.1180  212.8790  151.3430 C   0  0  0  0  0  2  0  0  0  0  0  0
  161.5470  212.2030  149.1800 O   0  0  0  0  0  1  0  0  0  0  0  0
  160.9510  214.3600  149.6620 O   0  0  0  0  0  0  0  0  0  0  0  0
  159.8110  213.6340  150.0560 C   0  0  1  0  0  3  0  0  0  0  0  0
  160.6430  213.2290  148.8840 C   0  0  2  0  0  3  0  0  0  0  0  0
  2  1  2  0  0  0  0
  3 12  1  0  0  0  0
  3 19  1  1  0  0  0
  4  5  1  1  0  0  0
  4 12  1  0  0  0  0
  6 10  1  0  0  0  0
  9 21  1  0  0  0  0
  9 15  1  1  0  0  0
 10  4  1  0  0  0  0
 11 17  1  0  0  0  0
 12  1  1  6  0  0  0
 13 19  1  0  0  0  0
 14 23  1  6  0  0  0
 14  9  1  0  0  0  0
 15 13  1  0  0  0  0
 16 11  2  0  0  0  0
 17  6  1  1  0  0  0
 17  8  1  0  0  0  0
 17 21  1  0  0  0  0
 18  7  1  1  0  0  0
 18 11  1  0  0  0  0
 18 20  1  0  0  0  0
 20 14  1  0  0  0  0
 21  8  1  1  0  0  0
 21  3  1  0  0  0  0
 23 22  1  0  0  0  0
 24  1  1  6  0  0  0
 24 30  1  0  0  0  0
 24 33  1  0  0  0  0
 24 29  1  0  0  0  0
 25 32  1  0  0  0  0
 26 34  2  0  0  0  0
 26 35  1  0  0  0  0
 27 35  1  0  0  0  0
 29 31  1  6  0  0  0
 30 26  1  0  0  0  0
 33 28  1  6  0  0  0
 33 29  1  0  0  0  0
 33 27  1  0  0  0  0
 34 36  1  0  0  0  0
 35 25  2  0  0  0  0
 36 32  2  0  0  0  0
 37 34  1  0  0  0  0
 38 40  2  0  0  0  0
 40 39  2  0  0  0  0
 40 37  1  0  0  0  0
 41 40  1  0  0  0  0
 43 44  1  0  0  0  0
 44 41  1  1  0  0  0
 45 42  1  1  0  0  0
 45 43  1  0  0  0  0
 45 44  1  0  0  0  0
M  END
>  <MODEL>
2

>  <REMARK>
 VINA RESULT:      -1.7      2.331      7.831
  Name = 
  7 active torsions:
  status: ('A' for Active; 'I' for Inactive)
    1  A    between atoms: C_1  and  C_11
    2  A    between atoms: C_11  and  C_25
    3  A    between atoms: C_23  and  C_31
    4  A    between atoms: C_23  and  S_32
    5  A    between atoms: C_29  and  C_34
    6  A    between atoms: S_32  and  N_35
    7  A    between atoms: N_35  and  C_39
                            x       y       z     vdW  Elec       q    Type
                         _______ _______ _______ _____ _____    ______ ____

>  <TORSDO>
F 7

$$$$
=
 OpenBabel11072412023D

 45 52  0  0  1  0  0  0  0  0999 V2000
  160.6930  207.2610  151.4620 C   0  0  0  0  0  0  0  0  0  0  0  0
  159.7000  207.3460  150.7570 O   0  0  0  0  0  0  0  0  0  0  0  0
  161.8670  205.3180  150.1990 C   0  0  1  0  0  3  0  0  0  0  0  0
  162.9770  207.6530  150.2530 C   0  0  2  0  0  3  0  0  0  0  0  0
  163.0200  209.0210  150.9150 C   0  0  0  0  0  1  0  0  0  0  0  0
  161.4250  207.7940  148.2610 C   0  0  0  0  0  2  0  0  0  0  0  0
  160.8590  204.2050  144.9990 O   0  0  0  0  0  1  0  0  0  0  0  0
  159.7630  205.9780  148.7670 C   0  0  0  0  0  2  0  0  0  0  0  0
  160.9760  203.8070  148.2470 C   0  0  1  0  0  3  0  0  0  0  0  0
  162.8680  207.7720  148.7330 C   0  0  0  0  0  2  0  0  0  0  0  0
  160.7260  206.1060  146.4380 C   0  0  0  0  0  0  0  0  0  0  0  0
  161.9790  206.6780  150.9110 C   0  0  1  0  0  3  0  0  0  0  0  0
  161.5900  202.8440  150.5050 C   0  0  0  0  0  2  0  0  0  0  0  0
  162.2540  203.4310  147.4750 C   0  0  2  0  0  3  0  0  0  0  0  0
  160.6320  202.7650  149.3180 C   0  0  0  0  0  2  0  0  0  0  0  0
  159.8230  206.6850  145.8540 O   0  0  0  0  0  0  0  0  0  0  0  0
  160.9520  206.3920  147.9020 C   0  0  1  0  0  0  0  0  0  0  0  0
  161.6180  205.1740  145.6560 C   0  0  1  0  0  3  0  0  0  0  0  0
  161.4840  204.2080  151.1760 C   0  0  0  0  0  2  0  0  0  0  0  0
  162.7270  204.5250  146.4980 C   0  0  0  0  0  2  0  0  0  0  0  0
  161.0660  205.2090  148.8720 C   0  0  2  0  0  0  0  0  0  0  0  0
  160.5990  201.7890  146.5730 C   0  0  0  0  0  1  0  0  0  0  0  0
  162.0750  202.1030  146.7470 C   0  0  0  0  0  2  0  0  0  0  0  0
  160.6040  207.6860  152.9050 C   0  0  2  0  0  0  0  0  0  0  0  0
  161.9340  210.3180  156.0190 C   0  0  0  0  0  3  0  0  0  0  0  0
  160.4410  209.8270  154.1710 C   0  0  0  0  0  0  0  0  0  0  0  0
  162.1400  208.2260  154.8370 O   0  0  0  0  0  0  0  0  0  0  0  0
  162.7550  206.4720  153.3090 O   0  0  0  0  0  1  0  0  0  0  0  0
  160.3700  206.6530  154.0300 C   0  0  1  0  0  3  0  0  0  0  0  0
  160.0170  208.9640  153.1540 O   0  0  0  0  0  0  0  0  0  0  0  0
  160.3370  205.2060  153.5540 C   0  0  0  0  0  1  0  0  0  0  0  0
  161.3050  211.5490  156.2010 C   0  0  0  0  0  3  0  0  0  0  0  0
  161.7480  207.2930  153.8290 C   0  0  2  0  0  0  0  0  0  0  0  0
  159.8030  211.0630  154.3520 C   0  0  0  0  0  0  0  0  0  0  0  0
  161.5050  209.4550  155.0080 C   0  0  0  0  0  0  0  0  0  0  0  0
  160.2440  211.9190  155.3720 C   0  0  0  0  0  3  0  0  0  0  0  0
  158.7130  211.4240  153.4920 N   0  0  0  0  0  2  0  0  0  0  0  0
  158.8950  214.0580  153.9330 O   0  0  0  0  0  0  0  0  0  0  0  0
  157.7790  213.3110  151.8900 O   0  0  0  0  0  0  0  0  0  0  0  0
  158.0030  213.0030  153.3440 S   0  0  0  0  0  0  0  0  0  0  0  0
  156.4510  213.0300  154.2130 C   0  0  0  0  0  2  0  0  0  0  0  0
  155.5690  210.6960  155.1870 O   0  0  0  0  0  1  0  0  0  0  0  0
  155.4370  212.6640  156.3460 O   0  0  0  0  0  0  0  0  0  0  0  0
  156.6810  212.7770  155.6970 C   0  0  1  0  0  3  0  0  0  0  0  0
  156.1600  211.4680  156.1930 C   0  0  2  0  0  3  0  0  0  0  0  0
  2  1  2  0  0  0  0
  3 12  1  0  0  0  0
  3 19  1  1  0  0  0
  4 12  1  0  0  0  0
  4  5  1  1  0  0  0
  6 10  1  0  0  0  0
  9 21  1  0  0  0  0
  9 15  1  1  0  0  0
 10  4  1  0  0  0  0
 11 17  1  0  0  0  0
 12  1  1  6  0  0  0
 13 19  1  0  0  0  0
 14 23  1  6  0  0  0
 14  9  1  0  0  0  0
 15 13  1  0  0  0  0
 16 11  2  0  0  0  0
 17  6  1  1  0  0  0
 17  8  1  0  0  0  0
 17 21  1  0  0  0  0
 18  7  1  1  0  0  0
 18 11  1  0  0  0  0
 18 20  1  0  0  0  0
 20 14  1  0  0  0  0
 21  8  1  1  0  0  0
 21  3  1  0  0  0  0
 22 23  1  0  0  0  0
 24  1  1  6  0  0  0
 24 30  1  0  0  0  0
 24 33  1  0  0  0  0
 24 29  1  0  0  0  0
 25 32  1  0  0  0  0
 26 34  2  0  0  0  0
 26 35  1  0  0  0  0
 27 35  1  0  0  0  0
 29 31  1  6  0  0  0
 30 26  1  0  0  0  0
 33 28  1  6  0  0  0
 33 29  1  0  0  0  0
 33 27  1  0  0  0  0
 34 36  1  0  0  0  0
 35 25  2  0  0  0  0
 36 32  2  0  0  0  0
 37 34  1  0  0  0  0
 39 40  2  0  0  0  0
 40 37  1  0  0  0  0
 40 38  2  0  0  0  0
 40 41  1  0  0  0  0
 44 41  1  6  0  0  0
 44 45  1  0  0  0  0
 44 43  1  0  0  0  0
 45 42  1  6  0  0  0
 45 43  1  0  0  0  0
M  END
>  <MODEL>
3

>  <REMARK>
 VINA RESULT:      -1.4      2.794      8.381
  Name = 
  7 active torsions:
  status: ('A' for Active; 'I' for Inactive)
    1  A    between atoms: C_1  and  C_11
    2  A    between atoms: C_11  and  C_25
    3  A    between atoms: C_23  and  C_31
    4  A    between atoms: C_23  and  S_32
    5  A    between atoms: C_29  and  C_34
    6  A    between atoms: S_32  and  N_35
    7  A    between atoms: N_35  and  C_39
                            x       y       z     vdW  Elec       q    Type
                         _______ _______ _______ _____ _____    ______ ____

>  <TORSDO>
F 7

$$$$
=
 OpenBabel11072412023D

 45 52  0  0  1  0  0  0  0  0999 V2000
  160.7760  208.9160  154.2740 C   0  0  0  0  0  0  0  0  0  0  0  0
  160.0780  208.2930  155.0580 O   0  0  0  0  0  0  0  0  0  0  0  0
  159.8490  211.3040  153.8460 C   0  0  1  0  0  3  0  0  0  0  0  0
  161.5390  210.9230  155.7640 C   0  0  2  0  0  3  0  0  0  0  0  0
  162.5770  209.9930  156.3740 C   0  0  0  0  0  1  0  0  0  0  0  0
  159.3100  210.4270  156.8490 C   0  0  0  0  0  2  0  0  0  0  0  0
  155.2880  213.1050  156.1380 O   0  0  0  0  0  1  0  0  0  0  0  0
  157.8680  209.9030  154.8580 C   0  0  0  0  0  2  0  0  0  0  0  0
  157.3670  212.1550  153.7930 C   0  0  1  0  0  3  0  0  0  0  0  0
  160.5060  211.3610  156.8020 C   0  0  0  0  0  2  0  0  0  0  0  0
  156.9580  211.4670  156.6180 C   0  0  0  0  0  0  0  0  0  0  0  0
  160.9580  210.4130  154.4300 C   0  0  1  0  0  3  0  0  0  0  0  0
  158.8540  212.2570  151.7490 C   0  0  0  0  0  2  0  0  0  0  0  0
  157.4820  213.6230  154.2430 C   0  0  2  0  0  3  0  0  0  0  0  0
  157.4380  212.0210  152.2670 C   0  0  0  0  0  2  0  0  0  0  0  0
  156.2510  210.7000  157.2540 O   0  0  0  0  0  0  0  0  0  0  0  0
  158.1950  210.9300  155.9410 C   0  0  1  0  0  0  0  0  0  0  0  0
  156.5980  212.9310  156.5850 C   0  0  1  0  0  3  0  0  0  0  0  0
  159.8040  211.2120  152.3220 C   0  0  0  0  0  2  0  0  0  0  0  0
  157.5760  213.7920  155.7710 C   0  0  0  0  0  2  0  0  0  0  0  0
  158.4220  211.2570  154.4590 C   0  0  2  0  0  0  0  0  0  0  0  0
  155.1060  213.5840  153.4710 C   0  0  0  0  0  1  0  0  0  0  0  0
  156.3340  214.4530  153.6800 C   0  0  0  0  0  2  0  0  0  0  0  0
  161.4020  208.1860  153.1140 C   0  0  2  0  0  0  0  0  0  0  0  0
  161.0310  206.7260  149.0980 C   0  0  0  0  0  3  0  0  0  0  0  0
  161.5990  208.5030  150.6500 C   0  0  0  0  0  0  0  0  0  0  0  0
  160.8230  206.3550  151.4720 O   0  0  0  0  0  0  0  0  0  0  0  0
  160.0260  206.1900  153.7360 O   0  0  0  0  0  1  0  0  0  0  0  0
  162.3580  206.9940  153.3400 C   0  0  1  0  0  3  0  0  0  0  0  0
  161.7120  208.9740  151.9630 O   0  0  0  0  0  0  0  0  0  0  0  0
  162.5190  206.5900  154.8010 C   0  0  0  0  0  1  0  0  0  0  0  0
  161.3590  207.5560  148.0260 C   0  0  0  0  0  3  0  0  0  0  0  0
  160.9290  206.7660  152.8350 C   0  0  2  0  0  0  0  0  0  0  0  0
  161.9320  209.3410  149.5740 C   0  0  0  0  0  0  0  0  0  0  0  0
  161.1520  207.1940  150.4080 C   0  0  0  0  0  0  0  0  0  0  0  0
  161.8080  208.8580  148.2640 C   0  0  0  0  0  3  0  0  0  0  0  0
  162.3940  210.6730  149.8400 N   0  0  0  0  0  2  0  0  0  0  0  0
  161.7560  213.2730  149.7790 O   0  0  0  0  0  0  0  0  0  0  0  0
  163.2110  212.4060  148.0150 O   0  0  0  0  0  0  0  0  0  0  0  0
  162.0360  212.0890  148.8980 S   0  0  0  0  0  0  0  0  0  0  0  0
  160.5960  211.7800  147.8990 C   0  0  0  0  0  2  0  0  0  0  0  0
  158.2740  212.6300  146.8710 O   0  0  0  0  0  1  0  0  0  0  0  0
  160.0150  211.8880  145.5830 O   0  0  0  0  0  0  0  0  0  0  0  0
  160.6740  212.5890  146.6110 C   0  0  1  0  0  3  0  0  0  0  0  0
  159.3520  213.0280  146.0720 C   0  0  2  0  0  3  0  0  0  0  0  0
  1  2  2  0  0  0  0
  3 19  1  6  0  0  0
  3 12  1  0  0  0  0
  3 21  1  0  0  0  0
  4  5  1  1  0  0  0
  4 10  1  0  0  0  0
  9 15  1  6  0  0  0
  9 14  1  0  0  0  0
  9 21  1  0  0  0  0
 10  6  1  0  0  0  0
 11 16  2  0  0  0  0
 12  1  1  1  0  0  0
 12  4  1  0  0  0  0
 13 15  1  0  0  0  0
 13 19  1  0  0  0  0
 14 23  1  1  0  0  0
 14 20  1  0  0  0  0
 17  8  1  6  0  0  0
 17 11  1  0  0  0  0
 17  6  1  0  0  0  0
 18  7  1  6  0  0  0
 18 11  1  0  0  0  0
 20 18  1  0  0  0  0
 21  8  1  6  0  0  0
 21 17  1  0  0  0  0
 22 23  1  0  0  0  0
 24 29  1  0  0  0  0
 24  1  1  1  0  0  0
 25 35  1  0  0  0  0
 26 30  1  0  0  0  0
 27 33  1  0  0  0  0
 29 31  1  1  0  0  0
 30 24  1  0  0  0  0
 32 36  1  0  0  0  0
 32 25  2  0  0  0  0
 33 24  1  0  0  0  0
 33 29  1  0  0  0  0
 33 28  1  1  0  0  0
 34 37  1  0  0  0  0
 34 26  1  0  0  0  0
 35 26  2  0  0  0  0
 35 27  1  0  0  0  0
 36 34  2  0  0  0  0
 39 40  2  0  0  0  0
 40 38  2  0  0  0  0
 40 37  1  0  0  0  0
 41 40  1  0  0  0  0
 43 45  1  0  0  0  0
 43 44  1  0  0  0  0
 44 41  1  1  0  0  0
 45 44  1  0  0  0  0
 45 42  1  1  0  0  0
M  END
>  <MODEL>
4

>  <REMARK>
 VINA RESULT:      -0.8      2.447      4.202
  Name = 
  7 active torsions:
  status: ('A' for Active; 'I' for Inactive)
    1  A    between atoms: C_1  and  C_11
    2  A    between atoms: C_11  and  C_25
    3  A    between atoms: C_23  and  C_31
    4  A    between atoms: C_23  and  S_32
    5  A    between atoms: C_29  and  C_34
    6  A    between atoms: S_32  and  N_35
    7  A    between atoms: N_35  and  C_39
                            x       y       z     vdW  Elec       q    Type
                         _______ _______ _______ _____ _____    ______ ____

>  <TORSDO>
F 7

$$$$
