=
 OpenBabel11072411293D

 35 37  0  0  1  0  0  0  0  0999 V2000
  161.4790  210.1620  152.5170 C   0  0  0  0  0  0  0  0  0  0  0  0
  158.8330  210.9370  153.9800 C   0  0  0  0  0  2  0  0  0  0  0  0
  160.1010  212.0990  152.0830 C   0  0  1  0  0  3  0  0  0  0  0  0
  160.6860  210.8140  151.7230 N   0  0  0  0  0  0  0  0  0  0  0  0
  161.1430  210.4950  155.0280 C   0  0  1  0  0  3  0  0  0  0  0  0
  161.8790  210.7120  153.7790 N   0  0  0  0  0  2  0  0  0  0  0  0
  159.8700  212.9130  150.8260 C   0  0  0  0  0  1  0  0  0  0  0  0
  159.8400  211.3060  155.0790 C   0  0  1  0  0  3  0  0  0  0  0  0
  158.7680  211.9110  152.8000 C   0  0  0  0  0  2  0  0  0  0  0  0
  162.0820  208.8780  152.0590 C   0  0  0  0  0  2  0  0  0  0  0  0
  161.6370  205.5260  151.5070 N   0  0  0  0  0  0  0  0  0  0  0  0
  161.5430  206.3610  153.7090 O   0  0  0  0  0  0  0  0  0  0  0  0
  160.9970  207.4190  150.4710 O   0  0  0  0  0  0  0  0  0  0  0  0
  161.0080  207.8200  151.8320 C   0  0  1  0  0  3  0  0  0  0  0  0
  161.4150  206.5440  152.4710 C   0  0  0  0  0  0  0  0  0  0  0  0
  161.3760  206.0820  150.3680 C   0  0  0  0  0  0  0  0  0  0  0  0
  161.4830  205.3610  149.0820 C   0  0  0  0  0  0  0  0  0  0  0  0
  162.2730  207.3500  147.9050 O   0  0  0  0  0  1  0  0  0  0  0  0
  161.1420  204.0000  149.0260 C   0  0  0  0  0  3  0  0  0  0  0  0
  162.0030  205.2900  146.7050 C   0  0  0  0  0  3  0  0  0  0  0  0
  161.2290  203.2920  147.8250 C   0  0  0  0  0  0  0  0  0  0  0  0
  161.9200  206.0050  147.9040 C   0  0  0  0  0  0  0  0  0  0  0  0
  161.6590  203.9370  146.6660 C   0  0  0  0  0  3  0  0  0  0  0  0
  160.8640  201.8520  147.7830 C   0  0  0  0  0  1  0  0  0  0  0  0
  160.1060  212.6810  155.1360 O   0  0  0  0  0  0  0  0  0  0  0  0
  157.7860  214.1390  155.4570 O   0  0  0  0  0  0  0  0  0  0  0  0
  158.3810  212.1120  157.2200 O   0  0  0  0  0  1  0  0  0  0  0  0
  159.0370  213.3560  156.2810 P   0  0  0  0  0  0  0  0  0  0  0  0
  159.7220  214.3530  157.1910 O   0  0  0  0  0  1  0  0  0  0  0  0
  160.9670  208.9930  155.3510 C   0  0  2  0  0  3  0  0  0  0  0  0
  159.5780  208.6700  155.9320 C   0  0  0  0  0  3  0  0  0  0  0  0
  159.4870  209.0910  157.2610 O   0  0  0  0  0  1  0  0  0  0  0  0
  159.3370  207.2960  155.8850 O   0  0  0  0  0  1  0  0  0  0  0  0
  162.0710  208.5160  156.3030 C   0  0  0  0  0  2  0  0  0  0  0  0
  162.7280  209.6000  156.8920 O   0  0  0  0  0  1  0  0  0  0  0  0
  1  6  1  0  0  0  0
  2  8  1  0  0  0  0
  3  7  1  6  0  0  0
  3  9  1  0  0  0  0
  4  3  1  0  0  0  0
  4  1  2  0  0  0  0
  5  8  1  0  0  0  0
  5 30  1  6  0  0  0
  6  5  1  0  0  0  0
  8 25  1  6  0  0  0
  9  2  1  0  0  0  0
 10  1  1  0  0  0  0
 11 15  1  0  0  0  0
 13 14  1  0  0  0  0
 14 10  1  6  0  0  0
 14 15  1  0  0  0  0
 15 12  2  0  0  0  0
 16 13  1  0  0  0  0
 16 11  2  0  0  0  0
 17 16  1  0  0  0  0
 19 17  1  0  0  0  0
 20 22  1  0  0  0  0
 21 19  2  0  0  0  0
 22 18  1  0  0  0  0
 22 17  2  0  0  0  0
 23 20  2  0  0  0  0
 23 21  1  0  0  0  0
 24 21  1  0  0  0  0
 25 28  1  0  0  0  0
 26 28  2  0  0  0  0
 28 29  1  0  0  0  0
 28 27  1  0  0  0  0
 30 31  1  0  0  0  0
 30 34  1  1  0  0  0
 31 32  1  0  0  0  0
 33 31  1  0  0  0  0
 34 35  1  0  0  0  0
M  END
>  <MODEL>
1

>  <REMARK>
 VINA RESULT:      -7.5      0.000      0.000
  Name = 
  8 active torsions:
  status: ('A' for Active; 'I' for Inactive)
    1  A    between atoms: C_2  and  C_23
    2  A    between atoms: C_4  and  C_18
    3  A    between atoms: P_10  and  O_27
    4  A    between atoms: C_16  and  C_18
    5  A    between atoms: C_19  and  C_33
    6  A    between atoms: C_20  and  C_33
    7  A    between atoms: C_25  and  C_33
    8  A    between atoms: O_27  and  C_30
                            x       y       z     vdW  Elec       q    Type
                         _______ _______ _______ _____ _____    ______ ____

>  <TORSDO>
F 8

$$$$
=
 OpenBabel11072411293D

 35 37  0  0  1  0  0  0  0  0999 V2000
  161.0080  206.8280  153.2830 C   0  0  0  0  0  0  0  0  0  0  0  0
  161.9480  209.5760  154.4260 C   0  0  0  0  0  2  0  0  0  0  0  0
  160.5650  207.7030  155.4920 C   0  0  1  0  0  3  0  0  0  0  0  0
  161.1800  206.7590  154.5670 N   0  0  0  0  0  0  0  0  0  0  0  0
  160.5790  209.1430  152.2890 C   0  0  1  0  0  3  0  0  0  0  0  0
  160.1370  207.8090  152.7050 N   0  0  0  0  0  2  0  0  0  0  0  0
  160.3230  207.0150  156.8200 C   0  0  0  0  0  1  0  0  0  0  0  0
  160.8350  210.0670  153.4890 C   0  0  1  0  0  3  0  0  0  0  0  0
  161.4670  208.9120  155.7190 C   0  0  0  0  0  2  0  0  0  0  0  0
  161.6270  205.7970  152.4030 C   0  0  0  0  0  2  0  0  0  0  0  0
  161.1880  202.9190  150.5970 N   0  0  0  0  0  0  0  0  0  0  0  0
  160.9530  202.8630  152.9420 O   0  0  0  0  0  0  0  0  0  0  0  0
  160.6380  205.0830  150.3190 O   0  0  0  0  0  0  0  0  0  0  0  0
  160.5610  204.9410  151.7300 C   0  0  1  0  0  3  0  0  0  0  0  0
  160.9110  203.5040  151.8600 C   0  0  0  0  0  0  0  0  0  0  0  0
  161.0100  203.8710  149.7400 C   0  0  0  0  0  0  0  0  0  0  0  0
  161.1980  203.6850  148.2860 C   0  0  0  0  0  0  0  0  0  0  0  0
  160.4290  201.3680  148.3710 O   0  0  0  0  0  1  0  0  0  0  0  0
  161.6760  204.7540  147.5120 C   0  0  0  0  0  3  0  0  0  0  0  0
  161.1050  202.3190  146.2740 C   0  0  0  0  0  3  0  0  0  0  0  0
  161.8680  204.6080  146.1360 C   0  0  0  0  0  0  0  0  0  0  0  0
  160.9090  202.4570  147.6520 C   0  0  0  0  0  0  0  0  0  0  0  0
  161.5820  203.3910  145.5180 C   0  0  0  0  0  3  0  0  0  0  0  0
  162.3760  205.7500  145.3320 C   0  0  0  0  0  1  0  0  0  0  0  0
  159.6410  210.3570  154.1630 O   0  0  0  0  0  0  0  0  0  0  0  0
  157.6550  212.2390  153.8110 O   0  0  0  0  0  1  0  0  0  0  0  0
  159.8870  212.8680  155.2910 O   0  0  0  0  0  1  0  0  0  0  0  0
  159.3260  212.0180  153.9420 P   0  0  0  0  0  0  0  0  0  0  0  0
  159.9910  212.5700  152.6980 O   0  0  0  0  0  0  0  0  0  0  0  0
  161.7460  209.0850  151.2760 C   0  0  2  0  0  3  0  0  0  0  0  0
  162.2470  210.4820  150.8660 C   0  0  0  0  0  3  0  0  0  0  0  0
  162.2320  210.6250  149.4770 O   0  0  0  0  0  1  0  0  0  0  0  0
  163.5530  210.6830  151.3170 O   0  0  0  0  0  1  0  0  0  0  0  0
  161.3410  208.2750  150.0370 C   0  0  0  0  0  2  0  0  0  0  0  0
  162.4310  207.5630  149.5270 O   0  0  0  0  0  1  0  0  0  0  0  0
  1  4  2  0  0  0  0
  2  9  1  0  0  0  0
  3  9  1  0  0  0  0
  3  7  1  1  0  0  0
  4  3  1  0  0  0  0
  5 30  1  1  0  0  0
  5  6  1  0  0  0  0
  5  8  1  0  0  0  0
  6  1  1  0  0  0  0
  8 25  1  1  0  0  0
  8  2  1  0  0  0  0
 10  1  1  0  0  0  0
 11 15  1  0  0  0  0
 13 14  1  0  0  0  0
 14 15  1  0  0  0  0
 14 10  1  1  0  0  0
 15 12  2  0  0  0  0
 16 13  1  0  0  0  0
 16 11  2  0  0  0  0
 17 16  1  0  0  0  0
 19 17  2  0  0  0  0
 20 22  2  0  0  0  0
 21 19  1  0  0  0  0
 22 17  1  0  0  0  0
 22 18  1  0  0  0  0
 23 21  2  0  0  0  0
 23 20  1  0  0  0  0
 24 21  1  0  0  0  0
 26 28  1  0  0  0  0
 28 25  1  0  0  0  0
 28 27  1  0  0  0  0
 29 28  2  0  0  0  0
 30 34  1  6  0  0  0
 31 30  1  0  0  0  0
 31 33  1  0  0  0  0
 32 31  1  0  0  0  0
 35 34  1  0  0  0  0
M  END
>  <MODEL>
2

>  <REMARK>
 VINA RESULT:      -6.9      2.318      4.424
  Name = 
  8 active torsions:
  status: ('A' for Active; 'I' for Inactive)
    1  A    between atoms: C_2  and  C_23
    2  A    between atoms: C_4  and  C_18
    3  A    between atoms: P_10  and  O_27
    4  A    between atoms: C_16  and  C_18
    5  A    between atoms: C_19  and  C_33
    6  A    between atoms: C_20  and  C_33
    7  A    between atoms: C_25  and  C_33
    8  A    between atoms: O_27  and  C_30
                            x       y       z     vdW  Elec       q    Type
                         _______ _______ _______ _____ _____    ______ ____

>  <TORSDO>
F 8

$$$$
=
 OpenBabel11072411293D

 35 37  0  0  1  0  0  0  0  0999 V2000
  161.0330  207.2330  153.0500 C   0  0  0  0  0  0  0  0  0  0  0  0
  161.9130  209.8630  154.4830 C   0  0  0  0  0  2  0  0  0  0  0  0
  160.5670  207.8590  155.3370 C   0  0  1  0  0  3  0  0  0  0  0  0
  161.2040  207.0320  154.3210 N   0  0  0  0  0  0  0  0  0  0  0  0
  160.5580  209.6300  152.3060 C   0  0  1  0  0  3  0  0  0  0  0  0
  160.1430  208.2510  152.5750 N   0  0  0  0  0  2  0  0  0  0  0  0
  160.3370  207.0300  156.5840 C   0  0  0  0  0  1  0  0  0  0  0  0
  160.7920  210.4270  153.5970 C   0  0  1  0  0  3  0  0  0  0  0  0
  161.4430  209.0550  155.6960 C   0  0  0  0  0  2  0  0  0  0  0  0
  161.6760  206.3130  152.0690 C   0  0  0  0  0  2  0  0  0  0  0  0
  161.3750  203.3440  150.3860 N   0  0  0  0  0  0  0  0  0  0  0  0
  161.1800  203.3700  152.7350 O   0  0  0  0  0  0  0  0  0  0  0  0
  160.6960  205.4610  150.0330 O   0  0  0  0  0  0  0  0  0  0  0  0
  160.6500  205.3710  151.4490 C   0  0  1  0  0  3  0  0  0  0  0  0
  161.0840  203.9640  151.6300 C   0  0  0  0  0  0  0  0  0  0  0  0
  161.1290  204.2500  149.4960 C   0  0  0  0  0  0  0  0  0  0  0  0
  161.3040  204.0160  148.0470 C   0  0  0  0  0  0  0  0  0  0  0  0
  162.3180  206.2110  147.7030 O   0  0  0  0  0  1  0  0  0  0  0  0
  160.8830  202.7970  147.4920 C   0  0  0  0  0  3  0  0  0  0  0  0
  162.0260  204.7320  145.8350 C   0  0  0  0  0  3  0  0  0  0  0  0
  161.0310  202.5480  146.1250 C   0  0  0  0  0  0  0  0  0  0  0  0
  161.8820  204.9890  147.2030 C   0  0  0  0  0  0  0  0  0  0  0  0
  161.6020  203.5160  145.2980 C   0  0  0  0  0  3  0  0  0  0  0  0
  160.5810  201.2530  145.5530 C   0  0  0  0  0  1  0  0  0  0  0  0
  159.5910  210.6190  154.2930 O   0  0  0  0  0  0  0  0  0  0  0  0
  157.7190  212.6030  154.7070 O   0  0  0  0  0  1  0  0  0  0  0  0
  160.2350  212.8510  155.7910 O   0  0  0  0  0  1  0  0  0  0  0  0
  159.3620  212.3020  154.4520 P   0  0  0  0  0  0  0  0  0  0  0  0
  159.8140  213.0630  153.2220 O   0  0  0  0  0  0  0  0  0  0  0  0
  161.7290  209.7040  151.2970 C   0  0  2  0  0  3  0  0  0  0  0  0
  161.9140  211.1120  150.7030 C   0  0  0  0  0  3  0  0  0  0  0  0
  160.7100  211.8200  150.7250 O   0  0  0  0  0  1  0  0  0  0  0  0
  162.3550  211.0300  149.3810 O   0  0  0  0  0  1  0  0  0  0  0  0
  161.5390  208.6700  150.1790 C   0  0  0  0  0  2  0  0  0  0  0  0
  162.7470  208.0350  149.8750 O   0  0  0  0  0  1  0  0  0  0  0  0
  1  4  2  0  0  0  0
  2  9  1  0  0  0  0
  3  9  1  0  0  0  0
  3  7  1  1  0  0  0
  4  3  1  0  0  0  0
  5 30  1  1  0  0  0
  5  6  1  0  0  0  0
  5  8  1  0  0  0  0
  6  1  1  0  0  0  0
  8 25  1  1  0  0  0
  8  2  1  0  0  0  0
 10  1  1  0  0  0  0
 11 15  1  0  0  0  0
 13 14  1  0  0  0  0
 14 15  1  0  0  0  0
 14 10  1  1  0  0  0
 15 12  2  0  0  0  0
 16 13  1  0  0  0  0
 16 11  2  0  0  0  0
 17 16  1  0  0  0  0
 19 17  1  0  0  0  0
 20 22  1  0  0  0  0
 21 19  2  0  0  0  0
 22 18  1  0  0  0  0
 22 17  2  0  0  0  0
 23 20  2  0  0  0  0
 23 21  1  0  0  0  0
 24 21  1  0  0  0  0
 25 28  1  0  0  0  0
 28 26  1  0  0  0  0
 28 27  1  0  0  0  0
 29 28  2  0  0  0  0
 30 34  1  6  0  0  0
 31 32  1  0  0  0  0
 31 30  1  0  0  0  0
 33 31  1  0  0  0  0
 35 34  1  0  0  0  0
M  END
>  <MODEL>
3

>  <REMARK>
 VINA RESULT:      -6.7      2.046      3.965
  Name = 
  8 active torsions:
  status: ('A' for Active; 'I' for Inactive)
    1  A    between atoms: C_2  and  C_23
    2  A    between atoms: C_4  and  C_18
    3  A    between atoms: P_10  and  O_27
    4  A    between atoms: C_16  and  C_18
    5  A    between atoms: C_19  and  C_33
    6  A    between atoms: C_20  and  C_33
    7  A    between atoms: C_25  and  C_33
    8  A    between atoms: O_27  and  C_30
                            x       y       z     vdW  Elec       q    Type
                         _______ _______ _______ _____ _____    ______ ____

>  <TORSDO>
F 8

$$$$
=
 OpenBabel11072411293D

 35 37  0  0  1  0  0  0  0  0999 V2000
  161.0200  208.9400  151.6890 C   0  0  0  0  0  0  0  0  0  0  0  0
  159.6810  210.4420  154.0750 C   0  0  0  0  0  2  0  0  0  0  0  0
  160.8280  211.3330  151.9660 C   0  0  1  0  0  3  0  0  0  0  0  0
  160.5230  210.0730  151.3000 N   0  0  0  0  0  0  0  0  0  0  0  0
  161.5790  208.7050  154.1710 C   0  0  1  0  0  3  0  0  0  0  0  0
  161.9630  208.8760  152.7670 N   0  0  0  0  0  2  0  0  0  0  0  0
  160.7490  212.4630  150.9600 C   0  0  0  0  0  1  0  0  0  0  0  0
  160.9740  209.9850  154.7650 C   0  0  1  0  0  3  0  0  0  0  0  0
  159.8400  211.6080  153.0950 C   0  0  0  0  0  2  0  0  0  0  0  0
  160.7030  207.6990  150.9250 C   0  0  0  0  0  2  0  0  0  0  0  0
  161.5880  206.9370  147.7050 N   0  0  0  0  0  0  0  0  0  0  0  0
  161.8820  209.1370  148.4980 O   0  0  0  0  0  0  0  0  0  0  0  0
  161.7530  205.9050  149.6980 O   0  0  0  0  0  0  0  0  0  0  0  0
  161.8850  207.2700  150.0640 C   0  0  1  0  0  3  0  0  0  0  0  0
  161.7890  207.9030  148.7250 C   0  0  0  0  0  0  0  0  0  0  0  0
  161.5810  205.7980  148.3190 C   0  0  0  0  0  0  0  0  0  0  0  0
  161.3960  204.5120  147.6160 C   0  0  0  0  0  0  0  0  0  0  0  0
  161.5890  205.5570  145.4180 O   0  0  0  0  0  1  0  0  0  0  0  0
  161.2060  203.3400  148.3660 C   0  0  0  0  0  3  0  0  0  0  0  0
  161.2180  203.1920  145.5790 C   0  0  0  0  0  3  0  0  0  0  0  0
  161.0240  202.1090  147.7310 C   0  0  0  0  0  0  0  0  0  0  0  0
  161.4020  204.4280  146.2070 C   0  0  0  0  0  0  0  0  0  0  0  0
  161.0300  202.0360  146.3390 C   0  0  0  0  0  3  0  0  0  0  0  0
  160.8250  200.8780  148.5400 C   0  0  0  0  0  1  0  0  0  0  0  0
  161.9350  211.0010  154.8510 O   0  0  0  0  0  0  0  0  0  0  0  0
  164.0630  211.5200  156.5310 O   0  0  0  0  0  0  0  0  0  0  0  0
  161.5250  212.2950  157.2600 O   0  0  0  0  0  1  0  0  0  0  0  0
  162.4270  211.0950  156.4820 P   0  0  0  0  0  0  0  0  0  0  0  0
  162.2410  209.7830  157.2160 O   0  0  0  0  0  1  0  0  0  0  0  0
  160.7210  207.4370  154.3930 C   0  0  2  0  0  3  0  0  0  0  0  0
  160.0150  207.4310  155.7620 C   0  0  0  0  0  3  0  0  0  0  0  0
  160.8790  206.9790  156.7620 O   0  0  0  0  0  1  0  0  0  0  0  0
  158.8980  206.5940  155.7300 O   0  0  0  0  0  1  0  0  0  0  0  0
  161.5750  206.1740  154.2240 C   0  0  0  0  0  2  0  0  0  0  0  0
  160.9980  205.3000  153.2990 O   0  0  0  0  0  1  0  0  0  0  0  0
  1  6  1  0  0  0  0
  2  8  1  0  0  0  0
  3  7  1  6  0  0  0
  3  9  1  0  0  0  0
  4  1  2  0  0  0  0
  4  3  1  0  0  0  0
  5 30  1  6  0  0  0
  5  8  1  0  0  0  0
  6  5  1  0  0  0  0
  8 25  1  6  0  0  0
  9  2  1  0  0  0  0
 10  1  1  0  0  0  0
 11 16  2  0  0  0  0
 11 15  1  0  0  0  0
 12 15  2  0  0  0  0
 13 14  1  0  0  0  0
 14 10  1  1  0  0  0
 15 14  1  0  0  0  0
 16 13  1  0  0  0  0
 17 16  1  0  0  0  0
 17 19  1  0  0  0  0
 18 22  1  0  0  0  0
 20 22  1  0  0  0  0
 20 23  2  0  0  0  0
 21 19  2  0  0  0  0
 21 24  1  0  0  0  0
 22 17  2  0  0  0  0
 23 21  1  0  0  0  0
 25 28  1  0  0  0  0
 28 26  2  0  0  0  0
 28 29  1  0  0  0  0
 28 27  1  0  0  0  0
 30 34  1  1  0  0  0
 30 31  1  0  0  0  0
 31 32  1  0  0  0  0
 33 31  1  0  0  0  0
 35 34  1  0  0  0  0
M  END
>  <MODEL>
4

>  <REMARK>
 VINA RESULT:      -6.7      1.879      2.929
  Name = 
  8 active torsions:
  status: ('A' for Active; 'I' for Inactive)
    1  A    between atoms: C_2  and  C_23
    2  A    between atoms: C_4  and  C_18
    3  A    between atoms: P_10  and  O_27
    4  A    between atoms: C_16  and  C_18
    5  A    between atoms: C_19  and  C_33
    6  A    between atoms: C_20  and  C_33
    7  A    between atoms: C_25  and  C_33
    8  A    between atoms: O_27  and  C_30
                            x       y       z     vdW  Elec       q    Type
                         _______ _______ _______ _____ _____    ______ ____

>  <TORSDO>
F 8

$$$$
=
 OpenBabel11072411293D

 35 37  0  0  1  0  0  0  0  0999 V2000
  161.0490  207.5130  150.8770 C   0  0  0  0  0  0  0  0  0  0  0  0
  162.8090  206.3430  148.5800 C   0  0  0  0  0  2  0  0  0  0  0  0
  161.7660  208.6630  148.8760 C   0  0  1  0  0  3  0  0  0  0  0  0
  161.7570  208.4460  150.3160 N   0  0  0  0  0  0  0  0  0  0  0  0
  160.5900  205.4130  149.4970 C   0  0  1  0  0  3  0  0  0  0  0  0
  160.1760  206.6810  150.1030 N   0  0  0  0  0  2  0  0  0  0  0  0
  162.0300  210.1270  148.5920 C   0  0  0  0  0  1  0  0  0  0  0  0
  161.4870  205.6250  148.2690 C   0  0  1  0  0  3  0  0  0  0  0  0
  162.8500  207.8270  148.2030 C   0  0  0  0  0  2  0  0  0  0  0  0
  161.0510  207.3850  152.3620 C   0  0  0  0  0  2  0  0  0  0  0  0
  160.1310  209.6750  154.7370 N   0  0  0  0  0  0  0  0  0  0  0  0
  161.5690  207.9040  155.3300 O   0  0  0  0  0  0  0  0  0  0  0  0
  160.6910  209.7640  152.5600 O   0  0  0  0  0  0  0  0  0  0  0  0
  161.4900  208.6860  153.0230 C   0  0  1  0  0  3  0  0  0  0  0  0
  161.1010  208.6790  154.4560 C   0  0  0  0  0  0  0  0  0  0  0  0
  159.9320  210.2780  153.6100 C   0  0  0  0  0  0  0  0  0  0  0  0
  158.9800  211.3980  153.4570 C   0  0  0  0  0  0  0  0  0  0  0  0
  160.1950  212.3150  151.5470 O   0  0  0  0  0  1  0  0  0  0  0  0
  157.8920  211.5000  154.3380 C   0  0  0  0  0  3  0  0  0  0  0  0
  158.2170  213.4210  152.3380 C   0  0  0  0  0  3  0  0  0  0  0  0
  156.9780  212.5500  154.2220 C   0  0  0  0  0  0  0  0  0  0  0  0
  159.1370  212.3720  152.4470 C   0  0  0  0  0  0  0  0  0  0  0  0
  157.1410  213.5090  153.2230 C   0  0  0  0  0  3  0  0  0  0  0  0
  155.8310  212.6430  155.1620 C   0  0  0  0  0  1  0  0  0  0  0  0
  160.7730  206.2250  147.2230 O   0  0  0  0  0  0  0  0  0  0  0  0
  162.6310  205.9570  145.2010 O   0  0  0  0  0  1  0  0  0  0  0  0
  161.3260  203.7330  146.1610 O   0  0  0  0  0  1  0  0  0  0  0  0
  161.1600  205.3750  145.7950 P   0  0  0  0  0  0  0  0  0  0  0  0
  160.1010  205.5380  144.7240 O   0  0  0  0  0  0  0  0  0  0  0  0
  161.1670  204.4260  150.5380 C   0  0  2  0  0  3  0  0  0  0  0  0
  161.3860  203.0150  149.9620 C   0  0  0  0  0  3  0  0  0  0  0  0
  160.3370  202.6600  149.1100 O   0  0  0  0  0  1  0  0  0  0  0  0
  161.4590  202.0730  150.9900 O   0  0  0  0  0  1  0  0  0  0  0  0
  160.2650  204.3660  151.7780 C   0  0  0  0  0  2  0  0  0  0  0  0
  161.0250  204.3910  152.9510 O   0  0  0  0  0  1  0  0  0  0  0  0
  1 10  1  0  0  0  0
  3  7  1  1  0  0  0
  3  4  1  0  0  0  0
  4  1  2  0  0  0  0
  5  6  1  0  0  0  0
  5 30  1  1  0  0  0
  6  1  1  0  0  0  0
  8 25  1  6  0  0  0
  8  2  1  0  0  0  0
  8  5  1  0  0  0  0
  9  2  1  0  0  0  0
  9  3  1  0  0  0  0
 13 14  1  0  0  0  0
 13 16  1  0  0  0  0
 14 10  1  6  0  0  0
 14 15  1  0  0  0  0
 15 11  1  0  0  0  0
 15 12  2  0  0  0  0
 16 11  2  0  0  0  0
 17 16  1  0  0  0  0
 17 19  1  0  0  0  0
 18 22  1  0  0  0  0
 20 22  1  0  0  0  0
 20 23  2  0  0  0  0
 21 19  2  0  0  0  0
 21 24  1  0  0  0  0
 22 17  2  0  0  0  0
 23 21  1  0  0  0  0
 26 28  1  0  0  0  0
 28 27  1  0  0  0  0
 28 25  1  0  0  0  0
 29 28  2  0  0  0  0
 30 34  1  1  0  0  0
 31 30  1  0  0  0  0
 31 33  1  0  0  0  0
 32 31  1  0  0  0  0
 34 35  1  0  0  0  0
M  END
>  <MODEL>
5

>  <REMARK>
 VINA RESULT:      -6.3      3.395      8.613
  Name = 
  8 active torsions:
  status: ('A' for Active; 'I' for Inactive)
    1  A    between atoms: C_2  and  C_23
    2  A    between atoms: C_4  and  C_18
    3  A    between atoms: P_10  and  O_27
    4  A    between atoms: C_16  and  C_18
    5  A    between atoms: C_19  and  C_33
    6  A    between atoms: C_20  and  C_33
    7  A    between atoms: C_25  and  C_33
    8  A    between atoms: O_27  and  C_30
                            x       y       z     vdW  Elec       q    Type
                         _______ _______ _______ _____ _____    ______ ____

>  <TORSDO>
F 8

$$$$
=
 OpenBabel11072411293D

 35 37  0  0  1  0  0  0  0  0999 V2000
  160.3860  210.0770  152.9170 C   0  0  0  0  0  0  0  0  0  0  0  0
  160.3850  211.8150  155.5090 C   0  0  0  0  0  2  0  0  0  0  0  0
  160.6000  209.2830  155.1890 C   0  0  1  0  0  3  0  0  0  0  0  0
  161.1060  209.5240  153.8440 N   0  0  0  0  0  0  0  0  0  0  0  0
  158.5860  211.7250  153.6700 C   0  0  1  0  0  3  0  0  0  0  0  0
  159.0160  210.4240  153.1520 N   0  0  0  0  0  2  0  0  0  0  0  0
  161.2910  208.0690  155.7740 C   0  0  0  0  0  1  0  0  0  0  0  0
  158.8890  211.8810  155.1670 C   0  0  1  0  0  3  0  0  0  0  0  0
  160.8630  210.4830  156.0940 C   0  0  0  0  0  2  0  0  0  0  0  0
  160.9550  210.2430  151.5480 C   0  0  0  0  0  2  0  0  0  0  0  0
  161.9830  207.6230  149.5960 N   0  0  0  0  0  0  0  0  0  0  0  0
  162.5700  209.8230  148.9860 O   0  0  0  0  0  0  0  0  0  0  0  0
  161.7940  207.9940  151.8070 O   0  0  0  0  0  0  0  0  0  0  0  0
  162.1200  209.2870  151.3210 C   0  0  1  0  0  3  0  0  0  0  0  0
  162.2510  208.9890  149.8730 C   0  0  0  0  0  0  0  0  0  0  0  0
  161.7300  207.0910  150.7480 C   0  0  0  0  0  0  0  0  0  0  0  0
  161.3950  205.6610  150.9130 C   0  0  0  0  0  0  0  0  0  0  0  0
  161.5540  205.7910  153.3460 O   0  0  0  0  0  1  0  0  0  0  0  0
  161.1460  204.8780  149.7750 C   0  0  0  0  0  3  0  0  0  0  0  0
  161.0050  203.7010  152.3030 C   0  0  0  0  0  3  0  0  0  0  0  0
  160.8310  203.5220  149.8980 C   0  0  0  0  0  0  0  0  0  0  0  0
  161.3200  205.0590  152.1880 C   0  0  0  0  0  0  0  0  0  0  0  0
  160.7600  202.9350  151.1610 C   0  0  0  0  0  3  0  0  0  0  0  0
  160.5690  202.7070  148.6840 C   0  0  0  0  0  1  0  0  0  0  0  0
  158.1150  210.9970  155.9310 O   0  0  0  0  0  0  0  0  0  0  0  0
  157.1460  213.2180  157.2500 O   0  0  0  0  0  1  0  0  0  0  0  0
  155.8590  212.2960  155.0000 O   0  0  0  0  0  0  0  0  0  0  0  0
  156.7010  211.8320  156.3910 P   0  0  0  0  0  0  0  0  0  0  0  0
  155.7910  210.9890  157.2610 O   0  0  0  0  0  1  0  0  0  0  0  0
  159.0890  212.8990  152.7970 C   0  0  2  0  0  3  0  0  0  0  0  0
  158.4900  214.2530  153.2200 C   0  0  0  0  0  3  0  0  0  0  0  0
  158.6310  214.4480  154.5960 O   0  0  0  0  0  1  0  0  0  0  0  0
  157.1310  214.3060  152.9020 O   0  0  0  0  0  1  0  0  0  0  0  0
  158.8060  212.6260  151.3150 C   0  0  0  0  0  2  0  0  0  0  0  0
  159.6120  213.4220  150.4960 O   0  0  0  0  0  1  0  0  0  0  0  0
  1  6  1  0  0  0  0
  1  4  2  0  0  0  0
  2  9  1  0  0  0  0
  3  7  1  1  0  0  0
  3  9  1  0  0  0  0
  4  3  1  0  0  0  0
  5 30  1  6  0  0  0
  5  8  1  0  0  0  0
  6  5  1  0  0  0  0
  8  2  1  0  0  0  0
  8 25  1  1  0  0  0
 10  1  1  0  0  0  0
 11 15  1  0  0  0  0
 11 16  2  0  0  0  0
 12 15  2  0  0  0  0
 14 10  1  6  0  0  0
 14 13  1  0  0  0  0
 15 14  1  0  0  0  0
 16 17  1  0  0  0  0
 16 13  1  0  0  0  0
 17 22  1  0  0  0  0
 19 21  1  0  0  0  0
 19 17  2  0  0  0  0
 21 23  2  0  0  0  0
 22 20  2  0  0  0  0
 22 18  1  0  0  0  0
 23 20  1  0  0  0  0
 24 21  1  0  0  0  0
 25 28  1  0  0  0  0
 27 28  2  0  0  0  0
 28 26  1  0  0  0  0
 28 29  1  0  0  0  0
 30 34  1  6  0  0  0
 30 31  1  0  0  0  0
 31 32  1  0  0  0  0
 33 31  1  0  0  0  0
 35 34  1  0  0  0  0
M  END
>  <MODEL>
6

>  <REMARK>
 VINA RESULT:      -6.0      2.010      4.296
  Name = 
  8 active torsions:
  status: ('A' for Active; 'I' for Inactive)
    1  A    between atoms: C_2  and  C_23
    2  A    between atoms: C_4  and  C_18
    3  A    between atoms: P_10  and  O_27
    4  A    between atoms: C_16  and  C_18
    5  A    between atoms: C_19  and  C_33
    6  A    between atoms: C_20  and  C_33
    7  A    between atoms: C_25  and  C_33
    8  A    between atoms: O_27  and  C_30
                            x       y       z     vdW  Elec       q    Type
                         _______ _______ _______ _____ _____    ______ ____

>  <TORSDO>
F 8

$$$$
=
 OpenBabel11072411293D

 35 37  0  0  1  0  0  0  0  0999 V2000
  160.9430  208.8990  151.7670 C   0  0  0  0  0  0  0  0  0  0  0  0
  159.7900  210.6360  154.0900 C   0  0  0  0  0  2  0  0  0  0  0  0
  161.0590  211.3050  151.9690 C   0  0  1  0  0  3  0  0  0  0  0  0
  160.5990  210.0740  151.3380 N   0  0  0  0  0  0  0  0  0  0  0  0
  161.4480  208.6730  154.2620 C   0  0  1  0  0  3  0  0  0  0  0  0
  161.8610  208.7490  152.8580 N   0  0  0  0  0  2  0  0  0  0  0  0
  161.1340  212.4030  150.9280 C   0  0  0  0  0  1  0  0  0  0  0  0
  161.0080  210.0380  154.8100 C   0  0  1  0  0  3  0  0  0  0  0  0
  160.1060  211.7400  153.0780 C   0  0  0  0  0  2  0  0  0  0  0  0
  160.4750  207.6860  151.0380 C   0  0  0  0  0  2  0  0  0  0  0  0
  161.2290  205.7860  148.2900 N   0  0  0  0  0  0  0  0  0  0  0  0
  161.4470  208.1300  148.1740 O   0  0  0  0  0  0  0  0  0  0  0  0
  161.5530  205.5920  150.5080 O   0  0  0  0  0  0  0  0  0  0  0  0
  161.6310  206.9970  150.3230 C   0  0  1  0  0  3  0  0  0  0  0  0
  161.4310  207.0720  148.8540 C   0  0  0  0  0  0  0  0  0  0  0  0
  161.3150  204.9650  149.2860 C   0  0  0  0  0  0  0  0  0  0  0  0
  161.1610  203.5030  149.1350 C   0  0  0  0  0  0  0  0  0  0  0  0
  161.1420  203.1430  151.5500 O   0  0  0  0  0  1  0  0  0  0  0  0
  161.0930  202.9490  147.8470 C   0  0  0  0  0  3  0  0  0  0  0  0
  160.9440  201.2660  150.0690 C   0  0  0  0  0  3  0  0  0  0  0  0
  160.9530  201.5700  147.6710 C   0  0  0  0  0  0  0  0  0  0  0  0
  161.0830  202.6450  150.2540 C   0  0  0  0  0  0  0  0  0  0  0  0
  160.8780  200.7300  148.7820 C   0  0  0  0  0  3  0  0  0  0  0  0
  160.8820  200.9990  146.3010 C   0  0  0  0  0  1  0  0  0  0  0  0
  162.0920  210.9250  154.8770 O   0  0  0  0  0  0  0  0  0  0  0  0
  164.1850  211.4670  156.5900 O   0  0  0  0  0  0  0  0  0  0  0  0
  161.6330  212.2460  157.2610 O   0  0  0  0  0  1  0  0  0  0  0  0
  162.5520  211.0380  156.5150 P   0  0  0  0  0  0  0  0  0  0  0  0
  162.3530  209.7350  157.2610 O   0  0  0  0  0  1  0  0  0  0  0  0
  160.4320  207.5340  154.5130 C   0  0  2  0  0  3  0  0  0  0  0  0
  159.9440  207.4850  155.9720 C   0  0  0  0  0  3  0  0  0  0  0  0
  160.9740  207.0810  156.8250 O   0  0  0  0  0  1  0  0  0  0  0  0
  158.8840  206.5850  156.1020 O   0  0  0  0  0  1  0  0  0  0  0  0
  161.0270  206.1820  154.0990 C   0  0  0  0  0  2  0  0  0  0  0  0
  162.3860  206.3070  153.7930 O   0  0  0  0  0  1  0  0  0  0  0  0
  1  6  1  0  0  0  0
  2  8  1  0  0  0  0
  3  7  1  6  0  0  0
  3  9  1  0  0  0  0
  4  1  2  0  0  0  0
  4  3  1  0  0  0  0
  5 30  1  6  0  0  0
  5  8  1  0  0  0  0
  6  5  1  0  0  0  0
  8 25  1  6  0  0  0
  9  2  1  0  0  0  0
 10  1  1  0  0  0  0
 11 15  1  0  0  0  0
 11 16  2  0  0  0  0
 12 15  2  0  0  0  0
 14 13  1  0  0  0  0
 14 10  1  1  0  0  0
 15 14  1  0  0  0  0
 16 13  1  0  0  0  0
 17 16  1  0  0  0  0
 17 22  1  0  0  0  0
 19 17  2  0  0  0  0
 20 22  2  0  0  0  0
 21 19  1  0  0  0  0
 21 23  2  0  0  0  0
 22 18  1  0  0  0  0
 23 20  1  0  0  0  0
 24 21  1  0  0  0  0
 25 28  1  0  0  0  0
 28 26  2  0  0  0  0
 28 27  1  0  0  0  0
 28 29  1  0  0  0  0
 30 34  1  1  0  0  0
 30 31  1  0  0  0  0
 31 33  1  0  0  0  0
 31 32  1  0  0  0  0
 35 34  1  0  0  0  0
M  END
>  <MODEL>
7

>  <REMARK>
 VINA RESULT:      -5.8      1.930      3.190
  Name = 
  8 active torsions:
  status: ('A' for Active; 'I' for Inactive)
    1  A    between atoms: C_2  and  C_23
    2  A    between atoms: C_4  and  C_18
    3  A    between atoms: P_10  and  O_27
    4  A    between atoms: C_16  and  C_18
    5  A    between atoms: C_19  and  C_33
    6  A    between atoms: C_20  and  C_33
    7  A    between atoms: C_25  and  C_33
    8  A    between atoms: O_27  and  C_30
                            x       y       z     vdW  Elec       q    Type
                         _______ _______ _______ _____ _____    ______ ____

>  <TORSDO>
F 8

$$$$
=
 OpenBabel11072411293D

 35 37  0  0  1  0  0  0  0  0999 V2000
  160.7350  206.6210  148.5970 C   0  0  0  0  0  0  0  0  0  0  0  0
  162.6590  204.3650  147.6190 C   0  0  0  0  0  2  0  0  0  0  0  0
  161.0210  205.8480  146.3250 C   0  0  1  0  0  3  0  0  0  0  0  0
  161.1300  206.8450  147.3820 N   0  0  0  0  0  0  0  0  0  0  0  0
  160.8290  204.2040  149.4220 C   0  0  1  0  0  3  0  0  0  0  0  0
  160.1000  205.3860  148.9520 N   0  0  0  0  0  2  0  0  0  0  0  0
  160.8530  206.5480  144.9920 C   0  0  0  0  0  1  0  0  0  0  0  0
  161.5810  203.4980  148.2840 C   0  0  1  0  0  3  0  0  0  0  0  0
  162.2680  204.9720  146.2680 C   0  0  0  0  0  2  0  0  0  0  0  0
  160.8320  207.7080  149.6130 C   0  0  0  0  0  2  0  0  0  0  0  0
  162.0270  210.8990  149.9650 N   0  0  0  0  0  0  0  0  0  0  0  0
  162.4290  209.3160  151.6650 O   0  0  0  0  0  0  0  0  0  0  0  0
  161.8490  209.4340  148.2660 O   0  0  0  0  0  0  0  0  0  0  0  0
  162.0640  208.5720  149.3730 C   0  0  1  0  0  3  0  0  0  0  0  0
  162.1930  209.5780  150.4570 C   0  0  0  0  0  0  0  0  0  0  0  0
  161.8370  210.7610  148.6930 C   0  0  0  0  0  0  0  0  0  0  0  0
  161.6170  211.9080  147.7870 C   0  0  0  0  0  0  0  0  0  0  0  0
  163.9630  212.5790  147.8890 O   0  0  0  0  0  1  0  0  0  0  0  0
  160.3310  212.1470  147.2800 C   0  0  0  0  0  3  0  0  0  0  0  0
  162.4210  213.8520  146.5620 C   0  0  0  0  0  3  0  0  0  0  0  0
  160.0900  213.2250  146.4260 C   0  0  0  0  0  0  0  0  0  0  0  0
  162.6700  212.7740  147.4180 C   0  0  0  0  0  0  0  0  0  0  0  0
  161.1350  214.0770  146.0670 C   0  0  0  0  0  3  0  0  0  0  0  0
  158.7220  213.4640  145.8970 C   0  0  0  0  0  1  0  0  0  0  0  0
  160.6860  202.9370  147.3630 O   0  0  0  0  0  0  0  0  0  0  0  0
  159.2540  200.9550  148.6400 O   0  0  0  0  0  1  0  0  0  0  0  0
  160.4560  200.4300  146.2220 O   0  0  0  0  0  0  0  0  0  0  0  0
  160.6130  201.2640  147.6850 P   0  0  0  0  0  0  0  0  0  0  0  0
  161.8450  200.7620  148.4090 O   0  0  0  0  0  1  0  0  0  0  0  0
  161.7000  204.5080  150.6630 C   0  0  2  0  0  3  0  0  0  0  0  0
  161.6880  203.3620  151.6920 C   0  0  0  0  0  3  0  0  0  0  0  0
  161.2400  202.1760  151.1060 O   0  0  0  0  0  1  0  0  0  0  0  0
  160.8450  203.6740  152.7600 O   0  0  0  0  0  1  0  0  0  0  0  0
  161.2600  205.8230  151.3190 C   0  0  0  0  0  2  0  0  0  0  0  0
  162.2040  206.2550  152.2560 O   0  0  0  0  0  1  0  0  0  0  0  0
  1  6  1  0  0  0  0
  1 10  1  0  0  0  0
  2  8  1  0  0  0  0
  3  7  1  6  0  0  0
  3  4  1  0  0  0  0
  4  1  2  0  0  0  0
  5 30  1  1  0  0  0
  6  5  1  0  0  0  0
  8 25  1  6  0  0  0
  8  5  1  0  0  0  0
  9  3  1  0  0  0  0
  9  2  1  0  0  0  0
 11 15  1  0  0  0  0
 13 16  1  0  0  0  0
 13 14  1  0  0  0  0
 14 10  1  1  0  0  0
 14 15  1  0  0  0  0
 15 12  2  0  0  0  0
 16 11  2  0  0  0  0
 17 16  1  0  0  0  0
 19 17  2  0  0  0  0
 20 22  2  0  0  0  0
 21 19  1  0  0  0  0
 22 17  1  0  0  0  0
 22 18  1  0  0  0  0
 23 21  2  0  0  0  0
 23 20  1  0  0  0  0
 24 21  1  0  0  0  0
 25 28  1  0  0  0  0
 27 28  2  0  0  0  0
 28 29  1  0  0  0  0
 28 26  1  0  0  0  0
 30 34  1  1  0  0  0
 30 31  1  0  0  0  0
 31 33  1  0  0  0  0
 32 31  1  0  0  0  0
 34 35  1  0  0  0  0
M  END
>  <MODEL>
8

>  <REMARK>
 VINA RESULT:      -4.9      4.793      8.903
  Name = 
  8 active torsions:
  status: ('A' for Active; 'I' for Inactive)
    1  A    between atoms: C_2  and  C_23
    2  A    between atoms: C_4  and  C_18
    3  A    between atoms: P_10  and  O_27
    4  A    between atoms: C_16  and  C_18
    5  A    between atoms: C_19  and  C_33
    6  A    between atoms: C_20  and  C_33
    7  A    between atoms: C_25  and  C_33
    8  A    between atoms: O_27  and  C_30
                            x       y       z     vdW  Elec       q    Type
                         _______ _______ _______ _____ _____    ______ ____

>  <TORSDO>
F 8

$$$$
=
 OpenBabel11072411293D

 35 37  0  0  1  0  0  0  0  0999 V2000
  161.8450  208.5770  152.2120 C   0  0  0  0  0  0  0  0  0  0  0  0
  159.2660  210.0790  153.1280 C   0  0  0  0  0  2  0  0  0  0  0  0
  161.1510  210.7960  151.5500 C   0  0  1  0  0  3  0  0  0  0  0  0
  161.4310  209.3900  151.2890 N   0  0  0  0  0  0  0  0  0  0  0  0
  161.1170  209.0740  154.6100 C   0  0  1  0  0  3  0  0  0  0  0  0
  162.1170  209.0440  153.5400 N   0  0  0  0  0  2  0  0  0  0  0  0
  161.4030  211.5980  150.2900 C   0  0  0  0  0  1  0  0  0  0  0  0
  160.0950  210.2050  154.4150 C   0  0  1  0  0  3  0  0  0  0  0  0
  159.7010  210.9940  151.9800 C   0  0  0  0  0  2  0  0  0  0  0  0
  162.1600  207.1640  151.8590 C   0  0  0  0  0  2  0  0  0  0  0  0
  161.2600  204.3570  150.1130 N   0  0  0  0  0  0  0  0  0  0  0  0
  160.9270  204.4280  152.4450 O   0  0  0  0  0  0  0  0  0  0  0  0
  161.1370  206.5750  149.7530 O   0  0  0  0  0  0  0  0  0  0  0  0
  160.9790  206.4990  151.1610 C   0  0  1  0  0  3  0  0  0  0  0  0
  161.0490  205.0280  151.3450 C   0  0  0  0  0  0  0  0  0  0  0  0
  161.2990  205.2960  149.2230 C   0  0  0  0  0  0  0  0  0  0  0  0
  161.5050  205.0280  147.7850 C   0  0  0  0  0  0  0  0  0  0  0  0
  162.5160  207.2190  147.4080 O   0  0  0  0  0  1  0  0  0  0  0  0
  161.1020  203.7940  147.2510 C   0  0  0  0  0  3  0  0  0  0  0  0
  162.2700  205.6940  145.5720 C   0  0  0  0  0  3  0  0  0  0  0  0
  161.2800  203.5130  145.8940 C   0  0  0  0  0  0  0  0  0  0  0  0
  162.0960  205.9830  146.9290 C   0  0  0  0  0  0  0  0  0  0  0  0
  161.8630  204.4620  145.0550 C   0  0  0  0  0  3  0  0  0  0  0  0
  160.8480  202.2010  145.3450 C   0  0  0  0  0  1  0  0  0  0  0  0
  160.7030  211.4600  154.5530 O   0  0  0  0  0  0  0  0  0  0  0  0
  161.8830  211.6840  157.0380 O   0  0  0  0  0  1  0  0  0  0  0  0
  160.1280  213.6210  156.1780 O   0  0  0  0  0  0  0  0  0  0  0  0
  160.4620  211.9630  156.1650 P   0  0  0  0  0  0  0  0  0  0  0  0
  159.3230  211.2240  156.8350 O   0  0  0  0  0  1  0  0  0  0  0  0
  160.4830  207.6860  154.8610 C   0  0  2  0  0  3  0  0  0  0  0  0
  159.4770  207.6930  156.0260 C   0  0  0  0  0  3  0  0  0  0  0  0
  160.0870  207.2670  157.2080 O   0  0  0  0  0  1  0  0  0  0  0  0
  158.4040  206.8440  155.7500 O   0  0  0  0  0  1  0  0  0  0  0  0
  161.5730  206.6330  155.0990 C   0  0  0  0  0  2  0  0  0  0  0  0
  161.1790  205.3850  154.6090 O   0  0  0  0  0  1  0  0  0  0  0  0
  1  6  1  0  0  0  0
  2  8  1  0  0  0  0
  3  7  1  6  0  0  0
  3  9  1  0  0  0  0
  4  3  1  0  0  0  0
  4  1  2  0  0  0  0
  5 30  1  6  0  0  0
  6  5  1  0  0  0  0
  8 25  1  6  0  0  0
  8  5  1  0  0  0  0
  9  2  1  0  0  0  0
 10  1  1  0  0  0  0
 11 15  1  0  0  0  0
 13 14  1  0  0  0  0
 14 15  1  0  0  0  0
 14 10  1  1  0  0  0
 15 12  2  0  0  0  0
 16 13  1  0  0  0  0
 16 11  2  0  0  0  0
 17 16  1  0  0  0  0
 19 17  1  0  0  0  0
 20 22  1  0  0  0  0
 21 19  2  0  0  0  0
 22 18  1  0  0  0  0
 22 17  2  0  0  0  0
 23 20  2  0  0  0  0
 23 21  1  0  0  0  0
 24 21  1  0  0  0  0
 25 28  1  0  0  0  0
 28 27  2  0  0  0  0
 28 29  1  0  0  0  0
 28 26  1  0  0  0  0
 30 34  1  1  0  0  0
 30 31  1  0  0  0  0
 31 32  1  0  0  0  0
 33 31  1  0  0  0  0
 35 34  1  0  0  0  0
M  END
>  <MODEL>
9

>  <REMARK>
 VINA RESULT:      -4.7      1.450      2.085
  Name = 
  8 active torsions:
  status: ('A' for Active; 'I' for Inactive)
    1  A    between atoms: C_2  and  C_23
    2  A    between atoms: C_4  and  C_18
    3  A    between atoms: P_10  and  O_27
    4  A    between atoms: C_16  and  C_18
    5  A    between atoms: C_19  and  C_33
    6  A    between atoms: C_20  and  C_33
    7  A    between atoms: C_25  and  C_33
    8  A    between atoms: O_27  and  C_30
                            x       y       z     vdW  Elec       q    Type
                         _______ _______ _______ _____ _____    ______ ____

>  <TORSDO>
F 8

$$$$
