=
 OpenBabel11072411353D

 25 27  0  0  1  0  0  0  0  0999 V2000
  161.7500  206.8270  148.7030 C   0  0  0  0  0  3  0  0  0  0  0  0
  161.9090  209.0540  149.8440 C   0  0  0  0  0  0  0  0  0  0  0  0
  160.8060  204.4900  151.3120 C   0  0  0  0  0  1  0  0  0  0  0  0
  161.3230  205.6330  150.5020 C   0  0  0  0  0  0  0  0  0  0  0  0
  161.7550  207.6720  149.7930 C   0  0  0  0  0  0  0  0  0  0  0  0
  162.1480  209.8140  148.6650 N   0  0  0  0  0  1  0  0  0  0  0  0
  161.7970  209.6740  151.0520 N   0  0  0  0  0  0  0  0  0  0  0  0
  161.4090  207.5750  152.1890 C   0  0  0  0  0  0  0  0  0  0  0  0
  161.5010  205.5790  149.1570 N   0  0  0  0  0  0  0  0  0  0  0  0
  161.5030  206.9410  150.9310 C   0  0  0  0  0  0  0  0  0  0  0  0
  161.5560  208.9760  152.2040 C   0  0  0  0  0  3  0  0  0  0  0  0
  161.2150  203.3700  146.1860 O   0  0  0  0  0  0  0  0  0  0  0  0
  160.9730  203.1340  148.9120 C   0  0  0  0  0  3  0  0  0  0  0  0
  161.3440  204.4290  148.3090 C   0  0  0  0  0  0  0  0  0  0  0  0
  161.3320  202.0520  146.7340 C   0  0  1  0  0  3  0  0  0  0  0  0
  161.4060  204.5210  146.9660 C   0  0  0  0  0  0  0  0  0  0  0  0
  160.9220  202.0220  148.1770 C   0  0  0  0  0  3  0  0  0  0  0  0
  162.6910  205.7790  145.4230 O   0  0  0  0  0  1  0  0  0  0  0  0
  160.3480  206.1860  145.4810 C   0  0  0  0  0  1  0  0  0  0  0  0
  161.5910  205.8360  146.2770 C   0  0  1  0  0  3  0  0  0  0  0  0
  159.7440  201.7950  144.8350 C   0  0  0  0  0  1  0  0  0  0  0  0
  160.4950  201.0700  145.9350 C   0  0  0  0  0  2  0  0  0  0  0  0
  160.2290  207.2970  154.3500 O   0  0  0  0  0  1  0  0  0  0  0  0
  161.2210  206.8750  153.4720 C   0  0  0  0  0  0  0  0  0  0  0  0
  161.9930  205.9460  153.8230 O   0  0  0  0  0  0  0  0  0  0  0  0
  1  9  1  0  0  0  0
  1  5  2  0  0  0  0
  2  7  2  0  0  0  0
  4 10  2  0  0  0  0
  4  3  1  0  0  0  0
  5  2  1  0  0  0  0
  5 10  1  0  0  0  0
  6  2  1  0  0  0  0
  7 11  1  0  0  0  0
  8 11  2  0  0  0  0
  8 24  1  0  0  0  0
  9  4  1  0  0  0  0
 10  8  1  0  0  0  0
 12 15  1  0  0  0  0
 12 16  1  0  0  0  0
 14 13  1  0  0  0  0
 14  9  1  0  0  0  0
 15 22  1  6  0  0  0
 15 17  1  0  0  0  0
 16 14  2  0  0  0  0
 17 13  2  0  0  0  0
 18 20  1  0  0  0  0
 20 19  1  6  0  0  0
 20 16  1  0  0  0  0
 21 22  1  0  0  0  0
 24 25  2  0  0  0  0
 24 23  1  0  0  0  0
M  END
>  <MODEL>
1

>  <REMARK>
 VINA RESULT:      -9.2      0.000      0.000
  Name = 
  4 active torsions:
  status: ('A' for Active; 'I' for Inactive)
    1  A    between atoms: C_9  and  C_20
    2  A    between atoms: C_10  and  N_22
    3  A    between atoms: C_11  and  C_18
    4  A    between atoms: C_19  and  C_23
                            x       y       z     vdW  Elec       q    Type
                         _______ _______ _______ _____ _____    ______ ____

>  <TORSDO>
F 4

$$$$
=
 OpenBabel11072411353D

 25 27  0  0  1  0  0  0  0  0999 V2000
  161.4330  207.7650  150.7440 C   0  0  0  0  0  3  0  0  0  0  0  0
  161.4820  210.0790  151.7080 C   0  0  0  0  0  0  0  0  0  0  0  0
  160.7210  205.5830  153.5530 C   0  0  0  0  0  1  0  0  0  0  0  0
  161.1390  206.6890  152.6410 C   0  0  0  0  0  0  0  0  0  0  0  0
  161.4170  208.6900  151.7660 C   0  0  0  0  0  0  0  0  0  0  0  0
  161.6370  210.7590  150.4660 N   0  0  0  0  0  1  0  0  0  0  0  0
  161.3660  210.7830  152.8680 N   0  0  0  0  0  0  0  0  0  0  0  0
  161.1490  208.7580  154.1730 C   0  0  0  0  0  0  0  0  0  0  0  0
  161.2800  206.5420  151.2990 N   0  0  0  0  0  0  0  0  0  0  0  0
  161.2460  208.0360  152.9640 C   0  0  0  0  0  0  0  0  0  0  0  0
  161.2060  210.1630  154.0770 C   0  0  0  0  0  3  0  0  0  0  0  0
  161.1030  204.0900  148.5160 O   0  0  0  0  0  0  0  0  0  0  0  0
  160.8410  204.0680  151.2500 C   0  0  0  0  0  3  0  0  0  0  0  0
  161.1730  205.3220  150.5460 C   0  0  0  0  0  0  0  0  0  0  0  0
  161.2600  202.8270  149.1700 C   0  0  1  0  0  3  0  0  0  0  0  0
  161.2460  205.3080  149.2010 C   0  0  0  0  0  0  0  0  0  0  0  0
  160.8370  202.9000  150.6080 C   0  0  0  0  0  3  0  0  0  0  0  0
  162.7140  206.7230  147.9960 O   0  0  0  0  0  1  0  0  0  0  0  0
  160.4810  206.5300  147.1960 C   0  0  0  0  0  1  0  0  0  0  0  0
  161.3910  206.5680  148.4080 C   0  0  1  0  0  3  0  0  0  0  0  0
  161.3710  200.5930  148.0790 C   0  0  0  0  0  1  0  0  0  0  0  0
  160.4670  201.7530  148.4470 C   0  0  0  0  0  2  0  0  0  0  0  0
  159.8210  207.6640  155.9550 O   0  0  0  0  0  0  0  0  0  0  0  0
  161.0450  208.1490  155.5110 C   0  0  0  0  0  0  0  0  0  0  0  0
  162.0300  208.1290  156.2930 O   0  0  0  0  0  1  0  0  0  0  0  0
  1  9  1  0  0  0  0
  1  5  2  0  0  0  0
  2  5  1  0  0  0  0
  2  7  2  0  0  0  0
  4 10  2  0  0  0  0
  4  3  1  0  0  0  0
  5 10  1  0  0  0  0
  6  2  1  0  0  0  0
  7 11  1  0  0  0  0
  8 24  1  0  0  0  0
  9  4  1  0  0  0  0
 10  8  1  0  0  0  0
 11  8  2  0  0  0  0
 12 15  1  0  0  0  0
 12 16  1  0  0  0  0
 14 13  1  0  0  0  0
 14  9  1  0  0  0  0
 15 22  1  6  0  0  0
 15 17  1  0  0  0  0
 16 14  2  0  0  0  0
 17 13  2  0  0  0  0
 18 20  1  0  0  0  0
 20 19  1  6  0  0  0
 20 16  1  0  0  0  0
 21 22  1  0  0  0  0
 24 23  2  0  0  0  0
 24 25  1  0  0  0  0
M  END
>  <MODEL>
2

>  <REMARK>
 VINA RESULT:      -8.3      1.803      2.458
  Name = 
  4 active torsions:
  status: ('A' for Active; 'I' for Inactive)
    1  A    between atoms: C_9  and  C_20
    2  A    between atoms: C_10  and  N_22
    3  A    between atoms: C_11  and  C_18
    4  A    between atoms: C_19  and  C_23
                            x       y       z     vdW  Elec       q    Type
                         _______ _______ _______ _____ _____    ______ ____

>  <TORSDO>
F 4

$$$$
=
 OpenBabel11072411353D

 25 27  0  0  1  0  0  0  0  0999 V2000
  161.1870  204.5600  150.1180 C   0  0  0  0  0  3  0  0  0  0  0  0
  160.7420  202.2510  149.2470 C   0  0  0  0  0  0  0  0  0  0  0  0
  161.7300  206.5990  147.1670 C   0  0  0  0  0  1  0  0  0  0  0  0
  161.6100  205.5040  148.1760 C   0  0  0  0  0  0  0  0  0  0  0  0
  161.1030  203.5910  149.1400 C   0  0  0  0  0  0  0  0  0  0  0  0
  160.4370  201.6670  150.5090 N   0  0  0  0  0  1  0  0  0  0  0  0
  160.6590  201.5100  148.1070 N   0  0  0  0  0  0  0  0  0  0  0  0
  161.3160  203.3900  146.7360 C   0  0  0  0  0  0  0  0  0  0  0  0
  161.5170  205.7220  149.5120 N   0  0  0  0  0  0  0  0  0  0  0  0
  161.3780  204.1590  147.9180 C   0  0  0  0  0  0  0  0  0  0  0  0
  160.9350  202.0410  146.8770 C   0  0  0  0  0  3  0  0  0  0  0  0
  161.7960  208.3230  152.1470 O   0  0  0  0  0  0  0  0  0  0  0  0
  161.4940  208.2330  149.4190 C   0  0  0  0  0  3  0  0  0  0  0  0
  161.6260  206.9840  150.1930 C   0  0  0  0  0  0  0  0  0  0  0  0
  162.1490  209.5040  151.4180 C   0  0  1  0  0  3  0  0  0  0  0  0
  161.7230  207.0620  151.5340 C   0  0  0  0  0  0  0  0  0  0  0  0
  161.6940  209.4210  149.9910 C   0  0  0  0  0  3  0  0  0  0  0  0
  162.9630  205.3780  152.6470 O   0  0  0  0  0  1  0  0  0  0  0  0
  160.9850  206.1620  153.7120 C   0  0  0  0  0  1  0  0  0  0  0  0
  161.6720  205.8420  152.3980 C   0  0  1  0  0  3  0  0  0  0  0  0
  160.2170  210.3980  152.7070 C   0  0  0  0  0  1  0  0  0  0  0  0
  161.5570  210.7340  152.0830 C   0  0  0  0  0  2  0  0  0  0  0  0
  162.9930  204.1650  145.0840 O   0  0  0  0  0  1  0  0  0  0  0  0
  161.6670  203.8840  145.3920 C   0  0  0  0  0  0  0  0  0  0  0  0
  160.7760  204.1280  144.5380 O   0  0  0  0  0  0  0  0  0  0  0  0
  2  6  1  0  0  0  0
  3  4  1  0  0  0  0
  4  9  1  0  0  0  0
  5  2  1  0  0  0  0
  5  1  2  0  0  0  0
  7  2  2  0  0  0  0
  8 11  2  0  0  0  0
  8 10  1  0  0  0  0
  9  1  1  0  0  0  0
  9 14  1  0  0  0  0
 10  4  2  0  0  0  0
 10  5  1  0  0  0  0
 11  7  1  0  0  0  0
 13 17  2  0  0  0  0
 13 14  1  0  0  0  0
 14 16  2  0  0  0  0
 15 22  1  1  0  0  0
 15 12  1  0  0  0  0
 16 12  1  0  0  0  0
 16 20  1  0  0  0  0
 17 15  1  0  0  0  0
 20 18  1  0  0  0  0
 20 19  1  1  0  0  0
 22 21  1  0  0  0  0
 23 24  1  0  0  0  0
 24  8  1  0  0  0  0
 25 24  2  0  0  0  0
M  END
>  <MODEL>
3

>  <REMARK>
 VINA RESULT:      -8.2      1.778      7.343
  Name = 
  4 active torsions:
  status: ('A' for Active; 'I' for Inactive)
    1  A    between atoms: C_9  and  C_20
    2  A    between atoms: C_10  and  N_22
    3  A    between atoms: C_11  and  C_18
    4  A    between atoms: C_19  and  C_23
                            x       y       z     vdW  Elec       q    Type
                         _______ _______ _______ _____ _____    ______ ____

>  <TORSDO>
F 4

$$$$
=
 OpenBabel11072411353D

 25 27  0  0  1  0  0  0  0  0999 V2000
  161.2700  206.8650  150.3990 C   0  0  0  0  0  3  0  0  0  0  0  0
  161.5090  206.0550  148.0380 C   0  0  0  0  0  0  0  0  0  0  0  0
  160.8160  203.8650  152.3880 C   0  0  0  0  0  1  0  0  0  0  0  0
  160.8740  204.9040  151.3160 C   0  0  0  0  0  0  0  0  0  0  0  0
  161.2520  205.9160  149.3980 C   0  0  0  0  0  0  0  0  0  0  0  0
  161.7980  207.3280  147.4680 N   0  0  0  0  0  1  0  0  0  0  0  0
  161.5040  204.9380  147.2590 N   0  0  0  0  0  0  0  0  0  0  0  0
  160.9640  203.5240  149.1450 C   0  0  0  0  0  0  0  0  0  0  0  0
  161.0180  206.2300  151.5650 N   0  0  0  0  0  0  0  0  0  0  0  0
  160.9930  204.6830  149.9510 C   0  0  0  0  0  0  0  0  0  0  0  0
  161.2410  203.6980  147.7750 C   0  0  0  0  0  3  0  0  0  0  0  0
  161.0200  208.7890  154.2560 O   0  0  0  0  0  0  0  0  0  0  0  0
  161.2260  206.0570  154.0640 C   0  0  0  0  0  3  0  0  0  0  0  0
  161.0260  206.8740  152.8510 C   0  0  0  0  0  0  0  0  0  0  0  0
  160.7330  208.0350  155.4380 C   0  0  1  0  0  3  0  0  0  0  0  0
  160.9780  208.2150  152.9760 C   0  0  0  0  0  0  0  0  0  0  0  0
  161.1340  206.5980  155.2790 C   0  0  0  0  0  3  0  0  0  0  0  0
  160.0810  210.1710  151.9880 O   0  0  0  0  0  1  0  0  0  0  0  0
  162.3570  209.6600  151.5250 C   0  0  0  0  0  1  0  0  0  0  0  0
  160.9660  209.1150  151.7810 C   0  0  1  0  0  3  0  0  0  0  0  0
  162.1300  209.9310  156.2420 C   0  0  0  0  0  1  0  0  0  0  0  0
  161.4370  208.6420  156.6380 C   0  0  0  0  0  2  0  0  0  0  0  0
  161.5760  201.4100  150.2840 O   0  0  0  0  0  1  0  0  0  0  0  0
  160.6200  202.1730  149.6260 C   0  0  0  0  0  0  0  0  0  0  0  0
  159.4940  201.6660  149.3830 O   0  0  0  0  0  0  0  0  0  0  0  0
  1  9  1  0  0  0  0
  2  5  1  0  0  0  0
  4  9  1  0  0  0  0
  4  3  1  0  0  0  0
  5 10  1  0  0  0  0
  5  1  2  0  0  0  0
  6  2  1  0  0  0  0
  7 11  1  0  0  0  0
  7  2  2  0  0  0  0
  8 24  1  0  0  0  0
  8 10  1  0  0  0  0
  9 14  1  0  0  0  0
 10  4  2  0  0  0  0
 11  8  2  0  0  0  0
 12 15  1  0  0  0  0
 13 17  2  0  0  0  0
 14 16  2  0  0  0  0
 14 13  1  0  0  0  0
 15 22  1  1  0  0  0
 16 12  1  0  0  0  0
 17 15  1  0  0  0  0
 20 19  1  1  0  0  0
 20 18  1  0  0  0  0
 20 16  1  0  0  0  0
 21 22  1  0  0  0  0
 24 23  1  0  0  0  0
 25 24  2  0  0  0  0
M  END
>  <MODEL>
4

>  <REMARK>
 VINA RESULT:      -8.1      2.448      6.972
  Name = 
  4 active torsions:
  status: ('A' for Active; 'I' for Inactive)
    1  A    between atoms: C_9  and  C_20
    2  A    between atoms: C_10  and  N_22
    3  A    between atoms: C_11  and  C_18
    4  A    between atoms: C_19  and  C_23
                            x       y       z     vdW  Elec       q    Type
                         _______ _______ _______ _____ _____    ______ ____

>  <TORSDO>
F 4

$$$$
=
 OpenBabel11072411353D

 25 27  0  0  1  0  0  0  0  0999 V2000
  160.9290  208.5530  151.7360 C   0  0  0  0  0  3  0  0  0  0  0  0
  160.6970  210.9110  152.5560 C   0  0  0  0  0  0  0  0  0  0  0  0
  161.0140  206.5120  154.7340 C   0  0  0  0  0  1  0  0  0  0  0  0
  161.0970  207.5970  153.7120 C   0  0  0  0  0  0  0  0  0  0  0  0
  160.8890  209.5410  152.6980 C   0  0  0  0  0  0  0  0  0  0  0  0
  160.5540  211.5070  151.2700 N   0  0  0  0  0  1  0  0  0  0  0  0
  160.6190  211.6760  153.6800 N   0  0  0  0  0  0  0  0  0  0  0  0
  160.9500  209.7530  155.1100 C   0  0  0  0  0  0  0  0  0  0  0  0
  161.0740  207.3700  152.3730 N   0  0  0  0  0  0  0  0  0  0  0  0
  161.0060  208.9640  153.9410 C   0  0  0  0  0  0  0  0  0  0  0  0
  160.7410  211.1350  154.9320 C   0  0  0  0  0  3  0  0  0  0  0  0
  161.2140  204.7130  149.7830 O   0  0  0  0  0  0  0  0  0  0  0  0
  160.7750  204.8780  152.4890 C   0  0  0  0  0  3  0  0  0  0  0  0
  161.0830  206.0930  151.7120 C   0  0  0  0  0  0  0  0  0  0  0  0
  161.3960  203.5130  150.5420 C   0  0  1  0  0  3  0  0  0  0  0  0
  161.2450  205.9840  150.3790 C   0  0  0  0  0  0  0  0  0  0  0  0
  160.8760  203.6660  151.9410 C   0  0  0  0  0  3  0  0  0  0  0  0
  162.7140  207.5500  149.3790 O   0  0  0  0  0  1  0  0  0  0  0  0
  160.7980  206.8980  148.1290 C   0  0  0  0  0  1  0  0  0  0  0  0
  161.3740  207.1890  149.5020 C   0  0  1  0  0  3  0  0  0  0  0  0
  160.9940  202.3720  148.3670 C   0  0  0  0  0  1  0  0  0  0  0  0
  160.7120  202.3440  149.8570 C   0  0  0  0  0  2  0  0  0  0  0  0
  162.4280  209.0390  156.9660 O   0  0  0  0  0  0  0  0  0  0  0  0
  161.1430  209.2440  156.4800 C   0  0  0  0  0  0  0  0  0  0  0  0
  160.1600  208.9170  157.1940 O   0  0  0  0  0  1  0  0  0  0  0  0
  1  9  1  0  0  0  0
  1  5  2  0  0  0  0
  2  5  1  0  0  0  0
  2  7  2  0  0  0  0
  4 10  2  0  0  0  0
  4  3  1  0  0  0  0
  5 10  1  0  0  0  0
  6  2  1  0  0  0  0
  7 11  1  0  0  0  0
  8 24  1  0  0  0  0
  9  4  1  0  0  0  0
 10  8  1  0  0  0  0
 11  8  2  0  0  0  0
 12 16  1  0  0  0  0
 12 15  1  0  0  0  0
 14  9  1  0  0  0  0
 14 13  1  0  0  0  0
 15 22  1  6  0  0  0
 15 17  1  0  0  0  0
 16 14  2  0  0  0  0
 17 13  2  0  0  0  0
 18 20  1  0  0  0  0
 20 19  1  6  0  0  0
 20 16  1  0  0  0  0
 21 22  1  0  0  0  0
 24 23  2  0  0  0  0
 24 25  1  0  0  0  0
M  END
>  <MODEL>
5

>  <REMARK>
 VINA RESULT:      -7.8      2.484      3.801
  Name = 
  4 active torsions:
  status: ('A' for Active; 'I' for Inactive)
    1  A    between atoms: C_9  and  C_20
    2  A    between atoms: C_10  and  N_22
    3  A    between atoms: C_11  and  C_18
    4  A    between atoms: C_19  and  C_23
                            x       y       z     vdW  Elec       q    Type
                         _______ _______ _______ _____ _____    ______ ____

>  <TORSDO>
F 4

$$$$
=
 OpenBabel11072411353D

 25 27  0  0  1  0  0  0  0  0999 V2000
  161.2720  206.1170  148.0370 C   0  0  0  0  0  3  0  0  0  0  0  0
  161.4270  204.6150  146.0350 C   0  0  0  0  0  0  0  0  0  0  0  0
  160.9700  203.8820  150.8780 C   0  0  0  0  0  1  0  0  0  0  0  0
  160.9590  204.5370  149.5350 C   0  0  0  0  0  0  0  0  0  0  0  0
  161.2320  204.9040  147.3820 C   0  0  0  0  0  0  0  0  0  0  0  0
  161.6640  205.6490  145.0850 N   0  0  0  0  0  1  0  0  0  0  0  0
  161.4130  203.3110  145.6430 N   0  0  0  0  0  0  0  0  0  0  0  0
  160.9860  202.5500  147.8980 C   0  0  0  0  0  0  0  0  0  0  0  0
  161.0850  205.8760  149.3530 N   0  0  0  0  0  0  0  0  0  0  0  0
  161.0240  203.9020  148.3020 C   0  0  0  0  0  0  0  0  0  0  0  0
  161.1990  202.2910  146.5300 C   0  0  0  0  0  3  0  0  0  0  0  0
  161.5670  209.0920  151.1450 O   0  0  0  0  0  0  0  0  0  0  0  0
  160.9000  206.5050  151.7790 C   0  0  0  0  0  3  0  0  0  0  0  0
  161.1340  206.8880  150.3740 C   0  0  0  0  0  0  0  0  0  0  0  0
  160.9010  208.8840  152.3950 C   0  0  1  0  0  3  0  0  0  0  0  0
  161.5080  208.1540  150.1030 C   0  0  0  0  0  0  0  0  0  0  0  0
  160.8310  207.4260  152.7410 C   0  0  0  0  0  3  0  0  0  0  0  0
  161.9560  209.9590  148.6360 O   0  0  0  0  0  1  0  0  0  0  0  0
  163.3270  208.0240  148.4390 C   0  0  0  0  0  1  0  0  0  0  0  0
  161.9430  208.5680  148.7330 C   0  0  1  0  0  3  0  0  0  0  0  0
  161.1690  209.1230  154.8570 C   0  0  0  0  0  1  0  0  0  0  0  0
  161.6020  209.6500  153.5030 C   0  0  0  0  0  2  0  0  0  0  0  0
  159.4410  201.3090  149.3870 O   0  0  0  0  0  1  0  0  0  0  0  0
  160.6920  201.4140  148.7900 C   0  0  0  0  0  0  0  0  0  0  0  0
  161.5810  200.5740  149.0830 O   0  0  0  0  0  0  0  0  0  0  0  0
  1  9  1  0  0  0  0
  2  5  1  0  0  0  0
  4  3  1  0  0  0  0
  5  1  2  0  0  0  0
  5 10  1  0  0  0  0
  6  2  1  0  0  0  0
  7  2  2  0  0  0  0
  7 11  1  0  0  0  0
  8 10  1  0  0  0  0
  8 24  1  0  0  0  0
  9  4  1  0  0  0  0
  9 14  1  0  0  0  0
 10  4  2  0  0  0  0
 11  8  2  0  0  0  0
 12 15  1  0  0  0  0
 13 17  2  0  0  0  0
 14 13  1  0  0  0  0
 15 17  1  0  0  0  0
 15 22  1  1  0  0  0
 16 14  2  0  0  0  0
 16 12  1  0  0  0  0
 18 20  1  0  0  0  0
 20 19  1  1  0  0  0
 20 16  1  0  0  0  0
 22 21  1  0  0  0  0
 24 25  2  0  0  0  0
 24 23  1  0  0  0  0
M  END
>  <MODEL>
6

>  <REMARK>
 VINA RESULT:      -7.7      2.334      6.466
  Name = 
  4 active torsions:
  status: ('A' for Active; 'I' for Inactive)
    1  A    between atoms: C_9  and  C_20
    2  A    between atoms: C_10  and  N_22
    3  A    between atoms: C_11  and  C_18
    4  A    between atoms: C_19  and  C_23
                            x       y       z     vdW  Elec       q    Type
                         _______ _______ _______ _____ _____    ______ ____

>  <TORSDO>
F 4

$$$$
=
 OpenBabel11072411353D

 25 27  0  0  1  0  0  0  0  0999 V2000
  161.3470  205.0090  150.1180 C   0  0  0  0  0  3  0  0  0  0  0  0
  160.8920  202.5500  149.9410 C   0  0  0  0  0  0  0  0  0  0  0  0
  161.4900  206.1960  146.6930 C   0  0  0  0  0  1  0  0  0  0  0  0
  161.5210  205.4070  147.9610 C   0  0  0  0  0  0  0  0  0  0  0  0
  161.1910  203.8150  149.4460 C   0  0  0  0  0  0  0  0  0  0  0  0
  160.7480  202.3190  151.3380 N   0  0  0  0  0  1  0  0  0  0  0  0
  160.7120  201.5320  149.0530 N   0  0  0  0  0  0  0  0  0  0  0  0
  161.1470  202.9860  147.1700 C   0  0  0  0  0  0  0  0  0  0  0  0
  161.5660  205.9710  149.1950 N   0  0  0  0  0  0  0  0  0  0  0  0
  161.3100  204.0410  148.0940 C   0  0  0  0  0  0  0  0  0  0  0  0
  160.8320  201.7200  147.7030 C   0  0  0  0  0  3  0  0  0  0  0  0
  161.7990  209.2010  151.0110 O   0  0  0  0  0  0  0  0  0  0  0  0
  161.7240  208.3510  148.4010 C   0  0  0  0  0  3  0  0  0  0  0  0
  161.7030  207.3690  149.5030 C   0  0  0  0  0  0  0  0  0  0  0  0
  162.2930  210.1090  150.0220 C   0  0  1  0  0  3  0  0  0  0  0  0
  161.6920  207.8220  150.7720 C   0  0  0  0  0  0  0  0  0  0  0  0
  161.9570  209.6430  148.6360 C   0  0  0  0  0  3  0  0  0  0  0  0
  162.7040  206.3760  152.3510 O   0  0  0  0  0  1  0  0  0  0  0  0
  160.8320  207.6500  153.0800 C   0  0  0  0  0  1  0  0  0  0  0  0
  161.4830  206.9020  151.9330 C   0  0  1  0  0  3  0  0  0  0  0  0
  161.5890  212.2330  148.9320 C   0  0  0  0  0  1  0  0  0  0  0  0
  161.7330  211.5010  150.2530 C   0  0  0  0  0  2  0  0  0  0  0  0
  162.4990  203.6640  145.2080 O   0  0  0  0  0  1  0  0  0  0  0  0
  161.3300  203.1080  145.7120 C   0  0  0  0  0  0  0  0  0  0  0  0
  160.4130  202.7850  144.9150 O   0  0  0  0  0  0  0  0  0  0  0  0
  2  6  1  0  0  0  0
  3  4  1  0  0  0  0
  4 10  2  0  0  0  0
  4  9  1  0  0  0  0
  5  2  1  0  0  0  0
  5  1  2  0  0  0  0
  7  2  2  0  0  0  0
  8 11  2  0  0  0  0
  8 10  1  0  0  0  0
  9 14  1  0  0  0  0
  9  1  1  0  0  0  0
 10  5  1  0  0  0  0
 11  7  1  0  0  0  0
 13 17  2  0  0  0  0
 13 14  1  0  0  0  0
 14 16  2  0  0  0  0
 15 22  1  1  0  0  0
 15 12  1  0  0  0  0
 16 12  1  0  0  0  0
 16 20  1  0  0  0  0
 17 15  1  0  0  0  0
 20 18  1  0  0  0  0
 20 19  1  1  0  0  0
 21 22  1  0  0  0  0
 23 24  1  0  0  0  0
 24  8  1  0  0  0  0
 25 24  2  0  0  0  0
M  END
>  <MODEL>
7

>  <REMARK>
 VINA RESULT:      -7.7      1.914      7.194
  Name = 
  4 active torsions:
  status: ('A' for Active; 'I' for Inactive)
    1  A    between atoms: C_9  and  C_20
    2  A    between atoms: C_10  and  N_22
    3  A    between atoms: C_11  and  C_18
    4  A    between atoms: C_19  and  C_23
                            x       y       z     vdW  Elec       q    Type
                         _______ _______ _______ _____ _____    ______ ____

>  <TORSDO>
F 4

$$$$
=
 OpenBabel11072411353D

 25 27  0  0  1  0  0  0  0  0999 V2000
  161.0350  205.3490  150.9670 C   0  0  0  0  0  3  0  0  0  0  0  0
  160.8180  203.1200  149.8400 C   0  0  0  0  0  0  0  0  0  0  0  0
  161.7180  207.7020  148.2910 C   0  0  0  0  0  1  0  0  0  0  0  0
  161.5750  206.5060  149.1740 C   0  0  0  0  0  0  0  0  0  0  0  0
  161.1030  204.4810  149.8980 C   0  0  0  0  0  0  0  0  0  0  0  0
  160.4350  202.3960  151.0050 N   0  0  0  0  0  1  0  0  0  0  0  0
  160.8870  202.4940  148.6320 N   0  0  0  0  0  0  0  0  0  0  0  0
  161.5480  204.5360  147.5180 C   0  0  0  0  0  0  0  0  0  0  0  0
  161.3450  206.5830  150.5100 N   0  0  0  0  0  0  0  0  0  0  0  0
  161.4520  205.1840  148.7680 C   0  0  0  0  0  0  0  0  0  0  0  0
  161.2410  203.1610  147.4910 C   0  0  0  0  0  3  0  0  0  0  0  0
  161.1540  208.9170  153.3910 O   0  0  0  0  0  0  0  0  0  0  0  0
  161.2490  209.0900  150.6520 C   0  0  0  0  0  3  0  0  0  0  0  0
  161.3120  207.7730  151.3150 C   0  0  0  0  0  0  0  0  0  0  0  0
  161.5670  210.1700  152.8370 C   0  0  1  0  0  3  0  0  0  0  0  0
  161.2140  207.7210  152.6580 C   0  0  0  0  0  0  0  0  0  0  0  0
  161.3250  210.2190  151.3570 C   0  0  0  0  0  3  0  0  0  0  0  0
  162.3340  205.8290  153.5380 O   0  0  0  0  0  1  0  0  0  0  0  0
  160.4580  206.6490  154.7500 C   0  0  0  0  0  1  0  0  0  0  0  0
  161.0810  206.4210  153.3860 C   0  0  1  0  0  3  0  0  0  0  0  0
  159.6200  210.8010  154.2530 C   0  0  0  0  0  1  0  0  0  0  0  0
  160.8430  211.3170  153.5210 C   0  0  0  0  0  2  0  0  0  0  0  0
  161.0620  205.8280  145.4600 O   0  0  0  0  0  0  0  0  0  0  0  0
  161.9890  205.1810  146.2670 C   0  0  0  0  0  0  0  0  0  0  0  0
  163.1820  205.0910  145.8780 O   0  0  0  0  0  1  0  0  0  0  0  0
  2  5  1  0  0  0  0
  2  6  1  0  0  0  0
  3  4  1  0  0  0  0
  4  9  1  0  0  0  0
  5  1  2  0  0  0  0
  7  2  2  0  0  0  0
  8 10  1  0  0  0  0
  9  1  1  0  0  0  0
  9 14  1  0  0  0  0
 10  4  2  0  0  0  0
 10  5  1  0  0  0  0
 11  8  2  0  0  0  0
 11  7  1  0  0  0  0
 13 14  1  0  0  0  0
 13 17  2  0  0  0  0
 14 16  2  0  0  0  0
 15 12  1  0  0  0  0
 15 22  1  1  0  0  0
 16 20  1  0  0  0  0
 16 12  1  0  0  0  0
 17 15  1  0  0  0  0
 20 18  1  0  0  0  0
 20 19  1  1  0  0  0
 22 21  1  0  0  0  0
 23 24  2  0  0  0  0
 24  8  1  0  0  0  0
 25 24  1  0  0  0  0
M  END
>  <MODEL>
8

>  <REMARK>
 VINA RESULT:      -7.7      1.746      7.484
  Name = 
  4 active torsions:
  status: ('A' for Active; 'I' for Inactive)
    1  A    between atoms: C_9  and  C_20
    2  A    between atoms: C_10  and  N_22
    3  A    between atoms: C_11  and  C_18
    4  A    between atoms: C_19  and  C_23
                            x       y       z     vdW  Elec       q    Type
                         _______ _______ _______ _____ _____    ______ ____

>  <TORSDO>
F 4

$$$$
=
 OpenBabel11072411353D

 25 27  0  0  1  0  0  0  0  0999 V2000
  161.4490  210.1210  151.4350 C   0  0  0  0  0  3  0  0  0  0  0  0
  162.0110  209.1400  149.1970 C   0  0  0  0  0  0  0  0  0  0  0  0
  161.0310  207.2720  153.6410 C   0  0  0  0  0  1  0  0  0  0  0  0
  161.1190  208.2170  152.4880 C   0  0  0  0  0  0  0  0  0  0  0  0
  161.6200  209.0930  150.5310 C   0  0  0  0  0  0  0  0  0  0  0  0
  162.2550  210.3810  148.5430 N   0  0  0  0  0  1  0  0  0  0  0  0
  162.1850  207.9650  148.5300 N   0  0  0  0  0  0  0  0  0  0  0  0
  161.5610  206.6720  150.4770 C   0  0  0  0  0  0  0  0  0  0  0  0
  161.1250  209.5680  152.6240 N   0  0  0  0  0  0  0  0  0  0  0  0
  161.4050  207.8930  151.1680 C   0  0  0  0  0  0  0  0  0  0  0  0
  161.9710  206.7540  149.1310 C   0  0  0  0  0  3  0  0  0  0  0  0
  159.7410  211.8240  155.2280 O   0  0  0  0  0  0  0  0  0  0  0  0
  162.0220  210.3440  154.8400 C   0  0  0  0  0  3  0  0  0  0  0  0
  160.9390  210.3160  153.8380 C   0  0  0  0  0  0  0  0  0  0  0  0
  160.5120  211.5080  156.3920 C   0  0  1  0  0  3  0  0  0  0  0  0
  159.8550  211.0920  154.0360 C   0  0  0  0  0  0  0  0  0  0  0  0
  161.8490  210.9360  156.0220 C   0  0  0  0  0  3  0  0  0  0  0  0
  157.5420  211.3030  153.5700 O   0  0  0  0  0  1  0  0  0  0  0  0
  159.0500  212.5380  152.2050 C   0  0  0  0  0  1  0  0  0  0  0  0
  158.8060  211.2600  152.9830 C   0  0  1  0  0  3  0  0  0  0  0  0
  160.0530  213.9460  156.5960 C   0  0  0  0  0  1  0  0  0  0  0  0
  160.6950  212.7420  157.2580 C   0  0  0  0  0  2  0  0  0  0  0  0
  162.2720  204.6650  151.7450 O   0  0  0  0  0  1  0  0  0  0  0  0
  161.2790  205.3410  151.0450 C   0  0  0  0  0  0  0  0  0  0  0  0
  160.1770  204.7700  150.8430 O   0  0  0  0  0  0  0  0  0  0  0  0
  1  9  1  0  0  0  0
  2  5  1  0  0  0  0
  4  9  1  0  0  0  0
  4  3  1  0  0  0  0
  5 10  1  0  0  0  0
  5  1  2  0  0  0  0
  6  2  1  0  0  0  0
  7 11  1  0  0  0  0
  7  2  2  0  0  0  0
  8 24  1  0  0  0  0
  8 10  1  0  0  0  0
  9 14  1  0  0  0  0
 10  4  2  0  0  0  0
 11  8  2  0  0  0  0
 12 15  1  0  0  0  0
 13 17  2  0  0  0  0
 14 16  2  0  0  0  0
 14 13  1  0  0  0  0
 15 22  1  6  0  0  0
 16 12  1  0  0  0  0
 17 15  1  0  0  0  0
 20 19  1  1  0  0  0
 20 18  1  0  0  0  0
 20 16  1  0  0  0  0
 21 22  1  0  0  0  0
 24 23  1  0  0  0  0
 25 24  2  0  0  0  0
M  END
>  <MODEL>
9

>  <REMARK>
 VINA RESULT:      -7.6      3.419      8.283
  Name = 
  4 active torsions:
  status: ('A' for Active; 'I' for Inactive)
    1  A    between atoms: C_9  and  C_20
    2  A    between atoms: C_10  and  N_22
    3  A    between atoms: C_11  and  C_18
    4  A    between atoms: C_19  and  C_23
                            x       y       z     vdW  Elec       q    Type
                         _______ _______ _______ _____ _____    ______ ____

>  <TORSDO>
F 4

$$$$
