=
 OpenBabel11072414043D

 62 66  0  0  1  0  0  0  0  0999 V2000
  161.7910  208.0930  148.8570 C   0  0  2  0  0  0  0  0  0  0  0  0
  163.2230  207.6090  149.1620 C   0  0  0  0  0  2  0  0  0  0  0  0
  162.1940  207.4970  150.1980 C   0  0  1  0  0  3  0  0  0  0  0  0
  159.5510  205.3020  149.2630 F   0  0  0  0  0  0  0  0  0  0  0  0
  160.7570  205.6000  148.6080 C   0  0  0  0  0  0  0  0  0  0  0  0
  160.6810  206.7810  146.8570 C   0  0  0  0  0  2  0  0  0  0  0  0
  160.5880  205.2820  147.1240 C   0  0  0  0  0  2  0  0  0  0  0  0
  161.9130  205.0650  149.1730 F   0  0  0  0  0  0  0  0  0  0  0  0
  160.7680  207.0890  148.3040 C   0  0  2  0  0  3  0  0  0  0  0  0
  161.3400  209.3800  149.1750 O   0  0  0  0  0  0  0  0  0  0  0  0
  163.0990  212.3200  148.2210 C   0  0  0  0  0  2  0  0  0  0  0  0
  160.7780  213.0320  148.4360 C   0  0  0  0  0  1  0  0  0  0  0  0
  163.1880  211.0420  149.0360 C   0  0  0  0  0  2  0  0  0  0  0  0
  161.2980  210.8560  147.5740 O   0  0  0  0  0  0  0  0  0  0  0  0
  162.1410  210.2150  148.3800 N   0  0  0  0  0  0  0  0  0  0  0  0
  161.6940  212.2450  147.5600 C   0  0  2  0  0  0  0  0  0  0  0  0
  161.3860  212.9420  146.1510 C   0  0  0  0  0  2  0  0  0  0  0  0
  159.6270  214.4500  145.1940 C   0  0  0  0  0  2  0  0  0  0  0  0
  159.9630  213.0230  145.5460 C   0  0  1  0  0  0  0  0  0  0  0  0
  159.7470  212.2500  144.3050 C   0  0  0  0  0  2  0  0  0  0  0  0
  159.6110  213.1330  143.1650 N   0  0  0  0  0  0  0  0  0  0  0  0
  159.1500  214.4200  143.7630 C   0  0  0  0  0  2  0  0  0  0  0  0
  158.9430  214.3320  140.7590 O   0  0  0  0  0  0  0  0  0  0  0  0
  158.8430  212.4870  142.1740 N   0  0  0  0  0  2  0  0  0  0  0  0
  158.5560  213.1660  140.9410 C   0  0  0  0  0  0  0  0  0  0  0  0
  157.8290  212.4480  139.9530 N   0  0  0  0  0  2  0  0  0  0  0  0
  158.3950  212.2030  138.6360 C   0  0  0  0  0  2  0  0  0  0  0  0
  159.7530  212.8940  138.4980 C   0  0  0  0  0  1  0  0  0  0  0  0
  159.0220  212.4090  146.4600 N   0  0  0  0  0  2  0  0  0  0  0  0
  158.8550  213.5760  148.6670 C   0  0  0  0  0  3  0  0  0  0  0  0
  156.1530  213.9630  148.2570 C   0  0  0  0  0  3  0  0  0  0  0  0
  156.7050  214.1080  149.5270 C   0  0  0  0  0  0  0  0  0  0  0  0
  158.0380  214.0390  149.7410 C   0  0  0  0  0  3  0  0  0  0  0  0
  158.2930  213.2110  147.4540 C   0  0  0  0  0  0  0  0  0  0  0  0
  155.6870  214.4520  150.8800 Cl  0  0  0  0  0  0  0  0  0  0  0  0
  156.9600  213.5800  147.1520 C   0  0  0  0  0  0  0  0  0  0  0  0
  156.1380  214.4120  144.9350 O   0  0  0  0  0  0  0  0  0  0  0  0
  156.3080  213.3750  145.7770 C   0  0  0  0  0  0  0  0  0  0  0  0
  156.0080  212.2170  145.3500 O   0  0  0  0  0  1  0  0  0  0  0  0
  162.3930  208.7120  151.5020 S   0  0  0  0  0  0  0  0  0  0  0  0
  161.3060  207.7860  152.5400 C   0  0  2  0  0  3  0  0  0  0  0  0
  161.7740  208.3910  157.2510 O   0  0  0  0  0  0  0  0  0  0  0  0
  161.2030  208.7570  156.2090 C   0  0  0  0  0  0  0  0  0  0  0  0
  160.1040  209.5760  153.5070 O   0  0  0  0  0  0  0  0  0  0  0  0
  161.0200  208.6780  153.6680 C   0  0  0  0  0  0  0  0  0  0  0  0
  161.7610  208.5300  154.8920 N   0  0  0  0  0  2  0  0  0  0  0  0
  159.9470  209.4620  156.2930 C   0  0  0  0  0  2  0  0  0  0  0  0
  160.1560  210.8960  156.6500 C   0  0  0  0  0  2  0  0  0  0  0  0
  158.8370  211.5450  156.7650 C   0  0  0  0  0  0  0  0  0  0  0  0
  157.7700  210.8500  156.6460 O   0  0  0  0  0  0  0  0  0  0  0  0
  158.8200  212.9530  156.7950 N   0  0  0  0  0  2  0  0  0  0  0  0
  159.0560  213.6460  155.5340 C   0  0  0  0  0  2  0  0  0  0  0  0
  158.2500  213.5350  153.2080 C   0  0  0  0  0  1  0  0  0  0  0  0
  157.9360  213.3550  154.6460 C   0  0  2  0  0  3  0  0  0  0  0  0
  156.4700  214.3440  156.6650 C   0  0  0  0  0  1  0  0  0  0  0  0
  156.5590  213.7670  155.2290 C   0  0  1  0  0  3  0  0  0  0  0  0
  155.8670  214.4460  154.2550 O   0  0  0  0  0  1  0  0  0  0  0  0
  162.0300  206.4990  152.9480 C   0  0  0  0  0  2  0  0  0  0  0  0
  162.1260  204.3500  151.9470 F   0  0  0  0  0  0  0  0  0  0  0  0
  161.2450  205.2530  152.5300 C   0  0  0  0  0  0  0  0  0  0  0  0
  160.1670  205.5960  151.6760 F   0  0  0  0  0  0  0  0  0  0  0  0
  160.8370  204.5600  153.6330 F   0  0  0  0  0  0  0  0  0  0  0  0
  1  2  1  0  0  0  0
  1 10  1  6  0  0  0
  1  3  1  0  0  0  0
  2  3  1  0  0  0  0
  3 40  1  1  0  0  0
  5  8  1  0  0  0  0
  5  4  1  0  0  0  0
  6  7  1  0  0  0  0
  7  5  1  0  0  0  0
  9  6  1  6  0  0  0
  9  5  1  0  0  0  0
  9  1  1  0  0  0  0
 11 13  1  0  0  0  0
 14 15  1  0  0  0  0
 15 13  1  0  0  0  0
 15 10  1  0  0  0  0
 16 14  1  0  0  0  0
 16 11  1  0  0  0  0
 16 12  1  1  0  0  0
 17 16  1  0  0  0  0
 18 19  1  0  0  0  0
 19 17  1  1  0  0  0
 19 29  1  0  0  0  0
 20 19  1  0  0  0  0
 21 22  1  0  0  0  0
 21 20  1  0  0  0  0
 22 18  1  0  0  0  0
 23 25  2  0  0  0  0
 24 21  1  0  0  0  0
 25 24  1  0  0  0  0
 26 25  1  0  0  0  0
 27 26  1  0  0  0  0
 28 27  1  0  0  0  0
 29 34  1  0  0  0  0
 30 33  1  0  0  0  0
 31 32  1  0  0  0  0
 32 33  2  0  0  0  0
 32 35  1  0  0  0  0
 34 30  2  0  0  0  0
 36 34  1  0  0  0  0
 36 31  2  0  0  0  0
 37 38  2  0  0  0  0
 38 36  1  0  0  0  0
 39 38  1  0  0  0  0
 40 41  1  0  0  0  0
 41 58  1  1  0  0  0
 41 45  1  0  0  0  0
 43 47  1  0  0  0  0
 43 42  2  0  0  0  0
 44 45  2  0  0  0  0
 45 46  1  0  0  0  0
 46 43  1  0  0  0  0
 47 48  1  0  0  0  0
 48 49  1  0  0  0  0
 49 51  1  0  0  0  0
 50 49  2  0  0  0  0
 52 51  1  0  0  0  0
 54 53  1  6  0  0  0
 54 56  1  0  0  0  0
 54 52  1  0  0  0  0
 56 55  1  1  0  0  0
 57 56  1  0  0  0  0
 59 60  1  0  0  0  0
 60 58  1  0  0  0  0
 60 62  1  0  0  0  0
 61 60  1  0  0  0  0
M  END
>  <MODEL>
1

>  <REMARK>
 VINA RESULT:      -3.6      0.000      0.000
  Name = 
  21 active torsions:
  status: ('A' for Active; 'I' for Inactive)
    1  A    between atoms: C_4  and  C_58
    2  A    between atoms: C_5  and  N_44
    3  A    between atoms: C_7  and  C_56
    4  A    between atoms: C_9  and  C_48
    5  A    between atoms: C_13  and  N_24
    6  A    between atoms: C_13  and  C_33
    7  A    between atoms: C_16  and  C_23
    8  A    between atoms: C_16  and  N_36
    9  A    between atoms: C_23  and  C_55
   10  A    between atoms: N_24  and  C_40
   11  A    between atoms: N_27  and  N_35
   12  A    between atoms: C_29  and  O_30
   13  A    between atoms: C_29  and  C_54
   14  A    between atoms: O_30  and  N_52
   15  A    between atoms: C_31  and  C_39
   16  A    between atoms: C_31  and  C_48
   17  A    between atoms: C_31  and  S_62
   18  A    between atoms: C_33  and  C_59
   19  A    between atoms: C_47  and  C_51
   20  A    between atoms: C_53  and  S_62
   21  A    between atoms: C_56  and  C_58
                            x       y       z     vdW  Elec       q    Type
                         _______ _______ _______ _____ _____    ______ ____

>  <TORSDO>
F 21

$$$$
=
 OpenBabel11072414043D

 62 66  0  0  1  0  0  0  0  0999 V2000
  161.9370  207.8150  148.8570 C   0  0  2  0  0  0  0  0  0  0  0  0
  160.6450  208.6460  148.7240 C   0  0  0  0  0  2  0  0  0  0  0  0
  161.8670  209.1120  148.0630 C   0  0  1  0  0  3  0  0  0  0  0  0
  161.5150  206.3940  145.5750 F   0  0  0  0  0  0  0  0  0  0  0  0
  161.2180  206.0720  146.9100 C   0  0  0  0  0  0  0  0  0  0  0  0
  162.7960  205.4220  148.1570 C   0  0  0  0  0  2  0  0  0  0  0  0
  161.8280  204.7070  147.2210 C   0  0  0  0  0  2  0  0  0  0  0  0
  159.8840  206.1970  147.2920 F   0  0  0  0  0  0  0  0  0  0  0  0
  162.2510  206.7520  147.7930 C   0  0  2  0  0  3  0  0  0  0  0  0
  162.9030  208.0670  149.8380 O   0  0  0  0  0  0  0  0  0  0  0  0
  160.5420  206.9620  152.2580 C   0  0  0  0  0  2  0  0  0  0  0  0
  160.5610  209.3900  152.4770 C   0  0  0  0  0  1  0  0  0  0  0  0
  161.1000  206.6960  150.8710 C   0  0  0  0  0  2  0  0  0  0  0  0
  162.5880  208.2060  151.9890 O   0  0  0  0  0  0  0  0  0  0  0  0
  162.4190  207.3770  150.9620 N   0  0  0  0  0  0  0  0  0  0  0  0
  161.3730  208.1730  152.7700 C   0  0  2  0  0  0  0  0  0  0  0  0
  161.6560  208.4040  154.3300 C   0  0  0  0  0  2  0  0  0  0  0  0
  161.3660  209.6400  156.4910 C   0  0  0  0  0  2  0  0  0  0  0  0
  161.5640  209.7940  155.0040 C   0  0  1  0  0  0  0  0  0  0  0  0
  162.7510  210.6620  154.8530 C   0  0  0  0  0  2  0  0  0  0  0  0
  163.4610  210.7870  156.1080 N   0  0  0  0  0  0  0  0  0  0  0  0
  162.4190  210.5040  157.1380 C   0  0  0  0  0  2  0  0  0  0  0  0
  165.9650  211.0720  157.2590 O   0  0  0  0  0  0  0  0  0  0  0  0
  164.1660  212.0080  156.1160 N   0  0  0  0  0  2  0  0  0  0  0  0
  165.4710  212.0730  156.7130 C   0  0  0  0  0  0  0  0  0  0  0  0
  166.1620  213.3140  156.6420 N   0  0  0  0  0  2  0  0  0  0  0  0
  167.4520  213.4160  155.9800 C   0  0  0  0  0  2  0  0  0  0  0  0
  168.5890  213.2610  156.9920 C   0  0  0  0  0  1  0  0  0  0  0  0
  160.5290  210.5700  154.3540 N   0  0  0  0  0  2  0  0  0  0  0  0
  159.1100  210.7060  156.4120 C   0  0  0  0  0  3  0  0  0  0  0  0
  157.2450  212.1950  155.0260 C   0  0  0  0  0  3  0  0  0  0  0  0
  156.9140  211.5950  156.2370 C   0  0  0  0  0  0  0  0  0  0  0  0
  157.8340  210.9570  156.9970 C   0  0  0  0  0  3  0  0  0  0  0  0
  159.3870  211.1040  155.1130 C   0  0  0  0  0  0  0  0  0  0  0  0
  155.3010  211.7070  156.8490 Cl  0  0  0  0  0  0  0  0  0  0  0  0
  158.5370  212.0280  154.4600 C   0  0  0  0  0  0  0  0  0  0  0  0
  157.9060  212.7300  152.1380 O   0  0  0  0  0  0  0  0  0  0  0  0
  158.8500  212.6580  153.0940 C   0  0  0  0  0  0  0  0  0  0  0  0
  159.9650  213.2210  152.8630 O   0  0  0  0  0  1  0  0  0  0  0  0
  162.6090  210.5150  148.8960 S   0  0  0  0  0  0  0  0  0  0  0  0
  161.1790  211.4880  148.5460 C   0  0  2  0  0  3  0  0  0  0  0  0
  159.7350  213.5020  144.4670 O   0  0  0  0  0  0  0  0  0  0  0  0
  160.7000  213.1980  145.1910 C   0  0  0  0  0  0  0  0  0  0  0  0
  162.8420  212.5200  147.2220 O   0  0  0  0  0  0  0  0  0  0  0  0
  161.5770  212.3470  147.4270 C   0  0  0  0  0  0  0  0  0  0  0  0
  160.5650  212.9640  146.6140 N   0  0  0  0  0  2  0  0  0  0  0  0
  162.0190  213.0990  144.6170 C   0  0  0  0  0  2  0  0  0  0  0  0
  162.1980  214.0740  143.5010 C   0  0  0  0  0  2  0  0  0  0  0  0
  162.6280  213.3350  142.3000 C   0  0  0  0  0  0  0  0  0  0  0  0
  163.1630  213.9600  141.3220 O   0  0  0  0  0  0  0  0  0  0  0  0
  162.2320  211.9870  142.2060 N   0  0  0  0  0  2  0  0  0  0  0  0
  160.8370  211.7260  141.8730 C   0  0  0  0  0  2  0  0  0  0  0  0
  162.0270  210.3470  140.2140 C   0  0  0  0  0  1  0  0  0  0  0  0
  160.8000  211.1060  140.5520 C   0  0  2  0  0  3  0  0  0  0  0  0
  160.1730  213.5030  139.5190 C   0  0  0  0  0  1  0  0  0  0  0  0
  160.0590  211.9570  139.4890 C   0  0  1  0  0  3  0  0  0  0  0  0
  160.2290  211.3570  138.2640 O   0  0  0  0  0  1  0  0  0  0  0  0
  160.8190  212.2670  149.8150 C   0  0  0  0  0  2  0  0  0  0  0  0
  160.6320  214.4530  150.7180 F   0  0  0  0  0  0  0  0  0  0  0  0
  160.5850  213.7500  149.5200 C   0  0  0  0  0  0  0  0  0  0  0  0
  159.3680  213.9420  148.8200 F   0  0  0  0  0  0  0  0  0  0  0  0
  161.6560  214.2740  148.8560 F   0  0  0  0  0  0  0  0  0  0  0  0
  1 10  1  1  0  0  0
  2  1  1  0  0  0  0
  3  2  1  0  0  0  0
  3  1  1  0  0  0  0
  3 40  1  1  0  0  0
  4  5  1  0  0  0  0
  5  7  1  0  0  0  0
  5  8  1  0  0  0  0
  5  9  1  0  0  0  0
  7  6  1  0  0  0  0
  9  6  1  1  0  0  0
  9  1  1  0  0  0  0
 10 15  1  0  0  0  0
 11 16  1  0  0  0  0
 13 15  1  0  0  0  0
 13 11  1  0  0  0  0
 14 16  1  0  0  0  0
 15 14  1  0  0  0  0
 16 12  1  6  0  0  0
 16 17  1  0  0  0  0
 18 22  1  0  0  0  0
 19 17  1  6  0  0  0
 19 18  1  0  0  0  0
 20 19  1  0  0  0  0
 20 21  1  0  0  0  0
 21 24  1  0  0  0  0
 21 22  1  0  0  0  0
 24 25  1  0  0  0  0
 25 23  2  0  0  0  0
 26 25  1  0  0  0  0
 27 26  1  0  0  0  0
 27 28  1  0  0  0  0
 29 19  1  0  0  0  0
 29 34  1  0  0  0  0
 30 33  1  0  0  0  0
 31 32  1  0  0  0  0
 32 35  1  0  0  0  0
 32 33  2  0  0  0  0
 34 30  2  0  0  0  0
 36 31  2  0  0  0  0
 36 34  1  0  0  0  0
 37 38  2  0  0  0  0
 38 36  1  0  0  0  0
 39 38  1  0  0  0  0
 41 40  1  0  0  0  0
 41 58  1  1  0  0  0
 42 43  2  0  0  0  0
 43 46  1  0  0  0  0
 44 45  2  0  0  0  0
 45 41  1  0  0  0  0
 46 45  1  0  0  0  0
 47 43  1  0  0  0  0
 48 47  1  0  0  0  0
 49 48  1  0  0  0  0
 50 49  2  0  0  0  0
 51 49  1  0  0  0  0
 52 51  1  0  0  0  0
 54 53  1  6  0  0  0
 54 52  1  0  0  0  0
 56 55  1  6  0  0  0
 56 54  1  0  0  0  0
 57 56  1  0  0  0  0
 60 58  1  0  0  0  0
 60 59  1  0  0  0  0
 61 60  1  0  0  0  0
 62 60  1  0  0  0  0
M  END
>  <MODEL>
2

>  <REMARK>
 VINA RESULT:      -3.1      3.638     10.853
  Name = 
  21 active torsions:
  status: ('A' for Active; 'I' for Inactive)
    1  A    between atoms: C_4  and  C_58
    2  A    between atoms: C_5  and  N_44
    3  A    between atoms: C_7  and  C_56
    4  A    between atoms: C_9  and  C_48
    5  A    between atoms: C_13  and  N_24
    6  A    between atoms: C_13  and  C_33
    7  A    between atoms: C_16  and  C_23
    8  A    between atoms: C_16  and  N_36
    9  A    between atoms: C_23  and  C_55
   10  A    between atoms: N_24  and  C_40
   11  A    between atoms: N_27  and  N_35
   12  A    between atoms: C_29  and  O_30
   13  A    between atoms: C_29  and  C_54
   14  A    between atoms: O_30  and  N_52
   15  A    between atoms: C_31  and  C_39
   16  A    between atoms: C_31  and  C_48
   17  A    between atoms: C_31  and  S_62
   18  A    between atoms: C_33  and  C_59
   19  A    between atoms: C_47  and  C_51
   20  A    between atoms: C_53  and  S_62
   21  A    between atoms: C_56  and  C_58
                            x       y       z     vdW  Elec       q    Type
                         _______ _______ _______ _____ _____    ______ ____

>  <TORSDO>
F 21

$$$$
=
 OpenBabel11072414043D

 62 66  0  0  1  0  0  0  0  0999 V2000
  161.2070  205.6170  150.4640 C   0  0  2  0  0  0  0  0  0  0  0  0
  160.4420  206.6570  149.6200 C   0  0  0  0  0  2  0  0  0  0  0  0
  161.0860  205.5250  148.9490 C   0  0  1  0  0  3  0  0  0  0  0  0
  160.4670  203.1760  153.0060 F   0  0  0  0  0  0  0  0  0  0  0  0
  161.0940  203.2340  151.7510 C   0  0  0  0  0  0  0  0  0  0  0  0
  159.8760  203.3830  150.0290 C   0  0  0  0  0  2  0  0  0  0  0  0
  160.4280  202.2110  150.8340 C   0  0  0  0  0  2  0  0  0  0  0  0
  162.4860  203.1710  151.7540 F   0  0  0  0  0  0  0  0  0  0  0  0
  160.4610  204.3720  150.9660 C   0  0  2  0  0  3  0  0  0  0  0  0
  162.5860  205.6920  150.6930 O   0  0  0  0  0  0  0  0  0  0  0  0
  162.0920  206.7410  154.0550 C   0  0  0  0  0  2  0  0  0  0  0  0
  159.8440  206.5380  153.1360 C   0  0  0  0  0  1  0  0  0  0  0  0
  162.9590  205.8880  153.1460 C   0  0  0  0  0  2  0  0  0  0  0  0
  161.6410  207.3370  151.7650 O   0  0  0  0  0  0  0  0  0  0  0  0
  162.6870  206.5160  151.8260 N   0  0  0  0  0  0  0  0  0  0  0  0
  161.0650  207.3940  153.0880 C   0  0  2  0  0  0  0  0  0  0  0  0
  160.4070  208.8230  153.3940 C   0  0  0  0  0  2  0  0  0  0  0  0
  162.5900  210.0040  153.0460 C   0  0  0  0  0  2  0  0  0  0  0  0
  161.0900  210.1600  153.0220 C   0  0  1  0  0  0  0  0  0  0  0  0
  160.7720  210.6940  151.6800 C   0  0  0  0  0  2  0  0  0  0  0  0
  161.9120  210.5780  150.7960 N   0  0  0  0  0  0  0  0  0  0  0  0
  163.0810  210.5370  151.7230 C   0  0  0  0  0  2  0  0  0  0  0  0
  161.7740  209.9910  148.0920 O   0  0  0  0  0  0  0  0  0  0  0  0
  161.8220  211.5720  149.7990 N   0  0  0  0  0  2  0  0  0  0  0  0
  161.7310  211.1890  148.4180 C   0  0  0  0  0  0  0  0  0  0  0  0
  161.5830  212.2280  147.4590 N   0  0  0  0  0  2  0  0  0  0  0  0
  160.4230  212.2810  146.5840 C   0  0  0  0  0  2  0  0  0  0  0  0
  159.1950  212.7800  147.3490 C   0  0  0  0  0  1  0  0  0  0  0  0
  160.5970  211.2050  153.8940 N   0  0  0  0  0  2  0  0  0  0  0  0
  158.1030  211.3760  153.7780 C   0  0  0  0  0  3  0  0  0  0  0  0
  157.9600  211.1500  156.5250 C   0  0  0  0  0  3  0  0  0  0  0  0
  156.8720  211.6190  155.7950 C   0  0  0  0  0  0  0  0  0  0  0  0
  156.8670  211.6330  154.4420 C   0  0  0  0  0  3  0  0  0  0  0  0
  159.2590  211.1240  154.4990 C   0  0  0  0  0  0  0  0  0  0  0  0
  155.4420  212.1450  156.6120 Cl  0  0  0  0  0  0  0  0  0  0  0  0
  159.1780  210.8090  155.8770 C   0  0  0  0  0  0  0  0  0  0  0  0
  161.3430  211.2150  157.0740 O   0  0  0  0  0  0  0  0  0  0  0  0
  160.3770  210.3480  156.7190 C   0  0  0  0  0  0  0  0  0  0  0  0
  160.4420  209.1700  157.1930 O   0  0  0  0  0  1  0  0  0  0  0  0
  162.5750  206.0000  148.0710 S   0  0  0  0  0  0  0  0  0  0  0  0
  162.2650  204.7550  146.8580 C   0  0  2  0  0  3  0  0  0  0  0  0
  159.9490  204.7240  142.6850 O   0  0  0  0  0  0  0  0  0  0  0  0
  160.8530  205.2370  143.3670 C   0  0  0  0  0  0  0  0  0  0  0  0
  162.8550  206.4330  145.3010 O   0  0  0  0  0  0  0  0  0  0  0  0
  162.0200  205.4980  145.6180 C   0  0  0  0  0  0  0  0  0  0  0  0
  160.8730  205.1720  144.8140 N   0  0  0  0  0  2  0  0  0  0  0  0
  161.9190  205.9570  142.7130 C   0  0  0  0  0  2  0  0  0  0  0  0
  161.8720  205.7660  141.2340 C   0  0  0  0  0  2  0  0  0  0  0  0
  162.5710  206.8970  140.5950 C   0  0  0  0  0  0  0  0  0  0  0  0
  163.5180  207.4940  141.2120 O   0  0  0  0  0  0  0  0  0  0  0  0
  162.0130  207.3990  139.4040 N   0  0  0  0  0  2  0  0  0  0  0  0
  160.8070  208.2080  139.5250 C   0  0  0  0  0  2  0  0  0  0  0  0
  161.9260  209.1910  137.5620 C   0  0  0  0  0  1  0  0  0  0  0  0
  160.9700  209.3850  138.6780 C   0  0  2  0  0  3  0  0  0  0  0  0
  159.5240  211.2880  139.8990 C   0  0  0  0  0  1  0  0  0  0  0  0
  160.8990  210.7240  139.4560 C   0  0  1  0  0  3  0  0  0  0  0  0
  161.8910  210.7210  140.4060 O   0  0  0  0  0  1  0  0  0  0  0  0
  161.0600  203.9340  147.3260 C   0  0  0  0  0  2  0  0  0  0  0  0
  159.9740  201.8480  147.0120 F   0  0  0  0  0  0  0  0  0  0  0  0
  161.2260  202.4490  146.9960 C   0  0  0  0  0  0  0  0  0  0  0  0
  162.1420  201.8310  147.8840 F   0  0  0  0  0  0  0  0  0  0  0  0
  161.5840  202.2940  145.6870 F   0  0  0  0  0  0  0  0  0  0  0  0
  1 10  1  1  0  0  0
  1  9  1  0  0  0  0
  2  1  1  0  0  0  0
  3 40  1  6  0  0  0
  3  2  1  0  0  0  0
  3  1  1  0  0  0  0
  5  8  1  0  0  0  0
  5  4  1  0  0  0  0
  6  7  1  0  0  0  0
  7  5  1  0  0  0  0
  9  6  1  6  0  0  0
  9  5  1  0  0  0  0
 10 15  1  0  0  0  0
 13 11  1  0  0  0  0
 14 15  1  0  0  0  0
 14 16  1  0  0  0  0
 15 13  1  0  0  0  0
 16 12  1  6  0  0  0
 16 17  1  0  0  0  0
 16 11  1  0  0  0  0
 19 18  1  0  0  0  0
 19 17  1  1  0  0  0
 19 29  1  0  0  0  0
 20 19  1  0  0  0  0
 21 20  1  0  0  0  0
 21 22  1  0  0  0  0
 22 18  1  0  0  0  0
 23 25  2  0  0  0  0
 24 21  1  0  0  0  0
 25 24  1  0  0  0  0
 26 25  1  0  0  0  0
 27 28  1  0  0  0  0
 27 26  1  0  0  0  0
 29 34  1  0  0  0  0
 30 33  2  0  0  0  0
 30 34  1  0  0  0  0
 32 31  2  0  0  0  0
 32 35  1  0  0  0  0
 33 32  1  0  0  0  0
 34 36  2  0  0  0  0
 36 31  1  0  0  0  0
 36 38  1  0  0  0  0
 38 37  2  0  0  0  0
 38 39  1  0  0  0  0
 41 58  1  1  0  0  0
 41 40  1  0  0  0  0
 42 43  2  0  0  0  0
 43 46  1  0  0  0  0
 44 45  2  0  0  0  0
 45 41  1  0  0  0  0
 46 45  1  0  0  0  0
 47 43  1  0  0  0  0
 48 47  1  0  0  0  0
 49 50  2  0  0  0  0
 49 48  1  0  0  0  0
 51 52  1  0  0  0  0
 51 49  1  0  0  0  0
 54 53  1  1  0  0  0
 54 56  1  0  0  0  0
 54 52  1  0  0  0  0
 56 55  1  1  0  0  0
 56 57  1  0  0  0  0
 60 59  1  0  0  0  0
 60 58  1  0  0  0  0
 60 61  1  0  0  0  0
 62 60  1  0  0  0  0
M  END
>  <MODEL>
3

>  <REMARK>
 VINA RESULT:      -2.9      3.424     10.043
  Name = 
  21 active torsions:
  status: ('A' for Active; 'I' for Inactive)
    1  A    between atoms: C_4  and  C_58
    2  A    between atoms: C_5  and  N_44
    3  A    between atoms: C_7  and  C_56
    4  A    between atoms: C_9  and  C_48
    5  A    between atoms: C_13  and  N_24
    6  A    between atoms: C_13  and  C_33
    7  A    between atoms: C_16  and  C_23
    8  A    between atoms: C_16  and  N_36
    9  A    between atoms: C_23  and  C_55
   10  A    between atoms: N_24  and  C_40
   11  A    between atoms: N_27  and  N_35
   12  A    between atoms: C_29  and  O_30
   13  A    between atoms: C_29  and  C_54
   14  A    between atoms: O_30  and  N_52
   15  A    between atoms: C_31  and  C_39
   16  A    between atoms: C_31  and  C_48
   17  A    between atoms: C_31  and  S_62
   18  A    between atoms: C_33  and  C_59
   19  A    between atoms: C_47  and  C_51
   20  A    between atoms: C_53  and  S_62
   21  A    between atoms: C_56  and  C_58
                            x       y       z     vdW  Elec       q    Type
                         _______ _______ _______ _____ _____    ______ ____

>  <TORSDO>
F 21

$$$$
=
 OpenBabel11072414043D

 62 66  0  0  1  0  0  0  0  0999 V2000
  161.5750  208.9040  151.8880 C   0  0  2  0  0  0  0  0  0  0  0  0
  162.7820  209.7280  152.3800 C   0  0  0  0  0  2  0  0  0  0  0  0
  161.4490  210.3360  152.3880 C   0  0  1  0  0  3  0  0  0  0  0  0
  159.5970  208.6480  154.8870 F   0  0  0  0  0  0  0  0  0  0  0  0
  160.8580  208.2440  154.4170 C   0  0  0  0  0  0  0  0  0  0  0  0
  160.9480  206.6260  153.0590 C   0  0  0  0  0  2  0  0  0  0  0  0
  160.9670  206.7300  154.5810 C   0  0  0  0  0  2  0  0  0  0  0  0
  161.9540  208.9480  154.9110 F   0  0  0  0  0  0  0  0  0  0  0  0
  160.7640  208.0890  152.9080 C   0  0  2  0  0  3  0  0  0  0  0  0
  161.1040  208.9590  150.5710 O   0  0  0  0  0  0  0  0  0  0  0  0
  162.7110  206.8130  148.2330 C   0  0  0  0  0  2  0  0  0  0  0  0
  160.9990  207.9660  146.9370 C   0  0  0  0  0  1  0  0  0  0  0  0
  162.9330  207.6950  149.4500 C   0  0  0  0  0  2  0  0  0  0  0  0
  160.5740  207.3410  149.2120 O   0  0  0  0  0  0  0  0  0  0  0  0
  161.5560  207.7530  150.0100 N   0  0  0  0  0  0  0  0  0  0  0  0
  161.1810  206.9100  147.9740 C   0  0  2  0  0  0  0  0  0  0  0  0
  160.3640  205.7130  147.2900 C   0  0  0  0  0  2  0  0  0  0  0  0
  159.8120  204.4130  145.2200 C   0  0  0  0  0  2  0  0  0  0  0  0
  160.9290  204.8680  146.1240 C   0  0  1  0  0  0  0  0  0  0  0  0
  161.8950  205.5550  145.2400 C   0  0  0  0  0  2  0  0  0  0  0  0
  161.3080  205.8220  143.9440 N   0  0  0  0  0  0  0  0  0  0  0  0
  160.2290  204.7970  143.8220 C   0  0  0  0  0  2  0  0  0  0  0  0
  160.8370  206.4330  141.2830 O   0  0  0  0  0  0  0  0  0  0  0  0
  162.3360  205.8980  142.9820 N   0  0  0  0  0  2  0  0  0  0  0  0
  162.0160  206.2430  141.6250 C   0  0  0  0  0  0  0  0  0  0  0  0
  163.0970  206.3650  140.7090 N   0  0  0  0  0  2  0  0  0  0  0  0
  163.3530  207.6150  140.0130 C   0  0  0  0  0  2  0  0  0  0  0  0
  162.1190  208.0490  139.2170 C   0  0  0  0  0  1  0  0  0  0  0  0
  161.7230  203.7830  146.6640 N   0  0  0  0  0  2  0  0  0  0  0  0
  161.2060  203.6930  149.1110 C   0  0  0  0  0  3  0  0  0  0  0  0
  161.0600  200.9400  148.9770 C   0  0  0  0  0  3  0  0  0  0  0  0
  161.1870  201.5840  150.2040 C   0  0  0  0  0  0  0  0  0  0  0  0
  161.1450  202.9310  150.3150 C   0  0  0  0  0  3  0  0  0  0  0  0
  161.3060  203.0660  147.8790 C   0  0  0  0  0  0  0  0  0  0  0  0
  161.3380  200.6590  151.6570 Cl  0  0  0  0  0  0  0  0  0  0  0  0
  161.0370  201.6810  147.7650 C   0  0  0  0  0  0  0  0  0  0  0  0
  161.5940  199.7650  146.2480 O   0  0  0  0  0  1  0  0  0  0  0  0
  160.9520  200.9350  146.4260 C   0  0  0  0  0  0  0  0  0  0  0  0
  160.1970  201.3380  145.4870 O   0  0  0  0  0  0  0  0  0  0  0  0
  161.2350  211.5450  151.0810 S   0  0  0  0  0  0  0  0  0  0  0  0
  159.7180  212.0760  151.8110 C   0  0  2  0  0  3  0  0  0  0  0  0
  156.2820  213.4780  148.8100 O   0  0  0  0  0  0  0  0  0  0  0  0
  157.4300  213.6820  149.2430 C   0  0  0  0  0  0  0  0  0  0  0  0
  160.1110  214.0670  150.6010 O   0  0  0  0  0  0  0  0  0  0  0  0
  159.2510  213.1660  150.9490 C   0  0  0  0  0  0  0  0  0  0  0  0
  157.8750  213.1990  150.5340 N   0  0  0  0  0  2  0  0  0  0  0  0
  158.3620  214.4530  148.4580 C   0  0  0  0  0  2  0  0  0  0  0  0
  159.2440  213.5680  147.6410 C   0  0  0  0  0  2  0  0  0  0  0  0
  158.6420  213.4150  146.3040 C   0  0  0  0  0  0  0  0  0  0  0  0
  157.9490  212.3770  146.0300 O   0  0  0  0  0  0  0  0  0  0  0  0
  159.0410  214.3370  145.3170 N   0  0  0  0  0  2  0  0  0  0  0  0
  160.3700  214.1630  144.7440 C   0  0  0  0  0  2  0  0  0  0  0  0
  159.9110  212.2770  143.2260 C   0  0  0  0  0  1  0  0  0  0  0  0
  160.2080  213.7230  143.3620 C   0  0  2  0  0  3  0  0  0  0  0  0
  162.6810  214.2690  142.4730 C   0  0  0  0  0  1  0  0  0  0  0  0
  161.1450  214.4520  142.3650 C   0  0  1  0  0  3  0  0  0  0  0  0
  160.6050  214.3390  141.1070 O   0  0  0  0  0  1  0  0  0  0  0  0
  160.0170  212.5180  153.2470 C   0  0  0  0  0  2  0  0  0  0  0  0
  157.7420  211.8730  153.4360 F   0  0  0  0  0  0  0  0  0  0  0  0
  158.7470  212.5670  154.0990 C   0  0  0  0  0  0  0  0  0  0  0  0
  158.3860  213.9050  154.3950 F   0  0  0  0  0  0  0  0  0  0  0  0
  158.9030  211.8080  155.2230 F   0  0  0  0  0  0  0  0  0  0  0  0
  1 10  1  6  0  0  0
  1  2  1  0  0  0  0
  1  3  1  0  0  0  0
  1  9  1  0  0  0  0
  2  3  1  0  0  0  0
  3 40  1  6  0  0  0
  5  7  1  0  0  0  0
  5  4  1  0  0  0  0
  5  8  1  0  0  0  0
  6  7  1  0  0  0  0
  9  6  1  1  0  0  0
  9  5  1  0  0  0  0
 11 13  1  0  0  0  0
 13 15  1  0  0  0  0
 14 15  1  0  0  0  0
 15 10  1  0  0  0  0
 16 12  1  6  0  0  0
 16 11  1  0  0  0  0
 16 14  1  0  0  0  0
 17 16  1  0  0  0  0
 18 19  1  0  0  0  0
 19 29  1  0  0  0  0
 19 17  1  1  0  0  0
 20 19  1  0  0  0  0
 21 20  1  0  0  0  0
 22 21  1  0  0  0  0
 22 18  1  0  0  0  0
 23 25  2  0  0  0  0
 24 21  1  0  0  0  0
 25 24  1  0  0  0  0
 26 25  1  0  0  0  0
 27 26  1  0  0  0  0
 28 27  1  0  0  0  0
 29 34  1  0  0  0  0
 30 33  1  0  0  0  0
 31 32  1  0  0  0  0
 32 33  2  0  0  0  0
 32 35  1  0  0  0  0
 34 30  2  0  0  0  0
 36 34  1  0  0  0  0
 36 31  2  0  0  0  0
 37 38  1  0  0  0  0
 38 36  1  0  0  0  0
 39 38  2  0  0  0  0
 40 41  1  0  0  0  0
 41 58  1  1  0  0  0
 42 43  2  0  0  0  0
 43 46  1  0  0  0  0
 44 45  2  0  0  0  0
 45 41  1  0  0  0  0
 46 45  1  0  0  0  0
 47 43  1  0  0  0  0
 48 47  1  0  0  0  0
 49 48  1  0  0  0  0
 50 49  2  0  0  0  0
 51 49  1  0  0  0  0
 52 51  1  0  0  0  0
 54 53  1  1  0  0  0
 54 52  1  0  0  0  0
 56 55  1  6  0  0  0
 56 54  1  0  0  0  0
 57 56  1  0  0  0  0
 58 60  1  0  0  0  0
 59 60  1  0  0  0  0
 60 61  1  0  0  0  0
 60 62  1  0  0  0  0
M  END
>  <MODEL>
4

>  <REMARK>
 VINA RESULT:      -2.7      4.493      9.072
  Name = 
  21 active torsions:
  status: ('A' for Active; 'I' for Inactive)
    1  A    between atoms: C_4  and  C_58
    2  A    between atoms: C_5  and  N_44
    3  A    between atoms: C_7  and  C_56
    4  A    between atoms: C_9  and  C_48
    5  A    between atoms: C_13  and  N_24
    6  A    between atoms: C_13  and  C_33
    7  A    between atoms: C_16  and  C_23
    8  A    between atoms: C_16  and  N_36
    9  A    between atoms: C_23  and  C_55
   10  A    between atoms: N_24  and  C_40
   11  A    between atoms: N_27  and  N_35
   12  A    between atoms: C_29  and  O_30
   13  A    between atoms: C_29  and  C_54
   14  A    between atoms: O_30  and  N_52
   15  A    between atoms: C_31  and  C_39
   16  A    between atoms: C_31  and  C_48
   17  A    between atoms: C_31  and  S_62
   18  A    between atoms: C_33  and  C_59
   19  A    between atoms: C_47  and  C_51
   20  A    between atoms: C_53  and  S_62
   21  A    between atoms: C_56  and  C_58
                            x       y       z     vdW  Elec       q    Type
                         _______ _______ _______ _____ _____    ______ ____

>  <TORSDO>
F 21

$$$$
=
 OpenBabel11072414043D

 62 66  0  0  1  0  0  0  0  0999 V2000
  161.7590  208.1130  148.8370 C   0  0  2  0  0  0  0  0  0  0  0  0
  163.2000  207.6860  149.1810 C   0  0  0  0  0  2  0  0  0  0  0  0
  162.1710  207.6350  150.2230 C   0  0  1  0  0  3  0  0  0  0  0  0
  159.4670  205.4100  149.4850 F   0  0  0  0  0  0  0  0  0  0  0  0
  160.7140  205.6120  148.8700 C   0  0  0  0  0  0  0  0  0  0  0  0
  160.7550  206.5410  146.9720 C   0  0  0  0  0  2  0  0  0  0  0  0
  160.6300  205.0940  147.4360 C   0  0  0  0  0  2  0  0  0  0  0  0
  161.8270  205.1570  149.5730 F   0  0  0  0  0  0  0  0  0  0  0  0
  160.7590  207.0450  148.3660 C   0  0  2  0  0  3  0  0  0  0  0  0
  161.2790  209.4100  149.0520 O   0  0  0  0  0  0  0  0  0  0  0  0
  163.3350  212.3100  148.9150 C   0  0  0  0  0  2  0  0  0  0  0  0
  161.1410  213.0730  148.1760 C   0  0  0  0  0  1  0  0  0  0  0  0
  163.0580  211.0310  149.6870 C   0  0  0  0  0  2  0  0  0  0  0  0
  161.9210  210.8850  147.5830 O   0  0  0  0  0  0  0  0  0  0  0  0
  162.3510  210.2260  148.6560 N   0  0  0  0  0  0  0  0  0  0  0  0
  162.3170  212.2650  147.7400 C   0  0  2  0  0  0  0  0  0  0  0  0
  162.6210  212.9660  146.3320 C   0  0  0  0  0  2  0  0  0  0  0  0
  161.4130  214.4480  144.7110 C   0  0  0  0  0  2  0  0  0  0  0  0
  161.5880  213.0260  145.1820 C   0  0  1  0  0  0  0  0  0  0  0  0
  161.9270  212.2490  143.9710 C   0  0  0  0  0  2  0  0  0  0  0  0
  162.2740  213.1290  142.8750 N   0  0  0  0  0  0  0  0  0  0  0  0
  161.5870  214.4100  143.2130 C   0  0  0  0  0  2  0  0  0  0  0  0
  163.2720  214.0030  140.4430 O   0  0  0  0  0  0  0  0  0  0  0  0
  162.0070  212.4720  141.6570 N   0  0  0  0  0  2  0  0  0  0  0  0
  162.5790  212.9720  140.4380 C   0  0  0  0  0  0  0  0  0  0  0  0
  162.3250  212.2370  139.2470 N   0  0  0  0  0  2  0  0  0  0  0  0
  163.4150  211.6760  138.4660 C   0  0  0  0  0  2  0  0  0  0  0  0
  164.6740  212.5350  138.6050 C   0  0  0  0  0  1  0  0  0  0  0  0
  160.3560  212.3990  145.6160 N   0  0  0  0  0  2  0  0  0  0  0  0
  159.0200  213.6070  147.3530 C   0  0  0  0  0  3  0  0  0  0  0  0
  156.9570  213.9210  145.5460 C   0  0  0  0  0  3  0  0  0  0  0  0
  156.7400  214.1050  146.9090 C   0  0  0  0  0  0  0  0  0  0  0  0
  157.7500  214.0720  147.8070 C   0  0  0  0  0  3  0  0  0  0  0  0
  159.2000  213.2040  146.0400 C   0  0  0  0  0  0  0  0  0  0  0  0
  155.1510  214.4530  147.4940 Cl  0  0  0  0  0  0  0  0  0  0  0  0
  158.2350  213.5360  145.0590 C   0  0  0  0  0  0  0  0  0  0  0  0
  158.2500  214.2830  142.6660 O   0  0  0  0  0  0  0  0  0  0  0  0
  158.4250  213.2870  143.5550 C   0  0  0  0  0  0  0  0  0  0  0  0
  158.8510  212.1740  143.1140 O   0  0  0  0  0  1  0  0  0  0  0  0
  162.3410  208.9540  151.4250 S   0  0  0  0  0  0  0  0  0  0  0  0
  161.1730  208.1530  152.4780 C   0  0  2  0  0  3  0  0  0  0  0  0
  162.5140  211.2490  155.8550 O   0  0  0  0  0  0  0  0  0  0  0  0
  161.5670  210.6680  155.2950 C   0  0  0  0  0  0  0  0  0  0  0  0
  159.4470  209.2730  153.6420 O   0  0  0  0  0  0  0  0  0  0  0  0
  160.7130  209.2050  153.3910 C   0  0  0  0  0  0  0  0  0  0  0  0
  161.6700  210.1150  153.9600 N   0  0  0  0  0  2  0  0  0  0  0  0
  160.2980  210.5570  155.9710 C   0  0  0  0  0  2  0  0  0  0  0  0
  159.9570  211.8200  156.6900 C   0  0  0  0  0  2  0  0  0  0  0  0
  158.6320  212.2750  156.2310 C   0  0  0  0  0  0  0  0  0  0  0  0
  157.7240  211.4200  155.9490 O   0  0  0  0  0  0  0  0  0  0  0  0
  158.5000  213.6430  155.9250 N   0  0  0  0  0  2  0  0  0  0  0  0
  159.0960  214.1050  154.6770 C   0  0  0  0  0  2  0  0  0  0  0  0
  156.6680  214.3700  154.3490 C   0  0  0  0  0  1  0  0  0  0  0  0
  158.0140  214.3540  153.7290 C   0  0  2  0  0  3  0  0  0  0  0  0
  159.2290  214.3930  151.3360 C   0  0  0  0  0  1  0  0  0  0  0  0
  158.2530  213.7190  152.3350 C   0  0  1  0  0  3  0  0  0  0  0  0
  158.3910  212.3620  152.4990 O   0  0  0  0  0  1  0  0  0  0  0  0
  161.8920  207.0010  153.1870 C   0  0  0  0  0  2  0  0  0  0  0  0
  159.7320  206.4730  154.0160 F   0  0  0  0  0  0  0  0  0  0  0  0
  161.0760  206.4680  154.3670 C   0  0  0  0  0  0  0  0  0  0  0  0
  161.3380  207.2150  155.5430 F   0  0  0  0  0  0  0  0  0  0  0  0
  161.3070  205.1330  154.5360 F   0  0  0  0  0  0  0  0  0  0  0  0
  1 10  1  6  0  0  0
  1  2  1  0  0  0  0
  1  3  1  0  0  0  0
  2  3  1  0  0  0  0
  3 40  1  1  0  0  0
  5  4  1  0  0  0  0
  5  8  1  0  0  0  0
  6  7  1  0  0  0  0
  7  5  1  0  0  0  0
  9  6  1  6  0  0  0
  9  1  1  0  0  0  0
  9  5  1  0  0  0  0
 11 13  1  0  0  0  0
 14 16  1  0  0  0  0
 14 15  1  0  0  0  0
 15 10  1  0  0  0  0
 15 13  1  0  0  0  0
 16 12  1  1  0  0  0
 16 11  1  0  0  0  0
 17 16  1  0  0  0  0
 18 19  1  0  0  0  0
 19 29  1  0  0  0  0
 19 17  1  1  0  0  0
 20 19  1  0  0  0  0
 21 22  1  0  0  0  0
 21 20  1  0  0  0  0
 22 18  1  0  0  0  0
 24 21  1  0  0  0  0
 25 23  2  0  0  0  0
 25 24  1  0  0  0  0
 26 25  1  0  0  0  0
 27 28  1  0  0  0  0
 27 26  1  0  0  0  0
 29 34  1  0  0  0  0
 30 33  1  0  0  0  0
 31 32  1  0  0  0  0
 32 35  1  0  0  0  0
 32 33  2  0  0  0  0
 34 30  2  0  0  0  0
 36 31  2  0  0  0  0
 36 34  1  0  0  0  0
 37 38  2  0  0  0  0
 38 36  1  0  0  0  0
 39 38  1  0  0  0  0
 40 41  1  0  0  0  0
 41 58  1  1  0  0  0
 41 45  1  0  0  0  0
 43 42  2  0  0  0  0
 43 47  1  0  0  0  0
 45 44  2  0  0  0  0
 45 46  1  0  0  0  0
 46 43  1  0  0  0  0
 47 48  1  0  0  0  0
 49 48  1  0  0  0  0
 50 49  2  0  0  0  0
 51 49  1  0  0  0  0
 52 51  1  0  0  0  0
 54 53  1  1  0  0  0
 54 52  1  0  0  0  0
 56 55  1  1  0  0  0
 56 57  1  0  0  0  0
 56 54  1  0  0  0  0
 58 60  1  0  0  0  0
 59 60  1  0  0  0  0
 60 62  1  0  0  0  0
 60 61  1  0  0  0  0
M  END
>  <MODEL>
5

>  <REMARK>
 VINA RESULT:      -2.6      1.914      2.391
  Name = 
  21 active torsions:
  status: ('A' for Active; 'I' for Inactive)
    1  A    between atoms: C_4  and  C_58
    2  A    between atoms: C_5  and  N_44
    3  A    between atoms: C_7  and  C_56
    4  A    between atoms: C_9  and  C_48
    5  A    between atoms: C_13  and  N_24
    6  A    between atoms: C_13  and  C_33
    7  A    between atoms: C_16  and  C_23
    8  A    between atoms: C_16  and  N_36
    9  A    between atoms: C_23  and  C_55
   10  A    between atoms: N_24  and  C_40
   11  A    between atoms: N_27  and  N_35
   12  A    between atoms: C_29  and  O_30
   13  A    between atoms: C_29  and  C_54
   14  A    between atoms: O_30  and  N_52
   15  A    between atoms: C_31  and  C_39
   16  A    between atoms: C_31  and  C_48
   17  A    between atoms: C_31  and  S_62
   18  A    between atoms: C_33  and  C_59
   19  A    between atoms: C_47  and  C_51
   20  A    between atoms: C_53  and  S_62
   21  A    between atoms: C_56  and  C_58
                            x       y       z     vdW  Elec       q    Type
                         _______ _______ _______ _____ _____    ______ ____

>  <TORSDO>
F 21

$$$$
=
 OpenBabel11072414043D

 62 66  0  0  1  0  0  0  0  0999 V2000
  161.1180  211.3600  149.8710 C   0  0  2  0  0  0  0  0  0  0  0  0
  159.6810  211.6900  150.3200 C   0  0  0  0  0  2  0  0  0  0  0  0
  160.7970  211.9750  151.2260 C   0  0  1  0  0  3  0  0  0  0  0  0
  161.3870  214.4450  148.0310 F   0  0  0  0  0  0  0  0  0  0  0  0
  161.5960  213.0710  147.8240 C   0  0  0  0  0  0  0  0  0  0  0  0
  163.3170  212.1820  148.6700 C   0  0  0  0  0  2  0  0  0  0  0  0
  163.0300  212.8730  147.3400 C   0  0  0  0  0  2  0  0  0  0  0  0
  160.6420  212.4130  147.0520 F   0  0  0  0  0  0  0  0  0  0  0  0
  161.9450  212.4460  149.1640 C   0  0  2  0  0  3  0  0  0  0  0  0
  161.7540  210.1530  150.1860 O   0  0  0  0  0  0  0  0  0  0  0  0
  161.1990  208.6190  147.0250 C   0  0  0  0  0  2  0  0  0  0  0  0
  160.3570  207.0080  148.6490 C   0  0  0  0  0  1  0  0  0  0  0  0
  161.2080  209.9450  147.7660 C   0  0  0  0  0  2  0  0  0  0  0  0
  162.3020  208.3190  149.1460 O   0  0  0  0  0  0  0  0  0  0  0  0
  162.0720  209.6120  148.9300 N   0  0  0  0  0  0  0  0  0  0  0  0
  161.6220  207.5840  148.1060 C   0  0  2  0  0  0  0  0  0  0  0  0
  162.3930  206.2320  147.7240 C   0  0  0  0  0  2  0  0  0  0  0  0
  160.3960  205.4560  146.4220 C   0  0  0  0  0  2  0  0  0  0  0  0
  161.8690  205.2370  146.6600 C   0  0  1  0  0  0  0  0  0  0  0  0
  162.5000  205.3290  145.3270 C   0  0  0  0  0  2  0  0  0  0  0  0
  161.5810  205.8890  144.3590 N   0  0  0  0  0  0  0  0  0  0  0  0
  160.2350  205.5890  144.9290 C   0  0  0  0  0  2  0  0  0  0  0  0
  161.0960  207.3480  142.0550 O   0  0  0  0  0  0  0  0  0  0  0  0
  161.9340  205.4310  143.0730 N   0  0  0  0  0  2  0  0  0  0  0  0
  161.6700  206.2540  141.9260 C   0  0  0  0  0  0  0  0  0  0  0  0
  162.1000  205.7700  140.6600 N   0  0  0  0  0  2  0  0  0  0  0  0
  163.0470  206.5210  139.8530 C   0  0  0  0  0  2  0  0  0  0  0  0
  162.7230  208.0160  139.8950 C   0  0  0  0  0  1  0  0  0  0  0  0
  162.2010  203.8880  147.0670 N   0  0  0  0  0  2  0  0  0  0  0  0
  161.0140  203.5180  149.2390 C   0  0  0  0  0  3  0  0  0  0  0  0
  160.2900  200.9870  148.4110 C   0  0  0  0  0  3  0  0  0  0  0  0
  160.2110  201.3430  149.7550 C   0  0  0  0  0  0  0  0  0  0  0  0
  160.4470  202.6060  150.1770 C   0  0  0  0  0  3  0  0  0  0  0  0
  161.3100  203.1160  147.9460 C   0  0  0  0  0  0  0  0  0  0  0  0
  159.7350  200.1730  150.9350 Cl  0  0  0  0  0  0  0  0  0  0  0  0
  160.7750  201.9060  147.4420 C   0  0  0  0  0  0  0  0  0  0  0  0
  161.1650  200.1780  145.6690 O   0  0  0  0  0  1  0  0  0  0  0  0
  160.9010  201.4610  145.9780 C   0  0  0  0  0  0  0  0  0  0  0  0
  160.6590  202.2580  145.0180 O   0  0  0  0  0  0  0  0  0  0  0  0
  160.8910  210.8170  152.5910 S   0  0  0  0  0  0  0  0  0  0  0  0
  160.1480  212.0070  153.6610 C   0  0  2  0  0  3  0  0  0  0  0  0
  163.3930  210.5050  156.8230 O   0  0  0  0  0  0  0  0  0  0  0  0
  162.1900  210.5420  156.5060 C   0  0  0  0  0  0  0  0  0  0  0  0
  159.3260  210.9440  155.6050 O   0  0  0  0  0  0  0  0  0  0  0  0
  160.3470  211.4690  155.0100 C   0  0  0  0  0  0  0  0  0  0  0  0
  161.6470  211.5500  155.6190 N   0  0  0  0  0  2  0  0  0  0  0  0
  161.2780  209.5700  157.0560 C   0  0  0  0  0  2  0  0  0  0  0  0
  161.5080  208.2180  156.4680 C   0  0  0  0  0  2  0  0  0  0  0  0
  160.2970  207.8200  155.7260 C   0  0  0  0  0  0  0  0  0  0  0  0
  159.1570  207.8460  156.3020 O   0  0  0  0  0  0  0  0  0  0  0  0
  160.4910  207.2260  154.4640 N   0  0  0  0  0  2  0  0  0  0  0  0
  160.9620  205.8460  154.4440 C   0  0  0  0  0  2  0  0  0  0  0  0
  161.1090  204.0280  152.7870 C   0  0  0  0  0  1  0  0  0  0  0  0
  161.2220  205.4820  153.0560 C   0  0  2  0  0  3  0  0  0  0  0  0
  163.0690  205.8060  151.1350 C   0  0  0  0  0  1  0  0  0  0  0  0
  162.3240  206.3430  152.3840 C   0  0  1  0  0  3  0  0  0  0  0  0
  161.8730  207.6380  152.3150 O   0  0  0  0  0  1  0  0  0  0  0  0
  158.6740  212.1380  153.2670 C   0  0  0  0  0  2  0  0  0  0  0  0
  157.7700  213.5810  151.6150 F   0  0  0  0  0  0  0  0  0  0  0  0
  158.3150  213.5780  152.8930 C   0  0  0  0  0  0  0  0  0  0  0  0
  159.4420  214.4290  153.0110 F   0  0  0  0  0  0  0  0  0  0  0  0
  157.2560  214.0090  153.6400 F   0  0  0  0  0  0  0  0  0  0  0  0
  1 10  1  6  0  0  0
  1  2  1  0  0  0  0
  1  3  1  0  0  0  0
  2  3  1  0  0  0  0
  3 40  1  1  0  0  0
  5  4  1  0  0  0  0
  5  9  1  0  0  0  0
  7  5  1  0  0  0  0
  7  6  1  0  0  0  0
  8  5  1  0  0  0  0
  9  6  1  6  0  0  0
  9  1  1  0  0  0  0
 11 13  1  0  0  0  0
 11 16  1  0  0  0  0
 13 15  1  0  0  0  0
 15 14  1  0  0  0  0
 15 10  1  0  0  0  0
 16 12  1  1  0  0  0
 16 14  1  0  0  0  0
 17 16  1  0  0  0  0
 18 19  1  0  0  0  0
 19 29  1  0  0  0  0
 19 17  1  1  0  0  0
 20 19  1  0  0  0  0
 21 22  1  0  0  0  0
 21 20  1  0  0  0  0
 22 18  1  0  0  0  0
 24 21  1  0  0  0  0
 25 23  2  0  0  0  0
 25 24  1  0  0  0  0
 26 25  1  0  0  0  0
 27 28  1  0  0  0  0
 27 26  1  0  0  0  0
 29 34  1  0  0  0  0
 30 33  1  0  0  0  0
 31 32  1  0  0  0  0
 32 33  2  0  0  0  0
 32 35  1  0  0  0  0
 34 30  2  0  0  0  0
 36 34  1  0  0  0  0
 36 31  2  0  0  0  0
 37 38  1  0  0  0  0
 38 36  1  0  0  0  0
 39 38  2  0  0  0  0
 40 41  1  0  0  0  0
 41 58  1  6  0  0  0
 41 45  1  0  0  0  0
 43 42  2  0  0  0  0
 43 47  1  0  0  0  0
 45 44  2  0  0  0  0
 45 46  1  0  0  0  0
 46 43  1  0  0  0  0
 48 47  1  0  0  0  0
 49 50  2  0  0  0  0
 49 48  1  0  0  0  0
 51 49  1  0  0  0  0
 52 51  1  0  0  0  0
 54 53  1  1  0  0  0
 54 52  1  0  0  0  0
 56 55  1  6  0  0  0
 56 54  1  0  0  0  0
 57 56  1  0  0  0  0
 59 60  1  0  0  0  0
 60 61  1  0  0  0  0
 60 58  1  0  0  0  0
 60 62  1  0  0  0  0
M  END
>  <MODEL>
6

>  <REMARK>
 VINA RESULT:      -1.5      4.797      8.059
  Name = 
  21 active torsions:
  status: ('A' for Active; 'I' for Inactive)
    1  A    between atoms: C_4  and  C_58
    2  A    between atoms: C_5  and  N_44
    3  A    between atoms: C_7  and  C_56
    4  A    between atoms: C_9  and  C_48
    5  A    between atoms: C_13  and  N_24
    6  A    between atoms: C_13  and  C_33
    7  A    between atoms: C_16  and  C_23
    8  A    between atoms: C_16  and  N_36
    9  A    between atoms: C_23  and  C_55
   10  A    between atoms: N_24  and  C_40
   11  A    between atoms: N_27  and  N_35
   12  A    between atoms: C_29  and  O_30
   13  A    between atoms: C_29  and  C_54
   14  A    between atoms: O_30  and  N_52
   15  A    between atoms: C_31  and  C_39
   16  A    between atoms: C_31  and  C_48
   17  A    between atoms: C_31  and  S_62
   18  A    between atoms: C_33  and  C_59
   19  A    between atoms: C_47  and  C_51
   20  A    between atoms: C_53  and  S_62
   21  A    between atoms: C_56  and  C_58
                            x       y       z     vdW  Elec       q    Type
                         _______ _______ _______ _____ _____    ______ ____

>  <TORSDO>
F 21

$$$$
