=
 OpenBabel11072412143D

 31 33  0  0  1  0  0  0  0  0999 V2000
  161.3890  204.6260  148.4120 C   0  0  0  0  0  2  0  0  0  0  0  0
  161.5160  205.0080  152.5140 N   0  0  0  0  0  0  0  0  0  0  0  0
  161.4140  203.8180  152.0150 C   0  0  0  0  0  3  0  0  0  0  0  0
  161.5920  207.1010  148.1910 C   0  0  0  0  0  2  0  0  0  0  0  0
  161.3750  206.2010  151.7210 C   0  0  0  0  0  0  0  0  0  0  0  0
  160.9080  207.3190  149.5370 C   0  0  0  0  0  2  0  0  0  0  0  0
  161.1270  203.6430  150.6280 N   0  0  0  0  0  0  0  0  0  0  0  0
  161.0660  205.8300  147.5290 C   0  0  1  0  0  3  0  0  0  0  0  0
  160.7280  204.7640  149.7840 C   0  0  0  0  0  0  0  0  0  0  0  0
  161.0620  206.1050  150.4080 C   0  0  0  0  0  0  0  0  0  0  0  0
  160.9550  207.8130  153.6040 C   0  0  0  0  0  0  0  0  0  0  0  0
  162.2760  208.4450  151.7010 O   0  0  0  0  0  1  0  0  0  0  0  0
  161.5800  207.4810  152.3530 N   0  0  0  0  0  0  0  0  0  0  0  0
  160.3100  206.9420  154.2500 O   0  0  0  0  0  0  0  0  0  0  0  0
  159.4920  211.2530  154.2980 C   0  0  0  0  0  2  0  0  0  0  0  0
  161.0410  209.2120  154.1320 C   0  0  1  0  0  3  0  0  0  0  0  0
  160.5790  211.7680  155.2400 C   0  0  2  0  0  3  0  0  0  0  0  0
  161.0910  210.6740  156.1900 C   0  0  0  0  0  2  0  0  0  0  0  0
  160.0190  210.1110  153.4200 C   0  0  0  0  0  2  0  0  0  0  0  0
  160.8840  209.2520  155.6530 C   0  0  0  0  0  2  0  0  0  0  0  0
  160.1000  212.9520  156.0110 C   0  0  0  0  0  0  0  0  0  0  0  0
  159.2470  213.8670  155.4090 O   0  0  0  0  0  0  0  0  0  0  0  0
  160.4730  213.1350  157.2020 O   0  0  0  0  0  1  0  0  0  0  0  0
  161.6690  205.6740  146.2790 O   0  0  0  0  0  0  0  0  0  0  0  0
  160.6230  205.7610  145.3600 C   0  0  0  0  0  2  0  0  0  0  0  0
  160.5690  204.4910  144.5360 C   0  0  0  0  0  2  0  0  0  0  0  0
  161.3760  203.4080  145.2240 C   0  0  0  0  0  2  0  0  0  0  0  0
  160.4550  202.3570  145.8200 C   0  0  1  0  0  3  0  0  0  0  0  0
  159.9830  201.4640  144.7730 N   0  0  0  0  0  1  0  0  0  0  0  0
  161.2030  201.5750  146.8480 C   0  0  0  0  0  3  0  0  0  0  0  0
  160.6440  201.2010  147.8660 O   0  0  0  0  0  0  0  0  0  0  0  0
  1  9  1  0  0  0  0
  3  2  1  0  0  0  0
  4  6  1  0  0  0  0
  5 13  1  0  0  0  0
  5  2  2  0  0  0  0
  6 10  1  0  0  0  0
  7  3  2  0  0  0  0
  8 24  1  6  0  0  0
  8  4  1  0  0  0  0
  8  1  1  0  0  0  0
  9 10  2  0  0  0  0
  9  7  1  0  0  0  0
 10  5  1  0  0  0  0
 11 14  2  0  0  0  0
 12 13  1  0  0  0  0
 13 11  1  0  0  0  0
 15 17  1  0  0  0  0
 16 11  1  6  0  0  0
 16 20  1  0  0  0  0
 17 21  1  1  0  0  0
 17 18  1  0  0  0  0
 19 16  1  0  0  0  0
 19 15  1  0  0  0  0
 20 18  1  0  0  0  0
 21 23  1  0  0  0  0
 22 21  2  0  0  0  0
 25 24  1  0  0  0  0
 26 27  1  0  0  0  0
 26 25  1  0  0  0  0
 27 28  1  0  0  0  0
 28 29  1  6  0  0  0
 28 30  1  0  0  0  0
 30 31  2  0  0  0  0
M  END
>  <MODEL>
1

>  <REMARK>
 VINA RESULT:      -7.7      0.000      0.000
  Name = 
  9 active torsions:
  status: ('A' for Active; 'I' for Inactive)
    1  A    between atoms: C_1  and  CA_6
    2  A    between atoms: C_2  and  C_11
    3  A    between atoms: C_3  and  CA_6
    4  A    between atoms: C_3  and  C_9
    5  A    between atoms: O_4  and  C_20
    6  A    between atoms: O_4  and  C_24
    7  A    between atoms: C_9  and  C_24
    8  A    between atoms: C_13  and  C_23
    9  A    between atoms: C_15  and  N_27
                            x       y       z     vdW  Elec       q    Type
                         _______ _______ _______ _____ _____    ______ ____

>  <TORSDO>
F 9

$$$$
=
 OpenBabel11072412143D

 31 33  0  0  1  0  0  0  0  0999 V2000
  159.8740  210.4270  154.7840 C   0  0  0  0  0  2  0  0  0  0  0  0
  161.2330  206.6780  153.7450 N   0  0  0  0  0  0  0  0  0  0  0  0
  160.9620  206.9050  154.9910 C   0  0  0  0  0  3  0  0  0  0  0  0
  160.0130  211.1230  152.3940 C   0  0  0  0  0  2  0  0  0  0  0  0
  161.2840  207.7210  152.7550 C   0  0  0  0  0  0  0  0  0  0  0  0
  161.1450  210.1360  152.1290 C   0  0  0  0  0  2  0  0  0  0  0  0
  160.7200  208.2370  155.4410 N   0  0  0  0  0  0  0  0  0  0  0  0
  160.0640  211.6130  153.8390 C   0  0  1  0  0  3  0  0  0  0  0  0
  160.9800  209.3910  154.5870 C   0  0  0  0  0  0  0  0  0  0  0  0
  161.1050  209.0100  153.1250 C   0  0  0  0  0  0  0  0  0  0  0  0
  160.9850  206.1510  150.8150 C   0  0  0  0  0  0  0  0  0  0  0  0
  162.3670  208.1060  150.6270 O   0  0  0  0  0  1  0  0  0  0  0  0
  161.5210  207.3600  151.3790 N   0  0  0  0  0  0  0  0  0  0  0  0
  160.1840  205.4340  151.4740 O   0  0  0  0  0  0  0  0  0  0  0  0
  161.1070  203.6490  147.9550 C   0  0  0  0  0  2  0  0  0  0  0  0
  161.4060  205.7190  149.4430 C   0  0  1  0  0  3  0  0  0  0  0  0
  161.6490  204.5790  146.8710 C   0  0  2  0  0  3  0  0  0  0  0  0
  161.0420  205.9890  146.9590 C   0  0  0  0  0  2  0  0  0  0  0  0
  161.4290  204.1850  149.3550 C   0  0  0  0  0  2  0  0  0  0  0  0
  160.5270  206.3470  148.3590 C   0  0  0  0  0  2  0  0  0  0  0  0
  161.4350  204.0000  145.5130 C   0  0  0  0  0  0  0  0  0  0  0  0
  161.0410  202.6740  145.3850 O   0  0  0  0  0  1  0  0  0  0  0  0
  161.6210  204.7000  144.4810 O   0  0  0  0  0  0  0  0  0  0  0  0
  159.0500  212.5500  154.0480 O   0  0  0  0  0  0  0  0  0  0  0  0
  159.3040  213.0810  155.3130 C   0  0  0  0  0  2  0  0  0  0  0  0
  158.0120  213.5920  155.9150 C   0  0  0  0  0  2  0  0  0  0  0  0
  157.2950  212.4520  156.6130 C   0  0  0  0  0  2  0  0  0  0  0  0
  155.9560  212.1820  155.9490 C   0  0  1  0  0  3  0  0  0  0  0  0
  155.5870  213.3080  155.1060 N   0  0  0  0  0  1  0  0  0  0  0  0
  156.0600  210.9460  155.1190 C   0  0  0  0  0  3  0  0  0  0  0  0
  155.1780  210.1030  155.1520 O   0  0  0  0  0  0  0  0  0  0  0  0
  2  3  1  0  0  0  0
  3  7  2  0  0  0  0
  4  8  1  0  0  0  0
  5 10  1  0  0  0  0
  5  2  2  0  0  0  0
  6  4  1  0  0  0  0
  6 10  1  0  0  0  0
  8 24  1  6  0  0  0
  8  1  1  0  0  0  0
  9  1  1  0  0  0  0
  9  7  1  0  0  0  0
 10  9  2  0  0  0  0
 11 13  1  0  0  0  0
 11 14  2  0  0  0  0
 12 13  1  0  0  0  0
 13  5  1  0  0  0  0
 15 19  1  0  0  0  0
 16 11  1  1  0  0  0
 17 21  1  6  0  0  0
 17 18  1  0  0  0  0
 17 15  1  0  0  0  0
 18 20  1  0  0  0  0
 19 16  1  0  0  0  0
 20 16  1  0  0  0  0
 22 21  1  0  0  0  0
 23 21  2  0  0  0  0
 24 25  1  0  0  0  0
 25 26  1  0  0  0  0
 26 27  1  0  0  0  0
 28 29  1  6  0  0  0
 28 27  1  0  0  0  0
 30 31  2  0  0  0  0
 30 28  1  0  0  0  0
M  END
>  <MODEL>
2

>  <REMARK>
 VINA RESULT:      -7.6      2.621      9.900
  Name = 
  9 active torsions:
  status: ('A' for Active; 'I' for Inactive)
    1  A    between atoms: C_1  and  CA_6
    2  A    between atoms: C_2  and  C_11
    3  A    between atoms: C_3  and  CA_6
    4  A    between atoms: C_3  and  C_9
    5  A    between atoms: O_4  and  C_20
    6  A    between atoms: O_4  and  C_24
    7  A    between atoms: C_9  and  C_24
    8  A    between atoms: C_13  and  C_23
    9  A    between atoms: C_15  and  N_27
                            x       y       z     vdW  Elec       q    Type
                         _______ _______ _______ _____ _____    ______ ____

>  <TORSDO>
F 9

$$$$
=
 OpenBabel11072412143D

 31 33  0  0  1  0  0  0  0  0999 V2000
  160.8980  210.1580  154.2580 C   0  0  0  0  0  2  0  0  0  0  0  0
  162.0200  209.7080  150.3180 N   0  0  0  0  0  0  0  0  0  0  0  0
  161.7870  210.9050  150.7530 C   0  0  0  0  0  3  0  0  0  0  0  0
  161.0670  207.6900  154.5710 C   0  0  0  0  0  2  0  0  0  0  0  0
  161.7030  208.5280  151.0770 C   0  0  0  0  0  0  0  0  0  0  0  0
  160.7320  207.4390  153.1050 C   0  0  0  0  0  2  0  0  0  0  0  0
  161.1710  211.0990  152.0250 N   0  0  0  0  0  0  0  0  0  0  0  0
  160.3830  208.9640  155.0610 C   0  0  1  0  0  3  0  0  0  0  0  0
  160.5910  209.9860  152.7710 C   0  0  0  0  0  0  0  0  0  0  0  0
  161.0800  208.6410  152.2720 C   0  0  0  0  0  0  0  0  0  0  0  0
  161.3590  206.6560  149.4330 C   0  0  0  0  0  0  0  0  0  0  0  0
  163.0200  206.5000  151.1610 O   0  0  0  0  0  1  0  0  0  0  0  0
  162.0690  207.2390  150.5390 N   0  0  0  0  0  0  0  0  0  0  0  0
  160.4760  207.3130  148.8180 O   0  0  0  0  0  0  0  0  0  0  0  0
  160.4960  202.9580  149.2470 C   0  0  0  0  0  2  0  0  0  0  0  0
  161.6460  205.2420  149.0270 C   0  0  1  0  0  3  0  0  0  0  0  0
  161.5490  202.5380  148.2230 C   0  0  2  0  0  3  0  0  0  0  0  0
  161.7390  203.5910  147.1200 C   0  0  0  0  0  2  0  0  0  0  0  0
  160.8940  204.2650  149.9430 C   0  0  0  0  0  2  0  0  0  0  0  0
  161.3320  205.0060  147.5480 C   0  0  0  0  0  2  0  0  0  0  0  0
  161.2170  201.2100  147.6300 C   0  0  0  0  0  0  0  0  0  0  0  0
  160.7150  201.1400  146.3370 O   0  0  0  0  0  0  0  0  0  0  0  0
  161.3790  200.1510  148.2960 O   0  0  0  0  0  1  0  0  0  0  0  0
  160.6640  209.1510  156.4160 O   0  0  0  0  0  0  0  0  0  0  0  0
  160.5070  210.5210  156.6320 C   0  0  0  0  0  2  0  0  0  0  0  0
  159.1540  210.7810  157.2600 C   0  0  0  0  0  2  0  0  0  0  0  0
  158.4400  211.8730  156.4890 C   0  0  0  0  0  2  0  0  0  0  0  0
  157.5260  211.2700  155.4370 C   0  0  1  0  0  3  0  0  0  0  0  0
  156.1460  211.3220  155.8940 N   0  0  0  0  0  1  0  0  0  0  0  0
  157.6640  212.0410  154.1660 C   0  0  0  0  0  3  0  0  0  0  0  0
  158.6210  212.7760  153.9900 O   0  0  0  0  0  0  0  0  0  0  0  0
  1  8  1  0  0  0  0
  2  3  2  0  0  0  0
  2  5  1  0  0  0  0
  3  7  1  0  0  0  0
  4  8  1  0  0  0  0
  5 10  2  0  0  0  0
  6  4  1  0  0  0  0
  7  9  2  0  0  0  0
  8 24  1  1  0  0  0
  9  1  1  0  0  0  0
 10  9  1  0  0  0  0
 10  6  1  0  0  0  0
 11 13  1  0  0  0  0
 13  5  1  0  0  0  0
 13 12  1  0  0  0  0
 14 11  2  0  0  0  0
 15 19  1  0  0  0  0
 16 11  1  1  0  0  0
 16 19  1  0  0  0  0
 17 21  1  6  0  0  0
 17 15  1  0  0  0  0
 18 20  1  0  0  0  0
 18 17  1  0  0  0  0
 20 16  1  0  0  0  0
 21 23  1  0  0  0  0
 22 21  2  0  0  0  0
 24 25  1  0  0  0  0
 25 26  1  0  0  0  0
 27 26  1  0  0  0  0
 28 29  1  1  0  0  0
 28 27  1  0  0  0  0
 30 28  1  0  0  0  0
 31 30  2  0  0  0  0
M  END
>  <MODEL>
3

>  <REMARK>
 VINA RESULT:      -7.5      2.504     10.026
  Name = 
  9 active torsions:
  status: ('A' for Active; 'I' for Inactive)
    1  A    between atoms: C_1  and  CA_6
    2  A    between atoms: C_2  and  C_11
    3  A    between atoms: C_3  and  CA_6
    4  A    between atoms: C_3  and  C_9
    5  A    between atoms: O_4  and  C_20
    6  A    between atoms: O_4  and  C_24
    7  A    between atoms: C_9  and  C_24
    8  A    between atoms: C_13  and  C_23
    9  A    between atoms: C_15  and  N_27
                            x       y       z     vdW  Elec       q    Type
                         _______ _______ _______ _____ _____    ______ ____

>  <TORSDO>
F 9

$$$$
=
 OpenBabel11072412143D

 31 33  0  0  1  0  0  0  0  0999 V2000
  160.7620  210.6880  152.3630 C   0  0  0  0  0  2  0  0  0  0  0  0
  160.8730  206.7770  153.6580 N   0  0  0  0  0  0  0  0  0  0  0  0
  160.4470  207.6810  154.4820 C   0  0  0  0  0  3  0  0  0  0  0  0
  161.6370  209.9620  150.1440 C   0  0  0  0  0  2  0  0  0  0  0  0
  161.4990  207.1000  152.4030 C   0  0  0  0  0  0  0  0  0  0  0  0
  162.3680  208.7810  150.7730 C   0  0  0  0  0  2  0  0  0  0  0  0
  160.6100  209.0650  154.1760 N   0  0  0  0  0  0  0  0  0  0  0  0
  161.5570  211.1230  151.1320 C   0  0  1  0  0  3  0  0  0  0  0  0
  161.4390  209.5080  153.0590 C   0  0  0  0  0  0  0  0  0  0  0  0
  161.7220  208.3920  152.0730 C   0  0  0  0  0  0  0  0  0  0  0  0
  161.0710  205.6730  150.3780 C   0  0  0  0  0  0  0  0  0  0  0  0
  162.9340  205.2390  151.8300 O   0  0  0  0  0  1  0  0  0  0  0  0
  161.8730  206.0230  151.5180 N   0  0  0  0  0  0  0  0  0  0  0  0
  160.0830  206.3820  150.0450 O   0  0  0  0  0  0  0  0  0  0  0  0
  160.2190  202.2240  149.0230 C   0  0  0  0  0  2  0  0  0  0  0  0
  161.3900  204.4360  149.5940 C   0  0  1  0  0  3  0  0  0  0  0  0
  161.3600  202.0950  148.0150 C   0  0  2  0  0  3  0  0  0  0  0  0
  161.6540  203.4220  147.2970 C   0  0  0  0  0  2  0  0  0  0  0  0
  160.5550  203.2530  150.1090 C   0  0  0  0  0  2  0  0  0  0  0  0
  161.2130  204.6580  148.0920 C   0  0  0  0  0  2  0  0  0  0  0  0
  161.0810  201.0140  147.0260 C   0  0  0  0  0  0  0  0  0  0  0  0
  161.5530  199.7290  147.2600 O   0  0  0  0  0  1  0  0  0  0  0  0
  160.4300  201.2590  145.9750 O   0  0  0  0  0  0  0  0  0  0  0  0
  160.9260  212.2100  150.5230 O   0  0  0  0  0  0  0  0  0  0  0  0
  161.4840  212.2800  149.2450 C   0  0  0  0  0  2  0  0  0  0  0  0
  160.5760  213.0880  148.3420 C   0  0  0  0  0  2  0  0  0  0  0  0
  160.3950  212.3580  147.0250 C   0  0  0  0  0  2  0  0  0  0  0  0
  159.2730  212.9870  146.2190 C   0  0  1  0  0  3  0  0  0  0  0  0
  159.1970  212.3620  144.9070 N   0  0  0  0  0  1  0  0  0  0  0  0
  157.9810  212.7950  146.9420 C   0  0  0  0  0  3  0  0  0  0  0  0
  157.0630  212.1880  146.4160 O   0  0  0  0  0  0  0  0  0  0  0  0
  1  9  1  0  0  0  0
  2  3  1  0  0  0  0
  4  6  1  0  0  0  0
  4  8  1  0  0  0  0
  5  2  2  0  0  0  0
  6 10  1  0  0  0  0
  7  3  2  0  0  0  0
  8 24  1  6  0  0  0
  8  1  1  0  0  0  0
  9  7  1  0  0  0  0
 10  5  1  0  0  0  0
 10  9  2  0  0  0  0
 11 13  1  0  0  0  0
 13 12  1  0  0  0  0
 13  5  1  0  0  0  0
 14 11  2  0  0  0  0
 15 19  1  0  0  0  0
 16 19  1  0  0  0  0
 16 11  1  1  0  0  0
 17 21  1  6  0  0  0
 17 15  1  0  0  0  0
 18 17  1  0  0  0  0
 18 20  1  0  0  0  0
 20 16  1  0  0  0  0
 21 22  1  0  0  0  0
 23 21  2  0  0  0  0
 25 24  1  0  0  0  0
 26 25  1  0  0  0  0
 27 26  1  0  0  0  0
 28 29  1  6  0  0  0
 28 30  1  0  0  0  0
 28 27  1  0  0  0  0
 31 30  2  0  0  0  0
M  END
>  <MODEL>
4

>  <REMARK>
 VINA RESULT:      -7.2      3.730      8.800
  Name = 
  9 active torsions:
  status: ('A' for Active; 'I' for Inactive)
    1  A    between atoms: C_1  and  CA_6
    2  A    between atoms: C_2  and  C_11
    3  A    between atoms: C_3  and  CA_6
    4  A    between atoms: C_3  and  C_9
    5  A    between atoms: O_4  and  C_20
    6  A    between atoms: O_4  and  C_24
    7  A    between atoms: C_9  and  C_24
    8  A    between atoms: C_13  and  C_23
    9  A    between atoms: C_15  and  N_27
                            x       y       z     vdW  Elec       q    Type
                         _______ _______ _______ _____ _____    ______ ____

>  <TORSDO>
F 9

$$$$
=
 OpenBabel11072412143D

 31 33  0  0  1  0  0  0  0  0999 V2000
  161.2260  204.9450  149.6380 C   0  0  0  0  0  2  0  0  0  0  0  0
  161.9850  208.9750  149.2270 N   0  0  0  0  0  0  0  0  0  0  0  0
  161.8830  208.2600  148.1520 C   0  0  0  0  0  3  0  0  0  0  0  0
  161.1860  205.2210  152.1160 C   0  0  0  0  0  2  0  0  0  0  0  0
  162.0560  208.3970  150.5430 C   0  0  0  0  0  0  0  0  0  0  0  0
  162.1500  206.4000  152.0410 C   0  0  0  0  0  2  0  0  0  0  0  0
  161.8610  206.8360  148.2360 N   0  0  0  0  0  0  0  0  0  0  0  0
  161.4560  204.2420  150.9760 C   0  0  1  0  0  3  0  0  0  0  0  0
  162.1660  206.1390  149.4820 C   0  0  0  0  0  0  0  0  0  0  0  0
  162.0810  207.0520  150.6890 C   0  0  0  0  0  0  0  0  0  0  0  0
  161.0110  209.3310  152.6300 C   0  0  0  0  0  0  0  0  0  0  0  0
  163.1080  210.1670  151.8120 O   0  0  0  0  0  1  0  0  0  0  0  0
  162.0930  209.2780  151.6850 N   0  0  0  0  0  0  0  0  0  0  0  0
  160.0520  208.5150  152.5560 O   0  0  0  0  0  0  0  0  0  0  0  0
  159.6010  212.4610  154.2650 C   0  0  0  0  0  2  0  0  0  0  0  0
  161.0020  210.3870  153.6930 C   0  0  1  0  0  3  0  0  0  0  0  0
  160.3540  212.3750  155.5910 C   0  0  2  0  0  3  0  0  0  0  0  0
  160.4690  210.9290  156.1010 C   0  0  0  0  0  2  0  0  0  0  0  0
  160.3160  211.6590  153.1710 C   0  0  0  0  0  2  0  0  0  0  0  0
  160.3660  209.8780  154.9880 C   0  0  0  0  0  2  0  0  0  0  0  0
  159.7210  213.2460  156.6230 C   0  0  0  0  0  0  0  0  0  0  0  0
  160.3370  214.4350  156.9920 O   0  0  0  0  0  0  0  0  0  0  0  0
  158.6370  212.9070  157.1710 O   0  0  0  0  0  1  0  0  0  0  0  0
  160.5960  203.1490  151.0890 O   0  0  0  0  0  0  0  0  0  0  0  0
  161.4340  202.0340  151.1370 C   0  0  0  0  0  2  0  0  0  0  0  0
  161.0090  201.0370  150.0790 C   0  0  0  0  0  2  0  0  0  0  0  0
  160.3980  201.7770  148.9040 C   0  0  0  0  0  2  0  0  0  0  0  0
  161.1910  201.5090  147.6370 C   0  0  1  0  0  3  0  0  0  0  0  0
  161.5960  200.1130  147.5940 N   0  0  0  0  0  1  0  0  0  0  0  0
  160.3430  201.8230  146.4510 C   0  0  0  0  0  3  0  0  0  0  0  0
  160.7870  202.4930  145.5330 O   0  0  0  0  0  0  0  0  0  0  0  0
  1  8  1  0  0  0  0
  2  5  1  0  0  0  0
  3  7  1  0  0  0  0
  3  2  2  0  0  0  0
  5 10  2  0  0  0  0
  5 13  1  0  0  0  0
  6  4  1  0  0  0  0
  7  9  2  0  0  0  0
  8 24  1  1  0  0  0
  8  4  1  0  0  0  0
  9  1  1  0  0  0  0
  9 10  1  0  0  0  0
 10  6  1  0  0  0  0
 13 12  1  0  0  0  0
 13 11  1  0  0  0  0
 14 11  2  0  0  0  0
 15 17  1  0  0  0  0
 16 11  1  6  0  0  0
 16 20  1  0  0  0  0
 17 18  1  0  0  0  0
 17 21  1  1  0  0  0
 19 16  1  0  0  0  0
 19 15  1  0  0  0  0
 20 18  1  0  0  0  0
 21 22  2  0  0  0  0
 21 23  1  0  0  0  0
 24 25  1  0  0  0  0
 26 25  1  0  0  0  0
 27 26  1  0  0  0  0
 28 29  1  6  0  0  0
 28 27  1  0  0  0  0
 30 28  1  0  0  0  0
 31 30  2  0  0  0  0
M  END
>  <MODEL>
5

>  <REMARK>
 VINA RESULT:      -6.8      2.153      3.265
  Name = 
  9 active torsions:
  status: ('A' for Active; 'I' for Inactive)
    1  A    between atoms: C_1  and  CA_6
    2  A    between atoms: C_2  and  C_11
    3  A    between atoms: C_3  and  CA_6
    4  A    between atoms: C_3  and  C_9
    5  A    between atoms: O_4  and  C_20
    6  A    between atoms: O_4  and  C_24
    7  A    between atoms: C_9  and  C_24
    8  A    between atoms: C_13  and  C_23
    9  A    between atoms: C_15  and  N_27
                            x       y       z     vdW  Elec       q    Type
                         _______ _______ _______ _____ _____    ______ ____

>  <TORSDO>
F 9

$$$$
=
 OpenBabel11072412143D

 31 33  0  0  1  0  0  0  0  0999 V2000
  161.3410  208.6810  153.3370 C   0  0  0  0  0  2  0  0  0  0  0  0
  162.1540  209.1860  149.3290 N   0  0  0  0  0  0  0  0  0  0  0  0
  162.0260  210.2450  150.0640 C   0  0  0  0  0  3  0  0  0  0  0  0
  161.3800  206.2090  153.0170 C   0  0  0  0  0  2  0  0  0  0  0  0
  161.8190  207.8680  149.7970 C   0  0  0  0  0  0  0  0  0  0  0  0
  160.9280  206.3480  151.5670 C   0  0  0  0  0  2  0  0  0  0  0  0
  161.5130  210.1390  151.3910 N   0  0  0  0  0  0  0  0  0  0  0  0
  160.8110  207.3460  153.8610 C   0  0  1  0  0  3  0  0  0  0  0  0
  160.9200  208.9010  151.8840 C   0  0  0  0  0  0  0  0  0  0  0  0
  161.2900  207.7040  151.0310 C   0  0  0  0  0  0  0  0  0  0  0  0
  160.9910  206.0270  148.2970 C   0  0  0  0  0  0  0  0  0  0  0  0
  163.3280  206.2610  148.8000 O   0  0  0  0  0  1  0  0  0  0  0  0
  162.0670  206.7410  148.9300 N   0  0  0  0  0  0  0  0  0  0  0  0
  159.8040  206.4470  148.3820 O   0  0  0  0  0  0  0  0  0  0  0  0
  160.5500  202.2970  147.7110 C   0  0  0  0  0  2  0  0  0  0  0  0
  161.2750  204.7550  147.5580 C   0  0  1  0  0  3  0  0  0  0  0  0
  161.2090  202.2110  146.3350 C   0  0  2  0  0  3  0  0  0  0  0  0
  160.8710  203.4230  145.4520 C   0  0  0  0  0  2  0  0  0  0  0  0
  161.0170  203.5450  148.4690 C   0  0  0  0  0  2  0  0  0  0  0  0
  160.4830  204.6730  146.2520 C   0  0  0  0  0  2  0  0  0  0  0  0
  160.8430  200.9400  145.6450 C   0  0  0  0  0  0  0  0  0  0  0  0
  161.3360  199.7320  146.1210 O   0  0  0  0  0  1  0  0  0  0  0  0
  160.0990  200.9540  144.6270 O   0  0  0  0  0  0  0  0  0  0  0  0
  161.1970  207.1750  155.1920 O   0  0  0  0  0  0  0  0  0  0  0  0
  160.1440  207.7010  155.9430 C   0  0  0  0  0  2  0  0  0  0  0  0
  160.6970  208.3870  157.1750 C   0  0  0  0  0  2  0  0  0  0  0  0
  162.0920  208.9040  156.8820 C   0  0  0  0  0  2  0  0  0  0  0  0
  162.2020  210.3730  157.2510 C   0  0  1  0  0  3  0  0  0  0  0  0
  163.2850  210.9900  156.5010 N   0  0  0  0  0  1  0  0  0  0  0  0
  160.9160  211.0580  156.9310 C   0  0  0  0  0  3  0  0  0  0  0  0
  160.7270  211.5330  155.8230 O   0  0  0  0  0  0  0  0  0  0  0  0
  1  8  1  0  0  0  0
  2  5  2  0  0  0  0
  2  3  1  0  0  0  0
  3  7  2  0  0  0  0
  4  8  1  0  0  0  0
  5 10  1  0  0  0  0
  6  4  1  0  0  0  0
  7  9  1  0  0  0  0
  8 24  1  1  0  0  0
  9  1  1  0  0  0  0
 10  6  1  0  0  0  0
 10  9  2  0  0  0  0
 11 14  2  0  0  0  0
 11 13  1  0  0  0  0
 12 13  1  0  0  0  0
 13  5  1  0  0  0  0
 15 19  1  0  0  0  0
 16 11  1  1  0  0  0
 16 19  1  0  0  0  0
 17 21  1  6  0  0  0
 17 15  1  0  0  0  0
 18 20  1  0  0  0  0
 18 17  1  0  0  0  0
 20 16  1  0  0  0  0
 21 22  1  0  0  0  0
 23 21  2  0  0  0  0
 24 25  1  0  0  0  0
 25 26  1  0  0  0  0
 27 26  1  0  0  0  0
 27 28  1  0  0  0  0
 28 29  1  6  0  0  0
 30 28  1  0  0  0  0
 31 30  2  0  0  0  0
M  END
>  <MODEL>
6

>  <REMARK>
 VINA RESULT:      -6.6      2.394     10.232
  Name = 
  9 active torsions:
  status: ('A' for Active; 'I' for Inactive)
    1  A    between atoms: C_1  and  CA_6
    2  A    between atoms: C_2  and  C_11
    3  A    between atoms: C_3  and  CA_6
    4  A    between atoms: C_3  and  C_9
    5  A    between atoms: O_4  and  C_20
    6  A    between atoms: O_4  and  C_24
    7  A    between atoms: C_9  and  C_24
    8  A    between atoms: C_13  and  C_23
    9  A    between atoms: C_15  and  N_27
                            x       y       z     vdW  Elec       q    Type
                         _______ _______ _______ _____ _____    ______ ____

>  <TORSDO>
F 9

$$$$
=
 OpenBabel11072412143D

 31 33  0  0  1  0  0  0  0  0999 V2000
  160.9070  211.7700  150.8610 C   0  0  0  0  0  2  0  0  0  0  0  0
  160.8550  208.2240  152.9600 N   0  0  0  0  0  0  0  0  0  0  0  0
  160.4130  209.2890  153.5500 C   0  0  0  0  0  3  0  0  0  0  0  0
  161.8710  210.5750  148.8970 C   0  0  0  0  0  2  0  0  0  0  0  0
  161.5500  208.2620  151.7010 C   0  0  0  0  0  0  0  0  0  0  0  0
  162.5400  209.5440  149.8000 C   0  0  0  0  0  2  0  0  0  0  0  0
  160.6260  210.5740  152.9660 N   0  0  0  0  0  0  0  0  0  0  0  0
  161.7720  211.9210  149.6100 C   0  0  1  0  0  3  0  0  0  0  0  0
  161.5190  210.7560  151.8270 C   0  0  0  0  0  0  0  0  0  0  0  0
  161.8210  209.4510  151.1160 C   0  0  0  0  0  0  0  0  0  0  0  0
  161.2680  206.5110  149.9200 C   0  0  0  0  0  0  0  0  0  0  0  0
  162.8730  206.2370  151.6850 O   0  0  0  0  0  1  0  0  0  0  0  0
  161.9390  207.0160  151.0860 N   0  0  0  0  0  0  0  0  0  0  0  0
  160.4010  207.2080  149.3250 O   0  0  0  0  0  0  0  0  0  0  0  0
  160.4310  202.8320  149.4500 C   0  0  0  0  0  2  0  0  0  0  0  0
  161.5750  205.1300  149.4240 C   0  0  1  0  0  3  0  0  0  0  0  0
  161.5170  202.4880  148.4310 C   0  0  2  0  0  3  0  0  0  0  0  0
  161.7330  203.6160  147.4100 C   0  0  0  0  0  2  0  0  0  0  0  0
  160.8020  204.0880  150.2470 C   0  0  0  0  0  2  0  0  0  0  0  0
  161.3060  204.9970  147.9240 C   0  0  0  0  0  2  0  0  0  0  0  0
  161.2100  201.2030  147.7360 C   0  0  0  0  0  0  0  0  0  0  0  0
  161.4900  199.9970  148.3650 O   0  0  0  0  0  1  0  0  0  0  0  0
  160.7090  201.2040  146.5790 O   0  0  0  0  0  0  0  0  0  0  0  0
  161.2000  212.8610  148.7510 O   0  0  0  0  0  0  0  0  0  0  0  0
  161.3850  212.3390  147.4700 C   0  0  0  0  0  2  0  0  0  0  0  0
  160.7030  213.2340  146.4570 C   0  0  0  0  0  2  0  0  0  0  0  0
  161.7520  213.9670  145.6440 C   0  0  0  0  0  2  0  0  0  0  0  0
  162.2450  213.0940  144.5030 C   0  0  1  0  0  3  0  0  0  0  0  0
  161.2030  212.9630  143.4960 N   0  0  0  0  0  1  0  0  0  0  0  0
  163.4560  213.7190  143.8940 C   0  0  0  0  0  3  0  0  0  0  0  0
  163.3810  214.2950  142.8210 O   0  0  0  0  0  0  0  0  0  0  0  0
  1  9  1  0  0  0  0
  2  3  1  0  0  0  0
  4  8  1  0  0  0  0
  4  6  1  0  0  0  0
  5  2  2  0  0  0  0
  6 10  1  0  0  0  0
  7  3  2  0  0  0  0
  8 24  1  6  0  0  0
  8  1  1  0  0  0  0
  9  7  1  0  0  0  0
 10  5  1  0  0  0  0
 10  9  2  0  0  0  0
 11 13  1  0  0  0  0
 13 12  1  0  0  0  0
 13  5  1  0  0  0  0
 14 11  2  0  0  0  0
 15 19  1  0  0  0  0
 16 11  1  1  0  0  0
 16 19  1  0  0  0  0
 17 21  1  6  0  0  0
 17 15  1  0  0  0  0
 18 20  1  0  0  0  0
 18 17  1  0  0  0  0
 20 16  1  0  0  0  0
 21 22  1  0  0  0  0
 23 21  2  0  0  0  0
 25 24  1  0  0  0  0
 26 25  1  0  0  0  0
 27 26  1  0  0  0  0
 28 29  1  6  0  0  0
 28 27  1  0  0  0  0
 30 28  1  0  0  0  0
 31 30  2  0  0  0  0
M  END
>  <MODEL>
7

>  <REMARK>
 VINA RESULT:      -6.4      4.332      8.928
  Name = 
  9 active torsions:
  status: ('A' for Active; 'I' for Inactive)
    1  A    between atoms: C_1  and  CA_6
    2  A    between atoms: C_2  and  C_11
    3  A    between atoms: C_3  and  CA_6
    4  A    between atoms: C_3  and  C_9
    5  A    between atoms: O_4  and  C_20
    6  A    between atoms: O_4  and  C_24
    7  A    between atoms: C_9  and  C_24
    8  A    between atoms: C_13  and  C_23
    9  A    between atoms: C_15  and  N_27
                            x       y       z     vdW  Elec       q    Type
                         _______ _______ _______ _____ _____    ______ ____

>  <TORSDO>
F 9

$$$$
=
 OpenBabel11072412143D

 31 33  0  0  1  0  0  0  0  0999 V2000
  161.9610  209.8150  152.9860 C   0  0  0  0  0  2  0  0  0  0  0  0
  161.9920  208.8190  148.9870 N   0  0  0  0  0  0  0  0  0  0  0  0
  162.3310  210.0240  149.3190 C   0  0  0  0  0  3  0  0  0  0  0  0
  161.2310  207.4970  153.5420 C   0  0  0  0  0  2  0  0  0  0  0  0
  161.4100  207.8890  149.9180 C   0  0  0  0  0  0  0  0  0  0  0  0
  160.5330  207.3490  152.1940 C   0  0  0  0  0  2  0  0  0  0  0  0
  162.1110  210.4910  150.6490 N   0  0  0  0  0  0  0  0  0  0  0  0
  161.2040  208.9540  153.9970 C   0  0  1  0  0  3  0  0  0  0  0  0
  161.3140  209.7290  151.6040 C   0  0  0  0  0  0  0  0  0  0  0  0
  161.1370  208.2830  151.1830 C   0  0  0  0  0  0  0  0  0  0  0  0
  161.4400  206.1160  148.1360 C   0  0  0  0  0  0  0  0  0  0  0  0
  160.4610  205.6950  150.2890 O   0  0  0  0  0  1  0  0  0  0  0  0
  161.1350  206.5450  149.4740 N   0  0  0  0  0  0  0  0  0  0  0  0
  162.0760  206.8700  147.3490 O   0  0  0  0  0  0  0  0  0  0  0  0
  161.4760  203.2030  145.6930 C   0  0  0  0  0  2  0  0  0  0  0  0
  160.9700  204.7760  147.6580 C   0  0  1  0  0  3  0  0  0  0  0  0
  160.6810  202.2030  146.5320 C   0  0  2  0  0  3  0  0  0  0  0  0
  161.0440  202.2790  148.0240 C   0  0  0  0  0  2  0  0  0  0  0  0
  161.2010  204.6420  146.1450 C   0  0  0  0  0  2  0  0  0  0  0  0
  161.6200  203.6370  148.4450 C   0  0  0  0  0  2  0  0  0  0  0  0
  160.8610  200.8140  146.0180 C   0  0  0  0  0  0  0  0  0  0  0  0
  161.5530  199.8820  146.7810 O   0  0  0  0  0  1  0  0  0  0  0  0
  160.3990  200.4810  144.8930 O   0  0  0  0  0  0  0  0  0  0  0  0
  161.8060  209.0600  155.2520 O   0  0  0  0  0  0  0  0  0  0  0  0
  160.8520  208.5790  156.1510 C   0  0  0  0  0  2  0  0  0  0  0  0
  160.2790  209.7340  156.9440 C   0  0  0  0  0  2  0  0  0  0  0  0
  159.2010  210.4220  156.1270 C   0  0  0  0  0  2  0  0  0  0  0  0
  159.4830  211.9100  156.0210 C   0  0  1  0  0  3  0  0  0  0  0  0
  160.8350  212.1900  156.4810 N   0  0  0  0  0  1  0  0  0  0  0  0
  159.3380  212.3370  154.5990 C   0  0  0  0  0  3  0  0  0  0  0  0
  158.8850  211.5690  153.7660 O   0  0  0  0  0  0  0  0  0  0  0  0
  1  8  1  0  0  0  0
  2  3  2  0  0  0  0
  2  5  1  0  0  0  0
  3  7  1  0  0  0  0
  4  8  1  0  0  0  0
  5 10  2  0  0  0  0
  6  4  1  0  0  0  0
  7  9  2  0  0  0  0
  8 24  1  1  0  0  0
  9  1  1  0  0  0  0
 10  9  1  0  0  0  0
 10  6  1  0  0  0  0
 11 13  1  0  0  0  0
 13  5  1  0  0  0  0
 13 12  1  0  0  0  0
 14 11  2  0  0  0  0
 15 19  1  0  0  0  0
 15 17  1  0  0  0  0
 16 11  1  1  0  0  0
 16 20  1  0  0  0  0
 17 21  1  6  0  0  0
 17 18  1  0  0  0  0
 18 20  1  0  0  0  0
 19 16  1  0  0  0  0
 21 22  1  0  0  0  0
 23 21  2  0  0  0  0
 24 25  1  0  0  0  0
 25 26  1  0  0  0  0
 27 26  1  0  0  0  0
 28 27  1  0  0  0  0
 28 29  1  6  0  0  0
 30 28  1  0  0  0  0
 31 30  2  0  0  0  0
M  END
>  <MODEL>
8

>  <REMARK>
 VINA RESULT:      -6.3      2.377     10.255
  Name = 
  9 active torsions:
  status: ('A' for Active; 'I' for Inactive)
    1  A    between atoms: C_1  and  CA_6
    2  A    between atoms: C_2  and  C_11
    3  A    between atoms: C_3  and  CA_6
    4  A    between atoms: C_3  and  C_9
    5  A    between atoms: O_4  and  C_20
    6  A    between atoms: O_4  and  C_24
    7  A    between atoms: C_9  and  C_24
    8  A    between atoms: C_13  and  C_23
    9  A    between atoms: C_15  and  N_27
                            x       y       z     vdW  Elec       q    Type
                         _______ _______ _______ _____ _____    ______ ____

>  <TORSDO>
F 9

$$$$
=
 OpenBabel11072412143D

 31 33  0  0  1  0  0  0  0  0999 V2000
  161.7330  210.7520  150.8580 C   0  0  0  0  0  2  0  0  0  0  0  0
  160.7280  206.9960  152.2250 N   0  0  0  0  0  0  0  0  0  0  0  0
  160.7630  207.9680  153.0810 C   0  0  0  0  0  3  0  0  0  0  0  0
  161.9590  209.8350  148.5510 C   0  0  0  0  0  2  0  0  0  0  0  0
  161.2240  207.1240  150.8810 C   0  0  0  0  0  0  0  0  0  0  0  0
  162.3410  208.4600  149.0900 C   0  0  0  0  0  2  0  0  0  0  0  0
  161.3310  209.2250  152.7160 N   0  0  0  0  0  0  0  0  0  0  0  0
  162.4270  210.9290  149.5080 C   0  0  1  0  0  3  0  0  0  0  0  0
  162.0750  209.3950  151.4720 C   0  0  0  0  0  0  0  0  0  0  0  0
  161.8120  208.2760  150.4850 C   0  0  0  0  0  0  0  0  0  0  0  0
  161.6510  204.7240  150.2660 C   0  0  0  0  0  0  0  0  0  0  0  0
  160.4830  206.1980  148.7720 O   0  0  0  0  0  1  0  0  0  0  0  0
  161.0730  206.0080  149.9780 N   0  0  0  0  0  0  0  0  0  0  0  0
  162.1980  204.5000  151.3800 O   0  0  0  0  0  0  0  0  0  0  0  0
  159.9250  201.9790  148.2790 C   0  0  0  0  0  2  0  0  0  0  0  0
  161.6330  203.6480  149.2220 C   0  0  1  0  0  3  0  0  0  0  0  0
  160.9860  201.7930  147.1940 C   0  0  2  0  0  3  0  0  0  0  0  0
  161.6040  203.1290  146.7520 C   0  0  0  0  0  2  0  0  0  0  0  0
  160.5260  202.6280  149.5310 C   0  0  0  0  0  2  0  0  0  0  0  0
  161.5040  204.2310  147.8140 C   0  0  0  0  0  2  0  0  0  0  0  0
  160.4280  201.0590  146.0210 C   0  0  0  0  0  0  0  0  0  0  0  0
  160.9460  199.8180  145.6760 O   0  0  0  0  0  1  0  0  0  0  0  0
  159.4970  201.5610  145.3340 O   0  0  0  0  0  0  0  0  0  0  0  0
  162.1090  212.1790  148.9740 O   0  0  0  0  0  0  0  0  0  0  0  0
  160.7140  212.2220  148.9620 C   0  0  0  0  0  2  0  0  0  0  0  0
  160.2500  213.6300  149.2710 C   0  0  0  0  0  2  0  0  0  0  0  0
  158.9280  213.8900  148.5750 C   0  0  0  0  0  2  0  0  0  0  0  0
  157.8170  214.0670  149.5950 C   0  0  1  0  0  3  0  0  0  0  0  0
  156.7940  213.0530  149.3920 N   0  0  0  0  0  1  0  0  0  0  0  0
  158.3860  213.9390  150.9680 C   0  0  0  0  0  3  0  0  0  0  0  0
  157.7060  213.5000  151.8810 O   0  0  0  0  0  0  0  0  0  0  0  0
  1  9  1  0  0  0  0
  2  3  1  0  0  0  0
  4  6  1  0  0  0  0
  4  8  1  0  0  0  0
  5  2  2  0  0  0  0
  6 10  1  0  0  0  0
  7  3  2  0  0  0  0
  8 24  1  6  0  0  0
  8  1  1  0  0  0  0
  9  7  1  0  0  0  0
 10  5  1  0  0  0  0
 10  9  2  0  0  0  0
 11 14  2  0  0  0  0
 12 13  1  0  0  0  0
 13 11  1  0  0  0  0
 13  5  1  0  0  0  0
 15 19  1  0  0  0  0
 16 19  1  0  0  0  0
 16 11  1  1  0  0  0
 17 21  1  6  0  0  0
 17 15  1  0  0  0  0
 18 17  1  0  0  0  0
 18 20  1  0  0  0  0
 20 16  1  0  0  0  0
 22 21  1  0  0  0  0
 23 21  2  0  0  0  0
 25 24  1  0  0  0  0
 25 26  1  0  0  0  0
 27 26  1  0  0  0  0
 27 28  1  0  0  0  0
 28 29  1  6  0  0  0
 28 30  1  0  0  0  0
 30 31  2  0  0  0  0
M  END
>  <MODEL>
9

>  <REMARK>
 VINA RESULT:      -5.8      3.396      9.362
  Name = 
  9 active torsions:
  status: ('A' for Active; 'I' for Inactive)
    1  A    between atoms: C_1  and  CA_6
    2  A    between atoms: C_2  and  C_11
    3  A    between atoms: C_3  and  CA_6
    4  A    between atoms: C_3  and  C_9
    5  A    between atoms: O_4  and  C_20
    6  A    between atoms: O_4  and  C_24
    7  A    between atoms: C_9  and  C_24
    8  A    between atoms: C_13  and  C_23
    9  A    between atoms: C_15  and  N_27
                            x       y       z     vdW  Elec       q    Type
                         _______ _______ _______ _____ _____    ______ ____

>  <TORSDO>
F 9

$$$$
