=
 OpenBabel11072410393D

 50 56  0  0  1  0  0  0  0  0999 V2000
  161.5640  209.9320  150.9320 N   0  0  0  0  0  0  0  0  0  0  0  0
  161.7800  208.3270  149.1220 C   0  0  0  0  0  0  0  0  0  0  0  0
  161.4890  208.6940  150.5400 C   0  0  0  0  0  0  0  0  0  0  0  0
  161.7990  211.0800  150.0560 C   0  0  1  0  0  3  0  0  0  0  0  0
  161.5550  206.9090  148.6650 C   0  0  1  0  0  3  0  0  0  0  0  0
  162.1740  209.2810  148.2680 C   0  0  0  0  0  3  0  0  0  0  0  0
  162.2810  210.6760  148.6930 C   0  0  0  0  0  0  0  0  0  0  0  0
  160.3400  205.7390  150.1990 C   0  0  0  0  0  2  0  0  0  0  0  0
  161.1850  206.3260  151.3510 C   0  0  1  0  0  3  0  0  0  0  0  0
  161.0670  207.7430  151.4800 O   0  0  0  0  0  0  0  0  0  0  0  0
  162.7400  211.5440  147.9020 O   0  0  0  0  0  0  0  0  0  0  0  0
  160.2570  206.5470  149.0440 O   0  0  0  0  0  0  0  0  0  0  0  0
  160.8150  205.6650  152.6850 C   0  0  2  0  0  3  0  0  0  0  0  0
  161.8390  205.8470  153.6120 O   0  0  0  0  0  1  0  0  0  0  0  0
  160.5050  204.0730  152.5220 C   0  0  0  0  0  2  0  0  0  0  0  0
  161.1790  203.9550  152.9220 N   0  0  0  0  0  2  0  0  0  0  0  0
  161.5690  203.3870  151.6680 C   0  0  0  0  0  3  0  0  0  0  0  0
  161.8430  202.1500  151.6590 O   0  0  0  0  0  0  0  0  0  0  0  0
  161.7330  206.7200  147.1500 C   0  0  0  0  0  2  0  0  0  0  0  0
  160.6740  200.9070  148.0800 F   0  0  0  0  0  0  0  0  0  0  0  0
  162.4060  205.4090  146.7420 C   0  0  1  0  0  0  0  0  0  0  0  0
  160.1360  202.9740  144.9710 C   0  0  0  0  0  3  0  0  0  0  0  0
  161.7020  202.9540  147.8930 C   0  0  0  0  0  3  0  0  0  0  0  0
  160.9580  204.2120  144.6390 C   0  0  0  0  0  2  0  0  0  0  0  0
  160.8860  202.0310  147.3550 C   0  0  0  0  0  0  0  0  0  0  0  0
  160.1410  202.1220  146.0370 C   0  0  0  0  0  3  0  0  0  0  0  0
  163.7400  205.4680  146.3420 O   0  0  0  0  0  1  0  0  0  0  0  0
  161.9510  204.1510  147.1440 C   0  0  0  0  0  0  0  0  0  0  0  0
  161.6360  204.6570  145.8540 C   0  0  0  0  0  0  0  0  0  0  0  0
  160.5500  211.9670  149.9790 C   0  0  0  0  0  2  0  0  0  0  0  0
  159.6650  211.8900  151.2230 C   0  0  0  0  0  2  0  0  0  0  0  0
  160.3320  212.5810  152.4040 C   0  0  1  0  0  3  0  0  0  0  0  0
  159.4280  213.6570  152.9620 C   0  0  0  0  0  2  0  0  0  0  0  0
  159.5330  212.3090  153.6650 C   0  0  2  0  0  3  0  0  0  0  0  0
  158.9970  213.8900  156.1140 O   0  0  0  0  0  1  0  0  0  0  0  0
  160.8350  209.8330  154.6610 C   0  0  0  0  0  2  0  0  0  0  0  0
  159.7410  212.7090  156.2150 C   0  0  1  0  0  3  0  0  0  0  0  0
  158.7160  209.3070  156.0230 O   0  0  0  0  0  0  0  0  0  0  0  0
  159.7430  206.9910  156.9820 C   0  0  0  0  0  1  0  0  0  0  0  0
  160.7460  207.9310  156.3370 C   0  0  2  0  0  3  0  0  0  0  0  0
  160.8220  209.1450  157.0630 O   0  0  0  0  0  0  0  0  0  0  0  0
  161.4390  211.2080  154.9800 C   0  0  0  0  0  2  0  0  0  0  0  0
  158.3240  210.6380  155.7880 C   0  0  2  0  0  3  0  0  0  0  0  0
  160.1120  209.1850  155.8450 C   0  0  1  0  0  0  0  0  0  0  0  0
  158.8890  211.5950  156.8450 C   0  0  0  0  0  2  0  0  0  0  0  0
  160.4600  212.3940  154.8830 C   0  0  1  0  0  3  0  0  0  0  0  0
  156.1850  211.2750  156.7150 O   0  0  0  0  0  1  0  0  0  0  0  0
  156.2950  209.4930  155.3230 F   0  0  0  0  0  0  0  0  0  0  0  0
  156.4450  211.6220  154.3820 C   0  0  0  0  0  1  0  0  0  0  0  0
  156.8010  210.7510  155.5780 C   0  0  2  0  0  0  0  0  0  0  0  0
  2  3  1  0  0  0  0
  3  1  2  0  0  0  0
  3 10  1  0  0  0  0
  4 30  1  6  0  0  0
  4  1  1  0  0  0  0
  5 19  1  6  0  0  0
  5 12  1  0  0  0  0
  5  2  1  0  0  0  0
  6  7  1  0  0  0  0
  6  2  2  0  0  0  0
  7  4  1  0  0  0  0
  8  9  1  0  0  0  0
  9 10  1  0  0  0  0
  9 13  1  1  0  0  0
 11  7  2  0  0  0  0
 12  8  1  0  0  0  0
 13 14  1  1  0  0  0
 15 13  1  0  0  0  0
 15 16  1  0  0  0  0
 17 16  1  0  0  0  0
 18 17  2  0  0  0  0
 21 27  1  6  0  0  0
 21 28  1  0  0  0  0
 21 19  1  0  0  0  0
 22 26  2  0  0  0  0
 24 22  1  0  0  0  0
 24 29  1  0  0  0  0
 25 23  2  0  0  0  0
 25 20  1  0  0  0  0
 26 25  1  0  0  0  0
 28 23  1  0  0  0  0
 29 21  1  0  0  0  0
 29 28  2  0  0  0  0
 30 31  1  0  0  0  0
 32 31  1  6  0  0  0
 32 33  1  0  0  0  0
 32 34  1  0  0  0  0
 34 33  1  1  0  0  0
 34 46  1  0  0  0  0
 36 42  1  0  0  0  0
 37 35  1  6  0  0  0
 37 45  1  0  0  0  0
 40 39  1  1  0  0  0
 40 41  1  0  0  0  0
 43 50  1  1  0  0  0
 43 38  1  0  0  0  0
 43 45  1  0  0  0  0
 44 36  1  6  0  0  0
 44 38  1  0  0  0  0
 44 40  1  0  0  0  0
 44 41  1  0  0  0  0
 46 42  1  1  0  0  0
 46 37  1  0  0  0  0
 48 50  1  0  0  0  0
 50 49  1  6  0  0  0
 50 47  1  0  0  0  0
M  END
>  <MODEL>
1

>  <REMARK>
 VINA RESULT:      -5.9      0.000      0.000
  Name = 
  10 active torsions:
  status: ('A' for Active; 'I' for Inactive)
    1  A    between atoms: C_3  and  C_15
    2  A    between atoms: C_6  and  C_21
    3  A    between atoms: C_8  and  C_14
    4  A    between atoms: C_14  and  C_19
    5  A    between atoms: C_15  and  C_21
    6  A    between atoms: C_20  and  C_24
    7  A    between atoms: C_24  and  C_35
    8  A    between atoms: C_28  and  C_44
    9  A    between atoms: C_35  and  C_46
   10  A    between atoms: C_37  and  C_45
                            x       y       z     vdW  Elec       q    Type
                         _______ _______ _______ _____ _____    ______ ____

>  <TORSDO>
F 10

$$$$
=
 OpenBabel11072410393D

 50 56  0  0  1  0  0  0  0  0999 V2000
  160.8660  209.2580  152.3120 N   0  0  0  0  0  0  0  0  0  0  0  0
  161.4310  207.6010  150.6280 C   0  0  0  0  0  0  0  0  0  0  0  0
  161.2430  209.0080  151.0920 C   0  0  0  0  0  0  0  0  0  0  0  0
  160.7140  208.2560  153.3680 C   0  0  1  0  0  3  0  0  0  0  0  0
  161.9960  207.3470  149.2550 C   0  0  1  0  0  3  0  0  0  0  0  0
  161.1530  206.5930  151.4660 C   0  0  0  0  0  3  0  0  0  0  0  0
  160.7120  206.8530  152.8360 C   0  0  0  0  0  0  0  0  0  0  0  0
  162.8890  209.2490  148.3720 C   0  0  0  0  0  2  0  0  0  0  0  0
  161.6680  210.0700  148.8450 C   0  0  1  0  0  3  0  0  0  0  0  0
  161.5210  210.1050  150.2650 O   0  0  0  0  0  0  0  0  0  0  0  0
  160.3690  205.8950  153.5810 O   0  0  0  0  0  0  0  0  0  0  0  0
  163.1720  208.0980  149.1380 O   0  0  0  0  0  0  0  0  0  0  0  0
  161.7400  211.5050  148.3090 C   0  0  0  0  0  0  0  0  0  0  0  0
  163.0520  211.8270  147.9710 O   0  0  0  0  0  0  0  0  0  0  0  0
  161.1700  212.5940  149.3810 C   0  0  0  0  0  1  0  0  0  0  0  0
  161.1590  212.5100  148.5930 N   0  0  0  0  0  0  0  0  0  0  0  0
  160.2320  213.5930  148.7080 C   0  0  0  0  0  3  0  0  0  0  0  0
  159.0410  213.3730  148.3350 O   0  0  0  0  0  0  0  0  0  0  0  0
  162.2910  205.8630  148.9810 C   0  0  0  0  0  2  0  0  0  0  0  0
  161.4380  200.3520  146.8200 F   0  0  0  0  0  0  0  0  0  0  0  0
  161.0820  205.0400  148.5360 C   0  0  1  0  0  0  0  0  0  0  0  0
  160.7360  201.7090  150.2680 C   0  0  0  0  0  3  0  0  0  0  0  0
  161.3560  202.6250  147.1430 C   0  0  0  0  0  3  0  0  0  0  0  0
  160.4130  203.1720  150.5400 C   0  0  0  0  0  2  0  0  0  0  0  0
  161.2730  201.3910  147.6710 C   0  0  0  0  0  0  0  0  0  0  0  0
  161.0510  201.0300  149.1270 C   0  0  0  0  0  3  0  0  0  0  0  0
  159.9170  205.7330  148.2130 O   0  0  0  0  0  1  0  0  0  0  0  0
  161.1780  203.7460  148.0190 C   0  0  0  0  0  0  0  0  0  0  0  0
  160.8210  203.9590  149.3780 C   0  0  0  0  0  0  0  0  0  0  0  0
  161.7780  208.4520  154.4560 C   0  0  0  0  0  2  0  0  0  0  0  0
  162.2070  209.9080  154.6410 C   0  0  0  0  0  2  0  0  0  0  0  0
  161.7820  210.4260  156.0070 C   0  0  1  0  0  3  0  0  0  0  0  0
  162.5620  211.6720  156.3610 C   0  0  0  0  0  2  0  0  0  0  0  0
  161.1320  211.7880  155.8500 C   0  0  2  0  0  3  0  0  0  0  0  0
  160.3040  214.4400  156.8840 O   0  0  0  0  0  1  0  0  0  0  0  0
  158.6660  210.1400  156.0000 C   0  0  0  0  0  2  0  0  0  0  0  0
  159.4020  213.3710  156.9490 C   0  0  1  0  0  3  0  0  0  0  0  0
  157.5120  211.7810  154.3890 O   0  0  0  0  0  0  0  0  0  0  0  0
  155.2040  210.3620  154.3800 C   0  0  0  0  0  1  0  0  0  0  0  0
  156.1870  210.0010  155.4790 C   0  0  2  0  0  3  0  0  0  0  0  0
  156.3870  211.1070  156.3440 O   0  0  0  0  0  0  0  0  0  0  0  0
  159.2240  210.8160  157.2610 C   0  0  0  0  0  2  0  0  0  0  0  0
  158.5740  212.6680  154.6480 C   0  0  2  0  0  3  0  0  0  0  0  0
  157.4230  210.8290  155.4280 C   0  0  1  0  0  0  0  0  0  0  0  0
  158.3050  213.5340  155.8840 C   0  0  0  0  0  2  0  0  0  0  0  0
  160.1500  212.0200  157.0050 C   0  0  1  0  0  3  0  0  0  0  0  0
  159.5630  212.6270  152.4430 O   0  0  0  0  0  1  0  0  0  0  0  0
  159.8570  214.4530  153.7480 F   0  0  0  0  0  0  0  0  0  0  0  0
  157.7720  214.1550  152.7460 C   0  0  0  0  0  1  0  0  0  0  0  0
  158.9670  213.4630  153.3870 C   0  0  2  0  0  0  0  0  0  0  0  0
  1  4  1  0  0  0  0
  2  3  1  0  0  0  0
  2  6  2  0  0  0  0
  3  1  2  0  0  0  0
  4 30  1  1  0  0  0
  5 19  1  1  0  0  0
  5  2  1  0  0  0  0
  6  7  1  0  0  0  0
  7  4  1  0  0  0  0
  7 11  2  0  0  0  0
  8  9  1  0  0  0  0
  8 12  1  0  0  0  0
  9 13  1  1  0  0  0
  9 10  1  0  0  0  0
 10  3  1  0  0  0  0
 12  5  1  0  0  0  0
 13 16  1  0  0  0  0
 14 13  2  0  0  0  0
 16 17  1  0  0  0  0
 16 15  1  0  0  0  0
 18 17  2  0  0  0  0
 20 25  1  0  0  0  0
 21 27  1  6  0  0  0
 21 19  1  0  0  0  0
 21 29  1  0  0  0  0
 22 24  1  0  0  0  0
 23 25  2  0  0  0  0
 23 28  1  0  0  0  0
 25 26  1  0  0  0  0
 26 22  2  0  0  0  0
 28 21  1  0  0  0  0
 28 29  2  0  0  0  0
 29 24  1  0  0  0  0
 30 31  1  0  0  0  0
 32 31  1  6  0  0  0
 32 33  1  0  0  0  0
 34 32  1  0  0  0  0
 34 33  1  1  0  0  0
 34 46  1  0  0  0  0
 36 42  1  0  0  0  0
 37 35  1  6  0  0  0
 37 46  1  0  0  0  0
 38 43  1  0  0  0  0
 38 44  1  0  0  0  0
 40 39  1  6  0  0  0
 40 41  1  0  0  0  0
 43 50  1  6  0  0  0
 43 45  1  0  0  0  0
 44 40  1  0  0  0  0
 44 36  1  1  0  0  0
 44 41  1  0  0  0  0
 45 37  1  0  0  0  0
 46 42  1  6  0  0  0
 47 50  1  0  0  0  0
 50 49  1  6  0  0  0
 50 48  1  0  0  0  0
M  END
>  <MODEL>
2

>  <REMARK>
 VINA RESULT:      -5.3      2.244      4.990
  Name = 
  10 active torsions:
  status: ('A' for Active; 'I' for Inactive)
    1  A    between atoms: C_3  and  C_15
    2  A    between atoms: C_6  and  C_21
    3  A    between atoms: C_8  and  C_14
    4  A    between atoms: C_14  and  C_19
    5  A    between atoms: C_15  and  C_21
    6  A    between atoms: C_20  and  C_24
    7  A    between atoms: C_24  and  C_35
    8  A    between atoms: C_28  and  C_44
    9  A    between atoms: C_35  and  C_46
   10  A    between atoms: C_37  and  C_45
                            x       y       z     vdW  Elec       q    Type
                         _______ _______ _______ _____ _____    ______ ____

>  <TORSDO>
F 10

$$$$
=
 OpenBabel11072410393D

 50 56  0  0  1  0  0  0  0  0999 V2000
  161.3040  205.9290  154.1130 N   0  0  0  0  0  0  0  0  0  0  0  0
  161.2870  206.5940  151.7770 C   0  0  0  0  0  0  0  0  0  0  0  0
  161.2410  205.5710  152.8640 C   0  0  0  0  0  0  0  0  0  0  0  0
  161.2940  207.3100  154.5940 C   0  0  1  0  0  3  0  0  0  0  0  0
  161.0770  206.1630  150.3490 C   0  0  1  0  0  3  0  0  0  0  0  0
  161.4490  207.8840  152.1000 C   0  0  0  0  0  3  0  0  0  0  0  0
  161.5390  208.3060  153.4980 C   0  0  0  0  0  0  0  0  0  0  0  0
  160.2520  204.0400  150.2480 C   0  0  0  0  0  2  0  0  0  0  0  0
  161.2560  203.5740  151.3250 C   0  0  1  0  0  3  0  0  0  0  0  0
  161.0690  204.2070  152.5910 O   0  0  0  0  0  0  0  0  0  0  0  0
  161.7820  209.5100  153.7800 O   0  0  0  0  0  0  0  0  0  0  0  0
  159.9000  205.4060  150.3070 O   0  0  0  0  0  0  0  0  0  0  0  0
  161.1870  202.0520  151.5070 C   0  0  2  0  0  3  0  0  0  0  0  0
  162.4640  201.5350  151.7200 O   0  0  0  0  0  1  0  0  0  0  0  0
  160.5050  201.3070  150.2270 C   0  0  0  0  0  1  0  0  0  0  0  0
  161.2000  200.9540  150.3770 N   0  0  0  0  0  0  0  0  0  0  0  0
  161.4350  201.3260  149.0160 C   0  0  0  0  0  3  0  0  0  0  0  0
  161.6080  200.3850  148.1850 O   0  0  0  0  0  0  0  0  0  0  0  0
  160.9810  207.3400  149.3640 C   0  0  0  0  0  2  0  0  0  0  0  0
  162.6060  202.8600  145.7490 F   0  0  0  0  0  0  0  0  0  0  0  0
  161.8560  207.2050  148.1180 C   0  0  1  0  0  0  0  0  0  0  0  0
  160.1260  205.6400  145.1560 C   0  0  0  0  0  3  0  0  0  0  0  0
  162.6380  204.7120  147.1100 C   0  0  0  0  0  3  0  0  0  0  0  0
  160.2240  207.0030  145.8270 C   0  0  0  0  0  2  0  0  0  0  0  0
  162.0740  204.0620  146.0770 C   0  0  0  0  0  0  0  0  0  0  0  0
  160.8790  204.5060  145.2560 C   0  0  0  0  0  3  0  0  0  0  0  0
  162.7850  208.2150  147.8730 O   0  0  0  0  0  1  0  0  0  0  0  0
  162.1020  205.9900  147.4750 C   0  0  0  0  0  0  0  0  0  0  0  0
  161.1250  206.8920  146.9720 C   0  0  0  0  0  0  0  0  0  0  0  0
  159.9950  207.6090  155.3550 C   0  0  0  0  0  2  0  0  0  0  0  0
  159.2740  208.8660  154.8680 C   0  0  0  0  0  2  0  0  0  0  0  0
  159.1420  209.8820  155.9930 C   0  0  1  0  0  3  0  0  0  0  0  0
  160.4720  210.5540  156.2530 C   0  0  0  0  0  2  0  0  0  0  0  0
  159.3980  211.2750  155.4470 C   0  0  2  0  0  3  0  0  0  0  0  0
  160.4170  213.9710  156.1390 O   0  0  0  0  0  1  0  0  0  0  0  0
  156.4840  211.6740  155.0390 C   0  0  0  0  0  2  0  0  0  0  0  0
  159.0360  213.7750  156.0180 C   0  0  1  0  0  3  0  0  0  0  0  0
  157.0110  213.3160  153.1290 O   0  0  0  0  0  0  0  0  0  0  0  0
  154.3900  213.7500  152.5980 C   0  0  0  0  0  1  0  0  0  0  0  0
  154.6820  213.0660  153.9210 C   0  0  2  0  0  3  0  0  0  0  0  0
  155.4310  213.9240  154.7650 O   0  0  0  0  0  0  0  0  0  0  0  0
  157.1410  212.0600  156.3730 C   0  0  0  0  0  2  0  0  0  0  0  0
  158.3330  213.3380  153.6110 C   0  0  2  0  0  3  0  0  0  0  0  0
  156.1400  212.8720  154.1490 C   0  0  1  0  0  0  0  0  0  0  0  0
  158.5230  214.3930  154.7070 C   0  0  0  0  0  2  0  0  0  0  0  0
  158.6600  212.3040  156.3110 C   0  0  1  0  0  3  0  0  0  0  0  0
  160.0610  212.2310  152.3350 O   0  0  0  0  0  1  0  0  0  0  0  0
  160.2350  214.4530  152.7270 F   0  0  0  0  0  0  0  0  0  0  0  0
  158.6930  213.7470  151.1260 C   0  0  0  0  0  1  0  0  0  0  0  0
  159.3540  213.4260  152.4590 C   0  0  2  0  0  0  0  0  0  0  0  0
  1  4  1  0  0  0  0
  2  6  2  0  0  0  0
  2  3  1  0  0  0  0
  3  1  2  0  0  0  0
  4 30  1  6  0  0  0
  5 19  1  6  0  0  0
  5  2  1  0  0  0  0
  6  7  1  0  0  0  0
  7 11  2  0  0  0  0
  7  4  1  0  0  0  0
  8 12  1  0  0  0  0
  8  9  1  0  0  0  0
  9 13  1  1  0  0  0
  9 10  1  0  0  0  0
 10  3  1  0  0  0  0
 12  5  1  0  0  0  0
 13 14  1  1  0  0  0
 15 16  1  0  0  0  0
 16 13  1  0  0  0  0
 17 16  1  0  0  0  0
 18 17  2  0  0  0  0
 20 25  1  0  0  0  0
 21 27  1  6  0  0  0
 21 19  1  0  0  0  0
 22 26  2  0  0  0  0
 22 24  1  0  0  0  0
 23 28  1  0  0  0  0
 24 29  1  0  0  0  0
 25 23  2  0  0  0  0
 26 25  1  0  0  0  0
 28 21  1  0  0  0  0
 29 28  2  0  0  0  0
 29 21  1  0  0  0  0
 31 30  1  0  0  0  0
 32 31  1  6  0  0  0
 32 33  1  0  0  0  0
 34 32  1  0  0  0  0
 34 33  1  1  0  0  0
 34 46  1  0  0  0  0
 36 42  1  0  0  0  0
 37 35  1  6  0  0  0
 37 46  1  0  0  0  0
 38 43  1  0  0  0  0
 38 44  1  0  0  0  0
 40 39  1  6  0  0  0
 40 44  1  0  0  0  0
 40 41  1  0  0  0  0
 43 50  1  6  0  0  0
 43 45  1  0  0  0  0
 44 41  1  0  0  0  0
 44 36  1  1  0  0  0
 45 37  1  0  0  0  0
 46 42  1  6  0  0  0
 47 50  1  0  0  0  0
 50 49  1  6  0  0  0
 50 48  1  0  0  0  0
M  END
>  <MODEL>
3

>  <REMARK>
 VINA RESULT:      -5.0      2.309      4.419
  Name = 
  10 active torsions:
  status: ('A' for Active; 'I' for Inactive)
    1  A    between atoms: C_3  and  C_15
    2  A    between atoms: C_6  and  C_21
    3  A    between atoms: C_8  and  C_14
    4  A    between atoms: C_14  and  C_19
    5  A    between atoms: C_15  and  C_21
    6  A    between atoms: C_20  and  C_24
    7  A    between atoms: C_24  and  C_35
    8  A    between atoms: C_28  and  C_44
    9  A    between atoms: C_35  and  C_46
   10  A    between atoms: C_37  and  C_45
                            x       y       z     vdW  Elec       q    Type
                         _______ _______ _______ _____ _____    ______ ____

>  <TORSDO>
F 10

$$$$
=
 OpenBabel11072410393D

 50 56  0  0  1  0  0  0  0  0999 V2000
  161.9480  210.7750  151.4480 N   0  0  0  0  0  0  0  0  0  0  0  0
  160.3120  212.0460  152.7170 C   0  0  0  0  0  0  0  0  0  0  0  0
  161.0170  211.6840  151.4510 C   0  0  0  0  0  0  0  0  0  0  0  0
  162.3130  209.9400  152.5930 C   0  0  1  0  0  3  0  0  0  0  0  0
  159.1500  213.0030  152.6670 C   0  0  1  0  0  3  0  0  0  0  0  0
  160.6870  211.4630  153.8640 C   0  0  0  0  0  3  0  0  0  0  0  0
  161.7430  210.4500  153.8840 C   0  0  0  0  0  0  0  0  0  0  0  0
  158.4370  213.3130  150.5240 C   0  0  0  0  0  2  0  0  0  0  0  0
  159.8970  213.4420  150.0330 C   0  0  1  0  0  3  0  0  0  0  0  0
  160.6680  212.2550  150.2190 O   0  0  0  0  0  0  0  0  0  0  0  0
  162.1440  209.9790  154.9820 O   0  0  0  0  0  0  0  0  0  0  0  0
  158.2630  212.5360  151.6890 O   0  0  0  0  0  0  0  0  0  0  0  0
  159.9370  213.8420  148.5530 C   0  0  2  0  0  3  0  0  0  0  0  0
  158.6550  214.1520  148.1030 O   0  0  0  0  0  1  0  0  0  0  0  0
  160.5760  212.6730  147.6130 C   0  0  0  0  0  2  0  0  0  0  0  0
  160.8340  212.3370  146.9420 N   0  0  0  0  0  2  0  0  0  0  0  0
  162.0710  212.8930  147.3970 C   0  0  0  0  0  3  0  0  0  0  0  0
  162.6030  213.7840  146.6690 O   0  0  0  0  0  0  0  0  0  0  0  0
  158.4190  213.1480  154.0120 C   0  0  0  0  0  2  0  0  0  0  0  0
  154.3230  209.2090  155.8780 F   0  0  0  0  0  0  0  0  0  0  0  0
  156.8970  213.0340  153.9300 C   0  0  1  0  0  0  0  0  0  0  0  0
  155.1810  212.6120  157.2610 C   0  0  0  0  0  3  0  0  0  0  0  0
  155.5410  210.6750  154.5950 C   0  0  0  0  0  3  0  0  0  0  0  0
  155.7570  213.7370  156.4120 C   0  0  0  0  0  2  0  0  0  0  0  0
  154.9200  210.4190  155.7580 C   0  0  0  0  0  0  0  0  0  0  0  0
  154.8410  211.3210  156.9740 C   0  0  0  0  0  3  0  0  0  0  0  0
  156.2490  213.7860  152.9520 O   0  0  0  0  0  1  0  0  0  0  0  0
  156.1760  211.9510  154.4360 C   0  0  0  0  0  0  0  0  0  0  0  0
  156.2760  213.1630  155.1730 C   0  0  0  0  0  0  0  0  0  0  0  0
  161.9290  208.4760  152.3390 C   0  0  0  0  0  2  0  0  0  0  0  0
  162.3900  207.9480  150.9810 C   0  0  0  0  0  2  0  0  0  0  0  0
  161.2060  207.7630  150.0430 C   0  0  1  0  0  3  0  0  0  0  0  0
  161.6300  207.9850  148.6100 C   0  0  0  0  0  2  0  0  0  0  0  0
  161.4570  206.5690  149.1420 C   0  0  2  0  0  3  0  0  0  0  0  0
  160.1940  206.9870  146.4930 O   0  0  0  0  0  1  0  0  0  0  0  0
  160.8430  203.7410  149.8090 C   0  0  0  0  0  2  0  0  0  0  0  0
  159.9730  205.7820  147.1710 C   0  0  1  0  0  3  0  0  0  0  0  0
  162.1270  203.0010  147.7050 O   0  0  0  0  0  0  0  0  0  0  0  0
  161.6940  200.3730  148.2010 C   0  0  0  0  0  1  0  0  0  0  0  0
  160.8360  201.3360  149.0010 C   0  0  2  0  0  3  0  0  0  0  0  0
  160.0010  202.0870  148.1370 O   0  0  0  0  0  0  0  0  0  0  0  0
  159.7080  204.7320  149.5130 C   0  0  0  0  0  2  0  0  0  0  0  0
  162.0700  204.3440  147.2880 C   0  0  2  0  0  3  0  0  0  0  0  0
  161.1210  202.7590  148.6680 C   0  0  1  0  0  0  0  0  0  0  0  0
  160.7790  204.6480  146.5170 C   0  0  0  0  0  2  0  0  0  0  0  0
  160.1150  205.9730  148.6980 C   0  0  1  0  0  3  0  0  0  0  0  0
  164.2090  203.6710  146.3880 O   0  0  0  0  0  1  0  0  0  0  0  0
  164.0000  205.7280  147.3070 F   0  0  0  0  0  0  0  0  0  0  0  0
  163.0770  205.3810  145.1940 C   0  0  0  0  0  1  0  0  0  0  0  0
  163.3600  204.7640  146.5570 C   0  0  2  0  0  0  0  0  0  0  0  0
  1  3  2  0  0  0  0
  1  4  1  0  0  0  0
  2  6  2  0  0  0  0
  3  2  1  0  0  0  0
  4 30  1  6  0  0  0
  4  7  1  0  0  0  0
  5  2  1  0  0  0  0
  5 19  1  1  0  0  0
  6  7  1  0  0  0  0
  7 11  2  0  0  0  0
  8 12  1  0  0  0  0
  9 13  1  6  0  0  0
  9 10  1  0  0  0  0
  9  8  1  0  0  0  0
 10  3  1  0  0  0  0
 12  5  1  0  0  0  0
 13 14  1  6  0  0  0
 15 13  1  0  0  0  0
 16 17  1  0  0  0  0
 16 15  1  0  0  0  0
 18 17  2  0  0  0  0
 21 27  1  6  0  0  0
 21 19  1  0  0  0  0
 21 28  1  0  0  0  0
 21 29  1  0  0  0  0
 23 25  2  0  0  0  0
 24 22  1  0  0  0  0
 25 20  1  0  0  0  0
 25 26  1  0  0  0  0
 26 22  2  0  0  0  0
 28 23  1  0  0  0  0
 28 29  2  0  0  0  0
 29 24  1  0  0  0  0
 31 30  1  0  0  0  0
 32 31  1  1  0  0  0
 33 32  1  0  0  0  0
 34 33  1  6  0  0  0
 34 32  1  0  0  0  0
 37 35  1  6  0  0  0
 37 46  1  0  0  0  0
 38 44  1  0  0  0  0
 40 39  1  6  0  0  0
 41 44  1  0  0  0  0
 41 40  1  0  0  0  0
 42 36  1  0  0  0  0
 43 50  1  6  0  0  0
 43 38  1  0  0  0  0
 44 40  1  0  0  0  0
 44 36  1  1  0  0  0
 45 37  1  0  0  0  0
 45 43  1  0  0  0  0
 46 34  1  0  0  0  0
 46 42  1  1  0  0  0
 47 50  1  0  0  0  0
 50 49  1  6  0  0  0
 50 48  1  0  0  0  0
M  END
>  <MODEL>
4

>  <REMARK>
 VINA RESULT:      -4.2      2.727     10.281
  Name = 
  10 active torsions:
  status: ('A' for Active; 'I' for Inactive)
    1  A    between atoms: C_3  and  C_15
    2  A    between atoms: C_6  and  C_21
    3  A    between atoms: C_8  and  C_14
    4  A    between atoms: C_14  and  C_19
    5  A    between atoms: C_15  and  C_21
    6  A    between atoms: C_20  and  C_24
    7  A    between atoms: C_24  and  C_35
    8  A    between atoms: C_28  and  C_44
    9  A    between atoms: C_35  and  C_46
   10  A    between atoms: C_37  and  C_45
                            x       y       z     vdW  Elec       q    Type
                         _______ _______ _______ _____ _____    ______ ____

>  <TORSDO>
F 10

$$$$
=
 OpenBabel11072410393D

 50 56  0  0  1  0  0  0  0  0999 V2000
  159.4920  213.5940  148.8010 N   0  0  0  0  0  0  0  0  0  0  0  0
  160.6520  212.1750  150.3950 C   0  0  0  0  0  0  0  0  0  0  0  0
  159.5830  213.1490  150.0200 C   0  0  0  0  0  0  0  0  0  0  0  0
  160.2930  213.1250  147.6710 C   0  0  1  0  0  3  0  0  0  0  0  0
  160.6510  211.5750  151.7760 C   0  0  1  0  0  3  0  0  0  0  0  0
  161.5510  211.8040  149.4740 C   0  0  0  0  0  3  0  0  0  0  0  0
  161.4760  212.3070  148.1020 C   0  0  0  0  0  0  0  0  0  0  0  0
  158.6740  211.9700  152.8390 C   0  0  0  0  0  2  0  0  0  0  0  0
  158.6810  213.4380  152.3560 C   0  0  1  0  0  3  0  0  0  0  0  0
  158.6100  213.5700  150.9360 O   0  0  0  0  0  0  0  0  0  0  0  0
  162.3820  212.0200  147.2740 O   0  0  0  0  0  0  0  0  0  0  0  0
  159.3690  211.0620  152.0120 O   0  0  0  0  0  0  0  0  0  0  0  0
  157.5280  214.2230  152.9940 C   0  0  2  0  0  3  0  0  0  0  0  0
  157.3370  213.8120  154.3120 O   0  0  0  0  0  1  0  0  0  0  0  0
  156.1340  214.0590  152.1650 C   0  0  0  0  0  1  0  0  0  0  0  0
  156.1860  214.4380  152.8600 N   0  0  0  0  0  0  0  0  0  0  0  0
  154.9740  213.7160  153.0970 C   0  0  0  0  0  3  0  0  0  0  0  0
  153.9220  214.4010  153.2720 O   0  0  0  0  0  0  0  0  0  0  0  0
  161.7020  210.4670  151.9620 C   0  0  0  0  0  2  0  0  0  0  0  0
  158.9400  210.1980  157.2600 F   0  0  0  0  0  0  0  0  0  0  0  0
  162.1360  210.2320  153.4090 C   0  0  1  0  0  0  0  0  0  0  0  0
  160.3360  207.4080  155.1400 C   0  0  0  0  0  3  0  0  0  0  0  0
  160.4190  210.6930  155.5720 C   0  0  0  0  0  3  0  0  0  0  0  0
  161.4980  207.5940  154.1750 C   0  0  0  0  0  2  0  0  0  0  0  0
  159.7170  209.7620  156.2400 C   0  0  0  0  0  0  0  0  0  0  0  0
  159.6660  208.2730  155.9560 C   0  0  0  0  0  3  0  0  0  0  0  0
  163.4800  210.4370  153.7170 O   0  0  0  0  0  1  0  0  0  0  0  0
  161.2560  210.2600  154.4920 C   0  0  0  0  0  0  0  0  0  0  0  0
  161.6690  209.0230  153.9260 C   0  0  0  0  0  0  0  0  0  0  0  0
  159.4170  212.3710  146.6610 C   0  0  0  0  0  2  0  0  0  0  0  0
  160.1280  212.0600  145.3440 C   0  0  0  0  0  2  0  0  0  0  0  0
  160.5410  213.3420  144.6370 C   0  0  1  0  0  3  0  0  0  0  0  0
  162.0060  213.2890  144.2660 C   0  0  0  0  0  2  0  0  0  0  0  0
  160.9420  213.0240  143.2090 C   0  0  2  0  0  3  0  0  0  0  0  0
  163.0310  214.3750  141.5970 O   0  0  0  0  0  1  0  0  0  0  0  0
  158.5040  213.1710  141.5210 C   0  0  0  0  0  2  0  0  0  0  0  0
  161.7060  214.3920  141.1470 C   0  0  1  0  0  3  0  0  0  0  0  0
  159.7210  211.8160  139.7030 O   0  0  0  0  0  0  0  0  0  0  0  0
  157.5630  211.8170  138.0660 C   0  0  0  0  0  1  0  0  0  0  0  0
  157.5080  212.8060  139.2160 C   0  0  2  0  0  3  0  0  0  0  0  0
  158.5470  213.7630  139.0940 O   0  0  0  0  0  0  0  0  0  0  0  0
  159.2460  214.4530  141.9240 C   0  0  0  0  0  2  0  0  0  0  0  0
  160.9130  212.0910  140.4000 C   0  0  2  0  0  3  0  0  0  0  0  0
  158.7310  212.7560  140.0640 C   0  0  1  0  0  0  0  0  0  0  0  0
  161.5330  213.4240  139.9640 C   0  0  0  0  0  2  0  0  0  0  0  0
  160.7190  214.2600  142.3290 C   0  0  1  0  0  3  0  0  0  0  0  0
  161.1990  209.7150  140.0630 O   0  0  0  0  0  1  0  0  0  0  0  0
  162.4950  210.7750  141.5860 F   0  0  0  0  0  0  0  0  0  0  0  0
  162.9910  211.0870  139.3290 C   0  0  0  0  0  1  0  0  0  0  0  0
  161.8830  210.8950  140.3560 C   0  0  2  0  0  0  0  0  0  0  0  0
  1  3  2  0  0  0  0
  2  5  1  0  0  0  0
  3  2  1  0  0  0  0
  3 10  1  0  0  0  0
  4 30  1  6  0  0  0
  4  7  1  0  0  0  0
  4  1  1  0  0  0  0
  5 19  1  6  0  0  0
  5 12  1  0  0  0  0
  6  2  2  0  0  0  0
  7  6  1  0  0  0  0
  9  8  1  0  0  0  0
  9 13  1  1  0  0  0
 10  9  1  0  0  0  0
 11  7  2  0  0  0  0
 12  8  1  0  0  0  0
 13 14  1  1  0  0  0
 15 16  1  0  0  0  0
 16 13  1  0  0  0  0
 16 17  1  0  0  0  0
 17 18  2  0  0  0  0
 19 21  1  0  0  0  0
 21 27  1  1  0  0  0
 21 29  1  0  0  0  0
 21 28  1  0  0  0  0
 22 26  2  0  0  0  0
 23 25  2  0  0  0  0
 24 22  1  0  0  0  0
 25 20  1  0  0  0  0
 26 25  1  0  0  0  0
 28 23  1  0  0  0  0
 29 24  1  0  0  0  0
 29 28  2  0  0  0  0
 31 30  1  0  0  0  0
 32 31  1  1  0  0  0
 33 32  1  0  0  0  0
 34 33  1  1  0  0  0
 34 32  1  0  0  0  0
 36 42  1  0  0  0  0
 37 35  1  1  0  0  0
 37 46  1  0  0  0  0
 38 44  1  0  0  0  0
 38 43  1  0  0  0  0
 40 39  1  6  0  0  0
 40 44  1  0  0  0  0
 41 40  1  0  0  0  0
 41 44  1  0  0  0  0
 43 50  1  6  0  0  0
 44 36  1  1  0  0  0
 45 43  1  0  0  0  0
 45 37  1  0  0  0  0
 46 42  1  6  0  0  0
 46 34  1  0  0  0  0
 47 50  1  0  0  0  0
 50 49  1  6  0  0  0
 50 48  1  0  0  0  0
M  END
>  <MODEL>
5

>  <REMARK>
 VINA RESULT:      -4.1      5.793     11.615
  Name = 
  10 active torsions:
  status: ('A' for Active; 'I' for Inactive)
    1  A    between atoms: C_3  and  C_15
    2  A    between atoms: C_6  and  C_21
    3  A    between atoms: C_8  and  C_14
    4  A    between atoms: C_14  and  C_19
    5  A    between atoms: C_15  and  C_21
    6  A    between atoms: C_20  and  C_24
    7  A    between atoms: C_24  and  C_35
    8  A    between atoms: C_28  and  C_44
    9  A    between atoms: C_35  and  C_46
   10  A    between atoms: C_37  and  C_45
                            x       y       z     vdW  Elec       q    Type
                         _______ _______ _______ _____ _____    ______ ____

>  <TORSDO>
F 10

$$$$
=
 OpenBabel11072410393D

 50 56  0  0  1  0  0  0  0  0999 V2000
  160.5430  210.7580  152.6350 N   0  0  0  0  0  0  0  0  0  0  0  0
  159.1460  212.6490  153.2450 C   0  0  0  0  0  0  0  0  0  0  0  0
  159.9610  211.8630  152.2710 C   0  0  0  0  0  0  0  0  0  0  0  0
  160.3760  210.1060  153.9340 C   0  0  1  0  0  3  0  0  0  0  0  0
  158.3750  213.8490  152.7630 C   0  0  1  0  0  3  0  0  0  0  0  0
  159.0650  212.2320  154.5160 C   0  0  0  0  0  3  0  0  0  0  0  0
  159.7260  211.0010  154.9490 C   0  0  0  0  0  0  0  0  0  0  0  0
  158.2740  213.8960  150.4860 C   0  0  0  0  0  2  0  0  0  0  0  0
  159.7720  213.5300  150.3890 C   0  0  1  0  0  3  0  0  0  0  0  0
  160.0800  212.2430  150.9280 O   0  0  0  0  0  0  0  0  0  0  0  0
  159.7150  210.6730  156.1660 O   0  0  0  0  0  0  0  0  0  0  0  0
  157.6210  213.4470  151.6540 O   0  0  0  0  0  0  0  0  0  0  0  0
  160.2530  213.5960  148.9340 C   0  0  2  0  0  3  0  0  0  0  0  0
  159.2680  213.1050  148.0800 O   0  0  0  0  0  1  0  0  0  0  0  0
  161.6380  212.7660  148.7020 C   0  0  0  0  0  2  0  0  0  0  0  0
  162.2810  212.3410  148.5170 N   0  0  0  0  0  2  0  0  0  0  0  0
  162.6080  213.5460  147.8180 C   0  0  0  0  0  3  0  0  0  0  0  0
  162.7020  213.4710  146.5570 O   0  0  0  0  0  0  0  0  0  0  0  0
  157.4520  214.4530  153.8340 C   0  0  0  0  0  2  0  0  0  0  0  0
  154.9730  209.3150  155.6300 F   0  0  0  0  0  0  0  0  0  0  0  0
  156.0370  213.8740  153.8610 C   0  0  1  0  0  0  0  0  0  0  0  0
  154.8880  212.7160  157.2600 C   0  0  0  0  0  3  0  0  0  0  0  0
  155.5450  211.1710  154.4010 C   0  0  0  0  0  3  0  0  0  0  0  0
  155.0010  214.0180  156.4800 C   0  0  0  0  0  2  0  0  0  0  0  0
  155.1550  210.6560  155.5810 C   0  0  0  0  0  0  0  0  0  0  0  0
  154.9320  211.4050  156.8790 C   0  0  0  0  0  3  0  0  0  0  0  0
  155.0920  214.4480  153.0120 O   0  0  0  0  0  1  0  0  0  0  0  0
  155.7380  212.5890  154.3160 C   0  0  0  0  0  0  0  0  0  0  0  0
  155.5390  213.7190  155.1550 C   0  0  0  0  0  0  0  0  0  0  0  0
  159.6250  208.7780  153.7810 C   0  0  0  0  0  2  0  0  0  0  0  0
  160.2920  207.6080  154.5050 C   0  0  0  0  0  2  0  0  0  0  0  0
  161.5980  207.2260  153.8240 C   0  0  1  0  0  3  0  0  0  0  0  0
  161.5960  205.7550  153.4720 C   0  0  0  0  0  2  0  0  0  0  0  0
  161.3140  206.7960  152.3960 C   0  0  2  0  0  3  0  0  0  0  0  0
  163.7100  205.0530  152.3030 O   0  0  0  0  0  1  0  0  0  0  0  0
  160.9630  207.7090  149.5930 C   0  0  0  0  0  2  0  0  0  0  0  0
  163.3440  205.7700  151.1580 C   0  0  1  0  0  3  0  0  0  0  0  0
  160.6710  205.2580  148.8670 O   0  0  0  0  0  0  0  0  0  0  0  0
  160.2820  205.9310  146.2710 C   0  0  0  0  0  1  0  0  0  0  0  0
  160.8510  207.0300  147.1510 C   0  0  2  0  0  3  0  0  0  0  0  0
  162.1240  206.6530  147.6480 O   0  0  0  0  0  0  0  0  0  0  0  0
  162.2820  207.9720  150.3340 C   0  0  0  0  0  2  0  0  0  0  0  0
  161.1850  204.9000  150.1270 C   0  0  2  0  0  3  0  0  0  0  0  0
  161.0480  206.5840  148.5580 C   0  0  1  0  0  0  0  0  0  0  0  0
  162.7170  204.8270  150.1180 C   0  0  0  0  0  2  0  0  0  0  0  0
  162.5570  207.0460  151.5330 C   0  0  1  0  0  3  0  0  0  0  0  0
  159.8470  202.9420  149.6650 O   0  0  0  0  0  1  0  0  0  0  0  0
  159.5660  204.0280  151.6310 F   0  0  0  0  0  0  0  0  0  0  0  0
  161.4700  202.7050  151.3800 C   0  0  0  0  0  1  0  0  0  0  0  0
  160.4920  203.6420  150.6850 C   0  0  2  0  0  0  0  0  0  0  0  0
  1  4  1  0  0  0  0
  2  6  2  0  0  0  0
  3  1  2  0  0  0  0
  3  2  1  0  0  0  0
  4 30  1  6  0  0  0
  4  7  1  0  0  0  0
  5  2  1  0  0  0  0
  5 19  1  1  0  0  0
  6  7  1  0  0  0  0
  7 11  2  0  0  0  0
  8 12  1  0  0  0  0
  9 13  1  6  0  0  0
  9  8  1  0  0  0  0
  9 10  1  0  0  0  0
 10  3  1  0  0  0  0
 12  5  1  0  0  0  0
 13 14  1  6  0  0  0
 15 13  1  0  0  0  0
 16 15  1  0  0  0  0
 17 16  1  0  0  0  0
 18 17  2  0  0  0  0
 19 21  1  0  0  0  0
 21 27  1  6  0  0  0
 21 28  1  0  0  0  0
 21 29  1  0  0  0  0
 23 25  2  0  0  0  0
 24 22  1  0  0  0  0
 25 20  1  0  0  0  0
 25 26  1  0  0  0  0
 26 22  2  0  0  0  0
 28 23  1  0  0  0  0
 28 29  2  0  0  0  0
 29 24  1  0  0  0  0
 30 31  1  0  0  0  0
 32 31  1  1  0  0  0
 33 32  1  0  0  0  0
 34 33  1  1  0  0  0
 34 32  1  0  0  0  0
 36 42  1  0  0  0  0
 37 46  1  0  0  0  0
 37 35  1  1  0  0  0
 38 43  1  0  0  0  0
 40 39  1  6  0  0  0
 40 41  1  0  0  0  0
 40 44  1  0  0  0  0
 41 44  1  0  0  0  0
 43 50  1  6  0  0  0
 44 38  1  0  0  0  0
 44 36  1  1  0  0  0
 45 43  1  0  0  0  0
 45 37  1  0  0  0  0
 46 42  1  6  0  0  0
 46 34  1  0  0  0  0
 47 50  1  0  0  0  0
 50 49  1  1  0  0  0
 50 48  1  0  0  0  0
M  END
>  <MODEL>
6

>  <REMARK>
 VINA RESULT:      -3.8      2.397      9.775
  Name = 
  10 active torsions:
  status: ('A' for Active; 'I' for Inactive)
    1  A    between atoms: C_3  and  C_15
    2  A    between atoms: C_6  and  C_21
    3  A    between atoms: C_8  and  C_14
    4  A    between atoms: C_14  and  C_19
    5  A    between atoms: C_15  and  C_21
    6  A    between atoms: C_20  and  C_24
    7  A    between atoms: C_24  and  C_35
    8  A    between atoms: C_28  and  C_44
    9  A    between atoms: C_35  and  C_46
   10  A    between atoms: C_37  and  C_45
                            x       y       z     vdW  Elec       q    Type
                         _______ _______ _______ _____ _____    ______ ____

>  <TORSDO>
F 10

$$$$
