=
 OpenBabel11072413473D

 29 32  0  0  1  0  0  0  0  0999 V2000
  160.2890  209.8760  154.4340 C   0  0  0  0  0  0  0  0  0  0  0  0
  161.0490  207.0340  153.6700 N   0  0  0  0  0  0  0  0  0  0  0  0
  161.2260  210.1370  156.6810 N   0  0  0  0  0  1  0  0  0  0  0  0
  161.1760  209.2930  155.4980 C   0  0  1  0  0  3  0  0  0  0  0  0
  161.2660  207.8850  151.4780 N   0  0  0  0  0  2  0  0  0  0  0  0
  160.8950  208.0380  152.8510 C   0  0  0  0  0  0  0  0  0  0  0  0
  160.7160  207.9660  155.8710 N   0  0  0  0  0  0  0  0  0  0  0  0
  160.2300  209.3020  153.2300 C   0  0  0  0  0  3  0  0  0  0  0  0
  160.6920  206.9510  155.0620 C   0  0  0  0  0  3  0  0  0  0  0  0
  158.1540  212.6540  153.1290 C   0  0  0  0  0  2  0  0  0  0  0  0
  157.3950  212.1640  155.5280 C   0  0  0  0  0  2  0  0  0  0  0  0
  157.4250  213.1800  154.3730 C   0  0  0  0  0  0  0  0  0  0  0  0
  158.1140  210.8520  155.2140 C   0  0  0  0  0  2  0  0  0  0  0  0
  155.9980  213.5130  153.9860 C   0  0  0  0  0  1  0  0  0  0  0  0
  159.5330  212.0680  153.4600 C   0  0  0  0  0  2  0  0  0  0  0  0
  159.5210  211.1430  154.6900 C   0  0  0  0  0  3  0  0  0  0  0  0
  158.0950  214.4530  154.8570 C   0  0  0  0  0  1  0  0  0  0  0  0
  161.8430  206.6630  150.9370 C   0  0  1  0  0  3  0  0  0  0  0  0
  162.3570  205.7890  152.0570 C   0  0  0  0  0  2  0  0  0  0  0  0
  162.0690  204.4120  151.5650 C   0  0  0  0  0  2  0  0  0  0  0  0
  160.8790  204.6300  150.6620 C   0  0  1  0  0  3  0  0  0  0  0  0
  160.8680  205.9620  150.2020 O   0  0  0  0  0  0  0  0  0  0  0  0
  161.2730  203.1750  147.1690 C   0  0  0  0  0  0  0  0  0  0  0  0
  161.2590  204.0890  148.2270 C   0  0  0  0  0  3  0  0  0  0  0  0
  160.5460  202.3330  149.7350 C   0  0  0  0  0  3  0  0  0  0  0  0
  160.5610  201.4190  148.6770 C   0  0  0  0  0  3  0  0  0  0  0  0
  161.6450  203.6030  145.8640 N   0  0  0  0  0  1  0  0  0  0  0  0
  160.9250  201.8400  147.3940 C   0  0  0  0  0  3  0  0  0  0  0  0
  160.8920  203.6710  149.5150 C   0  0  0  0  0  0  0  0  0  0  0  0
  1 16  1  0  0  0  0
  1  4  1  0  0  0  0
  2  9  1  0  0  0  0
  4  7  1  0  0  0  0
  4  3  1  1  0  0  0
  5  6  1  0  0  0  0
  6  8  1  0  0  0  0
  6  2  2  0  0  0  0
  8  1  2  0  0  0  0
  9  7  2  0  0  0  0
 10 15  1  0  0  0  0
 10 12  1  0  0  0  0
 12 17  1  0  0  0  0
 12 11  1  0  0  0  0
 13 11  1  0  0  0  0
 14 12  1  0  0  0  0
 15 16  1  0  0  0  0
 16 13  1  0  0  0  0
 18  5  1  1  0  0  0
 18 19  1  0  0  0  0
 20 19  1  0  0  0  0
 21 29  1  6  0  0  0
 21 20  1  0  0  0  0
 22 21  1  0  0  0  0
 22 18  1  0  0  0  0
 23 28  2  0  0  0  0
 23 24  1  0  0  0  0
 24 29  2  0  0  0  0
 26 25  2  0  0  0  0
 27 23  1  0  0  0  0
 28 26  1  0  0  0  0
 29 25  1  0  0  0  0
M  END
>  <MODEL>
1

>  <REMARK>
 VINA RESULT:      -9.3      0.000      0.000
  Name = 
  3 active torsions:
  status: ('A' for Active; 'I' for Inactive)
    1  A    between atoms: C_3  and  C_24
    2  A    between atoms: C_5  and  N_15
    3  A    between atoms: C_16  and  C_28
                            x       y       z     vdW  Elec       q    Type
                         _______ _______ _______ _____ _____    ______ ____

>  <TORSDO>
F 3

$$$$
=
 OpenBabel11072413473D

 29 32  0  0  1  0  0  0  0  0999 V2000
  160.3150  210.7600  152.6310 C   0  0  0  0  0  0  0  0  0  0  0  0
  162.1060  208.6790  151.3270 N   0  0  0  0  0  0  0  0  0  0  0  0
  160.0940  212.4880  150.9110 N   0  0  0  0  0  1  0  0  0  0  0  0
  160.5640  211.1420  151.1990 C   0  0  1  0  0  3  0  0  0  0  0  0
  160.8180  207.1000  152.5210 N   0  0  0  0  0  2  0  0  0  0  0  0
  161.1790  208.4500  152.2170 C   0  0  0  0  0  0  0  0  0  0  0  0
  161.9810  211.0490  150.8890 N   0  0  0  0  0  0  0  0  0  0  0  0
  160.5620  209.5120  153.0380 C   0  0  0  0  0  3  0  0  0  0  0  0
  162.6590  209.9420  150.9150 C   0  0  0  0  0  3  0  0  0  0  0  0
  157.5140  211.7440  154.9030 C   0  0  0  0  0  2  0  0  0  0  0  0
  159.6880  212.6180  155.9410 C   0  0  0  0  0  2  0  0  0  0  0  0
  158.1560  212.7420  155.8760 C   0  0  0  0  0  0  0  0  0  0  0  0
  160.2600  211.5490  155.0110 C   0  0  0  0  0  2  0  0  0  0  0  0
  157.5920  212.4900  157.2600 C   0  0  0  0  0  1  0  0  0  0  0  0
  158.1840  211.7550  153.5230 C   0  0  0  0  0  2  0  0  0  0  0  0
  159.7210  211.7500  153.5940 C   0  0  0  0  0  3  0  0  0  0  0  0
  157.7950  214.1580  155.4660 C   0  0  0  0  0  1  0  0  0  0  0  0
  161.4120  205.9450  151.8620 C   0  0  1  0  0  3  0  0  0  0  0  0
  161.3410  204.7360  152.7650 C   0  0  0  0  0  2  0  0  0  0  0  0
  161.1080  203.6180  151.8090 C   0  0  0  0  0  2  0  0  0  0  0  0
  160.4000  204.3070  150.6670 C   0  0  1  0  0  3  0  0  0  0  0  0
  160.7260  205.6780  150.6620 O   0  0  0  0  0  0  0  0  0  0  0  0
  161.5480  203.8290  147.0720 C   0  0  0  0  0  0  0  0  0  0  0  0
  161.2210  204.4420  148.2850 C   0  0  0  0  0  3  0  0  0  0  0  0
  160.6060  202.2890  149.2080 C   0  0  0  0  0  3  0  0  0  0  0  0
  160.9330  201.6760  147.9950 C   0  0  0  0  0  3  0  0  0  0  0  0
  162.0290  204.6120  145.9860 N   0  0  0  0  0  1  0  0  0  0  0  0
  161.4050  202.4460  146.9260 C   0  0  0  0  0  3  0  0  0  0  0  0
  160.7460  203.6730  149.3580 C   0  0  0  0  0  0  0  0  0  0  0  0
  1  8  2  0  0  0  0
  1 16  1  0  0  0  0
  2  6  2  0  0  0  0
  4  3  1  1  0  0  0
  4  1  1  0  0  0  0
  6  5  1  0  0  0  0
  6  8  1  0  0  0  0
  7  9  2  0  0  0  0
  7  4  1  0  0  0  0
  9  2  1  0  0  0  0
 10 12  1  0  0  0  0
 12 11  1  0  0  0  0
 12 14  1  0  0  0  0
 13 11  1  0  0  0  0
 15 16  1  0  0  0  0
 15 10  1  0  0  0  0
 16 13  1  0  0  0  0
 17 12  1  0  0  0  0
 18  5  1  1  0  0  0
 18 19  1  0  0  0  0
 20 19  1  0  0  0  0
 21 29  1  6  0  0  0
 21 20  1  0  0  0  0
 22 21  1  0  0  0  0
 22 18  1  0  0  0  0
 23 24  1  0  0  0  0
 24 29  2  0  0  0  0
 25 29  1  0  0  0  0
 26 25  2  0  0  0  0
 27 23  1  0  0  0  0
 28 23  2  0  0  0  0
 28 26  1  0  0  0  0
M  END
>  <MODEL>
2

>  <REMARK>
 VINA RESULT:      -9.2      1.677      2.567
  Name = 
  3 active torsions:
  status: ('A' for Active; 'I' for Inactive)
    1  A    between atoms: C_3  and  C_24
    2  A    between atoms: C_5  and  N_15
    3  A    between atoms: C_16  and  C_28
                            x       y       z     vdW  Elec       q    Type
                         _______ _______ _______ _____ _____    ______ ____

>  <TORSDO>
F 3

$$$$
=
 OpenBabel11072413473D

 29 32  0  0  1  0  0  0  0  0999 V2000
  160.0980  209.9590  154.7300 C   0  0  0  0  0  0  0  0  0  0  0  0
  160.9400  207.2300  153.6910 N   0  0  0  0  0  0  0  0  0  0  0  0
  160.8640  209.9510  157.0550 N   0  0  0  0  0  1  0  0  0  0  0  0
  160.9100  209.2540  155.7800 C   0  0  1  0  0  3  0  0  0  0  0  0
  161.3100  208.3380  151.6380 N   0  0  0  0  0  2  0  0  0  0  0  0
  160.8370  208.3250  152.9880 C   0  0  0  0  0  0  0  0  0  0  0  0
  160.4360  207.8910  155.9560 N   0  0  0  0  0  0  0  0  0  0  0  0
  160.1330  209.5330  153.4650 C   0  0  0  0  0  3  0  0  0  0  0  0
  160.4820  206.9810  155.0320 C   0  0  0  0  0  3  0  0  0  0  0  0
  158.0820  212.9010  153.6070 C   0  0  0  0  0  2  0  0  0  0  0  0
  157.0970  212.1000  155.8340 C   0  0  0  0  0  2  0  0  0  0  0  0
  157.2320  213.2610  154.8340 C   0  0  0  0  0  0  0  0  0  0  0  0
  157.8520  210.8370  155.4190 C   0  0  0  0  0  2  0  0  0  0  0  0
  155.8480  213.6520  154.3580 C   0  0  0  0  0  1  0  0  0  0  0  0
  159.4260  212.2670  153.9890 C   0  0  0  0  0  2  0  0  0  0  0  0
  159.3000  211.1860  155.0770 C   0  0  0  0  0  3  0  0  0  0  0  0
  157.8450  214.4530  155.5470 C   0  0  0  0  0  1  0  0  0  0  0  0
  161.9380  207.1900  151.0000 C   0  0  1  0  0  3  0  0  0  0  0  0
  162.3060  206.1540  152.0360 C   0  0  0  0  0  2  0  0  0  0  0  0
  162.0670  204.8680  151.3230 C   0  0  0  0  0  2  0  0  0  0  0  0
  160.9960  205.2400  150.3260 C   0  0  1  0  0  3  0  0  0  0  0  0
  161.0510  206.6240  150.0630 O   0  0  0  0  0  0  0  0  0  0  0  0
  161.1350  202.3380  147.8710 C   0  0  0  0  0  0  0  0  0  0  0  0
  161.0070  203.0560  149.0640 C   0  0  0  0  0  3  0  0  0  0  0  0
  161.3950  205.1230  147.8620 C   0  0  0  0  0  3  0  0  0  0  0  0
  161.5220  204.4050  146.6690 C   0  0  0  0  0  3  0  0  0  0  0  0
  161.0010  200.9220  147.8750 N   0  0  0  0  0  1  0  0  0  0  0  0
  161.3920  203.0120  146.6730 C   0  0  0  0  0  3  0  0  0  0  0  0
  161.1390  204.4530  149.0630 C   0  0  0  0  0  0  0  0  0  0  0  0
  1 16  1  0  0  0  0
  1  4  1  0  0  0  0
  2  9  1  0  0  0  0
  4  7  1  0  0  0  0
  4  3  1  1  0  0  0
  5  6  1  0  0  0  0
  6  8  1  0  0  0  0
  6  2  2  0  0  0  0
  8  1  2  0  0  0  0
  9  7  2  0  0  0  0
 10 15  1  0  0  0  0
 10 12  1  0  0  0  0
 12 17  1  0  0  0  0
 12 11  1  0  0  0  0
 13 11  1  0  0  0  0
 14 12  1  0  0  0  0
 15 16  1  0  0  0  0
 16 13  1  0  0  0  0
 18  5  1  1  0  0  0
 18 19  1  0  0  0  0
 20 19  1  0  0  0  0
 21 29  1  6  0  0  0
 21 20  1  0  0  0  0
 22 21  1  0  0  0  0
 22 18  1  0  0  0  0
 23 27  1  0  0  0  0
 23 24  1  0  0  0  0
 25 29  1  0  0  0  0
 26 28  1  0  0  0  0
 26 25  2  0  0  0  0
 28 23  2  0  0  0  0
 29 24  2  0  0  0  0
M  END
>  <MODEL>
3

>  <REMARK>
 VINA RESULT:      -9.0      0.870      1.294
  Name = 
  3 active torsions:
  status: ('A' for Active; 'I' for Inactive)
    1  A    between atoms: C_3  and  C_24
    2  A    between atoms: C_5  and  N_15
    3  A    between atoms: C_16  and  C_28
                            x       y       z     vdW  Elec       q    Type
                         _______ _______ _______ _____ _____    ______ ____

>  <TORSDO>
F 3

$$$$
=
 OpenBabel11072413473D

 29 32  0  0  1  0  0  0  0  0999 V2000
  160.7670  205.6340  150.0340 C   0  0  0  0  0  0  0  0  0  0  0  0
  161.4360  206.7480  152.7820 N   0  0  0  0  0  0  0  0  0  0  0  0
  160.2160  203.2910  150.4820 N   0  0  0  0  0  1  0  0  0  0  0  0
  160.4890  204.5890  151.0780 C   0  0  1  0  0  3  0  0  0  0  0  0
  160.4550  208.7490  151.9980 N   0  0  0  0  0  2  0  0  0  0  0  0
  160.9200  207.4140  151.7840 C   0  0  0  0  0  0  0  0  0  0  0  0
  161.6120  204.4750  151.9930 N   0  0  0  0  0  0  0  0  0  0  0  0
  160.9070  206.9120  150.3940 C   0  0  0  0  0  3  0  0  0  0  0  0
  162.0120  205.4300  152.7760 C   0  0  0  0  0  3  0  0  0  0  0  0
  162.3350  206.0610  146.6670 C   0  0  0  0  0  2  0  0  0  0  0  0
  161.6020  203.6140  146.8680 C   0  0  0  0  0  2  0  0  0  0  0  0
  161.9780  204.7680  145.9220 C   0  0  0  0  0  0  0  0  0  0  0  0
  161.6350  203.9930  148.3480 C   0  0  0  0  0  2  0  0  0  0  0  0
  163.1760  204.3450  145.0980 C   0  0  0  0  0  1  0  0  0  0  0  0
  161.2790  206.4490  147.7100 C   0  0  0  0  0  2  0  0  0  0  0  0
  160.8180  205.2650  148.5770 C   0  0  0  0  0  3  0  0  0  0  0  0
  160.8180  205.0260  144.9780 C   0  0  0  0  0  1  0  0  0  0  0  0
  160.4950  209.4110  153.2940 C   0  0  1  0  0  3  0  0  0  0  0  0
  161.7140  210.3000  153.3890 C   0  0  0  0  0  2  0  0  0  0  0  0
  161.2220  211.4570  154.1870 C   0  0  0  0  0  2  0  0  0  0  0  0
  159.7470  211.4740  153.8660 C   0  0  1  0  0  3  0  0  0  0  0  0
  159.3320  210.1870  153.4670 O   0  0  0  0  0  0  0  0  0  0  0  0
  156.9060  211.9560  156.3490 C   0  0  0  0  0  0  0  0  0  0  0  0
  157.6340  211.5040  155.2450 C   0  0  0  0  0  3  0  0  0  0  0  0
  159.5240  212.8500  155.9400 C   0  0  0  0  0  3  0  0  0  0  0  0
  158.7960  213.3020  157.0440 C   0  0  0  0  0  3  0  0  0  0  0  0
  155.5750  211.5000  156.5590 N   0  0  0  0  0  1  0  0  0  0  0  0
  157.4860  212.8540  157.2500 C   0  0  0  0  0  3  0  0  0  0  0  0
  158.9470  211.9520  155.0350 C   0  0  0  0  0  0  0  0  0  0  0  0
  1  8  2  0  0  0  0
  1  4  1  0  0  0  0
  4  3  1  6  0  0  0
  4  7  1  0  0  0  0
  6  5  1  0  0  0  0
  6  2  2  0  0  0  0
  7  9  2  0  0  0  0
  8  6  1  0  0  0  0
  9  2  1  0  0  0  0
 10 15  1  0  0  0  0
 11 13  1  0  0  0  0
 12 10  1  0  0  0  0
 12 11  1  0  0  0  0
 13 16  1  0  0  0  0
 14 12  1  0  0  0  0
 15 16  1  0  0  0  0
 16  1  1  0  0  0  0
 17 12  1  0  0  0  0
 18  5  1  6  0  0  0
 18 19  1  0  0  0  0
 18 22  1  0  0  0  0
 19 20  1  0  0  0  0
 21 20  1  0  0  0  0
 21 29  1  1  0  0  0
 22 21  1  0  0  0  0
 23 27  1  0  0  0  0
 23 28  1  0  0  0  0
 24 23  2  0  0  0  0
 25 26  1  0  0  0  0
 26 28  2  0  0  0  0
 29 24  1  0  0  0  0
 29 25  2  0  0  0  0
M  END
>  <MODEL>
4

>  <REMARK>
 VINA RESULT:      -8.3      2.397      9.653
  Name = 
  3 active torsions:
  status: ('A' for Active; 'I' for Inactive)
    1  A    between atoms: C_3  and  C_24
    2  A    between atoms: C_5  and  N_15
    3  A    between atoms: C_16  and  C_28
                            x       y       z     vdW  Elec       q    Type
                         _______ _______ _______ _____ _____    ______ ____

>  <TORSDO>
F 3

$$$$
=
 OpenBabel11072413473D

 29 32  0  0  1  0  0  0  0  0999 V2000
  160.9110  209.1690  153.4320 C   0  0  0  0  0  0  0  0  0  0  0  0
  162.1760  207.4060  151.3040 N   0  0  0  0  0  0  0  0  0  0  0  0
  160.0040  211.0510  152.1550 N   0  0  0  0  0  1  0  0  0  0  0  0
  160.6000  209.7270  152.0720 C   0  0  1  0  0  3  0  0  0  0  0  0
  161.4810  205.6010  152.6590 N   0  0  0  0  0  2  0  0  0  0  0  0
  161.6520  207.0020  152.4290 C   0  0  0  0  0  0  0  0  0  0  0  0
  161.8060  209.7900  151.2620 N   0  0  0  0  0  0  0  0  0  0  0  0
  161.3390  207.9100  153.5520 C   0  0  0  0  0  3  0  0  0  0  0  0
  162.4880  208.7490  150.8930 C   0  0  0  0  0  3  0  0  0  0  0  0
  159.1390  211.9990  155.1150 C   0  0  0  0  0  2  0  0  0  0  0  0
  159.4960  210.1650  156.8690 C   0  0  0  0  0  2  0  0  0  0  0  0
  159.2230  211.6570  156.6080 C   0  0  0  0  0  0  0  0  0  0  0  0
  159.6530  209.3350  155.5950 C   0  0  0  0  0  2  0  0  0  0  0  0
  157.9050  212.0260  157.2590 C   0  0  0  0  0  1  0  0  0  0  0  0
  160.3290  211.4510  154.3180 C   0  0  0  0  0  2  0  0  0  0  0  0
  160.6750  209.9930  154.6680 C   0  0  0  0  0  3  0  0  0  0  0  0
  160.3210  212.4780  157.2590 C   0  0  0  0  0  1  0  0  0  0  0  0
  161.8360  204.5810  151.6830 C   0  0  1  0  0  3  0  0  0  0  0  0
  161.3670  203.2230  152.1520 C   0  0  0  0  0  2  0  0  0  0  0  0
  160.9670  202.5520  150.8840 C   0  0  0  0  0  2  0  0  0  0  0  0
  160.5820  203.7160  150.0040 C   0  0  1  0  0  3  0  0  0  0  0  0
  161.2400  204.8830  150.4430 O   0  0  0  0  0  0  0  0  0  0  0  0
  160.9550  201.9300  146.6660 C   0  0  0  0  0  0  0  0  0  0  0  0
  160.6590  202.1710  148.0110 C   0  0  0  0  0  3  0  0  0  0  0  0
  161.4330  204.4540  147.7730 C   0  0  0  0  0  3  0  0  0  0  0  0
  161.7280  204.2130  146.4280 C   0  0  0  0  0  3  0  0  0  0  0  0
  160.7100  200.6470  146.1010 N   0  0  0  0  0  1  0  0  0  0  0  0
  161.4890  202.9510  145.8730 C   0  0  0  0  0  3  0  0  0  0  0  0
  160.9000  203.4340  148.5700 C   0  0  0  0  0  0  0  0  0  0  0  0
  1  8  2  0  0  0  0
  1 16  1  0  0  0  0
  2  6  2  0  0  0  0
  4  3  1  1  0  0  0
  4  1  1  0  0  0  0
  6  5  1  0  0  0  0
  6  8  1  0  0  0  0
  7  4  1  0  0  0  0
  9  7  2  0  0  0  0
  9  2  1  0  0  0  0
 10 12  1  0  0  0  0
 12 11  1  0  0  0  0
 12 14  1  0  0  0  0
 12 17  1  0  0  0  0
 13 11  1  0  0  0  0
 15 16  1  0  0  0  0
 15 10  1  0  0  0  0
 16 13  1  0  0  0  0
 18 19  1  0  0  0  0
 18  5  1  1  0  0  0
 20 19  1  0  0  0  0
 21 29  1  6  0  0  0
 21 22  1  0  0  0  0
 21 20  1  0  0  0  0
 22 18  1  0  0  0  0
 23 24  1  0  0  0  0
 24 29  2  0  0  0  0
 25 29  1  0  0  0  0
 26 25  2  0  0  0  0
 27 23  1  0  0  0  0
 28 26  1  0  0  0  0
 28 23  2  0  0  0  0
M  END
>  <MODEL>
5

>  <REMARK>
 VINA RESULT:      -8.2      1.961      2.853
  Name = 
  3 active torsions:
  status: ('A' for Active; 'I' for Inactive)
    1  A    between atoms: C_3  and  C_24
    2  A    between atoms: C_5  and  N_15
    3  A    between atoms: C_16  and  C_28
                            x       y       z     vdW  Elec       q    Type
                         _______ _______ _______ _____ _____    ______ ____

>  <TORSDO>
F 3

$$$$
=
 OpenBabel11072413473D

 29 32  0  0  1  0  0  0  0  0999 V2000
  161.6640  206.1160  151.5820 C   0  0  0  0  0  0  0  0  0  0  0  0
  160.7570  208.5130  153.2160 N   0  0  0  0  0  0  0  0  0  0  0  0
  163.0850  207.1040  149.8510 N   0  0  0  0  0  1  0  0  0  0  0  0
  162.3690  207.3490  151.0930 C   0  0  1  0  0  3  0  0  0  0  0  0
  160.8640  207.0500  155.0670 N   0  0  0  0  0  2  0  0  0  0  0  0
  160.9310  207.2980  153.6600 C   0  0  0  0  0  0  0  0  0  0  0  0
  161.4190  208.4320  150.8970 N   0  0  0  0  0  0  0  0  0  0  0  0
  161.0660  206.1210  152.7760 C   0  0  0  0  0  3  0  0  0  0  0  0
  160.7260  208.9720  151.8530 C   0  0  0  0  0  3  0  0  0  0  0  0
  160.4570  202.6160  151.0590 C   0  0  0  0  0  2  0  0  0  0  0  0
  160.8330  203.6520  148.7450 C   0  0  0  0  0  2  0  0  0  0  0  0
  160.6970  202.3570  149.5660 C   0  0  0  0  0  0  0  0  0  0  0  0
  160.7270  204.9270  149.5820 C   0  0  0  0  0  2  0  0  0  0  0  0
  159.5260  201.5640  149.0230 C   0  0  0  0  0  1  0  0  0  0  0  0
  161.4640  203.6090  151.6530 C   0  0  0  0  0  2  0  0  0  0  0  0
  161.6860  204.8500  150.7710 C   0  0  0  0  0  3  0  0  0  0  0  0
  161.9570  201.5290  149.3870 C   0  0  0  0  0  1  0  0  0  0  0  0
  160.6380  208.0960  156.0540 C   0  0  1  0  0  3  0  0  0  0  0  0
  161.9580  208.6370  156.5520 C   0  0  0  0  0  2  0  0  0  0  0  0
  161.6710  210.0840  156.7570 C   0  0  0  0  0  2  0  0  0  0  0  0
  160.5690  210.3430  155.7590 C   0  0  1  0  0  3  0  0  0  0  0  0
  159.8910  209.1400  155.4750 O   0  0  0  0  0  0  0  0  0  0  0  0
  157.3640  212.1470  156.7290 C   0  0  0  0  0  0  0  0  0  0  0  0
  158.2340  211.1670  156.2450 C   0  0  0  0  0  3  0  0  0  0  0  0
  160.1260  212.5830  156.7750 C   0  0  0  0  0  3  0  0  0  0  0  0
  159.2550  213.5640  157.2600 C   0  0  0  0  0  3  0  0  0  0  0  0
  155.9580  211.9260  156.7080 N   0  0  0  0  0  1  0  0  0  0  0  0
  157.8740  213.3460  157.2380 C   0  0  0  0  0  3  0  0  0  0  0  0
  159.6200  211.3830  156.2640 C   0  0  0  0  0  0  0  0  0  0  0  0
  1  8  2  0  0  0  0
  2  6  2  0  0  0  0
  4  3  1  6  0  0  0
  4  1  1  0  0  0  0
  6  5  1  0  0  0  0
  7  4  1  0  0  0  0
  7  9  2  0  0  0  0
  8  6  1  0  0  0  0
  9  2  1  0  0  0  0
 10 15  1  0  0  0  0
 11 12  1  0  0  0  0
 11 13  1  0  0  0  0
 12 10  1  0  0  0  0
 13 16  1  0  0  0  0
 14 12  1  0  0  0  0
 16  1  1  0  0  0  0
 16 15  1  0  0  0  0
 17 12  1  0  0  0  0
 18  5  1  6  0  0  0
 18 19  1  0  0  0  0
 19 20  1  0  0  0  0
 21 29  1  1  0  0  0
 21 20  1  0  0  0  0
 22 21  1  0  0  0  0
 22 18  1  0  0  0  0
 23 28  1  0  0  0  0
 24 29  1  0  0  0  0
 24 23  2  0  0  0  0
 25 26  1  0  0  0  0
 27 23  1  0  0  0  0
 28 26  2  0  0  0  0
 29 25  2  0  0  0  0
M  END
>  <MODEL>
6

>  <REMARK>
 VINA RESULT:      -8.0      2.336      9.540
  Name = 
  3 active torsions:
  status: ('A' for Active; 'I' for Inactive)
    1  A    between atoms: C_3  and  C_24
    2  A    between atoms: C_5  and  N_15
    3  A    between atoms: C_16  and  C_28
                            x       y       z     vdW  Elec       q    Type
                         _______ _______ _______ _____ _____    ______ ____

>  <TORSDO>
F 3

$$$$
=
 OpenBabel11072413473D

 29 32  0  0  1  0  0  0  0  0999 V2000
  161.3060  207.4260  152.1180 C   0  0  0  0  0  0  0  0  0  0  0  0
  160.8290  205.4060  149.8980 N   0  0  0  0  0  0  0  0  0  0  0  0
  162.5060  206.1390  153.8200 N   0  0  0  0  0  1  0  0  0  0  0  0
  162.0090  206.1410  152.4530 C   0  0  1  0  0  3  0  0  0  0  0  0
  161.1220  207.2350  148.4320 N   0  0  0  0  0  2  0  0  0  0  0  0
  160.9870  206.6940  149.7490 C   0  0  0  0  0  0  0  0  0  0  0  0
  161.1170  205.0100  152.2610 N   0  0  0  0  0  0  0  0  0  0  0  0
  160.9030  207.6570  150.8660 C   0  0  0  0  0  3  0  0  0  0  0  0
  160.6190  204.6650  151.1130 C   0  0  0  0  0  3  0  0  0  0  0  0
  159.5450  210.5160  153.2740 C   0  0  0  0  0  2  0  0  0  0  0  0
  160.0600  209.1030  155.3500 C   0  0  0  0  0  2  0  0  0  0  0  0
  159.7260  210.5000  154.7980 C   0  0  0  0  0  0  0  0  0  0  0  0
  160.1690  208.0240  154.2730 C   0  0  0  0  0  2  0  0  0  0  0  0
  158.4370  210.9740  155.4370 C   0  0  0  0  0  1  0  0  0  0  0  0
  160.7050  209.8330  152.5380 C   0  0  0  0  0  2  0  0  0  0  0  0
  161.1160  208.4890  153.1650 C   0  0  0  0  0  3  0  0  0  0  0  0
  160.8330  211.4600  155.1920 C   0  0  0  0  0  1  0  0  0  0  0  0
  161.1240  206.4170  147.2280 C   0  0  1  0  0  3  0  0  0  0  0  0
  162.4750  206.4860  146.5540 C   0  0  0  0  0  2  0  0  0  0  0  0
  162.6460  205.1100  146.0090 C   0  0  0  0  0  2  0  0  0  0  0  0
  161.8200  204.2760  146.9580 C   0  0  1  0  0  3  0  0  0  0  0  0
  160.8310  205.0810  147.5610 O   0  0  0  0  0  0  0  0  0  0  0  0
  160.9010  200.7200  145.9700 C   0  0  0  0  0  0  0  0  0  0  0  0
  161.4960  201.7950  146.6360 C   0  0  0  0  0  3  0  0  0  0  0  0
  160.3040  203.3430  145.2040 C   0  0  0  0  0  3  0  0  0  0  0  0
  159.7080  202.2670  144.5390 C   0  0  0  0  0  3  0  0  0  0  0  0
  161.2020  199.3850  146.3610 N   0  0  0  0  0  1  0  0  0  0  0  0
  160.0060  200.9550  144.9220 C   0  0  0  0  0  3  0  0  0  0  0  0
  161.2010  203.1120  146.2530 C   0  0  0  0  0  0  0  0  0  0  0  0
  1  4  1  0  0  0  0
  1 16  1  0  0  0  0
  2  9  1  0  0  0  0
  4  3  1  1  0  0  0
  5  6  1  0  0  0  0
  6  2  2  0  0  0  0
  6  8  1  0  0  0  0
  7  4  1  0  0  0  0
  8  1  2  0  0  0  0
  9  7  2  0  0  0  0
 10 12  1  0  0  0  0
 12 17  1  0  0  0  0
 12 11  1  0  0  0  0
 12 14  1  0  0  0  0
 13 11  1  0  0  0  0
 15 16  1  0  0  0  0
 15 10  1  0  0  0  0
 16 13  1  0  0  0  0
 18 22  1  0  0  0  0
 18  5  1  1  0  0  0
 19 18  1  0  0  0  0
 20 19  1  0  0  0  0
 20 21  1  0  0  0  0
 21 29  1  6  0  0  0
 21 22  1  0  0  0  0
 23 27  1  0  0  0  0
 23 24  1  0  0  0  0
 25 29  1  0  0  0  0
 26 28  1  0  0  0  0
 26 25  2  0  0  0  0
 28 23  2  0  0  0  0
 29 24  2  0  0  0  0
M  END
>  <MODEL>
7

>  <REMARK>
 VINA RESULT:      -7.2      2.280      3.889
  Name = 
  3 active torsions:
  status: ('A' for Active; 'I' for Inactive)
    1  A    between atoms: C_3  and  C_24
    2  A    between atoms: C_5  and  N_15
    3  A    between atoms: C_16  and  C_28
                            x       y       z     vdW  Elec       q    Type
                         _______ _______ _______ _____ _____    ______ ____

>  <TORSDO>
F 3

$$$$
=
 OpenBabel11072413473D

 29 32  0  0  1  0  0  0  0  0999 V2000
  159.3180  211.7830  153.2530 C   0  0  0  0  0  0  0  0  0  0  0  0
  159.2870  213.8980  151.0690 N   0  0  0  0  0  0  0  0  0  0  0  0
  157.0260  211.8090  154.1110 N   0  0  0  0  0  1  0  0  0  0  0  0
  157.9140  212.2840  153.0620 C   0  0  1  0  0  3  0  0  0  0  0  0
  160.8140  212.4870  149.9470 N   0  0  0  0  0  2  0  0  0  0  0  0
  160.0370  212.8290  151.0980 C   0  0  0  0  0  0  0  0  0  0  0  0
  157.8930  213.7370  153.0330 N   0  0  0  0  0  0  0  0  0  0  0  0
  160.2390  212.0110  152.3120 C   0  0  0  0  0  3  0  0  0  0  0  0
  158.4800  214.4530  152.1220 C   0  0  0  0  0  3  0  0  0  0  0  0
  161.6820  209.4350  154.9470 C   0  0  0  0  0  2  0  0  0  0  0  0
  160.6860  210.9560  156.7530 C   0  0  0  0  0  2  0  0  0  0  0  0
  161.3890  209.6240  156.4420 C   0  0  0  0  0  0  0  0  0  0  0  0
  160.4000  211.8070  155.5150 C   0  0  0  0  0  2  0  0  0  0  0  0
  162.7030  209.5850  157.1960 C   0  0  0  0  0  1  0  0  0  0  0  0
  160.4510  209.6910  154.0700 C   0  0  0  0  0  2  0  0  0  0  0  0
  159.6810  210.9650  154.4610 C   0  0  0  0  0  3  0  0  0  0  0  0
  160.5210  208.4820  156.9400 C   0  0  0  0  0  1  0  0  0  0  0  0
  160.7930  213.2560  148.7110 C   0  0  1  0  0  3  0  0  0  0  0  0
  161.8880  214.2960  148.7250 C   0  0  0  0  0  2  0  0  0  0  0  0
  162.3280  214.3380  147.3030 C   0  0  0  0  0  2  0  0  0  0  0  0
  162.0020  212.9470  146.8180 C   0  0  1  0  0  3  0  0  0  0  0  0
  160.9770  212.3940  147.6120 O   0  0  0  0  0  0  0  0  0  0  0  0
  162.1390  213.3280  143.0360 C   0  0  0  0  0  0  0  0  0  0  0  0
  162.5230  213.3330  144.3800 C   0  0  0  0  0  3  0  0  0  0  0  0
  160.3120  212.5750  145.0150 C   0  0  0  0  0  3  0  0  0  0  0  0
  159.9280  212.5700  143.6700 C   0  0  0  0  0  3  0  0  0  0  0  0
  163.0690  213.7090  142.0280 N   0  0  0  0  0  1  0  0  0  0  0  0
  160.8420  212.9460  142.6800 C   0  0  0  0  0  3  0  0  0  0  0  0
  161.6090  212.9580  145.3750 C   0  0  0  0  0  0  0  0  0  0  0  0
  1 16  1  0  0  0  0
  2  6  2  0  0  0  0
  2  9  1  0  0  0  0
  4  1  1  0  0  0  0
  4  3  1  1  0  0  0
  5  6  1  0  0  0  0
  6  8  1  0  0  0  0
  7  4  1  0  0  0  0
  8  1  2  0  0  0  0
  9  7  2  0  0  0  0
 10 12  1  0  0  0  0
 12 11  1  0  0  0  0
 12 17  1  0  0  0  0
 12 14  1  0  0  0  0
 13 11  1  0  0  0  0
 15 16  1  0  0  0  0
 15 10  1  0  0  0  0
 16 13  1  0  0  0  0
 18 19  1  0  0  0  0
 18  5  1  1  0  0  0
 20 19  1  0  0  0  0
 21 29  1  6  0  0  0
 21 20  1  0  0  0  0
 21 22  1  0  0  0  0
 22 18  1  0  0  0  0
 23 24  1  0  0  0  0
 24 29  2  0  0  0  0
 25 29  1  0  0  0  0
 26 25  2  0  0  0  0
 27 23  1  0  0  0  0
 28 23  2  0  0  0  0
 28 26  1  0  0  0  0
M  END
>  <MODEL>
8

>  <REMARK>
 VINA RESULT:      -6.5      5.935      7.762
  Name = 
  3 active torsions:
  status: ('A' for Active; 'I' for Inactive)
    1  A    between atoms: C_3  and  C_24
    2  A    between atoms: C_5  and  N_15
    3  A    between atoms: C_16  and  C_28
                            x       y       z     vdW  Elec       q    Type
                         _______ _______ _______ _____ _____    ______ ____

>  <TORSDO>
F 3

$$$$
=
 OpenBabel11072413473D

 29 32  0  0  1  0  0  0  0  0999 V2000
  160.9130  209.6120  152.7490 C   0  0  0  0  0  0  0  0  0  0  0  0
  160.9800  206.5740  152.7920 N   0  0  0  0  0  0  0  0  0  0  0  0
  161.6050  210.2350  155.0130 N   0  0  0  0  0  1  0  0  0  0  0  0
  161.4780  209.1440  154.0600 C   0  0  1  0  0  3  0  0  0  0  0  0
  161.6810  206.7480  150.5430 N   0  0  0  0  0  2  0  0  0  0  0  0
  161.2000  207.3360  151.7550 C   0  0  0  0  0  0  0  0  0  0  0  0
  160.6400  208.1010  154.6290 N   0  0  0  0  0  0  0  0  0  0  0  0
  160.8510  208.7710  151.7130 C   0  0  0  0  0  3  0  0  0  0  0  0
  160.4470  206.9420  154.0760 C   0  0  0  0  0  3  0  0  0  0  0  0
  159.1840  212.2090  150.6890 C   0  0  0  0  0  2  0  0  0  0  0  0
  158.8080  212.8080  153.1520 C   0  0  0  0  0  2  0  0  0  0  0  0
  158.8270  213.3090  151.6980 C   0  0  0  0  0  0  0  0  0  0  0  0
  159.1720  211.3310  153.3010 C   0  0  0  0  0  2  0  0  0  0  0  0
  157.4510  213.8440  151.3550 C   0  0  0  0  0  1  0  0  0  0  0  0
  160.4510  211.4390  151.0830 C   0  0  0  0  0  2  0  0  0  0  0  0
  160.4830  211.0420  152.5690 C   0  0  0  0  0  3  0  0  0  0  0  0
  159.8230  214.4490  151.5840 C   0  0  0  0  0  1  0  0  0  0  0  0
  161.9760  205.3290  150.4040 C   0  0  1  0  0  3  0  0  0  0  0  0
  161.5170  204.5790  151.6330 C   0  0  0  0  0  2  0  0  0  0  0  0
  161.0470  203.2800  151.0740 C   0  0  0  0  0  2  0  0  0  0  0  0
  160.6310  203.6570  149.6730 C   0  0  1  0  0  3  0  0  0  0  0  0
  161.3210  204.8170  149.2670 O   0  0  0  0  0  0  0  0  0  0  0  0
  160.8490  201.6160  146.4710 C   0  0  0  0  0  0  0  0  0  0  0  0
  160.6080  202.6770  147.3490 C   0  0  0  0  0  3  0  0  0  0  0  0
  161.3840  201.3220  149.2000 C   0  0  0  0  0  3  0  0  0  0  0  0
  161.6250  200.2610  148.3220 C   0  0  0  0  0  3  0  0  0  0  0  0
  160.5790  201.7660  145.0820 N   0  0  0  0  0  1  0  0  0  0  0  0
  161.3580  200.4080  146.9570 C   0  0  0  0  0  3  0  0  0  0  0  0
  160.8730  202.5320  148.7190 C   0  0  0  0  0  0  0  0  0  0  0  0
  1  4  1  0  0  0  0
  2  9  1  0  0  0  0
  4  7  1  0  0  0  0
  4  3  1  1  0  0  0
  5  6  1  0  0  0  0
  6  2  2  0  0  0  0
  8  6  1  0  0  0  0
  8  1  2  0  0  0  0
  9  7  2  0  0  0  0
 10 15  1  0  0  0  0
 10 12  1  0  0  0  0
 11 13  1  0  0  0  0
 12 11  1  0  0  0  0
 14 12  1  0  0  0  0
 15 16  1  0  0  0  0
 16  1  1  0  0  0  0
 16 13  1  0  0  0  0
 17 12  1  0  0  0  0
 18  5  1  1  0  0  0
 18 19  1  0  0  0  0
 20 19  1  0  0  0  0
 21 29  1  6  0  0  0
 21 20  1  0  0  0  0
 22 21  1  0  0  0  0
 22 18  1  0  0  0  0
 23 28  2  0  0  0  0
 23 24  1  0  0  0  0
 24 29  2  0  0  0  0
 26 25  2  0  0  0  0
 27 23  1  0  0  0  0
 28 26  1  0  0  0  0
 29 25  1  0  0  0  0
M  END
>  <MODEL>
9

>  <REMARK>
 VINA RESULT:      -6.3      1.557      1.995
  Name = 
  3 active torsions:
  status: ('A' for Active; 'I' for Inactive)
    1  A    between atoms: C_3  and  C_24
    2  A    between atoms: C_5  and  N_15
    3  A    between atoms: C_16  and  C_28
                            x       y       z     vdW  Elec       q    Type
                         _______ _______ _______ _____ _____    ______ ____

>  <TORSDO>
F 3

$$$$
