=
 OpenBabel11072412123D

 31 36  0  0  1  0  0  0  0  0999 V2000
  161.9500  208.4940  151.9690 C   0  0  2  0  0  3  0  0  0  0  0  0
  161.9570  205.5070  151.0310 C   0  0  1  0  0  3  0  0  0  0  0  0
  161.6880  210.7560  150.8380 C   0  0  2  0  0  3  0  0  0  0  0  0
  161.2200  209.8490  151.9920 C   0  0  2  0  0  3  0  0  0  0  0  0
  161.1710  206.8070  151.0090 C   0  0  2  0  0  0  0  0  0  0  0  0
  160.8800  212.0700  150.7020 C   0  0  2  0  0  3  0  0  0  0  0  0
  159.3980  212.3220  152.6830 C   0  0  0  0  0  2  0  0  0  0  0  0
  161.5400  210.6610  148.2510 C   0  0  0  0  0  2  0  0  0  0  0  0
  161.1970  210.6360  153.3250 C   0  0  1  0  0  3  0  0  0  0  0  0
  159.4420  211.9740  151.1980 C   0  0  0  0  0  2  0  0  0  0  0  0
  162.0460  207.9170  150.5220 C   0  0  1  0  0  3  0  0  0  0  0  0
  159.7720  211.1520  153.5960 C   0  0  1  0  0  3  0  0  0  0  0  0
  161.3170  208.6890  149.5950 O   0  0  0  0  0  0  0  0  0  0  0  0
  161.8490  212.1570  148.2720 C   0  0  2  0  0  0  0  0  0  0  0  0
  163.3260  212.4010  148.5960 C   0  0  0  0  0  1  0  0  0  0  0  0
  161.2380  214.2810  149.5840 C   0  0  0  0  0  1  0  0  0  0  0  0
  161.0210  207.3430  152.3990 C   0  0  0  0  0  2  0  0  0  0  0  0
  160.9900  204.3470  151.1580 C   0  0  0  0  0  2  0  0  0  0  0  0
  159.6340  211.5720  154.9210 O   0  0  0  0  0  1  0  0  0  0  0  0
  161.9380  209.9470  149.5400 C   0  0  2  0  0  3  0  0  0  0  0  0
  160.6230  205.5640  150.3310 C   0  0  2  0  0  3  0  0  0  0  0  0
  160.9470  212.8020  149.3540 C   0  0  2  0  0  3  0  0  0  0  0  0
  161.8810  210.0120  154.5590 C   0  0  2  0  0  3  0  0  0  0  0  0
  160.9590  209.1830  155.3170 N   0  0  0  0  0  1  0  0  0  0  0  0
  162.5640  211.0230  155.4630 C   0  0  0  0  0  1  0  0  0  0  0  0
  162.4610  213.0100  146.1340 O   0  0  0  0  0  0  0  0  0  0  0  0
  161.5390  212.7150  146.8840 C   0  0  0  0  0  0  0  0  0  0  0  0
  160.1190  212.9530  146.3960 C   0  0  0  0  0  0  0  0  0  0  0  0
  159.8870  212.1770  145.1130 C   0  0  0  0  0  1  0  0  0  0  0  0
  159.1750  212.5460  147.3400 O   0  0  0  0  0  1  0  0  0  0  0  0
  159.9140  214.4310  146.1180 C   0  0  0  0  0  1  0  0  0  0  0  0
  1  4  1  0  0  0  0
  1 17  1  1  0  0  0
  2 18  1  1  0  0  0
  3  4  1  0  0  0  0
  4  9  1  0  0  0  0
  5  2  1  0  0  0  0
  5 17  1  0  0  0  0
  6  3  1  0  0  0  0
  6 10  1  0  0  0  0
  7 12  1  0  0  0  0
  8 14  1  0  0  0  0
  8 20  1  0  0  0  0
  9 12  1  0  0  0  0
  9 23  1  0  0  0  0
 10  7  1  0  0  0  0
 11  5  1  0  0  0  0
 11  1  1  0  0  0  0
 12 19  1  0  0  0  0
 13 11  1  0  0  0  0
 14 15  1  0  0  0  0
 14 22  1  0  0  0  0
 20 13  1  0  0  0  0
 20  3  1  0  0  0  0
 21  5  1  0  0  0  0
 21  2  1  0  0  0  0
 21 18  1  0  0  0  0
 22 16  1  0  0  0  0
 22  6  1  0  0  0  0
 23 24  1  0  0  0  0
 23 25  1  0  0  0  0
 26 27  2  0  0  0  0
 27 14  1  0  0  0  0
 28 27  1  0  0  0  0
 28 30  1  0  0  0  0
 29 28  1  0  0  0  0
 31 28  1  0  0  0  0
M  END
>  <MODEL>
1

>  <REMARK>
 VINA RESULT:      -5.7      0.000      0.000
  Name = 
  3 active torsions:
  status: ('A' for Active; 'I' for Inactive)
    1  A    between atoms: C_5  and  C_10
    2  A    between atoms: C_17  and  C_19
    3  A    between atoms: C_19  and  C_22
                            x       y       z     vdW  Elec       q    Type
                         _______ _______ _______ _____ _____    ______ ____

>  <TORSDO>
F 3

$$$$
=
 OpenBabel11072412123D

 31 36  0  0  1  0  0  0  0  0999 V2000
  161.4180  210.0860  138.4030 C   0  0  2  0  0  3  0  0  0  0  0  0
  162.1790  207.0590  138.6440 C   0  0  1  0  0  3  0  0  0  0  0  0
  159.2920  211.4540  138.6740 C   0  0  2  0  0  3  0  0  0  0  0  0
  160.7780  211.3230  139.0590 C   0  0  2  0  0  3  0  0  0  0  0  0
  161.5330  208.2310  139.3630 C   0  0  2  0  0  0  0  0  0  0  0  0
  158.5440  212.5830  139.4260 C   0  0  2  0  0  3  0  0  0  0  0  0
  160.1960  213.9620  140.6730 C   0  0  0  0  0  2  0  0  0  0  0  0
  157.1530  210.0560  139.1030 C   0  0  0  0  0  2  0  0  0  0  0  0
  161.5030  212.6820  138.9000 C   0  0  1  0  0  3  0  0  0  0  0  0
  159.1120  212.8970  140.8050 C   0  0  0  0  0  2  0  0  0  0  0  0
  160.4820  208.8390  138.4920 C   0  0  1  0  0  3  0  0  0  0  0  0
  161.5580  213.4000  140.2610 C   0  0  1  0  0  3  0  0  0  0  0  0
  159.3390  209.0910  139.2770 O   0  0  0  0  0  0  0  0  0  0  0  0
  156.3680  211.3100  138.7210 C   0  0  2  0  0  0  0  0  0  0  0  0
  156.4190  211.5400  137.2070 C   0  0  0  0  0  1  0  0  0  0  0  0
  156.4150  213.8540  139.0820 C   0  0  0  0  0  1  0  0  0  0  0  0
  162.4450  209.4180  139.3360 C   0  0  0  0  0  2  0  0  0  0  0  0
  162.9570  206.2310  139.6480 C   0  0  0  0  0  2  0  0  0  0  0  0
  162.4740  214.4530  140.2350 O   0  0  0  0  0  1  0  0  0  0  0  0
  158.5950  210.0730  138.6040 C   0  0  2  0  0  3  0  0  0  0  0  0
  161.6420  206.8770  140.0410 C   0  0  2  0  0  3  0  0  0  0  0  0
  157.0120  212.5050  139.4680 C   0  0  2  0  0  3  0  0  0  0  0  0
  162.8330  212.7190  138.1190 C   0  0  2  0  0  3  0  0  0  0  0  0
  163.9760  212.6240  139.0100 N   0  0  0  0  0  1  0  0  0  0  0  0
  162.9700  213.9150  137.1920 C   0  0  0  0  0  1  0  0  0  0  0  0
  154.4270  211.8380  139.9950 O   0  0  0  0  0  0  0  0  0  0  0  0
  154.9180  211.1010  139.1500 C   0  0  0  0  0  0  0  0  0  0  0  0
  154.0510  209.9840  138.5900 C   0  0  0  0  0  0  0  0  0  0  0  0
  152.7650  210.5670  138.0370 C   0  0  0  0  0  1  0  0  0  0  0  0
  154.7020  209.2910  137.5670 O   0  0  0  0  0  1  0  0  0  0  0  0
  153.7080  208.9990  139.6930 C   0  0  0  0  0  1  0  0  0  0  0  0
  1 11  1  0  0  0  0
  1  4  1  0  0  0  0
  1 17  1  1  0  0  0
  2  5  1  0  0  0  0
  2 18  1  1  0  0  0
  2 21  1  0  0  0  0
  3  4  1  0  0  0  0
  3  6  1  0  0  0  0
  5 21  1  0  0  0  0
  6 22  1  0  0  0  0
  6 10  1  0  0  0  0
  7 10  1  0  0  0  0
  9  4  1  0  0  0  0
  9 12  1  0  0  0  0
 11 13  1  0  0  0  0
 11  5  1  0  0  0  0
 12  7  1  0  0  0  0
 14  8  1  0  0  0  0
 14 27  1  0  0  0  0
 14 22  1  0  0  0  0
 15 14  1  0  0  0  0
 16 22  1  0  0  0  0
 17  5  1  0  0  0  0
 18 21  1  0  0  0  0
 19 12  1  0  0  0  0
 20  3  1  0  0  0  0
 20  8  1  0  0  0  0
 20 13  1  0  0  0  0
 23  9  1  0  0  0  0
 23 24  1  0  0  0  0
 25 23  1  0  0  0  0
 27 26  2  0  0  0  0
 28 27  1  0  0  0  0
 28 31  1  0  0  0  0
 29 28  1  0  0  0  0
 30 28  1  0  0  0  0
M  END
>  <MODEL>
2

>  <REMARK>
 VINA RESULT:      -4.3     10.735     12.511
  Name = 
  3 active torsions:
  status: ('A' for Active; 'I' for Inactive)
    1  A    between atoms: C_5  and  C_10
    2  A    between atoms: C_17  and  C_19
    3  A    between atoms: C_19  and  C_22
                            x       y       z     vdW  Elec       q    Type
                         _______ _______ _______ _____ _____    ______ ____

>  <TORSDO>
F 3

$$$$
=
 OpenBabel11072412123D

 31 36  0  0  1  0  0  0  0  0999 V2000
  161.1970  210.6170  149.9500 C   0  0  2  0  0  3  0  0  0  0  0  0
  162.4630  212.7070  147.9930 C   0  0  1  0  0  3  0  0  0  0  0  0
  161.0140  208.0830  150.0350 C   0  0  2  0  0  3  0  0  0  0  0  0
  161.3920  209.3580  150.8130 C   0  0  2  0  0  3  0  0  0  0  0  0
  162.7410  211.4640  148.8210 C   0  0  2  0  0  0  0  0  0  0  0  0
  161.3400  206.7670  150.7850 C   0  0  2  0  0  3  0  0  0  0  0  0
  161.9960  207.3050  153.1230 C   0  0  0  0  0  2  0  0  0  0  0  0
  161.9450  206.8600  147.9480 C   0  0  0  0  0  2  0  0  0  0  0  0
  160.7560  209.3420  152.2240 C   0  0  1  0  0  3  0  0  0  0  0  0
  162.5120  206.8740  151.7540 C   0  0  0  0  0  2  0  0  0  0  0  0
  161.7320  210.4080  148.4980 C   0  0  1  0  0  3  0  0  0  0  0  0
  161.7800  208.8150  153.2460 C   0  0  1  0  0  3  0  0  0  0  0  0
  162.4020  209.1770  148.3540 O   0  0  0  0  0  0  0  0  0  0  0  0
  161.1650  205.6380  148.4300 C   0  0  2  0  0  0  0  0  0  0  0  0
  159.6650  205.8180  148.1740 C   0  0  0  0  0  1  0  0  0  0  0  0
  160.6150  204.3780  150.6010 C   0  0  0  0  0  1  0  0  0  0  0  0
  162.2840  211.6710  150.2320 C   0  0  0  0  0  2  0  0  0  0  0  0
  163.6780  213.6130  148.0400 C   0  0  0  0  0  2  0  0  0  0  0  0
  161.3700  209.0910  154.5530 O   0  0  0  0  0  1  0  0  0  0  0  0
  161.4440  208.1700  148.5490 C   0  0  2  0  0  3  0  0  0  0  0  0
  163.8460  212.1070  148.0020 C   0  0  2  0  0  3  0  0  0  0  0  0
  161.4360  205.4850  149.9470 C   0  0  2  0  0  3  0  0  0  0  0  0
  159.9850  210.5920  152.6970 C   0  0  2  0  0  3  0  0  0  0  0  0
  160.8420  211.4920  153.4500 N   0  0  0  0  0  1  0  0  0  0  0  0
  158.7180  210.2780  153.4740 C   0  0  0  0  0  1  0  0  0  0  0  0
  161.9780  203.4070  148.2520 O   0  0  0  0  0  0  0  0  0  0  0  0
  161.6670  204.4260  147.6490 C   0  0  0  0  0  0  0  0  0  0  0  0
  161.8310  204.4380  146.1370 C   0  0  0  0  0  0  0  0  0  0  0  0
  161.2900  203.1440  145.5580 C   0  0  0  0  0  1  0  0  0  0  0  0
  161.1500  205.5070  145.5530 O   0  0  0  0  0  1  0  0  0  0  0  0
  163.3020  204.5550  145.7820 C   0  0  0  0  0  1  0  0  0  0  0  0
  1 17  1  1  0  0  0
  1  4  1  0  0  0  0
  2 21  1  0  0  0  0
  2 18  1  1  0  0  0
  2  5  1  0  0  0  0
  3  6  1  0  0  0  0
  3  4  1  0  0  0  0
  4  9  1  0  0  0  0
  5 17  1  0  0  0  0
  6 10  1  0  0  0  0
  7 12  1  0  0  0  0
  8 14  1  0  0  0  0
  8 20  1  0  0  0  0
  9 23  1  0  0  0  0
  9 12  1  0  0  0  0
 10  7  1  0  0  0  0
 11  5  1  0  0  0  0
 11  1  1  0  0  0  0
 12 19  1  0  0  0  0
 13 11  1  0  0  0  0
 13 20  1  0  0  0  0
 14 22  1  0  0  0  0
 15 14  1  0  0  0  0
 20  3  1  0  0  0  0
 21 18  1  0  0  0  0
 21  5  1  0  0  0  0
 22 16  1  0  0  0  0
 22  6  1  0  0  0  0
 23 24  1  0  0  0  0
 23 25  1  0  0  0  0
 27 26  2  0  0  0  0
 27 14  1  0  0  0  0
 28 27  1  0  0  0  0
 29 28  1  0  0  0  0
 30 28  1  0  0  0  0
 31 28  1  0  0  0  0
M  END
>  <MODEL>
3

>  <REMARK>
 VINA RESULT:      -3.7      2.591      6.291
  Name = 
  3 active torsions:
  status: ('A' for Active; 'I' for Inactive)
    1  A    between atoms: C_5  and  C_10
    2  A    between atoms: C_17  and  C_19
    3  A    between atoms: C_19  and  C_22
                            x       y       z     vdW  Elec       q    Type
                         _______ _______ _______ _____ _____    ______ ____

>  <TORSDO>
F 3

$$$$
