=
 OpenBabel11072411443D

 49 50  0  0  1  0  0  0  0  0999 V2000
  161.4880  204.3100  151.7930 C   0  0  0  0  0  2  0  0  0  0  0  0
  160.8240  207.4900  149.5470 S   0  0  0  0  0  0  0  0  0  0  0  0
  161.0660  207.1320  152.3890 C   0  0  2  0  0  3  0  0  0  0  0  0
  161.2580  205.2970  150.6880 C   0  0  0  0  0  0  0  0  0  0  0  0
  161.1800  205.0060  149.3180 C   0  0  0  0  0  0  0  0  0  0  0  0
  161.2950  203.6270  148.7590 C   0  0  0  0  0  1  0  0  0  0  0  0
  161.7780  206.2460  153.2310 O   0  0  0  0  0  0  0  0  0  0  0  0
  161.1260  206.6430  150.9700 C   0  0  0  0  0  0  0  0  0  0  0  0
  161.1620  204.9750  153.1450 C   0  0  0  0  0  2  0  0  0  0  0  0
  160.9490  206.1410  148.5410 C   0  0  0  0  0  0  0  0  0  0  0  0
  161.6660  208.5260  152.4930 C   0  0  0  0  0  2  0  0  0  0  0  0
  161.3100  209.1840  153.8170 C   0  0  2  0  0  3  0  0  0  0  0  0
  160.4810  208.3480  154.5700 O   0  0  0  0  0  1  0  0  0  0  0  0
  160.6540  210.5520  153.5780 C   0  0  2  0  0  3  0  0  0  0  0  0
  160.6970  211.0170  152.1170 C   0  0  0  0  0  2  0  0  0  0  0  0
  160.5720  212.4310  152.0600 O   0  0  0  0  0  0  0  0  0  0  0  0
  159.5340  213.0540  151.3670 C   0  0  0  0  0  0  0  0  0  0  0  0
  158.3300  212.8170  151.6510 O   0  0  0  0  0  0  0  0  0  0  0  0
  159.8620  214.0010  150.2650 C   0  0  0  0  0  2  0  0  0  0  0  0
  160.8020  212.9050  148.1870 C   0  0  0  0  0  0  0  0  0  0  0  0
  161.9820  212.9970  148.6230 O   0  0  0  0  0  0  0  0  0  0  0  0
  160.5570  212.3110  146.8450 C   0  0  0  0  0  1  0  0  0  0  0  0
  159.6940  213.3470  148.9760 N   0  0  0  0  0  2  0  0  0  0  0  0
  161.0150  211.5530  154.5130 O   0  0  0  0  0  0  0  0  0  0  0  0
  160.0070  211.6740  155.4910 C   0  0  1  0  0  3  0  0  0  0  0  0
  160.5790  211.6750  156.7640 O   0  0  0  0  0  1  0  0  0  0  0  0
  159.2020  212.9530  155.2750 C   0  0  0  0  0  2  0  0  0  0  0  0
  157.7350  212.7600  155.6200 C   0  0  0  0  0  1  0  0  0  0  0  0
  160.7690  206.1720  147.0620 C   0  0  0  0  0  2  0  0  0  0  0  0
  161.9680  206.5430  146.4530 O   0  0  0  0  0  0  0  0  0  0  0  0
  162.2770  205.4690  145.6180 C   0  0  0  0  0  2  0  0  0  0  0  0
  161.3900  205.5040  144.3850 C   0  0  2  0  0  3  0  0  0  0  0  0
  160.6860  204.3010  144.2840 O   0  0  0  0  0  0  0  0  0  0  0  0
  161.3720  203.4060  145.1080 C   0  0  0  0  0  2  0  0  0  0  0  0
  160.4240  202.7130  145.9610 N   0  0  0  0  0  2  0  0  0  0  0  0
  160.7200  201.2940  145.8500 C   0  0  0  0  0  2  0  0  0  0  0  0
  159.8860  200.6860  144.7380 C   0  0  0  0  0  1  0  0  0  0  0  0
  162.2700  205.6850  143.1580 C   0  0  0  0  0  2  0  0  0  0  0  0
  161.4500  206.1840  141.9800 C   0  0  0  0  0  2  0  0  0  0  0  0
  162.2860  207.0720  141.0620 C   0  0  0  0  0  2  0  0  0  0  0  0
  161.6770  207.1660  139.6600 C   0  0  2  0  0  3  0  0  0  0  0  0
  162.4780  206.2610  138.7280 C   0  0  0  0  0  1  0  0  0  0  0  0
  161.7030  208.5560  139.1780 N   0  0  0  0  0  0  0  0  0  0  0  0
  160.3350  208.9650  138.8610 C   0  0  0  0  0  2  0  0  0  0  0  0
  158.6710  208.5560  137.2190 O   0  0  0  0  0  1  0  0  0  0  0  0
  160.0440  208.6980  137.3990 C   0  0  0  0  0  2  0  0  0  0  0  0
  162.1100  209.4170  140.2820 C   0  0  0  0  0  2  0  0  0  0  0  0
  161.3910  210.7490  140.1880 C   0  0  0  0  0  2  0  0  0  0  0  0
  162.0060  211.7180  141.1720 C   0  0  0  0  0  1  0  0  0  0  0  0
  1  9  1  0  0  0  0
  2  8  1  0  0  0  0
  3 11  1  6  0  0  0
  3  7  1  0  0  0  0
  4  8  2  0  0  0  0
  4  1  1  0  0  0  0
  5  4  1  0  0  0  0
  6  5  1  0  0  0  0
  8  3  1  0  0  0  0
  9  7  1  0  0  0  0
 10  5  2  0  0  0  0
 10  2  1  0  0  0  0
 11 12  1  0  0  0  0
 12 13  1  6  0  0  0
 14 15  1  6  0  0  0
 14 12  1  0  0  0  0
 14 24  1  0  0  0  0
 16 15  1  0  0  0  0
 17 18  2  0  0  0  0
 17 16  1  0  0  0  0
 19 17  1  0  0  0  0
 20 21  2  0  0  0  0
 20 23  1  0  0  0  0
 22 20  1  0  0  0  0
 23 19  1  0  0  0  0
 24 25  1  0  0  0  0
 25 26  1  1  0  0  0
 27 25  1  0  0  0  0
 27 28  1  0  0  0  0
 29 10  1  0  0  0  0
 30 29  1  0  0  0  0
 31 30  1  0  0  0  0
 32 38  1  6  0  0  0
 32 31  1  0  0  0  0
 33 32  1  0  0  0  0
 33 34  1  0  0  0  0
 34 35  1  0  0  0  0
 36 35  1  0  0  0  0
 37 36  1  0  0  0  0
 39 38  1  0  0  0  0
 40 39  1  0  0  0  0
 41 42  1  6  0  0  0
 41 40  1  0  0  0  0
 43 41  1  0  0  0  0
 43 47  1  0  0  0  0
 44 43  1  0  0  0  0
 45 46  1  0  0  0  0
 46 44  1  0  0  0  0
 48 47  1  0  0  0  0
 48 49  1  0  0  0  0
M  END
>  <MODEL>
1

>  <REMARK>
 VINA RESULT:      -4.9      0.000      0.000
  Name = 
  28 active torsions:
  status: ('A' for Active; 'I' for Inactive)
    1  A    between atoms: O_1  and  C_19
    2  A    between atoms: O_1  and  C_27
    3  A    between atoms: C_3  and  C_5
    4  A    between atoms: C_3  and  N_39
    5  A    between atoms: C_4  and  O_34
    6  A    between atoms: C_4  and  C_47
    7  A    between atoms: C_5  and  C_18
    8  A    between atoms: C_6  and  C_33
    9  A    between atoms: C_6  and  C_44
   10  A    between atoms: C_8  and  N_24
   11  A    between atoms: C_9  and  C_33
   12  A    between atoms: C_12  and  C_21
   13  A    between atoms: C_17  and  C_19
   14  A    between atoms: C_17  and  O_36
   15  A    between atoms: C_18  and  C_37
   16  A    between atoms: C_19  and  C_37
   17  A    between atoms: C_21  and  N_39
   18  A    between atoms: C_22  and  C_25
   19  A    between atoms: C_22  and  N_43
   20  A    between atoms: C_23  and  O_36
   21  A    between atoms: C_23  and  C_42
   22  A    between atoms: N_24  and  C_27
   23  A    between atoms: C_25  and  O_46
   24  A    between atoms: C_32  and  C_40
   25  A    between atoms: O_34  and  C_44
   26  A    between atoms: N_39  and  C_40
   27  A    between atoms: C_44  and  C_49
   28  A    between atoms: O_46  and  C_49
                            x       y       z     vdW  Elec       q    Type
                         _______ _______ _______ _____ _____    ______ ____

>  <TORSDO>
F 28

$$$$
=
 OpenBabel11072411443D

 49 50  0  0  1  0  0  0  0  0999 V2000
  161.5610  204.5860  151.9010 C   0  0  0  0  0  2  0  0  0  0  0  0
  161.0760  207.4840  149.2620 S   0  0  0  0  0  0  0  0  0  0  0  0
  161.3530  207.4850  152.1240 C   0  0  2  0  0  3  0  0  0  0  0  0
  161.3790  205.4330  150.6780 C   0  0  0  0  0  0  0  0  0  0  0  0
  161.2510  204.9720  149.3600 C   0  0  0  0  0  0  0  0  0  0  0  0
  161.2570  203.5270  148.9870 C   0  0  0  0  0  1  0  0  0  0  0  0
  162.0170  206.6670  153.0670 O   0  0  0  0  0  0  0  0  0  0  0  0
  161.3480  206.8120  150.7810 C   0  0  0  0  0  0  0  0  0  0  0  0
  161.3120  205.4440  153.1570 C   0  0  0  0  0  2  0  0  0  0  0  0
  161.0840  206.0090  148.4420 C   0  0  0  0  0  0  0  0  0  0  0  0
  162.0520  208.8340  152.0350 C   0  0  0  0  0  2  0  0  0  0  0  0
  161.1850  209.9430  152.6100 C   0  0  2  0  0  3  0  0  0  0  0  0
  160.0310  209.4110  153.1900 O   0  0  0  0  0  1  0  0  0  0  0  0
  160.8390  210.9710  151.5210 C   0  0  2  0  0  3  0  0  0  0  0  0
  161.6970  210.8520  150.2560 C   0  0  0  0  0  2  0  0  0  0  0  0
  161.9520  212.1460  149.7260 O   0  0  0  0  0  0  0  0  0  0  0  0
  161.1190  212.7310  148.7710 C   0  0  0  0  0  0  0  0  0  0  0  0
  160.5300  213.8190  149.0040 O   0  0  0  0  0  0  0  0  0  0  0  0
  160.9170  212.0430  147.4650 C   0  0  0  0  0  2  0  0  0  0  0  0
  160.4490  212.8160  145.1010 C   0  0  0  0  0  0  0  0  0  0  0  0
  159.6440  211.8660  144.9060 O   0  0  0  0  0  0  0  0  0  0  0  0
  160.7260  213.7840  144.0050 C   0  0  0  0  0  1  0  0  0  0  0  0
  161.0850  212.9880  146.3700 N   0  0  0  0  0  2  0  0  0  0  0  0
  160.6830  212.2990  151.9900 O   0  0  0  0  0  0  0  0  0  0  0  0
  159.3720  212.4790  152.4760 C   0  0  1  0  0  3  0  0  0  0  0  0
  159.3430  213.5420  153.3810 O   0  0  0  0  0  1  0  0  0  0  0  0
  158.4040  212.7420  151.3250 C   0  0  0  0  0  2  0  0  0  0  0  0
  157.3730  213.7980  151.6860 C   0  0  0  0  0  1  0  0  0  0  0  0
  160.8760  205.8590  146.9740 C   0  0  0  0  0  2  0  0  0  0  0  0
  162.0550  206.1770  146.3000 O   0  0  0  0  0  0  0  0  0  0  0  0
  162.1160  205.2550  145.2550 C   0  0  0  0  0  2  0  0  0  0  0  0
  161.2240  205.7100  144.1130 C   0  0  2  0  0  3  0  0  0  0  0  0
  160.1060  204.8760  144.0340 O   0  0  0  0  0  0  0  0  0  0  0  0
  160.4940  203.6850  144.6500 C   0  0  0  0  0  2  0  0  0  0  0  0
  159.5670  202.6290  144.2860 N   0  0  0  0  0  2  0  0  0  0  0  0
  159.9520  201.4520  145.0470 C   0  0  0  0  0  2  0  0  0  0  0  0
  160.9350  201.8480  146.1320 C   0  0  0  0  0  1  0  0  0  0  0  0
  162.0150  205.6280  142.8170 C   0  0  0  0  0  2  0  0  0  0  0  0
  161.6450  206.7740  141.8910 C   0  0  0  0  0  2  0  0  0  0  0  0
  162.4390  206.7090  140.5890 C   0  0  0  0  0  2  0  0  0  0  0  0
  161.5700  207.0680  139.3790 C   0  0  2  0  0  3  0  0  0  0  0  0
  162.3790  206.8010  138.1130 C   0  0  0  0  0  1  0  0  0  0  0  0
  161.1570  208.4780  139.4400 N   0  0  0  0  0  0  0  0  0  0  0  0
  162.3100  209.3180  139.1190 C   0  0  0  0  0  2  0  0  0  0  0  0
  161.3910  210.3800  141.0330 O   0  0  0  0  0  1  0  0  0  0  0  0
  162.3130  210.5480  140.0040 C   0  0  0  0  0  2  0  0  0  0  0  0
  160.1990  208.7230  138.3680 C   0  0  0  0  0  2  0  0  0  0  0  0
  159.0570  209.5770  138.8840 C   0  0  0  0  0  2  0  0  0  0  0  0
  157.9270  209.5590  137.8790 C   0  0  0  0  0  1  0  0  0  0  0  0
  1  9  1  0  0  0  0
  2  8  1  0  0  0  0
  3 11  1  6  0  0  0
  3  7  1  0  0  0  0
  4  8  2  0  0  0  0
  4  1  1  0  0  0  0
  5  4  1  0  0  0  0
  6  5  1  0  0  0  0
  7  9  1  0  0  0  0
  8  3  1  0  0  0  0
 10  2  1  0  0  0  0
 10  5  2  0  0  0  0
 11 12  1  0  0  0  0
 12 13  1  6  0  0  0
 14 15  1  6  0  0  0
 14 24  1  0  0  0  0
 14 12  1  0  0  0  0
 16 15  1  0  0  0  0
 17 18  2  0  0  0  0
 17 16  1  0  0  0  0
 19 17  1  0  0  0  0
 20 23  1  0  0  0  0
 21 20  2  0  0  0  0
 22 20  1  0  0  0  0
 23 19  1  0  0  0  0
 24 25  1  0  0  0  0
 25 26  1  1  0  0  0
 27 28  1  0  0  0  0
 27 25  1  0  0  0  0
 29 10  1  0  0  0  0
 30 29  1  0  0  0  0
 31 30  1  0  0  0  0
 32 38  1  6  0  0  0
 32 31  1  0  0  0  0
 33 32  1  0  0  0  0
 33 34  1  0  0  0  0
 35 34  1  0  0  0  0
 35 36  1  0  0  0  0
 36 37  1  0  0  0  0
 39 38  1  0  0  0  0
 40 39  1  0  0  0  0
 41 42  1  6  0  0  0
 41 43  1  0  0  0  0
 41 40  1  0  0  0  0
 44 43  1  0  0  0  0
 44 46  1  0  0  0  0
 46 45  1  0  0  0  0
 47 48  1  0  0  0  0
 47 43  1  0  0  0  0
 49 48  1  0  0  0  0
M  END
>  <MODEL>
2

>  <REMARK>
 VINA RESULT:      -4.4      1.609      2.396
  Name = 
  28 active torsions:
  status: ('A' for Active; 'I' for Inactive)
    1  A    between atoms: O_1  and  C_19
    2  A    between atoms: O_1  and  C_27
    3  A    between atoms: C_3  and  C_5
    4  A    between atoms: C_3  and  N_39
    5  A    between atoms: C_4  and  O_34
    6  A    between atoms: C_4  and  C_47
    7  A    between atoms: C_5  and  C_18
    8  A    between atoms: C_6  and  C_33
    9  A    between atoms: C_6  and  C_44
   10  A    between atoms: C_8  and  N_24
   11  A    between atoms: C_9  and  C_33
   12  A    between atoms: C_12  and  C_21
   13  A    between atoms: C_17  and  C_19
   14  A    between atoms: C_17  and  O_36
   15  A    between atoms: C_18  and  C_37
   16  A    between atoms: C_19  and  C_37
   17  A    between atoms: C_21  and  N_39
   18  A    between atoms: C_22  and  C_25
   19  A    between atoms: C_22  and  N_43
   20  A    between atoms: C_23  and  O_36
   21  A    between atoms: C_23  and  C_42
   22  A    between atoms: N_24  and  C_27
   23  A    between atoms: C_25  and  O_46
   24  A    between atoms: C_32  and  C_40
   25  A    between atoms: O_34  and  C_44
   26  A    between atoms: N_39  and  C_40
   27  A    between atoms: C_44  and  C_49
   28  A    between atoms: O_46  and  C_49
                            x       y       z     vdW  Elec       q    Type
                         _______ _______ _______ _____ _____    ______ ____

>  <TORSDO>
F 28

$$$$
=
 OpenBabel11072411443D

 49 50  0  0  1  0  0  0  0  0999 V2000
  160.9870  205.3850  153.3500 C   0  0  0  0  0  2  0  0  0  0  0  0
  161.7360  209.1080  152.2670 S   0  0  0  0  0  0  0  0  0  0  0  0
  162.1790  206.5800  150.9730 C   0  0  2  0  0  3  0  0  0  0  0  0
  161.1330  206.8720  153.2370 C   0  0  0  0  0  0  0  0  0  0  0  0
  160.7790  207.8180  154.2100 C   0  0  0  0  0  0  0  0  0  0  0  0
  160.2110  207.4590  155.5420 C   0  0  0  0  0  1  0  0  0  0  0  0
  161.5340  205.3210  150.9840 O   0  0  0  0  0  0  0  0  0  0  0  0
  161.6370  207.4380  152.0800 C   0  0  0  0  0  0  0  0  0  0  0  0
  161.8000  204.7060  152.2300 C   0  0  0  0  0  2  0  0  0  0  0  0
  161.0480  209.1270  153.8080 C   0  0  0  0  0  0  0  0  0  0  0  0
  161.9590  207.2530  149.6270 C   0  0  0  0  0  2  0  0  0  0  0  0
  160.6890  206.7500  148.9580 C   0  0  2  0  0  3  0  0  0  0  0  0
  159.7680  206.3230  149.9190 O   0  0  0  0  0  1  0  0  0  0  0  0
  161.0170  205.6280  147.9610 C   0  0  2  0  0  3  0  0  0  0  0  0
  161.5370  204.3440  148.6170 C   0  0  0  0  0  2  0  0  0  0  0  0
  160.5230  203.3490  148.5970 O   0  0  0  0  0  0  0  0  0  0  0  0
  160.7950  202.0220  148.2610 C   0  0  0  0  0  0  0  0  0  0  0  0
  161.0210  201.1610  149.1510 O   0  0  0  0  0  0  0  0  0  0  0  0
  160.8340  201.6310  146.8240 C   0  0  0  0  0  2  0  0  0  0  0  0
  160.9900  199.4360  145.5730 C   0  0  0  0  0  0  0  0  0  0  0  0
  160.3170  199.8920  144.6080 O   0  0  0  0  0  0  0  0  0  0  0  0
  161.4630  198.0260  145.5410 C   0  0  0  0  0  1  0  0  0  0  0  0
  161.3200  200.2660  146.6900 N   0  0  0  0  0  2  0  0  0  0  0  0
  161.7620  206.0420  146.8300 O   0  0  0  0  0  0  0  0  0  0  0  0
  161.3100  205.3530  145.6860 C   0  0  1  0  0  3  0  0  0  0  0  0
  159.9870  205.7040  145.4120 O   0  0  0  0  0  1  0  0  0  0  0  0
  162.1980  205.6690  144.4840 C   0  0  0  0  0  2  0  0  0  0  0  0
  161.3950  205.7470  143.1960 C   0  0  0  0  0  1  0  0  0  0  0  0
  160.8320  210.3570  154.6210 C   0  0  0  0  0  2  0  0  0  0  0  0
  159.4730  210.6700  154.6450 O   0  0  0  0  0  0  0  0  0  0  0  0
  159.3150  211.6010  153.6180 C   0  0  0  0  0  2  0  0  0  0  0  0
  158.2560  212.6190  154.0050 C   0  0  2  0  0  3  0  0  0  0  0  0
  157.3270  212.0220  154.8610 O   0  0  0  0  0  0  0  0  0  0  0  0
  157.6250  212.5220  156.1300 C   0  0  0  0  0  2  0  0  0  0  0  0
  156.7560  213.6460  156.4230 N   0  0  0  0  0  2  0  0  0  0  0  0
  155.3960  213.1330  156.4370 C   0  0  0  0  0  2  0  0  0  0  0  0
  155.3590  211.8140  157.1870 C   0  0  0  0  0  1  0  0  0  0  0  0
  157.5560  213.0950  152.7430 C   0  0  0  0  0  2  0  0  0  0  0  0
  158.3240  214.2400  152.1040 C   0  0  0  0  0  2  0  0  0  0  0  0
  158.9560  213.8110  150.7820 C   0  0  0  0  0  2  0  0  0  0  0  0
  158.1710  214.3450  149.5800 C   0  0  2  0  0  3  0  0  0  0  0  0
  156.7000  214.4420  149.9740 C   0  0  0  0  0  1  0  0  0  0  0  0
  158.3390  213.4590  148.4190 N   0  0  0  0  0  0  0  0  0  0  0  0
  157.1680  213.5970  147.5530 C   0  0  0  0  0  2  0  0  0  0  0  0
  156.5020  214.2410  145.3680 O   0  0  0  0  0  1  0  0  0  0  0  0
  157.5520  214.3210  146.2790 C   0  0  0  0  0  2  0  0  0  0  0  0
  159.4580  213.9510  147.6230 C   0  0  0  0  0  2  0  0  0  0  0  0
  160.7630  213.4420  148.2040 C   0  0  0  0  0  2  0  0  0  0  0  0
  161.6290  212.9040  147.0860 C   0  0  0  0  0  1  0  0  0  0  0  0
  2 10  1  0  0  0  0
  3 11  1  6  0  0  0
  3  7  1  0  0  0  0
  3  8  1  0  0  0  0
  4  1  1  0  0  0  0
  4  5  1  0  0  0  0
  5  6  1  0  0  0  0
  7  9  1  0  0  0  0
  8  2  1  0  0  0  0
  8  4  2  0  0  0  0
  9  1  1  0  0  0  0
 10  5  2  0  0  0  0
 10 29  1  0  0  0  0
 12 11  1  0  0  0  0
 12 13  1  1  0  0  0
 14 15  1  1  0  0  0
 14 12  1  0  0  0  0
 16 15  1  0  0  0  0
 17 16  1  0  0  0  0
 17 18  2  0  0  0  0
 19 17  1  0  0  0  0
 20 23  1  0  0  0  0
 21 20  2  0  0  0  0
 22 20  1  0  0  0  0
 23 19  1  0  0  0  0
 24 14  1  0  0  0  0
 25 26  1  6  0  0  0
 25 24  1  0  0  0  0
 27 25  1  0  0  0  0
 28 27  1  0  0  0  0
 29 30  1  0  0  0  0
 31 32  1  0  0  0  0
 31 30  1  0  0  0  0
 32 38  1  6  0  0  0
 32 33  1  0  0  0  0
 33 34  1  0  0  0  0
 34 35  1  0  0  0  0
 35 36  1  0  0  0  0
 36 37  1  0  0  0  0
 39 38  1  0  0  0  0
 40 39  1  0  0  0  0
 41 42  1  1  0  0  0
 41 40  1  0  0  0  0
 43 41  1  0  0  0  0
 44 43  1  0  0  0  0
 45 46  1  0  0  0  0
 46 44  1  0  0  0  0
 47 48  1  0  0  0  0
 47 43  1  0  0  0  0
 49 48  1  0  0  0  0
M  END
>  <MODEL>
3

>  <REMARK>
 VINA RESULT:      -3.7      3.377     10.707
  Name = 
  28 active torsions:
  status: ('A' for Active; 'I' for Inactive)
    1  A    between atoms: O_1  and  C_19
    2  A    between atoms: O_1  and  C_27
    3  A    between atoms: C_3  and  C_5
    4  A    between atoms: C_3  and  N_39
    5  A    between atoms: C_4  and  O_34
    6  A    between atoms: C_4  and  C_47
    7  A    between atoms: C_5  and  C_18
    8  A    between atoms: C_6  and  C_33
    9  A    between atoms: C_6  and  C_44
   10  A    between atoms: C_8  and  N_24
   11  A    between atoms: C_9  and  C_33
   12  A    between atoms: C_12  and  C_21
   13  A    between atoms: C_17  and  C_19
   14  A    between atoms: C_17  and  O_36
   15  A    between atoms: C_18  and  C_37
   16  A    between atoms: C_19  and  C_37
   17  A    between atoms: C_21  and  N_39
   18  A    between atoms: C_22  and  C_25
   19  A    between atoms: C_22  and  N_43
   20  A    between atoms: C_23  and  O_36
   21  A    between atoms: C_23  and  C_42
   22  A    between atoms: N_24  and  C_27
   23  A    between atoms: C_25  and  O_46
   24  A    between atoms: C_32  and  C_40
   25  A    between atoms: O_34  and  C_44
   26  A    between atoms: N_39  and  C_40
   27  A    between atoms: C_44  and  C_49
   28  A    between atoms: O_46  and  C_49
                            x       y       z     vdW  Elec       q    Type
                         _______ _______ _______ _____ _____    ______ ____

>  <TORSDO>
F 28

$$$$
=
 OpenBabel11072411443D

 49 50  0  0  1  0  0  0  0  0999 V2000
  160.8920  205.6330  152.9900 C   0  0  0  0  0  2  0  0  0  0  0  0
  162.1020  209.1390  151.6350 S   0  0  0  0  0  0  0  0  0  0  0  0
  162.0810  206.5080  150.4770 C   0  0  2  0  0  3  0  0  0  0  0  0
  161.2460  207.0730  152.7760 C   0  0  0  0  0  0  0  0  0  0  0  0
  161.1010  208.1120  153.7070 C   0  0  0  0  0  0  0  0  0  0  0  0
  160.5790  207.9130  155.0900 C   0  0  0  0  0  1  0  0  0  0  0  0
  161.2610  205.3620  150.6050 O   0  0  0  0  0  0  0  0  0  0  0  0
  161.7470  207.4950  151.5580 C   0  0  0  0  0  0  0  0  0  0  0  0
  161.5190  204.7810  151.8690 C   0  0  0  0  0  2  0  0  0  0  0  0
  161.5300  209.3420  153.2090 C   0  0  0  0  0  0  0  0  0  0  0  0
  161.8710  207.1340  149.1060 C   0  0  0  0  0  2  0  0  0  0  0  0
  160.8690  206.3400  148.2840 C   0  0  2  0  0  3  0  0  0  0  0  0
  160.0820  205.5370  149.1140 O   0  0  0  0  0  1  0  0  0  0  0  0
  161.5940  205.5000  147.2200 C   0  0  2  0  0  3  0  0  0  0  0  0
  162.0450  204.1220  147.7160 C   0  0  0  0  0  2  0  0  0  0  0  0
  160.9390  203.2290  147.7260 O   0  0  0  0  0  0  0  0  0  0  0  0
  160.9350  202.0500  146.9790 C   0  0  0  0  0  0  0  0  0  0  0  0
  160.9200  202.0800  145.7200 O   0  0  0  0  0  0  0  0  0  0  0  0
  160.9310  200.7410  147.6900 C   0  0  0  0  0  2  0  0  0  0  0  0
  160.6310  201.2340  150.1540 C   0  0  0  0  0  0  0  0  0  0  0  0
  159.3800  201.3260  150.0240 O   0  0  0  0  0  0  0  0  0  0  0  0
  161.2520  201.4540  151.4870 C   0  0  0  0  0  1  0  0  0  0  0  0
  161.4590  200.9010  149.0360 N   0  0  0  0  0  2  0  0  0  0  0  0
  162.5820  206.2020  146.4860 O   0  0  0  0  0  0  0  0  0  0  0  0
  162.5870  205.7540  145.1500 C   0  0  1  0  0  3  0  0  0  0  0  0
  163.5130  204.7210  144.9990 O   0  0  0  0  0  1  0  0  0  0  0  0
  161.1960  205.2790  144.7370 C   0  0  0  0  0  2  0  0  0  0  0  0
  160.1210  206.2830  145.1190 C   0  0  0  0  0  1  0  0  0  0  0  0
  161.5530  210.6320  153.9550 C   0  0  0  0  0  2  0  0  0  0  0  0
  160.2490  211.0050  154.2840 O   0  0  0  0  0  0  0  0  0  0  0  0
  159.9110  211.9600  153.3260 C   0  0  0  0  0  2  0  0  0  0  0  0
  158.4790  212.4190  153.5380 C   0  0  2  0  0  3  0  0  0  0  0  0
  157.8150  211.5060  154.3630 O   0  0  0  0  0  0  0  0  0  0  0  0
  157.3410  212.2620  155.4370 C   0  0  0  0  0  2  0  0  0  0  0  0
  155.9020  212.4130  155.3220 N   0  0  0  0  0  2  0  0  0  0  0  0
  155.5440  213.6050  156.0730 C   0  0  0  0  0  2  0  0  0  0  0  0
  156.7820  214.4530  156.3010 C   0  0  0  0  0  1  0  0  0  0  0  0
  157.7850  212.4850  152.1870 C   0  0  0  0  0  2  0  0  0  0  0  0
  158.1660  213.7590  151.4520 C   0  0  0  0  0  2  0  0  0  0  0  0
  158.9160  213.4470  150.1600 C   0  0  0  0  0  2  0  0  0  0  0  0
  158.5030  214.3900  149.0250 C   0  0  2  0  0  3  0  0  0  0  0  0
  156.9790  214.4310  148.9660 C   0  0  0  0  0  1  0  0  0  0  0  0
  159.0580  213.9280  147.7430 N   0  0  0  0  0  0  0  0  0  0  0  0
  160.3950  213.3880  147.9800 C   0  0  0  0  0  2  0  0  0  0  0  0
  162.6080  214.2000  148.2580 O   0  0  0  0  0  1  0  0  0  0  0  0
  161.2810  214.4530  148.5930 C   0  0  0  0  0  2  0  0  0  0  0  0
  158.2660  212.7940  147.2810 C   0  0  0  0  0  2  0  0  0  0  0  0
  157.7560  213.0600  145.8790 C   0  0  0  0  0  2  0  0  0  0  0  0
  158.8930  212.8960  144.8950 C   0  0  0  0  0  1  0  0  0  0  0  0
  2 10  1  0  0  0  0
  3 11  1  6  0  0  0
  3  7  1  0  0  0  0
  3  8  1  0  0  0  0
  4  1  1  0  0  0  0
  4  5  1  0  0  0  0
  5  6  1  0  0  0  0
  7  9  1  0  0  0  0
  8  2  1  0  0  0  0
  8  4  2  0  0  0  0
  9  1  1  0  0  0  0
 10  5  2  0  0  0  0
 10 29  1  0  0  0  0
 12 11  1  0  0  0  0
 12 13  1  1  0  0  0
 14 15  1  1  0  0  0
 14 12  1  0  0  0  0
 15 16  1  0  0  0  0
 17 19  1  0  0  0  0
 17 16  1  0  0  0  0
 18 17  2  0  0  0  0
 19 23  1  0  0  0  0
 20 22  1  0  0  0  0
 21 20  2  0  0  0  0
 23 20  1  0  0  0  0
 24 14  1  0  0  0  0
 25 26  1  1  0  0  0
 25 24  1  0  0  0  0
 27 28  1  0  0  0  0
 27 25  1  0  0  0  0
 29 30  1  0  0  0  0
 31 32  1  0  0  0  0
 31 30  1  0  0  0  0
 32 38  1  6  0  0  0
 32 33  1  0  0  0  0
 33 34  1  0  0  0  0
 35 34  1  0  0  0  0
 35 36  1  0  0  0  0
 36 37  1  0  0  0  0
 39 38  1  0  0  0  0
 40 39  1  0  0  0  0
 41 42  1  6  0  0  0
 41 40  1  0  0  0  0
 43 44  1  0  0  0  0
 43 41  1  0  0  0  0
 44 46  1  0  0  0  0
 45 46  1  0  0  0  0
 47 43  1  0  0  0  0
 48 47  1  0  0  0  0
 49 48  1  0  0  0  0
M  END
>  <MODEL>
4

>  <REMARK>
 VINA RESULT:      -3.6      3.591     10.486
  Name = 
  28 active torsions:
  status: ('A' for Active; 'I' for Inactive)
    1  A    between atoms: O_1  and  C_19
    2  A    between atoms: O_1  and  C_27
    3  A    between atoms: C_3  and  C_5
    4  A    between atoms: C_3  and  N_39
    5  A    between atoms: C_4  and  O_34
    6  A    between atoms: C_4  and  C_47
    7  A    between atoms: C_5  and  C_18
    8  A    between atoms: C_6  and  C_33
    9  A    between atoms: C_6  and  C_44
   10  A    between atoms: C_8  and  N_24
   11  A    between atoms: C_9  and  C_33
   12  A    between atoms: C_12  and  C_21
   13  A    between atoms: C_17  and  C_19
   14  A    between atoms: C_17  and  O_36
   15  A    between atoms: C_18  and  C_37
   16  A    between atoms: C_19  and  C_37
   17  A    between atoms: C_21  and  N_39
   18  A    between atoms: C_22  and  C_25
   19  A    between atoms: C_22  and  N_43
   20  A    between atoms: C_23  and  O_36
   21  A    between atoms: C_23  and  C_42
   22  A    between atoms: N_24  and  C_27
   23  A    between atoms: C_25  and  O_46
   24  A    between atoms: C_32  and  C_40
   25  A    between atoms: O_34  and  C_44
   26  A    between atoms: N_39  and  C_40
   27  A    between atoms: C_44  and  C_49
   28  A    between atoms: O_46  and  C_49
                            x       y       z     vdW  Elec       q    Type
                         _______ _______ _______ _____ _____    ______ ____

>  <TORSDO>
F 28

$$$$
=
 OpenBabel11072411443D

 49 50  0  0  1  0  0  0  0  0999 V2000
  160.7580  201.3020  149.7730 C   0  0  0  0  0  2  0  0  0  0  0  0
  161.7260  205.0330  148.9150 S   0  0  0  0  0  0  0  0  0  0  0  0
  161.3700  202.6910  147.2850 C   0  0  2  0  0  3  0  0  0  0  0  0
  161.0950  202.7620  149.7790 C   0  0  0  0  0  0  0  0  0  0  0  0
  161.1940  203.5870  150.9090 C   0  0  0  0  0  0  0  0  0  0  0  0
  160.9930  203.1010  152.3050 C   0  0  0  0  0  1  0  0  0  0  0  0
  160.5690  201.5280  147.3630 O   0  0  0  0  0  0  0  0  0  0  0  0
  161.3180  203.4320  148.5900 C   0  0  0  0  0  0  0  0  0  0  0  0
  161.0900  200.7070  148.3900 C   0  0  0  0  0  2  0  0  0  0  0  0
  161.5330  204.9010  150.5860 C   0  0  0  0  0  0  0  0  0  0  0  0
  160.8730  203.5790  146.1540 C   0  0  0  0  0  2  0  0  0  0  0  0
  162.0090  203.9800  145.2260 C   0  0  2  0  0  3  0  0  0  0  0  0
  163.1880  204.1690  145.9510 O   0  0  0  0  0  1  0  0  0  0  0  0
  161.6330  205.2410  144.4320 C   0  0  2  0  0  3  0  0  0  0  0  0
  162.1740  205.2580  142.9980 C   0  0  0  0  0  2  0  0  0  0  0  0
  161.5600  206.3110  142.2660 O   0  0  0  0  0  0  0  0  0  0  0  0
  161.9770  206.6580  140.9800 C   0  0  0  0  0  0  0  0  0  0  0  0
  162.9390  206.0620  140.4280 O   0  0  0  0  0  0  0  0  0  0  0  0
  161.2780  207.7610  140.2640 C   0  0  0  0  0  2  0  0  0  0  0  0
  162.3000  209.9100  139.4020 C   0  0  0  0  0  0  0  0  0  0  0  0
  161.9090  209.6720  138.2270 O   0  0  0  0  0  0  0  0  0  0  0  0
  163.0850  211.1420  139.6830 C   0  0  0  0  0  1  0  0  0  0  0  0
  161.9800  209.0180  140.4730 N   0  0  0  0  0  2  0  0  0  0  0  0
  161.8190  206.4570  145.1340 O   0  0  0  0  0  0  0  0  0  0  0  0
  160.5810  206.9110  145.6320 C   0  0  1  0  0  3  0  0  0  0  0  0
  159.5540  206.0820  145.1790 O   0  0  0  0  0  1  0  0  0  0  0  0
  160.5960  206.9440  147.1590 C   0  0  0  0  0  2  0  0  0  0  0  0
  161.4660  208.0710  147.6890 C   0  0  0  0  0  1  0  0  0  0  0  0
  161.7600  206.0130  151.5520 C   0  0  0  0  0  2  0  0  0  0  0  0
  160.6700  206.8830  151.5280 O   0  0  0  0  0  0  0  0  0  0  0  0
  161.1480  208.0180  150.8730 C   0  0  0  0  0  2  0  0  0  0  0  0
  161.4660  209.1020  151.8880 C   0  0  2  0  0  3  0  0  0  0  0  0
  160.2760  209.6150  152.4100 O   0  0  0  0  0  0  0  0  0  0  0  0
  160.6210  210.1470  153.6530 C   0  0  0  0  0  2  0  0  0  0  0  0
  161.2750  209.1260  154.4510 N   0  0  0  0  0  2  0  0  0  0  0  0
  161.3790  209.6510  155.8020 C   0  0  0  0  0  2  0  0  0  0  0  0
  162.5320  210.6350  155.8770 C   0  0  0  0  0  1  0  0  0  0  0  0
  162.2370  210.2110  151.1890 C   0  0  0  0  0  2  0  0  0  0  0  0
  161.3190  211.0070  150.2760 C   0  0  0  0  0  2  0  0  0  0  0  0
  162.0600  211.4850  149.0300 C   0  0  0  0  0  2  0  0  0  0  0  0
  161.7540  212.9540  148.7200 C   0  0  2  0  0  3  0  0  0  0  0  0
  160.5960  213.4000  149.6080 C   0  0  0  0  0  1  0  0  0  0  0  0
  161.4110  213.1210  147.2990 N   0  0  0  0  0  0  0  0  0  0  0  0
  162.6350  213.0110  146.5070 C   0  0  0  0  0  2  0  0  0  0  0  0
  163.4990  213.1880  144.3040 O   0  0  0  0  0  1  0  0  0  0  0  0
  162.3500  213.3810  145.0660 C   0  0  0  0  0  2  0  0  0  0  0  0
  160.5890  211.9890  146.8880 C   0  0  0  0  0  2  0  0  0  0  0  0
  159.3430  212.4860  146.1820 C   0  0  0  0  0  2  0  0  0  0  0  0
  158.3610  213.0010  147.2100 C   0  0  0  0  0  1  0  0  0  0  0  0
  1  4  1  0  0  0  0
  2 10  1  0  0  0  0
  3 11  1  6  0  0  0
  3  7  1  0  0  0  0
  3  8  1  0  0  0  0
  4  5  1  0  0  0  0
  5  6  1  0  0  0  0
  7  9  1  0  0  0  0
  8  2  1  0  0  0  0
  8  4  2  0  0  0  0
  9  1  1  0  0  0  0
 10  5  2  0  0  0  0
 10 29  1  0  0  0  0
 12 13  1  1  0  0  0
 12 11  1  0  0  0  0
 14 15  1  6  0  0  0
 14 24  1  0  0  0  0
 14 12  1  0  0  0  0
 16 15  1  0  0  0  0
 17 16  1  0  0  0  0
 18 17  2  0  0  0  0
 19 23  1  0  0  0  0
 19 17  1  0  0  0  0
 20 22  1  0  0  0  0
 20 23  1  0  0  0  0
 21 20  2  0  0  0  0
 24 25  1  0  0  0  0
 25 26  1  1  0  0  0
 25 27  1  0  0  0  0
 27 28  1  0  0  0  0
 30 29  1  0  0  0  0
 31 30  1  0  0  0  0
 32 31  1  6  0  0  0
 32 33  1  0  0  0  0
 33 34  1  0  0  0  0
 34 35  1  0  0  0  0
 35 36  1  0  0  0  0
 36 37  1  0  0  0  0
 38 32  1  0  0  0  0
 39 38  1  0  0  0  0
 40 39  1  0  0  0  0
 41 40  1  0  0  0  0
 41 42  1  1  0  0  0
 43 41  1  0  0  0  0
 44 43  1  0  0  0  0
 45 46  1  0  0  0  0
 46 44  1  0  0  0  0
 47 43  1  0  0  0  0
 48 47  1  0  0  0  0
 48 49  1  0  0  0  0
M  END
>  <MODEL>
5

>  <REMARK>
 VINA RESULT:      -3.6      2.502      9.284
  Name = 
  28 active torsions:
  status: ('A' for Active; 'I' for Inactive)
    1  A    between atoms: O_1  and  C_19
    2  A    between atoms: O_1  and  C_27
    3  A    between atoms: C_3  and  C_5
    4  A    between atoms: C_3  and  N_39
    5  A    between atoms: C_4  and  O_34
    6  A    between atoms: C_4  and  C_47
    7  A    between atoms: C_5  and  C_18
    8  A    between atoms: C_6  and  C_33
    9  A    between atoms: C_6  and  C_44
   10  A    between atoms: C_8  and  N_24
   11  A    between atoms: C_9  and  C_33
   12  A    between atoms: C_12  and  C_21
   13  A    between atoms: C_17  and  C_19
   14  A    between atoms: C_17  and  O_36
   15  A    between atoms: C_18  and  C_37
   16  A    between atoms: C_19  and  C_37
   17  A    between atoms: C_21  and  N_39
   18  A    between atoms: C_22  and  C_25
   19  A    between atoms: C_22  and  N_43
   20  A    between atoms: C_23  and  O_36
   21  A    between atoms: C_23  and  C_42
   22  A    between atoms: N_24  and  C_27
   23  A    between atoms: C_25  and  O_46
   24  A    between atoms: C_32  and  C_40
   25  A    between atoms: O_34  and  C_44
   26  A    between atoms: N_39  and  C_40
   27  A    between atoms: C_44  and  C_49
   28  A    between atoms: O_46  and  C_49
                            x       y       z     vdW  Elec       q    Type
                         _______ _______ _______ _____ _____    ______ ____

>  <TORSDO>
F 28

$$$$
=
 OpenBabel11072411443D

 49 50  0  0  1  0  0  0  0  0999 V2000
  161.2080  204.1940  151.8920 C   0  0  0  0  0  2  0  0  0  0  0  0
  161.1880  207.0470  149.1620 S   0  0  0  0  0  0  0  0  0  0  0  0
  161.3710  207.1010  152.0310 C   0  0  2  0  0  3  0  0  0  0  0  0
  161.1760  205.0190  150.6420 C   0  0  0  0  0  0  0  0  0  0  0  0
  161.0310  204.5370  149.3330 C   0  0  0  0  0  0  0  0  0  0  0  0
  160.8610  203.0930  148.9990 C   0  0  0  0  0  1  0  0  0  0  0  0
  161.8940  206.2330  153.0190 O   0  0  0  0  0  0  0  0  0  0  0  0
  161.3220  206.3920  150.7070 C   0  0  0  0  0  0  0  0  0  0  0  0
  161.0330  205.1150  153.1160 C   0  0  0  0  0  2  0  0  0  0  0  0
  161.0300  205.5580  148.3830 C   0  0  0  0  0  0  0  0  0  0  0  0
  162.2420  208.3440  151.9310 C   0  0  0  0  0  2  0  0  0  0  0  0
  161.4360  209.5480  151.4690 C   0  0  2  0  0  3  0  0  0  0  0  0
  162.1640  210.2970  150.5410 O   0  0  0  0  0  1  0  0  0  0  0  0
  161.0160  210.4060  152.6730 C   0  0  2  0  0  3  0  0  0  0  0  0
  161.4510  209.8350  154.0270 C   0  0  0  0  0  2  0  0  0  0  0  0
  160.4040  209.9970  154.9750 O   0  0  0  0  0  0  0  0  0  0  0  0
  160.4030  211.0390  155.9040 C   0  0  0  0  0  0  0  0  0  0  0  0
  161.4490  211.6990  156.1390 O   0  0  0  0  0  0  0  0  0  0  0  0
  159.1450  211.3580  156.6350 C   0  0  0  0  0  2  0  0  0  0  0  0
  156.8830  211.8580  155.6140 C   0  0  0  0  0  0  0  0  0  0  0  0
  156.9030  213.0410  156.0490 O   0  0  0  0  0  0  0  0  0  0  0  0
  155.7040  211.3740  154.8460 C   0  0  0  0  0  1  0  0  0  0  0  0
  157.9900  210.9790  155.8340 N   0  0  0  0  0  2  0  0  0  0  0  0
  159.6720  210.8540  152.6390 O   0  0  0  0  0  0  0  0  0  0  0  0
  159.6430  212.2600  152.5570 C   0  0  1  0  0  3  0  0  0  0  0  0
  160.2520  212.6800  151.3740 O   0  0  0  0  0  1  0  0  0  0  0  0
  158.2050  212.7720  152.6190 C   0  0  0  0  0  2  0  0  0  0  0  0
  157.7530  213.3420  151.2860 C   0  0  0  0  0  1  0  0  0  0  0  0
  160.8500  205.3910  146.9130 C   0  0  0  0  0  2  0  0  0  0  0  0
  161.5780  206.3710  146.2380 O   0  0  0  0  0  0  0  0  0  0  0  0
  162.2320  205.6770  145.2200 C   0  0  0  0  0  2  0  0  0  0  0  0
  161.3860  205.6960  143.9580 C   0  0  2  0  0  3  0  0  0  0  0  0
  160.7610  204.4570  143.7990 O   0  0  0  0  0  0  0  0  0  0  0  0
  160.5030  204.0080  145.0950 C   0  0  0  0  0  2  0  0  0  0  0  0
  160.9850  202.6470  145.2390 N   0  0  0  0  0  2  0  0  0  0  0  0
  159.8120  201.7900  145.3010 C   0  0  0  0  0  2  0  0  0  0  0  0
  160.2130  200.3570  145.0070 C   0  0  0  0  0  1  0  0  0  0  0  0
  162.2950  205.9670  142.7700 C   0  0  0  0  0  2  0  0  0  0  0  0
  161.5230  206.6440  141.6490 C   0  0  0  0  0  2  0  0  0  0  0  0
  162.4680  207.2130  140.5940 C   0  0  0  0  0  2  0  0  0  0  0  0
  161.7120  207.6450  139.3340 C   0  0  2  0  0  3  0  0  0  0  0  0
  162.1480  206.7450  138.1820 C   0  0  0  0  0  1  0  0  0  0  0  0
  161.9910  209.0550  139.0220 N   0  0  0  0  0  0  0  0  0  0  0  0
  160.7390  209.7060  138.6390 C   0  0  0  0  0  2  0  0  0  0  0  0
  158.4730  209.1280  138.2370 O   0  0  0  0  0  1  0  0  0  0  0  0
  159.7800  208.6810  138.0680 C   0  0  0  0  0  2  0  0  0  0  0  0
  162.4050  209.7240  140.2500 C   0  0  0  0  0  2  0  0  0  0  0  0
  161.5020  210.9120  140.5190 C   0  0  0  0  0  2  0  0  0  0  0  0
  162.3340  212.0640  141.0350 C   0  0  0  0  0  1  0  0  0  0  0  0
  1  9  1  0  0  0  0
  2  8  1  0  0  0  0
  3 11  1  6  0  0  0
  3  7  1  0  0  0  0
  4  8  2  0  0  0  0
  4  1  1  0  0  0  0
  5  4  1  0  0  0  0
  6  5  1  0  0  0  0
  7  9  1  0  0  0  0
  8  3  1  0  0  0  0
 10  2  1  0  0  0  0
 10  5  2  0  0  0  0
 12 13  1  6  0  0  0
 12 11  1  0  0  0  0
 12 14  1  0  0  0  0
 14 15  1  1  0  0  0
 15 16  1  0  0  0  0
 16 17  1  0  0  0  0
 17 18  2  0  0  0  0
 17 19  1  0  0  0  0
 20 23  1  0  0  0  0
 20 21  2  0  0  0  0
 22 20  1  0  0  0  0
 23 19  1  0  0  0  0
 24 14  1  0  0  0  0
 25 26  1  6  0  0  0
 25 27  1  0  0  0  0
 25 24  1  0  0  0  0
 28 27  1  0  0  0  0
 29 10  1  0  0  0  0
 30 29  1  0  0  0  0
 31 30  1  0  0  0  0
 32 38  1  6  0  0  0
 32 31  1  0  0  0  0
 33 32  1  0  0  0  0
 33 34  1  0  0  0  0
 34 35  1  0  0  0  0
 35 36  1  0  0  0  0
 37 36  1  0  0  0  0
 39 38  1  0  0  0  0
 40 39  1  0  0  0  0
 41 42  1  6  0  0  0
 41 40  1  0  0  0  0
 43 41  1  0  0  0  0
 43 47  1  0  0  0  0
 44 43  1  0  0  0  0
 46 45  1  0  0  0  0
 46 44  1  0  0  0  0
 47 48  1  0  0  0  0
 48 49  1  0  0  0  0
M  END
>  <MODEL>
6

>  <REMARK>
 VINA RESULT:      -3.5      1.783      3.309
  Name = 
  28 active torsions:
  status: ('A' for Active; 'I' for Inactive)
    1  A    between atoms: O_1  and  C_19
    2  A    between atoms: O_1  and  C_27
    3  A    between atoms: C_3  and  C_5
    4  A    between atoms: C_3  and  N_39
    5  A    between atoms: C_4  and  O_34
    6  A    between atoms: C_4  and  C_47
    7  A    between atoms: C_5  and  C_18
    8  A    between atoms: C_6  and  C_33
    9  A    between atoms: C_6  and  C_44
   10  A    between atoms: C_8  and  N_24
   11  A    between atoms: C_9  and  C_33
   12  A    between atoms: C_12  and  C_21
   13  A    between atoms: C_17  and  C_19
   14  A    between atoms: C_17  and  O_36
   15  A    between atoms: C_18  and  C_37
   16  A    between atoms: C_19  and  C_37
   17  A    between atoms: C_21  and  N_39
   18  A    between atoms: C_22  and  C_25
   19  A    between atoms: C_22  and  N_43
   20  A    between atoms: C_23  and  O_36
   21  A    between atoms: C_23  and  C_42
   22  A    between atoms: N_24  and  C_27
   23  A    between atoms: C_25  and  O_46
   24  A    between atoms: C_32  and  C_40
   25  A    between atoms: O_34  and  C_44
   26  A    between atoms: N_39  and  C_40
   27  A    between atoms: C_44  and  C_49
   28  A    between atoms: O_46  and  C_49
                            x       y       z     vdW  Elec       q    Type
                         _______ _______ _______ _____ _____    ______ ____

>  <TORSDO>
F 28

$$$$
=
 OpenBabel11072411443D

 49 50  0  0  1  0  0  0  0  0999 V2000
  160.8390  203.4640  151.9430 C   0  0  0  0  0  2  0  0  0  0  0  0
  161.5980  206.2840  149.2850 S   0  0  0  0  0  0  0  0  0  0  0  0
  160.9100  206.3750  152.0750 C   0  0  2  0  0  3  0  0  0  0  0  0
  161.1720  204.2740  150.7270 C   0  0  0  0  0  0  0  0  0  0  0  0
  161.4350  203.7740  149.4430 C   0  0  0  0  0  0  0  0  0  0  0  0
  161.3940  202.3240  149.0980 C   0  0  0  0  0  1  0  0  0  0  0  0
  161.1240  205.5300  153.1890 O   0  0  0  0  0  0  0  0  0  0  0  0
  161.2710  205.6500  150.8100 C   0  0  0  0  0  0  0  0  0  0  0  0
  160.2910  204.3960  153.0420 C   0  0  0  0  0  2  0  0  0  0  0  0
  161.7040  204.7840  148.5190 C   0  0  0  0  0  0  0  0  0  0  0  0
  161.7520  207.6340  152.2210 C   0  0  0  0  0  2  0  0  0  0  0  0
  160.8850  208.8830  152.2130 C   0  0  2  0  0  3  0  0  0  0  0  0
  161.3680  209.8070  151.2830 O   0  0  0  0  0  1  0  0  0  0  0  0
  160.8130  209.4950  153.6210 C   0  0  2  0  0  3  0  0  0  0  0  0
  161.2790  210.9540  153.6910 C   0  0  0  0  0  2  0  0  0  0  0  0
  160.1810  211.7930  154.0200 O   0  0  0  0  0  0  0  0  0  0  0  0
  159.0940  211.9590  153.1600 C   0  0  0  0  0  0  0  0  0  0  0  0
  158.1570  211.1180  153.1300 O   0  0  0  0  0  0  0  0  0  0  0  0
  159.0570  213.1430  152.2570 C   0  0  0  0  0  2  0  0  0  0  0  0
  159.9820  213.3710  149.9120 C   0  0  0  0  0  0  0  0  0  0  0  0
  158.8740  213.7800  149.4710 O   0  0  0  0  0  0  0  0  0  0  0  0
  161.1330  213.2110  148.9820 C   0  0  0  0  0  1  0  0  0  0  0  0
  160.1530  213.0780  151.3020 N   0  0  0  0  0  2  0  0  0  0  0  0
  161.3350  208.6720  154.6500 O   0  0  0  0  0  0  0  0  0  0  0  0
  160.3270  208.3980  155.5950 C   0  0  1  0  0  3  0  0  0  0  0  0
  160.7030  207.3150  156.3910 O   0  0  0  0  0  1  0  0  0  0  0  0
  160.0600  209.6230  156.4670 C   0  0  0  0  0  2  0  0  0  0  0  0
  161.2940  210.0340  157.2530 C   0  0  0  0  0  1  0  0  0  0  0  0
  161.9770  204.5960  147.0660 C   0  0  0  0  0  2  0  0  0  0  0  0
  161.8210  205.8120  146.4000 O   0  0  0  0  0  0  0  0  0  0  0  0
  162.2440  205.5480  145.0970 C   0  0  0  0  0  2  0  0  0  0  0  0
  161.1640  205.9610  144.1120 C   0  0  2  0  0  3  0  0  0  0  0  0
  159.9660  205.3170  144.4380 O   0  0  0  0  0  0  0  0  0  0  0  0
  160.3290  204.0050  144.7450 C   0  0  0  0  0  2  0  0  0  0  0  0
  159.3580  203.0900  144.1730 N   0  0  0  0  0  2  0  0  0  0  0  0
  159.8240  201.7450  144.4670 C   0  0  0  0  0  2  0  0  0  0  0  0
  160.5790  201.7460  145.7830 C   0  0  0  0  0  1  0  0  0  0  0  0
  161.6000  205.5510  142.7140 C   0  0  0  0  0  2  0  0  0  0  0  0
  161.6870  206.7650  141.8040 C   0  0  0  0  0  2  0  0  0  0  0  0
  162.0440  206.3590  140.3760 C   0  0  0  0  0  2  0  0  0  0  0  0
  161.5740  207.4030  139.3580 C   0  0  2  0  0  3  0  0  0  0  0  0
  162.6170  207.4940  138.2490 C   0  0  0  0  0  1  0  0  0  0  0  0
  161.3920  208.7110  140.0060 N   0  0  0  0  0  0  0  0  0  0  0  0
  162.4220  209.6230  139.5120 C   0  0  0  0  0  2  0  0  0  0  0  0
  161.9720  211.2640  141.1670 O   0  0  0  0  0  1  0  0  0  0  0  0
  162.0170  211.0560  139.7910 C   0  0  0  0  0  2  0  0  0  0  0  0
  160.1300  209.2790  139.5470 C   0  0  0  0  0  2  0  0  0  0  0  0
  159.7370  208.6580  138.2210 C   0  0  0  0  0  2  0  0  0  0  0  0
  158.5470  209.4010  137.6560 C   0  0  0  0  0  1  0  0  0  0  0  0
  1  9  1  0  0  0  0
  2  8  1  0  0  0  0
  3 11  1  1  0  0  0
  3  7  1  0  0  0  0
  4  8  2  0  0  0  0
  4  1  1  0  0  0  0
  5  4  1  0  0  0  0
  6  5  1  0  0  0  0
  8  3  1  0  0  0  0
  9  7  1  0  0  0  0
 10  2  1  0  0  0  0
 10  5  2  0  0  0  0
 12 13  1  6  0  0  0
 12 11  1  0  0  0  0
 12 14  1  0  0  0  0
 14 15  1  6  0  0  0
 14 24  1  0  0  0  0
 15 16  1  0  0  0  0
 17 16  1  0  0  0  0
 18 17  2  0  0  0  0
 19 17  1  0  0  0  0
 20 23  1  0  0  0  0
 21 20  2  0  0  0  0
 22 20  1  0  0  0  0
 23 19  1  0  0  0  0
 24 25  1  0  0  0  0
 25 26  1  1  0  0  0
 25 27  1  0  0  0  0
 27 28  1  0  0  0  0
 29 10  1  0  0  0  0
 30 29  1  0  0  0  0
 31 30  1  0  0  0  0
 32 38  1  6  0  0  0
 32 33  1  0  0  0  0
 32 31  1  0  0  0  0
 33 34  1  0  0  0  0
 35 36  1  0  0  0  0
 35 34  1  0  0  0  0
 36 37  1  0  0  0  0
 39 38  1  0  0  0  0
 40 39  1  0  0  0  0
 41 42  1  6  0  0  0
 41 43  1  0  0  0  0
 41 40  1  0  0  0  0
 44 46  1  0  0  0  0
 44 43  1  0  0  0  0
 46 45  1  0  0  0  0
 47 43  1  0  0  0  0
 48 47  1  0  0  0  0
 49 48  1  0  0  0  0
M  END
>  <MODEL>
7

>  <REMARK>
 VINA RESULT:      -3.3      1.670      2.382
  Name = 
  28 active torsions:
  status: ('A' for Active; 'I' for Inactive)
    1  A    between atoms: O_1  and  C_19
    2  A    between atoms: O_1  and  C_27
    3  A    between atoms: C_3  and  C_5
    4  A    between atoms: C_3  and  N_39
    5  A    between atoms: C_4  and  O_34
    6  A    between atoms: C_4  and  C_47
    7  A    between atoms: C_5  and  C_18
    8  A    between atoms: C_6  and  C_33
    9  A    between atoms: C_6  and  C_44
   10  A    between atoms: C_8  and  N_24
   11  A    between atoms: C_9  and  C_33
   12  A    between atoms: C_12  and  C_21
   13  A    between atoms: C_17  and  C_19
   14  A    between atoms: C_17  and  O_36
   15  A    between atoms: C_18  and  C_37
   16  A    between atoms: C_19  and  C_37
   17  A    between atoms: C_21  and  N_39
   18  A    between atoms: C_22  and  C_25
   19  A    between atoms: C_22  and  N_43
   20  A    between atoms: C_23  and  O_36
   21  A    between atoms: C_23  and  C_42
   22  A    between atoms: N_24  and  C_27
   23  A    between atoms: C_25  and  O_46
   24  A    between atoms: C_32  and  C_40
   25  A    between atoms: O_34  and  C_44
   26  A    between atoms: N_39  and  C_40
   27  A    between atoms: C_44  and  C_49
   28  A    between atoms: O_46  and  C_49
                            x       y       z     vdW  Elec       q    Type
                         _______ _______ _______ _____ _____    ______ ____

>  <TORSDO>
F 28

$$$$
=
 OpenBabel11072411443D

 49 50  0  0  1  0  0  0  0  0999 V2000
  161.0640  200.9410  149.4100 C   0  0  0  0  0  2  0  0  0  0  0  0
  161.4950  204.8030  148.7100 S   0  0  0  0  0  0  0  0  0  0  0  0
  161.3940  202.5120  146.9770 C   0  0  2  0  0  3  0  0  0  0  0  0
  161.2030  202.4310  149.4790 C   0  0  0  0  0  0  0  0  0  0  0  0
  161.2330  203.2100  150.6450 C   0  0  0  0  0  0  0  0  0  0  0  0
  161.1500  202.6390  152.0210 C   0  0  0  0  0  1  0  0  0  0  0  0
  160.7580  201.2490  147.0200 O   0  0  0  0  0  0  0  0  0  0  0  0
  161.2910  203.1780  148.3190 C   0  0  0  0  0  0  0  0  0  0  0  0
  161.4210  200.4600  147.9900 C   0  0  0  0  0  2  0  0  0  0  0  0
  161.3820  204.5710  150.3780 C   0  0  0  0  0  0  0  0  0  0  0  0
  160.7420  203.3750  145.9080 C   0  0  0  0  0  2  0  0  0  0  0  0
  161.7740  203.9180  144.9310 C   0  0  2  0  0  3  0  0  0  0  0  0
  162.9810  204.1720  145.5880 O   0  0  0  0  0  1  0  0  0  0  0  0
  161.2410  205.1790  144.2340 C   0  0  2  0  0  3  0  0  0  0  0  0
  161.4820  205.2040  142.7200 C   0  0  0  0  0  2  0  0  0  0  0  0
  161.7660  206.5320  142.3010 O   0  0  0  0  0  0  0  0  0  0  0  0
  161.9570  206.8590  140.9580 C   0  0  0  0  0  0  0  0  0  0  0  0
  162.7270  206.1790  140.2290 O   0  0  0  0  0  0  0  0  0  0  0  0
  161.2470  208.0390  140.3890 C   0  0  0  0  0  2  0  0  0  0  0  0
  161.9650  210.4060  139.8550 C   0  0  0  0  0  0  0  0  0  0  0  0
  160.9240  210.8840  140.3810 O   0  0  0  0  0  0  0  0  0  0  0  0
  162.9640  211.3180  139.2350 C   0  0  0  0  0  1  0  0  0  0  0  0
  162.2090  208.9970  139.8650 N   0  0  0  0  0  2  0  0  0  0  0  0
  161.5580  206.3950  144.8900 O   0  0  0  0  0  0  0  0  0  0  0  0
  160.4460  206.8350  145.6360 C   0  0  1  0  0  3  0  0  0  0  0  0
  159.3940  205.9280  145.5000 O   0  0  0  0  0  1  0  0  0  0  0  0
  160.8180  206.9930  147.1090 C   0  0  0  0  0  2  0  0  0  0  0  0
  162.3190  206.9010  147.3240 C   0  0  0  0  0  1  0  0  0  0  0  0
  161.4950  205.6580  151.3910 C   0  0  0  0  0  2  0  0  0  0  0  0
  160.4770  206.5910  151.1900 O   0  0  0  0  0  0  0  0  0  0  0  0
  161.1500  207.7900  150.9540 C   0  0  0  0  0  2  0  0  0  0  0  0
  161.6020  208.3950  152.2720 C   0  0  2  0  0  3  0  0  0  0  0  0
  160.6720  208.0880  153.2680 O   0  0  0  0  0  0  0  0  0  0  0  0
  161.2280  208.5790  154.4510 C   0  0  0  0  0  2  0  0  0  0  0  0
  161.1800  207.5480  155.4710 N   0  0  0  0  0  2  0  0  0  0  0  0
  161.5000  208.1930  156.7350 C   0  0  0  0  0  2  0  0  0  0  0  0
  160.2750  208.9200  157.2580 C   0  0  0  0  0  1  0  0  0  0  0  0
  161.6950  209.9040  152.1070 C   0  0  0  0  0  2  0  0  0  0  0  0
  160.3250  210.5440  152.2520 C   0  0  0  0  0  2  0  0  0  0  0  0
  160.4420  212.0270  152.5920 C   0  0  0  0  0  2  0  0  0  0  0  0
  159.0920  212.7420  152.4730 C   0  0  2  0  0  3  0  0  0  0  0  0
  157.9940  211.7640  152.8800 C   0  0  0  0  0  1  0  0  0  0  0  0
  158.8790  213.2160  151.0970 N   0  0  0  0  0  0  0  0  0  0  0  0
  157.9130  214.3130  151.1250 C   0  0  0  0  0  2  0  0  0  0  0  0
  157.0950  213.0550  149.2870 O   0  0  0  0  0  1  0  0  0  0  0  0
  156.7140  213.9660  150.2680 C   0  0  0  0  0  2  0  0  0  0  0  0
  160.1200  213.8150  150.6200 C   0  0  0  0  0  2  0  0  0  0  0  0
  160.4470  213.2880  149.2370 C   0  0  0  0  0  2  0  0  0  0  0  0
  160.7110  214.4530  148.3090 C   0  0  0  0  0  1  0  0  0  0  0  0
  1  4  1  0  0  0  0
  2 10  1  0  0  0  0
  3 11  1  6  0  0  0
  3  7  1  0  0  0  0
  3  8  1  0  0  0  0
  4  5  1  0  0  0  0
  5  6  1  0  0  0  0
  7  9  1  0  0  0  0
  8  2  1  0  0  0  0
  8  4  2  0  0  0  0
  9  1  1  0  0  0  0
 10  5  2  0  0  0  0
 10 29  1  0  0  0  0
 12 13  1  1  0  0  0
 12 11  1  0  0  0  0
 14 15  1  6  0  0  0
 14 24  1  0  0  0  0
 14 12  1  0  0  0  0
 16 15  1  0  0  0  0
 17 16  1  0  0  0  0
 18 17  2  0  0  0  0
 19 17  1  0  0  0  0
 20 23  1  0  0  0  0
 20 21  2  0  0  0  0
 22 20  1  0  0  0  0
 23 19  1  0  0  0  0
 24 25  1  0  0  0  0
 25 26  1  1  0  0  0
 25 27  1  0  0  0  0
 27 28  1  0  0  0  0
 30 29  1  0  0  0  0
 31 30  1  0  0  0  0
 32 31  1  6  0  0  0
 32 33  1  0  0  0  0
 33 34  1  0  0  0  0
 34 35  1  0  0  0  0
 35 36  1  0  0  0  0
 36 37  1  0  0  0  0
 38 39  1  0  0  0  0
 38 32  1  0  0  0  0
 39 40  1  0  0  0  0
 41 40  1  0  0  0  0
 41 42  1  6  0  0  0
 43 44  1  0  0  0  0
 43 41  1  0  0  0  0
 45 46  1  0  0  0  0
 46 44  1  0  0  0  0
 47 43  1  0  0  0  0
 48 47  1  0  0  0  0
 49 48  1  0  0  0  0
M  END
>  <MODEL>
8

>  <REMARK>
 VINA RESULT:      -3.1      2.550     10.141
  Name = 
  28 active torsions:
  status: ('A' for Active; 'I' for Inactive)
    1  A    between atoms: O_1  and  C_19
    2  A    between atoms: O_1  and  C_27
    3  A    between atoms: C_3  and  C_5
    4  A    between atoms: C_3  and  N_39
    5  A    between atoms: C_4  and  O_34
    6  A    between atoms: C_4  and  C_47
    7  A    between atoms: C_5  and  C_18
    8  A    between atoms: C_6  and  C_33
    9  A    between atoms: C_6  and  C_44
   10  A    between atoms: C_8  and  N_24
   11  A    between atoms: C_9  and  C_33
   12  A    between atoms: C_12  and  C_21
   13  A    between atoms: C_17  and  C_19
   14  A    between atoms: C_17  and  O_36
   15  A    between atoms: C_18  and  C_37
   16  A    between atoms: C_19  and  C_37
   17  A    between atoms: C_21  and  N_39
   18  A    between atoms: C_22  and  C_25
   19  A    between atoms: C_22  and  N_43
   20  A    between atoms: C_23  and  O_36
   21  A    between atoms: C_23  and  C_42
   22  A    between atoms: N_24  and  C_27
   23  A    between atoms: C_25  and  O_46
   24  A    between atoms: C_32  and  C_40
   25  A    between atoms: O_34  and  C_44
   26  A    between atoms: N_39  and  C_40
   27  A    between atoms: C_44  and  C_49
   28  A    between atoms: O_46  and  C_49
                            x       y       z     vdW  Elec       q    Type
                         _______ _______ _______ _____ _____    ______ ____

>  <TORSDO>
F 28

$$$$
=
 OpenBabel11072411443D

 49 50  0  0  1  0  0  0  0  0999 V2000
  160.9130  201.0100  149.4710 C   0  0  0  0  0  2  0  0  0  0  0  0
  161.6140  204.8040  148.6290 S   0  0  0  0  0  0  0  0  0  0  0  0
  161.2880  202.4730  146.9780 C   0  0  2  0  0  3  0  0  0  0  0  0
  161.1660  202.4870  149.4850 C   0  0  0  0  0  0  0  0  0  0  0  0
  161.2890  203.2970  150.6230 C   0  0  0  0  0  0  0  0  0  0  0  0
  161.2050  202.7790  152.0190 C   0  0  0  0  0  1  0  0  0  0  0  0
  160.5600  201.2640  147.0820 O   0  0  0  0  0  0  0  0  0  0  0  0
  161.2760  203.1880  148.2990 C   0  0  0  0  0  0  0  0  0  0  0  0
  161.1900  200.4580  148.0590 C   0  0  0  0  0  2  0  0  0  0  0  0
  161.5330  204.6340  150.3060 C   0  0  0  0  0  0  0  0  0  0  0  0
  160.6720  203.3490  145.8980 C   0  0  0  0  0  2  0  0  0  0  0  0
  161.7260  203.8450  144.9200 C   0  0  2  0  0  3  0  0  0  0  0  0
  162.9380  204.0660  145.5800 O   0  0  0  0  0  1  0  0  0  0  0  0
  161.2390  205.1160  144.2060 C   0  0  2  0  0  3  0  0  0  0  0  0
  161.4850  205.1130  142.6930 C   0  0  0  0  0  2  0  0  0  0  0  0
  161.9060  206.4040  142.2730 O   0  0  0  0  0  0  0  0  0  0  0  0
  162.0180  206.7410  140.9230 C   0  0  0  0  0  0  0  0  0  0  0  0
  162.7480  206.0710  140.1460 O   0  0  0  0  0  0  0  0  0  0  0  0
  161.2730  207.9230  140.4060 C   0  0  0  0  0  2  0  0  0  0  0  0
  161.8510  210.1440  139.3390 C   0  0  0  0  0  0  0  0  0  0  0  0
  160.6960  210.2530  138.8440 O   0  0  0  0  0  0  0  0  0  0  0  0
  162.8670  211.1990  139.0780 C   0  0  0  0  0  1  0  0  0  0  0  0
  162.1900  209.0270  140.1650 N   0  0  0  0  0  2  0  0  0  0  0  0
  161.5980  206.3270  144.8470 O   0  0  0  0  0  0  0  0  0  0  0  0
  160.5020  206.8140  145.5880 C   0  0  1  0  0  3  0  0  0  0  0  0
  159.3470  206.1070  145.2490 O   0  0  0  0  0  1  0  0  0  0  0  0
  160.7710  206.6940  147.0870 C   0  0  0  0  0  2  0  0  0  0  0  0
  162.0320  207.4370  147.4940 C   0  0  0  0  0  1  0  0  0  0  0  0
  161.7580  205.7410  151.2780 C   0  0  0  0  0  2  0  0  0  0  0  0
  160.5750  206.4610  151.4470 O   0  0  0  0  0  0  0  0  0  0  0  0
  160.9860  207.7930  151.4950 C   0  0  0  0  0  2  0  0  0  0  0  0
  161.2250  208.2070  152.9370 C   0  0  2  0  0  3  0  0  0  0  0  0
  160.2090  207.6900  153.7440 O   0  0  0  0  0  0  0  0  0  0  0  0
  160.8580  207.1970  154.8780 C   0  0  0  0  0  2  0  0  0  0  0  0
  159.9650  207.2780  156.0190 N   0  0  0  0  0  2  0  0  0  0  0  0
  160.7840  207.6220  157.1700 C   0  0  0  0  0  2  0  0  0  0  0  0
  161.9050  208.5470  156.7370 C   0  0  0  0  0  1  0  0  0  0  0  0
  161.2170  209.7250  153.0140 C   0  0  0  0  0  2  0  0  0  0  0  0
  160.2160  210.2040  154.0520 C   0  0  0  0  0  2  0  0  0  0  0  0
  160.4570  211.6650  154.4190 C   0  0  0  0  0  2  0  0  0  0  0  0
  159.4000  212.1840  155.3990 C   0  0  2  0  0  3  0  0  0  0  0  0
  159.1810  211.1220  156.4730 C   0  0  0  0  0  1  0  0  0  0  0  0
  158.1420  212.4750  154.6950 N   0  0  0  0  0  0  0  0  0  0  0  0
  158.4600  213.0560  153.3920 C   0  0  0  0  0  2  0  0  0  0  0  0
  156.8030  214.3580  152.3010 O   0  0  0  0  0  1  0  0  0  0  0  0
  157.8080  214.4170  153.2620 C   0  0  0  0  0  2  0  0  0  0  0  0
  157.4800  211.2110  154.3960 C   0  0  0  0  0  2  0  0  0  0  0  0
  155.9760  211.4010  154.4160 C   0  0  0  0  0  2  0  0  0  0  0  0
  155.3170  210.1150  154.8600 C   0  0  0  0  0  1  0  0  0  0  0  0
  1  4  1  0  0  0  0
  2 10  1  0  0  0  0
  3 11  1  6  0  0  0
  3  7  1  0  0  0  0
  3  8  1  0  0  0  0
  4  5  1  0  0  0  0
  5  6  1  0  0  0  0
  7  9  1  0  0  0  0
  8  2  1  0  0  0  0
  8  4  2  0  0  0  0
  9  1  1  0  0  0  0
 10  5  2  0  0  0  0
 10 29  1  0  0  0  0
 12 13  1  1  0  0  0
 12 11  1  0  0  0  0
 14 15  1  6  0  0  0
 14 24  1  0  0  0  0
 14 12  1  0  0  0  0
 16 15  1  0  0  0  0
 17 16  1  0  0  0  0
 18 17  2  0  0  0  0
 19 17  1  0  0  0  0
 20 23  1  0  0  0  0
 21 20  2  0  0  0  0
 22 20  1  0  0  0  0
 23 19  1  0  0  0  0
 24 25  1  0  0  0  0
 25 26  1  6  0  0  0
 25 27  1  0  0  0  0
 27 28  1  0  0  0  0
 29 30  1  0  0  0  0
 30 31  1  0  0  0  0
 32 31  1  6  0  0  0
 32 38  1  0  0  0  0
 32 33  1  0  0  0  0
 33 34  1  0  0  0  0
 34 35  1  0  0  0  0
 35 36  1  0  0  0  0
 37 36  1  0  0  0  0
 38 39  1  0  0  0  0
 39 40  1  0  0  0  0
 40 41  1  0  0  0  0
 41 42  1  1  0  0  0
 43 41  1  0  0  0  0
 44 43  1  0  0  0  0
 45 46  1  0  0  0  0
 46 44  1  0  0  0  0
 47 48  1  0  0  0  0
 47 43  1  0  0  0  0
 48 49  1  0  0  0  0
M  END
>  <MODEL>
9

>  <REMARK>
 VINA RESULT:      -3.0      2.853     11.166
  Name = 
  28 active torsions:
  status: ('A' for Active; 'I' for Inactive)
    1  A    between atoms: O_1  and  C_19
    2  A    between atoms: O_1  and  C_27
    3  A    between atoms: C_3  and  C_5
    4  A    between atoms: C_3  and  N_39
    5  A    between atoms: C_4  and  O_34
    6  A    between atoms: C_4  and  C_47
    7  A    between atoms: C_5  and  C_18
    8  A    between atoms: C_6  and  C_33
    9  A    between atoms: C_6  and  C_44
   10  A    between atoms: C_8  and  N_24
   11  A    between atoms: C_9  and  C_33
   12  A    between atoms: C_12  and  C_21
   13  A    between atoms: C_17  and  C_19
   14  A    between atoms: C_17  and  O_36
   15  A    between atoms: C_18  and  C_37
   16  A    between atoms: C_19  and  C_37
   17  A    between atoms: C_21  and  N_39
   18  A    between atoms: C_22  and  C_25
   19  A    between atoms: C_22  and  N_43
   20  A    between atoms: C_23  and  O_36
   21  A    between atoms: C_23  and  C_42
   22  A    between atoms: N_24  and  C_27
   23  A    between atoms: C_25  and  O_46
   24  A    between atoms: C_32  and  C_40
   25  A    between atoms: O_34  and  C_44
   26  A    between atoms: N_39  and  C_40
   27  A    between atoms: C_44  and  C_49
   28  A    between atoms: O_46  and  C_49
                            x       y       z     vdW  Elec       q    Type
                         _______ _______ _______ _____ _____    ______ ____

>  <TORSDO>
F 28

$$$$
