=
 OpenBabel11072409563D

 48 54  0  0  1  0  0  0  0  0999 V2000
  162.5230  209.4970  149.9970 C   0  0  2  0  0  3  0  0  0  0  0  0
  162.1640  210.3610  152.2210 O   0  0  0  0  0  0  0  0  0  0  0  0
  159.5160  213.1220  150.4130 O   0  0  0  0  0  0  0  0  0  0  0  0
  161.1160  211.4250  150.3940 N   0  0  0  0  0  0  0  0  0  0  0  0
  161.9260  210.4240  150.9860 C   0  0  1  0  0  3  0  0  0  0  0  0
  160.2570  212.3490  151.0800 C   0  0  0  0  0  0  0  0  0  0  0  0
  161.1690  211.2980  148.9510 C   0  0  0  0  0  3  0  0  0  0  0  0
  162.1760  210.1760  148.6620 C   0  0  0  0  0  3  0  0  0  0  0  0
  157.8110  212.8610  153.1510 C   0  0  0  0  0  2  0  0  0  0  0  0
  160.7590  211.1110  154.5590 C   0  0  2  0  0  3  0  0  0  0  0  0
  159.2540  211.3660  154.5520 C   0  0  1  0  0  3  0  0  0  0  0  0
  157.4560  214.1110  156.0720 C   0  0  0  0  0  1  0  0  0  0  0  0
  160.2060  212.3810  152.5780 C   0  0  2  0  0  3  0  0  0  0  0  0
  158.9660  212.3850  155.4900 O   0  0  0  0  0  0  0  0  0  0  0  0
  156.8920  212.5100  154.2270 N   0  0  0  0  0  0  0  0  0  0  0  0
  157.5710  212.6820  155.5450 C   0  0  0  0  0  0  0  0  0  0  0  0
  156.9120  211.7630  156.5610 C   0  0  0  0  0  1  0  0  0  0  0  0
  161.2840  211.5090  153.1830 C   0  0  2  0  0  3  0  0  0  0  0  0
  158.9180  211.8200  153.1310 C   0  0  2  0  0  3  0  0  0  0  0  0
  155.6830  213.3150  154.0800 C   0  0  0  0  0  1  0  0  0  0  0  0
  160.2040  207.9840  156.4230 C   0  0  0  0  0  2  0  0  0  0  0  0
  159.8250  209.1350  155.4620 C   0  0  2  0  0  3  0  0  0  0  0  0
  160.0450  208.9440  154.0080 C   0  0  1  0  0  3  0  0  0  0  0  0
  161.1810  205.0070  153.8390 Cl  0  0  0  0  0  0  0  0  0  0  0  0
  161.0220  209.7020  154.8190 N   0  0  1  0  0  0  0  0  0  0  0  0
  160.4060  206.4790  154.4660 C   0  0  2  0  0  3  0  0  0  0  0  0
  160.6980  207.6390  153.5390 C   0  0  0  0  0  2  0  0  0  0  0  0
  160.9920  206.8260  155.8130 C   0  0  0  0  0  2  0  0  0  0  0  0
  161.9160  208.0780  150.0930 C   0  0  0  0  0  0  0  0  0  0  0  0
  162.7400  207.2780  150.8700 F   0  0  0  0  0  0  0  0  0  0  0  0
  160.6670  208.1240  150.6960 F   0  0  0  0  0  0  0  0  0  0  0  0
  163.0860  207.0610  148.2410 O   0  0  0  0  0  1  0  0  0  0  0  0
  161.8150  207.4160  148.7090 C   0  0  1  0  0  3  0  0  0  0  0  0
  160.8520  206.2230  148.6370 C   0  0  2  0  0  3  0  0  0  0  0  0
  159.6000  206.4050  149.4970 C   0  0  0  0  0  1  0  0  0  0  0  0
  160.9780  202.6210  148.9520 O   0  0  0  0  0  0  0  0  0  0  0  0
  160.9600  203.7580  148.1230 C   0  0  1  0  0  3  0  0  0  0  0  0
  161.5910  204.9040  148.8890 C   0  0  2  0  0  3  0  0  0  0  0  0
  161.5640  204.4600  150.3250 C   0  0  0  0  0  2  0  0  0  0  0  0
  160.8830  203.1110  150.2640 C   0  0  0  0  0  2  0  0  0  0  0  0
  161.7410  203.4940  146.8350 C   0  0  1  0  0  3  0  0  0  0  0  0
  159.8690  201.0430  144.8600 O   0  0  0  0  0  0  0  0  0  0  0  0
  160.8720  202.9040  145.8250 N   0  0  0  0  0  2  0  0  0  0  0  0
  161.3040  200.6000  146.6310 N   0  0  0  0  0  1  0  0  0  0  0  0
  160.6470  201.4970  145.7390 C   0  0  0  0  0  0  0  0  0  0  0  0
  162.2750  204.6890  146.3430 O   0  0  0  0  0  0  0  0  0  0  0  0
  161.6930  204.8440  145.0830 C   0  0  0  0  0  2  0  0  0  0  0  0
  160.7750  206.0510  145.0920 C   0  0  0  0  0  1  0  0  0  0  0  0
  1 29  1  6  0  0  0
  1  5  1  0  0  0  0
  3  6  2  0  0  0  0
  4  5  1  0  0  0  0
  4  6  1  0  0  0  0
  5  2  1  6  0  0  0
  7  4  1  0  0  0  0
  8  7  2  0  0  0  0
  8  1  1  0  0  0  0
  9 15  1  0  0  0  0
 10 25  1  6  0  0  0
 11 10  1  0  0  0  0
 11 14  1  1  0  0  0
 13  6  1  6  0  0  0
 13 19  1  0  0  0  0
 13 18  1  0  0  0  0
 14 16  1  0  0  0  0
 15 16  1  0  0  0  0
 16 12  1  0  0  0  0
 16 17  1  0  0  0  0
 18  2  1  6  0  0  0
 18 10  1  0  0  0  0
 19  9  1  1  0  0  0
 19 11  1  0  0  0  0
 20 15  1  0  0  0  0
 22 21  1  1  0  0  0
 23 27  1  1  0  0  0
 23 25  1  0  0  0  0
 23 22  1  0  0  0  0
 24 26  1  0  0  0  0
 25 22  1  0  0  0  0
 26 28  1  0  0  0  0
 27 26  1  0  0  0  0
 28 21  1  0  0  0  0
 29 31  1  0  0  0  0
 29 30  1  0  0  0  0
 32 33  1  0  0  0  0
 33 29  1  0  0  0  0
 34 33  1  0  0  0  0
 34 38  1  0  0  0  0
 34 35  1  0  0  0  0
 36 40  1  0  0  0  0
 37 38  1  0  0  0  0
 37 36  1  0  0  0  0
 38 39  1  0  0  0  0
 40 39  1  0  0  0  0
 41 37  1  0  0  0  0
 42 45  2  0  0  0  0
 43 41  1  0  0  0  0
 45 43  1  0  0  0  0
 45 44  1  0  0  0  0
 46 41  1  0  0  0  0
 47 48  1  0  0  0  0
 47 46  1  0  0  0  0
M  END
>  <MODEL>
1

>  <REMARK>
 VINA RESULT:      -5.0      0.000      0.000
  Name = 
  10 active torsions:
  status: ('A' for Active; 'I' for Inactive)
    1  A    between atoms: C_1  and  C_7
    2  A    between atoms: C_4  and  C_27
    3  A    between atoms: C_4  and  C_33
    4  A    between atoms: C_5  and  N_30
    5  A    between atoms: C_7  and  C_33
    6  A    between atoms: C_10  and  C_34
    7  A    between atoms: C_16  and  C_41
    8  A    between atoms: O_20  and  C_22
    9  A    between atoms: O_20  and  C_41
   10  A    between atoms: N_24  and  C_41
                            x       y       z     vdW  Elec       q    Type
                         _______ _______ _______ _____ _____    ______ ____

>  <TORSDO>
F 10

$$$$
=
 OpenBabel11072409563D

 48 53  0  0  1  0  0  0  0  0999 V2000
  161.5810  208.0100  154.0510 C   0  0  2  0  0  3  0  0  0  0  0  0
  162.6870  207.9980  151.9060 O   0  0  0  0  0  0  0  0  0  0  0  0
  160.4190  204.5250  151.0740 O   0  0  0  0  0  0  0  0  0  0  0  0
  161.2080  206.2390  152.4430 N   0  0  0  0  0  0  0  0  0  0  0  0
  161.8770  207.4620  152.7070 C   0  0  0  0  0  0  0  0  0  0  0  0
  161.1360  205.5570  151.1830 C   0  0  0  0  0  0  0  0  0  0  0  0
  160.4710  205.8290  153.6230 C   0  0  0  0  0  3  0  0  0  0  0  0
  160.8100  206.8550  154.7120 C   0  0  0  0  0  3  0  0  0  0  0  0
  161.1350  204.6350  148.0700 C   0  0  0  0  0  2  0  0  0  0  0  0
  162.3360  208.0810  148.7180 C   0  0  2  0  0  3  0  0  0  0  0  0
  161.6560  207.0710  147.7970 C   0  0  1  0  0  3  0  0  0  0  0  0
  163.2190  204.6190  145.6460 C   0  0  0  0  0  1  0  0  0  0  0  0
  161.8760  206.0760  149.9860 C   0  0  2  0  0  3  0  0  0  0  0  0
  162.6360  206.5100  146.9450 O   0  0  0  0  0  0  0  0  0  0  0  0
  160.9250  204.8090  146.6390 N   0  0  0  0  0  0  0  0  0  0  0  0
  162.0770  205.5510  146.0470 C   0  0  0  0  0  0  0  0  0  0  0  0
  161.6070  206.2680  144.7910 C   0  0  0  0  0  1  0  0  0  0  0  0
  162.2070  207.5450  150.1400 C   0  0  0  0  0  2  0  0  0  0  0  0
  161.0590  206.0070  148.7190 C   0  0  2  0  0  3  0  0  0  0  0  0
  160.7060  203.4940  146.0430 C   0  0  0  0  0  1  0  0  0  0  0  0
  161.0740  211.2350  150.1400 C   0  0  0  0  0  2  0  0  0  0  0  0
  162.1600  210.2220  149.7070 C   0  0  2  0  0  3  0  0  0  0  0  0
  162.7590  210.3620  148.3580 C   0  0  1  0  0  3  0  0  0  0  0  0
  161.1160  213.8900  147.0660 Cl  0  0  0  0  0  0  0  0  0  0  0  0
  161.6820  209.3780  148.5990 N   0  0  1  0  0  0  0  0  0  0  0  0
  161.6940  212.6550  148.2070 C   0  0  2  0  0  3  0  0  0  0  0  0
  162.2250  211.4640  147.4370 C   0  0  0  0  0  2  0  0  0  0  0  0
  160.5420  212.1630  149.0490 C   0  0  0  0  0  2  0  0  0  0  0  0
  160.7300  209.2980  153.9750 C   0  0  0  0  0  0  0  0  0  0  0  0
  161.4730  210.3040  153.3760 F   0  0  0  0  0  0  0  0  0  0  0  0
  159.5930  209.0870  153.2080 F   0  0  0  0  0  0  0  0  0  0  0  0
  160.6490  208.8340  156.3450 O   0  0  0  0  0  1  0  0  0  0  0  0
  160.3410  209.7970  155.3770 C   0  0  1  0  0  3  0  0  0  0  0  0
  160.9280  211.1630  155.7580 C   0  0  2  0  0  3  0  0  0  0  0  0
  162.1350  211.0630  156.6910 C   0  0  0  0  0  1  0  0  0  0  0  0
  159.0310  214.2410  155.6190 O   0  0  0  0  0  0  0  0  0  0  0  0
  159.2540  212.9400  155.1300 C   0  0  1  0  0  3  0  0  0  0  0  0
  159.8320  212.1110  156.2600 C   0  0  2  0  0  3  0  0  0  0  0  0
  160.3180  213.1220  157.2610 C   0  0  0  0  0  2  0  0  0  0  0  0
  160.0110  214.4470  156.6010 C   0  0  0  0  0  2  0  0  0  0  0  0
  157.9440  212.3200  154.6420 C   0  0  1  0  0  3  0  0  0  0  0  0
  155.1580  211.4200  156.8430 O   0  0  0  0  0  0  0  0  0  0  0  0
  156.9310  212.3810  155.6880 N   0  0  0  0  0  2  0  0  0  0  0  0
  156.0010  210.1640  155.0810 N   0  0  0  0  0  1  0  0  0  0  0  0
  155.9980  211.3240  155.9110 C   0  0  0  0  0  0  0  0  0  0  0  0
  157.4810  213.0020  153.5120 O   0  0  0  0  0  0  0  0  0  0  0  0
  158.2700  212.5260  152.4640 C   0  0  0  0  0  2  0  0  0  0  0  0
  158.0230  213.3600  151.2220 C   0  0  0  0  0  1  0  0  0  0  0  0
  1 29  1  6  0  0  0
  1  8  1  0  0  0  0
  2  5  2  0  0  0  0
  3  6  2  0  0  0  0
  4  5  1  0  0  0  0
  4  7  1  0  0  0  0
  5  1  1  0  0  0  0
  6  4  1  0  0  0  0
  7  8  2  0  0  0  0
 10 18  1  1  0  0  0
 11 14  1  6  0  0  0
 11 10  1  0  0  0  0
 11 19  1  0  0  0  0
 12 16  1  0  0  0  0
 13 18  1  0  0  0  0
 13  6  1  1  0  0  0
 15  9  1  0  0  0  0
 16 15  1  0  0  0  0
 16 14  1  0  0  0  0
 17 16  1  0  0  0  0
 19  9  1  6  0  0  0
 19 13  1  0  0  0  0
 20 15  1  0  0  0  0
 22 21  1  6  0  0  0
 23 27  1  6  0  0  0
 23 25  1  0  0  0  0
 23 22  1  0  0  0  0
 25 10  1  1  0  0  0
 25 22  1  0  0  0  0
 26 24  1  6  0  0  0
 26 28  1  0  0  0  0
 27 26  1  0  0  0  0
 28 21  1  0  0  0  0
 29 33  1  0  0  0  0
 30 29  1  0  0  0  0
 31 29  1  0  0  0  0
 33 34  1  0  0  0  0
 33 32  1  1  0  0  0
 34 35  1  1  0  0  0
 36 40  1  0  0  0  0
 37 41  1  1  0  0  0
 37 36  1  0  0  0  0
 37 38  1  0  0  0  0
 38 34  1  6  0  0  0
 38 39  1  0  0  0  0
 40 39  1  0  0  0  0
 41 46  1  6  0  0  0
 41 43  1  0  0  0  0
 43 45  1  0  0  0  0
 44 45  1  0  0  0  0
 45 42  2  0  0  0  0
 47 46  1  0  0  0  0
 48 47  1  0  0  0  0
M  END
>  <MODEL>
2

>  <REMARK>
 VINA RESULT:      -4.6      2.693      9.822
  Name = 
  10 active torsions:
  status: ('A' for Active; 'I' for Inactive)
    1  A    between atoms: C_1  and  C_7
    2  A    between atoms: C_4  and  C_27
    3  A    between atoms: C_4  and  C_33
    4  A    between atoms: C_5  and  N_30
    5  A    between atoms: C_7  and  C_33
    6  A    between atoms: C_10  and  C_34
    7  A    between atoms: C_16  and  C_41
    8  A    between atoms: O_20  and  C_22
    9  A    between atoms: O_20  and  C_41
   10  A    between atoms: N_24  and  C_41
                            x       y       z     vdW  Elec       q    Type
                         _______ _______ _______ _____ _____    ______ ____

>  <TORSDO>
F 10

$$$$
=
 OpenBabel11072409563D

 48 54  0  0  1  0  0  0  0  0999 V2000
  162.4060  209.4500  149.8970 C   0  0  2  0  0  3  0  0  0  0  0  0
  162.1290  210.3330  152.1260 O   0  0  0  0  0  0  0  0  0  0  0  0
  159.4500  213.1080  150.3890 O   0  0  0  0  0  0  0  0  0  0  0  0
  161.0310  211.3950  150.3280 N   0  0  0  0  0  0  0  0  0  0  0  0
  161.8510  210.3890  150.9000 C   0  0  1  0  0  3  0  0  0  0  0  0
  160.2050  212.3320  151.0360 C   0  0  0  0  0  0  0  0  0  0  0  0
  161.0350  211.2580  148.8850 C   0  0  0  0  0  3  0  0  0  0  0  0
  162.0210  210.1240  148.5710 C   0  0  0  0  0  3  0  0  0  0  0  0
  157.8400  212.9090  153.1830 C   0  0  0  0  0  2  0  0  0  0  0  0
  160.7960  211.1050  154.5050 C   0  0  2  0  0  3  0  0  0  0  0  0
  159.2970  211.3920  154.5450 C   0  0  1  0  0  3  0  0  0  0  0  0
  157.6090  214.1850  156.1050 C   0  0  0  0  0  1  0  0  0  0  0  0
  160.2050  212.3740  152.5350 C   0  0  2  0  0  3  0  0  0  0  0  0
  159.0620  212.4230  155.4860 O   0  0  0  0  0  0  0  0  0  0  0  0
  156.9510  212.5850  154.2910 N   0  0  0  0  0  0  0  0  0  0  0  0
  157.6770  212.7500  155.5840 C   0  0  0  0  0  0  0  0  0  0  0  0
  157.0320  211.8520  156.6280 C   0  0  0  0  0  1  0  0  0  0  0  0
  161.2840  211.4830  153.1100 C   0  0  2  0  0  3  0  0  0  0  0  0
  158.9230  211.8440  153.1340 C   0  0  2  0  0  3  0  0  0  0  0  0
  155.7550  213.4150  154.1790 C   0  0  0  0  0  1  0  0  0  0  0  0
  160.1380  207.9690  156.3200 C   0  0  0  0  0  2  0  0  0  0  0  0
  159.8090  209.1300  155.3520 C   0  0  2  0  0  3  0  0  0  0  0  0
  160.0920  208.9470  153.9080 C   0  0  1  0  0  3  0  0  0  0  0  0
  161.2060  205.0030  153.7590 Cl  0  0  0  0  0  0  0  0  0  0  0  0
  161.0370  209.6920  154.7660 N   0  0  1  0  0  0  0  0  0  0  0  0
  160.4150  206.4760  154.3630 C   0  0  2  0  0  3  0  0  0  0  0  0
  160.7550  207.6410  153.4570 C   0  0  0  0  0  2  0  0  0  0  0  0
  160.9440  206.8100  155.7360 C   0  0  0  0  0  2  0  0  0  0  0  0
  161.7890  208.0390  150.0240 C   0  0  0  0  0  0  0  0  0  0  0  0
  162.5780  207.2660  150.8620 F   0  0  0  0  0  0  0  0  0  0  0  0
  160.5170  208.1110  150.5760 F   0  0  0  0  0  0  0  0  0  0  0  0
  163.0230  206.9280  148.2680 O   0  0  0  0  0  1  0  0  0  0  0  0
  161.7390  207.3240  148.6630 C   0  0  1  0  0  3  0  0  0  0  0  0
  160.7570  206.1470  148.5920 C   0  0  2  0  0  3  0  0  0  0  0  0
  160.8830  205.1840  149.7730 C   0  0  0  0  0  1  0  0  0  0  0  0
  162.5470  204.5990  145.8550 O   0  0  0  0  0  0  0  0  0  0  0  0
  161.9840  204.4920  147.1410 C   0  0  1  0  0  3  0  0  0  0  0  0
  160.8210  205.4600  147.2230 C   0  0  2  0  0  3  0  0  0  0  0  0
  161.0380  206.4100  146.0790 C   0  0  0  0  0  2  0  0  0  0  0  0
  162.3310  205.9270  145.4600 C   0  0  0  0  0  2  0  0  0  0  0  0
  161.4970  203.0640  147.3950 C   0  0  1  0  0  3  0  0  0  0  0  0
  160.8930  201.5350  150.6690 O   0  0  0  0  0  0  0  0  0  0  0  0
  161.1370  202.8920  148.7970 N   0  0  0  0  0  2  0  0  0  0  0  0
  161.5800  200.4530  148.7330 N   0  0  0  0  0  1  0  0  0  0  0  0
  161.1950  201.6230  149.4500 C   0  0  0  0  0  0  0  0  0  0  0  0
  160.3840  202.7860  146.5960 O   0  0  0  0  0  0  0  0  0  0  0  0
  160.8390  201.8470  145.6690 C   0  0  0  0  0  2  0  0  0  0  0  0
  159.6650  201.2990  144.8820 C   0  0  0  0  0  1  0  0  0  0  0  0
  1 29  1  6  0  0  0
  1  5  1  0  0  0  0
  3  6  2  0  0  0  0
  4  5  1  0  0  0  0
  4  6  1  0  0  0  0
  5  2  1  6  0  0  0
  7  4  1  0  0  0  0
  8  7  2  0  0  0  0
  8  1  1  0  0  0  0
  9 15  1  0  0  0  0
 10 11  1  0  0  0  0
 10 25  1  6  0  0  0
 11 14  1  1  0  0  0
 13  6  1  6  0  0  0
 13 18  1  0  0  0  0
 13 19  1  0  0  0  0
 14 16  1  0  0  0  0
 15 16  1  0  0  0  0
 16 12  1  0  0  0  0
 16 17  1  0  0  0  0
 18  2  1  6  0  0  0
 18 10  1  0  0  0  0
 19  9  1  1  0  0  0
 19 11  1  0  0  0  0
 20 15  1  0  0  0  0
 22 21  1  1  0  0  0
 23 27  1  1  0  0  0
 23 25  1  0  0  0  0
 23 22  1  0  0  0  0
 24 26  1  0  0  0  0
 25 22  1  0  0  0  0
 26 28  1  0  0  0  0
 27 26  1  0  0  0  0
 28 21  1  0  0  0  0
 29 31  1  0  0  0  0
 29 30  1  0  0  0  0
 32 33  1  0  0  0  0
 33 29  1  0  0  0  0
 34 33  1  0  0  0  0
 34 35  1  0  0  0  0
 36 37  1  0  0  0  0
 37 38  1  0  0  0  0
 37 41  1  0  0  0  0
 38 34  1  0  0  0  0
 39 38  1  0  0  0  0
 40 36  1  0  0  0  0
 40 39  1  0  0  0  0
 41 43  1  0  0  0  0
 43 45  1  0  0  0  0
 44 45  1  0  0  0  0
 45 42  2  0  0  0  0
 46 41  1  0  0  0  0
 47 46  1  0  0  0  0
 48 47  1  0  0  0  0
M  END
>  <MODEL>
3

>  <REMARK>
 VINA RESULT:      -4.3      0.886      1.965
  Name = 
  10 active torsions:
  status: ('A' for Active; 'I' for Inactive)
    1  A    between atoms: C_1  and  C_7
    2  A    between atoms: C_4  and  C_27
    3  A    between atoms: C_4  and  C_33
    4  A    between atoms: C_5  and  N_30
    5  A    between atoms: C_7  and  C_33
    6  A    between atoms: C_10  and  C_34
    7  A    between atoms: C_16  and  C_41
    8  A    between atoms: O_20  and  C_22
    9  A    between atoms: O_20  and  C_41
   10  A    between atoms: N_24  and  C_41
                            x       y       z     vdW  Elec       q    Type
                         _______ _______ _______ _____ _____    ______ ____

>  <TORSDO>
F 10

$$$$
=
 OpenBabel11072409563D

 48 53  0  0  1  0  0  0  0  0999 V2000
  162.1110  209.2580  150.6330 C   0  0  2  0  0  3  0  0  0  0  0  0
  161.5260  210.3680  152.6940 O   0  0  0  0  0  0  0  0  0  0  0  0
  160.0450  213.4950  150.2590 O   0  0  0  0  0  0  0  0  0  0  0  0
  161.1580  211.4830  150.6480 N   0  0  0  0  0  0  0  0  0  0  0  0
  161.5660  210.3780  151.4360 C   0  0  0  0  0  0  0  0  0  0  0  0
  160.4260  212.6330  151.0980 C   0  0  0  0  0  0  0  0  0  0  0  0
  161.4720  211.2250  149.2560 C   0  0  0  0  0  3  0  0  0  0  0  0
  162.2160  209.8830  149.2320 C   0  0  0  0  0  3  0  0  0  0  0  0
  157.5780  212.9730  152.6180 C   0  0  0  0  0  2  0  0  0  0  0  0
  160.3960  211.8300  154.7360 C   0  0  2  0  0  3  0  0  0  0  0  0
  158.9020  211.8550  154.4290 C   0  0  1  0  0  3  0  0  0  0  0  0
  156.5040  214.4360  155.2500 C   0  0  0  0  0  1  0  0  0  0  0  0
  160.0810  212.8030  152.5470 C   0  0  2  0  0  3  0  0  0  0  0  0
  158.3080  212.9060  155.1670 O   0  0  0  0  0  0  0  0  0  0  0  0
  156.5210  212.5960  153.5470 N   0  0  0  0  0  0  0  0  0  0  0  0
  156.9030  212.9950  154.9330 C   0  0  0  0  0  0  0  0  0  0  0  0
  156.1820  212.0920  155.9210 C   0  0  0  0  0  1  0  0  0  0  0  0
  161.1240  212.1650  153.4390 C   0  0  0  0  0  2  0  0  0  0  0  0
  158.7930  212.1120  152.9260 C   0  0  2  0  0  3  0  0  0  0  0  0
  155.2700  213.1930  153.0880 C   0  0  0  0  0  1  0  0  0  0  0  0
  162.3460  209.5960  156.9210 C   0  0  0  0  0  2  0  0  0  0  0  0
  161.2660  210.6550  156.5960 C   0  0  2  0  0  3  0  0  0  0  0  0
  159.8790  210.1960  156.3410 C   0  0  1  0  0  3  0  0  0  0  0  0
  160.1370  206.2000  157.2270 Cl  0  0  0  0  0  0  0  0  0  0  0  0
  160.7830  210.5080  155.2130 N   0  0  1  0  0  0  0  0  0  0  0  0
  160.5420  207.9310  157.2600 C   0  0  2  0  0  3  0  0  0  0  0  0
  159.6000  208.6900  156.3500 C   0  0  0  0  0  2  0  0  0  0  0  0
  161.9390  208.1360  156.7260 C   0  0  0  0  0  2  0  0  0  0  0  0
  161.1740  208.0290  150.6440 C   0  0  0  0  0  0  0  0  0  0  0  0
  160.2700  208.1510  151.6880 F   0  0  0  0  0  0  0  0  0  0  0  0
  160.4560  207.9540  149.4590 F   0  0  0  0  0  0  0  0  0  0  0  0
  163.0240  206.9450  151.7580 O   0  0  0  0  0  1  0  0  0  0  0  0
  161.9590  206.7270  150.8750 C   0  0  1  0  0  3  0  0  0  0  0  0
  161.1050  205.5350  151.3310 C   0  0  2  0  0  3  0  0  0  0  0  0
  160.8670  205.5060  152.8410 C   0  0  0  0  0  1  0  0  0  0  0  0
  160.7010  202.1760  150.0500 O   0  0  0  0  0  0  0  0  0  0  0  0
  160.6580  203.5650  149.8250 C   0  0  1  0  0  3  0  0  0  0  0  0
  161.6520  204.2200  150.7640 C   0  0  2  0  0  3  0  0  0  0  0  0
  161.9280  203.1780  151.8110 C   0  0  0  0  0  2  0  0  0  0  0  0
  161.0370  202.0250  151.4040 C   0  0  0  0  0  2  0  0  0  0  0  0
  161.0180  203.8830  148.3730 C   0  0  1  0  0  3  0  0  0  0  0  0
  162.3200  207.0830  147.1570 O   0  0  0  0  0  0  0  0  0  0  0  0
  161.7560  205.1370  148.2960 N   0  0  0  0  0  2  0  0  0  0  0  0
  160.8900  205.6430  146.0290 N   0  0  0  0  0  1  0  0  0  0  0  0
  161.6790  206.0010  147.1610 C   0  0  0  0  0  0  0  0  0  0  0  0
  161.7990  202.8560  147.8360 O   0  0  0  0  0  0  0  0  0  0  0  0
  160.9010  201.8120  147.6040 C   0  0  0  0  0  2  0  0  0  0  0  0
  160.4890  201.8100  146.1460 C   0  0  0  0  0  1  0  0  0  0  0  0
  1 29  1  6  0  0  0
  1  5  1  0  0  0  0
  3  6  2  0  0  0  0
  4  6  1  0  0  0  0
  4  5  1  0  0  0  0
  5  2  2  0  0  0  0
  7  4  1  0  0  0  0
  8  7  2  0  0  0  0
  8  1  1  0  0  0  0
  9 15  1  0  0  0  0
 10 18  1  6  0  0  0
 11 10  1  0  0  0  0
 11 14  1  1  0  0  0
 13  6  1  6  0  0  0
 13 19  1  0  0  0  0
 13 18  1  0  0  0  0
 15 16  1  0  0  0  0
 16 14  1  0  0  0  0
 16 12  1  0  0  0  0
 16 17  1  0  0  0  0
 19  9  1  1  0  0  0
 19 11  1  0  0  0  0
 20 15  1  0  0  0  0
 22 21  1  6  0  0  0
 23 27  1  6  0  0  0
 23 22  1  0  0  0  0
 25 10  1  1  0  0  0
 25 23  1  0  0  0  0
 25 22  1  0  0  0  0
 26 24  1  6  0  0  0
 27 26  1  0  0  0  0
 28 21  1  0  0  0  0
 28 26  1  0  0  0  0
 29 33  1  0  0  0  0
 29 30  1  0  0  0  0
 31 29  1  0  0  0  0
 33 34  1  0  0  0  0
 33 32  1  1  0  0  0
 34 35  1  1  0  0  0
 36 40  1  0  0  0  0
 37 41  1  6  0  0  0
 37 36  1  0  0  0  0
 37 38  1  0  0  0  0
 38 34  1  1  0  0  0
 38 39  1  0  0  0  0
 40 39  1  0  0  0  0
 41 46  1  1  0  0  0
 42 45  2  0  0  0  0
 43 41  1  0  0  0  0
 44 45  1  0  0  0  0
 45 43  1  0  0  0  0
 47 46  1  0  0  0  0
 48 47  1  0  0  0  0
M  END
>  <MODEL>
4

>  <REMARK>
 VINA RESULT:      -4.3      1.719      2.446
  Name = 
  10 active torsions:
  status: ('A' for Active; 'I' for Inactive)
    1  A    between atoms: C_1  and  C_7
    2  A    between atoms: C_4  and  C_27
    3  A    between atoms: C_4  and  C_33
    4  A    between atoms: C_5  and  N_30
    5  A    between atoms: C_7  and  C_33
    6  A    between atoms: C_10  and  C_34
    7  A    between atoms: C_16  and  C_41
    8  A    between atoms: O_20  and  C_22
    9  A    between atoms: O_20  and  C_41
   10  A    between atoms: N_24  and  C_41
                            x       y       z     vdW  Elec       q    Type
                         _______ _______ _______ _____ _____    ______ ____

>  <TORSDO>
F 10

$$$$
=
 OpenBabel11072409563D

 48 54  0  0  1  0  0  0  0  0999 V2000
  162.3970  209.5120  149.9970 C   0  0  2  0  0  3  0  0  0  0  0  0
  162.0820  210.4240  152.2080 O   0  0  0  0  0  0  0  0  0  0  0  0
  159.4090  213.1560  150.3920 O   0  0  0  0  0  0  0  0  0  0  0  0
  161.0030  211.4530  150.3790 N   0  0  0  0  0  0  0  0  0  0  0  0
  161.8210  210.4610  150.9770 C   0  0  1  0  0  3  0  0  0  0  0  0
  160.1600  212.3940  151.0610 C   0  0  0  0  0  0  0  0  0  0  0  0
  161.0290  211.2950  148.9380 C   0  0  0  0  0  3  0  0  0  0  0  0
  162.0270  210.1640  148.6550 C   0  0  0  0  0  3  0  0  0  0  0  0
  157.7560  212.9650  153.1660 C   0  0  0  0  0  2  0  0  0  0  0  0
  160.7190  211.2270  154.5550 C   0  0  2  0  0  3  0  0  0  0  0  0
  159.2160  211.4900  154.5710 C   0  0  1  0  0  3  0  0  0  0  0  0
  157.4620  214.2780  156.0660 C   0  0  0  0  0  1  0  0  0  0  0  0
  160.1370  212.4580  152.5590 C   0  0  2  0  0  3  0  0  0  0  0  0
  158.9520  212.5310  155.4930 O   0  0  0  0  0  0  0  0  0  0  0  0
  156.8560  212.6420  154.2650 N   0  0  0  0  0  0  0  0  0  0  0  0
  157.5600  212.8370  155.5660 C   0  0  0  0  0  0  0  0  0  0  0  0
  156.9140  211.9440  156.6140 C   0  0  0  0  0  1  0  0  0  0  0  0
  161.2220  211.5920  153.1620 C   0  0  2  0  0  3  0  0  0  0  0  0
  158.8560  211.9170  153.1470 C   0  0  2  0  0  3  0  0  0  0  0  0
  155.6490  213.4520  154.1240 C   0  0  0  0  0  1  0  0  0  0  0  0
  160.1200  208.1210  156.4420 C   0  0  0  0  0  2  0  0  0  0  0  0
  159.7650  209.2590  155.4560 C   0  0  2  0  0  3  0  0  0  0  0  0
  160.0280  209.0500  154.0110 C   0  0  1  0  0  3  0  0  0  0  0  0
  161.1800  205.1150  153.9230 Cl  0  0  0  0  0  0  0  0  0  0  0  0
  160.9790  209.8210  154.8400 N   0  0  1  0  0  0  0  0  0  0  0  0
  160.3830  206.5920  154.5100 C   0  0  2  0  0  3  0  0  0  0  0  0
  160.6980  207.7420  153.5770 C   0  0  0  0  0  2  0  0  0  0  0  0
  160.9290  206.9580  155.8680 C   0  0  0  0  0  2  0  0  0  0  0  0
  161.7870  208.0980  150.1340 C   0  0  0  0  0  0  0  0  0  0  0  0
  162.5760  207.3390  150.9850 F   0  0  0  0  0  0  0  0  0  0  0  0
  160.5120  208.1690  150.6770 F   0  0  0  0  0  0  0  0  0  0  0  0
  163.0480  207.0620  148.3520 O   0  0  0  0  0  1  0  0  0  0  0  0
  161.7500  207.3690  148.7810 C   0  0  1  0  0  3  0  0  0  0  0  0
  160.8540  206.1230  148.7470 C   0  0  2  0  0  3  0  0  0  0  0  0
  161.1970  205.1030  149.8330 C   0  0  0  0  0  1  0  0  0  0  0  0
  162.3360  204.4780  145.8860 O   0  0  0  0  0  0  0  0  0  0  0  0
  161.7700  204.3830  147.1720 C   0  0  1  0  0  3  0  0  0  0  0  0
  160.7920  205.5290  147.3350 C   0  0  2  0  0  3  0  0  0  0  0  0
  161.1640  206.5020  146.2520 C   0  0  0  0  0  2  0  0  0  0  0  0
  162.3510  205.8470  145.5820 C   0  0  0  0  0  2  0  0  0  0  0  0
  161.0460  203.0460  147.3400 C   0  0  1  0  0  3  0  0  0  0  0  0
  160.1410  200.9790  144.4550 O   0  0  0  0  0  0  0  0  0  0  0  0
  161.1410  202.2600  146.1170 N   0  0  0  0  0  2  0  0  0  0  0  0
  158.7210  201.7190  146.1370 N   0  0  0  0  0  1  0  0  0  0  0  0
  160.0050  201.6290  145.5240 C   0  0  0  0  0  0  0  0  0  0  0  0
  161.6080  202.3250  148.3970 O   0  0  0  0  0  0  0  0  0  0  0  0
  160.5190  201.7500  149.0530 C   0  0  0  0  0  2  0  0  0  0  0  0
  160.8710  201.5070  150.5070 C   0  0  0  0  0  1  0  0  0  0  0  0
  1 29  1  6  0  0  0
  1  5  1  0  0  0  0
  3  6  2  0  0  0  0
  4  5  1  0  0  0  0
  4  6  1  0  0  0  0
  5  2  1  6  0  0  0
  7  4  1  0  0  0  0
  8  7  2  0  0  0  0
  8  1  1  0  0  0  0
  9 15  1  0  0  0  0
 10 11  1  0  0  0  0
 10 25  1  6  0  0  0
 11 14  1  1  0  0  0
 13  6  1  6  0  0  0
 13 19  1  0  0  0  0
 13 18  1  0  0  0  0
 14 16  1  0  0  0  0
 15 16  1  0  0  0  0
 16 12  1  0  0  0  0
 16 17  1  0  0  0  0
 18  2  1  6  0  0  0
 18 10  1  0  0  0  0
 19  9  1  1  0  0  0
 19 11  1  0  0  0  0
 20 15  1  0  0  0  0
 22 21  1  1  0  0  0
 23 27  1  1  0  0  0
 23 25  1  0  0  0  0
 23 22  1  0  0  0  0
 24 26  1  0  0  0  0
 25 22  1  0  0  0  0
 26 28  1  0  0  0  0
 27 26  1  0  0  0  0
 28 21  1  0  0  0  0
 29 31  1  0  0  0  0
 29 30  1  0  0  0  0
 32 33  1  0  0  0  0
 33 29  1  0  0  0  0
 34 33  1  0  0  0  0
 34 35  1  0  0  0  0
 36 37  1  0  0  0  0
 37 38  1  0  0  0  0
 37 41  1  0  0  0  0
 38 34  1  0  0  0  0
 39 38  1  0  0  0  0
 40 36  1  0  0  0  0
 40 39  1  0  0  0  0
 41 46  1  0  0  0  0
 42 45  2  0  0  0  0
 43 41  1  0  0  0  0
 45 43  1  0  0  0  0
 45 44  1  0  0  0  0
 46 47  1  0  0  0  0
 47 48  1  0  0  0  0
M  END
>  <MODEL>
5

>  <REMARK>
 VINA RESULT:      -4.3      0.698      1.909
  Name = 
  10 active torsions:
  status: ('A' for Active; 'I' for Inactive)
    1  A    between atoms: C_1  and  C_7
    2  A    between atoms: C_4  and  C_27
    3  A    between atoms: C_4  and  C_33
    4  A    between atoms: C_5  and  N_30
    5  A    between atoms: C_7  and  C_33
    6  A    between atoms: C_10  and  C_34
    7  A    between atoms: C_16  and  C_41
    8  A    between atoms: O_20  and  C_22
    9  A    between atoms: O_20  and  C_41
   10  A    between atoms: N_24  and  C_41
                            x       y       z     vdW  Elec       q    Type
                         _______ _______ _______ _____ _____    ______ ____

>  <TORSDO>
F 10

$$$$
=
 OpenBabel11072409563D

 48 54  0  0  1  0  0  0  0  0999 V2000
  160.6270  207.6490  153.7510 C   0  0  2  0  0  3  0  0  0  0  0  0
  159.5960  209.8270  153.8780 O   0  0  0  0  0  0  0  0  0  0  0  0
  162.5200  210.7280  156.8000 O   0  0  0  0  0  0  0  0  0  0  0  0
  161.3770  209.3160  155.3380 N   0  0  0  0  0  0  0  0  0  0  0  0
  160.4760  209.0230  154.2830 C   0  0  1  0  0  3  0  0  0  0  0  0
  161.6120  210.6000  155.9340 C   0  0  0  0  0  0  0  0  0  0  0  0
  162.1530  208.1310  155.6510 C   0  0  0  0  0  3  0  0  0  0  0  0
  161.5940  207.0120  154.7620 C   0  0  0  0  0  3  0  0  0  0  0  0
  160.6390  211.6370  153.0150 C   0  0  0  0  0  2  0  0  0  0  0  0
  158.7340  212.9680  155.9020 C   0  0  2  0  0  3  0  0  0  0  0  0
  158.7870  212.5510  154.4360 C   0  0  1  0  0  3  0  0  0  0  0  0
  160.0400  214.4530  151.6260 C   0  0  0  0  0  1  0  0  0  0  0  0
  160.8130  211.7980  155.5140 C   0  0  2  0  0  3  0  0  0  0  0  0
  159.0890  213.6910  153.6540 O   0  0  0  0  0  0  0  0  0  0  0  0
  159.6600  212.0030  152.0000 N   0  0  0  0  0  0  0  0  0  0  0  0
  159.1550  213.3820  152.2620 C   0  0  0  0  0  0  0  0  0  0  0  0
  157.7650  213.5200  151.6610 C   0  0  0  0  0  1  0  0  0  0  0  0
  159.8740  212.2440  156.6130 C   0  0  0  0  0  2  0  0  0  0  0  0
  159.9060  211.5120  154.3400 C   0  0  1  0  0  0  0  0  0  0  0  0
  160.2790  211.8450  150.6870 C   0  0  0  0  0  1  0  0  0  0  0  0
  155.1340  213.5000  156.4660 C   0  0  0  0  0  2  0  0  0  0  0  0
  156.3930  213.1670  155.6310 C   0  0  2  0  0  3  0  0  0  0  0  0
  156.7780  211.7440  155.4700 C   0  0  1  0  0  3  0  0  0  0  0  0
  153.6080  209.8090  157.2090 Cl  0  0  0  0  0  0  0  0  0  0  0  0
  157.4510  212.5910  156.4790 N   0  0  1  0  0  0  0  0  0  0  0  0
  154.5050  211.1050  156.3860 C   0  0  2  0  0  3  0  0  0  0  0  0
  155.9450  210.6800  156.1920 C   0  0  0  0  0  2  0  0  0  0  0  0
  154.5180  212.3420  157.2500 C   0  0  0  0  0  2  0  0  0  0  0  0
  161.2110  207.6450  152.3190 C   0  0  0  0  0  0  0  0  0  0  0  0
  160.1840  207.8240  151.4050 F   0  0  0  0  0  0  0  0  0  0  0  0
  162.1160  208.6840  152.1590 F   0  0  0  0  0  0  0  0  0  0  0  0
  162.6380  205.8490  153.0770 O   0  0  0  0  0  1  0  0  0  0  0  0
  161.8790  206.3000  151.9900 C   0  0  1  0  0  3  0  0  0  0  0  0
  160.9170  205.2070  151.5030 C   0  0  2  0  0  3  0  0  0  0  0  0
  160.3950  204.3160  152.6310 C   0  0  0  0  0  1  0  0  0  0  0  0
  160.6670  203.4510  148.3500 O   0  0  0  0  0  0  0  0  0  0  0  0
  160.7430  204.6710  149.0470 C   0  0  1  0  0  3  0  0  0  0  0  0
  161.5190  204.4300  150.3260 C   0  0  2  0  0  3  0  0  0  0  0  0
  161.4930  202.9390  150.5090 C   0  0  0  0  0  2  0  0  0  0  0  0
  160.6690  202.4540  149.3370 C   0  0  0  0  0  2  0  0  0  0  0  0
  161.4480  205.7300  148.1970 C   0  0  1  0  0  3  0  0  0  0  0  0
  161.5920  205.0080  144.6090 O   0  0  0  0  0  0  0  0  0  0  0  0
  161.0680  205.5920  146.7970 N   0  0  0  0  0  2  0  0  0  0  0  0
  163.3280  204.8110  146.1390 N   0  0  0  0  0  1  0  0  0  0  0  0
  161.9790  205.1290  145.8000 C   0  0  0  0  0  0  0  0  0  0  0  0
  161.1070  207.0100  148.6430 O   0  0  0  0  0  0  0  0  0  0  0  0
  162.3140  207.7090  148.6700 C   0  0  0  0  0  2  0  0  0  0  0  0
  162.0410  209.1910  148.8380 C   0  0  0  0  0  1  0  0  0  0  0  0
  1 29  1  6  0  0  0
  1  5  1  0  0  0  0
  1  8  1  0  0  0  0
  2 19  1  0  0  0  0
  4  7  1  0  0  0  0
  4  6  1  0  0  0  0
  5  2  1  1  0  0  0
  5  4  1  0  0  0  0
  6  3  2  0  0  0  0
  8  7  2  0  0  0  0
 10 18  1  1  0  0  0
 11 14  1  6  0  0  0
 11 10  1  0  0  0  0
 12 16  1  0  0  0  0
 13  6  1  0  0  0  0
 13 18  1  1  0  0  0
 15 16  1  0  0  0  0
 15  9  1  0  0  0  0
 16 14  1  0  0  0  0
 17 16  1  0  0  0  0
 19  9  1  6  0  0  0
 19 11  1  0  0  0  0
 19 13  1  0  0  0  0
 20 15  1  0  0  0  0
 21 28  1  0  0  0  0
 22 21  1  1  0  0  0
 22 25  1  0  0  0  0
 23 22  1  0  0  0  0
 23 27  1  1  0  0  0
 23 25  1  0  0  0  0
 25 10  1  6  0  0  0
 26 24  1  1  0  0  0
 26 28  1  0  0  0  0
 27 26  1  0  0  0  0
 30 29  1  0  0  0  0
 31 29  1  0  0  0  0
 33 29  1  0  0  0  0
 33 32  1  1  0  0  0
 34 33  1  0  0  0  0
 34 35  1  1  0  0  0
 36 37  1  0  0  0  0
 36 40  1  0  0  0  0
 37 41  1  6  0  0  0
 37 38  1  0  0  0  0
 38 39  1  0  0  0  0
 38 34  1  1  0  0  0
 40 39  1  0  0  0  0
 41 43  1  6  0  0  0
 41 46  1  0  0  0  0
 42 45  2  0  0  0  0
 45 44  1  0  0  0  0
 45 43  1  0  0  0  0
 46 47  1  0  0  0  0
 47 48  1  0  0  0  0
M  END
>  <MODEL>
6

>  <REMARK>
 VINA RESULT:      -4.0      2.335      4.656
  Name = 
  10 active torsions:
  status: ('A' for Active; 'I' for Inactive)
    1  A    between atoms: C_1  and  C_7
    2  A    between atoms: C_4  and  C_27
    3  A    between atoms: C_4  and  C_33
    4  A    between atoms: C_5  and  N_30
    5  A    between atoms: C_7  and  C_33
    6  A    between atoms: C_10  and  C_34
    7  A    between atoms: C_16  and  C_41
    8  A    between atoms: O_20  and  C_22
    9  A    between atoms: O_20  and  C_41
   10  A    between atoms: N_24  and  C_41
                            x       y       z     vdW  Elec       q    Type
                         _______ _______ _______ _____ _____    ______ ____

>  <TORSDO>
F 10

$$$$
=
 OpenBabel11072409563D

 48 53  0  0  1  0  0  0  0  0999 V2000
  160.3860  210.4900  155.1400 C   0  0  2  0  0  3  0  0  0  0  0  0
  160.1470  209.6670  152.8840 O   0  0  0  0  0  0  0  0  0  0  0  0
  162.3290  206.2850  154.1900 O   0  0  0  0  0  0  0  0  0  0  0  0
  161.4160  208.4170  154.4320 N   0  0  0  0  0  0  0  0  0  0  0  0
  160.5980  209.5110  154.0490 C   0  0  0  0  0  0  0  0  0  0  0  0
  161.6560  207.2210  153.6770 C   0  0  0  0  0  0  0  0  0  0  0  0
  161.8830  208.6170  155.7900 C   0  0  0  0  0  3  0  0  0  0  0  0
  161.3690  209.9990  156.2150 C   0  0  0  0  0  3  0  0  0  0  0  0
  162.3040  208.7250  150.8740 C   0  0  0  0  0  2  0  0  0  0  0  0
  160.6450  205.4250  150.5720 C   0  0  2  0  0  3  0  0  0  0  0  0
  161.5800  206.4890  150.0040 C   0  0  1  0  0  3  0  0  0  0  0  0
  160.6930  209.5120  148.2270 C   0  0  0  0  0  1  0  0  0  0  0  0
  161.0860  207.0570  152.2990 C   0  0  2  0  0  3  0  0  0  0  0  0
  160.8310  207.3400  149.1570 O   0  0  0  0  0  0  0  0  0  0  0  0
  162.7420  208.8070  149.4870 N   0  0  0  0  0  0  0  0  0  0  0  0
  161.6400  208.3670  148.5830 C   0  0  0  0  0  0  0  0  0  0  0  0
  162.2440  207.8510  147.2860 C   0  0  0  0  0  1  0  0  0  0  0  0
  160.5780  205.6480  152.0790 C   0  0  0  0  0  2  0  0  0  0  0  0
  162.1170  207.2560  151.2130 C   0  0  2  0  0  3  0  0  0  0  0  0
  163.2030  210.1690  149.2300 C   0  0  0  0  0  1  0  0  0  0  0  0
  161.0000  201.8300  151.2870 C   0  0  0  0  0  2  0  0  0  0  0  0
  160.2450  203.1130  150.8670 C   0  0  2  0  0  3  0  0  0  0  0  0
  160.1520  203.4380  149.4230 C   0  0  1  0  0  3  0  0  0  0  0  0
  161.7870  200.0960  147.6980 Cl  0  0  0  0  0  0  0  0  0  0  0  0
  161.1660  204.0970  150.2740 N   0  0  1  0  0  0  0  0  0  0  0  0
  160.9680  201.0930  148.9210 C   0  0  2  0  0  3  0  0  0  0  0  0
  160.8650  202.5200  148.4250 C   0  0  0  0  0  2  0  0  0  0  0  0
  161.7890  201.1210  150.1870 C   0  0  0  0  0  2  0  0  0  0  0  0
  158.9260  210.4800  155.6500 C   0  0  0  0  0  0  0  0  0  0  0  0
  158.1510  209.7020  154.8040 F   0  0  0  0  0  0  0  0  0  0  0  0
  158.8590  209.9300  156.9220 F   0  0  0  0  0  0  0  0  0  0  0  0
  158.6740  212.5820  156.8140 O   0  0  0  0  0  1  0  0  0  0  0  0
  158.3210  211.8930  155.6470 C   0  0  1  0  0  3  0  0  0  0  0  0
  158.6450  212.7270  154.4000 C   0  0  2  0  0  3  0  0  0  0  0  0
  159.2410  214.0970  154.7270 C   0  0  0  0  0  1  0  0  0  0  0  0
  155.8840  214.4460  152.8140 O   0  0  0  0  0  0  0  0  0  0  0  0
  157.2640  214.1720  152.8640 C   0  0  1  0  0  3  0  0  0  0  0  0
  157.4420  212.7850  153.4500 C   0  0  2  0  0  3  0  0  0  0  0  0
  156.1290  212.4840  154.1170 C   0  0  0  0  0  2  0  0  0  0  0  0
  155.3220  213.7420  153.8890 C   0  0  0  0  0  2  0  0  0  0  0  0
  157.8730  214.2320  151.4620 C   0  0  1  0  0  3  0  0  0  0  0  0
  160.7260  212.1470  150.4940 O   0  0  0  0  0  0  0  0  0  0  0  0
  158.7220  213.0710  151.2280 N   0  0  0  0  0  2  0  0  0  0  0  0
  160.5380  214.4490  150.2530 N   0  0  0  0  0  1  0  0  0  0  0  0
  160.0260  213.1810  150.6550 C   0  0  0  0  0  0  0  0  0  0  0  0
  156.8600  214.2640  150.4990 O   0  0  0  0  0  0  0  0  0  0  0  0
  157.2130  213.2730  149.5810 C   0  0  0  0  0  2  0  0  0  0  0  0
  156.7380  213.6700  148.1970 C   0  0  0  0  0  1  0  0  0  0  0  0
  1 29  1  1  0  0  0
  1  8  1  0  0  0  0
  2  5  2  0  0  0  0
  4  7  1  0  0  0  0
  5  4  1  0  0  0  0
  5  1  1  0  0  0  0
  6  3  2  0  0  0  0
  6  4  1  0  0  0  0
  7  8  2  0  0  0  0
 10 18  1  1  0  0  0
 11 14  1  6  0  0  0
 11 10  1  0  0  0  0
 11 19  1  0  0  0  0
 12 16  1  0  0  0  0
 13  6  1  1  0  0  0
 15  9  1  0  0  0  0
 16 14  1  0  0  0  0
 16 15  1  0  0  0  0
 17 16  1  0  0  0  0
 18 13  1  0  0  0  0
 19  9  1  6  0  0  0
 19 13  1  0  0  0  0
 20 15  1  0  0  0  0
 22 21  1  6  0  0  0
 23 27  1  6  0  0  0
 23 25  1  0  0  0  0
 23 22  1  0  0  0  0
 25 10  1  1  0  0  0
 25 22  1  0  0  0  0
 26 24  1  6  0  0  0
 26 28  1  0  0  0  0
 27 26  1  0  0  0  0
 28 21  1  0  0  0  0
 29 31  1  0  0  0  0
 30 29  1  0  0  0  0
 33 29  1  0  0  0  0
 33 32  1  1  0  0  0
 34 35  1  1  0  0  0
 34 33  1  0  0  0  0
 36 37  1  0  0  0  0
 36 40  1  0  0  0  0
 37 41  1  6  0  0  0
 37 38  1  0  0  0  0
 38 39  1  0  0  0  0
 38 34  1  1  0  0  0
 40 39  1  0  0  0  0
 41 46  1  6  0  0  0
 42 45  2  0  0  0  0
 43 41  1  0  0  0  0
 44 45  1  0  0  0  0
 45 43  1  0  0  0  0
 47 46  1  0  0  0  0
 48 47  1  0  0  0  0
M  END
>  <MODEL>
7

>  <REMARK>
 VINA RESULT:      -4.0      2.948      8.982
  Name = 
  10 active torsions:
  status: ('A' for Active; 'I' for Inactive)
    1  A    between atoms: C_1  and  C_7
    2  A    between atoms: C_4  and  C_27
    3  A    between atoms: C_4  and  C_33
    4  A    between atoms: C_5  and  N_30
    5  A    between atoms: C_7  and  C_33
    6  A    between atoms: C_10  and  C_34
    7  A    between atoms: C_16  and  C_41
    8  A    between atoms: O_20  and  C_22
    9  A    between atoms: O_20  and  C_41
   10  A    between atoms: N_24  and  C_41
                            x       y       z     vdW  Elec       q    Type
                         _______ _______ _______ _____ _____    ______ ____

>  <TORSDO>
F 10

$$$$
=
 OpenBabel11072409563D

 48 53  0  0  1  0  0  0  0  0999 V2000
  162.3710  207.7820  149.1660 C   0  0  2  0  0  3  0  0  0  0  0  0
  161.7730  208.0510  151.4890 O   0  0  0  0  0  0  0  0  0  0  0  0
  160.6920  212.0100  150.4580 O   0  0  0  0  0  0  0  0  0  0  0  0
  161.6100  209.9070  150.0410 N   0  0  0  0  0  0  0  0  0  0  0  0
  161.8800  208.5470  150.3360 C   0  0  0  0  0  0  0  0  0  0  0  0
  160.9550  210.8560  150.8950 C   0  0  0  0  0  0  0  0  0  0  0  0
  161.9740  210.1830  148.6640 C   0  0  0  0  0  3  0  0  0  0  0  0
  162.6030  208.8900  148.1260 C   0  0  0  0  0  3  0  0  0  0  0  0
  162.6400  210.6670  153.6640 C   0  0  0  0  0  2  0  0  0  0  0  0
  158.9680  210.9880  154.0450 C   0  0  2  0  0  3  0  0  0  0  0  0
  160.3770  211.2370  154.5760 C   0  0  1  0  0  3  0  0  0  0  0  0
  162.5280  208.9270  156.3430 C   0  0  0  0  0  1  0  0  0  0  0  0
  160.5490  210.4800  152.2890 C   0  0  2  0  0  3  0  0  0  0  0  0
  160.7300  210.1670  155.4330 O   0  0  0  0  0  0  0  0  0  0  0  0
  162.9720  211.0200  155.0380 N   0  0  0  0  0  0  0  0  0  0  0  0
  162.0400  210.3280  155.9750 C   0  0  0  0  0  0  0  0  0  0  0  0
  161.9470  211.1340  157.2610 C   0  0  0  0  0  1  0  0  0  0  0  0
  159.0890  210.7890  152.5380 C   0  0  0  0  0  2  0  0  0  0  0  0
  161.2830  211.2720  153.3450 C   0  0  2  0  0  3  0  0  0  0  0  0
  164.3790  210.7040  155.2680 C   0  0  0  0  0  1  0  0  0  0  0  0
  156.7040  213.7130  153.0400 C   0  0  0  0  0  2  0  0  0  0  0  0
  157.1190  212.2400  153.2650 C   0  0  2  0  0  3  0  0  0  0  0  0
  156.7560  211.5910  154.5480 C   0  0  1  0  0  3  0  0  0  0  0  0
  154.4020  214.4530  156.3050 Cl  0  0  0  0  0  0  0  0  0  0  0  0
  158.1170  212.1320  154.3440 N   0  0  1  0  0  0  0  0  0  0  0  0
  155.2080  213.5420  155.0080 C   0  0  2  0  0  3  0  0  0  0  0  0
  156.0430  212.4330  155.6120 C   0  0  0  0  0  2  0  0  0  0  0  0
  156.1500  214.4520  154.2580 C   0  0  0  0  0  2  0  0  0  0  0  0
  161.3340  206.7450  148.6780 C   0  0  0  0  0  0  0  0  0  0  0  0
  160.2500  206.7390  149.5420 F   0  0  0  0  0  0  0  0  0  0  0  0
  160.8740  207.0760  147.4110 F   0  0  0  0  0  0  0  0  0  0  0  0
  161.1500  204.4740  149.4810 O   0  0  0  0  0  1  0  0  0  0  0  0
  161.9200  205.3230  148.6780 C   0  0  1  0  0  3  0  0  0  0  0  0
  162.1300  204.7160  147.2840 C   0  0  2  0  0  3  0  0  0  0  0  0
  162.8530  205.6570  146.3190 C   0  0  0  0  0  1  0  0  0  0  0  0
  160.2260  202.7900  144.8860 O   0  0  0  0  0  0  0  0  0  0  0  0
  161.0430  202.8190  146.0320 C   0  0  1  0  0  3  0  0  0  0  0  0
  160.8190  204.1460  146.7290 C   0  0  2  0  0  3  0  0  0  0  0  0
  160.1730  205.0170  145.6890 C   0  0  0  0  0  2  0  0  0  0  0  0
  160.1150  204.1250  144.4690 C   0  0  0  0  0  2  0  0  0  0  0  0
  160.6880  201.6650  146.9710 C   0  0  1  0  0  3  0  0  0  0  0  0
  162.3210  198.5550  145.9360 O   0  0  0  0  0  0  0  0  0  0  0  0
  161.6630  200.5900  146.8460 N   0  0  0  0  0  2  0  0  0  0  0  0
  160.2100  199.2920  145.3120 N   0  0  0  0  0  1  0  0  0  0  0  0
  161.4360  199.4440  146.0250 C   0  0  0  0  0  0  0  0  0  0  0  0
  160.6640  202.1140  148.2950 O   0  0  0  0  0  0  0  0  0  0  0  0
  161.3980  201.1620  149.0050 C   0  0  0  0  0  2  0  0  0  0  0  0
  160.7280  200.8930  150.3380 C   0  0  0  0  0  1  0  0  0  0  0  0
  1 29  1  6  0  0  0
  1  5  1  0  0  0  0
  3  6  2  0  0  0  0
  4  5  1  0  0  0  0
  4  6  1  0  0  0  0
  5  2  2  0  0  0  0
  7  4  1  0  0  0  0
  8  7  2  0  0  0  0
  8  1  1  0  0  0  0
  9 15  1  0  0  0  0
 10 18  1  6  0  0  0
 10 11  1  0  0  0  0
 11 14  1  1  0  0  0
 13  6  1  6  0  0  0
 13 18  1  0  0  0  0
 13 19  1  0  0  0  0
 14 16  1  0  0  0  0
 15 20  1  0  0  0  0
 15 16  1  0  0  0  0
 16 12  1  0  0  0  0
 16 17  1  0  0  0  0
 19  9  1  1  0  0  0
 19 11  1  0  0  0  0
 21 28  1  0  0  0  0
 22 21  1  1  0  0  0
 22 25  1  0  0  0  0
 22 23  1  0  0  0  0
 23 27  1  1  0  0  0
 25 10  1  6  0  0  0
 25 23  1  0  0  0  0
 26 27  1  0  0  0  0
 26 24  1  1  0  0  0
 28 26  1  0  0  0  0
 29 33  1  0  0  0  0
 29 30  1  0  0  0  0
 31 29  1  0  0  0  0
 33 32  1  1  0  0  0
 34 35  1  6  0  0  0
 34 33  1  0  0  0  0
 36 37  1  0  0  0  0
 37 38  1  0  0  0  0
 37 41  1  1  0  0  0
 38 34  1  6  0  0  0
 39 38  1  0  0  0  0
 40 36  1  0  0  0  0
 40 39  1  0  0  0  0
 41 43  1  1  0  0  0
 41 46  1  0  0  0  0
 42 45  2  0  0  0  0
 44 45  1  0  0  0  0
 45 43  1  0  0  0  0
 46 47  1  0  0  0  0
 47 48  1  0  0  0  0
M  END
>  <MODEL>
8

>  <REMARK>
 VINA RESULT:      -3.7      2.533      4.696
  Name = 
  10 active torsions:
  status: ('A' for Active; 'I' for Inactive)
    1  A    between atoms: C_1  and  C_7
    2  A    between atoms: C_4  and  C_27
    3  A    between atoms: C_4  and  C_33
    4  A    between atoms: C_5  and  N_30
    5  A    between atoms: C_7  and  C_33
    6  A    between atoms: C_10  and  C_34
    7  A    between atoms: C_16  and  C_41
    8  A    between atoms: O_20  and  C_22
    9  A    between atoms: O_20  and  C_41
   10  A    between atoms: N_24  and  C_41
                            x       y       z     vdW  Elec       q    Type
                         _______ _______ _______ _____ _____    ______ ____

>  <TORSDO>
F 10

$$$$
=
 OpenBabel11072409563D

 48 54  0  0  1  0  0  0  0  0999 V2000
  160.6400  207.5460  152.1830 C   0  0  2  0  0  3  0  0  0  0  0  0
  159.8280  209.8140  152.3250 O   0  0  0  0  0  0  0  0  0  0  0  0
  162.4550  210.2480  155.6140 O   0  0  0  0  0  0  0  0  0  0  0  0
  161.3590  209.0410  153.9460 N   0  0  0  0  0  0  0  0  0  0  0  0
  160.5670  208.9000  152.7780 C   0  0  1  0  0  3  0  0  0  0  0  0
  161.6490  210.2620  154.6430 C   0  0  0  0  0  0  0  0  0  0  0  0
  161.9670  207.7660  154.2730 C   0  0  0  0  0  3  0  0  0  0  0  0
  161.4080  206.7590  153.2580 C   0  0  0  0  0  3  0  0  0  0  0  0
  161.1230  211.5290  151.7010 C   0  0  0  0  0  2  0  0  0  0  0  0
  159.0590  212.9330  154.4390 C   0  0  2  0  0  3  0  0  0  0  0  0
  159.2310  212.5780  152.9650 C   0  0  1  0  0  3  0  0  0  0  0  0
  160.9820  214.4530  150.4160 C   0  0  0  0  0  1  0  0  0  0  0  0
  161.0330  211.5580  154.2080 C   0  0  2  0  0  3  0  0  0  0  0  0
  159.7360  213.7120  152.2860 O   0  0  0  0  0  0  0  0  0  0  0  0
  160.3080  212.0460  150.6090 N   0  0  0  0  0  0  0  0  0  0  0  0
  159.9240  213.4600  150.8940 C   0  0  0  0  0  0  0  0  0  0  0  0
  158.6320  213.7760  150.1570 C   0  0  0  0  0  1  0  0  0  0  0  0
  160.0290  212.0570  155.2250 C   0  0  0  0  0  2  0  0  0  0  0  0
  160.2370  211.4270  152.9310 C   0  0  1  0  0  0  0  0  0  0  0  0
  161.0480  211.8780  149.3620 C   0  0  0  0  0  1  0  0  0  0  0  0
  156.4890  210.8840  156.1020 C   0  0  0  0  0  2  0  0  0  0  0  0
  157.7340  211.7990  156.0380 C   0  0  2  0  0  3  0  0  0  0  0  0
  157.5470  213.2610  156.2050 C   0  0  1  0  0  3  0  0  0  0  0  0
  153.5710  213.4950  157.1840 Cl  0  0  0  0  0  0  0  0  0  0  0  0
  157.6860  212.6750  154.8550 N   0  0  1  0  0  0  0  0  0  0  0  0
  155.1940  212.7880  157.0150 C   0  0  2  0  0  3  0  0  0  0  0  0
  156.1200  213.7960  156.3670 C   0  0  0  0  0  2  0  0  0  0  0  0
  155.1330  211.5880  156.1020 C   0  0  0  0  0  2  0  0  0  0  0  0
  161.3890  207.5490  150.8300 C   0  0  0  0  0  0  0  0  0  0  0  0
  160.9970  208.6550  150.0930 F   0  0  0  0  0  0  0  0  0  0  0  0
  162.7590  207.6280  151.0320 F   0  0  0  0  0  0  0  0  0  0  0  0
  159.6880  206.3060  149.6470 O   0  0  0  0  0  1  0  0  0  0  0  0
  161.0440  206.3040  149.9960 C   0  0  1  0  0  3  0  0  0  0  0  0
  161.9280  206.0960  148.7590 C   0  0  2  0  0  3  0  0  0  0  0  0
  162.5110  207.3980  148.2070 C   0  0  0  0  0  1  0  0  0  0  0  0
  161.8910  203.8440  145.9270 O   0  0  0  0  0  0  0  0  0  0  0  0
  162.0330  204.0330  147.3150 C   0  0  1  0  0  3  0  0  0  0  0  0
  161.2090  205.2430  147.7070 C   0  0  2  0  0  3  0  0  0  0  0  0
  160.9560  205.9650  146.4130 C   0  0  0  0  0  2  0  0  0  0  0  0
  161.6910  205.1250  145.3920 C   0  0  0  0  0  2  0  0  0  0  0  0
  161.5470  202.7980  148.0750 C   0  0  1  0  0  3  0  0  0  0  0  0
  159.9930  203.2300  151.3640 O   0  0  0  0  0  0  0  0  0  0  0  0
  160.6100  203.1830  149.1230 N   0  0  0  0  0  2  0  0  0  0  0  0
  161.9620  202.0940  150.8940 N   0  0  0  0  0  1  0  0  0  0  0  0
  160.8230  202.8540  150.4970 C   0  0  0  0  0  0  0  0  0  0  0  0
  160.9170  201.9100  147.1980 O   0  0  0  0  0  0  0  0  0  0  0  0
  161.1800  200.6450  147.7250 C   0  0  0  0  0  2  0  0  0  0  0  0
  161.5700  199.6990  146.6070 C   0  0  0  0  0  1  0  0  0  0  0  0
  1 29  1  6  0  0  0
  1  5  1  0  0  0  0
  1  8  1  0  0  0  0
  2 19  1  0  0  0  0
  4  7  1  0  0  0  0
  4  6  1  0  0  0  0
  5  2  1  1  0  0  0
  5  4  1  0  0  0  0
  6  3  2  0  0  0  0
  8  7  2  0  0  0  0
 10 18  1  1  0  0  0
 11 14  1  6  0  0  0
 11 10  1  0  0  0  0
 12 16  1  0  0  0  0
 13  6  1  0  0  0  0
 13 18  1  1  0  0  0
 15 16  1  0  0  0  0
 15  9  1  0  0  0  0
 16 14  1  0  0  0  0
 17 16  1  0  0  0  0
 19  9  1  6  0  0  0
 19 11  1  0  0  0  0
 19 13  1  0  0  0  0
 20 15  1  0  0  0  0
 21 28  1  0  0  0  0
 22 21  1  6  0  0  0
 22 23  1  0  0  0  0
 23 27  1  6  0  0  0
 25 10  1  1  0  0  0
 25 22  1  0  0  0  0
 25 23  1  0  0  0  0
 26 24  1  6  0  0  0
 27 26  1  0  0  0  0
 28 26  1  0  0  0  0
 29 31  1  0  0  0  0
 30 29  1  0  0  0  0
 33 32  1  6  0  0  0
 33 29  1  0  0  0  0
 34 35  1  6  0  0  0
 34 33  1  0  0  0  0
 36 37  1  0  0  0  0
 37 38  1  0  0  0  0
 37 41  1  1  0  0  0
 38 34  1  1  0  0  0
 39 38  1  0  0  0  0
 40 36  1  0  0  0  0
 40 39  1  0  0  0  0
 41 46  1  6  0  0  0
 41 43  1  0  0  0  0
 43 45  1  0  0  0  0
 45 44  1  0  0  0  0
 45 42  2  0  0  0  0
 46 47  1  0  0  0  0
 48 47  1  0  0  0  0
M  END
>  <MODEL>
9

>  <REMARK>
 VINA RESULT:      -3.5      2.457      4.870
  Name = 
  10 active torsions:
  status: ('A' for Active; 'I' for Inactive)
    1  A    between atoms: C_1  and  C_7
    2  A    between atoms: C_4  and  C_27
    3  A    between atoms: C_4  and  C_33
    4  A    between atoms: C_5  and  N_30
    5  A    between atoms: C_7  and  C_33
    6  A    between atoms: C_10  and  C_34
    7  A    between atoms: C_16  and  C_41
    8  A    between atoms: O_20  and  C_22
    9  A    between atoms: O_20  and  C_41
   10  A    between atoms: N_24  and  C_41
                            x       y       z     vdW  Elec       q    Type
                         _______ _______ _______ _____ _____    ______ ____

>  <TORSDO>
F 10

$$$$
