=
 OpenBabel11072414193D

 56 59  0  0  1  0  0  0  0  0999 V2000
  162.2650  209.0830  149.1830 C   0  0  0  0  0  3  0  0  0  0  0  0
  160.7130  206.7530  152.9520 C   0  0  1  0  0  3  0  0  0  0  0  0
  160.4670  208.1390  152.7940 O   0  0  0  0  0  0  0  0  0  0  0  0
  161.5870  210.1190  149.8500 C   0  0  0  0  0  3  0  0  0  0  0  0
  162.2670  207.7840  149.7120 C   0  0  0  0  0  3  0  0  0  0  0  0
  160.9820  208.5790  151.5890 C   0  0  0  0  0  0  0  0  0  0  0  0
  161.4900  206.2860  151.6980 C   0  0  2  0  0  3  0  0  0  0  0  0
  160.9230  209.8760  151.0680 C   0  0  0  0  0  0  0  0  0  0  0  0
  161.5760  207.5520  150.9050 C   0  0  0  0  0  0  0  0  0  0  0  0
  161.5070  206.4900  154.2190 C   0  0  0  0  0  2  0  0  0  0  0  0
  162.1670  209.5880  156.4540 C   0  0  0  0  0  3  0  0  0  0  0  0
  159.9120  207.5240  155.9960 C   0  0  0  0  0  2  0  0  0  0  0  0
  161.1360  210.1220  157.1270 C   0  0  0  0  0  3  0  0  0  0  0  0
  159.7090  209.6390  157.2050 C   0  0  0  0  0  2  0  0  0  0  0  0
  162.1950  208.4150  155.5510 C   0  0  0  0  0  3  0  0  0  0  0  0
  161.2180  207.5420  155.2650 C   0  0  0  0  0  0  0  0  0  0  0  0
  159.2460  208.8870  155.9750 C   0  0  0  0  0  2  0  0  0  0  0  0
  160.2250  211.0300  151.7600 C   0  0  1  0  0  3  0  0  0  0  0  0
  161.8950  210.8040  153.3170 C   0  0  0  0  0  1  0  0  0  0  0  0
  160.5730  211.2340  153.1190 O   0  0  0  0  0  0  0  0  0  0  0  0
  159.8660  212.2910  150.9280 C   0  0  2  0  0  3  0  0  0  0  0  0
  159.7370  213.6980  148.2460 O   0  0  0  0  0  0  0  0  0  0  0  0
  160.8810  212.4910  149.9020 N   0  0  0  0  0  2  0  0  0  0  0  0
  160.6040  212.8370  148.5370 C   0  0  0  0  0  0  0  0  0  0  0  0
  161.3650  212.1610  147.4500 C   0  0  0  0  0  2  0  0  0  0  0  0
  163.1970  214.2700  147.9810 O   0  0  0  0  0  1  0  0  0  0  0  0
  161.8250  213.1280  146.4080 C   0  0  0  0  0  0  0  0  0  0  0  0
  162.6700  214.1160  146.7030 C   0  0  0  0  0  3  0  0  0  0  0  0
  160.9750  214.3370  144.5040 N   0  0  0  0  0  1  0  0  0  0  0  0
  161.3070  213.0160  145.0130 C   0  0  0  0  0  2  0  0  0  0  0  0
  159.7320  213.4250  151.7310 O   0  0  0  0  0  0  0  0  0  0  0  0
  158.8520  214.2650  151.0390 C   0  0  0  0  0  2  0  0  0  0  0  0
  156.5500  213.6350  150.5010 C   0  0  0  0  0  2  0  0  0  0  0  0
  157.4460  213.9620  151.4430 C   0  0  0  0  0  0  0  0  0  0  0  0
  157.0630  213.6520  153.1880 S   0  0  0  0  0  0  0  0  0  0  0  0
  155.3700  214.3450  153.1390 C   0  0  0  0  0  2  0  0  0  0  0  0
  154.8030  214.4530  154.5500 C   0  0  0  0  0  2  0  0  0  0  0  0
  155.4110  213.3610  155.4330 C   0  0  0  0  0  2  0  0  0  0  0  0
  155.7850  213.9300  156.7890 C   0  0  0  0  0  2  0  0  0  0  0  0
  157.0990  213.3310  157.2590 C   0  0  0  0  0  2  0  0  0  0  0  0
  159.0990  213.6380  155.8360 C   0  0  0  0  0  1  0  0  0  0  0  0
  158.2540  214.2640  156.9230 C   0  0  0  0  0  2  0  0  0  0  0  0
  160.7610  205.1520  150.9360 C   0  0  1  0  0  3  0  0  0  0  0  0
  160.5610  202.0760  146.5540 C   0  0  1  0  0  3  0  0  0  0  0  0
  162.0990  204.0200  147.4490 C   0  0  0  0  0  2  0  0  0  0  0  0
  161.2520  203.9820  145.1430 C   0  0  0  0  0  2  0  0  0  0  0  0
  160.6730  201.6070  147.9930 C   0  0  0  0  0  2  0  0  0  0  0  0
  160.3780  202.7540  148.9580 C   0  0  0  0  0  2  0  0  0  0  0  0
  161.4630  204.9260  149.6160 C   0  0  0  0  0  3  0  0  0  0  0  0
  161.3690  203.3470  146.3160 C   0  0  0  0  0  0  0  0  0  0  0  0
  161.2880  203.9390  148.7110 C   0  0  0  0  0  0  0  0  0  0  0  0
  159.9070  200.6360  144.6990 O   0  0  0  0  0  1  0  0  0  0  0  0
  161.1930  199.7410  146.3770 O   0  0  0  0  0  1  0  0  0  0  0  0
  160.9220  200.8930  145.6270 C   0  0  0  0  0  3  0  0  0  0  0  0
  160.6820  203.9320  151.7550 N   0  0  0  0  0  2  0  0  0  0  0  0
  161.8450  203.2580  151.5870 O   0  0  0  0  0  1  0  0  0  0  0  0
  1  5  2  0  0  0  0
  1  4  1  0  0  0  0
  2 10  1  1  0  0  0
  3  2  1  0  0  0  0
  4  8  2  0  0  0  0
  5  9  1  0  0  0  0
  6  3  1  0  0  0  0
  7 43  1  6  0  0  0
  7  2  1  0  0  0  0
  8  6  1  0  0  0  0
  8 18  1  0  0  0  0
  9  6  2  0  0  0  0
  9  7  1  0  0  0  0
 10 16  1  0  0  0  0
 11 13  2  0  0  0  0
 13 14  1  0  0  0  0
 15 11  1  0  0  0  0
 16 15  2  0  0  0  0
 16 12  1  0  0  0  0
 17 12  1  0  0  0  0
 17 14  1  0  0  0  0
 18 20  1  1  0  0  0
 20 19  1  0  0  0  0
 21 23  1  6  0  0  0
 21 31  1  0  0  0  0
 21 18  1  0  0  0  0
 22 24  2  0  0  0  0
 24 23  1  0  0  0  0
 25 24  1  0  0  0  0
 27 28  2  0  0  0  0
 27 25  1  0  0  0  0
 28 26  1  0  0  0  0
 29 30  1  0  0  0  0
 30 27  1  0  0  0  0
 32 34  1  0  0  0  0
 32 31  1  0  0  0  0
 33 34  2  0  0  0  0
 34 35  1  0  0  0  0
 36 35  1  0  0  0  0
 36 37  1  0  0  0  0
 37 38  1  0  0  0  0
 38 39  1  0  0  0  0
 39 40  1  0  0  0  0
 41 42  1  0  0  0  0
 42 40  1  0  0  0  0
 43 49  1  6  0  0  0
 43 55  1  0  0  0  0
 44 54  1  6  0  0  0
 44 47  1  0  0  0  0
 45 51  1  0  0  0  0
 46 50  2  0  0  0  0
 47 48  1  0  0  0  0
 50 44  1  0  0  0  0
 50 45  1  0  0  0  0
 51 48  1  0  0  0  0
 51 49  2  0  0  0  0
 52 54  1  0  0  0  0
 54 53  1  0  0  0  0
 56 55  1  0  0  0  0
M  END
>  <MODEL>
1

>  <REMARK>
 VINA RESULT:      -5.5      0.000      0.000
  Name = 
  23 active torsions:
  status: ('A' for Active; 'I' for Inactive)
    1  A    between atoms: N_4  and  C_26
    2  A    between atoms: C_5  and  C_25
    3  A    between atoms: C_5  and  C_51
    4  A    between atoms: C_6  and  C_55
    5  A    between atoms: C_7  and  C_53
    6  A    between atoms: C_14  and  O_23
    7  A    between atoms: C_14  and  C_34
    8  A    between atoms: C_14  and  N_49
    9  A    between atoms: C_21  and  C_35
   10  A    between atoms: O_23  and  C_45
   11  A    between atoms: C_25  and  C_48
   12  A    between atoms: C_26  and  C_31
   13  A    between atoms: C_26  and  C_40
   14  A    between atoms: S_28  and  C_42
   15  A    between atoms: S_28  and  C_48
   16  A    between atoms: C_33  and  C_44
   17  A    between atoms: C_33  and  C_50
   18  A    between atoms: C_34  and  O_46
   19  A    between atoms: C_34  and  C_52
   20  A    between atoms: C_35  and  C_51
   21  A    between atoms: C_36  and  C_53
   22  A    between atoms: C_42  and  C_45
   23  A    between atoms: C_50  and  C_56
                            x       y       z     vdW  Elec       q    Type
                         _______ _______ _______ _____ _____    ______ ____

>  <TORSDO>
F 23

$$$$
=
 OpenBabel11072414193D

 56 59  0  0  1  0  0  0  0  0999 V2000
  160.3340  208.1040  154.4630 C   0  0  0  0  0  3  0  0  0  0  0  0
  161.1630  206.7870  150.0330 C   0  0  1  0  0  3  0  0  0  0  0  0
  161.2830  208.1420  150.4300 O   0  0  0  0  0  0  0  0  0  0  0  0
  160.7060  209.3400  153.9040 C   0  0  0  0  0  3  0  0  0  0  0  0
  160.3480  206.9410  153.6780 C   0  0  0  0  0  3  0  0  0  0  0  0
  161.0340  208.2630  151.7840 C   0  0  0  0  0  0  0  0  0  0  0  0
  160.7760  205.9790  151.2950 C   0  0  2  0  0  3  0  0  0  0  0  0
  161.0720  209.4350  152.5480 C   0  0  0  0  0  0  0  0  0  0  0  0
  160.7460  207.0460  152.3420 C   0  0  0  0  0  0  0  0  0  0  0  0
  160.1170  206.6380  148.9430 C   0  0  0  0  0  2  0  0  0  0  0  0
  162.9100  205.6540  146.4400 C   0  0  0  0  0  3  0  0  0  0  0  0
  160.0030  206.7050  146.3440 C   0  0  0  0  0  2  0  0  0  0  0  0
  162.5860  205.5140  145.1450 C   0  0  0  0  0  3  0  0  0  0  0  0
  161.2580  205.7580  144.4720 C   0  0  0  0  0  2  0  0  0  0  0  0
  162.0520  206.0270  147.5880 C   0  0  0  0  0  3  0  0  0  0  0  0
  160.7680  206.4130  147.5980 C   0  0  0  0  0  0  0  0  0  0  0  0
  160.0620  205.5390  145.3750 C   0  0  0  0  0  2  0  0  0  0  0  0
  161.4440  210.7940  151.9880 C   0  0  1  0  0  3  0  0  0  0  0  0
  163.7250  210.6360  151.7970 C   0  0  0  0  0  1  0  0  0  0  0  0
  162.5310  210.8080  151.0780 O   0  0  0  0  0  0  0  0  0  0  0  0
  160.3190  211.8380  151.7570 C   0  0  2  0  0  3  0  0  0  0  0  0
  158.8390  214.0530  150.3100 O   0  0  0  0  0  0  0  0  0  0  0  0
  160.7870  212.8430  150.8120 N   0  0  0  0  0  2  0  0  0  0  0  0
  159.9390  213.5840  149.9220 C   0  0  0  0  0  0  0  0  0  0  0  0
  160.3780  213.8020  148.5160 C   0  0  0  0  0  2  0  0  0  0  0  0
  158.9200  212.5880  146.3980 O   0  0  0  0  0  1  0  0  0  0  0  0
  160.7960  212.5280  147.8590 C   0  0  0  0  0  0  0  0  0  0  0  0
  160.0730  211.9800  146.8820 C   0  0  0  0  0  3  0  0  0  0  0  0
  163.2040  212.4630  147.7510 N   0  0  0  0  0  1  0  0  0  0  0  0
  162.0290  211.8250  148.3220 C   0  0  0  0  0  2  0  0  0  0  0  0
  159.9000  212.4260  152.9520 O   0  0  0  0  0  0  0  0  0  0  0  0
  158.6000  211.9500  153.1600 C   0  0  0  0  0  2  0  0  0  0  0  0
  158.0980  214.3210  153.4980 C   0  0  0  0  0  2  0  0  0  0  0  0
  157.7490  213.0450  153.7170 C   0  0  0  0  0  0  0  0  0  0  0  0
  156.0820  212.6640  154.3210 S   0  0  0  0  0  0  0  0  0  0  0  0
  156.0640  213.9280  155.6450 C   0  0  0  0  0  2  0  0  0  0  0  0
  156.8580  213.4400  156.8510 C   0  0  0  0  0  2  0  0  0  0  0  0
  156.9860  211.9160  156.7990 C   0  0  0  0  0  2  0  0  0  0  0  0
  158.3700  211.4900  157.2570 C   0  0  0  0  0  2  0  0  0  0  0  0
  159.3650  212.6100  157.0080 C   0  0  0  0  0  2  0  0  0  0  0  0
  160.9280  210.7080  157.2500 C   0  0  0  0  0  1  0  0  0  0  0  0
  160.7030  212.0360  156.5630 C   0  0  0  0  0  2  0  0  0  0  0  0
  161.7930  204.8560  151.6160 C   0  0  1  0  0  3  0  0  0  0  0  0
  161.2450  201.4650  147.5040 C   0  0  1  0  0  3  0  0  0  0  0  0
  160.4450  201.5630  150.0140 C   0  0  0  0  0  2  0  0  0  0  0  0
  161.4170  199.5320  149.0310 C   0  0  0  0  0  2  0  0  0  0  0  0
  160.8460  202.9290  147.5380 C   0  0  0  0  0  2  0  0  0  0  0  0
  161.4510  203.6240  148.7560 C   0  0  0  0  0  2  0  0  0  0  0  0
  161.1750  203.5240  151.2550 C   0  0  0  0  0  3  0  0  0  0  0  0
  160.9770  200.7810  148.8400 C   0  0  0  0  0  0  0  0  0  0  0  0
  161.0570  202.9340  150.0450 C   0  0  0  0  0  0  0  0  0  0  0  0
  161.2830  199.6950  145.8280 O   0  0  0  0  0  1  0  0  0  0  0  0
  160.3910  201.7290  145.2500 O   0  0  0  0  0  1  0  0  0  0  0  0
  160.5620  200.8030  146.2860 C   0  0  0  0  0  3  0  0  0  0  0  0
  163.0740  205.0930  150.9320 N   0  0  0  0  0  2  0  0  0  0  0  0
  163.8400  205.8430  151.7610 O   0  0  0  0  0  1  0  0  0  0  0  0
  2 10  1  6  0  0  0
  2  3  1  0  0  0  0
  2  7  1  0  0  0  0
  3  6  1  0  0  0  0
  4  1  1  0  0  0  0
  5  1  2  0  0  0  0
  6  9  2  0  0  0  0
  6  8  1  0  0  0  0
  7 43  1  1  0  0  0
  7  9  1  0  0  0  0
  8  4  2  0  0  0  0
  9  5  1  0  0  0  0
 11 15  1  0  0  0  0
 12 16  1  0  0  0  0
 13 11  2  0  0  0  0
 14 13  1  0  0  0  0
 14 17  1  0  0  0  0
 15 16  2  0  0  0  0
 16 10  1  0  0  0  0
 17 12  1  0  0  0  0
 18 20  1  6  0  0  0
 18  8  1  0  0  0  0
 20 19  1  0  0  0  0
 21 23  1  6  0  0  0
 21 18  1  0  0  0  0
 21 31  1  0  0  0  0
 24 22  2  0  0  0  0
 24 23  1  0  0  0  0
 25 24  1  0  0  0  0
 26 28  1  0  0  0  0
 27 30  1  0  0  0  0
 27 25  1  0  0  0  0
 28 27  2  0  0  0  0
 29 30  1  0  0  0  0
 31 32  1  0  0  0  0
 32 34  1  0  0  0  0
 33 34  2  0  0  0  0
 34 35  1  0  0  0  0
 35 36  1  0  0  0  0
 36 37  1  0  0  0  0
 38 37  1  0  0  0  0
 38 39  1  0  0  0  0
 40 39  1  0  0  0  0
 42 40  1  0  0  0  0
 42 41  1  0  0  0  0
 43 49  1  6  0  0  0
 44 54  1  6  0  0  0
 44 47  1  0  0  0  0
 44 50  1  0  0  0  0
 45 51  1  0  0  0  0
 47 48  1  0  0  0  0
 48 51  1  0  0  0  0
 50 46  2  0  0  0  0
 50 45  1  0  0  0  0
 51 49  2  0  0  0  0
 52 54  1  0  0  0  0
 53 54  1  0  0  0  0
 55 43  1  0  0  0  0
 55 56  1  0  0  0  0
M  END
>  <MODEL>
2

>  <REMARK>
 VINA RESULT:      -4.6      1.878      4.708
  Name = 
  23 active torsions:
  status: ('A' for Active; 'I' for Inactive)
    1  A    between atoms: N_4  and  C_26
    2  A    between atoms: C_5  and  C_25
    3  A    between atoms: C_5  and  C_51
    4  A    between atoms: C_6  and  C_55
    5  A    between atoms: C_7  and  C_53
    6  A    between atoms: C_14  and  O_23
    7  A    between atoms: C_14  and  C_34
    8  A    between atoms: C_14  and  N_49
    9  A    between atoms: C_21  and  C_35
   10  A    between atoms: O_23  and  C_45
   11  A    between atoms: C_25  and  C_48
   12  A    between atoms: C_26  and  C_31
   13  A    between atoms: C_26  and  C_40
   14  A    between atoms: S_28  and  C_42
   15  A    between atoms: S_28  and  C_48
   16  A    between atoms: C_33  and  C_44
   17  A    between atoms: C_33  and  C_50
   18  A    between atoms: C_34  and  O_46
   19  A    between atoms: C_34  and  C_52
   20  A    between atoms: C_35  and  C_51
   21  A    between atoms: C_36  and  C_53
   22  A    between atoms: C_42  and  C_45
   23  A    between atoms: C_50  and  C_56
                            x       y       z     vdW  Elec       q    Type
                         _______ _______ _______ _____ _____    ______ ____

>  <TORSDO>
F 23

$$$$
=
 OpenBabel11072414193D

 56 59  0  0  1  0  0  0  0  0999 V2000
  162.3860  209.5090  151.8700 C   0  0  0  0  0  3  0  0  0  0  0  0
  161.2890  211.6570  147.8420 C   0  0  1  0  0  3  0  0  0  0  0  0
  161.4460  210.2510  147.9040 O   0  0  0  0  0  0  0  0  0  0  0  0
  162.2680  208.3950  151.0210 C   0  0  0  0  0  3  0  0  0  0  0  0
  162.1340  210.8000  151.3810 C   0  0  0  0  0  3  0  0  0  0  0  0
  161.7200  209.8600  149.2000 C   0  0  0  0  0  0  0  0  0  0  0  0
  161.5100  212.2010  149.2740 C   0  0  2  0  0  3  0  0  0  0  0  0
  161.9220  208.5560  149.6660 C   0  0  0  0  0  0  0  0  0  0  0  0
  161.7600  210.9410  150.0410 C   0  0  0  0  0  0  0  0  0  0  0  0
  162.2780  212.2660  146.8640 C   0  0  0  0  0  2  0  0  0  0  0  0
  161.9470  213.6730  143.2670 C   0  0  0  0  0  3  0  0  0  0  0  0
  160.0840  212.7050  145.5370 C   0  0  0  0  0  2  0  0  0  0  0  0
  160.7540  213.5940  142.6580 C   0  0  0  0  0  3  0  0  0  0  0  0
  159.4460  213.0810  143.2070 C   0  0  0  0  0  2  0  0  0  0  0  0
  162.3410  213.2290  144.6230 C   0  0  0  0  0  3  0  0  0  0  0  0
  161.5790  212.7320  145.6080 C   0  0  0  0  0  0  0  0  0  0  0  0
  159.6020  212.0180  144.2730 C   0  0  0  0  0  2  0  0  0  0  0  0
  161.8290  207.3250  148.7860 C   0  0  1  0  0  3  0  0  0  0  0  0
  161.3690  207.0930  146.5500 C   0  0  0  0  0  1  0  0  0  0  0  0
  162.3570  207.4620  147.4780 O   0  0  0  0  0  0  0  0  0  0  0  0
  161.9430  205.9250  149.4480 C   0  0  2  0  0  3  0  0  0  0  0  0
  160.4120  204.1240  147.5510 O   0  0  0  0  0  0  0  0  0  0  0  0
  162.4080  204.9650  148.4560 N   0  0  0  0  0  2  0  0  0  0  0  0
  161.6030  203.9170  147.8960 C   0  0  0  0  0  0  0  0  0  0  0  0
  162.1960  202.5630  147.7180 C   0  0  0  0  0  2  0  0  0  0  0  0
  161.0340  201.0290  149.8110 O   0  0  0  0  0  1  0  0  0  0  0  0
  161.1510  201.5220  147.4870 C   0  0  0  0  0  0  0  0  0  0  0  0
  160.6460  200.8100  148.4940 C   0  0  0  0  0  3  0  0  0  0  0  0
  161.0010  199.8690  145.7390 N   0  0  0  0  0  1  0  0  0  0  0  0
  160.6800  201.2400  146.0980 C   0  0  0  0  0  2  0  0  0  0  0  0
  160.7350  205.5180  150.0160 O   0  0  0  0  0  0  0  0  0  0  0  0
  160.6460  206.2130  151.2290 C   0  0  0  0  0  2  0  0  0  0  0  0
  160.5520  203.9710  152.2050 C   0  0  0  0  0  2  0  0  0  0  0  0
  160.8580  205.2670  152.3660 C   0  0  0  0  0  0  0  0  0  0  0  0
  161.8710  205.7770  153.7790 S   0  0  0  0  0  0  0  0  0  0  0  0
  161.0900  207.4180  153.9950 C   0  0  0  0  0  2  0  0  0  0  0  0
  159.9000  207.3160  154.9420 C   0  0  0  0  0  2  0  0  0  0  0  0
  160.3780  206.8450  156.3180 C   0  0  0  0  0  2  0  0  0  0  0  0
  160.9620  208.0100  157.0970 C   0  0  0  0  0  2  0  0  0  0  0  0
  160.3800  209.3180  156.5880 C   0  0  0  0  0  2  0  0  0  0  0  0
  161.2030  211.6480  156.7030 C   0  0  0  0  0  1  0  0  0  0  0  0
  161.4960  210.2630  156.1680 C   0  0  0  0  0  2  0  0  0  0  0  0
  160.2900  212.9910  149.8050 C   0  0  1  0  0  3  0  0  0  0  0  0
  156.7540  213.0140  153.8300 C   0  0  1  0  0  3  0  0  0  0  0  0
  159.3540  212.6600  153.5780 C   0  0  0  0  0  2  0  0  0  0  0  0
  157.9590  211.1670  154.9440 C   0  0  0  0  0  2  0  0  0  0  0  0
  157.0220  214.1380  152.8460 C   0  0  0  0  0  2  0  0  0  0  0  0
  157.8560  213.6350  151.6690 C   0  0  0  0  0  2  0  0  0  0  0  0
  160.2000  212.7970  151.3010 C   0  0  0  0  0  3  0  0  0  0  0  0
  158.0380  212.2840  154.2090 C   0  0  0  0  0  0  0  0  0  0  0  0
  159.1550  213.0100  152.1310 C   0  0  0  0  0  0  0  0  0  0  0  0
  154.9420  214.4530  154.5960 O   0  0  0  0  0  1  0  0  0  0  0  0
  156.8100  214.2520  155.9140 O   0  0  0  0  0  1  0  0  0  0  0  0
  155.9570  213.5900  155.0220 C   0  0  0  0  0  3  0  0  0  0  0  0
  160.3700  214.4090  149.4180 N   0  0  0  0  0  2  0  0  0  0  0  0
  160.7360  214.4510  148.1140 O   0  0  0  0  0  1  0  0  0  0  0  0
  2 10  1  6  0  0  0
  2  3  1  0  0  0  0
  2  7  1  0  0  0  0
  3  6  1  0  0  0  0
  4  1  2  0  0  0  0
  5  1  1  0  0  0  0
  6  8  2  0  0  0  0
  6  9  1  0  0  0  0
  7 43  1  1  0  0  0
  7  9  1  0  0  0  0
  8  4  1  0  0  0  0
  9  5  2  0  0  0  0
 11 15  1  0  0  0  0
 12 16  1  0  0  0  0
 13 14  1  0  0  0  0
 13 11  2  0  0  0  0
 14 17  1  0  0  0  0
 15 16  2  0  0  0  0
 16 10  1  0  0  0  0
 17 12  1  0  0  0  0
 18 20  1  6  0  0  0
 18 21  1  0  0  0  0
 18  8  1  0  0  0  0
 19 20  1  0  0  0  0
 21 23  1  6  0  0  0
 21 31  1  0  0  0  0
 22 24  2  0  0  0  0
 24 23  1  0  0  0  0
 25 24  1  0  0  0  0
 27 25  1  0  0  0  0
 27 28  2  0  0  0  0
 28 26  1  0  0  0  0
 29 30  1  0  0  0  0
 30 27  1  0  0  0  0
 31 32  1  0  0  0  0
 32 34  1  0  0  0  0
 33 34  2  0  0  0  0
 34 35  1  0  0  0  0
 35 36  1  0  0  0  0
 36 37  1  0  0  0  0
 37 38  1  0  0  0  0
 38 39  1  0  0  0  0
 40 39  1  0  0  0  0
 42 40  1  0  0  0  0
 42 41  1  0  0  0  0
 43 49  1  1  0  0  0
 44 50  1  0  0  0  0
 44 54  1  1  0  0  0
 45 50  1  0  0  0  0
 47 44  1  0  0  0  0
 48 51  1  0  0  0  0
 48 47  1  0  0  0  0
 49 51  2  0  0  0  0
 50 46  2  0  0  0  0
 51 45  1  0  0  0  0
 52 54  1  0  0  0  0
 54 53  1  0  0  0  0
 55 43  1  0  0  0  0
 56 55  1  0  0  0  0
M  END
>  <MODEL>
3

>  <REMARK>
 VINA RESULT:      -4.0      2.685     10.260
  Name = 
  23 active torsions:
  status: ('A' for Active; 'I' for Inactive)
    1  A    between atoms: N_4  and  C_26
    2  A    between atoms: C_5  and  C_25
    3  A    between atoms: C_5  and  C_51
    4  A    between atoms: C_6  and  C_55
    5  A    between atoms: C_7  and  C_53
    6  A    between atoms: C_14  and  O_23
    7  A    between atoms: C_14  and  C_34
    8  A    between atoms: C_14  and  N_49
    9  A    between atoms: C_21  and  C_35
   10  A    between atoms: O_23  and  C_45
   11  A    between atoms: C_25  and  C_48
   12  A    between atoms: C_26  and  C_31
   13  A    between atoms: C_26  and  C_40
   14  A    between atoms: S_28  and  C_42
   15  A    between atoms: S_28  and  C_48
   16  A    between atoms: C_33  and  C_44
   17  A    between atoms: C_33  and  C_50
   18  A    between atoms: C_34  and  O_46
   19  A    between atoms: C_34  and  C_52
   20  A    between atoms: C_35  and  C_51
   21  A    between atoms: C_36  and  C_53
   22  A    between atoms: C_42  and  C_45
   23  A    between atoms: C_50  and  C_56
                            x       y       z     vdW  Elec       q    Type
                         _______ _______ _______ _____ _____    ______ ____

>  <TORSDO>
F 23

$$$$
=
 OpenBabel11072414193D

 56 59  0  0  1  0  0  0  0  0999 V2000
  162.1630  209.4040  148.2670 C   0  0  0  0  0  3  0  0  0  0  0  0
  160.0760  211.7440  151.7620 C   0  0  1  0  0  3  0  0  0  0  0  0
  160.7640  210.5280  152.0010 O   0  0  0  0  0  0  0  0  0  0  0  0
  162.5040  208.5790  149.3530 C   0  0  0  0  0  3  0  0  0  0  0  0
  161.4290  210.5810  148.4770 C   0  0  0  0  0  3  0  0  0  0  0  0
  161.3260  210.0620  150.8280 C   0  0  0  0  0  0  0  0  0  0  0  0
  160.2210  212.0560  150.2530 C   0  0  2  0  0  3  0  0  0  0  0  0
  162.0940  208.9050  150.6600 C   0  0  0  0  0  0  0  0  0  0  0  0
  161.0570  210.9080  149.7840 C   0  0  0  0  0  0  0  0  0  0  0  0
  158.6170  211.6230  152.1620 C   0  0  0  0  0  2  0  0  0  0  0  0
  159.5460  212.9000  155.7020 C   0  0  0  0  0  3  0  0  0  0  0  0
  157.1710  211.4830  154.3200 C   0  0  0  0  0  2  0  0  0  0  0  0
  158.5790  212.9680  156.6300 C   0  0  0  0  0  3  0  0  0  0  0  0
  157.1360  212.5410  156.5240 C   0  0  0  0  0  2  0  0  0  0  0  0
  159.4680  212.4460  154.2950 C   0  0  0  0  0  3  0  0  0  0  0  0
  158.4360  211.8980  153.6360 C   0  0  0  0  0  0  0  0  0  0  0  0
  156.5730  212.6240  155.1210 C   0  0  0  0  0  2  0  0  0  0  0  0
  162.4680  207.9710  151.7940 C   0  0  1  0  0  3  0  0  0  0  0  0
  160.6430  207.6780  153.1540 C   0  0  0  0  0  1  0  0  0  0  0  0
  161.9080  208.2830  153.0580 O   0  0  0  0  0  0  0  0  0  0  0  0
  162.7000  206.4690  151.4780 C   0  0  2  0  0  3  0  0  0  0  0  0
  160.1650  206.1780  149.8420 O   0  0  0  0  0  0  0  0  0  0  0  0
  162.5020  206.2450  150.0520 N   0  0  0  0  0  2  0  0  0  0  0  0
  161.2870  205.7570  149.4640 C   0  0  0  0  0  0  0  0  0  0  0  0
  161.3640  204.7350  148.3840 C   0  0  0  0  0  2  0  0  0  0  0  0
  163.5100  203.9950  146.6710 O   0  0  0  0  0  1  0  0  0  0  0  0
  161.5940  205.3550  147.0450 C   0  0  0  0  0  0  0  0  0  0  0  0
  162.6250  204.9940  146.2810 C   0  0  0  0  0  3  0  0  0  0  0  0
  159.7180  205.8670  145.6210 N   0  0  0  0  0  1  0  0  0  0  0  0
  160.6780  206.4280  146.5580 C   0  0  0  0  0  2  0  0  0  0  0  0
  161.8700  205.6420  152.2370 O   0  0  0  0  0  0  0  0  0  0  0  0
  162.3730  204.3480  152.0560 C   0  0  0  0  0  2  0  0  0  0  0  0
  160.0090  203.7970  152.3680 C   0  0  0  0  0  2  0  0  0  0  0  0
  161.2590  203.3580  152.1640 C   0  0  0  0  0  0  0  0  0  0  0  0
  161.5290  201.6450  151.6340 S   0  0  0  0  0  0  0  0  0  0  0  0
  161.1690  201.9320  149.8630 C   0  0  0  0  0  2  0  0  0  0  0  0
  159.7790  201.4130  149.5160 C   0  0  0  0  0  2  0  0  0  0  0  0
  159.5770  201.4600  148.0000 C   0  0  0  0  0  2  0  0  0  0  0  0
  160.9190  201.4640  147.2910 C   0  0  0  0  0  2  0  0  0  0  0  0
  160.7340  201.8360  145.8300 C   0  0  0  0  0  2  0  0  0  0  0  0
  160.8980  199.4060  145.3950 C   0  0  0  0  0  1  0  0  0  0  0  0
  160.1320  200.6670  145.0620 C   0  0  0  0  0  2  0  0  0  0  0  0
  160.8890  213.4280  149.9920 C   0  0  1  0  0  3  0  0  0  0  0  0
  161.7890  213.1420  144.7180 C   0  0  1  0  0  3  0  0  0  0  0  0
  160.1330  214.4450  146.3020 C   0  0  0  0  0  2  0  0  0  0  0  0
  159.3670  213.3100  144.2610 C   0  0  0  0  0  2  0  0  0  0  0  0
  162.7890  213.5260  145.7940 C   0  0  0  0  0  2  0  0  0  0  0  0
  162.2470  213.1800  147.1800 C   0  0  0  0  0  2  0  0  0  0  0  0
  160.3840  213.9700  148.6750 C   0  0  0  0  0  3  0  0  0  0  0  0
  160.3990  213.6890  145.0260 C   0  0  0  0  0  0  0  0  0  0  0  0
  160.9080  213.8390  147.4360 C   0  0  0  0  0  0  0  0  0  0  0  0
  162.3690  212.5000  142.4390 O   0  0  0  0  0  1  0  0  0  0  0  0
  163.6580  214.0810  143.4910 O   0  0  0  0  0  1  0  0  0  0  0  0
  162.3650  213.5640  143.3470 C   0  0  0  0  0  3  0  0  0  0  0  0
  160.6570  214.3510  151.1140 N   0  0  0  0  0  2  0  0  0  0  0  0
  159.3170  214.4520  151.2830 O   0  0  0  0  0  1  0  0  0  0  0  0
  1  5  2  0  0  0  0
  1  4  1  0  0  0  0
  2  3  1  0  0  0  0
  2 10  1  6  0  0  0
  4  8  2  0  0  0  0
  5  9  1  0  0  0  0
  6  3  1  0  0  0  0
  7 43  1  1  0  0  0
  7  2  1  0  0  0  0
  8  6  1  0  0  0  0
  8 18  1  0  0  0  0
  9  7  1  0  0  0  0
  9  6  2  0  0  0  0
 10 16  1  0  0  0  0
 11 13  2  0  0  0  0
 12 17  1  0  0  0  0
 14 13  1  0  0  0  0
 15 11  1  0  0  0  0
 16 15  2  0  0  0  0
 16 12  1  0  0  0  0
 17 14  1  0  0  0  0
 18 20  1  1  0  0  0
 20 19  1  0  0  0  0
 21 23  1  6  0  0  0
 21 18  1  0  0  0  0
 21 31  1  0  0  0  0
 24 22  2  0  0  0  0
 24 23  1  0  0  0  0
 25 24  1  0  0  0  0
 27 25  1  0  0  0  0
 28 26  1  0  0  0  0
 28 27  2  0  0  0  0
 29 30  1  0  0  0  0
 30 27  1  0  0  0  0
 32 34  1  0  0  0  0
 32 31  1  0  0  0  0
 34 33  2  0  0  0  0
 35 34  1  0  0  0  0
 36 35  1  0  0  0  0
 37 36  1  0  0  0  0
 38 37  1  0  0  0  0
 39 38  1  0  0  0  0
 40 39  1  0  0  0  0
 42 41  1  0  0  0  0
 42 40  1  0  0  0  0
 43 49  1  6  0  0  0
 43 55  1  0  0  0  0
 44 54  1  6  0  0  0
 44 50  1  0  0  0  0
 44 47  1  0  0  0  0
 45 51  1  0  0  0  0
 46 50  2  0  0  0  0
 47 48  1  0  0  0  0
 48 51  1  0  0  0  0
 50 45  1  0  0  0  0
 51 49  2  0  0  0  0
 52 54  1  0  0  0  0
 54 53  1  0  0  0  0
 55 56  1  0  0  0  0
M  END
>  <MODEL>
4

>  <REMARK>
 VINA RESULT:      -3.0      2.952      9.546
  Name = 
  23 active torsions:
  status: ('A' for Active; 'I' for Inactive)
    1  A    between atoms: N_4  and  C_26
    2  A    between atoms: C_5  and  C_25
    3  A    between atoms: C_5  and  C_51
    4  A    between atoms: C_6  and  C_55
    5  A    between atoms: C_7  and  C_53
    6  A    between atoms: C_14  and  O_23
    7  A    between atoms: C_14  and  C_34
    8  A    between atoms: C_14  and  N_49
    9  A    between atoms: C_21  and  C_35
   10  A    between atoms: O_23  and  C_45
   11  A    between atoms: C_25  and  C_48
   12  A    between atoms: C_26  and  C_31
   13  A    between atoms: C_26  and  C_40
   14  A    between atoms: S_28  and  C_42
   15  A    between atoms: S_28  and  C_48
   16  A    between atoms: C_33  and  C_44
   17  A    between atoms: C_33  and  C_50
   18  A    between atoms: C_34  and  O_46
   19  A    between atoms: C_34  and  C_52
   20  A    between atoms: C_35  and  C_51
   21  A    between atoms: C_36  and  C_53
   22  A    between atoms: C_42  and  C_45
   23  A    between atoms: C_50  and  C_56
                            x       y       z     vdW  Elec       q    Type
                         _______ _______ _______ _____ _____    ______ ____

>  <TORSDO>
F 23

$$$$
