=
 OpenBabel11072411243D

 42 46  0  0  1  0  0  0  0  0999 V2000
  160.7520  208.8210  155.4480 C   0  0  0  0  0  2  0  0  0  0  0  0
  160.1390  211.8430  151.2000 C   0  0  0  0  0  0  0  0  0  0  0  0
  160.9130  208.4280  154.0520 N   0  0  0  0  0  0  0  0  0  0  0  0
  161.0270  210.8500  151.1330 C   0  0  0  0  0  3  0  0  0  0  0  0
  158.9220  211.7480  152.0690 C   0  0  0  0  0  2  0  0  0  0  0  0
  159.9190  210.5340  153.9860 C   0  0  0  0  0  0  0  0  0  0  0  0
  159.2250  211.5700  153.5200 C   0  0  0  0  0  3  0  0  0  0  0  0
  162.5610  206.7900  154.2350 O   0  0  0  0  0  0  0  0  0  0  0  0
  160.0390  210.1880  155.4380 C   0  0  1  0  0  3  0  0  0  0  0  0
  161.0720  209.6360  151.9710 C   0  0  0  0  0  3  0  0  0  0  0  0
  161.5230  207.1950  153.6480 C   0  0  0  0  0  0  0  0  0  0  0  0
  160.5420  209.4920  153.1920 C   0  0  0  0  0  0  0  0  0  0  0  0
  159.9390  214.3690  150.8700 C   0  0  0  0  0  2  0  0  0  0  0  0
  160.3670  213.0290  150.2990 C   0  0  1  0  0  0  0  0  0  0  0  0
  161.5260  213.0610  149.4830 O   0  0  0  0  0  0  0  0  0  0  0  0
  159.8590  214.2350  148.2080 C   0  0  1  0  0  3  0  0  0  0  0  0
  162.1510  213.9150  147.4230 O   0  0  0  0  0  0  0  0  0  0  0  0
  159.2790  213.8350  149.5900 C   0  0  2  0  0  0  0  0  0  0  0  0
  161.2660  213.7290  148.3030 C   0  0  0  0  0  0  0  0  0  0  0  0
  157.1070  214.3590  149.8180 C   0  0  0  0  0  1  0  0  0  0  0  0
  157.9920  213.2790  149.6930 O   0  0  0  0  0  0  0  0  0  0  0  0
  159.1110  213.5790  147.0300 C   0  0  2  0  0  3  0  0  0  0  0  0
  159.5430  212.2620  146.8400 O   0  0  0  0  0  1  0  0  0  0  0  0
  159.8640  213.5310  144.7500 O   0  0  0  0  0  1  0  0  0  0  0  0
  159.3020  214.3490  145.7320 C   0  0  0  0  0  2  0  0  0  0  0  0
  158.7110  210.0430  156.0160 N   0  0  0  0  0  2  0  0  0  0  0  0
  158.5440  211.0510  156.9030 O   0  0  0  0  0  1  0  0  0  0  0  0
  160.9020  206.3690  152.5580 C   0  0  1  0  0  3  0  0  0  0  0  0
  163.2010  207.3050  149.7490 C   0  0  0  0  0  3  0  0  0  0  0  0
  162.3130  207.4920  148.6850 C   0  0  0  0  0  3  0  0  0  0  0  0
  162.7300  206.9520  150.9750 N   0  0  0  0  0  0  0  0  0  0  0  0
  161.3960  206.7730  151.2070 C   0  0  0  0  0  0  0  0  0  0  0  0
  160.9430  207.3050  148.9000 C   0  0  0  0  0  3  0  0  0  0  0  0
  160.4780  206.9390  150.1640 C   0  0  0  0  0  3  0  0  0  0  0  0
  161.0920  202.7390  152.0840 O   0  0  0  0  0  0  0  0  0  0  0  0
  160.9410  203.9490  151.7820 C   0  0  0  0  0  0  0  0  0  0  0  0
  161.1540  204.9480  152.7790 N   0  0  0  0  0  2  0  0  0  0  0  0
  160.5230  204.3140  150.3960 C   0  0  0  0  0  2  0  0  0  0  0  0
  160.1330  203.0770  149.6090 C   0  0  0  0  0  2  0  0  0  0  0  0
  161.7640  204.0290  147.9810 O   0  0  0  0  0  1  0  0  0  0  0  0
  161.0460  202.9330  148.4470 C   0  0  0  0  0  0  0  0  0  0  0  0
  161.1980  201.8150  147.9020 O   0  0  0  0  0  0  0  0  0  0  0  0
  2  5  1  0  0  0  0
  3  1  1  0  0  0  0
  4  2  2  0  0  0  0
  4 10  1  0  0  0  0
  5  7  1  0  0  0  0
  6  9  1  0  0  0  0
  7  6  2  0  0  0  0
  9  1  1  0  0  0  0
  9 26  1  6  0  0  0
 10 12  2  0  0  0  0
 11  3  1  0  0  0  0
 11  8  2  0  0  0  0
 12  6  1  0  0  0  0
 12  3  1  0  0  0  0
 14 13  1  0  0  0  0
 14  2  1  1  0  0  0
 15 14  1  0  0  0  0
 16 22  1  6  0  0  0
 16 19  1  0  0  0  0
 16 18  1  0  0  0  0
 17 19  2  0  0  0  0
 18 21  1  1  0  0  0
 18 14  1  0  0  0  0
 18 13  1  0  0  0  0
 19 15  1  0  0  0  0
 21 20  1  0  0  0  0
 22 23  1  6  0  0  0
 24 25  1  0  0  0  0
 25 22  1  0  0  0  0
 26 27  1  0  0  0  0
 28 37  1  1  0  0  0
 28 11  1  0  0  0  0
 29 31  1  0  0  0  0
 30 33  1  0  0  0  0
 30 29  2  0  0  0  0
 31 32  2  0  0  0  0
 32 28  1  0  0  0  0
 33 34  2  0  0  0  0
 34 32  1  0  0  0  0
 36 35  2  0  0  0  0
 36 37  1  0  0  0  0
 38 36  1  0  0  0  0
 39 38  1  0  0  0  0
 40 41  1  0  0  0  0
 41 39  1  0  0  0  0
 42 41  2  0  0  0  0
M  END
>  <MODEL>
1

>  <REMARK>
 VINA RESULT:      -4.9      0.000      0.000
  Name = 
  11 active torsions:
  status: ('A' for Active; 'I' for Inactive)
    1  A    between atoms: C_2  and  C_12
    2  A    between atoms: C_2  and  C_34
    3  A    between atoms: C_5  and  C_13
    4  A    between atoms: C_9  and  C_24
    5  A    between atoms: C_9  and  C_35
    6  A    between atoms: C_11  and  C_16
    7  A    between atoms: C_11  and  N_33
    8  A    between atoms: C_11  and  C_36
    9  A    between atoms: N_20  and  C_30
   10  A    between atoms: C_29  and  C_34
   11  A    between atoms: O_37  and  C_41
                            x       y       z     vdW  Elec       q    Type
                         _______ _______ _______ _____ _____    ______ ____

>  <TORSDO>
F 11

$$$$
=
 OpenBabel11072411243D

 42 46  0  0  1  0  0  0  0  0999 V2000
  162.5840  210.1930  150.3070 C   0  0  0  0  0  2  0  0  0  0  0  0
  160.7100  205.2920  150.3630 C   0  0  0  0  0  0  0  0  0  0  0  0
  161.9440  209.5040  151.4220 N   0  0  0  0  0  0  0  0  0  0  0  0
  161.1870  205.7870  151.5060 C   0  0  0  0  0  3  0  0  0  0  0  0
  160.0890  206.1760  149.3250 C   0  0  0  0  0  2  0  0  0  0  0  0
  161.5770  208.1440  149.5670 C   0  0  0  0  0  0  0  0  0  0  0  0
  161.0120  207.2220  148.7900 C   0  0  0  0  0  3  0  0  0  0  0  0
  163.0290  210.4850  153.2380 O   0  0  0  0  0  0  0  0  0  0  0  0
  162.3050  209.3460  149.0500 C   0  0  1  0  0  3  0  0  0  0  0  0
  161.3470  207.2090  151.8630 C   0  0  0  0  0  3  0  0  0  0  0  0
  161.9660  209.9980  152.7680 C   0  0  0  0  0  0  0  0  0  0  0  0
  161.4640  208.2350  151.0110 C   0  0  0  0  0  0  0  0  0  0  0  0
  161.9650  203.1040  150.7740 C   0  0  0  0  0  2  0  0  0  0  0  0
  160.7420  203.7940  150.1990 C   0  0  1  0  0  0  0  0  0  0  0  0
  159.5300  203.0640  150.3020 O   0  0  0  0  0  0  0  0  0  0  0  0
  160.8470  201.8220  148.7200 C   0  0  1  0  0  3  0  0  0  0  0  0
  158.6100  201.1310  149.4210 O   0  0  0  0  0  0  0  0  0  0  0  0
  161.6720  203.0160  149.2690 C   0  0  2  0  0  0  0  0  0  0  0  0
  159.5630  201.9560  149.4810 C   0  0  0  0  0  0  0  0  0  0  0  0
  161.5960  204.1050  147.3060 C   0  0  0  0  0  1  0  0  0  0  0  0
  162.4260  203.8250  148.4010 O   0  0  0  0  0  0  0  0  0  0  0  0
  160.6040  201.9080  147.2000 C   0  0  2  0  0  3  0  0  0  0  0  0
  159.2340  201.9620  146.9190 O   0  0  0  0  0  1  0  0  0  0  0  0
  161.6110  199.7330  147.3510 O   0  0  0  0  0  1  0  0  0  0  0  0
  161.2110  200.7280  146.4560 C   0  0  0  0  0  2  0  0  0  0  0  0
  161.4380  210.0910  148.1490 N   0  0  0  0  0  2  0  0  0  0  0  0
  161.6270  211.4060  148.4020 O   0  0  0  0  0  1  0  0  0  0  0  0
  160.7170  209.9720  153.6010 C   0  0  1  0  0  3  0  0  0  0  0  0
  161.7850  208.5660  156.9080 C   0  0  0  0  0  3  0  0  0  0  0  0
  161.0720  207.3650  156.9670 C   0  0  0  0  0  3  0  0  0  0  0  0
  161.6610  209.3790  155.8250 N   0  0  0  0  0  0  0  0  0  0  0  0
  160.8510  209.0560  154.7730 C   0  0  0  0  0  0  0  0  0  0  0  0
  160.2290  207.0190  155.9040 C   0  0  0  0  0  3  0  0  0  0  0  0
  160.1120  207.8680  154.8030 C   0  0  0  0  0  3  0  0  0  0  0  0
  158.8110  212.9650  154.5220 O   0  0  0  0  0  0  0  0  0  0  0  0
  159.0240  211.7650  154.2210 C   0  0  0  0  0  0  0  0  0  0  0  0
  160.3690  211.3160  154.0530 N   0  0  0  0  0  2  0  0  0  0  0  0
  157.8690  210.8390  154.0240 C   0  0  0  0  0  2  0  0  0  0  0  0
  156.5550  211.5840  154.1670 C   0  0  0  0  0  2  0  0  0  0  0  0
  155.1430  209.7860  155.1600 O   0  0  0  0  0  0  0  0  0  0  0  0
  155.7900  211.0070  155.3020 C   0  0  0  0  0  0  0  0  0  0  0  0
  155.7540  211.6050  156.4020 O   0  0  0  0  0  1  0  0  0  0  0  0
  1  3  1  0  0  0  0
  2  4  2  0  0  0  0
  3 11  1  0  0  0  0
  4 10  1  0  0  0  0
  5  2  1  0  0  0  0
  6 12  1  0  0  0  0
  7  5  1  0  0  0  0
  7  6  2  0  0  0  0
  9 26  1  6  0  0  0
  9  6  1  0  0  0  0
  9  1  1  0  0  0  0
 11  8  2  0  0  0  0
 12  3  1  0  0  0  0
 12 10  2  0  0  0  0
 14 15  1  0  0  0  0
 14  2  1  6  0  0  0
 14 13  1  0  0  0  0
 16 22  1  6  0  0  0
 16 18  1  0  0  0  0
 16 19  1  0  0  0  0
 17 19  2  0  0  0  0
 18 21  1  6  0  0  0
 18 14  1  0  0  0  0
 18 13  1  0  0  0  0
 19 15  1  0  0  0  0
 20 21  1  0  0  0  0
 22 23  1  1  0  0  0
 25 22  1  0  0  0  0
 25 24  1  0  0  0  0
 26 27  1  0  0  0  0
 28 11  1  1  0  0  0
 28 37  1  0  0  0  0
 28 32  1  0  0  0  0
 29 30  1  0  0  0  0
 31 29  2  0  0  0  0
 32 34  2  0  0  0  0
 32 31  1  0  0  0  0
 33 30  2  0  0  0  0
 34 33  1  0  0  0  0
 36 35  2  0  0  0  0
 37 36  1  0  0  0  0
 38 39  1  0  0  0  0
 38 36  1  0  0  0  0
 39 41  1  0  0  0  0
 40 41  2  0  0  0  0
 41 42  1  0  0  0  0
M  END
>  <MODEL>
2

>  <REMARK>
 VINA RESULT:      -4.6      3.024      8.972
  Name = 
  11 active torsions:
  status: ('A' for Active; 'I' for Inactive)
    1  A    between atoms: C_2  and  C_12
    2  A    between atoms: C_2  and  C_34
    3  A    between atoms: C_5  and  C_13
    4  A    between atoms: C_9  and  C_24
    5  A    between atoms: C_9  and  C_35
    6  A    between atoms: C_11  and  C_16
    7  A    between atoms: C_11  and  N_33
    8  A    between atoms: C_11  and  C_36
    9  A    between atoms: N_20  and  C_30
   10  A    between atoms: C_29  and  C_34
   11  A    between atoms: O_37  and  C_41
                            x       y       z     vdW  Elec       q    Type
                         _______ _______ _______ _____ _____    ______ ____

>  <TORSDO>
F 11

$$$$
=
 OpenBabel11072411243D

 42 46  0  0  1  0  0  0  0  0999 V2000
  162.4440  206.1600  152.3130 C   0  0  0  0  0  2  0  0  0  0  0  0
  159.9800  209.9950  154.9140 C   0  0  0  0  0  0  0  0  0  0  0  0
  161.9730  207.4320  151.7760 N   0  0  0  0  0  0  0  0  0  0  0  0
  160.7560  210.3420  153.8860 C   0  0  0  0  0  3  0  0  0  0  0  0
  159.2750  208.6740  154.9530 C   0  0  0  0  0  2  0  0  0  0  0  0
  161.0320  207.2770  153.9020 C   0  0  0  0  0  0  0  0  0  0  0  0
  160.1920  207.4960  154.9110 C   0  0  0  0  0  3  0  0  0  0  0  0
  163.5490  207.8220  150.1020 O   0  0  0  0  0  0  0  0  0  0  0  0
  161.7870  206.0000  153.6990 C   0  0  1  0  0  3  0  0  0  0  0  0
  161.1810  209.4860  152.7620 C   0  0  0  0  0  3  0  0  0  0  0  0
  162.3530  207.9290  150.4860 C   0  0  0  0  0  0  0  0  0  0  0  0
  161.2480  208.1490  152.7620 C   0  0  0  0  0  0  0  0  0  0  0  0
  158.9200  210.5740  157.1660 C   0  0  0  0  0  2  0  0  0  0  0  0
  159.7720  211.0260  155.9940 C   0  0  1  0  0  0  0  0  0  0  0  0
  160.8360  211.9040  156.3220 O   0  0  0  0  0  0  0  0  0  0  0  0
  158.8470  213.1990  156.7060 C   0  0  1  0  0  3  0  0  0  0  0  0
  161.0960  214.0720  157.0930 O   0  0  0  0  0  0  0  0  0  0  0  0
  158.4620  211.7530  156.2960 C   0  0  2  0  0  0  0  0  0  0  0  0
  160.3430  213.1310  156.7210 C   0  0  0  0  0  0  0  0  0  0  0  0
  156.2720  211.3050  156.0860 C   0  0  0  0  0  1  0  0  0  0  0  0
  157.4450  211.5220  155.3520 O   0  0  0  0  0  0  0  0  0  0  0  0
  158.3500  214.2600  155.7030 C   0  0  2  0  0  3  0  0  0  0  0  0
  156.9590  214.3970  155.7750 O   0  0  0  0  0  1  0  0  0  0  0  0
  157.6490  214.0930  153.4120 O   0  0  0  0  0  1  0  0  0  0  0  0
  158.7350  213.9170  154.2710 C   0  0  0  0  0  2  0  0  0  0  0  0
  160.8540  204.8830  153.6630 N   0  0  0  0  0  2  0  0  0  0  0  0
  161.1740  204.1230  152.5910 O   0  0  0  0  0  1  0  0  0  0  0  0
  161.3230  208.5370  149.5790 C   0  0  1  0  0  3  0  0  0  0  0  0
  162.3890  211.8130  148.0990 C   0  0  0  0  0  3  0  0  0  0  0  0
  161.9190  212.7330  149.0400 C   0  0  0  0  0  3  0  0  0  0  0  0
  162.1930  210.4810  148.2930 N   0  0  0  0  0  0  0  0  0  0  0  0
  161.5420  210.0040  149.3950 C   0  0  0  0  0  0  0  0  0  0  0  0
  161.2420  212.2660  150.1720 C   0  0  0  0  0  3  0  0  0  0  0  0
  161.0470  210.8960  150.3520 C   0  0  0  0  0  3  0  0  0  0  0  0
  161.0560  205.9730  146.9730 O   0  0  0  0  0  0  0  0  0  0  0  0
  160.9460  206.4990  148.1080 C   0  0  0  0  0  0  0  0  0  0  0  0
  161.3130  207.8670  148.2830 N   0  0  0  0  0  2  0  0  0  0  0  0
  160.4530  205.6770  149.2540 C   0  0  0  0  0  2  0  0  0  0  0  0
  161.4240  204.5560  149.5680 C   0  0  0  0  0  2  0  0  0  0  0  0
  161.1430  202.8460  147.7750 O   0  0  0  0  0  0  0  0  0  0  0  0
  160.8650  203.2740  149.0680 C   0  0  0  0  0  0  0  0  0  0  0  0
  160.1670  202.5570  149.8230 O   0  0  0  0  0  1  0  0  0  0  0  0
  1  9  1  0  0  0  0
  2  5  1  0  0  0  0
  3  1  1  0  0  0  0
  3 12  1  0  0  0  0
  4  2  2  0  0  0  0
  6  7  2  0  0  0  0
  7  5  1  0  0  0  0
  8 11  2  0  0  0  0
  9 26  1  6  0  0  0
  9  6  1  0  0  0  0
 10  4  1  0  0  0  0
 11  3  1  0  0  0  0
 12 10  2  0  0  0  0
 12  6  1  0  0  0  0
 14  2  1  6  0  0  0
 14 18  1  0  0  0  0
 14 15  1  0  0  0  0
 14 13  1  0  0  0  0
 15 19  1  0  0  0  0
 16 22  1  6  0  0  0
 16 19  1  0  0  0  0
 18 21  1  6  0  0  0
 18 16  1  0  0  0  0
 18 13  1  0  0  0  0
 19 17  2  0  0  0  0
 21 20  1  0  0  0  0
 22 23  1  6  0  0  0
 24 25  1  0  0  0  0
 25 22  1  0  0  0  0
 27 26  1  0  0  0  0
 28 37  1  6  0  0  0
 28 11  1  0  0  0  0
 29 31  2  0  0  0  0
 29 30  1  0  0  0  0
 30 33  2  0  0  0  0
 31 32  1  0  0  0  0
 32 28  1  0  0  0  0
 32 34  2  0  0  0  0
 33 34  1  0  0  0  0
 35 36  2  0  0  0  0
 36 37  1  0  0  0  0
 36 38  1  0  0  0  0
 38 39  1  0  0  0  0
 40 41  2  0  0  0  0
 41 39  1  0  0  0  0
 41 42  1  0  0  0  0
M  END
>  <MODEL>
3

>  <REMARK>
 VINA RESULT:      -4.2      3.022      5.664
  Name = 
  11 active torsions:
  status: ('A' for Active; 'I' for Inactive)
    1  A    between atoms: C_2  and  C_12
    2  A    between atoms: C_2  and  C_34
    3  A    between atoms: C_5  and  C_13
    4  A    between atoms: C_9  and  C_24
    5  A    between atoms: C_9  and  C_35
    6  A    between atoms: C_11  and  C_16
    7  A    between atoms: C_11  and  N_33
    8  A    between atoms: C_11  and  C_36
    9  A    between atoms: N_20  and  C_30
   10  A    between atoms: C_29  and  C_34
   11  A    between atoms: O_37  and  C_41
                            x       y       z     vdW  Elec       q    Type
                         _______ _______ _______ _____ _____    ______ ____

>  <TORSDO>
F 11

$$$$
=
 OpenBabel11072411243D

 42 46  0  0  1  0  0  0  0  0999 V2000
  161.2710  209.1980  147.8970 C   0  0  0  0  0  2  0  0  0  0  0  0
  161.6300  209.1500  153.1330 C   0  0  0  0  0  0  0  0  0  0  0  0
  161.4150  208.0330  148.7630 N   0  0  0  0  0  0  0  0  0  0  0  0
  161.0590  208.1000  152.5400 C   0  0  0  0  0  3  0  0  0  0  0  0
  162.6960  209.9510  152.4500 C   0  0  0  0  0  2  0  0  0  0  0  0
  161.8070  209.8720  150.1390 C   0  0  0  0  0  0  0  0  0  0  0  0
  162.2550  210.5820  151.1710 C   0  0  0  0  0  3  0  0  0  0  0  0
  160.2580  206.4190  147.5410 O   0  0  0  0  0  0  0  0  0  0  0  0
  161.5850  210.4310  148.7670 C   0  0  1  0  0  3  0  0  0  0  0  0
  161.2260  207.6680  151.1400 C   0  0  0  0  0  3  0  0  0  0  0  0
  161.2200  206.6870  148.3090 C   0  0  0  0  0  0  0  0  0  0  0  0
  161.6020  208.4360  150.1100 C   0  0  0  0  0  0  0  0  0  0  0  0
  160.3100  208.4090  155.1920 C   0  0  0  0  0  2  0  0  0  0  0  0
  161.2190  209.4430  154.5530 C   0  0  1  0  0  0  0  0  0  0  0  0
  162.1530  210.0520  155.4290 O   0  0  0  0  0  0  0  0  0  0  0  0
  160.0170  210.8750  156.1640 C   0  0  1  0  0  3  0  0  0  0  0  0
  162.1210  211.4900  157.2440 O   0  0  0  0  0  0  0  0  0  0  0  0
  159.8200  209.8530  155.0130 C   0  0  2  0  0  0  0  0  0  0  0  0
  161.5050  210.8620  156.3390 C   0  0  0  0  0  0  0  0  0  0  0  0
  159.4090  211.2670  153.3170 C   0  0  0  0  0  1  0  0  0  0  0  0
  158.9250  210.1210  153.9620 O   0  0  0  0  0  0  0  0  0  0  0  0
  159.5120  212.2870  155.8050 C   0  0  2  0  0  3  0  0  0  0  0  0
  160.4500  213.2580  156.1750 O   0  0  0  0  0  1  0  0  0  0  0  0
  157.1750  212.7630  155.5270 O   0  0  0  0  0  1  0  0  0  0  0  0
  158.1850  212.6070  156.4770 C   0  0  0  0  0  2  0  0  0  0  0  0
  162.8110  211.0560  148.2920 N   0  0  0  0  0  2  0  0  0  0  0  0
  162.5640  212.3800  148.1590 O   0  0  0  0  0  1  0  0  0  0  0  0
  162.1840  205.6080  148.7130 C   0  0  1  0  0  3  0  0  0  0  0  0
  160.5890  202.2150  148.7500 C   0  0  0  0  0  3  0  0  0  0  0  0
  160.1870  202.0880  150.0830 C   0  0  0  0  0  3  0  0  0  0  0  0
  161.2190  203.3470  148.3340 N   0  0  0  0  0  0  0  0  0  0  0  0
  161.4750  204.3810  149.1880 C   0  0  0  0  0  0  0  0  0  0  0  0
  160.4470  203.1330  150.9770 C   0  0  0  0  0  3  0  0  0  0  0  0
  161.0980  204.2850  150.5320 C   0  0  0  0  0  3  0  0  0  0  0  0
  163.4540  204.6850  145.4010 O   0  0  0  0  0  0  0  0  0  0  0  0
  162.6320  205.0630  146.2710 C   0  0  0  0  0  0  0  0  0  0  0  0
  163.0790  205.2730  147.6100 N   0  0  0  0  0  2  0  0  0  0  0  0
  161.2020  205.2660  145.8920 C   0  0  0  0  0  2  0  0  0  0  0  0
  160.9340  204.7280  144.4990 C   0  0  0  0  0  2  0  0  0  0  0  0
  160.8310  202.3570  145.2620 O   0  0  0  0  0  1  0  0  0  0  0  0
  160.2290  203.4250  144.6080 C   0  0  0  0  0  0  0  0  0  0  0  0
  159.0740  203.2950  144.1400 O   0  0  0  0  0  0  0  0  0  0  0  0
  1  3  1  0  0  0  0
  1  9  1  0  0  0  0
  3 12  1  0  0  0  0
  4  2  2  0  0  0  0
  5  2  1  0  0  0  0
  6  7  2  0  0  0  0
  7  5  1  0  0  0  0
  8 11  2  0  0  0  0
  9 26  1  6  0  0  0
  9  6  1  0  0  0  0
 10  4  1  0  0  0  0
 11 28  1  0  0  0  0
 11  3  1  0  0  0  0
 12  6  1  0  0  0  0
 12 10  2  0  0  0  0
 14  2  1  6  0  0  0
 14 18  1  0  0  0  0
 14 13  1  0  0  0  0
 14 15  1  0  0  0  0
 15 19  1  0  0  0  0
 16 22  1  6  0  0  0
 16 19  1  0  0  0  0
 18 21  1  6  0  0  0
 18 13  1  0  0  0  0
 18 16  1  0  0  0  0
 19 17  2  0  0  0  0
 20 21  1  0  0  0  0
 22 23  1  1  0  0  0
 22 25  1  0  0  0  0
 24 25  1  0  0  0  0
 27 26  1  0  0  0  0
 28 37  1  6  0  0  0
 28 32  1  0  0  0  0
 29 30  1  0  0  0  0
 30 33  2  0  0  0  0
 31 29  2  0  0  0  0
 31 32  1  0  0  0  0
 32 34  2  0  0  0  0
 34 33  1  0  0  0  0
 35 36  2  0  0  0  0
 36 37  1  0  0  0  0
 38 36  1  0  0  0  0
 39 41  1  0  0  0  0
 39 38  1  0  0  0  0
 41 40  1  0  0  0  0
 42 41  2  0  0  0  0
M  END
>  <MODEL>
4

>  <REMARK>
 VINA RESULT:      -4.0      3.219      6.426
  Name = 
  11 active torsions:
  status: ('A' for Active; 'I' for Inactive)
    1  A    between atoms: C_2  and  C_12
    2  A    between atoms: C_2  and  C_34
    3  A    between atoms: C_5  and  C_13
    4  A    between atoms: C_9  and  C_24
    5  A    between atoms: C_9  and  C_35
    6  A    between atoms: C_11  and  C_16
    7  A    between atoms: C_11  and  N_33
    8  A    between atoms: C_11  and  C_36
    9  A    between atoms: N_20  and  C_30
   10  A    between atoms: C_29  and  C_34
   11  A    between atoms: O_37  and  C_41
                            x       y       z     vdW  Elec       q    Type
                         _______ _______ _______ _____ _____    ______ ____

>  <TORSDO>
F 11

$$$$
=
 OpenBabel11072411243D

 42 46  0  0  1  0  0  0  0  0999 V2000
  161.3780  208.8990  147.9770 C   0  0  0  0  0  2  0  0  0  0  0  0
  161.5920  209.7810  153.1470 C   0  0  0  0  0  0  0  0  0  0  0  0
  161.3710  207.9050  149.0450 N   0  0  0  0  0  0  0  0  0  0  0  0
  160.9260  208.7040  152.7280 C   0  0  0  0  0  3  0  0  0  0  0  0
  162.7580  210.3280  152.3800 C   0  0  0  0  0  2  0  0  0  0  0  0
  161.9260  209.9160  150.0830 C   0  0  0  0  0  0  0  0  0  0  0  0
  162.4220  210.7550  150.9890 C   0  0  0  0  0  3  0  0  0  0  0  0
  160.0770  206.2220  148.0820 O   0  0  0  0  0  0  0  0  0  0  0  0
  161.8030  210.2330  148.6240 C   0  0  1  0  0  3  0  0  0  0  0  0
  161.0810  208.0060  151.4370 C   0  0  0  0  0  3  0  0  0  0  0  0
  161.0420  206.5260  148.8330 C   0  0  0  0  0  0  0  0  0  0  0  0
  161.5660  208.5280  150.3040 C   0  0  0  0  0  0  0  0  0  0  0  0
  161.7940  209.7160  155.6930 C   0  0  0  0  0  2  0  0  0  0  0  0
  161.1790  210.3710  154.4700 C   0  0  1  0  0  0  0  0  0  0  0  0
  160.9840  211.7720  154.5680 O   0  0  0  0  0  0  0  0  0  0  0  0
  159.4140  210.8370  156.1300 C   0  0  1  0  0  3  0  0  0  0  0  0
  159.6630  213.2420  155.7760 O   0  0  0  0  0  0  0  0  0  0  0  0
  160.2700  209.7050  155.5020 C   0  0  2  0  0  0  0  0  0  0  0  0
  159.9970  212.0590  155.4900 C   0  0  0  0  0  0  0  0  0  0  0  0
  159.7070  207.6260  156.1390 C   0  0  0  0  0  1  0  0  0  0  0  0
  159.6680  208.5150  155.0560 O   0  0  0  0  0  0  0  0  0  0  0  0
  157.9120  210.7030  155.8060 C   0  0  2  0  0  3  0  0  0  0  0  0
  157.6530  211.0890  154.4860 O   0  0  0  0  0  1  0  0  0  0  0  0
  156.3570  212.5200  156.0270 O   0  0  0  0  0  1  0  0  0  0  0  0
  157.0500  211.5400  156.7390 C   0  0  0  0  0  2  0  0  0  0  0  0
  163.1020  210.6300  148.1010 N   0  0  0  0  0  2  0  0  0  0  0  0
  163.0590  211.9650  147.8840 O   0  0  0  0  0  1  0  0  0  0  0  0
  161.8710  205.4470  149.4680 C   0  0  1  0  0  3  0  0  0  0  0  0
  162.3750  205.8230  153.1640 C   0  0  0  0  0  3  0  0  0  0  0  0
  161.2060  205.2590  153.6850 C   0  0  0  0  0  3  0  0  0  0  0  0
  162.5680  205.8680  151.8190 N   0  0  0  0  0  0  0  0  0  0  0  0
  161.6450  205.3710  150.9430 C   0  0  0  0  0  0  0  0  0  0  0  0
  160.2430  204.7530  152.8050 C   0  0  0  0  0  3  0  0  0  0  0  0
  160.4570  204.8110  151.4270 C   0  0  0  0  0  3  0  0  0  0  0  0
  161.5810  202.7300  147.0240 O   0  0  0  0  0  0  0  0  0  0  0  0
  161.9390  203.8340  147.5050 C   0  0  0  0  0  0  0  0  0  0  0  0
  161.5950  204.1520  148.8530 N   0  0  0  0  0  2  0  0  0  0  0  0
  162.6970  204.7960  146.6510 C   0  0  0  0  0  2  0  0  0  0  0  0
  162.4440  204.5240  145.1810 C   0  0  0  0  0  2  0  0  0  0  0  0
  160.1000  204.0630  144.4700 O   0  0  0  0  0  0  0  0  0  0  0  0
  161.0760  204.9840  144.8290 C   0  0  0  0  0  0  0  0  0  0  0  0
  160.7900  206.2030  144.8880 O   0  0  0  0  0  1  0  0  0  0  0  0
  1  9  1  0  0  0  0
  1  3  1  0  0  0  0
  3 12  1  0  0  0  0
  4  2  2  0  0  0  0
  5  2  1  0  0  0  0
  6 12  1  0  0  0  0
  6  7  2  0  0  0  0
  7  5  1  0  0  0  0
  8 11  2  0  0  0  0
  9 26  1  6  0  0  0
  9  6  1  0  0  0  0
 10  4  1  0  0  0  0
 11  3  1  0  0  0  0
 12 10  2  0  0  0  0
 14  2  1  6  0  0  0
 14 15  1  0  0  0  0
 14 18  1  0  0  0  0
 14 13  1  0  0  0  0
 15 19  1  0  0  0  0
 16 22  1  6  0  0  0
 18 21  1  6  0  0  0
 18 13  1  0  0  0  0
 18 16  1  0  0  0  0
 19 17  2  0  0  0  0
 19 16  1  0  0  0  0
 21 20  1  0  0  0  0
 22 23  1  6  0  0  0
 22 25  1  0  0  0  0
 24 25  1  0  0  0  0
 27 26  1  0  0  0  0
 28 11  1  6  0  0  0
 28 32  1  0  0  0  0
 29 30  1  0  0  0  0
 31 29  2  0  0  0  0
 32 34  2  0  0  0  0
 32 31  1  0  0  0  0
 33 30  2  0  0  0  0
 34 33  1  0  0  0  0
 35 36  2  0  0  0  0
 36 37  1  0  0  0  0
 37 28  1  0  0  0  0
 38 36  1  0  0  0  0
 39 38  1  0  0  0  0
 40 41  2  0  0  0  0
 41 42  1  0  0  0  0
 41 39  1  0  0  0  0
M  END
>  <MODEL>
5

>  <REMARK>
 VINA RESULT:      -3.8      3.192      6.285
  Name = 
  11 active torsions:
  status: ('A' for Active; 'I' for Inactive)
    1  A    between atoms: C_2  and  C_12
    2  A    between atoms: C_2  and  C_34
    3  A    between atoms: C_5  and  C_13
    4  A    between atoms: C_9  and  C_24
    5  A    between atoms: C_9  and  C_35
    6  A    between atoms: C_11  and  C_16
    7  A    between atoms: C_11  and  N_33
    8  A    between atoms: C_11  and  C_36
    9  A    between atoms: N_20  and  C_30
   10  A    between atoms: C_29  and  C_34
   11  A    between atoms: O_37  and  C_41
                            x       y       z     vdW  Elec       q    Type
                         _______ _______ _______ _____ _____    ______ ____

>  <TORSDO>
F 11

$$$$
=
 OpenBabel11072411243D

 42 46  0  0  1  0  0  0  0  0999 V2000
  161.2060  209.0710  147.8980 C   0  0  0  0  0  2  0  0  0  0  0  0
  161.8230  209.4600  153.0960 C   0  0  0  0  0  0  0  0  0  0  0  0
  161.3680  207.9800  148.8540 N   0  0  0  0  0  0  0  0  0  0  0  0
  161.2010  208.3790  152.6230 C   0  0  0  0  0  3  0  0  0  0  0  0
  162.8720  210.1720  152.2960 C   0  0  0  0  0  2  0  0  0  0  0  0
  161.8670  209.9200  150.0450 C   0  0  0  0  0  0  0  0  0  0  0  0
  162.3810  210.7040  150.9900 C   0  0  0  0  0  3  0  0  0  0  0  0
  160.1180  206.2990  147.8310 O   0  0  0  0  0  0  0  0  0  0  0  0
  161.5900  210.3660  148.6420 C   0  0  1  0  0  3  0  0  0  0  0  0
  161.2890  207.8240  151.2590 C   0  0  0  0  0  3  0  0  0  0  0  0
  161.1230  206.6060  148.5270 C   0  0  0  0  0  0  0  0  0  0  0  0
  161.6300  208.4920  150.1500 C   0  0  0  0  0  0  0  0  0  0  0  0
  161.9570  208.9370  155.5930 C   0  0  0  0  0  2  0  0  0  0  0  0
  161.4890  209.8840  154.5030 C   0  0  1  0  0  0  0  0  0  0  0  0
  161.5350  211.2610  154.8360 O   0  0  0  0  0  0  0  0  0  0  0  0
  159.7950  210.3620  156.2320 C   0  0  1  0  0  3  0  0  0  0  0  0
  160.4590  212.7130  156.2840 O   0  0  0  0  0  0  0  0  0  0  0  0
  160.4580  209.2210  155.4160 C   0  0  2  0  0  0  0  0  0  0  0  0
  160.5920  211.5560  155.8010 C   0  0  0  0  0  0  0  0  0  0  0  0
  159.4720  207.2270  155.7250 C   0  0  0  0  0  1  0  0  0  0  0  0
  159.6720  208.2440  154.7810 O   0  0  0  0  0  0  0  0  0  0  0  0
  158.3000  210.5450  155.9020 C   0  0  2  0  0  3  0  0  0  0  0  0
  158.1360  211.0790  154.6190 O   0  0  0  0  0  1  0  0  0  0  0  0
  156.6150  212.2150  156.2750 O   0  0  0  0  0  1  0  0  0  0  0  0
  157.6010  211.4520  156.9040 C   0  0  0  0  0  2  0  0  0  0  0  0
  162.8040  210.9160  148.0570 N   0  0  0  0  0  2  0  0  0  0  0  0
  162.6320  212.2540  147.9550 O   0  0  0  0  0  1  0  0  0  0  0  0
  162.0810  205.5410  148.9760 C   0  0  1  0  0  3  0  0  0  0  0  0
  160.5730  202.1100  148.8880 C   0  0  0  0  0  3  0  0  0  0  0  0
  160.0760  201.9680  150.1870 C   0  0  0  0  0  3  0  0  0  0  0  0
  161.2040  203.2580  148.5220 N   0  0  0  0  0  0  0  0  0  0  0  0
  161.3700  204.2960  149.3950 C   0  0  0  0  0  0  0  0  0  0  0  0
  160.2430  203.0160  151.1000 C   0  0  0  0  0  3  0  0  0  0  0  0
  160.8960  204.1850  150.7070 C   0  0  0  0  0  3  0  0  0  0  0  0
  163.5670  204.7040  145.7310 O   0  0  0  0  0  0  0  0  0  0  0  0
  162.6880  205.0580  146.5560 C   0  0  0  0  0  0  0  0  0  0  0  0
  163.0470  205.2360  147.9250 N   0  0  0  0  0  2  0  0  0  0  0  0
  161.2840  205.2640  146.0900 C   0  0  0  0  0  2  0  0  0  0  0  0
  161.0980  204.7190  144.6870 C   0  0  0  0  0  2  0  0  0  0  0  0
  159.1180  203.3070  144.1350 O   0  0  0  0  0  0  0  0  0  0  0  0
  160.3530  203.4350  144.7600 C   0  0  0  0  0  0  0  0  0  0  0  0
  160.8520  202.4530  145.3580 O   0  0  0  0  0  1  0  0  0  0  0  0
  1  9  1  0  0  0  0
  1  3  1  0  0  0  0
  3 12  1  0  0  0  0
  4  2  2  0  0  0  0
  5  2  1  0  0  0  0
  6 12  1  0  0  0  0
  6  7  2  0  0  0  0
  7  5  1  0  0  0  0
  8 11  2  0  0  0  0
  9 26  1  6  0  0  0
  9  6  1  0  0  0  0
 10  4  1  0  0  0  0
 11  3  1  0  0  0  0
 11 28  1  0  0  0  0
 12 10  2  0  0  0  0
 14  2  1  6  0  0  0
 14 15  1  0  0  0  0
 14 18  1  0  0  0  0
 14 13  1  0  0  0  0
 15 19  1  0  0  0  0
 16 22  1  6  0  0  0
 18 21  1  6  0  0  0
 18 13  1  0  0  0  0
 18 16  1  0  0  0  0
 19 16  1  0  0  0  0
 19 17  2  0  0  0  0
 21 20  1  0  0  0  0
 22 23  1  6  0  0  0
 22 25  1  0  0  0  0
 24 25  1  0  0  0  0
 27 26  1  0  0  0  0
 28 37  1  6  0  0  0
 28 32  1  0  0  0  0
 29 30  1  0  0  0  0
 30 33  2  0  0  0  0
 31 29  2  0  0  0  0
 31 32  1  0  0  0  0
 32 34  2  0  0  0  0
 34 33  1  0  0  0  0
 35 36  2  0  0  0  0
 36 37  1  0  0  0  0
 38 36  1  0  0  0  0
 39 41  1  0  0  0  0
 39 38  1  0  0  0  0
 40 41  2  0  0  0  0
 41 42  1  0  0  0  0
M  END
>  <MODEL>
6

>  <REMARK>
 VINA RESULT:      -3.7      3.333      6.554
  Name = 
  11 active torsions:
  status: ('A' for Active; 'I' for Inactive)
    1  A    between atoms: C_2  and  C_12
    2  A    between atoms: C_2  and  C_34
    3  A    between atoms: C_5  and  C_13
    4  A    between atoms: C_9  and  C_24
    5  A    between atoms: C_9  and  C_35
    6  A    between atoms: C_11  and  C_16
    7  A    between atoms: C_11  and  N_33
    8  A    between atoms: C_11  and  C_36
    9  A    between atoms: N_20  and  C_30
   10  A    between atoms: C_29  and  C_34
   11  A    between atoms: O_37  and  C_41
                            x       y       z     vdW  Elec       q    Type
                         _______ _______ _______ _____ _____    ______ ____

>  <TORSDO>
F 11

$$$$
=
 OpenBabel11072411243D

 42 46  0  0  1  0  0  0  0  0999 V2000
  163.0500  206.2040  151.7080 C   0  0  0  0  0  2  0  0  0  0  0  0
  160.0450  210.2600  153.1460 C   0  0  0  0  0  0  0  0  0  0  0  0
  162.2070  207.0290  150.8490 N   0  0  0  0  0  0  0  0  0  0  0  0
  160.5710  210.2800  151.9200 C   0  0  0  0  0  3  0  0  0  0  0  0
  159.7100  208.9710  153.8340 C   0  0  0  0  0  2  0  0  0  0  0  0
  161.6150  207.6060  153.0270 C   0  0  0  0  0  0  0  0  0  0  0  0
  160.8830  208.0700  154.0380 C   0  0  0  0  0  3  0  0  0  0  0  0
  163.4050  206.9640  148.8500 O   0  0  0  0  0  0  0  0  0  0  0  0
  162.6370  206.5190  153.1600 C   0  0  1  0  0  3  0  0  0  0  0  0
  161.0510  209.1260  151.1380 C   0  0  0  0  0  3  0  0  0  0  0  0
  162.2810  207.0030  149.4180 C   0  0  0  0  0  0  0  0  0  0  0  0
  161.4560  207.9470  151.6260 C   0  0  0  0  0  0  0  0  0  0  0  0
  160.6620  212.0280  154.8850 C   0  0  0  0  0  2  0  0  0  0  0  0
  159.7220  211.5900  153.7760 C   0  0  1  0  0  0  0  0  0  0  0  0
  159.2200  212.6350  152.9600 O   0  0  0  0  0  0  0  0  0  0  0  0
  158.1870  212.9960  155.1000 C   0  0  1  0  0  3  0  0  0  0  0  0
  157.8010  214.4520  153.1760 O   0  0  0  0  0  0  0  0  0  0  0  0
  159.1740  211.8020  155.1870 C   0  0  2  0  0  0  0  0  0  0  0  0
  158.3540  213.4350  153.6780 C   0  0  0  0  0  0  0  0  0  0  0  0
  159.2740  210.7360  157.1620 C   0  0  0  0  0  1  0  0  0  0  0  0
  158.8070  210.6150  155.8460 O   0  0  0  0  0  0  0  0  0  0  0  0
  156.7270  212.5900  155.3880 C   0  0  2  0  0  3  0  0  0  0  0  0
  156.1200  212.0720  154.2380 O   0  0  0  0  0  1  0  0  0  0  0  0
  154.9810  214.1730  154.9250 O   0  0  0  0  0  1  0  0  0  0  0  0
  155.8980  213.7600  155.8940 C   0  0  0  0  0  2  0  0  0  0  0  0
  162.0220  205.3410  153.7520 N   0  0  0  0  0  2  0  0  0  0  0  0
  161.1990  204.8040  152.8230 O   0  0  0  0  0  1  0  0  0  0  0  0
  161.0220  206.9810  148.5980 C   0  0  1  0  0  3  0  0  0  0  0  0
  162.7120  205.3970  145.6500 C   0  0  0  0  0  3  0  0  0  0  0  0
  161.6960  205.3890  144.6910 C   0  0  0  0  0  3  0  0  0  0  0  0
  162.4780  205.9140  146.8860 N   0  0  0  0  0  0  0  0  0  0  0  0
  161.2620  206.4350  147.2280 C   0  0  0  0  0  0  0  0  0  0  0  0
  160.4400  205.9100  145.0230 C   0  0  0  0  0  3  0  0  0  0  0  0
  160.2170  206.4320  146.2980 C   0  0  0  0  0  3  0  0  0  0  0  0
  159.1330  204.2130  150.0850 O   0  0  0  0  0  0  0  0  0  0  0  0
  160.1140  204.8260  149.5940 C   0  0  0  0  0  0  0  0  0  0  0  0
  159.9810  206.2090  149.2690 N   0  0  0  0  0  2  0  0  0  0  0  0
  161.3890  204.0910  149.3420 C   0  0  0  0  0  2  0  0  0  0  0  0
  161.1970  203.0380  148.2670 C   0  0  0  0  0  2  0  0  0  0  0  0
  161.1650  201.5690  150.2810 O   0  0  0  0  0  1  0  0  0  0  0  0
  161.2020  201.6930  148.8970 C   0  0  0  0  0  0  0  0  0  0  0  0
  161.2060  200.6640  148.1820 O   0  0  0  0  0  0  0  0  0  0  0  0
  1  9  1  0  0  0  0
  2  5  1  0  0  0  0
  3 12  1  0  0  0  0
  3  1  1  0  0  0  0
  4  2  2  0  0  0  0
  5  7  1  0  0  0  0
  6  9  1  0  0  0  0
  6  7  2  0  0  0  0
  8 11  2  0  0  0  0
  9 26  1  6  0  0  0
 10 12  2  0  0  0  0
 10  4  1  0  0  0  0
 11  3  1  0  0  0  0
 12  6  1  0  0  0  0
 13 18  1  0  0  0  0
 14  2  1  6  0  0  0
 14 13  1  0  0  0  0
 14 18  1  0  0  0  0
 15 19  1  0  0  0  0
 15 14  1  0  0  0  0
 16 18  1  0  0  0  0
 16 22  1  6  0  0  0
 17 19  2  0  0  0  0
 18 21  1  1  0  0  0
 19 16  1  0  0  0  0
 21 20  1  0  0  0  0
 22 23  1  6  0  0  0
 22 25  1  0  0  0  0
 24 25  1  0  0  0  0
 27 26  1  0  0  0  0
 28 37  1  1  0  0  0
 28 11  1  0  0  0  0
 29 31  1  0  0  0  0
 30 33  1  0  0  0  0
 30 29  2  0  0  0  0
 31 32  2  0  0  0  0
 32 28  1  0  0  0  0
 33 34  2  0  0  0  0
 34 32  1  0  0  0  0
 36 35  2  0  0  0  0
 37 36  1  0  0  0  0
 38 36  1  0  0  0  0
 39 41  1  0  0  0  0
 39 38  1  0  0  0  0
 41 40  1  0  0  0  0
 42 41  2  0  0  0  0
M  END
>  <MODEL>
7

>  <REMARK>
 VINA RESULT:      -3.6      3.437      5.295
  Name = 
  11 active torsions:
  status: ('A' for Active; 'I' for Inactive)
    1  A    between atoms: C_2  and  C_12
    2  A    between atoms: C_2  and  C_34
    3  A    between atoms: C_5  and  C_13
    4  A    between atoms: C_9  and  C_24
    5  A    between atoms: C_9  and  C_35
    6  A    between atoms: C_11  and  C_16
    7  A    between atoms: C_11  and  N_33
    8  A    between atoms: C_11  and  C_36
    9  A    between atoms: N_20  and  C_30
   10  A    between atoms: C_29  and  C_34
   11  A    between atoms: O_37  and  C_41
                            x       y       z     vdW  Elec       q    Type
                         _______ _______ _______ _____ _____    ______ ____

>  <TORSDO>
F 11

$$$$
=
 OpenBabel11072411243D

 42 46  0  0  1  0  0  0  0  0999 V2000
  162.0760  207.6740  152.8930 C   0  0  0  0  0  2  0  0  0  0  0  0
  161.5420  211.2950  149.1310 C   0  0  0  0  0  0  0  0  0  0  0  0
  161.7260  207.4520  151.4940 N   0  0  0  0  0  0  0  0  0  0  0  0
  161.9640  210.0820  148.7700 C   0  0  0  0  0  3  0  0  0  0  0  0
  160.6340  211.4900  150.3070 C   0  0  0  0  0  2  0  0  0  0  0  0
  161.5760  209.7560  151.8050 C   0  0  0  0  0  0  0  0  0  0  0  0
  161.2090  211.0190  151.6020 C   0  0  0  0  0  3  0  0  0  0  0  0
  162.6610  205.3480  151.1280 O   0  0  0  0  0  0  0  0  0  0  0  0
  161.9260  209.1880  153.1460 C   0  0  1  0  0  3  0  0  0  0  0  0
  161.7780  208.8180  149.5070 C   0  0  0  0  0  3  0  0  0  0  0  0
  161.7270  206.1560  150.8810 C   0  0  0  0  0  0  0  0  0  0  0  0
  161.5590  208.6880  150.8220 C   0  0  0  0  0  0  0  0  0  0  0  0
  161.8990  213.8160  148.9160 C   0  0  0  0  0  2  0  0  0  0  0  0
  161.9460  212.4510  148.2530 C   0  0  1  0  0  0  0  0  0  0  0  0
  162.9930  212.2700  147.3140 O   0  0  0  0  0  0  0  0  0  0  0  0
  161.5240  213.8660  146.2760 C   0  0  1  0  0  3  0  0  0  0  0  0
  163.5890  213.0840  145.2300 O   0  0  0  0  0  0  0  0  0  0  0  0
  161.0080  213.5240  147.6990 C   0  0  2  0  0  0  0  0  0  0  0  0
  162.7780  213.0500  146.1950 C   0  0  0  0  0  0  0  0  0  0  0  0
  158.9610  214.4370  147.5620 C   0  0  0  0  0  1  0  0  0  0  0  0
  159.6440  213.2680  147.9250 O   0  0  0  0  0  0  0  0  0  0  0  0
  160.5300  213.4680  145.1660 C   0  0  2  0  0  3  0  0  0  0  0  0
  160.6870  212.1220  144.8180 O   0  0  0  0  0  1  0  0  0  0  0  0
  159.8730  213.8590  142.8890 O   0  0  0  0  0  1  0  0  0  0  0  0
  160.6980  214.3200  143.9170 C   0  0  0  0  0  2  0  0  0  0  0  0
  160.8280  209.4150  154.0720 N   0  0  0  0  0  2  0  0  0  0  0  0
  161.3590  209.5160  155.3130 O   0  0  0  0  0  1  0  0  0  0  0  0
  160.5960  205.7470  149.9800 C   0  0  1  0  0  3  0  0  0  0  0  0
  160.4680  206.1810  146.2590 C   0  0  0  0  0  3  0  0  0  0  0  0
  161.7640  205.8270  145.8710 C   0  0  0  0  0  3  0  0  0  0  0  0
  160.1160  206.1440  147.5720 N   0  0  0  0  0  0  0  0  0  0  0  0
  161.0000  205.7640  148.5420 C   0  0  0  0  0  0  0  0  0  0  0  0
  162.6880  205.4430  146.8500 C   0  0  0  0  0  3  0  0  0  0  0  0
  162.3090  205.4150  148.1930 C   0  0  0  0  0  3  0  0  0  0  0  0
  159.8980  202.1480  149.9640 O   0  0  0  0  0  0  0  0  0  0  0  0
  160.4480  203.2320  149.6450 C   0  0  0  0  0  0  0  0  0  0  0  0
  160.0960  204.4250  150.3440 N   0  0  0  0  0  2  0  0  0  0  0  0
  161.4410  203.2520  148.5300 C   0  0  0  0  0  2  0  0  0  0  0  0
  161.8410  201.8410  148.1410 C   0  0  0  0  0  2  0  0  0  0  0  0
  160.8180  202.5430  145.9780 O   0  0  0  0  0  0  0  0  0  0  0  0
  161.2620  201.5220  146.8110 C   0  0  0  0  0  0  0  0  0  0  0  0
  161.2020  200.3330  146.4220 O   0  0  0  0  0  1  0  0  0  0  0  0
  1  9  1  0  0  0  0
  2  5  1  0  0  0  0
  3  1  1  0  0  0  0
  4  2  2  0  0  0  0
  4 10  1  0  0  0  0
  5  7  1  0  0  0  0
  6  9  1  0  0  0  0
  7  6  2  0  0  0  0
  9 26  1  1  0  0  0
 10 12  2  0  0  0  0
 11  8  2  0  0  0  0
 11  3  1  0  0  0  0
 12  3  1  0  0  0  0
 12  6  1  0  0  0  0
 14 13  1  0  0  0  0
 14  2  1  1  0  0  0
 15 14  1  0  0  0  0
 16 22  1  6  0  0  0
 16 18  1  0  0  0  0
 17 19  2  0  0  0  0
 18 21  1  1  0  0  0
 18 14  1  0  0  0  0
 18 13  1  0  0  0  0
 19 16  1  0  0  0  0
 19 15  1  0  0  0  0
 20 21  1  0  0  0  0
 22 23  1  6  0  0  0
 24 25  1  0  0  0  0
 25 22  1  0  0  0  0
 26 27  1  0  0  0  0
 28 37  1  1  0  0  0
 28 11  1  0  0  0  0
 29 31  1  0  0  0  0
 30 29  2  0  0  0  0
 30 33  1  0  0  0  0
 31 32  2  0  0  0  0
 32 28  1  0  0  0  0
 33 34  2  0  0  0  0
 34 32  1  0  0  0  0
 36 35  2  0  0  0  0
 36 37  1  0  0  0  0
 38 36  1  0  0  0  0
 39 38  1  0  0  0  0
 40 41  2  0  0  0  0
 41 39  1  0  0  0  0
 42 41  1  0  0  0  0
M  END
>  <MODEL>
8

>  <REMARK>
 VINA RESULT:      -3.5      2.026      2.838
  Name = 
  11 active torsions:
  status: ('A' for Active; 'I' for Inactive)
    1  A    between atoms: C_2  and  C_12
    2  A    between atoms: C_2  and  C_34
    3  A    between atoms: C_5  and  C_13
    4  A    between atoms: C_9  and  C_24
    5  A    between atoms: C_9  and  C_35
    6  A    between atoms: C_11  and  C_16
    7  A    between atoms: C_11  and  N_33
    8  A    between atoms: C_11  and  C_36
    9  A    between atoms: N_20  and  C_30
   10  A    between atoms: C_29  and  C_34
   11  A    between atoms: O_37  and  C_41
                            x       y       z     vdW  Elec       q    Type
                         _______ _______ _______ _____ _____    ______ ____

>  <TORSDO>
F 11

$$$$
=
 OpenBabel11072411243D

 42 46  0  0  1  0  0  0  0  0999 V2000
  158.4720  209.0830  156.0250 C   0  0  0  0  0  2  0  0  0  0  0  0
  161.5640  207.3810  152.1410 C   0  0  0  0  0  0  0  0  0  0  0  0
  158.9860  209.8570  154.9000 N   0  0  0  0  0  0  0  0  0  0  0  0
  160.7030  208.3620  151.8650 C   0  0  0  0  0  3  0  0  0  0  0  0
  162.1490  207.2150  153.5110 C   0  0  0  0  0  2  0  0  0  0  0  0
  160.1610  207.8460  154.8490 C   0  0  0  0  0  0  0  0  0  0  0  0
  161.1320  206.9770  154.5790 C   0  0  0  0  0  3  0  0  0  0  0  0
  157.2600  211.3930  154.5880 O   0  0  0  0  0  0  0  0  0  0  0  0
  159.2760  207.7680  156.0560 C   0  0  1  0  0  3  0  0  0  0  0  0
  160.0710  209.2890  152.8230 C   0  0  0  0  0  3  0  0  0  0  0  0
  158.4980  211.1600  154.5550 C   0  0  0  0  0  0  0  0  0  0  0  0
  159.8850  209.0760  154.1310 C   0  0  0  0  0  0  0  0  0  0  0  0
  163.4720  206.5480  150.6600 C   0  0  0  0  0  2  0  0  0  0  0  0
  161.9930  206.5010  150.9950 C   0  0  1  0  0  0  0  0  0  0  0  0
  161.3740  205.2360  150.8310 O   0  0  0  0  0  0  0  0  0  0  0  0
  161.8970  205.9450  148.5940 C   0  0  1  0  0  3  0  0  0  0  0  0
  160.8230  203.8080  149.0930 O   0  0  0  0  0  0  0  0  0  0  0  0
  162.4340  206.9830  149.6140 C   0  0  2  0  0  0  0  0  0  0  0  0
  161.3060  204.9030  149.4930 C   0  0  0  0  0  0  0  0  0  0  0  0
  162.7030  208.6180  148.0980 C   0  0  0  0  0  1  0  0  0  0  0  0
  162.2510  208.3600  149.4000 O   0  0  0  0  0  0  0  0  0  0  0  0
  160.8310  206.5310  147.6460 C   0  0  2  0  0  3  0  0  0  0  0  0
  159.5690  206.5180  148.2510 O   0  0  0  0  0  1  0  0  0  0  0  0
  161.8580  204.9280  146.1830 O   0  0  0  0  0  1  0  0  0  0  0  0
  160.7530  205.7690  146.3320 C   0  0  0  0  0  2  0  0  0  0  0  0
  160.0950  207.7310  157.2580 N   0  0  0  0  0  2  0  0  0  0  0  0
  161.1210  208.5930  157.0750 O   0  0  0  0  0  1  0  0  0  0  0  0
  159.4610  212.2550  154.1950 C   0  0  1  0  0  3  0  0  0  0  0  0
  157.9110  213.8770  151.1910 C   0  0  0  0  0  3  0  0  0  0  0  0
  158.8800  213.6700  150.2060 C   0  0  0  0  0  3  0  0  0  0  0  0
  158.1140  213.4130  152.4540 N   0  0  0  0  0  0  0  0  0  0  0  0
  159.2510  212.7400  152.7970 C   0  0  0  0  0  0  0  0  0  0  0  0
  160.0570  212.9900  150.5380 C   0  0  0  0  0  3  0  0  0  0  0  0
  160.2490  212.5250  151.8400 C   0  0  0  0  0  3  0  0  0  0  0  0
  159.5480  214.2640  157.2600 O   0  0  0  0  0  0  0  0  0  0  0  0
  159.7640  213.2900  156.4960 C   0  0  0  0  0  0  0  0  0  0  0  0
  159.3530  213.3680  155.1320 N   0  0  0  0  0  2  0  0  0  0  0  0
  160.4250  212.0640  157.0370 C   0  0  0  0  0  2  0  0  0  0  0  0
  161.9060  212.3050  157.2540 C   0  0  0  0  0  2  0  0  0  0  0  0
  162.3840  210.9100  155.2440 O   0  0  0  0  0  0  0  0  0  0  0  0
  162.6780  211.2420  156.5610 C   0  0  0  0  0  0  0  0  0  0  0  0
  163.6200  210.6640  157.1520 O   0  0  0  0  0  1  0  0  0  0  0  0
  1  9  1  0  0  0  0
  2  5  1  0  0  0  0
  3  1  1  0  0  0  0
  4  2  2  0  0  0  0
  4 10  1  0  0  0  0
  5  7  1  0  0  0  0
  6  9  1  0  0  0  0
  7  6  2  0  0  0  0
  9 26  1  1  0  0  0
 10 12  2  0  0  0  0
 11  8  2  0  0  0  0
 11  3  1  0  0  0  0
 12  6  1  0  0  0  0
 12  3  1  0  0  0  0
 13 14  1  0  0  0  0
 14  2  1  1  0  0  0
 15 14  1  0  0  0  0
 16 22  1  6  0  0  0
 16 19  1  0  0  0  0
 16 18  1  0  0  0  0
 17 19  2  0  0  0  0
 18 21  1  6  0  0  0
 18 13  1  0  0  0  0
 18 14  1  0  0  0  0
 19 15  1  0  0  0  0
 20 21  1  0  0  0  0
 22 23  1  1  0  0  0
 24 25  1  0  0  0  0
 25 22  1  0  0  0  0
 27 26  1  0  0  0  0
 28 11  1  1  0  0  0
 28 37  1  0  0  0  0
 29 31  1  0  0  0  0
 30 33  1  0  0  0  0
 30 29  2  0  0  0  0
 31 32  2  0  0  0  0
 32 28  1  0  0  0  0
 33 34  2  0  0  0  0
 34 32  1  0  0  0  0
 36 38  1  0  0  0  0
 36 35  2  0  0  0  0
 37 36  1  0  0  0  0
 38 39  1  0  0  0  0
 40 41  2  0  0  0  0
 41 42  1  0  0  0  0
 41 39  1  0  0  0  0
M  END
>  <MODEL>
9

>  <REMARK>
 VINA RESULT:      -3.2      2.975      7.593
  Name = 
  11 active torsions:
  status: ('A' for Active; 'I' for Inactive)
    1  A    between atoms: C_2  and  C_12
    2  A    between atoms: C_2  and  C_34
    3  A    between atoms: C_5  and  C_13
    4  A    between atoms: C_9  and  C_24
    5  A    between atoms: C_9  and  C_35
    6  A    between atoms: C_11  and  C_16
    7  A    between atoms: C_11  and  N_33
    8  A    between atoms: C_11  and  C_36
    9  A    between atoms: N_20  and  C_30
   10  A    between atoms: C_29  and  C_34
   11  A    between atoms: O_37  and  C_41
                            x       y       z     vdW  Elec       q    Type
                         _______ _______ _______ _____ _____    ______ ____

>  <TORSDO>
F 11

$$$$
