=
 OpenBabel11072413343D

 36 38  0  0  1  0  0  0  0  0999 V2000
  161.1500  206.7040  152.3820 C   0  0  0  0  0  0  0  0  0  0  0  0
  160.4760  210.2910  151.6880 C   0  0  0  0  0  2  0  0  0  0  0  0
  161.1960  207.9170  154.8940 C   0  0  0  0  0  3  0  0  0  0  0  0
  160.9550  205.9610  153.5660 C   0  0  0  0  0  0  0  0  0  0  0  0
  163.0980  210.5100  153.9630 C   0  0  0  0  0  1  0  0  0  0  0  0
  161.6160  210.1840  153.9010 C   0  0  2  0  0  3  0  0  0  0  0  0
  161.7370  209.1340  151.0760 S   0  0  0  0  0  0  0  0  0  0  0  0
  161.4070  208.6960  153.7590 C   0  0  0  0  0  0  0  0  0  0  0  0
  160.9830  206.5820  154.7750 N   0  0  0  0  0  0  0  0  0  0  0  0
  160.6900  204.5610  153.5170 N   0  0  0  0  0  1  0  0  0  0  0  0
  160.9520  211.0280  152.8760 N   0  0  0  0  0  0  0  0  0  0  0  0
  161.4180  208.0870  152.4980 C   0  0  0  0  0  0  0  0  0  0  0  0
  161.3580  206.7730  149.8690 N   0  0  0  0  0  0  0  0  0  0  0  0
  160.8810  204.7140  150.9860 C   0  0  0  0  0  3  0  0  0  0  0  0
  161.0670  204.7090  148.5530 C   0  0  0  0  0  3  0  0  0  0  0  0
  161.1060  206.2150  148.5420 C   0  0  0  0  0  0  0  0  0  0  0  0
  161.0880  206.0320  151.0650 C   0  0  0  0  0  0  0  0  0  0  0  0
  160.8970  204.0160  149.6850 C   0  0  0  0  0  0  0  0  0  0  0  0
  161.3940  202.0140  150.8190 F   0  0  0  0  0  0  0  0  0  0  0  0
  159.5720  202.0570  149.4940 F   0  0  0  0  0  0  0  0  0  0  0  0
  160.8700  202.5150  149.6410 C   0  0  0  0  0  0  0  0  0  0  0  0
  161.6250  202.0540  148.5750 F   0  0  0  0  0  0  0  0  0  0  0  0
  162.3130  206.8480  147.3290 S   0  0  0  0  0  0  0  0  0  0  0  0
  161.5350  205.4690  144.9420 C   0  0  0  0  0  1  0  0  0  0  0  0
  162.5980  204.9810  146.3290 S   0  0  0  0  0  0  0  0  0  0  0  0
  158.8160  212.1590  152.4530 C   0  0  0  0  0  1  0  0  0  0  0  0
  159.8150  211.7110  153.5140 C   0  0  1  0  0  3  0  0  0  0  0  0
  159.1480  210.8490  154.4150 O   0  0  0  0  0  0  0  0  0  0  0  0
  159.6740  212.8190  155.7490 C   0  0  0  0  0  1  0  0  0  0  0  0
  158.9100  211.4990  155.6580 C   0  0  0  0  0  0  0  0  0  0  0  0
  159.3140  210.6310  156.8530 C   0  0  0  0  0  1  0  0  0  0  0  0
  157.4030  211.8210  155.7750 C   0  0  1  0  0  3  0  0  0  0  0  0
  156.5250  213.7690  154.6890 O   0  0  0  0  0  1  0  0  0  0  0  0
  157.0840  213.3170  155.8840 C   0  0  0  0  0  2  0  0  0  0  0  0
  155.5160  210.5220  155.5460 C   0  0  0  0  0  1  0  0  0  0  0  0
  156.5750  211.1340  154.8530 O   0  0  0  0  0  0  0  0  0  0  0  0
  1 12  2  0  0  0  0
  1  4  1  0  0  0  0
  2 11  1  0  0  0  0
  4  9  2  0  0  0  0
  6  5  1  6  0  0  0
  7  2  1  0  0  0  0
  7 12  1  0  0  0  0
  8  6  1  0  0  0  0
  8  3  2  0  0  0  0
  9  3  1  0  0  0  0
 10  4  1  0  0  0  0
 11 27  1  0  0  0  0
 11  6  1  0  0  0  0
 12  8  1  0  0  0  0
 13 17  1  0  0  0  0
 14 17  2  0  0  0  0
 15 18  2  0  0  0  0
 16 15  1  0  0  0  0
 16 13  2  0  0  0  0
 17  1  1  0  0  0  0
 18 14  1  0  0  0  0
 20 21  1  0  0  0  0
 21 18  1  0  0  0  0
 21 19  1  0  0  0  0
 22 21  1  0  0  0  0
 23 16  1  0  0  0  0
 24 25  1  0  0  0  0
 25 23  1  0  0  0  0
 27 26  1  6  0  0  0
 27 28  1  0  0  0  0
 28 30  1  0  0  0  0
 30 29  1  0  0  0  0
 30 32  1  0  0  0  0
 30 31  1  0  0  0  0
 32 34  1  6  0  0  0
 33 34  1  0  0  0  0
 36 35  1  0  0  0  0
 36 32  1  0  0  0  0
M  END
>  <MODEL>
1

>  <REMARK>
 VINA RESULT:      -6.7      0.000      0.000
  Name = 
  10 active torsions:
  status: ('A' for Active; 'I' for Inactive)
    1  A    between atoms: C_6  and  C_34
    2  A    between atoms: C_7  and  O_15
    3  A    between atoms: C_7  and  C_29
    4  A    between atoms: C_14  and  C_35
    5  A    between atoms: O_15  and  C_24
    6  A    between atoms: C_17  and  C_29
    7  A    between atoms: S_19  and  S_20
    8  A    between atoms: S_19  and  C_33
    9  A    between atoms: C_24  and  N_30
   10  A    between atoms: C_29  and  O_31
                            x       y       z     vdW  Elec       q    Type
                         _______ _______ _______ _____ _____    ______ ____

>  <TORSDO>
F 10

$$$$
=
 OpenBabel11072413343D

 36 38  0  0  1  0  0  0  0  0999 V2000
  161.3240  207.8620  152.4640 C   0  0  0  0  0  0  0  0  0  0  0  0
  160.0070  211.1380  153.6220 C   0  0  0  0  0  2  0  0  0  0  0  0
  160.7600  207.4670  155.1680 C   0  0  0  0  0  3  0  0  0  0  0  0
  161.1280  206.5710  152.9980 C   0  0  0  0  0  0  0  0  0  0  0  0
  162.1790  210.3140  156.2110 C   0  0  0  0  0  1  0  0  0  0  0  0
  160.8230  209.9310  155.6430 C   0  0  2  0  0  3  0  0  0  0  0  0
  161.5580  210.6520  152.8080 S   0  0  0  0  0  0  0  0  0  0  0  0
  160.9570  208.7630  154.6970 C   0  0  0  0  0  0  0  0  0  0  0  0
  160.8540  206.4120  154.3200 N   0  0  0  0  0  0  0  0  0  0  0  0
  161.1760  205.4170  152.1610 N   0  0  0  0  0  1  0  0  0  0  0  0
  160.1440  211.1320  155.0920 N   0  0  0  0  0  0  0  0  0  0  0  0
  161.2730  208.9640  153.3470 C   0  0  0  0  0  0  0  0  0  0  0  0
  161.4970  206.9140  150.1330 N   0  0  0  0  0  0  0  0  0  0  0  0
  161.8200  209.2510  150.5140 C   0  0  0  0  0  3  0  0  0  0  0  0
  162.0040  208.4020  148.2340 C   0  0  0  0  0  3  0  0  0  0  0  0
  161.9530  206.9870  148.7450 C   0  0  0  0  0  0  0  0  0  0  0  0
  161.5910  208.0360  151.0190 C   0  0  0  0  0  0  0  0  0  0  0  0
  162.0080  209.4530  149.0630 C   0  0  0  0  0  0  0  0  0  0  0  0
  161.8370  211.7560  149.5180 F   0  0  0  0  0  0  0  0  0  0  0  0
  163.2900  211.0940  147.9270 F   0  0  0  0  0  0  0  0  0  0  0  0
  162.0550  210.8440  148.5010 C   0  0  0  0  0  0  0  0  0  0  0  0
  161.0780  211.0020  147.5320 F   0  0  0  0  0  0  0  0  0  0  0  0
  160.9370  205.9190  147.6710 S   0  0  0  0  0  0  0  0  0  0  0  0
  161.5910  203.9220  145.7230 C   0  0  0  0  0  1  0  0  0  0  0  0
  162.5510  205.2980  146.4140 S   0  0  0  0  0  0  0  0  0  0  0  0
  158.9070  210.9330  157.2010 C   0  0  0  0  0  1  0  0  0  0  0  0
  158.8110  211.2250  155.7070 C   0  0  1  0  0  3  0  0  0  0  0  0
  158.2670  212.5200  155.5430 O   0  0  0  0  0  0  0  0  0  0  0  0
  155.9950  213.0190  156.2680 C   0  0  0  0  0  1  0  0  0  0  0  0
  156.8950  212.4510  155.1720 C   0  0  0  0  0  0  0  0  0  0  0  0
  156.4450  211.0180  154.8780 C   0  0  0  0  0  1  0  0  0  0  0  0
  156.6780  213.3030  153.9000 C   0  0  1  0  0  3  0  0  0  0  0  0
  154.5110  213.7360  152.9710 O   0  0  0  0  0  1  0  0  0  0  0  0
  155.4190  214.1770  153.9340 C   0  0  0  0  0  2  0  0  0  0  0  0
  157.9630  213.7950  152.0540 C   0  0  0  0  0  1  0  0  0  0  0  0
  157.8290  213.9890  153.4400 O   0  0  0  0  0  0  0  0  0  0  0  0
  1  4  2  0  0  0  0
  1 12  1  0  0  0  0
  2 11  1  0  0  0  0
  4  9  1  0  0  0  0
  6  5  1  6  0  0  0
  7 12  1  0  0  0  0
  7  2  1  0  0  0  0
  8  3  1  0  0  0  0
  8  6  1  0  0  0  0
  9  3  2  0  0  0  0
 10  4  1  0  0  0  0
 11  6  1  0  0  0  0
 11 27  1  0  0  0  0
 12  8  2  0  0  0  0
 13 17  1  0  0  0  0
 14 17  2  0  0  0  0
 15 16  1  0  0  0  0
 15 18  2  0  0  0  0
 16 13  2  0  0  0  0
 17  1  1  0  0  0  0
 18 14  1  0  0  0  0
 20 21  1  0  0  0  0
 21 18  1  0  0  0  0
 21 19  1  0  0  0  0
 22 21  1  0  0  0  0
 23 16  1  0  0  0  0
 24 25  1  0  0  0  0
 25 23  1  0  0  0  0
 27 26  1  1  0  0  0
 28 27  1  0  0  0  0
 30 28  1  0  0  0  0
 30 29  1  0  0  0  0
 31 30  1  0  0  0  0
 32 34  1  1  0  0  0
 32 30  1  0  0  0  0
 33 34  1  0  0  0  0
 35 36  1  0  0  0  0
 36 32  1  0  0  0  0
M  END
>  <MODEL>
2

>  <REMARK>
 VINA RESULT:      -6.5      3.188      4.043
  Name = 
  10 active torsions:
  status: ('A' for Active; 'I' for Inactive)
    1  A    between atoms: C_6  and  C_34
    2  A    between atoms: C_7  and  O_15
    3  A    between atoms: C_7  and  C_29
    4  A    between atoms: C_14  and  C_35
    5  A    between atoms: O_15  and  C_24
    6  A    between atoms: C_17  and  C_29
    7  A    between atoms: S_19  and  S_20
    8  A    between atoms: S_19  and  C_33
    9  A    between atoms: C_24  and  N_30
   10  A    between atoms: C_29  and  O_31
                            x       y       z     vdW  Elec       q    Type
                         _______ _______ _______ _____ _____    ______ ____

>  <TORSDO>
F 10

$$$$
=
 OpenBabel11072413343D

 36 38  0  0  1  0  0  0  0  0999 V2000
  161.0720  206.7950  152.6170 C   0  0  0  0  0  0  0  0  0  0  0  0
  159.9540  210.3270  152.3360 C   0  0  0  0  0  2  0  0  0  0  0  0
  161.2070  207.7750  155.2250 C   0  0  0  0  0  3  0  0  0  0  0  0
  161.0640  205.9320  153.7320 C   0  0  0  0  0  0  0  0  0  0  0  0
  162.7260  210.6450  154.4120 C   0  0  0  0  0  1  0  0  0  0  0  0
  161.2890  210.1550  154.4330 C   0  0  2  0  0  3  0  0  0  0  0  0
  161.2740  209.3860  151.5160 S   0  0  0  0  0  0  0  0  0  0  0  0
  161.2310  208.6730  154.1610 C   0  0  0  0  0  0  0  0  0  0  0  0
  161.1300  206.4410  154.9910 N   0  0  0  0  0  0  0  0  0  0  0  0
  160.9500  204.5200  153.5650 N   0  0  0  0  0  1  0  0  0  0  0  0
  160.4490  211.0060  153.5510 N   0  0  0  0  0  0  0  0  0  0  0  0
  161.1970  208.1840  152.8480 C   0  0  0  0  0  0  0  0  0  0  0  0
  161.1190  207.1040  150.1140 N   0  0  0  0  0  0  0  0  0  0  0  0
  160.8350  204.9270  151.0570 C   0  0  0  0  0  3  0  0  0  0  0  0
  160.8700  205.1520  148.6280 C   0  0  0  0  0  3  0  0  0  0  0  0
  160.8180  206.6520  148.7560 C   0  0  0  0  0  0  0  0  0  0  0  0
  160.9680  206.2420  151.2480 C   0  0  0  0  0  0  0  0  0  0  0  0
  160.8110  204.3500  149.6980 C   0  0  0  0  0  0  0  0  0  0  0  0
  159.6330  202.4000  149.1080 F   0  0  0  0  0  0  0  0  0  0  0  0
  161.8150  202.5280  148.5580 F   0  0  0  0  0  0  0  0  0  0  0  0
  160.8720  202.8610  149.5160 C   0  0  0  0  0  0  0  0  0  0  0  0
  161.2170  202.2460  150.7070 F   0  0  0  0  0  0  0  0  0  0  0  0
  161.9080  207.4690  147.5420 S   0  0  0  0  0  0  0  0  0  0  0  0
  160.5480  206.2090  145.3570 C   0  0  0  0  0  1  0  0  0  0  0  0
  162.0710  205.7780  146.2430 S   0  0  0  0  0  0  0  0  0  0  0  0
  159.5570  211.2470  155.8230 C   0  0  0  0  0  1  0  0  0  0  0  0
  159.3050  211.4910  154.3400 C   0  0  1  0  0  3  0  0  0  0  0  0
  159.1100  212.8780  154.1460 O   0  0  0  0  0  0  0  0  0  0  0  0
  157.2780  214.2520  154.9790 C   0  0  0  0  0  1  0  0  0  0  0  0
  157.7280  213.1790  153.9880 C   0  0  0  0  0  0  0  0  0  0  0  0
  156.8400  211.9480  154.1820 C   0  0  0  0  0  1  0  0  0  0  0  0
  157.4950  213.7320  152.5630 C   0  0  1  0  0  3  0  0  0  0  0  0
  155.7010  214.2760  151.0710 O   0  0  0  0  0  1  0  0  0  0  0  0
  156.1550  214.4530  152.3770 C   0  0  0  0  0  2  0  0  0  0  0  0
  159.1400  213.6840  150.9540 C   0  0  0  0  0  1  0  0  0  0  0  0
  158.5950  214.4340  152.0100 O   0  0  0  0  0  0  0  0  0  0  0  0
  1 12  2  0  0  0  0
  1  4  1  0  0  0  0
  2 11  1  0  0  0  0
  4  9  2  0  0  0  0
  6  5  1  6  0  0  0
  7  2  1  0  0  0  0
  7 12  1  0  0  0  0
  8  6  1  0  0  0  0
  8  3  2  0  0  0  0
  9  3  1  0  0  0  0
 10  4  1  0  0  0  0
 11 27  1  0  0  0  0
 11  6  1  0  0  0  0
 12  8  1  0  0  0  0
 13 17  1  0  0  0  0
 14 17  2  0  0  0  0
 15 16  1  0  0  0  0
 15 18  2  0  0  0  0
 16 13  2  0  0  0  0
 17  1  1  0  0  0  0
 18 14  1  0  0  0  0
 19 21  1  0  0  0  0
 20 21  1  0  0  0  0
 21 18  1  0  0  0  0
 21 22  1  0  0  0  0
 23 16  1  0  0  0  0
 24 25  1  0  0  0  0
 25 23  1  0  0  0  0
 27 26  1  1  0  0  0
 28 27  1  0  0  0  0
 30 28  1  0  0  0  0
 30 31  1  0  0  0  0
 30 29  1  0  0  0  0
 32 34  1  1  0  0  0
 32 30  1  0  0  0  0
 33 34  1  0  0  0  0
 35 36  1  0  0  0  0
 36 32  1  0  0  0  0
M  END
>  <MODEL>
3

>  <REMARK>
 VINA RESULT:      -6.3      1.394      2.254
  Name = 
  10 active torsions:
  status: ('A' for Active; 'I' for Inactive)
    1  A    between atoms: C_6  and  C_34
    2  A    between atoms: C_7  and  O_15
    3  A    between atoms: C_7  and  C_29
    4  A    between atoms: C_14  and  C_35
    5  A    between atoms: O_15  and  C_24
    6  A    between atoms: C_17  and  C_29
    7  A    between atoms: S_19  and  S_20
    8  A    between atoms: S_19  and  C_33
    9  A    between atoms: C_24  and  N_30
   10  A    between atoms: C_29  and  O_31
                            x       y       z     vdW  Elec       q    Type
                         _______ _______ _______ _____ _____    ______ ____

>  <TORSDO>
F 10

$$$$
=
 OpenBabel11072413343D

 36 38  0  0  1  0  0  0  0  0999 V2000
  161.2050  206.8500  152.6980 C   0  0  0  0  0  0  0  0  0  0  0  0
  160.5430  210.4130  151.8760 C   0  0  0  0  0  2  0  0  0  0  0  0
  160.9290  208.0950  155.1790 C   0  0  0  0  0  3  0  0  0  0  0  0
  160.8870  206.1180  153.8610 C   0  0  0  0  0  0  0  0  0  0  0  0
  162.8730  210.7180  154.4410 C   0  0  0  0  0  1  0  0  0  0  0  0
  161.4150  210.3580  154.2100 C   0  0  2  0  0  3  0  0  0  0  0  0
  161.8920  209.2770  151.4340 S   0  0  0  0  0  0  0  0  0  0  0  0
  161.2560  208.8650  154.0660 C   0  0  0  0  0  0  0  0  0  0  0  0
  160.7590  206.7550  155.0560 N   0  0  0  0  0  0  0  0  0  0  0  0
  160.6590  204.7120  153.8020 N   0  0  0  0  0  1  0  0  0  0  0  0
  160.8590  211.1750  153.1010 N   0  0  0  0  0  0  0  0  0  0  0  0
  161.4290  208.2400  152.8240 C   0  0  0  0  0  0  0  0  0  0  0  0
  161.2120  204.7340  151.3260 N   0  0  0  0  0  0  0  0  0  0  0  0
  161.4050  206.8650  150.2610 C   0  0  0  0  0  3  0  0  0  0  0  0
  161.4200  204.8580  148.8720 C   0  0  0  0  0  3  0  0  0  0  0  0
  161.5200  203.9950  150.1020 C   0  0  0  0  0  0  0  0  0  0  0  0
  161.3140  206.1610  151.3930 C   0  0  0  0  0  0  0  0  0  0  0  0
  161.4330  206.1950  148.9450 C   0  0  0  0  0  0  0  0  0  0  0  0
  162.4340  206.7760  146.8960 F   0  0  0  0  0  0  0  0  0  0  0  0
  160.1850  206.6630  146.9830 F   0  0  0  0  0  0  0  0  0  0  0  0
  161.3250  207.0100  147.6880 C   0  0  0  0  0  0  0  0  0  0  0  0
  161.2610  208.3580  147.9960 F   0  0  0  0  0  0  0  0  0  0  0  0
  160.4800  202.5030  149.9630 S   0  0  0  0  0  0  0  0  0  0  0  0
  161.4860  200.5000  148.1790 C   0  0  0  0  0  1  0  0  0  0  0  0
  160.8630  202.1780  147.8850 S   0  0  0  0  0  0  0  0  0  0  0  0
  158.6390  211.9900  152.4510 C   0  0  0  0  0  1  0  0  0  0  0  0
  159.6420  211.8400  153.5900 C   0  0  1  0  0  3  0  0  0  0  0  0
  159.0320  211.0860  154.6200 O   0  0  0  0  0  0  0  0  0  0  0  0
  159.5320  213.2280  155.6680 C   0  0  0  0  0  1  0  0  0  0  0  0
  158.7990  211.8920  155.7690 C   0  0  0  0  0  0  0  0  0  0  0  0
  159.2430  211.2010  157.0620 C   0  0  0  0  0  1  0  0  0  0  0  0
  157.2860  212.1930  155.8700 C   0  0  1  0  0  3  0  0  0  0  0  0
  155.3800  211.4310  157.1080 O   0  0  0  0  0  1  0  0  0  0  0  0
  156.6790  211.9190  157.2520 C   0  0  0  0  0  2  0  0  0  0  0  0
  155.8500  213.2230  154.3950 C   0  0  0  0  0  1  0  0  0  0  0  0
  156.8890  213.4360  155.3170 O   0  0  0  0  0  0  0  0  0  0  0  0
  1 12  2  0  0  0  0
  1  4  1  0  0  0  0
  2 11  1  0  0  0  0
  4  9  2  0  0  0  0
  6  5  1  6  0  0  0
  7  2  1  0  0  0  0
  7 12  1  0  0  0  0
  8  6  1  0  0  0  0
  8  3  2  0  0  0  0
  9  3  1  0  0  0  0
 10  4  1  0  0  0  0
 11 27  1  0  0  0  0
 11  6  1  0  0  0  0
 12  8  1  0  0  0  0
 13 17  1  0  0  0  0
 14 17  2  0  0  0  0
 15 18  2  0  0  0  0
 15 16  1  0  0  0  0
 16 13  2  0  0  0  0
 17  1  1  0  0  0  0
 18 14  1  0  0  0  0
 19 21  1  0  0  0  0
 20 21  1  0  0  0  0
 21 22  1  0  0  0  0
 21 18  1  0  0  0  0
 23 16  1  0  0  0  0
 25 24  1  0  0  0  0
 25 23  1  0  0  0  0
 27 26  1  6  0  0  0
 27 28  1  0  0  0  0
 28 30  1  0  0  0  0
 29 30  1  0  0  0  0
 30 32  1  0  0  0  0
 30 31  1  0  0  0  0
 32 34  1  1  0  0  0
 33 34  1  0  0  0  0
 35 36  1  0  0  0  0
 36 32  1  0  0  0  0
M  END
>  <MODEL>
4

>  <REMARK>
 VINA RESULT:      -6.1      2.149      2.730
  Name = 
  10 active torsions:
  status: ('A' for Active; 'I' for Inactive)
    1  A    between atoms: C_6  and  C_34
    2  A    between atoms: C_7  and  O_15
    3  A    between atoms: C_7  and  C_29
    4  A    between atoms: C_14  and  C_35
    5  A    between atoms: O_15  and  C_24
    6  A    between atoms: C_17  and  C_29
    7  A    between atoms: S_19  and  S_20
    8  A    between atoms: S_19  and  C_33
    9  A    between atoms: C_24  and  N_30
   10  A    between atoms: C_29  and  O_31
                            x       y       z     vdW  Elec       q    Type
                         _______ _______ _______ _____ _____    ______ ____

>  <TORSDO>
F 10

$$$$
=
 OpenBabel11072413343D

 36 38  0  0  1  0  0  0  0  0999 V2000
  161.2380  207.8700  152.3730 C   0  0  0  0  0  0  0  0  0  0  0  0
  159.7410  211.0610  153.5470 C   0  0  0  0  0  2  0  0  0  0  0  0
  161.0010  207.5500  155.1340 C   0  0  0  0  0  3  0  0  0  0  0  0
  161.2230  206.5920  152.9710 C   0  0  0  0  0  0  0  0  0  0  0  0
  162.2410  210.5600  155.9130 C   0  0  0  0  0  1  0  0  0  0  0  0
  160.8760  210.0290  155.5100 C   0  0  2  0  0  3  0  0  0  0  0  0
  161.2370  210.6830  152.5880 S   0  0  0  0  0  0  0  0  0  0  0  0
  161.0210  208.8360  154.5980 C   0  0  0  0  0  0  0  0  0  0  0  0
  161.1060  206.4700  154.3200 N   0  0  0  0  0  0  0  0  0  0  0  0
  161.2940  205.4110  152.1750 N   0  0  0  0  0  1  0  0  0  0  0  0
  160.0310  211.1360  154.9930 N   0  0  0  0  0  0  0  0  0  0  0  0
  161.1740  209.0030  153.2160 C   0  0  0  0  0  0  0  0  0  0  0  0
  161.6760  209.2620  150.3160 N   0  0  0  0  0  0  0  0  0  0  0  0
  161.2040  206.9280  150.1160 C   0  0  0  0  0  3  0  0  0  0  0  0
  161.6160  208.2150  148.0840 C   0  0  0  0  0  3  0  0  0  0  0  0
  161.5780  209.4960  148.8750 C   0  0  0  0  0  0  0  0  0  0  0  0
  161.3340  208.0010  150.9020 C   0  0  0  0  0  0  0  0  0  0  0  0
  161.3770  207.0270  148.6530 C   0  0  0  0  0  0  0  0  0  0  0  0
  161.1070  204.6890  148.6070 F   0  0  0  0  0  0  0  0  0  0  0  0
  160.5370  205.8580  146.7670 F   0  0  0  0  0  0  0  0  0  0  0  0
  161.4330  205.7790  147.8200 C   0  0  0  0  0  0  0  0  0  0  0  0
  162.7060  205.6040  147.3050 F   0  0  0  0  0  0  0  0  0  0  0  0
  162.8580  210.6700  148.3180 S   0  0  0  0  0  0  0  0  0  0  0  0
  161.8870  212.9520  146.8860 C   0  0  0  0  0  1  0  0  0  0  0  0
  161.6700  212.4230  148.6070 S   0  0  0  0  0  0  0  0  0  0  0  0
  159.0220  210.7120  157.1890 C   0  0  0  0  0  1  0  0  0  0  0  0
  158.7670  211.1340  155.7460 C   0  0  1  0  0  3  0  0  0  0  0  0
  158.1840  212.4230  155.7580 O   0  0  0  0  0  0  0  0  0  0  0  0
  155.9080  212.8230  156.5320 C   0  0  0  0  0  1  0  0  0  0  0  0
  156.8120  212.3630  155.3880 C   0  0  0  0  0  0  0  0  0  0  0  0
  156.3820  210.9520  154.9780 C   0  0  0  0  0  1  0  0  0  0  0  0
  156.5740  213.3140  154.1930 C   0  0  1  0  0  3  0  0  0  0  0  0
  154.4600  213.7040  153.1320 O   0  0  0  0  0  1  0  0  0  0  0  0
  155.2340  214.0590  154.2370 C   0  0  0  0  0  2  0  0  0  0  0  0
  157.9110  214.0820  152.4840 C   0  0  0  0  0  1  0  0  0  0  0  0
  157.6720  214.1470  153.8670 O   0  0  0  0  0  0  0  0  0  0  0  0
  1  4  2  0  0  0  0
  1 12  1  0  0  0  0
  2 11  1  0  0  0  0
  4  9  1  0  0  0  0
  6  5  1  6  0  0  0
  7 12  1  0  0  0  0
  7  2  1  0  0  0  0
  8  3  1  0  0  0  0
  8  6  1  0  0  0  0
  9  3  2  0  0  0  0
 10  4  1  0  0  0  0
 11  6  1  0  0  0  0
 11 27  1  0  0  0  0
 12  8  2  0  0  0  0
 13 17  1  0  0  0  0
 14 17  2  0  0  0  0
 15 18  2  0  0  0  0
 15 16  1  0  0  0  0
 16 13  2  0  0  0  0
 17  1  1  0  0  0  0
 18 14  1  0  0  0  0
 20 21  1  0  0  0  0
 21 19  1  0  0  0  0
 21 18  1  0  0  0  0
 22 21  1  0  0  0  0
 23 25  1  0  0  0  0
 23 16  1  0  0  0  0
 24 25  1  0  0  0  0
 27 28  1  0  0  0  0
 27 26  1  1  0  0  0
 30 28  1  0  0  0  0
 30 29  1  0  0  0  0
 31 30  1  0  0  0  0
 32 34  1  1  0  0  0
 32 30  1  0  0  0  0
 33 34  1  0  0  0  0
 35 36  1  0  0  0  0
 36 32  1  0  0  0  0
M  END
>  <MODEL>
5

>  <REMARK>
 VINA RESULT:      -5.9      2.264      3.371
  Name = 
  10 active torsions:
  status: ('A' for Active; 'I' for Inactive)
    1  A    between atoms: C_6  and  C_34
    2  A    between atoms: C_7  and  O_15
    3  A    between atoms: C_7  and  C_29
    4  A    between atoms: C_14  and  C_35
    5  A    between atoms: O_15  and  C_24
    6  A    between atoms: C_17  and  C_29
    7  A    between atoms: S_19  and  S_20
    8  A    between atoms: S_19  and  C_33
    9  A    between atoms: C_24  and  N_30
   10  A    between atoms: C_29  and  O_31
                            x       y       z     vdW  Elec       q    Type
                         _______ _______ _______ _____ _____    ______ ____

>  <TORSDO>
F 10

$$$$
=
 OpenBabel11072413343D

 36 38  0  0  1  0  0  0  0  0999 V2000
  161.2200  206.4100  152.2250 C   0  0  0  0  0  0  0  0  0  0  0  0
  160.5950  210.0100  151.5500 C   0  0  0  0  0  2  0  0  0  0  0  0
  161.0980  207.5790  154.7550 C   0  0  0  0  0  3  0  0  0  0  0  0
  160.9460  205.6480  153.3800 C   0  0  0  0  0  0  0  0  0  0  0  0
  163.0590  210.1850  153.9990 C   0  0  0  0  0  1  0  0  0  0  0  0
  161.5840  209.8630  153.8320 C   0  0  2  0  0  3  0  0  0  0  0  0
  161.8940  208.8620  151.0040 S   0  0  0  0  0  0  0  0  0  0  0  0
  161.3840  208.3780  153.6510 C   0  0  0  0  0  0  0  0  0  0  0  0
  160.8930  206.2480  154.5990 N   0  0  0  0  0  0  0  0  0  0  0  0
  160.6840  204.2480  153.2890 N   0  0  0  0  0  1  0  0  0  0  0  0
  160.9900  210.7260  152.7800 N   0  0  0  0  0  0  0  0  0  0  0  0
  161.4800  207.7900  152.3830 C   0  0  0  0  0  0  0  0  0  0  0  0
  161.0370  204.3490  150.7830 N   0  0  0  0  0  0  0  0  0  0  0  0
  161.3640  206.4960  149.7860 C   0  0  0  0  0  3  0  0  0  0  0  0
  161.1970  204.5440  148.3310 C   0  0  0  0  0  3  0  0  0  0  0  0
  161.2610  203.6320  149.5280 C   0  0  0  0  0  0  0  0  0  0  0  0
  161.2460  205.7610  150.8960 C   0  0  0  0  0  0  0  0  0  0  0  0
  161.3110  205.8730  148.4480 C   0  0  0  0  0  0  0  0  0  0  0  0
  161.2160  208.0670  147.6010 F   0  0  0  0  0  0  0  0  0  0  0  0
  162.3310  206.5160  146.4050 F   0  0  0  0  0  0  0  0  0  0  0  0
  161.2350  206.7370  147.2220 C   0  0  0  0  0  0  0  0  0  0  0  0
  160.0850  206.4510  146.5050 F   0  0  0  0  0  0  0  0  0  0  0  0
  160.1090  202.2270  149.3660 S   0  0  0  0  0  0  0  0  0  0  0  0
  160.8200  201.4150  146.7120 C   0  0  0  0  0  1  0  0  0  0  0  0
  161.4830  200.9530  148.3360 S   0  0  0  0  0  0  0  0  0  0  0  0
  159.8710  211.3400  154.8750 C   0  0  0  0  0  1  0  0  0  0  0  0
  159.8130  211.3990  153.3520 C   0  0  1  0  0  3  0  0  0  0  0  0
  159.7690  212.7580  152.9630 O   0  0  0  0  0  0  0  0  0  0  0  0
  158.0200  214.4530  152.8990 C   0  0  0  0  0  1  0  0  0  0  0  0
  158.5000  213.0870  152.4110 C   0  0  0  0  0  0  0  0  0  0  0  0
  157.4290  212.0510  152.7610 C   0  0  0  0  0  1  0  0  0  0  0  0
  158.6270  213.1590  150.8720 C   0  0  1  0  0  3  0  0  0  0  0  0
  156.7130  212.9860  149.4390 O   0  0  0  0  0  1  0  0  0  0  0  0
  157.4740  213.8930  150.1770 C   0  0  0  0  0  2  0  0  0  0  0  0
  159.7890  214.0200  149.0810 C   0  0  0  0  0  1  0  0  0  0  0  0
  159.9060  213.5420  150.3970 O   0  0  0  0  0  0  0  0  0  0  0  0
  1 12  2  0  0  0  0
  1  4  1  0  0  0  0
  2 11  1  0  0  0  0
  4  9  2  0  0  0  0
  6  5  1  6  0  0  0
  7  2  1  0  0  0  0
  7 12  1  0  0  0  0
  8  6  1  0  0  0  0
  8  3  2  0  0  0  0
  9  3  1  0  0  0  0
 10  4  1  0  0  0  0
 11 27  1  0  0  0  0
 11  6  1  0  0  0  0
 12  8  1  0  0  0  0
 13 17  1  0  0  0  0
 14 17  2  0  0  0  0
 15 18  2  0  0  0  0
 15 16  1  0  0  0  0
 16 13  2  0  0  0  0
 17  1  1  0  0  0  0
 18 14  1  0  0  0  0
 20 21  1  0  0  0  0
 21 19  1  0  0  0  0
 21 18  1  0  0  0  0
 22 21  1  0  0  0  0
 23 16  1  0  0  0  0
 24 25  1  0  0  0  0
 25 23  1  0  0  0  0
 27 26  1  1  0  0  0
 28 27  1  0  0  0  0
 30 31  1  0  0  0  0
 30 29  1  0  0  0  0
 30 28  1  0  0  0  0
 32 34  1  1  0  0  0
 32 30  1  0  0  0  0
 33 34  1  0  0  0  0
 35 36  1  0  0  0  0
 36 32  1  0  0  0  0
M  END
>  <MODEL>
6

>  <REMARK>
 VINA RESULT:      -5.4      2.655      3.699
  Name = 
  10 active torsions:
  status: ('A' for Active; 'I' for Inactive)
    1  A    between atoms: C_6  and  C_34
    2  A    between atoms: C_7  and  O_15
    3  A    between atoms: C_7  and  C_29
    4  A    between atoms: C_14  and  C_35
    5  A    between atoms: O_15  and  C_24
    6  A    between atoms: C_17  and  C_29
    7  A    between atoms: S_19  and  S_20
    8  A    between atoms: S_19  and  C_33
    9  A    between atoms: C_24  and  N_30
   10  A    between atoms: C_29  and  O_31
                            x       y       z     vdW  Elec       q    Type
                         _______ _______ _______ _____ _____    ______ ____

>  <TORSDO>
F 10

$$$$
=
 OpenBabel11072413343D

 36 38  0  0  1  0  0  0  0  0999 V2000
  161.1890  207.2090  153.1990 C   0  0  0  0  0  0  0  0  0  0  0  0
  160.5040  210.8400  152.8160 C   0  0  0  0  0  2  0  0  0  0  0  0
  160.7660  208.1140  155.8040 C   0  0  0  0  0  3  0  0  0  0  0  0
  160.8270  206.3270  154.2390 C   0  0  0  0  0  0  0  0  0  0  0  0
  162.6970  210.8340  155.5160 C   0  0  0  0  0  1  0  0  0  0  0  0
  161.2590  210.4900  155.1640 C   0  0  2  0  0  3  0  0  0  0  0  0
  161.8940  209.7890  152.3000 S   0  0  0  0  0  0  0  0  0  0  0  0
  161.1340  209.0270  154.8190 C   0  0  0  0  0  0  0  0  0  0  0  0
  160.6280  206.8000  155.4980 N   0  0  0  0  0  0  0  0  0  0  0  0
  160.6280  204.9380  153.9850 N   0  0  0  0  0  1  0  0  0  0  0  0
  160.7450  211.4390  154.1440 N   0  0  0  0  0  0  0  0  0  0  0  0
  161.3810  208.5730  153.5170 C   0  0  0  0  0  0  0  0  0  0  0  0
  161.2060  205.3030  151.5470 N   0  0  0  0  0  0  0  0  0  0  0  0
  161.6020  207.5420  150.8120 C   0  0  0  0  0  3  0  0  0  0  0  0
  161.6340  205.7470  149.1600 C   0  0  0  0  0  3  0  0  0  0  0  0
  161.5810  204.7190  150.2600 C   0  0  0  0  0  0  0  0  0  0  0  0
  161.3760  206.6990  151.8230 C   0  0  0  0  0  0  0  0  0  0  0  0
  161.7100  207.0580  149.4210 C   0  0  0  0  0  0  0  0  0  0  0  0
  160.9400  207.5940  147.2630 F   0  0  0  0  0  0  0  0  0  0  0  0
  161.3130  209.2840  148.7060 F   0  0  0  0  0  0  0  0  0  0  0  0
  161.7550  208.0410  148.2870 C   0  0  0  0  0  0  0  0  0  0  0  0
  163.0510  208.1680  147.8160 F   0  0  0  0  0  0  0  0  0  0  0  0
  160.4800  203.3290  149.8300 S   0  0  0  0  0  0  0  0  0  0  0  0
  160.6150  201.2970  147.8150 C   0  0  0  0  0  1  0  0  0  0  0  0
  161.3740  202.9410  147.9270 S   0  0  0  0  0  0  0  0  0  0  0  0
  159.6830  212.4910  156.0900 C   0  0  0  0  0  1  0  0  0  0  0  0
  159.4920  212.0200  154.6520 C   0  0  1  0  0  3  0  0  0  0  0  0
  159.0960  213.1310  153.8710 O   0  0  0  0  0  0  0  0  0  0  0  0
  157.4340  214.3500  155.1710 C   0  0  0  0  0  1  0  0  0  0  0  0
  157.7030  213.3840  154.0180 C   0  0  0  0  0  0  0  0  0  0  0  0
  156.9040  212.1040  154.2710 C   0  0  0  0  0  1  0  0  0  0  0  0
  157.1750  214.0430  152.7230 C   0  0  1  0  0  3  0  0  0  0  0  0
  157.8180  213.4870  150.4820 O   0  0  0  0  0  1  0  0  0  0  0  0
  158.2260  214.1890  151.6160 C   0  0  0  0  0  2  0  0  0  0  0  0
  154.9160  214.4530  152.5640 C   0  0  0  0  0  1  0  0  0  0  0  0
  155.9360  213.5350  152.2610 O   0  0  0  0  0  0  0  0  0  0  0  0
  1 12  2  0  0  0  0
  1  4  1  0  0  0  0
  2 11  1  0  0  0  0
  4  9  2  0  0  0  0
  6  5  1  6  0  0  0
  7  2  1  0  0  0  0
  7 12  1  0  0  0  0
  8  6  1  0  0  0  0
  8  3  2  0  0  0  0
  9  3  1  0  0  0  0
 10  4  1  0  0  0  0
 11 27  1  0  0  0  0
 11  6  1  0  0  0  0
 12  8  1  0  0  0  0
 13 17  1  0  0  0  0
 14 17  2  0  0  0  0
 15 18  2  0  0  0  0
 15 16  1  0  0  0  0
 16 13  2  0  0  0  0
 17  1  1  0  0  0  0
 18 14  1  0  0  0  0
 19 21  1  0  0  0  0
 21 20  1  0  0  0  0
 21 18  1  0  0  0  0
 22 21  1  0  0  0  0
 23 16  1  0  0  0  0
 24 25  1  0  0  0  0
 25 23  1  0  0  0  0
 27 26  1  1  0  0  0
 28 30  1  0  0  0  0
 28 27  1  0  0  0  0
 30 31  1  0  0  0  0
 30 29  1  0  0  0  0
 32 34  1  6  0  0  0
 32 30  1  0  0  0  0
 33 34  1  0  0  0  0
 36 35  1  0  0  0  0
 36 32  1  0  0  0  0
M  END
>  <MODEL>
7

>  <REMARK>
 VINA RESULT:      -5.0      2.674      3.417
  Name = 
  10 active torsions:
  status: ('A' for Active; 'I' for Inactive)
    1  A    between atoms: C_6  and  C_34
    2  A    between atoms: C_7  and  O_15
    3  A    between atoms: C_7  and  C_29
    4  A    between atoms: C_14  and  C_35
    5  A    between atoms: O_15  and  C_24
    6  A    between atoms: C_17  and  C_29
    7  A    between atoms: S_19  and  S_20
    8  A    between atoms: S_19  and  C_33
    9  A    between atoms: C_24  and  N_30
   10  A    between atoms: C_29  and  O_31
                            x       y       z     vdW  Elec       q    Type
                         _______ _______ _______ _____ _____    ______ ____

>  <TORSDO>
F 10

$$$$
=
 OpenBabel11072413343D

 36 38  0  0  1  0  0  0  0  0999 V2000
  161.4870  209.5970  151.6000 C   0  0  0  0  0  0  0  0  0  0  0  0
  161.1370  206.0560  150.5290 C   0  0  0  0  0  2  0  0  0  0  0  0
  161.9520  209.6550  148.8500 C   0  0  0  0  0  3  0  0  0  0  0  0
  161.3480  210.7840  150.8510 C   0  0  0  0  0  0  0  0  0  0  0  0
  164.0090  207.0140  148.8170 C   0  0  0  0  0  1  0  0  0  0  0  0
  162.5030  207.2060  148.7910 C   0  0  2  0  0  3  0  0  0  0  0  0
  162.1850  206.8690  151.7720 S   0  0  0  0  0  0  0  0  0  0  0  0
  162.1160  208.4570  149.5420 C   0  0  0  0  0  0  0  0  0  0  0  0
  161.5820  210.7790  149.5120 N   0  0  0  0  0  0  0  0  0  0  0  0
  160.9270  211.9970  151.4730 N   0  0  0  0  0  1  0  0  0  0  0  0
  161.8230  205.9590  149.2250 N   0  0  0  0  0  0  0  0  0  0  0  0
  161.9170  208.4300  150.9280 C   0  0  0  0  0  0  0  0  0  0  0  0
  161.1190  210.8360  153.7660 N   0  0  0  0  0  0  0  0  0  0  0  0
  160.9220  208.4550  153.6870 C   0  0  0  0  0  3  0  0  0  0  0  0
  160.5540  209.5880  155.8170 C   0  0  0  0  0  3  0  0  0  0  0  0
  161.0510  210.8820  155.2270 C   0  0  0  0  0  0  0  0  0  0  0  0
  161.2030  209.5960  153.0520 C   0  0  0  0  0  0  0  0  0  0  0  0
  160.5570  208.4460  155.1180 C   0  0  0  0  0  0  0  0  0  0  0  0
  160.5120  207.1050  157.0520 F   0  0  0  0  0  0  0  0  0  0  0  0
  158.6610  207.1780  155.7690 F   0  0  0  0  0  0  0  0  0  0  0  0
  160.0450  207.1850  155.7530 C   0  0  0  0  0  0  0  0  0  0  0  0
  160.4830  206.0800  155.0420 F   0  0  0  0  0  0  0  0  0  0  0  0
  160.0550  212.3040  155.7870 S   0  0  0  0  0  0  0  0  0  0  0  0
  157.7930  211.8760  154.0820 C   0  0  0  0  0  1  0  0  0  0  0  0
  158.1840  211.2720  155.7480 S   0  0  0  0  0  0  0  0  0  0  0  0
  159.6900  206.5770  148.1840 C   0  0  0  0  0  1  0  0  0  0  0  0
  160.8480  205.5860  148.1880 C   0  0  1  0  0  3  0  0  0  0  0  0
  161.4450  205.5970  146.9050 O   0  0  0  0  0  0  0  0  0  0  0  0
  161.6350  203.2880  147.6600 C   0  0  0  0  0  1  0  0  0  0  0  0
  161.9570  204.3120  146.5720 C   0  0  0  0  0  0  0  0  0  0  0  0
  163.4730  204.3280  146.3650 C   0  0  0  0  0  1  0  0  0  0  0  0
  161.2890  203.8310  145.2640 C   0  0  1  0  0  3  0  0  0  0  0  0
  159.5400  202.3760  144.5090 O   0  0  0  0  0  1  0  0  0  0  0  0
  160.6440  202.4430  145.3580 C   0  0  0  0  0  2  0  0  0  0  0  0
  161.2060  205.4530  143.6330 C   0  0  0  0  0  1  0  0  0  0  0  0
  160.4650  204.7930  144.6280 O   0  0  0  0  0  0  0  0  0  0  0  0
  1 17  1  0  0  0  0
  2  7  1  0  0  0  0
  3  9  2  0  0  0  0
  3  8  1  0  0  0  0
  4 10  1  0  0  0  0
  4  1  2  0  0  0  0
  6  5  1  1  0  0  0
  6 11  1  0  0  0  0
  6  8  1  0  0  0  0
  8 12  2  0  0  0  0
  9  4  1  0  0  0  0
 11  2  1  0  0  0  0
 12  1  1  0  0  0  0
 12  7  1  0  0  0  0
 13 16  1  0  0  0  0
 14 18  2  0  0  0  0
 16 23  1  0  0  0  0
 16 15  2  0  0  0  0
 17 14  1  0  0  0  0
 17 13  2  0  0  0  0
 18 21  1  0  0  0  0
 18 15  1  0  0  0  0
 21 20  1  0  0  0  0
 21 19  1  0  0  0  0
 22 21  1  0  0  0  0
 24 25  1  0  0  0  0
 25 23  1  0  0  0  0
 27 26  1  6  0  0  0
 27 11  1  0  0  0  0
 28 27  1  0  0  0  0
 30 28  1  0  0  0  0
 30 29  1  0  0  0  0
 31 30  1  0  0  0  0
 32 34  1  1  0  0  0
 32 30  1  0  0  0  0
 33 34  1  0  0  0  0
 35 36  1  0  0  0  0
 36 32  1  0  0  0  0
M  END
>  <MODEL>
8

>  <REMARK>
 VINA RESULT:      -4.4      4.509      9.073
  Name = 
  10 active torsions:
  status: ('A' for Active; 'I' for Inactive)
    1  A    between atoms: C_6  and  C_34
    2  A    between atoms: C_7  and  O_15
    3  A    between atoms: C_7  and  C_29
    4  A    between atoms: C_14  and  C_35
    5  A    between atoms: O_15  and  C_24
    6  A    between atoms: C_17  and  C_29
    7  A    between atoms: S_19  and  S_20
    8  A    between atoms: S_19  and  C_33
    9  A    between atoms: C_24  and  N_30
   10  A    between atoms: C_29  and  O_31
                            x       y       z     vdW  Elec       q    Type
                         _______ _______ _______ _____ _____    ______ ____

>  <TORSDO>
F 10

$$$$
=
 OpenBabel11072413343D

 36 38  0  0  1  0  0  0  0  0999 V2000
  161.1390  209.2860  152.6010 C   0  0  0  0  0  0  0  0  0  0  0  0
  160.4130  205.6440  152.7140 C   0  0  0  0  0  2  0  0  0  0  0  0
  162.3510  208.2650  150.3040 C   0  0  0  0  0  3  0  0  0  0  0  0
  161.4490  210.1110  151.4990 C   0  0  0  0  0  0  0  0  0  0  0  0
  163.7770  205.6490  151.8300 C   0  0  0  0  0  1  0  0  0  0  0  0
  162.4050  205.9390  151.2470 C   0  0  2  0  0  3  0  0  0  0  0  0
  161.2130  206.7770  153.8880 S   0  0  0  0  0  0  0  0  0  0  0  0
  162.0790  207.4080  151.3670 C   0  0  0  0  0  0  0  0  0  0  0  0
  162.0390  209.5820  150.3930 N   0  0  0  0  0  0  0  0  0  0  0  0
  161.1180  211.4980  151.5060 N   0  0  0  0  0  1  0  0  0  0  0  0
  161.4000  205.0070  151.8200 N   0  0  0  0  0  0  0  0  0  0  0  0
  161.5010  207.9210  152.5360 C   0  0  0  0  0  0  0  0  0  0  0  0
  161.2190  210.1060  154.9850 N   0  0  0  0  0  0  0  0  0  0  0  0
  159.1890  210.2350  153.7300 C   0  0  0  0  0  3  0  0  0  0  0  0
  159.1940  211.0460  156.0310 C   0  0  0  0  0  3  0  0  0  0  0  0
  160.5680  210.4660  156.2440 C   0  0  0  0  0  0  0  0  0  0  0  0
  160.4690  209.8560  153.7900 C   0  0  0  0  0  0  0  0  0  0  0  0
  158.5280  210.8800  154.8820 C   0  0  0  0  0  0  0  0  0  0  0  0
  156.3450  210.5900  154.0500 F   0  0  0  0  0  0  0  0  0  0  0  0
  156.6060  211.7620  155.9570 F   0  0  0  0  0  0  0  0  0  0  0  0
  157.1620  211.4830  154.7200 C   0  0  0  0  0  0  0  0  0  0  0  0
  157.2410  212.6600  153.9960 F   0  0  0  0  0  0  0  0  0  0  0  0
  161.6240  211.5830  157.2260 S   0  0  0  0  0  0  0  0  0  0  0  0
  164.4880  211.6710  157.2390 C   0  0  0  0  0  1  0  0  0  0  0  0
  163.3210  210.2820  157.2610 S   0  0  0  0  0  0  0  0  0  0  0  0
  160.1200  205.4030  149.7650 C   0  0  0  0  0  1  0  0  0  0  0  0
  160.6990  204.3510  150.7050 C   0  0  1  0  0  3  0  0  0  0  0  0
  161.5810  203.5320  149.9630 O   0  0  0  0  0  0  0  0  0  0  0  0
  159.4120  202.4390  149.7700 C   0  0  0  0  0  1  0  0  0  0  0  0
  160.8810  202.4570  149.3480 C   0  0  0  0  0  0  0  0  0  0  0  0
  161.4920  201.0960  149.6890 C   0  0  0  0  0  1  0  0  0  0  0  0
  160.9250  202.6430  147.8140 C   0  0  1  0  0  3  0  0  0  0  0  0
  161.2900  204.5330  146.3860 O   0  0  0  0  0  1  0  0  0  0  0  0
  161.9070  203.7210  147.3380 C   0  0  0  0  0  2  0  0  0  0  0  0
  160.4520  201.6450  145.7950 C   0  0  0  0  0  1  0  0  0  0  0  0
  161.0040  201.4400  147.0710 O   0  0  0  0  0  0  0  0  0  0  0  0
  1 17  1  0  0  0  0
  2  7  1  0  0  0  0
  3  9  2  0  0  0  0
  3  8  1  0  0  0  0
  4 10  1  0  0  0  0
  4  1  2  0  0  0  0
  6  8  1  0  0  0  0
  6 11  1  0  0  0  0
  6  5  1  1  0  0  0
  8 12  2  0  0  0  0
  9  4  1  0  0  0  0
 11  2  1  0  0  0  0
 12  1  1  0  0  0  0
 12  7  1  0  0  0  0
 13 16  1  0  0  0  0
 14 17  1  0  0  0  0
 14 18  2  0  0  0  0
 15 16  2  0  0  0  0
 16 23  1  0  0  0  0
 17 13  2  0  0  0  0
 18 15  1  0  0  0  0
 19 21  1  0  0  0  0
 21 18  1  0  0  0  0
 21 20  1  0  0  0  0
 22 21  1  0  0  0  0
 23 25  1  0  0  0  0
 24 25  1  0  0  0  0
 27 26  1  6  0  0  0
 27 11  1  0  0  0  0
 28 27  1  0  0  0  0
 30 31  1  0  0  0  0
 30 29  1  0  0  0  0
 30 28  1  0  0  0  0
 32 34  1  1  0  0  0
 32 30  1  0  0  0  0
 33 34  1  0  0  0  0
 35 36  1  0  0  0  0
 36 32  1  0  0  0  0
M  END
>  <MODEL>
9

>  <REMARK>
 VINA RESULT:      -4.4      5.038      9.339
  Name = 
  10 active torsions:
  status: ('A' for Active; 'I' for Inactive)
    1  A    between atoms: C_6  and  C_34
    2  A    between atoms: C_7  and  O_15
    3  A    between atoms: C_7  and  C_29
    4  A    between atoms: C_14  and  C_35
    5  A    between atoms: O_15  and  C_24
    6  A    between atoms: C_17  and  C_29
    7  A    between atoms: S_19  and  S_20
    8  A    between atoms: S_19  and  C_33
    9  A    between atoms: C_24  and  N_30
   10  A    between atoms: C_29  and  O_31
                            x       y       z     vdW  Elec       q    Type
                         _______ _______ _______ _____ _____    ______ ____

>  <TORSDO>
F 10

$$$$
