=
 OpenBabel11072413193D

 27 30  0  0  1  0  0  0  0  0999 V2000
  160.9070  203.1980  151.7730 C   0  0  0  0  0  3  0  0  0  0  0  0
  161.1880  205.5510  152.3160 C   0  0  0  0  0  0  0  0  0  0  0  0
  160.7660  203.5210  150.4190 C   0  0  0  0  0  0  0  0  0  0  0  0
  160.8520  204.8560  150.0120 C   0  0  0  0  0  3  0  0  0  0  0  0
  161.1130  204.2070  152.7160 C   0  0  0  0  0  3  0  0  0  0  0  0
  161.0530  205.8710  150.9530 C   0  0  0  0  0  0  0  0  0  0  0  0
  161.3700  200.5930  148.2460 C   0  0  0  0  0  2  0  0  0  0  0  0
  161.1980  201.8120  147.3610 C   0  0  2  0  0  3  0  0  0  0  0  0
  160.5820  202.4390  149.4070 C   0  0  1  0  0  0  0  0  0  0  0  0
  160.4230  202.7610  148.0510 O   0  0  0  0  0  0  0  0  0  0  0  0
  161.1370  201.1030  149.6400 C   0  0  1  0  0  3  0  0  0  0  0  0
  159.7600  201.3810  149.8240 O   0  0  0  0  0  0  0  0  0  0  0  0
  160.5320  201.4300  146.1270 N   0  0  0  0  0  2  0  0  0  0  0  0
  160.7250  202.4380  145.2450 O   0  0  0  0  0  1  0  0  0  0  0  0
  160.6600  206.6730  154.4600 C   0  0  0  0  0  1  0  0  0  0  0  0
  161.3970  206.5740  153.2490 O   0  0  0  0  0  0  0  0  0  0  0  0
  161.1540  207.2850  150.4870 C   0  0  0  0  0  2  0  0  0  0  0  0
  162.5460  207.5550  149.9430 C   0  0  0  0  0  2  0  0  0  0  0  0
  162.4660  208.0790  148.5120 C   0  0  1  0  0  3  0  0  0  0  0  0
  160.8220  207.0090  146.9540 N   0  0  0  0  0  0  0  0  0  0  0  0
  160.8680  205.8810  146.2140 C   0  0  0  0  0  3  0  0  0  0  0  0
  162.0450  205.2430  146.3640 N   0  0  0  0  0  0  0  0  0  0  0  0
  162.0280  207.0150  147.5480 C   0  0  0  0  0  0  0  0  0  0  0  0
  162.7760  205.9520  147.2060 N   0  0  0  0  0  2  0  0  0  0  0  0
  161.6080  209.2590  148.4280 N   0  0  0  0  0  0  0  0  0  0  0  0
  162.0390  210.4420  148.6230 C   0  0  0  0  0  0  0  0  0  0  0  0
  162.4580  211.5910  148.8120 O   0  0  0  0  0  0  0  0  0  0  0  0
  1  5  1  0  0  0  0
  2  5  2  0  0  0  0
  2 16  1  0  0  0  0
  3  1  2  0  0  0  0
  4  3  1  0  0  0  0
  4  6  2  0  0  0  0
  6  2  1  0  0  0  0
  8 13  1  6  0  0  0
  8 10  1  0  0  0  0
  8  7  1  0  0  0  0
  9 11  1  0  0  0  0
  9 12  1  0  0  0  0
  9  3  1  1  0  0  0
 10  9  1  0  0  0  0
 11  7  1  6  0  0  0
 11 12  1  0  0  0  0
 14 13  1  0  0  0  0
 16 15  1  0  0  0  0
 17  6  1  0  0  0  0
 18 17  1  0  0  0  0
 19 18  1  1  0  0  0
 20 23  2  0  0  0  0
 21 22  2  0  0  0  0
 21 20  1  0  0  0  0
 22 24  1  0  0  0  0
 23 19  1  0  0  0  0
 24 23  1  0  0  0  0
 25 19  1  0  0  0  0
 25 26  2  0  0  0  0
 26 27  2  0  0  0  0
M  END
>  <MODEL>
1

>  <REMARK>
 VINA RESULT:      -8.2      0.000      0.000
  Name = 
  8 active torsions:
  status: ('A' for Active; 'I' for Inactive)
    1  A    between atoms: N_1  and  C_11
    2  A    between atoms: N_4  and  C_14
    3  A    between atoms: C_7  and  O_12
    4  A    between atoms: C_8  and  C_15
    5  A    between atoms: C_11  and  C_17
    6  A    between atoms: C_11  and  C_22
    7  A    between atoms: C_16  and  C_17
    8  A    between atoms: C_16  and  C_27
                            x       y       z     vdW  Elec       q    Type
                         _______ _______ _______ _____ _____    ______ ____

>  <TORSDO>
F 8

$$$$
=
 OpenBabel11072413193D

 27 30  0  0  1  0  0  0  0  0999 V2000
  161.1270  204.3420  152.3560 C   0  0  0  0  0  3  0  0  0  0  0  0
  160.7420  203.3110  150.1880 C   0  0  0  0  0  0  0  0  0  0  0  0
  161.3010  205.5860  151.7410 C   0  0  0  0  0  0  0  0  0  0  0  0
  161.1800  205.6960  150.3520 C   0  0  0  0  0  3  0  0  0  0  0  0
  160.8530  203.2110  151.5850 C   0  0  0  0  0  3  0  0  0  0  0  0
  160.9110  204.5650  149.5740 C   0  0  0  0  0  0  0  0  0  0  0  0
  160.8150  208.5100  153.9480 C   0  0  0  0  0  2  0  0  0  0  0  0
  161.2820  209.0100  152.5950 C   0  0  2  0  0  3  0  0  0  0  0  0
  161.5590  206.8010  152.5690 C   0  0  1  0  0  0  0  0  0  0  0  0
  162.0080  207.9840  151.9640 O   0  0  0  0  0  0  0  0  0  0  0  0
  160.8300  207.0130  153.8220 C   0  0  1  0  0  3  0  0  0  0  0  0
  162.1670  206.5470  153.8070 O   0  0  0  0  0  0  0  0  0  0  0  0
  162.1270  210.1790  152.7720 N   0  0  0  0  0  2  0  0  0  0  0  0
  162.0620  210.5190  154.0810 O   0  0  0  0  0  1  0  0  0  0  0  0
  161.0540  200.9160  149.6390 C   0  0  0  0  0  1  0  0  0  0  0  0
  160.4640  202.1860  149.4010 O   0  0  0  0  0  0  0  0  0  0  0  0
  160.7730  204.7150  148.0960 C   0  0  0  0  0  2  0  0  0  0  0  0
  162.1110  204.4690  147.4210 C   0  0  0  0  0  2  0  0  0  0  0  0
  161.9210  204.2490  145.9240 C   0  0  1  0  0  3  0  0  0  0  0  0
  161.3220  201.8370  146.2390 N   0  0  0  0  0  0  0  0  0  0  0  0
  160.3960  201.0450  145.6600 C   0  0  0  0  0  3  0  0  0  0  0  0
  159.6690  201.7220  144.7500 N   0  0  0  0  0  0  0  0  0  0  0  0
  161.1100  203.0200  145.6350 C   0  0  0  0  0  0  0  0  0  0  0  0
  160.1190  202.9640  144.7290 N   0  0  0  0  0  2  0  0  0  0  0  0
  161.3420  205.4290  145.2850 N   0  0  0  0  0  0  0  0  0  0  0  0
  161.4310  205.6510  144.0330 C   0  0  0  0  0  0  0  0  0  0  0  0
  161.5190  205.8660  142.8170 O   0  0  0  0  0  0  0  0  0  0  0  0
  2  5  1  0  0  0  0
  3  1  1  0  0  0  0
  4  3  2  0  0  0  0
  5  1  2  0  0  0  0
  6  2  2  0  0  0  0
  6  4  1  0  0  0  0
  8 13  1  1  0  0  0
  8  7  1  0  0  0  0
  9  3  1  6  0  0  0
  9 12  1  0  0  0  0
  9 11  1  0  0  0  0
 10  9  1  0  0  0  0
 10  8  1  0  0  0  0
 11  7  1  1  0  0  0
 12 11  1  0  0  0  0
 13 14  1  0  0  0  0
 16 15  1  0  0  0  0
 16  2  1  0  0  0  0
 17  6  1  0  0  0  0
 18 17  1  0  0  0  0
 19 18  1  1  0  0  0
 21 20  1  0  0  0  0
 22 21  2  0  0  0  0
 23 19  1  0  0  0  0
 23 20  2  0  0  0  0
 24 22  1  0  0  0  0
 24 23  1  0  0  0  0
 25 19  1  0  0  0  0
 26 25  2  0  0  0  0
 27 26  2  0  0  0  0
M  END
>  <MODEL>
2

>  <REMARK>
 VINA RESULT:      -7.5      2.245      6.202
  Name = 
  8 active torsions:
  status: ('A' for Active; 'I' for Inactive)
    1  A    between atoms: N_1  and  C_11
    2  A    between atoms: N_4  and  C_14
    3  A    between atoms: C_7  and  O_12
    4  A    between atoms: C_8  and  C_15
    5  A    between atoms: C_11  and  C_17
    6  A    between atoms: C_11  and  C_22
    7  A    between atoms: C_16  and  C_17
    8  A    between atoms: C_16  and  C_27
                            x       y       z     vdW  Elec       q    Type
                         _______ _______ _______ _____ _____    ______ ____

>  <TORSDO>
F 8

$$$$
=
 OpenBabel11072413193D

 27 30  0  0  1  0  0  0  0  0999 V2000
  161.0110  204.7870  150.9760 C   0  0  0  0  0  3  0  0  0  0  0  0
  161.4650  206.4790  152.6610 C   0  0  0  0  0  0  0  0  0  0  0  0
  161.1360  205.7480  149.9680 C   0  0  0  0  0  0  0  0  0  0  0  0
  161.4410  207.0710  150.3040 C   0  0  0  0  0  3  0  0  0  0  0  0
  161.1710  205.1500  152.3140 C   0  0  0  0  0  3  0  0  0  0  0  0
  161.5970  207.4410  151.6440 C   0  0  0  0  0  0  0  0  0  0  0  0
  161.9310  204.8880  146.4620 C   0  0  0  0  0  2  0  0  0  0  0  0
  161.1070  206.1610  146.4630 C   0  0  2  0  0  3  0  0  0  0  0  0
  161.0000  205.3520  148.5350 C   0  0  1  0  0  0  0  0  0  0  0  0
  160.3270  206.1890  147.6320 O   0  0  0  0  0  0  0  0  0  0  0  0
  161.9990  204.4830  147.9080 C   0  0  1  0  0  3  0  0  0  0  0  0
  160.7390  203.9900  148.3260 O   0  0  0  0  0  0  0  0  0  0  0  0
  160.2460  206.1840  145.2920 N   0  0  0  0  0  2  0  0  0  0  0  0
  160.8450  205.4240  144.3450 O   0  0  0  0  0  1  0  0  0  0  0  0
  160.5440  206.9860  154.9030 C   0  0  0  0  0  1  0  0  0  0  0  0
  161.6320  206.8590  153.9990 O   0  0  0  0  0  0  0  0  0  0  0  0
  161.9350  208.8570  151.9720 C   0  0  0  0  0  2  0  0  0  0  0  0
  160.6710  209.6330  152.2970 C   0  0  0  0  0  2  0  0  0  0  0  0
  161.0000  210.8590  153.1430 C   0  0  1  0  0  3  0  0  0  0  0  0
  159.9210  212.5580  151.6520 N   0  0  0  0  0  0  0  0  0  0  0  0
  159.0190  213.5340  151.8860 C   0  0  0  0  0  3  0  0  0  0  0  0
  158.6470  213.5600  153.1800 N   0  0  0  0  0  0  0  0  0  0  0  0
  160.0650  212.0000  152.8670 C   0  0  0  0  0  0  0  0  0  0  0  0
  159.3060  212.5970  153.8010 N   0  0  0  0  0  2  0  0  0  0  0  0
  161.0280  210.5280  154.5660 N   0  0  0  0  0  0  0  0  0  0  0  0
  162.0820  210.6220  155.2770 C   0  0  0  0  0  0  0  0  0  0  0  0
  163.1060  210.7140  155.9660 O   0  0  0  0  0  0  0  0  0  0  0  0
  1  5  1  0  0  0  0
  2 16  1  0  0  0  0
  3  4  1  0  0  0  0
  3  1  2  0  0  0  0
  4  6  2  0  0  0  0
  5  2  2  0  0  0  0
  6 17  1  0  0  0  0
  6  2  1  0  0  0  0
  7  8  1  0  0  0  0
  8 13  1  6  0  0  0
  8 10  1  0  0  0  0
  9  3  1  1  0  0  0
 10  9  1  0  0  0  0
 11  7  1  6  0  0  0
 11 12  1  0  0  0  0
 11  9  1  0  0  0  0
 12  9  1  0  0  0  0
 14 13  1  0  0  0  0
 16 15  1  0  0  0  0
 17 18  1  0  0  0  0
 19 18  1  6  0  0  0
 19 25  1  0  0  0  0
 20 21  1  0  0  0  0
 20 23  2  0  0  0  0
 21 22  2  0  0  0  0
 22 24  1  0  0  0  0
 23 19  1  0  0  0  0
 23 24  1  0  0  0  0
 25 26  2  0  0  0  0
 26 27  2  0  0  0  0
M  END
>  <MODEL>
3

>  <REMARK>
 VINA RESULT:      -7.5      3.526      5.304
  Name = 
  8 active torsions:
  status: ('A' for Active; 'I' for Inactive)
    1  A    between atoms: N_1  and  C_11
    2  A    between atoms: N_4  and  C_14
    3  A    between atoms: C_7  and  O_12
    4  A    between atoms: C_8  and  C_15
    5  A    between atoms: C_11  and  C_17
    6  A    between atoms: C_11  and  C_22
    7  A    between atoms: C_16  and  C_17
    8  A    between atoms: C_16  and  C_27
                            x       y       z     vdW  Elec       q    Type
                         _______ _______ _______ _____ _____    ______ ____

>  <TORSDO>
F 8

$$$$
=
 OpenBabel11072413193D

 27 30  0  0  1  0  0  0  0  0999 V2000
  160.9430  204.0140  150.4940 C   0  0  0  0  0  3  0  0  0  0  0  0
  161.3580  205.5500  152.3310 C   0  0  0  0  0  0  0  0  0  0  0  0
  161.1600  205.0450  149.5740 C   0  0  0  0  0  0  0  0  0  0  0  0
  161.4920  206.3240  150.0320 C   0  0  0  0  0  3  0  0  0  0  0  0
  161.0370  204.2650  151.8630 C   0  0  0  0  0  3  0  0  0  0  0  0
  161.5830  206.5830  151.4030 C   0  0  0  0  0  0  0  0  0  0  0  0
  162.1250  204.4630  146.0540 C   0  0  0  0  0  2  0  0  0  0  0  0
  161.3090  205.7400  146.1170 C   0  0  2  0  0  3  0  0  0  0  0  0
  161.0940  204.7680  148.1090 C   0  0  1  0  0  0  0  0  0  0  0  0
  160.4720  205.6810  147.2450 O   0  0  0  0  0  0  0  0  0  0  0  0
  162.1180  203.9420  147.4630 C   0  0  1  0  0  3  0  0  0  0  0  0
  160.8360  203.4290  147.7770 O   0  0  0  0  0  0  0  0  0  0  0  0
  160.5080  205.8660  144.9110 N   0  0  0  0  0  2  0  0  0  0  0  0
  161.2170  205.3020  143.9050 O   0  0  0  0  0  1  0  0  0  0  0  0
  160.6880  206.8180  154.3510 C   0  0  0  0  0  1  0  0  0  0  0  0
  161.4600  205.8170  153.7020 O   0  0  0  0  0  0  0  0  0  0  0  0
  161.9530  207.9530  151.8620 C   0  0  0  0  0  2  0  0  0  0  0  0
  162.1700  208.8620  150.6640 C   0  0  0  0  0  2  0  0  0  0  0  0
  161.9860  210.3230  151.0630 C   0  0  1  0  0  3  0  0  0  0  0  0
  161.1020  212.3510  149.8880 N   0  0  0  0  0  0  0  0  0  0  0  0
  161.2160  212.7910  148.6180 C   0  0  0  0  0  3  0  0  0  0  0  0
  161.9630  211.9530  147.8730 N   0  0  0  0  0  0  0  0  0  0  0  0
  161.8210  211.2150  149.8680 C   0  0  0  0  0  0  0  0  0  0  0  0
  162.3420  210.9580  148.6560 N   0  0  0  0  0  2  0  0  0  0  0  0
  160.8770  210.4800  152.0010 N   0  0  0  0  0  0  0  0  0  0  0  0
  161.0460  210.7800  153.2280 C   0  0  0  0  0  0  0  0  0  0  0  0
  161.2120  211.0710  154.4200 O   0  0  0  0  0  0  0  0  0  0  0  0
  1  5  1  0  0  0  0
  2 16  1  0  0  0  0
  3  4  1  0  0  0  0
  3  1  2  0  0  0  0
  4  6  2  0  0  0  0
  5  2  2  0  0  0  0
  6 17  1  0  0  0  0
  6  2  1  0  0  0  0
  7  8  1  0  0  0  0
  8 13  1  6  0  0  0
  8 10  1  0  0  0  0
  9  3  1  1  0  0  0
 10  9  1  0  0  0  0
 11  7  1  6  0  0  0
 11 12  1  0  0  0  0
 11  9  1  0  0  0  0
 12  9  1  0  0  0  0
 14 13  1  0  0  0  0
 16 15  1  0  0  0  0
 18 17  1  0  0  0  0
 19 18  1  6  0  0  0
 19 25  1  0  0  0  0
 21 20  1  0  0  0  0
 22 21  2  0  0  0  0
 22 24  1  0  0  0  0
 23 20  2  0  0  0  0
 23 19  1  0  0  0  0
 24 23  1  0  0  0  0
 25 26  2  0  0  0  0
 26 27  2  0  0  0  0
M  END
>  <MODEL>
4

>  <REMARK>
 VINA RESULT:      -7.0      2.334      3.826
  Name = 
  8 active torsions:
  status: ('A' for Active; 'I' for Inactive)
    1  A    between atoms: N_1  and  C_11
    2  A    between atoms: N_4  and  C_14
    3  A    between atoms: C_7  and  O_12
    4  A    between atoms: C_8  and  C_15
    5  A    between atoms: C_11  and  C_17
    6  A    between atoms: C_11  and  C_22
    7  A    between atoms: C_16  and  C_17
    8  A    between atoms: C_16  and  C_27
                            x       y       z     vdW  Elec       q    Type
                         _______ _______ _______ _____ _____    ______ ____

>  <TORSDO>
F 8

$$$$
=
 OpenBabel11072413193D

 27 30  0  0  1  0  0  0  0  0999 V2000
  160.8300  207.6240  153.9770 C   0  0  0  0  0  3  0  0  0  0  0  0
  161.6010  205.9750  152.3670 C   0  0  0  0  0  0  0  0  0  0  0  0
  160.9090  208.6230  153.0020 C   0  0  0  0  0  0  0  0  0  0  0  0
  161.3190  208.2950  151.7050 C   0  0  0  0  0  3  0  0  0  0  0  0
  161.1770  206.3090  153.6640 C   0  0  0  0  0  3  0  0  0  0  0  0
  161.6730  206.9800  151.3870 C   0  0  0  0  0  0  0  0  0  0  0  0
  159.2410  211.5350  154.5510 C   0  0  0  0  0  2  0  0  0  0  0  0
  158.8360  211.4780  153.0910 C   0  0  2  0  0  3  0  0  0  0  0  0
  160.5040  210.0220  153.3280 C   0  0  1  0  0  0  0  0  0  0  0  0
  159.8400  210.8060  152.3730 O   0  0  0  0  0  0  0  0  0  0  0  0
  160.2230  210.4090  154.7130 C   0  0  1  0  0  3  0  0  0  0  0  0
  161.4440  210.7440  154.0790 O   0  0  0  0  0  0  0  0  0  0  0  0
  158.6760  212.8280  152.5770 N   0  0  0  0  0  2  0  0  0  0  0  0
  159.7650  213.0930  151.8180 O   0  0  0  0  0  1  0  0  0  0  0  0
  161.0570  203.5650  152.1880 C   0  0  0  0  0  1  0  0  0  0  0  0
  161.9500  204.6590  152.0350 O   0  0  0  0  0  0  0  0  0  0  0  0
  162.0930  206.6580  149.9920 C   0  0  0  0  0  2  0  0  0  0  0  0
  160.9540  206.9410  149.0270 C   0  0  0  0  0  2  0  0  0  0  0  0
  160.5890  205.6800  148.2490 C   0  0  1  0  0  3  0  0  0  0  0  0
  162.4400  205.7050  146.5610 N   0  0  0  0  0  0  0  0  0  0  0  0
  162.4430  205.7640  145.2130 C   0  0  0  0  0  3  0  0  0  0  0  0
  161.1900  205.8070  144.7190 N   0  0  0  0  0  0  0  0  0  0  0  0
  161.1260  205.7100  146.8480 C   0  0  0  0  0  0  0  0  0  0  0  0
  160.3600  205.7780  145.7460 N   0  0  0  0  0  2  0  0  0  0  0  0
  161.0200  204.4770  148.9570 N   0  0  0  0  0  0  0  0  0  0  0  0
  161.0110  203.3200  148.4240 C   0  0  0  0  0  0  0  0  0  0  0  0
  161.0010  202.1960  147.9050 O   0  0  0  0  0  0  0  0  0  0  0  0
  2  5  2  0  0  0  0
  3  1  2  0  0  0  0
  4  3  1  0  0  0  0
  5  1  1  0  0  0  0
  6  4  2  0  0  0  0
  6  2  1  0  0  0  0
  8 13  1  6  0  0  0
  8  7  1  0  0  0  0
  9  3  1  6  0  0  0
  9 12  1  0  0  0  0
  9 11  1  0  0  0  0
 10  8  1  0  0  0  0
 10  9  1  0  0  0  0
 11  7  1  6  0  0  0
 12 11  1  0  0  0  0
 14 13  1  0  0  0  0
 16 15  1  0  0  0  0
 16  2  1  0  0  0  0
 17  6  1  0  0  0  0
 18 17  1  0  0  0  0
 19 25  1  0  0  0  0
 19 18  1  1  0  0  0
 20 23  2  0  0  0  0
 21 20  1  0  0  0  0
 22 21  2  0  0  0  0
 22 24  1  0  0  0  0
 23 19  1  0  0  0  0
 24 23  1  0  0  0  0
 26 25  2  0  0  0  0
 27 26  2  0  0  0  0
M  END
>  <MODEL>
5

>  <REMARK>
 VINA RESULT:      -7.0      2.877      6.967
  Name = 
  8 active torsions:
  status: ('A' for Active; 'I' for Inactive)
    1  A    between atoms: N_1  and  C_11
    2  A    between atoms: N_4  and  C_14
    3  A    between atoms: C_7  and  O_12
    4  A    between atoms: C_8  and  C_15
    5  A    between atoms: C_11  and  C_17
    6  A    between atoms: C_11  and  C_22
    7  A    between atoms: C_16  and  C_17
    8  A    between atoms: C_16  and  C_27
                            x       y       z     vdW  Elec       q    Type
                         _______ _______ _______ _____ _____    ______ ____

>  <TORSDO>
F 8

$$$$
=
 OpenBabel11072413193D

 27 30  0  0  1  0  0  0  0  0999 V2000
  161.0830  204.1070  150.5630 C   0  0  0  0  0  3  0  0  0  0  0  0
  161.4340  205.6110  152.4410 C   0  0  0  0  0  0  0  0  0  0  0  0
  161.2040  205.1800  149.6740 C   0  0  0  0  0  0  0  0  0  0  0  0
  161.4570  206.4640  150.1670 C   0  0  0  0  0  3  0  0  0  0  0  0
  161.1930  204.3210  151.9380 C   0  0  0  0  0  3  0  0  0  0  0  0
  161.5630  206.6850  151.5430 C   0  0  0  0  0  0  0  0  0  0  0  0
  162.1250  204.7520  146.1200 C   0  0  0  0  0  2  0  0  0  0  0  0
  161.2530  205.9870  146.2390 C   0  0  2  0  0  3  0  0  0  0  0  0
  161.1210  204.9450  148.2020 C   0  0  1  0  0  0  0  0  0  0  0  0
  160.4410  205.8550  147.3790 O   0  0  0  0  0  0  0  0  0  0  0  0
  162.1690  204.1880  147.5120 C   0  0  1  0  0  3  0  0  0  0  0  0
  160.9180  203.6070  147.8330 O   0  0  0  0  0  0  0  0  0  0  0  0
  160.4230  206.1130  145.0520 N   0  0  0  0  0  2  0  0  0  0  0  0
  161.1150  205.5670  144.0250 O   0  0  0  0  0  1  0  0  0  0  0  0
  160.5190  206.4400  154.5880 C   0  0  0  0  0  1  0  0  0  0  0  0
  161.5510  205.8410  153.8180 O   0  0  0  0  0  0  0  0  0  0  0  0
  161.8470  208.0630  152.0390 C   0  0  0  0  0  2  0  0  0  0  0  0
  160.5600  208.8680  152.1040 C   0  0  0  0  0  2  0  0  0  0  0  0
  160.8670  210.3620  152.1300 C   0  0  1  0  0  3  0  0  0  0  0  0
  161.8300  210.4320  154.4420 N   0  0  0  0  0  0  0  0  0  0  0  0
  161.5320  211.1690  155.5320 C   0  0  0  0  0  3  0  0  0  0  0  0
  160.5220  212.0260  155.2840 N   0  0  0  0  0  0  0  0  0  0  0  0
  160.9550  210.8930  153.5310 C   0  0  0  0  0  0  0  0  0  0  0  0
  160.1540  211.8520  154.0270 N   0  0  0  0  0  2  0  0  0  0  0  0
  162.0770  210.6680  151.3690 N   0  0  0  0  0  0  0  0  0  0  0  0
  162.0820  210.7970  150.1020 C   0  0  0  0  0  0  0  0  0  0  0  0
  162.0860  210.9220  148.8700 O   0  0  0  0  0  0  0  0  0  0  0  0
  1  5  1  0  0  0  0
  2 16  1  0  0  0  0
  3  4  1  0  0  0  0
  3  1  2  0  0  0  0
  4  6  2  0  0  0  0
  5  2  2  0  0  0  0
  6 17  1  0  0  0  0
  6  2  1  0  0  0  0
  7  8  1  0  0  0  0
  8 13  1  6  0  0  0
  8 10  1  0  0  0  0
  9  3  1  1  0  0  0
 10  9  1  0  0  0  0
 11  7  1  6  0  0  0
 11 12  1  0  0  0  0
 11  9  1  0  0  0  0
 12  9  1  0  0  0  0
 14 13  1  0  0  0  0
 16 15  1  0  0  0  0
 17 18  1  0  0  0  0
 19 18  1  1  0  0  0
 19 23  1  0  0  0  0
 20 21  1  0  0  0  0
 22 21  2  0  0  0  0
 23 24  1  0  0  0  0
 23 20  2  0  0  0  0
 24 22  1  0  0  0  0
 25 19  1  0  0  0  0
 26 25  2  0  0  0  0
 27 26  2  0  0  0  0
M  END
>  <MODEL>
6

>  <REMARK>
 VINA RESULT:      -6.9      3.066      4.836
  Name = 
  8 active torsions:
  status: ('A' for Active; 'I' for Inactive)
    1  A    between atoms: N_1  and  C_11
    2  A    between atoms: N_4  and  C_14
    3  A    between atoms: C_7  and  O_12
    4  A    between atoms: C_8  and  C_15
    5  A    between atoms: C_11  and  C_17
    6  A    between atoms: C_11  and  C_22
    7  A    between atoms: C_16  and  C_17
    8  A    between atoms: C_16  and  C_27
                            x       y       z     vdW  Elec       q    Type
                         _______ _______ _______ _____ _____    ______ ____

>  <TORSDO>
F 8

$$$$
=
 OpenBabel11072413193D

 27 30  0  0  1  0  0  0  0  0999 V2000
  161.6820  209.9100  151.9820 C   0  0  0  0  0  3  0  0  0  0  0  0
  161.9500  209.8270  149.5670 C   0  0  0  0  0  0  0  0  0  0  0  0
  161.6890  208.5130  152.0370 C   0  0  0  0  0  0  0  0  0  0  0  0
  161.8420  207.7730  150.8600 C   0  0  0  0  0  3  0  0  0  0  0  0
  161.8080  210.5640  150.7550 C   0  0  0  0  0  3  0  0  0  0  0  0
  161.9640  208.4220  149.6270 C   0  0  0  0  0  0  0  0  0  0  0  0
  160.3850  206.5940  154.9140 C   0  0  0  0  0  2  0  0  0  0  0  0
  160.7020  208.0000  155.3860 C   0  0  2  0  0  3  0  0  0  0  0  0
  161.5900  207.8150  153.3530 C   0  0  1  0  0  0  0  0  0  0  0  0
  161.6910  208.5420  154.5480 O   0  0  0  0  0  0  0  0  0  0  0  0
  160.8220  206.5730  153.4760 C   0  0  1  0  0  3  0  0  0  0  0  0
  162.2360  206.5710  153.4050 O   0  0  0  0  0  0  0  0  0  0  0  0
  161.1830  207.9560  156.7580 N   0  0  0  0  0  2  0  0  0  0  0  0
  162.1930  208.8530  156.8500 O   0  0  0  0  0  1  0  0  0  0  0  0
  162.4740  211.8270  148.2030 C   0  0  0  0  0  1  0  0  0  0  0  0
  162.0810  210.4680  148.3280 O   0  0  0  0  0  0  0  0  0  0  0  0
  162.1400  207.6070  148.3900 C   0  0  0  0  0  2  0  0  0  0  0  0
  161.0360  206.5680  148.2900 C   0  0  0  0  0  2  0  0  0  0  0  0
  161.6270  205.1860  148.0280 C   0  0  1  0  0  3  0  0  0  0  0  0
  161.2040  204.4570  150.3870 N   0  0  0  0  0  0  0  0  0  0  0  0
  160.7890  203.2890  150.9200 C   0  0  0  0  0  3  0  0  0  0  0  0
  160.5620  202.3660  149.9650 N   0  0  0  0  0  0  0  0  0  0  0  0
  161.2080  204.1900  149.0700 C   0  0  0  0  0  0  0  0  0  0  0  0
  160.8280  202.9300  148.7990 N   0  0  0  0  0  2  0  0  0  0  0  0
  161.3020  204.7170  146.6830 N   0  0  0  0  0  0  0  0  0  0  0  0
  160.8610  205.4890  145.7690 C   0  0  0  0  0  0  0  0  0  0  0  0
  160.4330  206.2390  144.8830 O   0  0  0  0  0  0  0  0  0  0  0  0
  1  3  1  0  0  0  0
  2  6  2  0  0  0  0
  2  5  1  0  0  0  0
  4  3  2  0  0  0  0
  5  1  2  0  0  0  0
  6  4  1  0  0  0  0
  7  8  1  0  0  0  0
  8 13  1  1  0  0  0
  9  3  1  6  0  0  0
  9 12  1  0  0  0  0
  9 11  1  0  0  0  0
  9 10  1  0  0  0  0
 10  8  1  0  0  0  0
 11  7  1  1  0  0  0
 12 11  1  0  0  0  0
 13 14  1  0  0  0  0
 15 16  1  0  0  0  0
 16  2  1  0  0  0  0
 17  6  1  0  0  0  0
 18 17  1  0  0  0  0
 19 18  1  1  0  0  0
 19 23  1  0  0  0  0
 20 21  1  0  0  0  0
 22 21  2  0  0  0  0
 23 20  2  0  0  0  0
 24 23  1  0  0  0  0
 24 22  1  0  0  0  0
 25 19  1  0  0  0  0
 26 25  2  0  0  0  0
 27 26  2  0  0  0  0
M  END
>  <MODEL>
7

>  <REMARK>
 VINA RESULT:      -6.8      2.671      6.747
  Name = 
  8 active torsions:
  status: ('A' for Active; 'I' for Inactive)
    1  A    between atoms: N_1  and  C_11
    2  A    between atoms: N_4  and  C_14
    3  A    between atoms: C_7  and  O_12
    4  A    between atoms: C_8  and  C_15
    5  A    between atoms: C_11  and  C_17
    6  A    between atoms: C_11  and  C_22
    7  A    between atoms: C_16  and  C_17
    8  A    between atoms: C_16  and  C_27
                            x       y       z     vdW  Elec       q    Type
                         _______ _______ _______ _____ _____    ______ ____

>  <TORSDO>
F 8

$$$$
=
 OpenBabel11072413193D

 27 30  0  0  1  0  0  0  0  0999 V2000
  161.9550  211.0120  150.4400 C   0  0  0  0  0  3  0  0  0  0  0  0
  162.0810  208.6380  150.9510 C   0  0  0  0  0  0  0  0  0  0  0  0
  161.9600  210.7240  149.0720 C   0  0  0  0  0  0  0  0  0  0  0  0
  162.0100  209.3930  148.6430 C   0  0  0  0  0  3  0  0  0  0  0  0
  162.0180  209.9770  151.3740 C   0  0  0  0  0  3  0  0  0  0  0  0
  162.0800  208.3530  149.5740 C   0  0  0  0  0  0  0  0  0  0  0  0
  161.6680  214.0810  147.5540 C   0  0  0  0  0  2  0  0  0  0  0  0
  160.4230  213.2920  147.2010 C   0  0  2  0  0  3  0  0  0  0  0  0
  161.8570  211.8290  148.0730 C   0  0  1  0  0  0  0  0  0  0  0  0
  160.7360  211.9210  147.2360 O   0  0  0  0  0  0  0  0  0  0  0  0
  162.5270  213.1100  148.3140 C   0  0  1  0  0  3  0  0  0  0  0  0
  163.0600  212.1460  147.4240 O   0  0  0  0  0  0  0  0  0  0  0  0
  159.9710  213.6630  145.8700 N   0  0  0  0  0  2  0  0  0  0  0  0
  160.8570  213.1400  144.9910 O   0  0  0  0  0  1  0  0  0  0  0  0
  161.0560  207.2510  152.7280 C   0  0  0  0  0  1  0  0  0  0  0  0
  162.1410  207.5890  151.8760 O   0  0  0  0  0  0  0  0  0  0  0  0
  162.1180  206.9430  149.0880 C   0  0  0  0  0  2  0  0  0  0  0  0
  160.7180  206.3520  149.0950 C   0  0  0  0  0  2  0  0  0  0  0  0
  160.7080  204.9990  148.3910 C   0  0  1  0  0  3  0  0  0  0  0  0
  161.0120  205.7590  146.0240 N   0  0  0  0  0  0  0  0  0  0  0  0
  161.9440  205.4790  145.0890 C   0  0  0  0  0  3  0  0  0  0  0  0
  162.8760  204.6290  145.5630 N   0  0  0  0  0  0  0  0  0  0  0  0
  161.4350  205.0420  147.0790 C   0  0  0  0  0  0  0  0  0  0  0  0
  162.5560  204.3500  146.8150 N   0  0  0  0  0  2  0  0  0  0  0  0
  161.2360  203.9470  149.2580 N   0  0  0  0  0  0  0  0  0  0  0  0
  160.9280  203.8470  150.4900 C   0  0  0  0  0  0  0  0  0  0  0  0
  160.6270  203.7500  151.6870 O   0  0  0  0  0  0  0  0  0  0  0  0
  1  5  1  0  0  0  0
  2  5  2  0  0  0  0
  2 16  1  0  0  0  0
  3  1  2  0  0  0  0
  4  3  1  0  0  0  0
  4  6  2  0  0  0  0
  6  2  1  0  0  0  0
  8 13  1  6  0  0  0
  8 10  1  0  0  0  0
  8  7  1  0  0  0  0
  9 11  1  0  0  0  0
  9  3  1  1  0  0  0
 10  9  1  0  0  0  0
 11  7  1  6  0  0  0
 12  9  1  0  0  0  0
 12 11  1  0  0  0  0
 14 13  1  0  0  0  0
 16 15  1  0  0  0  0
 17 18  1  0  0  0  0
 17  6  1  0  0  0  0
 19 18  1  1  0  0  0
 19 25  1  0  0  0  0
 20 23  2  0  0  0  0
 21 22  2  0  0  0  0
 21 20  1  0  0  0  0
 22 24  1  0  0  0  0
 23 19  1  0  0  0  0
 24 23  1  0  0  0  0
 25 26  2  0  0  0  0
 26 27  2  0  0  0  0
M  END
>  <MODEL>
8

>  <REMARK>
 VINA RESULT:      -6.7      2.567      7.274
  Name = 
  8 active torsions:
  status: ('A' for Active; 'I' for Inactive)
    1  A    between atoms: N_1  and  C_11
    2  A    between atoms: N_4  and  C_14
    3  A    between atoms: C_7  and  O_12
    4  A    between atoms: C_8  and  C_15
    5  A    between atoms: C_11  and  C_17
    6  A    between atoms: C_11  and  C_22
    7  A    between atoms: C_16  and  C_17
    8  A    between atoms: C_16  and  C_27
                            x       y       z     vdW  Elec       q    Type
                         _______ _______ _______ _____ _____    ______ ____

>  <TORSDO>
F 8

$$$$
=
 OpenBabel11072413193D

 27 30  0  0  1  0  0  0  0  0999 V2000
  161.7050  205.8680  146.6980 C   0  0  0  0  0  3  0  0  0  0  0  0
  161.3450  207.4060  148.5460 C   0  0  0  0  0  0  0  0  0  0  0  0
  161.5090  204.7810  147.5550 C   0  0  0  0  0  0  0  0  0  0  0  0
  161.2160  205.0060  148.9040 C   0  0  0  0  0  3  0  0  0  0  0  0
  161.6280  207.1720  147.1900 C   0  0  0  0  0  3  0  0  0  0  0  0
  161.1420  206.3100  149.4040 C   0  0  0  0  0  0  0  0  0  0  0  0
  160.5380  201.5720  146.0010 C   0  0  0  0  0  2  0  0  0  0  0  0
  160.8880  201.3090  147.4530 C   0  0  2  0  0  3  0  0  0  0  0  0
  161.5570  203.3880  147.0210 C   0  0  1  0  0  0  0  0  0  0  0  0
  161.7770  202.3070  147.8880 O   0  0  0  0  0  0  0  0  0  0  0  0
  160.8200  203.0350  145.8050 C   0  0  1  0  0  3  0  0  0  0  0  0
  162.2190  203.2550  145.7920 O   0  0  0  0  0  0  0  0  0  0  0  0
  161.5130  200.0010  147.5750 N   0  0  0  0  0  2  0  0  0  0  0  0
  161.4950  199.4390  146.3440 O   0  0  0  0  0  1  0  0  0  0  0  0
  162.3380  209.6320  148.9850 C   0  0  0  0  0  1  0  0  0  0  0  0
  161.2610  208.7080  149.0550 O   0  0  0  0  0  0  0  0  0  0  0  0
  160.8140  206.5200  150.8440 C   0  0  0  0  0  2  0  0  0  0  0  0
  162.0740  206.4160  151.6860 C   0  0  0  0  0  2  0  0  0  0  0  0
  161.7490  205.8540  153.0660 C   0  0  1  0  0  3  0  0  0  0  0  0
  160.4670  206.6070  155.0820 N   0  0  0  0  0  0  0  0  0  0  0  0
  160.1450  207.8300  155.5540 C   0  0  0  0  0  3  0  0  0  0  0  0
  160.6330  208.8060  154.7630 N   0  0  0  0  0  0  0  0  0  0  0  0
  161.1740  206.9000  153.9770 C   0  0  0  0  0  0  0  0  0  0  0  0
  161.2780  208.2230  153.7680 N   0  0  0  0  0  2  0  0  0  0  0  0
  160.8690  204.6910  152.9700 N   0  0  0  0  0  0  0  0  0  0  0  0
  161.1470  203.6700  152.2600 C   0  0  0  0  0  0  0  0  0  0  0  0
  161.4180  202.6800  151.5700 O   0  0  0  0  0  0  0  0  0  0  0  0
  1  5  2  0  0  0  0
  1  3  1  0  0  0  0
  2 16  1  0  0  0  0
  2  6  2  0  0  0  0
  3  4  2  0  0  0  0
  4  6  1  0  0  0  0
  5  2  1  0  0  0  0
  6 17  1  0  0  0  0
  7  8  1  0  0  0  0
  8 13  1  6  0  0  0
  8 10  1  0  0  0  0
  9  3  1  1  0  0  0
  9 10  1  0  0  0  0
 11  7  1  1  0  0  0
 11  9  1  0  0  0  0
 12 11  1  0  0  0  0
 12  9  1  0  0  0  0
 14 13  1  0  0  0  0
 15 16  1  0  0  0  0
 17 18  1  0  0  0  0
 19 18  1  6  0  0  0
 19 23  1  0  0  0  0
 20 21  1  0  0  0  0
 22 21  2  0  0  0  0
 23 20  2  0  0  0  0
 24 23  1  0  0  0  0
 24 22  1  0  0  0  0
 25 19  1  0  0  0  0
 26 25  2  0  0  0  0
 27 26  2  0  0  0  0
M  END
>  <MODEL>
9

>  <REMARK>
 VINA RESULT:      -6.7      2.905      5.454
  Name = 
  8 active torsions:
  status: ('A' for Active; 'I' for Inactive)
    1  A    between atoms: N_1  and  C_11
    2  A    between atoms: N_4  and  C_14
    3  A    between atoms: C_7  and  O_12
    4  A    between atoms: C_8  and  C_15
    5  A    between atoms: C_11  and  C_17
    6  A    between atoms: C_11  and  C_22
    7  A    between atoms: C_16  and  C_17
    8  A    between atoms: C_16  and  C_27
                            x       y       z     vdW  Elec       q    Type
                         _______ _______ _______ _____ _____    ______ ____

>  <TORSDO>
F 8

$$$$
