=
 OpenBabel11072411023D

 30 35  0  0  1  0  0  0  0  0999 V2000
  159.7120  212.7080  154.1090 N   0  0  0  0  0  0  0  0  0  0  0  0
  162.5330  208.1360  148.9360 N   0  0  0  0  0  0  0  0  0  0  0  0
  161.9430  209.4100  150.8380 C   0  0  0  0  0  0  0  0  0  0  0  0
  159.7250  212.6750  152.7550 C   0  0  0  0  0  0  0  0  0  0  0  0
  161.1600  210.8460  154.1690 C   0  0  0  0  0  3  0  0  0  0  0  0
  161.6820  210.1310  149.7710 C   0  0  0  0  0  0  0  0  0  0  0  0
  161.8310  209.7860  152.2180 N   0  0  0  0  0  0  0  0  0  0  0  0
  159.0920  213.6160  151.8460 C   0  0  0  0  0  3  0  0  0  0  0  0
  162.5110  208.1000  150.4070 C   0  0  1  0  0  3  0  0  0  0  0  0
  159.5130  213.2170  150.6440 C   0  0  0  0  0  0  0  0  0  0  0  0
  161.2280  211.4940  149.7300 N   0  0  0  0  0  0  0  0  0  0  0  0
  160.4750  211.7530  152.0660 C   0  0  0  0  0  0  0  0  0  0  0  0
  162.0290  209.4050  148.6100 N   0  0  0  0  0  0  0  0  0  0  0  0
  161.2020  210.7810  152.7670 C   0  0  0  0  0  0  0  0  0  0  0  0
  160.4050  212.0460  150.7740 C   0  0  0  0  0  0  0  0  0  0  0  0
  160.4220  211.8080  154.7970 N   0  0  0  0  0  0  0  0  0  0  0  0
  161.4270  212.2560  148.4920 C   0  0  0  0  0  3  0  0  0  0  0  0
  162.9100  212.3800  148.1720 C   0  0  0  0  0  2  0  0  0  0  0  0
  162.1790  213.5460  148.7870 C   0  0  0  0  0  2  0  0  0  0  0  0
  159.1500  213.8110  149.4330 O   0  0  0  0  0  0  0  0  0  0  0  0
  157.9100  213.5430  148.7950 C   0  0  0  0  0  1  0  0  0  0  0  0
  161.6180  206.9650  150.8790 C   0  0  0  0  0  2  0  0  0  0  0  0
  160.8680  206.4740  149.8090 O   0  0  0  0  0  0  0  0  0  0  0  0
  161.4330  203.2140  148.0890 C   0  0  0  0  0  2  0  0  0  0  0  0
  161.2640  205.1410  149.6780 C   0  0  1  0  0  3  0  0  0  0  0  0
  160.8610  202.8080  150.4930 C   0  0  0  0  0  2  0  0  0  0  0  0
  160.6310  202.3460  149.0560 C   0  0  2  0  0  3  0  0  0  0  0  0
  160.4610  204.2720  150.6440 C   0  0  0  0  0  2  0  0  0  0  0  0
  161.0270  201.0160  148.9260 O   0  0  0  0  0  1  0  0  0  0  0  0
  161.0330  204.6780  148.2400 C   0  0  0  0  0  2  0  0  0  0  0  0
  1 16  1  0  0  0  0
  2  9  1  0  0  0  0
  3  7  1  0  0  0  0
  4  1  2  0  0  0  0
  5 16  2  0  0  0  0
  6  3  2  0  0  0  0
  7 14  2  0  0  0  0
  8  4  1  0  0  0  0
  9  3  1  0  0  0  0
  9 22  1  6  0  0  0
 10 15  1  0  0  0  0
 10  8  2  0  0  0  0
 11  6  1  0  0  0  0
 11 15  1  0  0  0  0
 12  4  1  0  0  0  0
 12 14  1  0  0  0  0
 13  2  2  0  0  0  0
 13  6  1  0  0  0  0
 14  5  1  0  0  0  0
 15 12  2  0  0  0  0
 17 19  1  0  0  0  0
 17 11  1  0  0  0  0
 18 17  1  0  0  0  0
 18 19  1  0  0  0  0
 20 10  1  0  0  0  0
 21 20  1  0  0  0  0
 23 22  1  0  0  0  0
 24 30  1  0  0  0  0
 24 27  1  0  0  0  0
 25 23  1  6  0  0  0
 25 28  1  0  0  0  0
 26 28  1  0  0  0  0
 27 29  1  1  0  0  0
 27 26  1  0  0  0  0
 30 25  1  0  0  0  0
M  END
>  <MODEL>
1

>  <REMARK>
 VINA RESULT:      -6.9      0.000      0.000
  Name = 
  5 active torsions:
  status: ('A' for Active; 'I' for Inactive)
    1  A    between atoms: C_2  and  N_22
    2  A    between atoms: C_5  and  O_13
    3  A    between atoms: O_7  and  C_21
    4  A    between atoms: C_8  and  O_13
    5  A    between atoms: C_8  and  C_20
                            x       y       z     vdW  Elec       q    Type
                         _______ _______ _______ _____ _____    ______ ____

>  <TORSDO>
F 5

$$$$
=
 OpenBabel11072411023D

 30 35  0  0  1  0  0  0  0  0999 V2000
  160.8260  201.3560  150.8020 N   0  0  0  0  0  0  0  0  0  0  0  0
  161.5180  208.4050  148.4680 N   0  0  0  0  0  0  0  0  0  0  0  0
  161.0960  206.3480  149.5530 C   0  0  0  0  0  0  0  0  0  0  0  0
  161.0200  201.9610  149.6060 C   0  0  0  0  0  0  0  0  0  0  0  0
  160.5550  203.4650  151.8260 C   0  0  0  0  0  3  0  0  0  0  0  0
  161.0910  206.1300  148.2580 C   0  0  0  0  0  0  0  0  0  0  0  0
  160.8060  205.4260  150.6140 N   0  0  0  0  0  0  0  0  0  0  0  0
  161.1940  201.3190  148.3140 C   0  0  0  0  0  3  0  0  0  0  0  0
  161.3520  207.7970  149.7970 C   0  0  1  0  0  3  0  0  0  0  0  0
  161.2110  202.3440  147.4590 C   0  0  0  0  0  0  0  0  0  0  0  0
  160.7770  204.9020  147.5820 N   0  0  0  0  0  0  0  0  0  0  0  0
  160.9580  203.3270  149.4730 C   0  0  0  0  0  0  0  0  0  0  0  0
  161.3340  207.3400  147.5720 N   0  0  0  0  0  0  0  0  0  0  0  0
  160.7480  204.1280  150.6040 C   0  0  0  0  0  0  0  0  0  0  0  0
  161.0440  203.6210  148.1830 C   0  0  0  0  0  0  0  0  0  0  0  0
  160.5960  202.1010  151.8880 N   0  0  0  0  0  0  0  0  0  0  0  0
  160.3870  204.9660  146.1690 C   0  0  0  0  0  3  0  0  0  0  0  0
  161.5830  205.3260  145.2990 C   0  0  0  0  0  2  0  0  0  0  0  0
  160.5640  206.3830  145.6420 C   0  0  0  0  0  2  0  0  0  0  0  0
  161.3780  202.2280  146.0760 O   0  0  0  0  0  0  0  0  0  0  0  0
  160.4310  201.5690  145.2480 C   0  0  0  0  0  1  0  0  0  0  0  0
  162.6270  207.9710  150.6050 C   0  0  0  0  0  2  0  0  0  0  0  0
  162.5020  209.0680  151.4600 O   0  0  0  0  0  0  0  0  0  0  0  0
  160.3390  209.3620  154.4830 C   0  0  0  0  0  2  0  0  0  0  0  0
  161.5200  208.6930  152.3790 C   0  0  1  0  0  3  0  0  0  0  0  0
  160.8520  206.9500  154.0480 C   0  0  0  0  0  2  0  0  0  0  0  0
  160.7180  208.0270  155.1210 C   0  0  2  0  0  3  0  0  0  0  0  0
  161.9010  207.3590  153.0180 C   0  0  0  0  0  2  0  0  0  0  0  0
  159.7380  207.6540  156.0380 O   0  0  0  0  0  1  0  0  0  0  0  0
  161.3870  209.7710  153.4530 C   0  0  0  0  0  2  0  0  0  0  0  0
  1 16  1  0  0  0  0
  2  9  1  0  0  0  0
  3  9  1  0  0  0  0
  3  7  1  0  0  0  0
  4  1  2  0  0  0  0
  5 16  2  0  0  0  0
  6  3  2  0  0  0  0
  8  4  1  0  0  0  0
  9 22  1  1  0  0  0
 10 15  1  0  0  0  0
 10  8  2  0  0  0  0
 11 15  1  0  0  0  0
 11  6  1  0  0  0  0
 12  4  1  0  0  0  0
 12 14  1  0  0  0  0
 13  6  1  0  0  0  0
 13  2  2  0  0  0  0
 14  7  2  0  0  0  0
 14  5  1  0  0  0  0
 15 12  2  0  0  0  0
 17 11  1  0  0  0  0
 18 19  1  0  0  0  0
 18 17  1  0  0  0  0
 19 17  1  0  0  0  0
 20 10  1  0  0  0  0
 21 20  1  0  0  0  0
 22 23  1  0  0  0  0
 24 27  1  0  0  0  0
 25 23  1  6  0  0  0
 25 28  1  0  0  0  0
 25 30  1  0  0  0  0
 26 27  1  0  0  0  0
 27 29  1  1  0  0  0
 28 26  1  0  0  0  0
 30 24  1  0  0  0  0
M  END
>  <MODEL>
2

>  <REMARK>
 VINA RESULT:      -6.8      3.739      8.002
  Name = 
  5 active torsions:
  status: ('A' for Active; 'I' for Inactive)
    1  A    between atoms: C_2  and  N_22
    2  A    between atoms: C_5  and  O_13
    3  A    between atoms: O_7  and  C_21
    4  A    between atoms: C_8  and  O_13
    5  A    between atoms: C_8  and  C_20
                            x       y       z     vdW  Elec       q    Type
                         _______ _______ _______ _____ _____    ______ ____

>  <TORSDO>
F 5

$$$$
=
 OpenBabel11072411023D

 30 35  0  0  1  0  0  0  0  0999 V2000
  160.1440  209.1120  155.2160 N   0  0  0  0  0  0  0  0  0  0  0  0
  162.2100  207.3860  148.2620 N   0  0  0  0  0  0  0  0  0  0  0  0
  161.7770  207.5720  150.5780 C   0  0  0  0  0  0  0  0  0  0  0  0
  160.2820  209.7940  154.0550 C   0  0  0  0  0  0  0  0  0  0  0  0
  161.0580  207.1890  154.1990 C   0  0  0  0  0  3  0  0  0  0  0  0
  161.8150  208.7850  150.0750 C   0  0  0  0  0  0  0  0  0  0  0  0
  161.6270  207.1800  151.9500 N   0  0  0  0  0  0  0  0  0  0  0  0
  160.0030  211.2010  153.8210 C   0  0  0  0  0  3  0  0  0  0  0  0
  162.0340  206.5890  149.4860 C   0  0  1  0  0  3  0  0  0  0  0  0
  160.4250  211.3980  152.5710 C   0  0  0  0  0  0  0  0  0  0  0  0
  161.7290  210.0280  150.7900 N   0  0  0  0  0  0  0  0  0  0  0  0
  160.8370  209.2110  152.9410 C   0  0  0  0  0  0  0  0  0  0  0  0
  162.0790  208.7160  148.6890 N   0  0  0  0  0  0  0  0  0  0  0  0
  161.2210  207.8630  152.9780 C   0  0  0  0  0  0  0  0  0  0  0  0
  160.9730  210.1450  152.0090 C   0  0  0  0  0  0  0  0  0  0  0  0
  160.5290  207.8340  155.2810 N   0  0  0  0  0  0  0  0  0  0  0  0
  162.2360  211.2410  150.1390 C   0  0  0  0  0  3  0  0  0  0  0  0
  161.1880  211.8260  149.2040 C   0  0  0  0  0  2  0  0  0  0  0  0
  162.3320  211.0270  148.6350 C   0  0  0  0  0  2  0  0  0  0  0  0
  160.3480  212.6120  151.8830 O   0  0  0  0  0  0  0  0  0  0  0  0
  159.1910  213.4350  151.9200 C   0  0  0  0  0  1  0  0  0  0  0  0
  160.8390  205.6630  149.3290 C   0  0  0  0  0  2  0  0  0  0  0  0
  160.9860  204.5530  150.1630 O   0  0  0  0  0  0  0  0  0  0  0  0
  160.7150  200.9550  149.2180 C   0  0  0  0  0  2  0  0  0  0  0  0
  160.6860  203.4560  149.3530 C   0  0  1  0  0  3  0  0  0  0  0  0
  161.2080  202.3250  147.1810 C   0  0  0  0  0  2  0  0  0  0  0  0
  161.5300  201.0340  147.9290 C   0  0  2  0  0  3  0  0  0  0  0  0
  161.5030  203.5330  148.0650 C   0  0  0  0  0  2  0  0  0  0  0  0
  161.2300  199.9390  147.1210 O   0  0  0  0  0  1  0  0  0  0  0  0
  161.0090  202.1640  150.1030 C   0  0  0  0  0  2  0  0  0  0  0  0
  1 16  1  0  0  0  0
  2 13  2  0  0  0  0
  2  9  1  0  0  0  0
  3  7  1  0  0  0  0
  4  1  2  0  0  0  0
  5 16  2  0  0  0  0
  6  3  2  0  0  0  0
  6 11  1  0  0  0  0
  7 14  2  0  0  0  0
  8  4  1  0  0  0  0
  9 22  1  6  0  0  0
  9  3  1  0  0  0  0
 10  8  2  0  0  0  0
 11 15  1  0  0  0  0
 12 14  1  0  0  0  0
 12  4  1  0  0  0  0
 13  6  1  0  0  0  0
 14  5  1  0  0  0  0
 15 10  1  0  0  0  0
 15 12  2  0  0  0  0
 17 11  1  0  0  0  0
 18 17  1  0  0  0  0
 19 18  1  0  0  0  0
 19 17  1  0  0  0  0
 20 21  1  0  0  0  0
 20 10  1  0  0  0  0
 22 23  1  0  0  0  0
 24 30  1  0  0  0  0
 25 30  1  0  0  0  0
 25 23  1  1  0  0  0
 26 27  1  0  0  0  0
 26 28  1  0  0  0  0
 27 29  1  6  0  0  0
 27 24  1  0  0  0  0
 28 25  1  0  0  0  0
M  END
>  <MODEL>
3

>  <REMARK>
 VINA RESULT:      -6.6      1.761      2.623
  Name = 
  5 active torsions:
  status: ('A' for Active; 'I' for Inactive)
    1  A    between atoms: C_2  and  N_22
    2  A    between atoms: C_5  and  O_13
    3  A    between atoms: O_7  and  C_21
    4  A    between atoms: C_8  and  O_13
    5  A    between atoms: C_8  and  C_20
                            x       y       z     vdW  Elec       q    Type
                         _______ _______ _______ _____ _____    ______ ____

>  <TORSDO>
F 5

$$$$
=
 OpenBabel11072411023D

 30 35  0  0  1  0  0  0  0  0999 V2000
  160.8350  201.2760  150.9900 N   0  0  0  0  0  0  0  0  0  0  0  0
  161.8170  206.7610  146.0340 N   0  0  0  0  0  0  0  0  0  0  0  0
  161.2680  205.3180  147.8240 C   0  0  0  0  0  0  0  0  0  0  0  0
  161.1600  201.3420  149.6770 C   0  0  0  0  0  0  0  0  0  0  0  0
  160.4680  203.6070  151.0180 C   0  0  0  0  0  3  0  0  0  0  0  0
  161.4020  204.5870  146.7420 C   0  0  0  0  0  0  0  0  0  0  0  0
  160.8600  204.9040  149.1360 N   0  0  0  0  0  0  0  0  0  0  0  0
  161.4690  200.2330  148.7900 C   0  0  0  0  0  3  0  0  0  0  0  0
  161.5050  206.7480  147.4720 C   0  0  1  0  0  3  0  0  0  0  0  0
  161.5850  200.8150  147.5950 C   0  0  0  0  0  0  0  0  0  0  0  0
  161.1560  203.1780  146.6060 N   0  0  0  0  0  0  0  0  0  0  0  0
  161.1210  202.5290  148.9870 C   0  0  0  0  0  0  0  0  0  0  0  0
  161.7250  205.4160  145.6450 N   0  0  0  0  0  0  0  0  0  0  0  0
  160.7950  203.7160  149.6580 C   0  0  0  0  0  0  0  0  0  0  0  0
  161.3480  202.2690  147.7060 C   0  0  0  0  0  0  0  0  0  0  0  0
  160.4940  202.3920  151.6420 N   0  0  0  0  0  0  0  0  0  0  0  0
  160.9210  202.6400  145.2610 C   0  0  0  0  0  3  0  0  0  0  0  0
  159.8010  203.4020  144.5670 C   0  0  0  0  0  2  0  0  0  0  0  0
  159.5210  202.0500  145.1710 C   0  0  0  0  0  2  0  0  0  0  0  0
  161.8990  200.1470  146.4080 O   0  0  0  0  0  0  0  0  0  0  0  0
  161.2110  198.9770  145.9880 C   0  0  0  0  0  1  0  0  0  0  0  0
  162.6870  207.2890  148.2600 C   0  0  0  0  0  2  0  0  0  0  0  0
  162.3630  208.5310  148.8080 O   0  0  0  0  0  0  0  0  0  0  0  0
  160.8020  209.1990  152.1290 C   0  0  0  0  0  2  0  0  0  0  0  0
  161.6980  208.2330  149.9990 C   0  0  1  0  0  3  0  0  0  0  0  0
  161.8170  206.9090  152.1220 C   0  0  0  0  0  2  0  0  0  0  0  0
  161.6190  208.1890  152.9310 C   0  0  2  0  0  3  0  0  0  0  0  0
  162.5170  207.2240  150.8030 C   0  0  0  0  0  2  0  0  0  0  0  0
  160.9550  207.8910  154.1190 O   0  0  0  0  0  1  0  0  0  0  0  0
  161.5010  209.5130  150.8090 C   0  0  0  0  0  2  0  0  0  0  0  0
  1 16  1  0  0  0  0
  2  9  1  0  0  0  0
  3  7  1  0  0  0  0
  4  1  2  0  0  0  0
  5 16  2  0  0  0  0
  6  3  2  0  0  0  0
  7 14  2  0  0  0  0
  8  4  1  0  0  0  0
  9  3  1  0  0  0  0
  9 22  1  1  0  0  0
 10 15  1  0  0  0  0
 10  8  2  0  0  0  0
 11  6  1  0  0  0  0
 11 15  1  0  0  0  0
 12 14  1  0  0  0  0
 12  4  1  0  0  0  0
 13  2  2  0  0  0  0
 13  6  1  0  0  0  0
 14  5  1  0  0  0  0
 15 12  2  0  0  0  0
 17 11  1  0  0  0  0
 18 19  1  0  0  0  0
 18 17  1  0  0  0  0
 19 17  1  0  0  0  0
 20 10  1  0  0  0  0
 21 20  1  0  0  0  0
 22 23  1  0  0  0  0
 24 27  1  0  0  0  0
 25 23  1  6  0  0  0
 25 28  1  0  0  0  0
 25 30  1  0  0  0  0
 26 27  1  0  0  0  0
 27 29  1  1  0  0  0
 28 26  1  0  0  0  0
 30 24  1  0  0  0  0
M  END
>  <MODEL>
4

>  <REMARK>
 VINA RESULT:      -6.5      4.031      8.852
  Name = 
  5 active torsions:
  status: ('A' for Active; 'I' for Inactive)
    1  A    between atoms: C_2  and  N_22
    2  A    between atoms: C_5  and  O_13
    3  A    between atoms: O_7  and  C_21
    4  A    between atoms: C_8  and  O_13
    5  A    between atoms: C_8  and  C_20
                            x       y       z     vdW  Elec       q    Type
                         _______ _______ _______ _____ _____    ______ ____

>  <TORSDO>
F 5

$$$$
=
 OpenBabel11072411023D

 30 35  0  0  1  0  0  0  0  0999 V2000
  161.9510  206.9630  151.9560 N   0  0  0  0  0  0  0  0  0  0  0  0
  158.9670  213.6230  153.4900 N   0  0  0  0  0  0  0  0  0  0  0  0
  160.1660  211.7350  152.7230 C   0  0  0  0  0  0  0  0  0  0  0  0
  161.2670  207.4960  152.9960 C   0  0  0  0  0  0  0  0  0  0  0  0
  162.0280  209.0810  150.9180 C   0  0  0  0  0  3  0  0  0  0  0  0
  159.8230  211.5170  153.9730 C   0  0  0  0  0  0  0  0  0  0  0  0
  160.9710  210.9170  151.8630 N   0  0  0  0  0  0  0  0  0  0  0  0
  160.8580  206.8240  154.2170 C   0  0  0  0  0  3  0  0  0  0  0  0
  159.6690  213.0810  152.3160 C   0  0  1  0  0  3  0  0  0  0  0  0
  160.3430  207.8090  154.9560 C   0  0  0  0  0  0  0  0  0  0  0  0
  160.1900  210.3970  154.7940 N   0  0  0  0  0  0  0  0  0  0  0  0
  160.9670  208.8360  153.0470 C   0  0  0  0  0  0  0  0  0  0  0  0
  159.1090  212.6290  154.4710 N   0  0  0  0  0  0  0  0  0  0  0  0
  161.3220  209.6710  151.9790 C   0  0  0  0  0  0  0  0  0  0  0  0
  160.4240  209.0930  154.2300 C   0  0  0  0  0  0  0  0  0  0  0  0
  162.3240  207.7480  150.9400 N   0  0  0  0  0  0  0  0  0  0  0  0
  160.1030  210.5440  156.2510 C   0  0  0  0  0  3  0  0  0  0  0  0
  160.8400  211.7950  156.7080 C   0  0  0  0  0  2  0  0  0  0  0  0
  161.4890  210.4440  156.8710 C   0  0  0  0  0  2  0  0  0  0  0  0
  159.7920  207.6480  156.2300 O   0  0  0  0  0  0  0  0  0  0  0  0
  160.4550  206.9290  157.2610 C   0  0  0  0  0  1  0  0  0  0  0  0
  158.6980  212.9470  151.1540 C   0  0  0  0  0  2  0  0  0  0  0  0
  158.9310  213.9600  150.2220 O   0  0  0  0  0  0  0  0  0  0  0  0
  162.0360  213.6620  148.1770 C   0  0  0  0  0  2  0  0  0  0  0  0
  159.8110  213.3960  149.2960 C   0  0  1  0  0  3  0  0  0  0  0  0
  160.0940  212.7330  146.8980 C   0  0  0  0  0  2  0  0  0  0  0  0
  161.3580  213.5830  146.8110 C   0  0  2  0  0  3  0  0  0  0  0  0
  159.1340  213.3200  147.9280 C   0  0  0  0  0  2  0  0  0  0  0  0
  162.2370  213.0200  145.8870 O   0  0  0  0  0  1  0  0  0  0  0  0
  161.0770  214.2480  149.2080 C   0  0  0  0  0  2  0  0  0  0  0  0
  1  4  2  0  0  0  0
  2 13  2  0  0  0  0
  3  6  2  0  0  0  0
  4 12  1  0  0  0  0
  4  8  1  0  0  0  0
  5 16  2  0  0  0  0
  5 14  1  0  0  0  0
  6 13  1  0  0  0  0
  6 11  1  0  0  0  0
  7 14  2  0  0  0  0
  7  3  1  0  0  0  0
  8 10  2  0  0  0  0
  9 22  1  6  0  0  0
  9  3  1  0  0  0  0
  9  2  1  0  0  0  0
 10 20  1  0  0  0  0
 11 17  1  0  0  0  0
 12 15  2  0  0  0  0
 14 12  1  0  0  0  0
 15 11  1  0  0  0  0
 15 10  1  0  0  0  0
 16  1  1  0  0  0  0
 17 18  1  0  0  0  0
 17 19  1  0  0  0  0
 18 19  1  0  0  0  0
 20 21  1  0  0  0  0
 23 22  1  0  0  0  0
 24 30  1  0  0  0  0
 25 23  1  1  0  0  0
 26 28  1  0  0  0  0
 27 29  1  6  0  0  0
 27 26  1  0  0  0  0
 27 24  1  0  0  0  0
 28 25  1  0  0  0  0
 30 25  1  0  0  0  0
M  END
>  <MODEL>
5

>  <REMARK>
 VINA RESULT:      -6.5      3.495      7.673
  Name = 
  5 active torsions:
  status: ('A' for Active; 'I' for Inactive)
    1  A    between atoms: C_2  and  N_22
    2  A    between atoms: C_5  and  O_13
    3  A    between atoms: O_7  and  C_21
    4  A    between atoms: C_8  and  O_13
    5  A    between atoms: C_8  and  C_20
                            x       y       z     vdW  Elec       q    Type
                         _______ _______ _______ _____ _____    ______ ____

>  <TORSDO>
F 5

$$$$
=
 OpenBabel11072411023D

 30 35  0  0  1  0  0  0  0  0999 V2000
  161.9800  209.6680  148.2600 N   0  0  0  0  0  0  0  0  0  0  0  0
  160.8670  206.5980  154.9640 N   0  0  0  0  0  0  0  0  0  0  0  0
  161.4590  207.8650  153.0590 C   0  0  0  0  0  0  0  0  0  0  0  0
  161.6300  208.4400  148.7120 C   0  0  0  0  0  0  0  0  0  0  0  0
  162.3300  210.3870  150.4800 C   0  0  0  0  0  3  0  0  0  0  0  0
  161.3100  206.6150  152.6830 C   0  0  0  0  0  0  0  0  0  0  0  0
  161.8940  208.9860  152.2760 N   0  0  0  0  0  0  0  0  0  0  0  0
  161.3130  207.2670  147.9150 C   0  0  0  0  0  3  0  0  0  0  0  0
  161.2050  207.9610  154.5250 C   0  0  1  0  0  3  0  0  0  0  0  0
  161.1720  206.3030  148.8270 C   0  0  0  0  0  0  0  0  0  0  0  0
  161.5650  206.0600  151.3830 N   0  0  0  0  0  0  0  0  0  0  0  0
  161.6480  208.1360  150.0510 C   0  0  0  0  0  0  0  0  0  0  0  0
  160.9610  205.8220  153.7980 N   0  0  0  0  0  0  0  0  0  0  0  0
  161.9770  209.1270  150.9870 C   0  0  0  0  0  0  0  0  0  0  0  0
  161.3990  206.8400  150.1840 C   0  0  0  0  0  0  0  0  0  0  0  0
  162.3250  210.6190  149.1340 N   0  0  0  0  0  0  0  0  0  0  0  0
  161.7790  204.6120  151.2740 C   0  0  0  0  0  3  0  0  0  0  0  0
  160.4560  203.8890  151.0670 C   0  0  0  0  0  2  0  0  0  0  0  0
  161.0980  203.8950  152.4310 C   0  0  0  0  0  2  0  0  0  0  0  0
  160.8400  204.9750  148.5410 O   0  0  0  0  0  0  0  0  0  0  0  0
  161.5750  204.1910  147.6120 C   0  0  0  0  0  1  0  0  0  0  0  0
  160.0340  208.8920  154.7910 C   0  0  0  0  0  2  0  0  0  0  0  0
  160.3980  209.8560  155.7320 O   0  0  0  0  0  0  0  0  0  0  0  0
  157.4020  211.9370  154.9550 C   0  0  0  0  0  2  0  0  0  0  0  0
  159.6890  211.0010  155.3630 C   0  0  1  0  0  3  0  0  0  0  0  0
  159.3290  212.6730  153.5340 C   0  0  0  0  0  2  0  0  0  0  0  0
  157.8310  212.3760  153.5570 C   0  0  2  0  0  3  0  0  0  0  0  0
  160.1170  211.4390  153.9640 C   0  0  0  0  0  2  0  0  0  0  0  0
  157.1240  213.5190  153.1900 O   0  0  0  0  0  1  0  0  0  0  0  0
  158.1900  210.7030  155.3860 C   0  0  0  0  0  2  0  0  0  0  0  0
  1  4  2  0  0  0  0
  1 16  1  0  0  0  0
  3  9  1  0  0  0  0
  4 12  1  0  0  0  0
  5 14  1  0  0  0  0
  6  3  2  0  0  0  0
  6 13  1  0  0  0  0
  7  3  1  0  0  0  0
  8  4  1  0  0  0  0
  8 10  2  0  0  0  0
  9 22  1  6  0  0  0
  9  2  1  0  0  0  0
 10 15  1  0  0  0  0
 11  6  1  0  0  0  0
 12 15  2  0  0  0  0
 12 14  1  0  0  0  0
 13  2  2  0  0  0  0
 14  7  2  0  0  0  0
 15 11  1  0  0  0  0
 16  5  2  0  0  0  0
 17 11  1  0  0  0  0
 17 19  1  0  0  0  0
 18 17  1  0  0  0  0
 18 19  1  0  0  0  0
 20 10  1  0  0  0  0
 21 20  1  0  0  0  0
 22 23  1  0  0  0  0
 24 30  1  0  0  0  0
 25 30  1  0  0  0  0
 25 23  1  6  0  0  0
 26 27  1  0  0  0  0
 26 28  1  0  0  0  0
 27 29  1  1  0  0  0
 27 24  1  0  0  0  0
 28 25  1  0  0  0  0
M  END
>  <MODEL>
6

>  <REMARK>
 VINA RESULT:      -6.5      2.564      7.694
  Name = 
  5 active torsions:
  status: ('A' for Active; 'I' for Inactive)
    1  A    between atoms: C_2  and  N_22
    2  A    between atoms: C_5  and  O_13
    3  A    between atoms: O_7  and  C_21
    4  A    between atoms: C_8  and  O_13
    5  A    between atoms: C_8  and  C_20
                            x       y       z     vdW  Elec       q    Type
                         _______ _______ _______ _____ _____    ______ ____

>  <TORSDO>
F 5

$$$$
=
 OpenBabel11072411023D

 30 35  0  0  1  0  0  0  0  0999 V2000
  161.4630  204.0330  146.7840 N   0  0  0  0  0  0  0  0  0  0  0  0
  162.1440  210.4770  150.4740 N   0  0  0  0  0  0  0  0  0  0  0  0
  162.2140  208.6110  149.0240 C   0  0  0  0  0  0  0  0  0  0  0  0
  161.2490  204.4410  148.0570 C   0  0  0  0  0  0  0  0  0  0  0  0
  162.3720  206.1450  146.2560 C   0  0  0  0  0  3  0  0  0  0  0  0
  161.9810  208.1710  150.2390 C   0  0  0  0  0  0  0  0  0  0  0  0
  162.4250  207.8530  147.8250 N   0  0  0  0  0  0  0  0  0  0  0  0
  160.7440  203.6470  149.1640 C   0  0  0  0  0  3  0  0  0  0  0  0
  162.3490  210.0960  149.0680 C   0  0  1  0  0  3  0  0  0  0  0  0
  160.8490  204.4690  150.2090 C   0  0  0  0  0  0  0  0  0  0  0  0
  161.8930  206.8030  150.6680 N   0  0  0  0  0  0  0  0  0  0  0  0
  161.6160  205.6960  148.4790 C   0  0  0  0  0  0  0  0  0  0  0  0
  161.9380  209.2590  151.1390 N   0  0  0  0  0  0  0  0  0  0  0  0
  162.1700  206.6050  147.5670 C   0  0  0  0  0  0  0  0  0  0  0  0
  161.4180  205.7660  149.7890 C   0  0  0  0  0  0  0  0  0  0  0  0
  162.0170  204.8730  145.9050 N   0  0  0  0  0  0  0  0  0  0  0  0
  162.0800  206.5070  152.0930 C   0  0  0  0  0  3  0  0  0  0  0  0
  160.7710  206.6730  152.8510 C   0  0  0  0  0  2  0  0  0  0  0  0
  161.8190  207.7540  152.9250 C   0  0  0  0  0  2  0  0  0  0  0  0
  160.4630  204.1540  151.5150 O   0  0  0  0  0  0  0  0  0  0  0  0
  160.9550  203.0110  152.2000 C   0  0  0  0  0  1  0  0  0  0  0  0
  161.2810  210.7410  148.1990 C   0  0  0  0  0  2  0  0  0  0  0  0
  161.0930  212.0690  148.5860 O   0  0  0  0  0  0  0  0  0  0  0  0
  160.1210  212.8280  145.0660 C   0  0  0  0  0  2  0  0  0  0  0  0
  161.0560  212.7870  147.3890 C   0  0  1  0  0  3  0  0  0  0  0  0
  162.4410  213.6660  145.4980 C   0  0  0  0  0  2  0  0  0  0  0  0
  161.5340  212.9500  144.5000 C   0  0  2  0  0  3  0  0  0  0  0  0
  162.4690  212.9080  146.8210 C   0  0  0  0  0  2  0  0  0  0  0  0
  161.4960  213.6680  143.3060 O   0  0  0  0  0  1  0  0  0  0  0  0
  160.1480  212.0700  146.3900 C   0  0  0  0  0  2  0  0  0  0  0  0
  1  4  2  0  0  0  0
  2 13  2  0  0  0  0
  3  9  1  0  0  0  0
  3  6  2  0  0  0  0
  4 12  1  0  0  0  0
  4  8  1  0  0  0  0
  5 14  1  0  0  0  0
  6 11  1  0  0  0  0
  6 13  1  0  0  0  0
  7  3  1  0  0  0  0
  8 10  2  0  0  0  0
  9 22  1  6  0  0  0
  9  2  1  0  0  0  0
 10 20  1  0  0  0  0
 11 17  1  0  0  0  0
 12 15  2  0  0  0  0
 14  7  2  0  0  0  0
 14 12  1  0  0  0  0
 15 10  1  0  0  0  0
 15 11  1  0  0  0  0
 16  5  2  0  0  0  0
 16  1  1  0  0  0  0
 17 18  1  0  0  0  0
 17 19  1  0  0  0  0
 18 19  1  0  0  0  0
 20 21  1  0  0  0  0
 22 23  1  0  0  0  0
 24 30  1  0  0  0  0
 25 23  1  1  0  0  0
 26 28  1  0  0  0  0
 27 29  1  6  0  0  0
 27 24  1  0  0  0  0
 27 26  1  0  0  0  0
 28 25  1  0  0  0  0
 30 25  1  0  0  0  0
M  END
>  <MODEL>
7

>  <REMARK>
 VINA RESULT:      -6.4      2.765      8.312
  Name = 
  5 active torsions:
  status: ('A' for Active; 'I' for Inactive)
    1  A    between atoms: C_2  and  N_22
    2  A    between atoms: C_5  and  O_13
    3  A    between atoms: O_7  and  C_21
    4  A    between atoms: C_8  and  O_13
    5  A    between atoms: C_8  and  C_20
                            x       y       z     vdW  Elec       q    Type
                         _______ _______ _______ _____ _____    ______ ____

>  <TORSDO>
F 5

$$$$
=
 OpenBabel11072411023D

 30 35  0  0  1  0  0  0  0  0999 V2000
  159.7340  210.0330  157.2610 N   0  0  0  0  0  0  0  0  0  0  0  0
  161.6530  210.5500  150.0730 N   0  0  0  0  0  0  0  0  0  0  0  0
  161.4760  210.3520  152.4220 C   0  0  0  0  0  0  0  0  0  0  0  0
  159.1550  210.5280  156.1420 C   0  0  0  0  0  0  0  0  0  0  0  0
  161.7150  209.6090  156.0500 C   0  0  0  0  0  3  0  0  0  0  0  0
  160.4770  211.0940  152.0020 C   0  0  0  0  0  0  0  0  0  0  0  0
  161.8370  210.0230  153.7710 N   0  0  0  0  0  0  0  0  0  0  0  0
  157.8390  211.1350  156.0260 C   0  0  0  0  0  3  0  0  0  0  0  0
  162.3080  209.9560  151.2490 C   0  0  1  0  0  3  0  0  0  0  0  0
  157.8070  211.5700  154.7650 C   0  0  0  0  0  0  0  0  0  0  0  0
  159.4990  211.7740  152.8050 N   0  0  0  0  0  0  0  0  0  0  0  0
  159.8400  210.6100  154.9540 C   0  0  0  0  0  0  0  0  0  0  0  0
  160.5510  211.2410  150.5990 N   0  0  0  0  0  0  0  0  0  0  0  0
  161.1500  210.1190  154.8700 C   0  0  0  0  0  0  0  0  0  0  0  0
  159.0790  211.2570  154.0810 C   0  0  0  0  0  0  0  0  0  0  0  0
  160.9920  209.5850  157.2090 N   0  0  0  0  0  0  0  0  0  0  0  0
  158.7620  212.8920  152.2040 C   0  0  0  0  0  3  0  0  0  0  0  0
  159.7220  213.8910  151.5760 C   0  0  0  0  0  2  0  0  0  0  0  0
  159.1060  214.1900  152.9190 C   0  0  0  0  0  2  0  0  0  0  0  0
  156.7210  212.2160  154.1700 O   0  0  0  0  0  0  0  0  0  0  0  0
  155.8910  213.1230  154.8830 C   0  0  0  0  0  1  0  0  0  0  0  0
  162.3310  208.4420  151.1160 C   0  0  0  0  0  2  0  0  0  0  0  0
  161.3370  208.0290  150.2270 O   0  0  0  0  0  0  0  0  0  0  0  0
  161.2110  205.1170  152.5540 C   0  0  0  0  0  2  0  0  0  0  0  0
  160.9170  206.7890  150.7130 C   0  0  1  0  0  3  0  0  0  0  0  0
  160.7970  204.3390  150.2100 C   0  0  0  0  0  2  0  0  0  0  0  0
  161.5160  204.0340  151.5220 C   0  0  2  0  0  3  0  0  0  0  0  0
  161.2240  205.7050  149.6820 C   0  0  0  0  0  2  0  0  0  0  0  0
  161.0960  202.7970  152.0070 O   0  0  0  0  0  1  0  0  0  0  0  0
  161.6370  206.4840  152.0260 C   0  0  0  0  0  2  0  0  0  0  0  0
  2 13  2  0  0  0  0
  2  9  1  0  0  0  0
  3  7  1  0  0  0  0
  4  1  2  0  0  0  0
  5 16  2  0  0  0  0
  6  3  2  0  0  0  0
  6 11  1  0  0  0  0
  7 14  2  0  0  0  0
  8  4  1  0  0  0  0
  9 22  1  6  0  0  0
  9  3  1  0  0  0  0
 10  8  2  0  0  0  0
 11 15  1  0  0  0  0
 12  4  1  0  0  0  0
 13  6  1  0  0  0  0
 14 12  1  0  0  0  0
 14  5  1  0  0  0  0
 15 10  1  0  0  0  0
 15 12  2  0  0  0  0
 16  1  1  0  0  0  0
 17 11  1  0  0  0  0
 17 19  1  0  0  0  0
 18 17  1  0  0  0  0
 18 19  1  0  0  0  0
 20 10  1  0  0  0  0
 20 21  1  0  0  0  0
 23 22  1  0  0  0  0
 25 23  1  6  0  0  0
 25 30  1  0  0  0  0
 26 27  1  0  0  0  0
 27 29  1  1  0  0  0
 27 24  1  0  0  0  0
 28 26  1  0  0  0  0
 28 25  1  0  0  0  0
 30 24  1  0  0  0  0
M  END
>  <MODEL>
8

>  <REMARK>
 VINA RESULT:      -6.2      2.259      3.640
  Name = 
  5 active torsions:
  status: ('A' for Active; 'I' for Inactive)
    1  A    between atoms: C_2  and  N_22
    2  A    between atoms: C_5  and  O_13
    3  A    between atoms: O_7  and  C_21
    4  A    between atoms: C_8  and  O_13
    5  A    between atoms: C_8  and  C_20
                            x       y       z     vdW  Elec       q    Type
                         _______ _______ _______ _____ _____    ______ ____

>  <TORSDO>
F 5

$$$$
=
 OpenBabel11072411023D

 30 35  0  0  1  0  0  0  0  0999 V2000
  162.0870  207.3030  148.6380 N   0  0  0  0  0  0  0  0  0  0  0  0
  160.0380  211.2140  154.6480 N   0  0  0  0  0  0  0  0  0  0  0  0
  160.9010  210.3390  152.6280 C   0  0  0  0  0  0  0  0  0  0  0  0
  161.6580  206.9980  149.8850 C   0  0  0  0  0  0  0  0  0  0  0  0
  162.1530  209.5890  149.2160 C   0  0  0  0  0  3  0  0  0  0  0  0
  160.7800  209.3470  153.4800 C   0  0  0  0  0  0  0  0  0  0  0  0
  161.4570  210.3170  151.3060 N   0  0  0  0  0  0  0  0  0  0  0  0
  161.4270  205.6740  150.4390 C   0  0  0  0  0  3  0  0  0  0  0  0
  160.4570  211.5990  153.2910 C   0  0  1  0  0  3  0  0  0  0  0  0
  161.1490  205.9180  151.7210 C   0  0  0  0  0  0  0  0  0  0  0  0
  161.1950  207.9840  153.2940 N   0  0  0  0  0  0  0  0  0  0  0  0
  161.4920  207.9680  150.8440 C   0  0  0  0  0  0  0  0  0  0  0  0
  160.2720  209.8310  154.7060 N   0  0  0  0  0  0  0  0  0  0  0  0
  161.7130  209.3140  150.5210 C   0  0  0  0  0  0  0  0  0  0  0  0
  161.2040  207.3690  151.9930 C   0  0  0  0  0  0  0  0  0  0  0  0
  162.3300  208.5770  148.3160 N   0  0  0  0  0  0  0  0  0  0  0  0
  161.3950  207.1490  154.4850 C   0  0  0  0  0  3  0  0  0  0  0  0
  160.0820  206.9570  155.2310 C   0  0  0  0  0  2  0  0  0  0  0  0
  161.0930  207.9510  155.7420 C   0  0  0  0  0  2  0  0  0  0  0  0
  160.8340  204.9410  152.6690 O   0  0  0  0  0  0  0  0  0  0  0  0
  160.8310  203.5540  152.3610 C   0  0  0  0  0  1  0  0  0  0  0  0
  159.2780  212.1950  152.5380 C   0  0  0  0  0  2  0  0  0  0  0  0
  159.3450  213.5880  152.5780 O   0  0  0  0  0  0  0  0  0  0  0  0
  156.6950  214.0720  149.9980 C   0  0  0  0  0  2  0  0  0  0  0  0
  158.7920  214.0070  151.3660 C   0  0  1  0  0  3  0  0  0  0  0  0
  158.9120  213.7530  148.8780 C   0  0  0  0  0  2  0  0  0  0  0  0
  157.4280  213.3960  148.8420 C   0  0  2  0  0  3  0  0  0  0  0  0
  159.5240  213.3290  150.2090 C   0  0  0  0  0  2  0  0  0  0  0  0
  156.8770  213.8150  147.6330 O   0  0  0  0  0  1  0  0  0  0  0  0
  157.3070  213.6480  151.3300 C   0  0  0  0  0  2  0  0  0  0  0  0
  1  4  2  0  0  0  0
  2 13  2  0  0  0  0
  3  9  1  0  0  0  0
  3  6  2  0  0  0  0
  4  8  1  0  0  0  0
  4 12  1  0  0  0  0
  5 14  1  0  0  0  0
  6 13  1  0  0  0  0
  7  3  1  0  0  0  0
  8 10  2  0  0  0  0
  9 22  1  6  0  0  0
  9  2  1  0  0  0  0
 10 15  1  0  0  0  0
 10 20  1  0  0  0  0
 11  6  1  0  0  0  0
 11 17  1  0  0  0  0
 12 15  2  0  0  0  0
 14 12  1  0  0  0  0
 14  7  2  0  0  0  0
 15 11  1  0  0  0  0
 16  1  1  0  0  0  0
 16  5  2  0  0  0  0
 17 18  1  0  0  0  0
 17 19  1  0  0  0  0
 18 19  1  0  0  0  0
 21 20  1  0  0  0  0
 22 23  1  0  0  0  0
 24 30  1  0  0  0  0
 25 23  1  1  0  0  0
 26 28  1  0  0  0  0
 27 29  1  6  0  0  0
 27 26  1  0  0  0  0
 27 24  1  0  0  0  0
 28 25  1  0  0  0  0
 30 25  1  0  0  0  0
M  END
>  <MODEL>
9

>  <REMARK>
 VINA RESULT:      -5.8      2.109      8.015
  Name = 
  5 active torsions:
  status: ('A' for Active; 'I' for Inactive)
    1  A    between atoms: C_2  and  N_22
    2  A    between atoms: C_5  and  O_13
    3  A    between atoms: O_7  and  C_21
    4  A    between atoms: C_8  and  O_13
    5  A    between atoms: C_8  and  C_20
                            x       y       z     vdW  Elec       q    Type
                         _______ _______ _______ _____ _____    ______ ____

>  <TORSDO>
F 5

$$$$
