=
 OpenBabel11072410103D

 43 47  0  0  1  0  0  0  0  0999 V2000
  160.5290  211.3070  154.6170 C   0  0  0  0  0  0  0  0  0  0  0  0
  159.6980  212.2870  154.3830 C   0  0  0  0  0  0  0  0  0  0  0  0
  161.3250  210.3020  154.8630 C   0  0  0  0  0  3  0  0  0  0  0  0
  161.4200  207.9230  154.6720 N   0  0  0  0  0  0  0  0  0  0  0  0
  162.0000  208.0650  151.9570 C   0  0  0  0  0  2  0  0  0  0  0  0
  161.2890  206.6830  153.9130 C   0  0  0  0  0  2  0  0  0  0  0  0
  162.0510  206.7520  152.6500 N   0  0  0  0  0  0  0  0  0  0  0  0
  161.0370  209.0740  152.5940 C   0  0  0  0  0  2  0  0  0  0  0  0
  161.2670  209.0640  154.0760 C   0  0  0  0  0  0  0  0  0  0  0  0
  161.6150  205.6510  151.7760 C   0  0  2  0  0  3  0  0  0  0  0  0
  161.9710  206.8780  147.4650 C   0  0  0  0  0  1  0  0  0  0  0  0
  160.9870  204.5880  147.1220 C   0  0  2  0  0  3  0  0  0  0  0  0
  161.2860  205.4150  149.3310 C   0  0  0  0  0  0  0  0  0  0  0  0
  162.3050  204.0600  147.0650 O   0  0  0  0  0  0  0  0  0  0  0  0
  160.9460  205.8780  147.9630 C   0  0  1  0  0  3  0  0  0  0  0  0
  161.5900  204.0700  149.3460 O   0  0  0  0  0  0  0  0  0  0  0  0
  161.2680  206.1820  150.4200 C   0  0  0  0  0  3  0  0  0  0  0  0
  161.4570  203.5260  148.0470 C   0  0  1  0  0  0  0  0  0  0  0  0
  161.8080  200.8760  148.2880 O   0  0  0  0  0  0  0  0  0  0  0  0
  160.8150  201.8850  147.7860 S   0  0  0  0  0  0  0  0  0  0  0  0
  159.5280  201.7300  148.5360 O   0  0  0  0  0  0  0  0  0  0  0  0
  160.4780  201.5510  145.7500 S   0  0  0  0  0  1  0  0  0  0  0  0
  160.8060  203.3320  152.3650 C   0  0  0  0  0  1  0  0  0  0  0  0
  160.4560  204.8150  152.3520 C   0  0  0  0  0  2  0  0  0  0  0  0
  158.1280  211.2210  152.7590 C   0  0  0  0  0  1  0  0  0  0  0  0
  159.0640  212.3930  153.0300 C   0  0  2  0  0  3  0  0  0  0  0  0
  160.1340  212.5000  151.9540 C   0  0  0  0  0  2  0  0  0  0  0  0
  159.9770  213.7960  151.1660 C   0  0  0  0  0  2  0  0  0  0  0  0
  157.9530  212.8860  146.7640 C   0  0  0  0  0  0  0  0  0  0  0  0
  157.6700  213.2550  148.2360 C   0  0  0  0  0  2  0  0  0  0  0  0
  161.2590  213.2130  148.6510 S   0  0  0  0  0  0  0  0  0  0  0  0
  156.8620  212.6750  145.7810 C   0  0  0  0  0  1  0  0  0  0  0  0
  162.0080  211.9380  148.9340 O   0  0  0  0  0  0  0  0  0  0  0  0
  160.0490  213.5230  149.7430 N   0  0  0  0  0  0  0  0  0  0  0  0
  159.0680  213.3180  148.6570 C   0  0  0  0  0  0  0  0  0  0  0  0
  159.9260  213.0520  147.6580 C   0  0  0  0  0  0  0  0  0  0  0  0
  159.2650  212.7660  146.4180 C   0  0  0  0  0  3  0  0  0  0  0  0
  162.1310  214.4090  148.3850 O   0  0  0  0  0  0  0  0  0  0  0  0
  159.3130  213.1950  155.5010 C   0  0  0  0  0  2  0  0  0  0  0  0
  157.9580  213.5910  155.3450 O   0  0  0  0  0  0  0  0  0  0  0  0
  156.9180  212.9280  155.9980 C   0  0  0  0  0  0  0  0  0  0  0  0
  157.1550  212.0060  156.8190 O   0  0  0  0  0  1  0  0  0  0  0  0
  155.6100  213.3110  155.7550 O   0  0  0  0  0  0  0  0  0  0  0  0
  1  3  2  0  0  0  0
  2  1  2  0  0  0  0
  2 39  1  0  0  0  0
  5  8  1  0  0  0  0
  5  7  1  0  0  0  0
  6  4  1  0  0  0  0
  7  6  1  0  0  0  0
  8  9  1  0  0  0  0
  9  4  2  0  0  0  0
  9  3  1  0  0  0  0
 10 17  1  6  0  0  0
 10 24  1  0  0  0  0
 10  7  1  0  0  0  0
 12 14  1  6  0  0  0
 12 15  1  0  0  0  0
 12 18  1  0  0  0  0
 13 16  1  0  0  0  0
 13 17  2  0  0  0  0
 14 18  1  0  0  0  0
 15 11  1  6  0  0  0
 15 13  1  0  0  0  0
 18 20  1  6  0  0  0
 18 16  1  0  0  0  0
 20 19  2  0  0  0  0
 20 21  2  0  0  0  0
 22 20  1  0  0  0  0
 24 23  1  0  0  0  0
 26 25  1  6  0  0  0
 26  2  1  0  0  0  0
 27 26  1  0  0  0  0
 28 27  1  0  0  0  0
 29 30  1  0  0  0  0
 30 35  1  0  0  0  0
 31 33  2  0  0  0  0
 31 34  1  0  0  0  0
 32 29  1  0  0  0  0
 34 28  1  0  0  0  0
 35 34  1  0  0  0  0
 36 31  1  0  0  0  0
 36 35  2  0  0  0  0
 37 29  2  0  0  0  0
 37 36  1  0  0  0  0
 38 31  2  0  0  0  0
 40 39  1  0  0  0  0
 40 41  1  0  0  0  0
 41 42  1  0  0  0  0
 43 41  2  0  0  0  0
M  END
>  <MODEL>
1

>  <REMARK>
 VINA RESULT:      -7.4      0.000      0.000
  Name = 
  12 active torsions:
  status: ('A' for Active; 'I' for Inactive)
    1  A    between atoms: C_1  and  O_13
    2  A    between atoms: C_9  and  C_29
    3  A    between atoms: C_9  and  C_31
    4  A    between atoms: O_13  and  C_31
    5  A    between atoms: C_14  and  C_42
    6  A    between atoms: S_15  and  C_34
    7  A    between atoms: C_16  and  C_29
    8  A    between atoms: C_16  and  C_39
    9  A    between atoms: C_23  and  C_28
   10  A    between atoms: C_23  and  N_37
   11  A    between atoms: C_23  and  C_38
   12  A    between atoms: N_26  and  C_39
                            x       y       z     vdW  Elec       q    Type
                         _______ _______ _______ _____ _____    ______ ____

>  <TORSDO>
F 12

$$$$
=
 OpenBabel11072410103D

 43 47  0  0  1  0  0  0  0  0999 V2000
  161.1970  212.1250  149.3340 C   0  0  0  0  0  0  0  0  0  0  0  0
  160.4460  213.1900  149.4220 C   0  0  0  0  0  0  0  0  0  0  0  0
  161.9690  211.0740  149.2840 C   0  0  0  0  0  3  0  0  0  0  0  0
  162.4580  208.8870  150.1090 N   0  0  0  0  0  0  0  0  0  0  0  0
  160.5550  209.1140  152.1240 C   0  0  0  0  0  2  0  0  0  0  0  0
  162.5200  207.8950  151.1790 C   0  0  0  0  0  2  0  0  0  0  0  0
  161.2350  207.8120  151.9010 N   0  0  0  0  0  0  0  0  0  0  0  0
  161.3830  210.3340  151.7030 C   0  0  0  0  0  2  0  0  0  0  0  0
  161.9580  210.0600  150.3460 C   0  0  0  0  0  0  0  0  0  0  0  0
  161.4480  207.0800  153.1600 C   0  0  2  0  0  3  0  0  0  0  0  0
  160.8130  202.7540  152.1100 C   0  0  0  0  0  1  0  0  0  0  0  0
  161.4150  203.6090  149.8220 C   0  0  2  0  0  3  0  0  0  0  0  0
  161.4770  205.0920  151.6790 C   0  0  0  0  0  0  0  0  0  0  0  0
  160.0360  203.8550  149.5810 O   0  0  0  0  0  0  0  0  0  0  0  0
  161.7310  203.6740  151.3280 C   0  0  1  0  0  3  0  0  0  0  0  0
  160.9850  205.7970  150.6010 O   0  0  0  0  0  0  0  0  0  0  0  0
  161.7200  205.6370  152.8710 C   0  0  0  0  0  3  0  0  0  0  0  0
  160.8990  204.9560  149.4670 C   0  0  1  0  0  0  0  0  0  0  0  0
  160.1130  206.3780  147.3320 O   0  0  0  0  0  0  0  0  0  0  0  0
  161.2670  205.5570  147.8310 S   0  0  0  0  0  0  0  0  0  0  0  0
  162.4980  206.4080  147.8800 O   0  0  0  0  0  0  0  0  0  0  0  0
  161.5780  203.9580  146.5220 S   0  0  0  0  0  1  0  0  0  0  0  0
  160.7900  206.9920  155.5970 C   0  0  0  0  0  1  0  0  0  0  0  0
  160.2980  207.2290  154.1740 C   0  0  0  0  0  2  0  0  0  0  0  0
  158.1680  214.1380  149.8040 C   0  0  0  0  0  1  0  0  0  0  0  0
  159.2210  213.1470  150.2820 C   0  0  2  0  0  3  0  0  0  0  0  0
  159.5900  213.3970  151.7370 C   0  0  0  0  0  2  0  0  0  0  0  0
  158.3950  213.9470  152.5080 C   0  0  0  0  0  2  0  0  0  0  0  0
  160.2060  211.1720  156.1580 C   0  0  0  0  0  0  0  0  0  0  0  0
  160.5110  211.8240  154.7920 C   0  0  0  0  0  3  0  0  0  0  0  0
  157.1560  213.1510  154.9860 S   0  0  0  0  0  0  0  0  0  0  0  0
  161.1980  210.3230  156.8640 C   0  0  0  0  0  1  0  0  0  0  0  0
  155.9620  212.3530  154.5330 O   0  0  0  0  0  0  0  0  0  0  0  0
  158.3180  213.3210  153.8150 N   0  0  0  0  0  0  0  0  0  0  0  0
  159.2170  212.4860  154.6400 C   0  0  0  0  0  0  0  0  0  0  0  0
  158.3900  212.2610  155.6730 C   0  0  0  0  0  0  0  0  0  0  0  0
  158.9720  211.4200  156.6790 C   0  0  0  0  0  2  0  0  0  0  0  0
  156.8230  214.4460  155.6750 O   0  0  0  0  0  0  0  0  0  0  0  0
  160.8960  214.4510  148.7630 C   0  0  0  0  0  2  0  0  0  0  0  0
  161.2050  214.1910  147.4020 O   0  0  0  0  0  0  0  0  0  0  0  0
  160.3200  213.5120  146.5640 C   0  0  0  0  0  0  0  0  0  0  0  0
  160.6900  212.4980  145.9190 O   0  0  0  0  0  0  0  0  0  0  0  0
  159.0100  213.9490  146.4620 O   0  0  0  0  0  1  0  0  0  0  0  0
  1  2  2  0  0  0  0
  2 26  1  0  0  0  0
  3  1  2  0  0  0  0
  3  9  1  0  0  0  0
  4  9  2  0  0  0  0
  4  6  1  0  0  0  0
  6  7  1  0  0  0  0
  7  5  1  0  0  0  0
  7 10  1  0  0  0  0
  8  5  1  0  0  0  0
  9  8  1  0  0  0  0
 10 17  1  6  0  0  0
 10 24  1  0  0  0  0
 12 14  1  1  0  0  0
 12 15  1  0  0  0  0
 13 17  2  0  0  0  0
 15 13  1  0  0  0  0
 15 11  1  1  0  0  0
 16 13  1  0  0  0  0
 18 20  1  6  0  0  0
 18 14  1  0  0  0  0
 18 12  1  0  0  0  0
 18 16  1  0  0  0  0
 19 20  2  0  0  0  0
 20 21  2  0  0  0  0
 22 20  1  0  0  0  0
 24 23  1  0  0  0  0
 26 25  1  6  0  0  0
 26 27  1  0  0  0  0
 27 28  1  0  0  0  0
 28 34  1  0  0  0  0
 29 37  1  0  0  0  0
 29 32  1  0  0  0  0
 30 29  2  0  0  0  0
 31 36  1  0  0  0  0
 31 38  2  0  0  0  0
 33 31  2  0  0  0  0
 34 35  1  0  0  0  0
 34 31  1  0  0  0  0
 35 30  1  0  0  0  0
 35 36  2  0  0  0  0
 36 37  1  0  0  0  0
 39  2  1  0  0  0  0
 40 39  1  0  0  0  0
 41 40  1  0  0  0  0
 42 41  2  0  0  0  0
 43 41  1  0  0  0  0
M  END
>  <MODEL>
2

>  <REMARK>
 VINA RESULT:      -5.6      2.337      6.070
  Name = 
  12 active torsions:
  status: ('A' for Active; 'I' for Inactive)
    1  A    between atoms: C_1  and  O_13
    2  A    between atoms: C_9  and  C_29
    3  A    between atoms: C_9  and  C_31
    4  A    between atoms: O_13  and  C_31
    5  A    between atoms: C_14  and  C_42
    6  A    between atoms: S_15  and  C_34
    7  A    between atoms: C_16  and  C_29
    8  A    between atoms: C_16  and  C_39
    9  A    between atoms: C_23  and  C_28
   10  A    between atoms: C_23  and  N_37
   11  A    between atoms: C_23  and  C_38
   12  A    between atoms: N_26  and  C_39
                            x       y       z     vdW  Elec       q    Type
                         _______ _______ _______ _____ _____    ______ ____

>  <TORSDO>
F 12

$$$$
=
 OpenBabel11072410103D

 43 47  0  0  1  0  0  0  0  0999 V2000
  160.3450  211.3640  154.6000 C   0  0  0  0  0  0  0  0  0  0  0  0
  159.4140  212.2800  154.5580 C   0  0  0  0  0  0  0  0  0  0  0  0
  161.2420  210.4180  154.6410 C   0  0  0  0  0  3  0  0  0  0  0  0
  161.3160  209.8990  152.3110 N   0  0  0  0  0  0  0  0  0  0  0  0
  160.8310  207.2040  152.7940 C   0  0  0  0  0  2  0  0  0  0  0  0
  161.5590  208.9840  151.1990 C   0  0  0  0  0  2  0  0  0  0  0  0
  160.8420  207.7080  151.3970 N   0  0  0  0  0  0  0  0  0  0  0  0
  161.6990  208.0180  153.7620 C   0  0  0  0  0  2  0  0  0  0  0  0
  161.4140  209.4720  153.5310 C   0  0  0  0  0  0  0  0  0  0  0  0
  161.3840  206.7130  150.4580 C   0  0  2  0  0  3  0  0  0  0  0  0
  160.4480  202.7670  152.3990 C   0  0  0  0  0  1  0  0  0  0  0  0
  160.9770  201.9290  150.0870 C   0  0  2  0  0  3  0  0  0  0  0  0
  161.2210  204.2430  150.5780 C   0  0  0  0  0  0  0  0  0  0  0  0
  159.6030  202.0730  149.7510 O   0  0  0  0  0  0  0  0  0  0  0  0
  161.3740  202.9080  151.2080 C   0  0  1  0  0  3  0  0  0  0  0  0
  160.7150  204.1410  149.3000 O   0  0  0  0  0  0  0  0  0  0  0  0
  161.5580  205.3980  151.1510 C   0  0  0  0  0  3  0  0  0  0  0  0
  160.5210  202.7820  148.9590 C   0  0  1  0  0  0  0  0  0  0  0  0
  159.5400  202.0920  146.5590 O   0  0  0  0  0  0  0  0  0  0  0  0
  160.8360  202.1790  147.3130 S   0  0  0  0  0  0  0  0  0  0  0  0
  161.7590  203.1230  146.6070 O   0  0  0  0  0  0  0  0  0  0  0  0
  161.7070  200.2800  147.3880 S   0  0  0  0  0  1  0  0  0  0  0  0
  162.5460  207.1240  148.2530 C   0  0  0  0  0  1  0  0  0  0  0  0
  162.6920  207.1480  149.7700 C   0  0  0  0  0  2  0  0  0  0  0  0
  157.9210  211.6960  152.6440 C   0  0  0  0  0  1  0  0  0  0  0  0
  158.8870  212.7190  153.2270 C   0  0  2  0  0  3  0  0  0  0  0  0
  160.0380  212.9950  152.2710 C   0  0  0  0  0  2  0  0  0  0  0  0
  159.7110  214.1750  151.3620 C   0  0  0  0  0  2  0  0  0  0  0  0
  157.7850  213.0040  146.9780 C   0  0  0  0  0  0  0  0  0  0  0  0
  157.4760  213.5170  148.4010 C   0  0  0  0  0  2  0  0  0  0  0  0
  161.0390  213.2950  148.9590 S   0  0  0  0  0  0  0  0  0  0  0  0
  156.7160  212.7730  145.9750 C   0  0  0  0  0  1  0  0  0  0  0  0
  161.6940  212.0070  149.3790 O   0  0  0  0  0  0  0  0  0  0  0  0
  159.8150  213.7730  149.9710 N   0  0  0  0  0  0  0  0  0  0  0  0
  158.8600  213.5330  148.8690 C   0  0  0  0  0  0  0  0  0  0  0  0
  159.7330  213.1280  147.9320 C   0  0  0  0  0  0  0  0  0  0  0  0
  159.0970  212.7740  146.6950 C   0  0  0  0  0  3  0  0  0  0  0  0
  161.9930  214.4080  148.6250 O   0  0  0  0  0  0  0  0  0  0  0  0
  158.8200  212.7690  155.8360 C   0  0  0  0  0  2  0  0  0  0  0  0
  157.5360  213.3190  155.5810 O   0  0  0  0  0  0  0  0  0  0  0  0
  156.3690  212.7090  156.0420 C   0  0  0  0  0  0  0  0  0  0  0  0
  155.3380  213.3860  156.2850 O   0  0  0  0  0  1  0  0  0  0  0  0
  156.3420  211.3350  156.2080 O   0  0  0  0  0  0  0  0  0  0  0  0
  1  3  2  0  0  0  0
  2  1  2  0  0  0  0
  2 39  1  0  0  0  0
  4  9  2  0  0  0  0
  5  8  1  0  0  0  0
  6  7  1  0  0  0  0
  6  4  1  0  0  0  0
  7  5  1  0  0  0  0
  9  8  1  0  0  0  0
  9  3  1  0  0  0  0
 10 24  1  1  0  0  0
 10 17  1  0  0  0  0
 10  7  1  0  0  0  0
 12 14  1  1  0  0  0
 12 15  1  0  0  0  0
 13 17  2  0  0  0  0
 13 15  1  0  0  0  0
 15 11  1  1  0  0  0
 16 13  1  0  0  0  0
 18 20  1  6  0  0  0
 18 16  1  0  0  0  0
 18 14  1  0  0  0  0
 18 12  1  0  0  0  0
 19 20  2  0  0  0  0
 20 22  1  0  0  0  0
 21 20  2  0  0  0  0
 23 24  1  0  0  0  0
 26 25  1  6  0  0  0
 26  2  1  0  0  0  0
 27 26  1  0  0  0  0
 28 27  1  0  0  0  0
 29 30  1  0  0  0  0
 30 35  1  0  0  0  0
 31 33  2  0  0  0  0
 31 34  1  0  0  0  0
 32 29  1  0  0  0  0
 34 28  1  0  0  0  0
 35 34  1  0  0  0  0
 36 35  2  0  0  0  0
 36 31  1  0  0  0  0
 37 29  2  0  0  0  0
 37 36  1  0  0  0  0
 38 31  2  0  0  0  0
 40 39  1  0  0  0  0
 40 41  1  0  0  0  0
 41 43  2  0  0  0  0
 41 42  1  0  0  0  0
M  END
>  <MODEL>
3

>  <REMARK>
 VINA RESULT:      -5.5      1.186      2.321
  Name = 
  12 active torsions:
  status: ('A' for Active; 'I' for Inactive)
    1  A    between atoms: C_1  and  O_13
    2  A    between atoms: C_9  and  C_29
    3  A    between atoms: C_9  and  C_31
    4  A    between atoms: O_13  and  C_31
    5  A    between atoms: C_14  and  C_42
    6  A    between atoms: S_15  and  C_34
    7  A    between atoms: C_16  and  C_29
    8  A    between atoms: C_16  and  C_39
    9  A    between atoms: C_23  and  C_28
   10  A    between atoms: C_23  and  N_37
   11  A    between atoms: C_23  and  C_38
   12  A    between atoms: N_26  and  C_39
                            x       y       z     vdW  Elec       q    Type
                         _______ _______ _______ _____ _____    ______ ____

>  <TORSDO>
F 12

$$$$
=
 OpenBabel11072410103D

 43 47  0  0  1  0  0  0  0  0999 V2000
  161.1830  205.8950  153.1550 C   0  0  0  0  0  0  0  0  0  0  0  0
  161.6210  205.7790  151.9300 C   0  0  0  0  0  0  0  0  0  0  0  0
  160.7850  206.0300  154.3910 C   0  0  0  0  0  3  0  0  0  0  0  0
  161.2540  208.3680  154.5350 N   0  0  0  0  0  0  0  0  0  0  0  0
  160.3290  208.4930  157.1540 C   0  0  0  0  0  2  0  0  0  0  0  0
  161.0120  209.7020  155.0780 C   0  0  0  0  0  2  0  0  0  0  0  0
  160.9930  209.6780  156.5540 N   0  0  0  0  0  0  0  0  0  0  0  0
  159.6410  207.5760  156.1360 C   0  0  0  0  0  2  0  0  0  0  0  0
  160.5890  207.3540  154.9950 C   0  0  0  0  0  0  0  0  0  0  0  0
  160.4100  210.9400  157.0380 C   0  0  2  0  0  3  0  0  0  0  0  0
  156.0900  212.1820  157.1170 C   0  0  0  0  0  1  0  0  0  0  0  0
  156.5410  212.5570  154.6700 C   0  0  2  0  0  3  0  0  0  0  0  0
  158.2480  211.6410  156.0490 C   0  0  0  0  0  0  0  0  0  0  0  0
  156.9160  213.8940  154.9720 O   0  0  0  0  0  0  0  0  0  0  0  0
  156.7740  211.6330  155.8810 C   0  0  1  0  0  3  0  0  0  0  0  0
  158.8510  212.5030  155.1590 O   0  0  0  0  0  0  0  0  0  0  0  0
  158.9180  210.8900  156.9220 C   0  0  0  0  0  3  0  0  0  0  0  0
  157.8790  213.1030  154.3250 C   0  0  1  0  0  0  0  0  0  0  0  0
  159.3550  214.3790  152.4830 O   0  0  0  0  0  0  0  0  0  0  0  0
  158.1990  213.4280  152.6040 S   0  0  0  0  0  0  0  0  0  0  0  0
  158.5370  212.1440  151.9100 O   0  0  0  0  0  0  0  0  0  0  0  0
  156.5190  214.2840  151.7000 S   0  0  0  0  0  1  0  0  0  0  0  0
  160.8770  213.4120  157.2610 C   0  0  0  0  0  1  0  0  0  0  0  0
  160.9730  212.1960  156.3460 C   0  0  0  0  0  2  0  0  0  0  0  0
  160.6790  208.0730  151.6360 C   0  0  0  0  0  1  0  0  0  0  0  0
  161.4230  206.9180  150.9780 C   0  0  2  0  0  3  0  0  0  0  0  0
  160.7000  206.4400  149.7280 C   0  0  0  0  0  2  0  0  0  0  0  0
  161.4760  206.8290  148.4750 C   0  0  0  0  0  2  0  0  0  0  0  0
  161.2200  202.1140  147.0580 C   0  0  0  0  0  0  0  0  0  0  0  0
  161.2660  203.0720  148.2680 C   0  0  0  0  0  2  0  0  0  0  0  0
  161.3360  205.7250  145.8150 S   0  0  0  0  0  0  0  0  0  0  0  0
  161.1860  200.6400  147.2220 C   0  0  0  0  0  1  0  0  0  0  0  0
  162.6220  206.1840  145.1830 O   0  0  0  0  0  0  0  0  0  0  0  0
  161.3560  205.7860  147.4730 N   0  0  0  0  0  0  0  0  0  0  0  0
  161.2860  204.3100  147.4900 C   0  0  0  0  0  0  0  0  0  0  0  0
  161.2560  204.0940  146.1650 C   0  0  0  0  0  0  0  0  0  0  0  0
  161.2140  202.7000  145.8280 C   0  0  0  0  0  3  0  0  0  0  0  0
  160.0920  206.3270  145.2210 O   0  0  0  0  0  0  0  0  0  0  0  0
  162.4090  204.5700  151.5520 C   0  0  0  0  0  2  0  0  0  0  0  0
  161.7720  203.4100  152.0650 O   0  0  0  0  0  0  0  0  0  0  0  0
  161.0730  202.5290  151.2400 C   0  0  0  0  0  0  0  0  0  0  0  0
  161.5070  201.3690  151.0180 O   0  0  0  0  0  1  0  0  0  0  0  0
  159.8730  202.9300  150.6790 O   0  0  0  0  0  0  0  0  0  0  0  0
  1  3  2  0  0  0  0
  2  1  2  0  0  0  0
  3  9  1  0  0  0  0
  4  9  2  0  0  0  0
  4  6  1  0  0  0  0
  6  7  1  0  0  0  0
  7 10  1  0  0  0  0
  7  5  1  0  0  0  0
  8  5  1  0  0  0  0
  9  8  1  0  0  0  0
 10 24  1  6  0  0  0
 12 14  1  1  0  0  0
 12 15  1  0  0  0  0
 13 17  2  0  0  0  0
 15 13  1  0  0  0  0
 15 11  1  1  0  0  0
 16 13  1  0  0  0  0
 17 10  1  0  0  0  0
 18 20  1  6  0  0  0
 18 12  1  0  0  0  0
 18 14  1  0  0  0  0
 18 16  1  0  0  0  0
 19 20  2  0  0  0  0
 21 20  2  0  0  0  0
 22 20  1  0  0  0  0
 24 23  1  0  0  0  0
 26 25  1  1  0  0  0
 26  2  1  0  0  0  0
 27 26  1  0  0  0  0
 28 27  1  0  0  0  0
 29 32  1  0  0  0  0
 29 30  1  0  0  0  0
 31 36  1  0  0  0  0
 31 34  1  0  0  0  0
 33 31  2  0  0  0  0
 34 35  1  0  0  0  0
 34 28  1  0  0  0  0
 35 30  1  0  0  0  0
 36 35  2  0  0  0  0
 37 36  1  0  0  0  0
 37 29  2  0  0  0  0
 38 31  2  0  0  0  0
 39  2  1  0  0  0  0
 39 40  1  0  0  0  0
 41 40  1  0  0  0  0
 42 41  1  0  0  0  0
 43 41  2  0  0  0  0
M  END
>  <MODEL>
4

>  <REMARK>
 VINA RESULT:      -5.4      3.541      9.595
  Name = 
  12 active torsions:
  status: ('A' for Active; 'I' for Inactive)
    1  A    between atoms: C_1  and  O_13
    2  A    between atoms: C_9  and  C_29
    3  A    between atoms: C_9  and  C_31
    4  A    between atoms: O_13  and  C_31
    5  A    between atoms: C_14  and  C_42
    6  A    between atoms: S_15  and  C_34
    7  A    between atoms: C_16  and  C_29
    8  A    between atoms: C_16  and  C_39
    9  A    between atoms: C_23  and  C_28
   10  A    between atoms: C_23  and  N_37
   11  A    between atoms: C_23  and  C_38
   12  A    between atoms: N_26  and  C_39
                            x       y       z     vdW  Elec       q    Type
                         _______ _______ _______ _____ _____    ______ ____

>  <TORSDO>
F 12

$$$$
=
 OpenBabel11072410103D

 43 47  0  0  1  0  0  0  0  0999 V2000
  158.0760  213.7060  153.3670 C   0  0  0  0  0  0  0  0  0  0  0  0
  158.0880  212.9660  154.4430 C   0  0  0  0  0  0  0  0  0  0  0  0
  158.1080  214.4530  152.2980 C   0  0  0  0  0  3  0  0  0  0  0  0
  160.1680  214.4020  151.0900 N   0  0  0  0  0  0  0  0  0  0  0  0
  158.8560  213.9960  148.6730 C   0  0  0  0  0  2  0  0  0  0  0  0
  160.9940  213.9760  149.9630 C   0  0  0  0  0  2  0  0  0  0  0  0
  160.3190  214.2480  148.6790 N   0  0  0  0  0  0  0  0  0  0  0  0
  158.3250  213.3490  149.9570 C   0  0  0  0  0  2  0  0  0  0  0  0
  158.9120  214.0840  151.1250 C   0  0  0  0  0  0  0  0  0  0  0  0
  161.0110  213.4990  147.6160 C   0  0  2  0  0  3  0  0  0  0  0  0
  157.8230  213.0950  144.4720 C   0  0  0  0  0  1  0  0  0  0  0  0
  159.8340  212.6780  143.0190 C   0  0  2  0  0  3  0  0  0  0  0  0
  160.1230  212.9890  145.3590 C   0  0  0  0  0  0  0  0  0  0  0  0
  159.8980  214.0730  142.7550 O   0  0  0  0  0  0  0  0  0  0  0  0
  159.1700  212.4060  144.3830 C   0  0  1  0  0  3  0  0  0  0  0  0
  161.1730  213.6160  144.7240 O   0  0  0  0  0  0  0  0  0  0  0  0
  160.0090  212.8940  146.6830 C   0  0  0  0  0  3  0  0  0  0  0  0
  161.0420  213.4890  143.3220 C   0  0  1  0  0  0  0  0  0  0  0  0
  163.7050  213.6200  143.0220 O   0  0  0  0  0  0  0  0  0  0  0  0
  162.4590  213.2500  142.2700 S   0  0  0  0  0  0  0  0  0  0  0  0
  162.5360  211.8120  141.8590 O   0  0  0  0  0  0  0  0  0  0  0  0
  162.3120  214.4520  140.5660 S   0  0  0  0  0  1  0  0  0  0  0  0
  163.3030  212.4690  147.3640 C   0  0  0  0  0  1  0  0  0  0  0  0
  161.9900  212.4310  148.1380 C   0  0  0  0  0  2  0  0  0  0  0  0
  158.3760  210.8110  155.6720 C   0  0  0  0  0  1  0  0  0  0  0  0
  158.4630  211.5200  154.3270 C   0  0  2  0  0  3  0  0  0  0  0  0
  159.8540  211.3850  153.7240 C   0  0  0  0  0  2  0  0  0  0  0  0
  160.8220  210.7830  154.7360 C   0  0  0  0  0  2  0  0  0  0  0  0
  161.1090  206.7590  151.9020 C   0  0  0  0  0  0  0  0  0  0  0  0
  161.0920  208.3030  151.9120 C   0  0  0  0  0  3  0  0  0  0  0  0
  160.8820  208.0060  155.5070 S   0  0  0  0  0  0  0  0  0  0  0  0
  161.1760  205.9810  150.6410 C   0  0  0  0  0  1  0  0  0  0  0  0
  159.5650  207.8150  156.2090 O   0  0  0  0  0  0  0  0  0  0  0  0
  160.9230  209.3500  154.5350 N   0  0  0  0  0  0  0  0  0  0  0  0
  161.0210  208.4530  153.3640 C   0  0  0  0  0  0  0  0  0  0  0  0
  161.0050  207.2760  154.0100 C   0  0  0  0  0  0  0  0  0  0  0  0
  161.0590  206.1520  153.1200 C   0  0  0  0  0  2  0  0  0  0  0  0
  162.0920  207.8850  156.3930 O   0  0  0  0  0  0  0  0  0  0  0  0
  157.8480  213.6080  155.7680 C   0  0  0  0  0  2  0  0  0  0  0  0
  156.6630  214.3870  155.7090 O   0  0  0  0  0  0  0  0  0  0  0  0
  155.3980  213.8000  155.6680 C   0  0  0  0  0  0  0  0  0  0  0  0
  154.5920  214.0670  154.7410 O   0  0  0  0  0  0  0  0  0  0  0  0
  155.0380  212.8930  156.6500 O   0  0  0  0  0  1  0  0  0  0  0  0
  1  2  2  0  0  0  0
  2 39  1  0  0  0  0
  3  1  2  0  0  0  0
  4  9  2  0  0  0  0
  5  7  1  0  0  0  0
  5  8  1  0  0  0  0
  6  4  1  0  0  0  0
  7  6  1  0  0  0  0
  8  9  1  0  0  0  0
  9  3  1  0  0  0  0
 10 17  1  6  0  0  0
 10 24  1  0  0  0  0
 10  7  1  0  0  0  0
 12 14  1  6  0  0  0
 12 18  1  0  0  0  0
 12 15  1  0  0  0  0
 13 17  2  0  0  0  0
 14 18  1  0  0  0  0
 15 11  1  6  0  0  0
 15 13  1  0  0  0  0
 16 13  1  0  0  0  0
 18 20  1  6  0  0  0
 18 16  1  0  0  0  0
 20 19  2  0  0  0  0
 21 20  2  0  0  0  0
 22 20  1  0  0  0  0
 23 24  1  0  0  0  0
 26  2  1  0  0  0  0
 26 25  1  1  0  0  0
 27 26  1  0  0  0  0
 27 28  1  0  0  0  0
 29 30  2  0  0  0  0
 29 37  1  0  0  0  0
 30 35  1  0  0  0  0
 31 33  2  0  0  0  0
 31 38  2  0  0  0  0
 32 29  1  0  0  0  0
 34 28  1  0  0  0  0
 34 31  1  0  0  0  0
 35 36  2  0  0  0  0
 35 34  1  0  0  0  0
 36 31  1  0  0  0  0
 37 36  1  0  0  0  0
 40 39  1  0  0  0  0
 41 40  1  0  0  0  0
 41 43  1  0  0  0  0
 42 41  2  0  0  0  0
M  END
>  <MODEL>
5

>  <REMARK>
 VINA RESULT:      -5.4      4.290      8.138
  Name = 
  12 active torsions:
  status: ('A' for Active; 'I' for Inactive)
    1  A    between atoms: C_1  and  O_13
    2  A    between atoms: C_9  and  C_29
    3  A    between atoms: C_9  and  C_31
    4  A    between atoms: O_13  and  C_31
    5  A    between atoms: C_14  and  C_42
    6  A    between atoms: S_15  and  C_34
    7  A    between atoms: C_16  and  C_29
    8  A    between atoms: C_16  and  C_39
    9  A    between atoms: C_23  and  C_28
   10  A    between atoms: C_23  and  N_37
   11  A    between atoms: C_23  and  C_38
   12  A    between atoms: N_26  and  C_39
                            x       y       z     vdW  Elec       q    Type
                         _______ _______ _______ _____ _____    ______ ____

>  <TORSDO>
F 12

$$$$
=
 OpenBabel11072410103D

 43 47  0  0  1  0  0  0  0  0999 V2000
  161.1400  212.1410  149.2800 C   0  0  0  0  0  0  0  0  0  0  0  0
  160.3960  213.2100  149.3690 C   0  0  0  0  0  0  0  0  0  0  0  0
  161.9060  211.0850  149.2280 C   0  0  0  0  0  3  0  0  0  0  0  0
  162.4540  208.9300  150.1000 N   0  0  0  0  0  0  0  0  0  0  0  0
  160.5700  209.1640  152.1310 C   0  0  0  0  0  2  0  0  0  0  0  0
  162.5510  207.9660  151.1930 C   0  0  0  0  0  2  0  0  0  0  0  0
  161.2760  207.8730  151.9320 N   0  0  0  0  0  0  0  0  0  0  0  0
  161.3640  210.3920  151.6710 C   0  0  0  0  0  2  0  0  0  0  0  0
  161.9300  210.0970  150.3140 C   0  0  0  0  0  0  0  0  0  0  0  0
  161.5200  207.1760  153.2050 C   0  0  2  0  0  3  0  0  0  0  0  0
  160.7700  202.8420  152.2740 C   0  0  0  0  0  1  0  0  0  0  0  0
  161.3810  203.6200  149.9620 C   0  0  2  0  0  3  0  0  0  0  0  0
  161.4900  205.1500  151.7780 C   0  0  0  0  0  0  0  0  0  0  0  0
  160.0080  203.8950  149.7210 O   0  0  0  0  0  0  0  0  0  0  0  0
  161.7060  203.7160  151.4640 C   0  0  1  0  0  3  0  0  0  0  0  0
  161.0120  205.8380  150.6840 O   0  0  0  0  0  0  0  0  0  0  0  0
  161.7540  205.7200  152.9540 C   0  0  0  0  0  3  0  0  0  0  0  0
  160.8980  204.9700  149.5730 C   0  0  1  0  0  0  0  0  0  0  0  0
  160.0920  206.2580  147.3620 O   0  0  0  0  0  0  0  0  0  0  0  0
  161.2730  205.5170  147.9200 S   0  0  0  0  0  0  0  0  0  0  0  0
  162.4590  206.4300  147.9560 O   0  0  0  0  0  0  0  0  0  0  0  0
  161.6910  203.8810  146.6900 S   0  0  0  0  0  1  0  0  0  0  0  0
  161.0040  207.6410  155.6340 C   0  0  0  0  0  1  0  0  0  0  0  0
  160.4100  207.3810  154.2540 C   0  0  0  0  0  2  0  0  0  0  0  0
  158.2430  214.3320  149.9530 C   0  0  0  0  0  1  0  0  0  0  0  0
  159.2030  213.1930  150.2740 C   0  0  2  0  0  3  0  0  0  0  0  0
  159.6460  213.2410  151.7290 C   0  0  0  0  0  2  0  0  0  0  0  0
  158.5640  213.8710  152.5990 C   0  0  0  0  0  2  0  0  0  0  0  0
  155.9470  211.1340  155.7560 C   0  0  0  0  0  0  0  0  0  0  0  0
  155.9460  211.8240  154.3750 C   0  0  0  0  0  3  0  0  0  0  0  0
  159.3300  212.8110  155.1690 S   0  0  0  0  0  0  0  0  0  0  0  0
  154.7610  210.4090  156.2750 C   0  0  0  0  0  1  0  0  0  0  0  0
  159.6240  214.0460  155.9770 O   0  0  0  0  0  0  0  0  0  0  0  0
  158.4060  213.1080  153.8230 N   0  0  0  0  0  0  0  0  0  0  0  0
  157.3160  212.3280  154.4470 C   0  0  0  0  0  0  0  0  0  0  0  0
  157.9340  211.9980  155.5920 C   0  0  0  0  0  0  0  0  0  0  0  0
  157.1020  211.2300  156.4730 C   0  0  0  0  0  2  0  0  0  0  0  0
  160.5270  211.9470  154.8800 O   0  0  0  0  0  0  0  0  0  0  0  0
  160.8260  214.4530  148.6630 C   0  0  0  0  0  2  0  0  0  0  0  0
  161.0560  214.1640  147.2920 O   0  0  0  0  0  0  0  0  0  0  0  0
  162.3440  213.9950  146.7830 C   0  0  0  0  0  0  0  0  0  0  0  0
  162.5290  213.4530  145.6630 O   0  0  0  0  0  0  0  0  0  0  0  0
  163.4280  214.4530  147.5110 O   0  0  0  0  0  1  0  0  0  0  0  0
  1  2  2  0  0  0  0
  2 26  1  0  0  0  0
  3  1  2  0  0  0  0
  3  9  1  0  0  0  0
  4  9  2  0  0  0  0
  4  6  1  0  0  0  0
  6  7  1  0  0  0  0
  7  5  1  0  0  0  0
  7 10  1  0  0  0  0
  8  5  1  0  0  0  0
  9  8  1  0  0  0  0
 10 17  1  6  0  0  0
 10 24  1  0  0  0  0
 12 14  1  1  0  0  0
 12 15  1  0  0  0  0
 13 17  2  0  0  0  0
 15 13  1  0  0  0  0
 15 11  1  1  0  0  0
 16 13  1  0  0  0  0
 18 20  1  6  0  0  0
 18 14  1  0  0  0  0
 18 12  1  0  0  0  0
 18 16  1  0  0  0  0
 19 20  2  0  0  0  0
 20 21  2  0  0  0  0
 22 20  1  0  0  0  0
 24 23  1  0  0  0  0
 26 25  1  6  0  0  0
 26 27  1  0  0  0  0
 27 28  1  0  0  0  0
 28 34  1  0  0  0  0
 29 32  1  0  0  0  0
 29 37  1  0  0  0  0
 30 35  1  0  0  0  0
 30 29  2  0  0  0  0
 31 36  1  0  0  0  0
 31 33  2  0  0  0  0
 34 35  1  0  0  0  0
 34 31  1  0  0  0  0
 35 36  2  0  0  0  0
 36 37  1  0  0  0  0
 38 31  2  0  0  0  0
 39  2  1  0  0  0  0
 40 39  1  0  0  0  0
 41 40  1  0  0  0  0
 41 43  1  0  0  0  0
 42 41  2  0  0  0  0
M  END
>  <MODEL>
6

>  <REMARK>
 VINA RESULT:      -5.2      2.569      6.054
  Name = 
  12 active torsions:
  status: ('A' for Active; 'I' for Inactive)
    1  A    between atoms: C_1  and  O_13
    2  A    between atoms: C_9  and  C_29
    3  A    between atoms: C_9  and  C_31
    4  A    between atoms: O_13  and  C_31
    5  A    between atoms: C_14  and  C_42
    6  A    between atoms: S_15  and  C_34
    7  A    between atoms: C_16  and  C_29
    8  A    between atoms: C_16  and  C_39
    9  A    between atoms: C_23  and  C_28
   10  A    between atoms: C_23  and  N_37
   11  A    between atoms: C_23  and  C_38
   12  A    between atoms: N_26  and  C_39
                            x       y       z     vdW  Elec       q    Type
                         _______ _______ _______ _____ _____    ______ ____

>  <TORSDO>
F 12

$$$$
=
 OpenBabel11072410103D

 43 47  0  0  1  0  0  0  0  0999 V2000
  161.9160  206.8920  151.4400 C   0  0  0  0  0  0  0  0  0  0  0  0
  161.5350  206.4400  152.6040 C   0  0  0  0  0  0  0  0  0  0  0  0
  162.2540  207.3500  150.2660 C   0  0  0  0  0  3  0  0  0  0  0  0
  161.9550  209.0390  148.6040 N   0  0  0  0  0  0  0  0  0  0  0  0
  162.4060  211.0720  150.4470 C   0  0  0  0  0  2  0  0  0  0  0  0
  161.5870  210.3900  148.1870 C   0  0  0  0  0  2  0  0  0  0  0  0
  162.2820  211.4040  149.0050 N   0  0  0  0  0  0  0  0  0  0  0  0
  161.6520  209.8040  150.8650 C   0  0  0  0  0  2  0  0  0  0  0  0
  161.9560  208.7310  149.8630 C   0  0  0  0  0  0  0  0  0  0  0  0
  161.6290  212.7060  148.7940 C   0  0  2  0  0  3  0  0  0  0  0  0
  157.4280  213.5420  147.4280 C   0  0  0  0  0  1  0  0  0  0  0  0
  158.4070  212.8460  145.2180 C   0  0  2  0  0  3  0  0  0  0  0  0
  159.7510  212.7480  147.1770 C   0  0  0  0  0  0  0  0  0  0  0  0
  158.7430  214.2040  144.9700 O   0  0  0  0  0  0  0  0  0  0  0  0
  158.3490  212.5610  146.7310 C   0  0  1  0  0  3  0  0  0  0  0  0
  160.5550  213.1780  146.1430 O   0  0  0  0  0  0  0  0  0  0  0  0
  160.1970  212.5030  148.4080 C   0  0  0  0  0  3  0  0  0  0  0  0
  159.8010  213.2830  144.9500 C   0  0  1  0  0  0  0  0  0  0  0  0
  160.0880  211.4450  143.0160 O   0  0  0  0  0  0  0  0  0  0  0  0
  160.4940  212.8480  143.3680 S   0  0  0  0  0  0  0  0  0  0  0  0
  159.9800  213.7900  142.3250 O   0  0  0  0  0  0  0  0  0  0  0  0
  162.5800  212.9540  143.4340 S   0  0  0  0  0  1  0  0  0  0  0  0
  163.7410  213.0770  147.4590 C   0  0  0  0  0  1  0  0  0  0  0  0
  162.3490  213.6110  147.7750 C   0  0  0  0  0  2  0  0  0  0  0  0
  160.4550  206.7850  154.8290 C   0  0  0  0  0  1  0  0  0  0  0  0
  161.2830  207.4130  153.7150 C   0  0  2  0  0  3  0  0  0  0  0  0
  160.6130  208.6670  153.1730 C   0  0  0  0  0  2  0  0  0  0  0  0
  161.0480  209.8940  153.9670 C   0  0  0  0  0  2  0  0  0  0  0  0
  157.9380  213.2730  152.1740 C   0  0  0  0  0  0  0  0  0  0  0  0
  159.0680  212.2800  151.8260 C   0  0  0  0  0  3  0  0  0  0  0  0
  158.9940  211.3920  155.3280 S   0  0  0  0  0  0  0  0  0  0  0  0
  157.3280  214.1620  151.1540 C   0  0  0  0  0  1  0  0  0  0  0  0
  159.7640  212.1740  156.3580 O   0  0  0  0  0  0  0  0  0  0  0  0
  159.9400  210.8240  154.0890 N   0  0  0  0  0  0  0  0  0  0  0  0
  159.2240  211.7370  153.1740 C   0  0  0  0  0  0  0  0  0  0  0  0
  158.3820  212.2920  154.0610 C   0  0  0  0  0  0  0  0  0  0  0  0
  157.5320  213.2870  153.4740 C   0  0  0  0  0  2  0  0  0  0  0  0
  158.0720  210.3450  155.8900 O   0  0  0  0  0  0  0  0  0  0  0  0
  161.2440  204.9850  152.7580 C   0  0  0  0  0  2  0  0  0  0  0  0
  161.8600  204.2640  151.7010 O   0  0  0  0  0  0  0  0  0  0  0  0
  161.1120  203.5950  150.7320 C   0  0  0  0  0  0  0  0  0  0  0  0
  160.3570  202.6400  151.0450 O   0  0  0  0  0  1  0  0  0  0  0  0
  161.1840  204.0090  149.4130 O   0  0  0  0  0  0  0  0  0  0  0  0
  1  2  2  0  0  0  0
  2 39  1  0  0  0  0
  2 26  1  0  0  0  0
  3  1  2  0  0  0  0
  4  9  2  0  0  0  0
  5  8  1  0  0  0  0
  6  4  1  0  0  0  0
  6  7  1  0  0  0  0
  7  5  1  0  0  0  0
  9  3  1  0  0  0  0
  9  8  1  0  0  0  0
 10 24  1  6  0  0  0
 10  7  1  0  0  0  0
 12 14  1  1  0  0  0
 12 15  1  0  0  0  0
 13 17  2  0  0  0  0
 15 13  1  0  0  0  0
 15 11  1  1  0  0  0
 16 13  1  0  0  0  0
 17 10  1  0  0  0  0
 18 20  1  6  0  0  0
 18 14  1  0  0  0  0
 18 12  1  0  0  0  0
 18 16  1  0  0  0  0
 19 20  2  0  0  0  0
 20 22  1  0  0  0  0
 21 20  2  0  0  0  0
 23 24  1  0  0  0  0
 26 25  1  1  0  0  0
 27 26  1  0  0  0  0
 27 28  1  0  0  0  0
 28 34  1  0  0  0  0
 29 37  1  0  0  0  0
 30 29  2  0  0  0  0
 30 35  1  0  0  0  0
 31 38  2  0  0  0  0
 31 33  2  0  0  0  0
 32 29  1  0  0  0  0
 34 31  1  0  0  0  0
 35 36  2  0  0  0  0
 35 34  1  0  0  0  0
 36 31  1  0  0  0  0
 37 36  1  0  0  0  0
 40 39  1  0  0  0  0
 41 42  1  0  0  0  0
 41 40  1  0  0  0  0
 43 41  2  0  0  0  0
M  END
>  <MODEL>
7

>  <REMARK>
 VINA RESULT:      -5.1      3.412      8.236
  Name = 
  12 active torsions:
  status: ('A' for Active; 'I' for Inactive)
    1  A    between atoms: C_1  and  O_13
    2  A    between atoms: C_9  and  C_29
    3  A    between atoms: C_9  and  C_31
    4  A    between atoms: O_13  and  C_31
    5  A    between atoms: C_14  and  C_42
    6  A    between atoms: S_15  and  C_34
    7  A    between atoms: C_16  and  C_29
    8  A    between atoms: C_16  and  C_39
    9  A    between atoms: C_23  and  C_28
   10  A    between atoms: C_23  and  N_37
   11  A    between atoms: C_23  and  C_38
   12  A    between atoms: N_26  and  C_39
                            x       y       z     vdW  Elec       q    Type
                         _______ _______ _______ _____ _____    ______ ____

>  <TORSDO>
F 12

$$$$
=
 OpenBabel11072410103D

 43 47  0  0  1  0  0  0  0  0999 V2000
  162.2890  208.0170  149.8700 C   0  0  0  0  0  0  0  0  0  0  0  0
  161.9890  207.1600  148.9310 C   0  0  0  0  0  0  0  0  0  0  0  0
  162.5500  208.8940  150.8010 C   0  0  0  0  0  3  0  0  0  0  0  0
  161.8190  210.0400  152.7650 N   0  0  0  0  0  0  0  0  0  0  0  0
  161.0020  207.6690  153.9650 C   0  0  0  0  0  2  0  0  0  0  0  0
  160.9670  210.1670  153.9450 C   0  0  0  0  0  2  0  0  0  0  0  0
  160.9910  208.9300  154.7500 N   0  0  0  0  0  0  0  0  0  0  0  0
  160.8300  207.8680  152.4550 C   0  0  0  0  0  2  0  0  0  0  0  0
  161.7430  208.9780  152.0260 C   0  0  0  0  0  0  0  0  0  0  0  0
  159.8740  208.9710  155.7090 C   0  0  2  0  0  3  0  0  0  0  0  0
  160.5740  213.2440  156.9180 C   0  0  0  0  0  1  0  0  0  0  0  0
  158.1010  213.3810  156.4810 C   0  0  2  0  0  3  0  0  0  0  0  0
  159.2090  211.2850  156.2960 C   0  0  0  0  0  0  0  0  0  0  0  0
  158.3870  213.7300  155.1330 O   0  0  0  0  0  0  0  0  0  0  0  0
  159.2420  212.5410  157.0850 C   0  0  1  0  0  3  0  0  0  0  0  0
  158.2690  211.3480  155.2890 O   0  0  0  0  0  0  0  0  0  0  0  0
  159.9610  210.2130  156.5400 C   0  0  0  0  0  3  0  0  0  0  0  0
  157.5930  212.5900  155.3310 C   0  0  1  0  0  0  0  0  0  0  0  0
  155.3420  211.3810  154.5100 O   0  0  0  0  0  0  0  0  0  0  0  0
  155.8530  212.7160  154.9690 S   0  0  0  0  0  0  0  0  0  0  0  0
  155.1180  213.1310  156.2060 O   0  0  0  0  0  0  0  0  0  0  0  0
  155.5240  214.1240  153.4600 S   0  0  0  0  0  1  0  0  0  0  0  0
  161.1060  207.4030  157.2600 C   0  0  0  0  0  1  0  0  0  0  0  0
  159.7680  207.7200  156.6010 C   0  0  0  0  0  2  0  0  0  0  0  0
  159.7020  206.2180  149.2750 C   0  0  0  0  0  1  0  0  0  0  0  0
  161.2000  205.9380  149.2880 C   0  0  2  0  0  3  0  0  0  0  0  0
  161.6460  205.4010  150.6400 C   0  0  0  0  0  2  0  0  0  0  0  0
  160.6560  204.3630  151.1590 C   0  0  0  0  0  2  0  0  0  0  0  0
  160.8590  201.6540  147.0450 C   0  0  0  0  0  0  0  0  0  0  0  0
  160.7390  203.0840  147.6150 C   0  0  0  0  0  3  0  0  0  0  0  0
  161.0000  201.5160  150.8600 S   0  0  0  0  0  0  0  0  0  0  0  0
  160.8210  201.3820  145.5870 C   0  0  0  0  0  1  0  0  0  0  0  0
  159.7960  200.9490  151.5640 O   0  0  0  0  0  0  0  0  0  0  0  0
  160.8280  203.1120  150.4430 N   0  0  0  0  0  0  0  0  0  0  0  0
  160.8400  202.7030  149.0230 C   0  0  0  0  0  0  0  0  0  0  0  0
  160.9840  201.3790  149.1960 C   0  0  0  0  0  0  0  0  0  0  0  0
  161.0020  200.6540  147.9590 C   0  0  0  0  0  2  0  0  0  0  0  0
  162.3150  201.2220  151.5270 O   0  0  0  0  0  0  0  0  0  0  0  0
  162.3340  207.4840  147.5160 C   0  0  0  0  0  2  0  0  0  0  0  0
  162.5200  206.2800  146.7870 O   0  0  0  0  0  0  0  0  0  0  0  0
  161.6660  205.9090  145.7490 C   0  0  0  0  0  0  0  0  0  0  0  0
  161.9930  205.0110  144.9320 O   0  0  0  0  0  0  0  0  0  0  0  0
  160.4300  206.5230  145.6340 O   0  0  0  0  0  1  0  0  0  0  0  0
  1  3  2  0  0  0  0
  2 26  1  0  0  0  0
  2  1  2  0  0  0  0
  3  9  1  0  0  0  0
  4  6  1  0  0  0  0
  5  7  1  0  0  0  0
  6  7  1  0  0  0  0
  7 10  1  0  0  0  0
  8  5  1  0  0  0  0
  9  8  1  0  0  0  0
  9  4  2  0  0  0  0
 10 17  1  1  0  0  0
 10 24  1  0  0  0  0
 12 14  1  6  0  0  0
 12 15  1  0  0  0  0
 13 17  2  0  0  0  0
 13 15  1  0  0  0  0
 14 18  1  0  0  0  0
 15 11  1  6  0  0  0
 16 18  1  0  0  0  0
 16 13  1  0  0  0  0
 18 20  1  6  0  0  0
 18 12  1  0  0  0  0
 19 20  2  0  0  0  0
 20 21  2  0  0  0  0
 22 20  1  0  0  0  0
 24 23  1  0  0  0  0
 26 25  1  1  0  0  0
 26 27  1  0  0  0  0
 27 28  1  0  0  0  0
 29 30  2  0  0  0  0
 29 37  1  0  0  0  0
 30 35  1  0  0  0  0
 31 38  2  0  0  0  0
 31 33  2  0  0  0  0
 32 29  1  0  0  0  0
 34 31  1  0  0  0  0
 34 28  1  0  0  0  0
 35 36  2  0  0  0  0
 35 34  1  0  0  0  0
 36 31  1  0  0  0  0
 37 36  1  0  0  0  0
 39  2  1  0  0  0  0
 40 39  1  0  0  0  0
 41 40  1  0  0  0  0
 42 41  2  0  0  0  0
 43 41  1  0  0  0  0
M  END
>  <MODEL>
8

>  <REMARK>
 VINA RESULT:      -4.9      3.771     10.251
  Name = 
  12 active torsions:
  status: ('A' for Active; 'I' for Inactive)
    1  A    between atoms: C_1  and  O_13
    2  A    between atoms: C_9  and  C_29
    3  A    between atoms: C_9  and  C_31
    4  A    between atoms: O_13  and  C_31
    5  A    between atoms: C_14  and  C_42
    6  A    between atoms: S_15  and  C_34
    7  A    between atoms: C_16  and  C_29
    8  A    between atoms: C_16  and  C_39
    9  A    between atoms: C_23  and  C_28
   10  A    between atoms: C_23  and  N_37
   11  A    between atoms: C_23  and  C_38
   12  A    between atoms: N_26  and  C_39
                            x       y       z     vdW  Elec       q    Type
                         _______ _______ _______ _____ _____    ______ ____

>  <TORSDO>
F 12

$$$$
=
 OpenBabel11072410103D

 43 47  0  0  1  0  0  0  0  0999 V2000
  161.7440  206.4110  150.2460 C   0  0  0  0  0  0  0  0  0  0  0  0
  161.8840  206.7590  148.9960 C   0  0  0  0  0  0  0  0  0  0  0  0
  161.6410  206.0860  151.5060 C   0  0  0  0  0  3  0  0  0  0  0  0
  161.0320  206.7240  153.7260 N   0  0  0  0  0  0  0  0  0  0  0  0
  160.4550  209.3230  152.9270 C   0  0  0  0  0  2  0  0  0  0  0  0
  160.8790  207.7130  154.7890 C   0  0  0  0  0  2  0  0  0  0  0  0
  160.1310  208.8930  154.3110 N   0  0  0  0  0  0  0  0  0  0  0  0
  161.6230  208.5610  152.2890 C   0  0  0  0  0  2  0  0  0  0  0  0
  161.4190  207.0980  152.5460 C   0  0  0  0  0  0  0  0  0  0  0  0
  160.3060  209.9860  155.2820 C   0  0  2  0  0  3  0  0  0  0  0  0
  159.3020  213.2410  152.3470 C   0  0  0  0  0  1  0  0  0  0  0  0
  157.7640  213.9340  154.2130 C   0  0  2  0  0  3  0  0  0  0  0  0
  159.2260  212.0850  154.5260 C   0  0  0  0  0  0  0  0  0  0  0  0
  156.7480  213.1220  153.6390 O   0  0  0  0  0  0  0  0  0  0  0  0
  159.1630  213.4030  153.8470 C   0  0  1  0  0  3  0  0  0  0  0  0
  158.0310  211.7780  155.1410 O   0  0  0  0  0  0  0  0  0  0  0  0
  160.3050  211.3040  154.5730 C   0  0  0  0  0  3  0  0  0  0  0  0
  157.1070  212.8340  154.9650 C   0  0  1  0  0  0  0  0  0  0  0  0
  156.6850  214.1590  157.2600 O   0  0  0  0  0  0  0  0  0  0  0  0
  155.9710  213.3040  156.2530 S   0  0  0  0  0  0  0  0  0  0  0  0
  154.8370  214.0800  155.6580 O   0  0  0  0  0  0  0  0  0  0  0  0
  155.2210  211.6070  157.2160 S   0  0  0  0  0  1  0  0  0  0  0  0
  162.7010  210.6990  155.6450 C   0  0  0  0  0  1  0  0  0  0  0  0
  161.5560  209.8410  156.1700 C   0  0  0  0  0  2  0  0  0  0  0  0
  160.8320  207.9860  147.0920 C   0  0  0  0  0  1  0  0  0  0  0  0
  161.3090  208.0640  148.5360 C   0  0  2  0  0  3  0  0  0  0  0  0
  162.3270  209.1800  148.7180 C   0  0  0  0  0  2  0  0  0  0  0  0
  161.6430  210.4630  149.1780 C   0  0  0  0  0  2  0  0  0  0  0  0
  159.9760  212.9100  145.2370 C   0  0  0  0  0  0  0  0  0  0  0  0
  159.6400  211.8420  146.3000 C   0  0  0  0  0  2  0  0  0  0  0  0
  162.9180  212.5460  147.6470 S   0  0  0  0  0  0  0  0  0  0  0  0
  159.0300  213.2630  144.1490 C   0  0  0  0  0  1  0  0  0  0  0  0
  164.1540  211.8740  147.1130 O   0  0  0  0  0  0  0  0  0  0  0  0
  161.7500  211.4790  148.1490 N   0  0  0  0  0  0  0  0  0  0  0  0
  160.8960  211.9510  147.0390 C   0  0  0  0  0  0  0  0  0  0  0  0
  161.7320  212.8630  146.5150 C   0  0  0  0  0  0  0  0  0  0  0  0
  161.1930  213.5100  145.3540 C   0  0  0  0  0  3  0  0  0  0  0  0
  163.1770  213.6430  148.6440 O   0  0  0  0  0  0  0  0  0  0  0  0
  162.7140  205.9090  148.0940 C   0  0  0  0  0  2  0  0  0  0  0  0
  161.9180  204.8590  147.5660 O   0  0  0  0  0  0  0  0  0  0  0  0
  161.9510  204.5200  146.2130 C   0  0  0  0  0  0  0  0  0  0  0  0
  161.3390  203.5080  145.7860 O   0  0  0  0  0  1  0  0  0  0  0  0
  162.6450  205.3260  145.3280 O   0  0  0  0  0  0  0  0  0  0  0  0
  1  3  2  0  0  0  0
  2  1  2  0  0  0  0
  3  9  1  0  0  0  0
  4  6  1  0  0  0  0
  5  7  1  0  0  0  0
  7  6  1  0  0  0  0
  7 10  1  0  0  0  0
  8  9  1  0  0  0  0
  8  5  1  0  0  0  0
  9  4  2  0  0  0  0
 10 17  1  6  0  0  0
 10 24  1  0  0  0  0
 12 14  1  6  0  0  0
 12 18  1  0  0  0  0
 13 17  2  0  0  0  0
 13 16  1  0  0  0  0
 14 18  1  0  0  0  0
 15 11  1  6  0  0  0
 15 12  1  0  0  0  0
 15 13  1  0  0  0  0
 18 16  1  0  0  0  0
 18 20  1  1  0  0  0
 20 22  1  0  0  0  0
 20 19  2  0  0  0  0
 21 20  2  0  0  0  0
 23 24  1  0  0  0  0
 26 25  1  6  0  0  0
 26 27  1  0  0  0  0
 26  2  1  0  0  0  0
 27 28  1  0  0  0  0
 29 37  2  0  0  0  0
 29 30  1  0  0  0  0
 30 35  1  0  0  0  0
 31 34  1  0  0  0  0
 31 38  2  0  0  0  0
 32 29  1  0  0  0  0
 33 31  2  0  0  0  0
 34 28  1  0  0  0  0
 35 34  1  0  0  0  0
 36 35  2  0  0  0  0
 36 31  1  0  0  0  0
 37 36  1  0  0  0  0
 39  2  1  0  0  0  0
 40 39  1  0  0  0  0
 41 40  1  0  0  0  0
 42 41  1  0  0  0  0
 43 41  2  0  0  0  0
M  END
>  <MODEL>
9

>  <REMARK>
 VINA RESULT:      -4.7      3.022      8.696
  Name = 
  12 active torsions:
  status: ('A' for Active; 'I' for Inactive)
    1  A    between atoms: C_1  and  O_13
    2  A    between atoms: C_9  and  C_29
    3  A    between atoms: C_9  and  C_31
    4  A    between atoms: O_13  and  C_31
    5  A    between atoms: C_14  and  C_42
    6  A    between atoms: S_15  and  C_34
    7  A    between atoms: C_16  and  C_29
    8  A    between atoms: C_16  and  C_39
    9  A    between atoms: C_23  and  C_28
   10  A    between atoms: C_23  and  N_37
   11  A    between atoms: C_23  and  C_38
   12  A    between atoms: N_26  and  C_39
                            x       y       z     vdW  Elec       q    Type
                         _______ _______ _______ _____ _____    ______ ____

>  <TORSDO>
F 12

$$$$
