=
 OpenBabel11072410543D

 40 45  0  0  1  0  0  0  0  0999 V2000
  161.3630  207.3750  148.4820 S   0  0  0  0  0  0  0  0  0  0  0  0
  161.0710  207.9930  150.1230 C   0  0  2  0  0  3  0  0  0  0  0  0
  161.3160  209.3700  150.6580 C   0  0  1  0  0  3  0  0  0  0  0  0
  161.1580  207.1110  151.0780 C   0  0  2  0  0  3  0  0  0  0  0  0
  161.4200  207.7840  152.3390 C   0  0  0  0  0  0  0  0  0  0  0  0
  161.5400  209.0890  152.1200 C   0  0  0  0  0  3  0  0  0  0  0  0
  161.5010  205.7260  150.6790 C   0  0  2  0  0  3  0  0  0  0  0  0
  162.0240  205.8430  149.2430 C   0  0  0  0  0  2  0  0  0  0  0  0
  160.4500  210.1420  155.5330 N   0  0  0  0  0  0  0  0  0  0  0  0
  160.8140  208.3770  157.2580 C   0  0  0  0  0  2  0  0  0  0  0  0
  160.3980  206.5790  154.2690 C   0  0  0  0  0  2  0  0  0  0  0  0
  160.4900  212.4500  155.9130 O   0  0  0  0  0  0  0  0  0  0  0  0
  160.1020  209.0570  154.6090 C   0  0  0  0  0  2  0  0  0  0  0  0
  160.8000  209.8710  156.9360 C   0  0  0  0  0  2  0  0  0  0  0  0
  161.0050  207.8400  154.8330 C   0  0  1  0  0  0  0  0  0  0  0  0
  161.6180  207.6200  156.2090 C   0  0  0  0  0  2  0  0  0  0  0  0
  160.3710  211.5040  155.0880 C   0  0  0  0  0  0  0  0  0  0  0  0
  161.6840  207.1280  153.6640 C   0  0  2  0  0  3  0  0  0  0  0  0
  160.1750  211.8310  153.6410 C   0  0  0  0  0  2  0  0  0  0  0  0
  158.6530  213.3600  152.4140 O   0  0  0  0  0  0  0  0  0  0  0  0
  157.4550  213.8480  152.5190 N   0  0  0  0  0  0  0  0  0  0  0  0
  158.9010  212.5810  153.4390 C   0  0  0  0  0  0  0  0  0  0  0  0
  157.8540  212.5150  154.2830 N   0  0  0  0  0  0  0  0  0  0  0  0
  156.9710  213.3230  153.6600 C   0  0  0  0  0  0  0  0  0  0  0  0
  155.6060  213.3950  155.7030 C   0  0  0  0  0  1  0  0  0  0  0  0
  155.6240  213.6420  154.2080 C   0  0  0  0  0  2  0  0  0  0  0  0
  162.4840  210.0100  150.0450 N   0  0  0  0  0  2  0  0  0  0  0  0
  162.1090  211.1750  149.4570 O   0  0  0  0  0  1  0  0  0  0  0  0
  160.3460  204.9390  150.6900 O   0  0  0  0  0  0  0  0  0  0  0  0
  160.7890  203.6580  151.0250 C   0  0  0  0  0  2  0  0  0  0  0  0
  160.3780  202.6790  149.9440 C   0  0  1  0  0  3  0  0  0  0  0  0
  161.6280  202.0970  149.3080 C   0  0  1  0  0  3  0  0  0  0  0  0
  160.8390  201.2900  150.3240 C   0  0  0  0  0  2  0  0  0  0  0  0
  161.2830  200.3270  147.6500 C   0  0  0  0  0  2  0  0  0  0  0  0
  161.3240  201.6340  147.9140 C   0  0  0  0  0  0  0  0  0  0  0  0
  160.7670  202.5950  146.9070 C   0  0  0  0  0  2  0  0  0  0  0  0
  160.6470  204.2920  144.6320 N   0  0  0  0  0  1  0  0  0  0  0  0
  161.7040  203.6870  146.6670 N   0  0  0  0  0  0  0  0  0  0  0  0
  162.5980  205.5150  145.4910 N   0  0  0  0  0  1  0  0  0  0  0  0
  161.6420  204.4720  145.6360 C   0  0  0  0  0  0  0  0  0  0  0  0
  1  8  1  0  0  0  0
  2  1  1  6  0  0  0
  2  3  1  0  0  0  0
  2  4  1  0  0  0  0
  3 27  1  6  0  0  0
  3  6  1  0  0  0  0
  4  5  1  1  0  0  0
  6  5  2  0  0  0  0
  7 29  1  6  0  0  0
  7  4  1  0  0  0  0
  8  7  1  0  0  0  0
  9 14  1  0  0  0  0
 13 15  1  0  0  0  0
 13  9  1  0  0  0  0
 14 10  1  0  0  0  0
 15 11  1  1  0  0  0
 15 16  1  0  0  0  0
 16 10  1  0  0  0  0
 17  9  1  0  0  0  0
 17 12  2  0  0  0  0
 18  5  1  6  0  0  0
 18 11  1  0  0  0  0
 18 15  1  0  0  0  0
 19 17  1  0  0  0  0
 20 21  1  0  0  0  0
 20 22  1  0  0  0  0
 21 24  2  0  0  0  0
 22 19  1  0  0  0  0
 22 23  2  0  0  0  0
 24 26  1  0  0  0  0
 24 23  1  0  0  0  0
 26 25  1  0  0  0  0
 28 27  1  0  0  0  0
 29 30  1  0  0  0  0
 31 33  1  0  0  0  0
 31 30  1  1  0  0  0
 32 35  1  6  0  0  0
 32 31  1  0  0  0  0
 32 33  1  0  0  0  0
 34 35  2  0  0  0  0
 36 35  1  0  0  0  0
 37 40  1  0  0  0  0
 38 36  1  0  0  0  0
 39 40  1  0  0  0  0
 40 38  2  0  0  0  0
M  END
>  <MODEL>
1

>  <REMARK>
 VINA RESULT:      -7.1      0.000      0.000
  Name = 
  11 active torsions:
  status: ('A' for Active; 'I' for Inactive)
    1  A    between atoms: C_3  and  C_24
    2  A    between atoms: C_4  and  C_39
    3  A    between atoms: N_6  and  C_11
    4  A    between atoms: C_13  and  C_18
    5  A    between atoms: C_13  and  C_38
    6  A    between atoms: N_14  and  C_32
    7  A    between atoms: C_15  and  C_40
    8  A    between atoms: O_17  and  C_20
    9  A    between atoms: O_17  and  C_24
   10  A    between atoms: C_21  and  C_36
   11  A    between atoms: C_32  and  C_39
                            x       y       z     vdW  Elec       q    Type
                         _______ _______ _______ _____ _____    ______ ____

>  <TORSDO>
F 11

$$$$
=
 OpenBabel11072410543D

 40 45  0  0  1  0  0  0  0  0999 V2000
  161.8200  207.2810  149.6240 S   0  0  0  0  0  0  0  0  0  0  0  0
  161.3030  208.6920  150.5730 C   0  0  2  0  0  3  0  0  0  0  0  0
  161.2950  210.1340  150.1690 C   0  0  1  0  0  3  0  0  0  0  0  0
  161.4400  208.5810  151.8630 C   0  0  2  0  0  3  0  0  0  0  0  0
  161.4920  209.9050  152.4630 C   0  0  0  0  0  0  0  0  0  0  0  0
  161.4350  210.8200  151.5020 C   0  0  0  0  0  3  0  0  0  0  0  0
  162.0170  207.3130  152.3680 C   0  0  2  0  0  3  0  0  0  0  0  0
  162.6350  206.6400  151.1370 C   0  0  0  0  0  2  0  0  0  0  0  0
  158.7910  212.5430  154.0250 N   0  0  0  0  0  0  0  0  0  0  0  0
  159.5800  212.3310  156.3820 C   0  0  0  0  0  2  0  0  0  0  0  0
  160.7950  209.4340  154.8110 C   0  0  0  0  0  2  0  0  0  0  0  0
  157.5980  214.3520  153.1420 O   0  0  0  0  0  0  0  0  0  0  0  0
  159.2440  211.1620  153.8320 C   0  0  0  0  0  2  0  0  0  0  0  0
  158.9020  213.2110  155.3310 C   0  0  0  0  0  2  0  0  0  0  0  0
  160.5530  210.9070  154.5860 C   0  0  1  0  0  0  0  0  0  0  0  0
  160.8660  211.7380  155.8220 C   0  0  0  0  0  2  0  0  0  0  0  0
  158.1510  213.2370  152.9430 C   0  0  0  0  0  0  0  0  0  0  0  0
  161.7390  210.2210  153.9100 C   0  0  2  0  0  3  0  0  0  0  0  0
  158.1530  212.6700  151.5590 C   0  0  0  0  0  2  0  0  0  0  0  0
  160.2270  213.9760  151.1740 O   0  0  0  0  0  0  0  0  0  0  0  0
  160.9230  214.4500  150.1860 N   0  0  0  0  0  0  0  0  0  0  0  0
  159.1690  213.3580  150.7100 C   0  0  0  0  0  0  0  0  0  0  0  0
  159.1190  213.3940  149.3650 N   0  0  0  0  0  0  0  0  0  0  0  0
  160.2420  214.0850  149.0840 C   0  0  0  0  0  0  0  0  0  0  0  0
  159.7030  213.8290  146.6990 C   0  0  0  0  0  1  0  0  0  0  0  0
  160.6530  214.4530  147.7010 C   0  0  0  0  0  2  0  0  0  0  0  0
  162.4020  210.4710  149.2690 N   0  0  0  0  0  2  0  0  0  0  0  0
  161.9400  211.2330  148.2440 O   0  0  0  0  0  1  0  0  0  0  0  0
  160.9950  206.5060  152.8740 O   0  0  0  0  0  0  0  0  0  0  0  0
  161.4890  205.2030  152.7830 C   0  0  0  0  0  2  0  0  0  0  0  0
  160.6980  204.4300  151.7470 C   0  0  1  0  0  3  0  0  0  0  0  0
  161.5510  203.2840  151.2340 C   0  0  1  0  0  3  0  0  0  0  0  0
  160.4510  203.0260  152.2490 C   0  0  0  0  0  2  0  0  0  0  0  0
  160.6440  201.6540  149.6450 C   0  0  0  0  0  2  0  0  0  0  0  0
  161.1020  202.8890  149.8580 C   0  0  0  0  0  0  0  0  0  0  0  0
  160.8720  203.9380  148.8120 C   0  0  0  0  0  2  0  0  0  0  0  0
  160.8760  205.5800  146.4940 N   0  0  0  0  0  1  0  0  0  0  0  0
  161.8800  203.8450  147.7620 N   0  0  0  0  0  0  0  0  0  0  0  0
  162.9210  204.4440  145.7410 N   0  0  0  0  0  1  0  0  0  0  0  0
  161.8920  204.6040  146.7100 C   0  0  0  0  0  0  0  0  0  0  0  0
  1  8  1  0  0  0  0
  2  1  1  6  0  0  0
  2  4  1  0  0  0  0
  3 27  1  6  0  0  0
  3  2  1  0  0  0  0
  3  6  1  0  0  0  0
  4  7  1  0  0  0  0
  4  5  1  6  0  0  0
  6  5  2  0  0  0  0
  7 29  1  6  0  0  0
  8  7  1  0  0  0  0
  9 14  1  0  0  0  0
 13  9  1  0  0  0  0
 14 10  1  0  0  0  0
 15 13  1  6  0  0  0
 15 11  1  0  0  0  0
 15 16  1  0  0  0  0
 16 10  1  0  0  0  0
 17 12  2  0  0  0  0
 17  9  1  0  0  0  0
 18  5  1  6  0  0  0
 18 15  1  0  0  0  0
 18 11  1  0  0  0  0
 19 17  1  0  0  0  0
 21 20  1  0  0  0  0
 22 20  1  0  0  0  0
 22 19  1  0  0  0  0
 23 22  2  0  0  0  0
 24 23  1  0  0  0  0
 24 21  2  0  0  0  0
 25 26  1  0  0  0  0
 26 24  1  0  0  0  0
 28 27  1  0  0  0  0
 30 29  1  0  0  0  0
 31 33  1  0  0  0  0
 31 30  1  1  0  0  0
 32 35  1  6  0  0  0
 32 31  1  0  0  0  0
 32 33  1  0  0  0  0
 34 35  2  0  0  0  0
 36 35  1  0  0  0  0
 37 40  1  0  0  0  0
 38 36  1  0  0  0  0
 39 40  1  0  0  0  0
 40 38  2  0  0  0  0
M  END
>  <MODEL>
2

>  <REMARK>
 VINA RESULT:      -6.8      2.256      3.459
  Name = 
  11 active torsions:
  status: ('A' for Active; 'I' for Inactive)
    1  A    between atoms: C_3  and  C_24
    2  A    between atoms: C_4  and  C_39
    3  A    between atoms: N_6  and  C_11
    4  A    between atoms: C_13  and  C_18
    5  A    between atoms: C_13  and  C_38
    6  A    between atoms: N_14  and  C_32
    7  A    between atoms: C_15  and  C_40
    8  A    between atoms: O_17  and  C_20
    9  A    between atoms: O_17  and  C_24
   10  A    between atoms: C_21  and  C_36
   11  A    between atoms: C_32  and  C_39
                            x       y       z     vdW  Elec       q    Type
                         _______ _______ _______ _____ _____    ______ ____

>  <TORSDO>
F 11

$$$$
=
 OpenBabel11072410543D

 40 45  0  0  1  0  0  0  0  0999 V2000
  161.5490  206.7890  151.1850 S   0  0  0  0  0  0  0  0  0  0  0  0
  162.1330  208.4280  150.8260 C   0  0  2  0  0  3  0  0  0  0  0  0
  162.1440  209.6300  151.7200 C   0  0  1  0  0  3  0  0  0  0  0  0
  162.0570  208.7910  149.5770 C   0  0  2  0  0  3  0  0  0  0  0  0
  162.0540  210.2410  149.4900 C   0  0  0  0  0  0  0  0  0  0  0  0
  162.0790  210.7510  150.7170 C   0  0  0  0  0  3  0  0  0  0  0  0
  161.4850  207.8050  148.6290 C   0  0  2  0  0  3  0  0  0  0  0  0
  160.7980  206.7570  149.5110 C   0  0  0  0  0  2  0  0  0  0  0  0
  159.5330  213.4190  149.9820 N   0  0  0  0  0  0  0  0  0  0  0  0
  159.9830  214.4340  147.7480 C   0  0  0  0  0  2  0  0  0  0  0  0
  162.7360  212.3230  148.2980 C   0  0  0  0  0  2  0  0  0  0  0  0
  157.6280  213.7870  151.2900 O   0  0  0  0  0  0  0  0  0  0  0  0
  160.8970  212.8830  149.9260 C   0  0  0  0  0  2  0  0  0  0  0  0
  158.9950  214.2620  148.9030 C   0  0  0  0  0  2  0  0  0  0  0  0
  161.2450  212.4260  148.5060 C   0  0  1  0  0  0  0  0  0  0  0  0
  160.5410  213.0820  147.3260 C   0  0  0  0  0  2  0  0  0  0  0  0
  158.7280  213.1870  151.1480 C   0  0  0  0  0  0  0  0  0  0  0  0
  161.8820  211.0620  148.2440 C   0  0  2  0  0  3  0  0  0  0  0  0
  159.1590  212.2150  152.1990 C   0  0  0  0  0  2  0  0  0  0  0  0
  158.5060  213.4450  154.2530 O   0  0  0  0  0  0  0  0  0  0  0  0
  157.6720  213.3370  155.2410 N   0  0  0  0  0  0  0  0  0  0  0  0
  158.3760  212.4150  153.4530 C   0  0  0  0  0  0  0  0  0  0  0  0
  157.4270  211.5630  153.8860 N   0  0  0  0  0  0  0  0  0  0  0  0
  157.0120  212.1870  155.0070 C   0  0  0  0  0  0  0  0  0  0  0  0
  155.3700  210.3820  155.3090 C   0  0  0  0  0  1  0  0  0  0  0  0
  155.9730  211.6330  155.9170 C   0  0  0  0  0  2  0  0  0  0  0  0
  160.9990  209.6580  152.6360 N   0  0  0  0  0  2  0  0  0  0  0  0
  161.4210  209.3970  153.9000 O   0  0  0  0  0  1  0  0  0  0  0  0
  162.5180  207.2000  147.9080 O   0  0  0  0  0  0  0  0  0  0  0  0
  161.8860  206.5820  146.8280 C   0  0  0  0  0  2  0  0  0  0  0  0
  162.0790  205.0810  146.9160 C   0  0  1  0  0  3  0  0  0  0  0  0
  161.4610  204.4350  145.6890 C   0  0  1  0  0  3  0  0  0  0  0  0
  162.9650  204.6230  145.7800 C   0  0  0  0  0  2  0  0  0  0  0  0
  160.3780  202.3170  145.1040 C   0  0  0  0  0  2  0  0  0  0  0  0
  161.0860  203.0150  145.9930 C   0  0  0  0  0  0  0  0  0  0  0  0
  161.7530  202.2850  147.1210 C   0  0  0  0  0  2  0  0  0  0  0  0
  160.8460  203.1700  149.6630 N   0  0  0  0  0  1  0  0  0  0  0  0
  160.7670  201.5650  147.9190 N   0  0  0  0  0  0  0  0  0  0  0  0
  159.3730  201.2070  149.7770 N   0  0  0  0  0  1  0  0  0  0  0  0
  160.3420  201.9750  149.0740 C   0  0  0  0  0  0  0  0  0  0  0  0
  2  1  1  1  0  0  0
  2  3  1  0  0  0  0
  3 27  1  1  0  0  0
  4  5  1  1  0  0  0
  4  2  1  0  0  0  0
  5  6  2  0  0  0  0
  6  3  1  0  0  0  0
  7 29  1  1  0  0  0
  7  8  1  0  0  0  0
  7  4  1  0  0  0  0
  8  1  1  0  0  0  0
  9 17  1  0  0  0  0
 10 14  1  0  0  0  0
 11 15  1  0  0  0  0
 13  9  1  0  0  0  0
 14  9  1  0  0  0  0
 15 16  1  6  0  0  0
 15 13  1  0  0  0  0
 16 10  1  0  0  0  0
 17 12  2  0  0  0  0
 17 19  1  0  0  0  0
 18 11  1  0  0  0  0
 18 15  1  0  0  0  0
 18  5  1  1  0  0  0
 19 22  1  0  0  0  0
 20 21  1  0  0  0  0
 22 23  2  0  0  0  0
 22 20  1  0  0  0  0
 23 24  1  0  0  0  0
 24 21  2  0  0  0  0
 24 26  1  0  0  0  0
 25 26  1  0  0  0  0
 27 28  1  0  0  0  0
 30 29  1  0  0  0  0
 31 30  1  6  0  0  0
 32 33  1  0  0  0  0
 32 35  1  1  0  0  0
 32 31  1  0  0  0  0
 33 31  1  0  0  0  0
 34 35  2  0  0  0  0
 35 36  1  0  0  0  0
 36 38  1  0  0  0  0
 38 40  2  0  0  0  0
 40 37  1  0  0  0  0
 40 39  1  0  0  0  0
M  END
>  <MODEL>
3

>  <REMARK>
 VINA RESULT:      -6.8      2.844      4.972
  Name = 
  11 active torsions:
  status: ('A' for Active; 'I' for Inactive)
    1  A    between atoms: C_3  and  C_24
    2  A    between atoms: C_4  and  C_39
    3  A    between atoms: N_6  and  C_11
    4  A    between atoms: C_13  and  C_18
    5  A    between atoms: C_13  and  C_38
    6  A    between atoms: N_14  and  C_32
    7  A    between atoms: C_15  and  C_40
    8  A    between atoms: O_17  and  C_20
    9  A    between atoms: O_17  and  C_24
   10  A    between atoms: C_21  and  C_36
   11  A    between atoms: C_32  and  C_39
                            x       y       z     vdW  Elec       q    Type
                         _______ _______ _______ _____ _____    ______ ____

>  <TORSDO>
F 11

$$$$
=
 OpenBabel11072410543D

 40 45  0  0  1  0  0  0  0  0999 V2000
  161.9650  207.7860  149.3460 S   0  0  0  0  0  0  0  0  0  0  0  0
  161.3930  208.8550  150.6450 C   0  0  2  0  0  3  0  0  0  0  0  0
  161.4110  210.3520  150.6970 C   0  0  1  0  0  3  0  0  0  0  0  0
  161.4490  208.3580  151.8470 C   0  0  2  0  0  3  0  0  0  0  0  0
  161.4660  209.4370  152.8210 C   0  0  0  0  0  0  0  0  0  0  0  0
  161.4690  210.6010  152.1810 C   0  0  0  0  0  3  0  0  0  0  0  0
  161.9930  206.9850  151.9770 C   0  0  2  0  0  3  0  0  0  0  0  0
  162.6850  206.7030  150.6400 C   0  0  0  0  0  2  0  0  0  0  0  0
  159.3430  212.2120  154.9400 N   0  0  0  0  0  0  0  0  0  0  0  0
  159.7930  211.2060  157.1780 C   0  0  0  0  0  2  0  0  0  0  0  0
  160.4220  208.5880  154.9210 C   0  0  0  0  0  2  0  0  0  0  0  0
  158.7370  214.4370  154.5410 O   0  0  0  0  0  0  0  0  0  0  0  0
  159.4610  210.8570  154.3940 C   0  0  0  0  0  2  0  0  0  0  0  0
  159.4720  212.4720  156.3820 C   0  0  0  0  0  2  0  0  0  0  0  0
  160.5760  210.0790  155.0990 C   0  0  1  0  0  0  0  0  0  0  0  0
  160.9460  210.4540  156.5280 C   0  0  0  0  0  2  0  0  0  0  0  0
  159.0170  213.3030  154.0650 C   0  0  0  0  0  0  0  0  0  0  0  0
  161.6240  209.2970  154.3080 C   0  0  2  0  0  3  0  0  0  0  0  0
  159.0300  213.1280  152.5800 C   0  0  0  0  0  2  0  0  0  0  0  0
  156.7590  214.1240  152.6680 O   0  0  0  0  0  0  0  0  0  0  0  0
  155.7960  214.4520  151.8610 N   0  0  0  0  0  0  0  0  0  0  0  0
  157.7470  213.6010  151.9840 C   0  0  0  0  0  0  0  0  0  0  0  0
  157.4760  213.5620  150.6650 N   0  0  0  0  0  0  0  0  0  0  0  0
  156.2440  214.1100  150.6390 C   0  0  0  0  0  0  0  0  0  0  0  0
  156.3530  214.1800  148.1830 C   0  0  0  0  0  1  0  0  0  0  0  0
  155.4450  214.2690  149.3930 C   0  0  0  0  0  2  0  0  0  0  0  0
  162.5730  210.9220  150.0070 N   0  0  0  0  0  2  0  0  0  0  0  0
  162.1650  211.5570  148.8770 O   0  0  0  0  0  1  0  0  0  0  0  0
  160.9410  206.0830  152.1560 O   0  0  0  0  0  0  0  0  0  0  0  0
  161.5250  204.8210  152.0300 C   0  0  0  0  0  2  0  0  0  0  0  0
  160.7290  203.9860  151.0480 C   0  0  1  0  0  3  0  0  0  0  0  0
  161.5520  202.7720  150.6570 C   0  0  1  0  0  3  0  0  0  0  0  0
  160.4250  202.6400  151.6650 C   0  0  0  0  0  2  0  0  0  0  0  0
  160.8790  200.9720  149.1380 C   0  0  0  0  0  2  0  0  0  0  0  0
  161.1180  202.2730  149.3100 C   0  0  0  0  0  0  0  0  0  0  0  0
  160.6530  203.2400  148.2630 C   0  0  0  0  0  2  0  0  0  0  0  0
  161.2530  203.3840  145.4900 N   0  0  0  0  0  1  0  0  0  0  0  0
  161.7810  203.9900  147.7210 N   0  0  0  0  0  0  0  0  0  0  0  0
  163.1690  204.8300  146.0200 N   0  0  0  0  0  1  0  0  0  0  0  0
  162.0480  204.0690  146.4540 C   0  0  0  0  0  0  0  0  0  0  0  0
  1  8  1  0  0  0  0
  2  1  1  6  0  0  0
  2  3  1  0  0  0  0
  2  4  1  0  0  0  0
  3 27  1  6  0  0  0
  3  6  1  0  0  0  0
  4  7  1  0  0  0  0
  4  5  1  1  0  0  0
  6  5  2  0  0  0  0
  7 29  1  6  0  0  0
  8  7  1  0  0  0  0
  9 14  1  0  0  0  0
 11 15  1  0  0  0  0
 13  9  1  0  0  0  0
 14 10  1  0  0  0  0
 15 13  1  6  0  0  0
 15 16  1  0  0  0  0
 16 10  1  0  0  0  0
 17 12  2  0  0  0  0
 17  9  1  0  0  0  0
 18  5  1  6  0  0  0
 18 11  1  0  0  0  0
 18 15  1  0  0  0  0
 19 17  1  0  0  0  0
 21 20  1  0  0  0  0
 22 19  1  0  0  0  0
 22 20  1  0  0  0  0
 23 22  2  0  0  0  0
 24 23  1  0  0  0  0
 24 21  2  0  0  0  0
 25 26  1  0  0  0  0
 26 24  1  0  0  0  0
 28 27  1  0  0  0  0
 30 29  1  0  0  0  0
 31 33  1  0  0  0  0
 31 30  1  1  0  0  0
 32 35  1  6  0  0  0
 32 31  1  0  0  0  0
 32 33  1  0  0  0  0
 34 35  2  0  0  0  0
 36 35  1  0  0  0  0
 37 40  1  0  0  0  0
 38 36  1  0  0  0  0
 39 40  1  0  0  0  0
 40 38  2  0  0  0  0
M  END
>  <MODEL>
4

>  <REMARK>
 VINA RESULT:      -6.5      1.806      2.427
  Name = 
  11 active torsions:
  status: ('A' for Active; 'I' for Inactive)
    1  A    between atoms: C_3  and  C_24
    2  A    between atoms: C_4  and  C_39
    3  A    between atoms: N_6  and  C_11
    4  A    between atoms: C_13  and  C_18
    5  A    between atoms: C_13  and  C_38
    6  A    between atoms: N_14  and  C_32
    7  A    between atoms: C_15  and  C_40
    8  A    between atoms: O_17  and  C_20
    9  A    between atoms: O_17  and  C_24
   10  A    between atoms: C_21  and  C_36
   11  A    between atoms: C_32  and  C_39
                            x       y       z     vdW  Elec       q    Type
                         _______ _______ _______ _____ _____    ______ ____

>  <TORSDO>
F 11

$$$$
=
 OpenBabel11072410543D

 40 45  0  0  1  0  0  0  0  0999 V2000
  162.1280  207.6080  148.3390 S   0  0  0  0  0  0  0  0  0  0  0  0
  161.5880  208.9530  149.3680 C   0  0  2  0  0  3  0  0  0  0  0  0
  161.6090  210.4200  149.0710 C   0  0  1  0  0  3  0  0  0  0  0  0
  161.6740  208.7470  150.6510 C   0  0  2  0  0  3  0  0  0  0  0  0
  161.7150  210.0230  151.3470 C   0  0  0  0  0  0  0  0  0  0  0  0
  161.7040  211.0070  150.4550 C   0  0  0  0  0  3  0  0  0  0  0  0
  162.2190  207.4380  151.0830 C   0  0  2  0  0  3  0  0  0  0  0  0
  162.8780  206.8490  149.8310 C   0  0  0  0  0  2  0  0  0  0  0  0
  158.8140  212.3430  153.0490 N   0  0  0  0  0  0  0  0  0  0  0  0
  159.5630  211.9830  155.4010 C   0  0  0  0  0  2  0  0  0  0  0  0
  160.9990  209.3110  153.6280 C   0  0  0  0  0  2  0  0  0  0  0  0
  157.5260  214.1410  152.2880 O   0  0  0  0  0  0  0  0  0  0  0  0
  159.3610  211.0150  152.7540 C   0  0  0  0  0  2  0  0  0  0  0  0
  158.8530  212.9040  154.4080 C   0  0  0  0  0  2  0  0  0  0  0  0
  160.6670  210.7800  153.5200 C   0  0  1  0  0  0  0  0  0  0  0  0
  160.8970  211.5210  154.8300 C   0  0  0  0  0  2  0  0  0  0  0  0
  158.1550  213.0850  152.0110 C   0  0  0  0  0  0  0  0  0  0  0  0
  161.9100  210.2300  152.8220 C   0  0  2  0  0  3  0  0  0  0  0  0
  158.2240  212.6390  150.5850 C   0  0  0  0  0  2  0  0  0  0  0  0
  160.3120  213.9740  150.4660 O   0  0  0  0  0  0  0  0  0  0  0  0
  161.1310  214.4420  149.5740 N   0  0  0  0  0  0  0  0  0  0  0  0
  159.3380  213.3280  149.8720 C   0  0  0  0  0  0  0  0  0  0  0  0
  159.4750  213.3380  148.5330 N   0  0  0  0  0  0  0  0  0  0  0  0
  160.6160  214.0450  148.3960 C   0  0  0  0  0  0  0  0  0  0  0  0
  161.2090  213.1770  146.1730 C   0  0  0  0  0  1  0  0  0  0  0  0
  161.2100  214.3940  147.0760 C   0  0  0  0  0  2  0  0  0  0  0  0
  162.7540  210.8080  148.2400 N   0  0  0  0  0  2  0  0  0  0  0  0
  163.2360  212.0070  148.6600 O   0  0  0  0  0  1  0  0  0  0  0  0
  161.1710  206.6100  151.4910 O   0  0  0  0  0  0  0  0  0  0  0  0
  161.7360  205.3360  151.5820 C   0  0  0  0  0  2  0  0  0  0  0  0
  161.5830  204.6140  150.2590 C   0  0  1  0  0  3  0  0  0  0  0  0
  160.6240  203.4520  150.4430 C   0  0  1  0  0  3  0  0  0  0  0  0
  160.1530  204.7360  149.7840 C   0  0  0  0  0  2  0  0  0  0  0  0
  160.5160  201.1390  149.6420 C   0  0  0  0  0  2  0  0  0  0  0  0
  160.8960  202.3970  149.4110 C   0  0  0  0  0  0  0  0  0  0  0  0
  161.2950  202.7900  148.0200 C   0  0  0  0  0  2  0  0  0  0  0  0
  161.1960  203.3360  145.2340 N   0  0  0  0  0  1  0  0  0  0  0  0
  160.7040  201.8820  147.0420 N   0  0  0  0  0  0  0  0  0  0  0  0
  160.0780  201.1750  144.8900 N   0  0  0  0  0  1  0  0  0  0  0  0
  160.6710  202.1240  145.7680 C   0  0  0  0  0  0  0  0  0  0  0  0
  1  8  1  0  0  0  0
  2  1  1  6  0  0  0
  2  4  1  0  0  0  0
  3 27  1  6  0  0  0
  3  2  1  0  0  0  0
  3  6  1  0  0  0  0
  4  7  1  0  0  0  0
  4  5  1  6  0  0  0
  6  5  2  0  0  0  0
  7 29  1  6  0  0  0
  8  7  1  0  0  0  0
  9 14  1  0  0  0  0
 13  9  1  0  0  0  0
 14 10  1  0  0  0  0
 15 13  1  6  0  0  0
 15 11  1  0  0  0  0
 15 16  1  0  0  0  0
 16 10  1  0  0  0  0
 17 12  2  0  0  0  0
 17  9  1  0  0  0  0
 18  5  1  6  0  0  0
 18 15  1  0  0  0  0
 18 11  1  0  0  0  0
 19 17  1  0  0  0  0
 21 20  1  0  0  0  0
 22 20  1  0  0  0  0
 22 19  1  0  0  0  0
 23 22  2  0  0  0  0
 24 23  1  0  0  0  0
 24 21  2  0  0  0  0
 25 26  1  0  0  0  0
 26 24  1  0  0  0  0
 27 28  1  0  0  0  0
 29 30  1  0  0  0  0
 31 32  1  0  0  0  0
 31 30  1  1  0  0  0
 32 35  1  6  0  0  0
 33 31  1  0  0  0  0
 33 32  1  0  0  0  0
 35 34  2  0  0  0  0
 36 35  1  0  0  0  0
 37 40  1  0  0  0  0
 38 36  1  0  0  0  0
 39 40  1  0  0  0  0
 40 38  2  0  0  0  0
M  END
>  <MODEL>
5

>  <REMARK>
 VINA RESULT:      -6.2      2.442      3.869
  Name = 
  11 active torsions:
  status: ('A' for Active; 'I' for Inactive)
    1  A    between atoms: C_3  and  C_24
    2  A    between atoms: C_4  and  C_39
    3  A    between atoms: N_6  and  C_11
    4  A    between atoms: C_13  and  C_18
    5  A    between atoms: C_13  and  C_38
    6  A    between atoms: N_14  and  C_32
    7  A    between atoms: C_15  and  C_40
    8  A    between atoms: O_17  and  C_20
    9  A    between atoms: O_17  and  C_24
   10  A    between atoms: C_21  and  C_36
   11  A    between atoms: C_32  and  C_39
                            x       y       z     vdW  Elec       q    Type
                         _______ _______ _______ _____ _____    ______ ____

>  <TORSDO>
F 11

$$$$
=
 OpenBabel11072410543D

 40 45  0  0  1  0  0  0  0  0999 V2000
  161.3660  206.8850  151.2730 S   0  0  0  0  0  0  0  0  0  0  0  0
  162.0250  208.4940  150.9050 C   0  0  2  0  0  3  0  0  0  0  0  0
  162.0850  209.7010  151.7890 C   0  0  1  0  0  3  0  0  0  0  0  0
  161.9730  208.8490  149.6530 C   0  0  2  0  0  3  0  0  0  0  0  0
  162.0370  210.2970  149.5540 C   0  0  0  0  0  0  0  0  0  0  0  0
  162.0770  210.8160  150.7770 C   0  0  0  0  0  3  0  0  0  0  0  0
  161.3630  207.8820  148.7100 C   0  0  2  0  0  3  0  0  0  0  0  0
  160.6240  206.8730  149.5960 C   0  0  0  0  0  2  0  0  0  0  0  0
  159.4060  213.4040  149.9090 N   0  0  0  0  0  0  0  0  0  0  0  0
  159.9470  214.4340  147.7020 C   0  0  0  0  0  2  0  0  0  0  0  0
  162.7240  212.3980  148.3990 C   0  0  0  0  0  2  0  0  0  0  0  0
  157.4250  213.7180  151.1130 O   0  0  0  0  0  0  0  0  0  0  0  0
  160.7850  212.9060  149.9260 C   0  0  0  0  0  2  0  0  0  0  0  0
  158.9040  214.2330  148.8030 C   0  0  0  0  0  2  0  0  0  0  0  0
  161.2210  212.4600  148.5270 C   0  0  1  0  0  0  0  0  0  0  0  0
  160.5640  213.0980  147.3110 C   0  0  0  0  0  2  0  0  0  0  0  0
  158.5470  213.1490  151.0310 C   0  0  0  0  0  0  0  0  0  0  0  0
  161.9090  211.1140  148.3000 C   0  0  2  0  0  3  0  0  0  0  0  0
  158.9470  212.1870  152.1040 C   0  0  0  0  0  2  0  0  0  0  0  0
  158.7010  213.6980  154.0570 O   0  0  0  0  0  0  0  0  0  0  0  0
  158.0170  213.7800  155.1570 N   0  0  0  0  0  0  0  0  0  0  0  0
  158.3770  212.6000  153.4190 C   0  0  0  0  0  0  0  0  0  0  0  0
  157.4420  211.8940  154.0830 N   0  0  0  0  0  0  0  0  0  0  0  0
  157.2470  212.6770  155.1630 C   0  0  0  0  0  0  0  0  0  0  0  0
  155.5560  211.0620  155.9250 C   0  0  0  0  0  1  0  0  0  0  0  0
  156.3160  212.3270  156.2710 C   0  0  0  0  0  2  0  0  0  0  0  0
  160.9380  209.7890  152.6980 N   0  0  0  0  0  2  0  0  0  0  0  0
  161.2480  209.1970  153.8810 O   0  0  0  0  0  1  0  0  0  0  0  0
  162.3720  207.2250  148.0000 O   0  0  0  0  0  0  0  0  0  0  0  0
  161.7010  206.2990  147.1980 C   0  0  0  0  0  2  0  0  0  0  0  0
  162.1040  204.8940  147.5970 C   0  0  1  0  0  3  0  0  0  0  0  0
  160.8490  204.0690  147.8180 C   0  0  1  0  0  3  0  0  0  0  0  0
  161.6460  203.9210  146.5350 C   0  0  0  0  0  2  0  0  0  0  0  0
  161.2000  203.1670  150.0680 C   0  0  0  0  0  2  0  0  0  0  0  0
  161.1410  202.9350  148.7560 C   0  0  0  0  0  0  0  0  0  0  0  0
  161.0560  201.5180  148.2740 C   0  0  0  0  0  2  0  0  0  0  0  0
  161.5010  199.3730  146.4660 N   0  0  0  0  0  1  0  0  0  0  0  0
  160.4910  201.4680  146.9300 N   0  0  0  0  0  0  0  0  0  0  0  0
  160.0840  200.5190  144.8180 N   0  0  0  0  0  1  0  0  0  0  0  0
  160.6820  200.4820  146.1080 C   0  0  0  0  0  0  0  0  0  0  0  0
  2  1  1  1  0  0  0
  2  3  1  0  0  0  0
  3 27  1  1  0  0  0
  4  5  1  1  0  0  0
  4  2  1  0  0  0  0
  5  6  2  0  0  0  0
  6  3  1  0  0  0  0
  7 29  1  1  0  0  0
  7  8  1  0  0  0  0
  7  4  1  0  0  0  0
  8  1  1  0  0  0  0
  9 13  1  0  0  0  0
  9 17  1  0  0  0  0
 10 14  1  0  0  0  0
 11 15  1  0  0  0  0
 14  9  1  0  0  0  0
 15 16  1  6  0  0  0
 15 13  1  0  0  0  0
 16 10  1  0  0  0  0
 17 12  2  0  0  0  0
 17 19  1  0  0  0  0
 18 11  1  0  0  0  0
 18 15  1  0  0  0  0
 18  5  1  1  0  0  0
 19 22  1  0  0  0  0
 20 21  1  0  0  0  0
 21 24  2  0  0  0  0
 22 20  1  0  0  0  0
 22 23  2  0  0  0  0
 23 24  1  0  0  0  0
 24 26  1  0  0  0  0
 25 26  1  0  0  0  0
 27 28  1  0  0  0  0
 30 29  1  0  0  0  0
 31 30  1  6  0  0  0
 31 32  1  0  0  0  0
 32 35  1  1  0  0  0
 33 31  1  0  0  0  0
 33 32  1  0  0  0  0
 35 34  2  0  0  0  0
 36 35  1  0  0  0  0
 38 36  1  0  0  0  0
 39 40  1  0  0  0  0
 40 37  1  0  0  0  0
 40 38  2  0  0  0  0
M  END
>  <MODEL>
6

>  <REMARK>
 VINA RESULT:      -6.1      2.762      4.850
  Name = 
  11 active torsions:
  status: ('A' for Active; 'I' for Inactive)
    1  A    between atoms: C_3  and  C_24
    2  A    between atoms: C_4  and  C_39
    3  A    between atoms: N_6  and  C_11
    4  A    between atoms: C_13  and  C_18
    5  A    between atoms: C_13  and  C_38
    6  A    between atoms: N_14  and  C_32
    7  A    between atoms: C_15  and  C_40
    8  A    between atoms: O_17  and  C_20
    9  A    between atoms: O_17  and  C_24
   10  A    between atoms: C_21  and  C_36
   11  A    between atoms: C_32  and  C_39
                            x       y       z     vdW  Elec       q    Type
                         _______ _______ _______ _____ _____    ______ ____

>  <TORSDO>
F 11

$$$$
=
 OpenBabel11072410543D

 40 45  0  0  1  0  0  0  0  0999 V2000
  160.6210  206.9940  156.6660 S   0  0  0  0  0  0  0  0  0  0  0  0
  160.4940  207.5310  154.9770 C   0  0  2  0  0  3  0  0  0  0  0  0
  160.6370  206.7180  153.7270 C   0  0  1  0  0  3  0  0  0  0  0  0
  160.8300  208.7700  154.7550 C   0  0  2  0  0  3  0  0  0  0  0  0
  161.1840  208.9350  153.3550 C   0  0  0  0  0  0  0  0  0  0  0  0
  161.1050  207.7580  152.7430 C   0  0  0  0  0  3  0  0  0  0  0  0
  161.2840  209.5590  155.9250 C   0  0  2  0  0  3  0  0  0  0  0  0
  161.5740  208.5220  157.0150 C   0  0  0  0  0  2  0  0  0  0  0  0
  161.6260  208.5970  149.3060 N   0  0  0  0  0  0  0  0  0  0  0  0
  162.1870  210.9970  148.9220 C   0  0  0  0  0  2  0  0  0  0  0  0
  160.5990  210.9820  152.0560 C   0  0  0  0  0  2  0  0  0  0  0  0
  162.1650  206.8240  147.8790 O   0  0  0  0  0  0  0  0  0  0  0  0
  160.8400  209.0470  150.4600 C   0  0  0  0  0  2  0  0  0  0  0  0
  162.3290  209.5540  148.4380 C   0  0  0  0  0  2  0  0  0  0  0  0
  161.5500  210.1910  151.1910 C   0  0  1  0  0  0  0  0  0  0  0  0
  162.5010  211.0870  150.4090 C   0  0  0  0  0  2  0  0  0  0  0  0
  161.6470  207.2030  148.9640 C   0  0  0  0  0  0  0  0  0  0  0  0
  161.7190  210.1810  152.7090 C   0  0  2  0  0  3  0  0  0  0  0  0
  161.0850  206.1740  149.8930 C   0  0  0  0  0  2  0  0  0  0  0  0
  161.3600  204.6170  147.9800 O   0  0  0  0  0  0  0  0  0  0  0  0
  161.2510  203.3500  147.7200 N   0  0  0  0  0  0  0  0  0  0  0  0
  161.0500  204.8360  149.2350 C   0  0  0  0  0  0  0  0  0  0  0  0
  160.7180  203.6980  149.8740 N   0  0  0  0  0  0  0  0  0  0  0  0
  160.8630  202.7950  148.8830 C   0  0  0  0  0  0  0  0  0  0  0  0
  161.5780  200.5250  148.2650 C   0  0  0  0  0  1  0  0  0  0  0  0
  160.5700  201.3440  149.0470 C   0  0  0  0  0  2  0  0  0  0  0  0
  161.6140  205.6340  153.8720 N   0  0  0  0  0  2  0  0  0  0  0  0
  161.2190  204.5630  153.1350 O   0  0  0  0  0  1  0  0  0  0  0  0
  160.2520  210.4010  156.3460 O   0  0  0  0  0  0  0  0  0  0  0  0
  160.4850  211.6100  155.6880 C   0  0  0  0  0  2  0  0  0  0  0  0
  159.1710  212.3320  155.4690 C   0  0  1  0  0  3  0  0  0  0  0  0
  158.4980  211.7630  154.2330 C   0  0  1  0  0  3  0  0  0  0  0  0
  158.0290  211.3520  155.6170 C   0  0  0  0  0  2  0  0  0  0  0  0
  156.3560  212.9490  154.1690 C   0  0  0  0  0  2  0  0  0  0  0  0
  157.5690  212.7820  153.6410 C   0  0  0  0  0  0  0  0  0  0  0  0
  158.0930  213.8120  152.6870 C   0  0  0  0  0  2  0  0  0  0  0  0
  159.5610  213.8440  150.2540 N   0  0  0  0  0  1  0  0  0  0  0  0
  157.4780  213.6540  151.3730 N   0  0  0  0  0  0  0  0  0  0  0  0
  157.4610  213.4860  149.0290 N   0  0  0  0  0  1  0  0  0  0  0  0
  158.1480  213.6540  150.2630 C   0  0  0  0  0  0  0  0  0  0  0  0
  1  8  1  0  0  0  0
  2  1  1  1  0  0  0
  3 27  1  1  0  0  0
  3  2  1  0  0  0  0
  4  5  1  6  0  0  0
  4  2  1  0  0  0  0
  4  7  1  0  0  0  0
  6  5  2  0  0  0  0
  6  3  1  0  0  0  0
  7 29  1  1  0  0  0
  7  8  1  0  0  0  0
  9 13  1  0  0  0  0
 10 16  1  0  0  0  0
 11 18  1  0  0  0  0
 12 17  2  0  0  0  0
 13 15  1  0  0  0  0
 14 10  1  0  0  0  0
 14  9  1  0  0  0  0
 15 16  1  6  0  0  0
 15 11  1  0  0  0  0
 15 18  1  0  0  0  0
 17  9  1  0  0  0  0
 17 19  1  0  0  0  0
 18  5  1  1  0  0  0
 20 22  1  0  0  0  0
 21 20  1  0  0  0  0
 21 24  2  0  0  0  0
 22 23  2  0  0  0  0
 22 19  1  0  0  0  0
 24 26  1  0  0  0  0
 24 23  1  0  0  0  0
 25 26  1  0  0  0  0
 28 27  1  0  0  0  0
 30 29  1  0  0  0  0
 31 33  1  0  0  0  0
 31 30  1  6  0  0  0
 32 35  1  1  0  0  0
 32 31  1  0  0  0  0
 32 33  1  0  0  0  0
 35 34  2  0  0  0  0
 36 35  1  0  0  0  0
 37 40  1  0  0  0  0
 38 36  1  0  0  0  0
 39 40  1  0  0  0  0
 40 38  2  0  0  0  0
M  END
>  <MODEL>
7

>  <REMARK>
 VINA RESULT:      -5.8      2.461      9.327
  Name = 
  11 active torsions:
  status: ('A' for Active; 'I' for Inactive)
    1  A    between atoms: C_3  and  C_24
    2  A    between atoms: C_4  and  C_39
    3  A    between atoms: N_6  and  C_11
    4  A    between atoms: C_13  and  C_18
    5  A    between atoms: C_13  and  C_38
    6  A    between atoms: N_14  and  C_32
    7  A    between atoms: C_15  and  C_40
    8  A    between atoms: O_17  and  C_20
    9  A    between atoms: O_17  and  C_24
   10  A    between atoms: C_21  and  C_36
   11  A    between atoms: C_32  and  C_39
                            x       y       z     vdW  Elec       q    Type
                         _______ _______ _______ _____ _____    ______ ____

>  <TORSDO>
F 11

$$$$
=
 OpenBabel11072410543D

 40 45  0  0  1  0  0  0  0  0999 V2000
  161.9230  208.3120  148.0810 S   0  0  0  0  0  0  0  0  0  0  0  0
  161.4290  208.6290  149.7580 C   0  0  2  0  0  3  0  0  0  0  0  0
  161.5120  209.9110  150.5280 C   0  0  1  0  0  3  0  0  0  0  0  0
  161.4950  207.6090  150.5650 C   0  0  2  0  0  3  0  0  0  0  0  0
  161.5820  208.0780  151.9380 C   0  0  0  0  0  0  0  0  0  0  0  0
  161.6190  209.4060  151.9430 C   0  0  0  0  0  3  0  0  0  0  0  0
  161.9830  206.3330  149.9890 C   0  0  2  0  0  3  0  0  0  0  0  0
  162.6280  206.7190  148.6550 C   0  0  0  0  0  2  0  0  0  0  0  0
  160.3690  209.9140  155.3810 N   0  0  0  0  0  0  0  0  0  0  0  0
  160.6500  207.9080  156.8380 C   0  0  0  0  0  2  0  0  0  0  0  0
  160.4570  206.5850  153.5890 C   0  0  0  0  0  2  0  0  0  0  0  0
  160.3470  212.1370  156.1090 O   0  0  0  0  0  0  0  0  0  0  0  0
  160.1000  208.9810  154.2820 C   0  0  0  0  0  2  0  0  0  0  0  0
  160.6320  209.4350  156.7460 C   0  0  0  0  0  2  0  0  0  0  0  0
  161.0060  207.7490  154.3780 C   0  0  1  0  0  0  0  0  0  0  0  0
  161.5320  207.3260  155.7420 C   0  0  0  0  0  2  0  0  0  0  0  0
  160.2970  211.3280  155.1440 C   0  0  0  0  0  0  0  0  0  0  0  0
  161.7710  207.2290  153.1620 C   0  0  2  0  0  3  0  0  0  0  0  0
  160.1900  211.8700  153.7540 C   0  0  0  0  0  2  0  0  0  0  0  0
  158.9460  213.8830  153.0060 O   0  0  0  0  0  0  0  0  0  0  0  0
  157.7400  214.3620  153.0360 N   0  0  0  0  0  0  0  0  0  0  0  0
  158.9730  212.7220  153.6140 C   0  0  0  0  0  0  0  0  0  0  0  0
  157.7590  212.3740  154.0810 N   0  0  0  0  0  0  0  0  0  0  0  0
  157.0200  213.4320  153.6900 C   0  0  0  0  0  0  0  0  0  0  0  0
  154.8320  214.0780  152.7730 C   0  0  0  0  0  1  0  0  0  0  0  0
  155.5710  213.5780  153.9980 C   0  0  0  0  0  2  0  0  0  0  0  0
  162.6790  210.7160  150.1530 N   0  0  0  0  0  2  0  0  0  0  0  0
  162.3290  211.6000  149.1830 O   0  0  0  0  0  1  0  0  0  0  0  0
  160.8980  205.4850  149.7530 O   0  0  0  0  0  0  0  0  0  0  0  0
  161.0050  205.1340  148.4060 C   0  0  0  0  0  2  0  0  0  0  0  0
  161.5820  203.7380  148.2870 C   0  0  1  0  0  3  0  0  0  0  0  0
  160.4540  202.7650  147.9940 C   0  0  1  0  0  3  0  0  0  0  0  0
  161.3750  203.2280  146.8790 C   0  0  0  0  0  2  0  0  0  0  0  0
  161.6040  200.6240  147.6800 C   0  0  0  0  0  2  0  0  0  0  0  0
  160.8330  201.3880  148.4560 C   0  0  0  0  0  0  0  0  0  0  0  0
  160.6230  200.9900  149.8860 C   0  0  0  0  0  2  0  0  0  0  0  0
  162.3840  201.8770  151.9310 N   0  0  0  0  0  1  0  0  0  0  0  0
  160.3700  202.1650  150.7130 N   0  0  0  0  0  0  0  0  0  0  0  0
  160.8490  203.7400  152.3900 N   0  0  0  0  0  1  0  0  0  0  0  0
  161.1800  202.5790  151.6380 C   0  0  0  0  0  0  0  0  0  0  0  0
  1  8  1  0  0  0  0
  2  1  1  6  0  0  0
  2  3  1  0  0  0  0
  2  4  1  0  0  0  0
  3 27  1  6  0  0  0
  3  6  1  0  0  0  0
  4  5  1  1  0  0  0
  5  6  2  0  0  0  0
  7 29  1  6  0  0  0
  7  4  1  0  0  0  0
  8  7  1  0  0  0  0
  9 14  1  0  0  0  0
 13 15  1  0  0  0  0
 13  9  1  0  0  0  0
 14 10  1  0  0  0  0
 15 11  1  6  0  0  0
 15 16  1  0  0  0  0
 16 10  1  0  0  0  0
 17  9  1  0  0  0  0
 17 12  2  0  0  0  0
 18  5  1  6  0  0  0
 18 11  1  0  0  0  0
 18 15  1  0  0  0  0
 19 17  1  0  0  0  0
 20 21  1  0  0  0  0
 20 22  1  0  0  0  0
 21 24  2  0  0  0  0
 22 19  1  0  0  0  0
 22 23  2  0  0  0  0
 24 26  1  0  0  0  0
 24 23  1  0  0  0  0
 25 26  1  0  0  0  0
 28 27  1  0  0  0  0
 30 29  1  0  0  0  0
 31 30  1  6  0  0  0
 32 31  1  0  0  0  0
 32 35  1  1  0  0  0
 33 32  1  0  0  0  0
 33 31  1  0  0  0  0
 34 35  2  0  0  0  0
 35 36  1  0  0  0  0
 36 38  1  0  0  0  0
 38 40  2  0  0  0  0
 40 37  1  0  0  0  0
 40 39  1  0  0  0  0
M  END
>  <MODEL>
8

>  <REMARK>
 VINA RESULT:      -5.3      1.812      2.470
  Name = 
  11 active torsions:
  status: ('A' for Active; 'I' for Inactive)
    1  A    between atoms: C_3  and  C_24
    2  A    between atoms: C_4  and  C_39
    3  A    between atoms: N_6  and  C_11
    4  A    between atoms: C_13  and  C_18
    5  A    between atoms: C_13  and  C_38
    6  A    between atoms: N_14  and  C_32
    7  A    between atoms: C_15  and  C_40
    8  A    between atoms: O_17  and  C_20
    9  A    between atoms: O_17  and  C_24
   10  A    between atoms: C_21  and  C_36
   11  A    between atoms: C_32  and  C_39
                            x       y       z     vdW  Elec       q    Type
                         _______ _______ _______ _____ _____    ______ ____

>  <TORSDO>
F 11

$$$$
=
 OpenBabel11072410543D

 40 45  0  0  1  0  0  0  0  0999 V2000
  161.3560  207.2270  152.5360 S   0  0  0  0  0  0  0  0  0  0  0  0
  162.1290  208.5830  151.6850 C   0  0  2  0  0  3  0  0  0  0  0  0
  162.4370  209.9540  152.2020 C   0  0  1  0  0  3  0  0  0  0  0  0
  161.9490  208.6120  150.3950 C   0  0  2  0  0  3  0  0  0  0  0  0
  162.1550  209.9650  149.9060 C   0  0  0  0  0  0  0  0  0  0  0  0
  162.4130  210.7660  150.9340 C   0  0  0  0  0  3  0  0  0  0  0  0
  161.1180  207.5320  149.8120 C   0  0  2  0  0  3  0  0  0  0  0  0
  160.4000  206.8940  151.0060 C   0  0  0  0  0  2  0  0  0  0  0  0
  159.7100  213.2300  149.6540 N   0  0  0  0  0  0  0  0  0  0  0  0
  160.0920  213.6330  147.2220 C   0  0  0  0  0  2  0  0  0  0  0  0
  162.8270  211.6580  148.2020 C   0  0  0  0  0  2  0  0  0  0  0  0
  157.8630  213.9680  150.8870 O   0  0  0  0  0  0  0  0  0  0  0  0
  161.0610  212.6610  149.6920 C   0  0  0  0  0  2  0  0  0  0  0  0
  159.1460  213.7850  148.4150 C   0  0  0  0  0  2  0  0  0  0  0  0
  161.3470  211.8490  148.4250 C   0  0  1  0  0  0  0  0  0  0  0  0
  160.6100  212.2040  147.1410 C   0  0  0  0  0  2  0  0  0  0  0  0
  158.9460  213.3230  150.8670 C   0  0  0  0  0  0  0  0  0  0  0  0
  161.9500  210.4470  148.4980 C   0  0  2  0  0  3  0  0  0  0  0  0
  159.3990  212.6370  152.1160 C   0  0  0  0  0  2  0  0  0  0  0  0
  158.6840  214.1580  153.9420 O   0  0  0  0  0  0  0  0  0  0  0  0
  157.7830  214.2210  154.8730 N   0  0  0  0  0  0  0  0  0  0  0  0
  158.5490  213.0380  153.2740 C   0  0  0  0  0  0  0  0  0  0  0  0
  157.5270  212.2970  153.7430 N   0  0  0  0  0  0  0  0  0  0  0  0
  157.0760  213.0830  154.7420 C   0  0  0  0  0  0  0  0  0  0  0  0
  155.2210  213.9480  156.1050 C   0  0  0  0  0  1  0  0  0  0  0  0
  155.9500  212.7040  155.6390 C   0  0  0  0  0  2  0  0  0  0  0  0
  161.4370  210.4270  153.1650 N   0  0  0  0  0  2  0  0  0  0  0  0
  161.9540  210.3790  154.4200 O   0  0  0  0  0  1  0  0  0  0  0  0
  161.9470  206.5840  149.2070 O   0  0  0  0  0  0  0  0  0  0  0  0
  161.8870  205.4690  150.0460 C   0  0  0  0  0  2  0  0  0  0  0  0
  160.8860  204.4720  149.4990 C   0  0  1  0  0  3  0  0  0  0  0  0
  161.5790  203.1350  149.3080 C   0  0  1  0  0  3  0  0  0  0  0  0
  160.6770  203.3660  150.5070 C   0  0  0  0  0  2  0  0  0  0  0  0
  159.7550  201.6720  148.5770 C   0  0  0  0  0  2  0  0  0  0  0  0
  160.8670  202.3350  148.2570 C   0  0  0  0  0  0  0  0  0  0  0  0
  161.2060  202.5250  146.8090 C   0  0  0  0  0  2  0  0  0  0  0  0
  160.6540  204.2610  144.6290 N   0  0  0  0  0  1  0  0  0  0  0  0
  161.8830  203.8010  146.6040 N   0  0  0  0  0  0  0  0  0  0  0  0
  162.3320  205.8280  145.5030 N   0  0  0  0  0  1  0  0  0  0  0  0
  161.6220  204.6010  145.6170 C   0  0  0  0  0  0  0  0  0  0  0  0
  2  3  1  0  0  0  0
  2  1  1  1  0  0  0
  3 27  1  1  0  0  0
  4  5  1  1  0  0  0
  4  2  1  0  0  0  0
  5  6  2  0  0  0  0
  6  3  1  0  0  0  0
  7 29  1  1  0  0  0
  7  4  1  0  0  0  0
  7  8  1  0  0  0  0
  8  1  1  0  0  0  0
  9 13  1  0  0  0  0
  9 17  1  0  0  0  0
 10 14  1  0  0  0  0
 11 15  1  0  0  0  0
 11 18  1  0  0  0  0
 14  9  1  0  0  0  0
 15 16  1  6  0  0  0
 15 18  1  0  0  0  0
 15 13  1  0  0  0  0
 16 10  1  0  0  0  0
 17 12  2  0  0  0  0
 17 19  1  0  0  0  0
 18  5  1  1  0  0  0
 19 22  1  0  0  0  0
 20 21  1  0  0  0  0
 22 23  2  0  0  0  0
 22 20  1  0  0  0  0
 23 24  1  0  0  0  0
 24 21  2  0  0  0  0
 24 26  1  0  0  0  0
 26 25  1  0  0  0  0
 27 28  1  0  0  0  0
 29 30  1  0  0  0  0
 31 30  1  1  0  0  0
 31 33  1  0  0  0  0
 32 35  1  6  0  0  0
 32 31  1  0  0  0  0
 32 33  1  0  0  0  0
 35 34  2  0  0  0  0
 36 35  1  0  0  0  0
 37 40  1  0  0  0  0
 38 36  1  0  0  0  0
 39 40  1  0  0  0  0
 40 38  2  0  0  0  0
M  END
>  <MODEL>
9

>  <REMARK>
 VINA RESULT:      -5.2      2.412      4.374
  Name = 
  11 active torsions:
  status: ('A' for Active; 'I' for Inactive)
    1  A    between atoms: C_3  and  C_24
    2  A    between atoms: C_4  and  C_39
    3  A    between atoms: N_6  and  C_11
    4  A    between atoms: C_13  and  C_18
    5  A    between atoms: C_13  and  C_38
    6  A    between atoms: N_14  and  C_32
    7  A    between atoms: C_15  and  C_40
    8  A    between atoms: O_17  and  C_20
    9  A    between atoms: O_17  and  C_24
   10  A    between atoms: C_21  and  C_36
   11  A    between atoms: C_32  and  C_39
                            x       y       z     vdW  Elec       q    Type
                         _______ _______ _______ _____ _____    ______ ____

>  <TORSDO>
F 11

$$$$
