=
 OpenBabel11072413233D

 44 46  0  0  1  0  0  0  0  0999 V2000
  162.3180  208.3030  151.4260 C   0  0  0  0  0  2  0  0  0  0  0  0
  160.9680  207.1970  152.9730 C   0  0  0  0  0  1  0  0  0  0  0  0
  161.6080  208.4740  152.6850 N   0  0  0  0  0  0  0  0  0  0  0  0
  160.5280  209.4170  152.4240 C   0  0  0  0  0  2  0  0  0  0  0  0
  159.7550  209.6920  154.9490 O   0  0  0  0  0  0  0  0  0  0  0  0
  161.5950  211.1200  154.1830 O   0  0  0  0  0  0  0  0  0  0  0  0
  160.2700  210.5220  153.8020 S   0  0  0  0  0  0  0  0  0  0  0  0
  159.0950  211.8360  153.4280 C   0  0  1  0  0  3  0  0  0  0  0  0
  156.1530  211.5710  154.1430 F   0  0  0  0  0  0  0  0  0  0  0  0
  156.5160  212.1930  156.3860 C   0  0  0  0  0  0  0  0  0  0  0  0
  158.9230  213.2620  155.3850 C   0  0  0  0  0  3  0  0  0  0  0  0
  157.2120  213.2370  157.0860 N   0  0  0  0  0  0  0  0  0  0  0  0
  158.3770  212.2640  154.6790 C   0  0  0  0  0  0  0  0  0  0  0  0
  158.3190  213.7410  156.6380 C   0  0  0  0  0  3  0  0  0  0  0  0
  157.1080  211.5740  155.1460 C   0  0  2  0  0  3  0  0  0  0  0  0
  155.4440  211.7320  156.8560 O   0  0  0  0  0  0  0  0  0  0  0  0
  159.1000  213.6780  151.5710 C   0  0  1  0  0  3  0  0  0  0  0  0
  159.7940  213.0030  152.7190 C   0  0  2  0  0  3  0  0  0  0  0  0
  160.0150  212.6290  151.3800 O   0  0  0  0  0  0  0  0  0  0  0  0
  157.4550  213.3290  149.9180 C   0  0  0  0  0  1  0  0  0  0  0  0
  157.7310  213.2150  151.3460 N   0  0  0  0  0  0  0  0  0  0  0  0
  156.9240  214.1290  151.9380 O   0  0  0  0  0  1  0  0  0  0  0  0
  161.3860  208.5880  150.2630 C   0  0  0  0  0  2  0  0  0  0  0  0
  162.5210  206.8740  148.6090 C   0  0  0  0  0  2  0  0  0  0  0  0
  162.0140  205.6400  147.9980 N   0  0  0  0  0  0  0  0  0  0  0  0
  160.6320  205.7070  148.2250 N   0  0  0  0  0  2  0  0  0  0  0  0
  161.3450  207.4180  149.3430 C   0  0  0  0  0  0  0  0  0  0  0  0
  160.2850  206.7460  149.0850 N   0  0  0  0  0  0  0  0  0  0  0  0
  162.2200  205.7190  146.6140 N   0  0  0  0  0  2  0  0  0  0  0  0
  161.3410  205.0820  144.5560 O   0  0  0  0  0  0  0  0  0  0  0  0
  161.6160  204.7620  145.7410 C   0  0  0  0  0  0  0  0  0  0  0  0
  161.2920  203.4800  146.2020 O   0  0  0  0  0  0  0  0  0  0  0  0
  160.8730  202.4590  145.3050 C   0  0  2  0  0  3  0  0  0  0  0  0
  159.8700  202.9590  144.4670 O   0  0  0  0  0  1  0  0  0  0  0  0
  160.7960  200.0570  145.4430 O   0  0  0  0  0  1  0  0  0  0  0  0
  160.3700  201.2340  146.0680 C   0  0  1  0  0  3  0  0  0  0  0  0
  161.9540  200.9340  147.8230 O   0  0  0  0  0  0  0  0  0  0  0  0
  160.8210  201.2820  147.5100 C   0  0  0  0  0  0  0  0  0  0  0  0
  159.9090  201.8290  148.5640 C   0  0  0  0  0  2  0  0  0  0  0  0
  160.5650  203.4020  150.3260 C   0  0  0  0  0  3  0  0  0  0  0  0
  160.7160  202.2050  149.7620 C   0  0  0  0  0  3  0  0  0  0  0  0
  161.2910  203.7560  151.5510 C   0  0  0  0  0  0  0  0  0  0  0  0
  160.9330  203.1580  152.7520 O   0  0  0  0  0  1  0  0  0  0  0  0
  162.2670  204.5600  151.5210 O   0  0  0  0  0  0  0  0  0  0  0  0
  1  3  1  0  0  0  0
  3  2  1  0  0  0  0
  4  3  1  0  0  0  0
  4  7  1  0  0  0  0
  7  6  2  0  0  0  0
  7  5  2  0  0  0  0
  8  7  1  1  0  0  0
  8 13  1  0  0  0  0
 10 16  2  0  0  0  0
 10 12  1  0  0  0  0
 11 14  1  0  0  0  0
 13 15  1  0  0  0  0
 13 11  2  0  0  0  0
 14 12  2  0  0  0  0
 15  9  1  6  0  0  0
 15 10  1  0  0  0  0
 17 21  1  1  0  0  0
 17 18  1  0  0  0  0
 18  8  1  1  0  0  0
 19 17  1  0  0  0  0
 19 18  1  0  0  0  0
 20 21  1  0  0  0  0
 21 22  1  0  0  0  0
 23  1  1  0  0  0  0
 24 27  1  0  0  0  0
 25 26  1  0  0  0  0
 25 24  1  0  0  0  0
 26 28  1  0  0  0  0
 27 23  1  0  0  0  0
 28 27  2  0  0  0  0
 29 25  1  0  0  0  0
 30 31  2  0  0  0  0
 31 32  1  0  0  0  0
 31 29  1  0  0  0  0
 33 34  1  6  0  0  0
 33 36  1  0  0  0  0
 33 32  1  0  0  0  0
 36 35  1  6  0  0  0
 36 38  1  0  0  0  0
 38 37  2  0  0  0  0
 38 39  1  0  0  0  0
 39 41  1  0  0  0  0
 40 42  1  0  0  0  0
 41 40  2  0  0  0  0
 42 43  1  0  0  0  0
 44 42  2  0  0  0  0
M  END
>  <MODEL>
1

>  <REMARK>
 VINA RESULT:      -6.3      0.000      0.000
  Name = 
  17 active torsions:
  status: ('A' for Active; 'I' for Inactive)
    1  A    between atoms: C_3  and  N_13
    2  A    between atoms: C_3  and  S_24
    3  A    between atoms: C_8  and  C_20
    4  A    between atoms: C_8  and  C_43
    5  A    between atoms: C_11  and  O_21
    6  A    between atoms: C_11  and  C_40
    7  A    between atoms: N_13  and  C_37
    8  A    between atoms: C_15  and  C_27
    9  A    between atoms: C_16  and  N_23
   10  A    between atoms: N_17  and  N_25
   11  A    between atoms: C_18  and  C_22
   12  A    between atoms: C_20  and  C_40
   13  A    between atoms: O_21  and  C_36
   14  A    between atoms: S_24  and  C_27
   15  A    between atoms: C_27  and  C_29
   16  A    between atoms: C_31  and  C_39
   17  A    between atoms: C_37  and  C_39
                            x       y       z     vdW  Elec       q    Type
                         _______ _______ _______ _____ _____    ______ ____

>  <TORSDO>
F 17

$$$$
=
 OpenBabel11072413233D

 44 46  0  0  1  0  0  0  0  0999 V2000
  161.5700  209.9110  151.9710 C   0  0  0  0  0  2  0  0  0  0  0  0
  160.8090  211.8470  150.9180 C   0  0  0  0  0  1  0  0  0  0  0  0
  160.5180  210.9160  152.0000 N   0  0  0  0  0  0  0  0  0  0  0  0
  160.6990  211.6650  153.2370 C   0  0  0  0  0  2  0  0  0  0  0  0
  159.2560  213.6700  154.2100 O   0  0  0  0  0  0  0  0  0  0  0  0
  158.0700  211.9810  152.8860 O   0  0  0  0  0  0  0  0  0  0  0  0
  159.1380  212.1960  153.9210 S   0  0  0  0  0  0  0  0  0  0  0  0
  158.7060  211.3140  155.4320 C   0  0  1  0  0  3  0  0  0  0  0  0
  159.0530  208.3540  156.0220 F   0  0  0  0  0  0  0  0  0  0  0  0
  161.3770  208.5670  156.3520 C   0  0  0  0  0  0  0  0  0  0  0  0
  160.7720  211.2950  156.7070 C   0  0  0  0  0  3  0  0  0  0  0  0
  162.2570  209.4320  157.0870 N   0  0  0  0  0  0  0  0  0  0  0  0
  159.9070  210.5860  155.9720 C   0  0  0  0  0  0  0  0  0  0  0  0
  161.9930  210.6900  157.2610 C   0  0  0  0  0  3  0  0  0  0  0  0
  160.1520  209.1190  155.6690 C   0  0  2  0  0  3  0  0  0  0  0  0
  161.6720  207.3520  156.2070 O   0  0  0  0  0  0  0  0  0  0  0  0
  156.6110  212.1750  156.7400 C   0  0  1  0  0  3  0  0  0  0  0  0
  158.0830  212.2700  156.4580 C   0  0  2  0  0  3  0  0  0  0  0  0
  157.1360  213.0670  155.7900 O   0  0  0  0  0  0  0  0  0  0  0  0
  155.3260  211.5590  154.8630 C   0  0  0  0  0  1  0  0  0  0  0  0
  155.9480  211.0510  156.0810 N   0  0  0  0  0  0  0  0  0  0  0  0
  154.9170  210.6990  156.8860 O   0  0  0  0  0  1  0  0  0  0  0  0
  162.2600  209.9220  150.6180 C   0  0  0  0  0  2  0  0  0  0  0  0
  162.7060  208.1740  148.6930 C   0  0  0  0  0  2  0  0  0  0  0  0
  162.1430  206.8410  148.4480 N   0  0  0  0  0  0  0  0  0  0  0  0
  161.0340  206.7920  149.3050 N   0  0  0  0  0  2  0  0  0  0  0  0
  161.9500  208.6680  149.8780 C   0  0  0  0  0  0  0  0  0  0  0  0
  160.9950  207.8710  150.1850 N   0  0  0  0  0  0  0  0  0  0  0  0
  161.6620  206.8020  147.1320 N   0  0  0  0  0  2  0  0  0  0  0  0
  160.0830  205.7980  145.7510 O   0  0  0  0  0  0  0  0  0  0  0  0
  160.9360  205.6640  146.6650 C   0  0  0  0  0  0  0  0  0  0  0  0
  161.1360  204.4040  147.2410 O   0  0  0  0  0  0  0  0  0  0  0  0
  161.5800  203.2990  146.4620 C   0  0  2  0  0  3  0  0  0  0  0  0
  161.6890  203.6890  145.1230 O   0  0  0  0  0  1  0  0  0  0  0  0
  160.8030  201.2150  145.5420 O   0  0  0  0  0  1  0  0  0  0  0  0
  160.6250  202.1150  146.5990 C   0  0  1  0  0  3  0  0  0  0  0  0
  161.8130  200.7670  148.1640 O   0  0  0  0  0  0  0  0  0  0  0  0
  160.8080  201.4320  147.9350 C   0  0  0  0  0  0  0  0  0  0  0  0
  159.7970  201.6260  149.0230 C   0  0  0  0  0  2  0  0  0  0  0  0
  160.7170  203.4610  150.3630 C   0  0  0  0  0  3  0  0  0  0  0  0
  160.4830  202.1560  150.2380 C   0  0  0  0  0  3  0  0  0  0  0  0
  161.3150  204.0070  151.5870 C   0  0  0  0  0  0  0  0  0  0  0  0
  160.8050  203.6290  152.8220 O   0  0  0  0  0  1  0  0  0  0  0  0
  162.3180  204.7760  151.5350 O   0  0  0  0  0  0  0  0  0  0  0  0
  1  3  1  0  0  0  0
  2  3  1  0  0  0  0
  3  4  1  0  0  0  0
  4  7  1  0  0  0  0
  6  7  2  0  0  0  0
  7  5  2  0  0  0  0
  8  7  1  6  0  0  0
  8 13  1  0  0  0  0
 10 12  1  0  0  0  0
 11 14  1  0  0  0  0
 12 14  2  0  0  0  0
 13 11  2  0  0  0  0
 15 13  1  0  0  0  0
 15  9  1  1  0  0  0
 15 10  1  0  0  0  0
 16 10  2  0  0  0  0
 17 21  1  6  0  0  0
 18  8  1  6  0  0  0
 18 17  1  0  0  0  0
 19 18  1  0  0  0  0
 19 17  1  0  0  0  0
 20 21  1  0  0  0  0
 21 22  1  0  0  0  0
 23  1  1  0  0  0  0
 24 27  1  0  0  0  0
 25 24  1  0  0  0  0
 25 26  1  0  0  0  0
 26 28  1  0  0  0  0
 27 28  2  0  0  0  0
 27 23  1  0  0  0  0
 29 25  1  0  0  0  0
 30 31  2  0  0  0  0
 31 29  1  0  0  0  0
 31 32  1  0  0  0  0
 33 34  1  6  0  0  0
 33 36  1  0  0  0  0
 33 32  1  0  0  0  0
 36 35  1  6  0  0  0
 36 38  1  0  0  0  0
 38 37  2  0  0  0  0
 38 39  1  0  0  0  0
 39 41  1  0  0  0  0
 40 42  1  0  0  0  0
 41 40  2  0  0  0  0
 42 43  1  0  0  0  0
 44 42  2  0  0  0  0
M  END
>  <MODEL>
2

>  <REMARK>
 VINA RESULT:      -5.9      2.132      3.410
  Name = 
  17 active torsions:
  status: ('A' for Active; 'I' for Inactive)
    1  A    between atoms: C_3  and  N_13
    2  A    between atoms: C_3  and  S_24
    3  A    between atoms: C_8  and  C_20
    4  A    between atoms: C_8  and  C_43
    5  A    between atoms: C_11  and  O_21
    6  A    between atoms: C_11  and  C_40
    7  A    between atoms: N_13  and  C_37
    8  A    between atoms: C_15  and  C_27
    9  A    between atoms: C_16  and  N_23
   10  A    between atoms: N_17  and  N_25
   11  A    between atoms: C_18  and  C_22
   12  A    between atoms: C_20  and  C_40
   13  A    between atoms: O_21  and  C_36
   14  A    between atoms: S_24  and  C_27
   15  A    between atoms: C_27  and  C_29
   16  A    between atoms: C_31  and  C_39
   17  A    between atoms: C_37  and  C_39
                            x       y       z     vdW  Elec       q    Type
                         _______ _______ _______ _____ _____    ______ ____

>  <TORSDO>
F 17

$$$$
=
 OpenBabel11072413233D

 44 46  0  0  1  0  0  0  0  0999 V2000
  162.1520  206.7490  141.9760 C   0  0  0  0  0  2  0  0  0  0  0  0
  162.7070  206.2280  139.7720 C   0  0  0  0  0  1  0  0  0  0  0  0
  161.7940  207.0160  140.5910 N   0  0  0  0  0  0  0  0  0  0  0  0
  162.1290  208.4110  140.3400 C   0  0  0  0  0  2  0  0  0  0  0  0
  162.2020  209.3970  137.8760 O   0  0  0  0  0  0  0  0  0  0  0  0
  160.2680  208.0100  138.4660 O   0  0  0  0  0  0  0  0  0  0  0  0
  161.2080  209.0730  138.9610 S   0  0  0  0  0  0  0  0  0  0  0  0
  160.2770  210.5540  139.3930 C   0  0  1  0  0  3  0  0  0  0  0  0
  159.7230  211.6520  142.1720 F   0  0  0  0  0  0  0  0  0  0  0  0
  161.9120  212.4930  142.4100 C   0  0  0  0  0  0  0  0  0  0  0  0
  161.9770  212.2750  139.6020 C   0  0  0  0  0  3  0  0  0  0  0  0
  162.8250  213.2770  141.6260 N   0  0  0  0  0  0  0  0  0  0  0  0
  161.1190  211.4700  140.2410 C   0  0  0  0  0  0  0  0  0  0  0  0
  162.8670  213.1900  140.3330 C   0  0  0  0  0  3  0  0  0  0  0  0
  161.0300  211.4600  141.7560 C   0  0  2  0  0  3  0  0  0  0  0  0
  161.9040  212.6080  143.6630 O   0  0  0  0  0  0  0  0  0  0  0  0
  158.3720  211.8650  138.1720 C   0  0  1  0  0  3  0  0  0  0  0  0
  159.7390  211.2430  138.1330 C   0  0  2  0  0  3  0  0  0  0  0  0
  158.5840  210.5520  137.7200 O   0  0  0  0  0  0  0  0  0  0  0  0
  156.3410  211.5350  139.3210 C   0  0  0  0  0  1  0  0  0  0  0  0
  157.7520  211.8610  139.4960 N   0  0  0  0  0  0  0  0  0  0  0  0
  157.7700  213.1460  139.9230 O   0  0  0  0  0  1  0  0  0  0  0  0
  161.2650  205.6530  142.5390 C   0  0  0  0  0  2  0  0  0  0  0  0
  160.4410  206.1580  144.9940 C   0  0  0  0  0  2  0  0  0  0  0  0
  160.9280  205.6820  146.2940 N   0  0  0  0  0  0  0  0  0  0  0  0
  162.1770  205.1210  145.9890 N   0  0  0  0  0  2  0  0  0  0  0  0
  161.4120  205.5880  144.0190 C   0  0  0  0  0  0  0  0  0  0  0  0
  162.3960  205.0260  144.6170 N   0  0  0  0  0  0  0  0  0  0  0  0
  161.1540  206.7970  147.1130 N   0  0  0  0  0  2  0  0  0  0  0  0
  161.8750  207.4450  149.2280 O   0  0  0  0  0  0  0  0  0  0  0  0
  161.1900  206.6510  148.5340 C   0  0  0  0  0  0  0  0  0  0  0  0
  160.4990  205.6070  149.1620 O   0  0  0  0  0  0  0  0  0  0  0  0
  161.1930  204.5180  149.7590 C   0  0  2  0  0  3  0  0  0  0  0  0
  160.8480  203.3320  149.1040 O   0  0  0  0  0  1  0  0  0  0  0  0
  161.1610  203.1360  151.7300 O   0  0  0  0  0  1  0  0  0  0  0  0
  160.8750  204.4190  151.2500 C   0  0  1  0  0  3  0  0  0  0  0  0
  162.8430  205.5880  151.9130 O   0  0  0  0  0  0  0  0  0  0  0  0
  161.6280  205.4740  152.0280 C   0  0  0  0  0  0  0  0  0  0  0  0
  160.8830  206.4460  152.8910 C   0  0  0  0  0  2  0  0  0  0  0  0
  160.7170  208.7730  152.1400 C   0  0  0  0  0  3  0  0  0  0  0  0
  161.4530  207.8110  152.6940 C   0  0  0  0  0  3  0  0  0  0  0  0
  161.2330  210.1410  152.0150 C   0  0  0  0  0  0  0  0  0  0  0  0
  162.3860  210.3690  151.2770 O   0  0  0  0  0  0  0  0  0  0  0  0
  160.6170  211.1190  152.5280 O   0  0  0  0  0  1  0  0  0  0  0  0
  1 23  1  0  0  0  0
  2  3  1  0  0  0  0
  3  1  1  0  0  0  0
  4  3  1  0  0  0  0
  5  7  2  0  0  0  0
  6  7  2  0  0  0  0
  7  4  1  0  0  0  0
  8  7  1  6  0  0  0
  8 13  1  0  0  0  0
 10 16  2  0  0  0  0
 11 13  2  0  0  0  0
 11 14  1  0  0  0  0
 12 10  1  0  0  0  0
 13 15  1  0  0  0  0
 14 12  2  0  0  0  0
 15  9  1  6  0  0  0
 15 10  1  0  0  0  0
 17 21  1  1  0  0  0
 18 17  1  0  0  0  0
 18  8  1  1  0  0  0
 19 18  1  0  0  0  0
 19 17  1  0  0  0  0
 20 21  1  0  0  0  0
 21 22  1  0  0  0  0
 23 27  1  0  0  0  0
 24 25  1  0  0  0  0
 25 29  1  0  0  0  0
 26 25  1  0  0  0  0
 27 28  2  0  0  0  0
 27 24  1  0  0  0  0
 28 26  1  0  0  0  0
 29 31  1  0  0  0  0
 31 32  1  0  0  0  0
 31 30  2  0  0  0  0
 32 33  1  0  0  0  0
 33 34  1  6  0  0  0
 33 36  1  0  0  0  0
 36 35  1  1  0  0  0
 36 38  1  0  0  0  0
 37 38  2  0  0  0  0
 38 39  1  0  0  0  0
 40 41  2  0  0  0  0
 41 39  1  0  0  0  0
 42 40  1  0  0  0  0
 42 44  1  0  0  0  0
 43 42  2  0  0  0  0
M  END
>  <MODEL>
3

>  <REMARK>
 VINA RESULT:      -5.8      6.678     10.714
  Name = 
  17 active torsions:
  status: ('A' for Active; 'I' for Inactive)
    1  A    between atoms: C_3  and  N_13
    2  A    between atoms: C_3  and  S_24
    3  A    between atoms: C_8  and  C_20
    4  A    between atoms: C_8  and  C_43
    5  A    between atoms: C_11  and  O_21
    6  A    between atoms: C_11  and  C_40
    7  A    between atoms: N_13  and  C_37
    8  A    between atoms: C_15  and  C_27
    9  A    between atoms: C_16  and  N_23
   10  A    between atoms: N_17  and  N_25
   11  A    between atoms: C_18  and  C_22
   12  A    between atoms: C_20  and  C_40
   13  A    between atoms: O_21  and  C_36
   14  A    between atoms: S_24  and  C_27
   15  A    between atoms: C_27  and  C_29
   16  A    between atoms: C_31  and  C_39
   17  A    between atoms: C_37  and  C_39
                            x       y       z     vdW  Elec       q    Type
                         _______ _______ _______ _____ _____    ______ ____

>  <TORSDO>
F 17

$$$$
=
 OpenBabel11072413233D

 44 46  0  0  1  0  0  0  0  0999 V2000
  160.8460  207.5980  152.0240 C   0  0  0  0  0  2  0  0  0  0  0  0
  160.8880  207.7410  154.3520 C   0  0  0  0  0  1  0  0  0  0  0  0
  160.9550  208.5360  153.1320 N   0  0  0  0  0  0  0  0  0  0  0  0
  159.7420  209.3430  153.1090 C   0  0  0  0  0  2  0  0  0  0  0  0
  159.5850  210.2820  155.5880 O   0  0  0  0  0  0  0  0  0  0  0  0
  161.2810  211.2760  154.1230 O   0  0  0  0  0  0  0  0  0  0  0  0
  159.8710  210.7590  154.1880 S   0  0  0  0  0  0  0  0  0  0  0  0
  158.7210  212.0750  153.7480 C   0  0  1  0  0  3  0  0  0  0  0  0
  155.8060  211.5030  154.3890 F   0  0  0  0  0  0  0  0  0  0  0  0
  156.0110  212.2850  156.6030 C   0  0  0  0  0  0  0  0  0  0  0  0
  158.3120  213.5750  155.6130 C   0  0  0  0  0  3  0  0  0  0  0  0
  156.5540  213.4410  157.2610 N   0  0  0  0  0  0  0  0  0  0  0  0
  157.9120  212.4830  154.9510 C   0  0  0  0  0  0  0  0  0  0  0  0
  157.6110  214.0470  156.8180 C   0  0  0  0  0  3  0  0  0  0  0  0
  156.7160  211.6740  155.4190 C   0  0  2  0  0  3  0  0  0  0  0  0
  154.9830  211.7270  157.0660 O   0  0  0  0  0  0  0  0  0  0  0  0
  158.9320  213.8460  151.8350 C   0  0  1  0  0  3  0  0  0  0  0  0
  159.4650  213.2550  153.1090 C   0  0  2  0  0  3  0  0  0  0  0  0
  159.9180  212.8460  151.8410 O   0  0  0  0  0  0  0  0  0  0  0  0
  157.4870  213.5730  149.9920 C   0  0  0  0  0  1  0  0  0  0  0  0
  157.6430  213.2970  151.4160 N   0  0  0  0  0  0  0  0  0  0  0  0
  156.6970  214.0480  152.0300 O   0  0  0  0  0  1  0  0  0  0  0  0
  162.0710  206.7030  151.9810 C   0  0  0  0  0  2  0  0  0  0  0  0
  161.4500  204.5690  150.5590 C   0  0  0  0  0  2  0  0  0  0  0  0
  161.2390  203.1720  150.9540 N   0  0  0  0  0  0  0  0  0  0  0  0
  161.1190  203.2430  152.3500 N   0  0  0  0  0  2  0  0  0  0  0  0
  161.6590  205.2780  151.8520 C   0  0  0  0  0  0  0  0  0  0  0  0
  161.4410  204.5030  152.8480 N   0  0  0  0  0  0  0  0  0  0  0  0
  160.0020  202.7540  150.4440 N   0  0  0  0  0  2  0  0  0  0  0  0
  159.0050  201.3190  148.9080 O   0  0  0  0  0  0  0  0  0  0  0  0
  159.9260  202.1390  149.1560 C   0  0  0  0  0  0  0  0  0  0  0  0
  160.8900  202.4110  148.1770 O   0  0  0  0  0  0  0  0  0  0  0  0
  160.7620  201.9000  146.8560 C   0  0  2  0  0  3  0  0  0  0  0  0
  161.4280  200.6730  146.7650 O   0  0  0  0  0  1  0  0  0  0  0  0
  160.3500  203.2030  144.8740 O   0  0  0  0  0  1  0  0  0  0  0  0
  161.3200  202.8870  145.8320 C   0  0  1  0  0  3  0  0  0  0  0  0
  163.0240  204.2400  146.8030 O   0  0  0  0  0  0  0  0  0  0  0  0
  161.8370  204.1320  146.5170 C   0  0  0  0  0  0  0  0  0  0  0  0
  160.9140  205.2800  146.7850 C   0  0  0  0  0  2  0  0  0  0  0  0
  161.1950  207.3220  148.1120 C   0  0  0  0  0  3  0  0  0  0  0  0
  161.7140  206.4530  147.2470 C   0  0  0  0  0  3  0  0  0  0  0  0
  161.9970  208.4330  148.6380 C   0  0  0  0  0  0  0  0  0  0  0  0
  161.6850  209.7340  148.2690 O   0  0  0  0  0  0  0  0  0  0  0  0
  162.9360  208.2270  149.4600 O   0  0  0  0  0  1  0  0  0  0  0  0
  1  3  1  0  0  0  0
  3  2  1  0  0  0  0
  4  3  1  0  0  0  0
  4  7  1  0  0  0  0
  6  7  2  0  0  0  0
  7  5  2  0  0  0  0
  8  7  1  1  0  0  0
  8 13  1  0  0  0  0
 10 16  2  0  0  0  0
 10 12  1  0  0  0  0
 11 14  1  0  0  0  0
 13 15  1  0  0  0  0
 13 11  2  0  0  0  0
 14 12  2  0  0  0  0
 15  9  1  6  0  0  0
 15 10  1  0  0  0  0
 17 21  1  6  0  0  0
 17 19  1  0  0  0  0
 17 18  1  0  0  0  0
 18  8  1  6  0  0  0
 19 18  1  0  0  0  0
 20 21  1  0  0  0  0
 21 22  1  0  0  0  0
 23  1  1  0  0  0  0
 24 25  1  0  0  0  0
 24 27  1  0  0  0  0
 25 26  1  0  0  0  0
 26 28  1  0  0  0  0
 27 23  1  0  0  0  0
 27 28  2  0  0  0  0
 29 25  1  0  0  0  0
 30 31  2  0  0  0  0
 31 29  1  0  0  0  0
 32 31  1  0  0  0  0
 33 34  1  1  0  0  0
 33 32  1  0  0  0  0
 36 35  1  6  0  0  0
 36 38  1  0  0  0  0
 36 33  1  0  0  0  0
 38 39  1  0  0  0  0
 38 37  2  0  0  0  0
 39 41  1  0  0  0  0
 40 42  1  0  0  0  0
 41 40  2  0  0  0  0
 42 44  1  0  0  0  0
 43 42  2  0  0  0  0
M  END
>  <MODEL>
4

>  <REMARK>
 VINA RESULT:      -5.7      1.870      3.095
  Name = 
  17 active torsions:
  status: ('A' for Active; 'I' for Inactive)
    1  A    between atoms: C_3  and  N_13
    2  A    between atoms: C_3  and  S_24
    3  A    between atoms: C_8  and  C_20
    4  A    between atoms: C_8  and  C_43
    5  A    between atoms: C_11  and  O_21
    6  A    between atoms: C_11  and  C_40
    7  A    between atoms: N_13  and  C_37
    8  A    between atoms: C_15  and  C_27
    9  A    between atoms: C_16  and  N_23
   10  A    between atoms: N_17  and  N_25
   11  A    between atoms: C_18  and  C_22
   12  A    between atoms: C_20  and  C_40
   13  A    between atoms: O_21  and  C_36
   14  A    between atoms: S_24  and  C_27
   15  A    between atoms: C_27  and  C_29
   16  A    between atoms: C_31  and  C_39
   17  A    between atoms: C_37  and  C_39
                            x       y       z     vdW  Elec       q    Type
                         _______ _______ _______ _____ _____    ______ ____

>  <TORSDO>
F 17

$$$$
=
 OpenBabel11072413233D

 44 46  0  0  1  0  0  0  0  0999 V2000
  161.9580  208.1420  152.4110 C   0  0  0  0  0  2  0  0  0  0  0  0
  161.0780  206.8790  154.1620 C   0  0  0  0  0  1  0  0  0  0  0  0
  161.2400  206.9130  152.7140 N   0  0  0  0  0  0  0  0  0  0  0  0
  162.1410  205.8180  152.3830 C   0  0  0  0  0  2  0  0  0  0  0  0
  161.9590  203.1950  152.0120 O   0  0  0  0  0  0  0  0  0  0  0  0
  159.8600  204.4600  152.0850 O   0  0  0  0  0  0  0  0  0  0  0  0
  161.2790  204.4710  151.5900 S   0  0  0  0  0  0  0  0  0  0  0  0
  161.2930  204.5990  149.7920 C   0  0  1  0  0  3  0  0  0  0  0  0
  160.5530  203.8580  146.9390 F   0  0  0  0  0  0  0  0  0  0  0  0
  161.0940  201.5870  147.2590 C   0  0  0  0  0  0  0  0  0  0  0  0
  160.8390  202.2230  149.9920 C   0  0  0  0  0  3  0  0  0  0  0  0
  160.8150  200.5700  148.2350 N   0  0  0  0  0  0  0  0  0  0  0  0
  161.1400  203.2370  149.1710 C   0  0  0  0  0  0  0  0  0  0  0  0
  160.6930  200.8460  149.4960 C   0  0  0  0  0  3  0  0  0  0  0  0
  161.3530  203.0090  147.6860 C   0  0  2  0  0  3  0  0  0  0  0  0
  161.2040  201.2750  146.0450 O   0  0  0  0  0  0  0  0  0  0  0  0
  160.6160  206.6590  148.3290 C   0  0  1  0  0  3  0  0  0  0  0  0
  160.2260  205.5920  149.3110 C   0  0  2  0  0  3  0  0  0  0  0  0
  160.6180  206.8810  149.7170 O   0  0  0  0  0  0  0  0  0  0  0  0
  162.7070  207.7420  148.2140 C   0  0  0  0  0  1  0  0  0  0  0  0
  161.9840  206.5360  147.8250 N   0  0  0  0  0  0  0  0  0  0  0  0
  161.8920  206.5940  146.4750 O   0  0  0  0  0  1  0  0  0  0  0  0
  161.1890  209.3370  152.9450 C   0  0  0  0  0  2  0  0  0  0  0  0
  161.6990  210.2980  150.5410 C   0  0  0  0  0  2  0  0  0  0  0  0
  161.1580  211.4630  149.8310 N   0  0  0  0  0  0  0  0  0  0  0  0
  160.5110  212.1900  150.8410 N   0  0  0  0  0  2  0  0  0  0  0  0
  161.0790  210.3850  151.8920 C   0  0  0  0  0  0  0  0  0  0  0  0
  160.4300  211.4800  152.0370 N   0  0  0  0  0  0  0  0  0  0  0  0
  162.2340  212.2390  149.3760 N   0  0  0  0  0  2  0  0  0  0  0  0
  162.8350  213.8770  147.8390 O   0  0  0  0  0  0  0  0  0  0  0  0
  162.2030  212.8150  148.0690 C   0  0  0  0  0  0  0  0  0  0  0  0
  161.4440  212.2290  147.0480 O   0  0  0  0  0  0  0  0  0  0  0  0
  160.4590  212.9750  146.3420 C   0  0  2  0  0  3  0  0  0  0  0  0
  159.3940  213.2670  147.2010 O   0  0  0  0  0  1  0  0  0  0  0  0
  158.6060  212.4570  144.8960 O   0  0  0  0  0  1  0  0  0  0  0  0
  159.9640  212.2050  145.1190 C   0  0  1  0  0  3  0  0  0  0  0  0
  161.9430  212.9540  144.0220 O   0  0  0  0  0  0  0  0  0  0  0  0
  160.7910  212.5510  143.9010 C   0  0  0  0  0  0  0  0  0  0  0  0
  160.2360  212.3300  142.5280 C   0  0  0  0  0  2  0  0  0  0  0  0
  160.8570  211.0620  140.5250 C   0  0  0  0  0  3  0  0  0  0  0  0
  161.1690  211.4570  141.7580 C   0  0  0  0  0  3  0  0  0  0  0  0
  161.8000  210.2720  139.7240 C   0  0  0  0  0  0  0  0  0  0  0  0
  162.5860  210.9080  138.7730 O   0  0  0  0  0  0  0  0  0  0  0  0
  161.9420  209.0310  139.9210 O   0  0  0  0  0  1  0  0  0  0  0  0
  1  3  1  0  0  0  0
  1 23  1  0  0  0  0
  3  2  1  0  0  0  0
  4  3  1  0  0  0  0
  7  5  2  0  0  0  0
  7  6  2  0  0  0  0
  7  4  1  0  0  0  0
  8  7  1  1  0  0  0
 10 15  1  0  0  0  0
 10 12  1  0  0  0  0
 12 14  2  0  0  0  0
 13  8  1  0  0  0  0
 13 11  2  0  0  0  0
 14 11  1  0  0  0  0
 15  9  1  6  0  0  0
 15 13  1  0  0  0  0
 16 10  2  0  0  0  0
 17 21  1  1  0  0  0
 17 18  1  0  0  0  0
 17 19  1  0  0  0  0
 18 19  1  0  0  0  0
 18  8  1  1  0  0  0
 21 20  1  0  0  0  0
 22 21  1  0  0  0  0
 24 27  1  0  0  0  0
 25 24  1  0  0  0  0
 25 26  1  0  0  0  0
 26 28  1  0  0  0  0
 27 28  2  0  0  0  0
 27 23  1  0  0  0  0
 29 25  1  0  0  0  0
 30 31  2  0  0  0  0
 31 29  1  0  0  0  0
 32 31  1  0  0  0  0
 33 32  1  0  0  0  0
 33 34  1  1  0  0  0
 36 35  1  6  0  0  0
 36 33  1  0  0  0  0
 38 37  2  0  0  0  0
 38 36  1  0  0  0  0
 39 38  1  0  0  0  0
 40 41  2  0  0  0  0
 41 39  1  0  0  0  0
 42 44  1  0  0  0  0
 42 40  1  0  0  0  0
 43 42  2  0  0  0  0
M  END
>  <MODEL>
5

>  <REMARK>
 VINA RESULT:      -5.6      4.694     10.062
  Name = 
  17 active torsions:
  status: ('A' for Active; 'I' for Inactive)
    1  A    between atoms: C_3  and  N_13
    2  A    between atoms: C_3  and  S_24
    3  A    between atoms: C_8  and  C_20
    4  A    between atoms: C_8  and  C_43
    5  A    between atoms: C_11  and  O_21
    6  A    between atoms: C_11  and  C_40
    7  A    between atoms: N_13  and  C_37
    8  A    between atoms: C_15  and  C_27
    9  A    between atoms: C_16  and  N_23
   10  A    between atoms: N_17  and  N_25
   11  A    between atoms: C_18  and  C_22
   12  A    between atoms: C_20  and  C_40
   13  A    between atoms: O_21  and  C_36
   14  A    between atoms: S_24  and  C_27
   15  A    between atoms: C_27  and  C_29
   16  A    between atoms: C_31  and  C_39
   17  A    between atoms: C_37  and  C_39
                            x       y       z     vdW  Elec       q    Type
                         _______ _______ _______ _____ _____    ______ ____

>  <TORSDO>
F 17

$$$$
=
 OpenBabel11072413233D

 44 46  0  0  1  0  0  0  0  0999 V2000
  162.0080  210.9630  148.4130 C   0  0  0  0  0  2  0  0  0  0  0  0
  162.3870  210.3130  150.6210 C   0  0  0  0  0  1  0  0  0  0  0  0
  161.6720  209.9510  149.4040 N   0  0  0  0  0  0  0  0  0  0  0  0
  162.2710  208.7060  148.9400 C   0  0  0  0  0  2  0  0  0  0  0  0
  163.0430  207.1390  150.9390 O   0  0  0  0  0  0  0  0  0  0  0  0
  160.6630  207.7160  150.8290 O   0  0  0  0  0  0  0  0  0  0  0  0
  161.8700  207.3400  150.0160 S   0  0  0  0  0  0  0  0  0  0  0  0
  161.5410  205.8160  149.1110 C   0  0  1  0  0  3  0  0  0  0  0  0
  160.4480  203.0380  148.5440 F   0  0  0  0  0  0  0  0  0  0  0  0
  160.9000  202.2800  150.7290 C   0  0  0  0  0  0  0  0  0  0  0  0
  160.9880  205.0290  151.3410 C   0  0  0  0  0  3  0  0  0  0  0  0
  160.6800  202.7490  152.0690 N   0  0  0  0  0  0  0  0  0  0  0  0
  161.2480  204.6940  150.0710 C   0  0  0  0  0  0  0  0  0  0  0  0
  160.7150  204.0110  152.3670 C   0  0  0  0  0  3  0  0  0  0  0  0
  161.2800  203.2410  149.6330 C   0  0  2  0  0  3  0  0  0  0  0  0
  160.8570  201.0470  150.4840 O   0  0  0  0  0  0  0  0  0  0  0  0
  160.6920  205.7210  146.6400 C   0  0  1  0  0  3  0  0  0  0  0  0
  160.4200  206.0250  148.0850 C   0  0  2  0  0  3  0  0  0  0  0  0
  160.8430  207.0110  147.1750 O   0  0  0  0  0  0  0  0  0  0  0  0
  162.5170  205.6640  145.1480 C   0  0  0  0  0  1  0  0  0  0  0  0
  161.9970  205.1090  146.3930 N   0  0  0  0  0  0  0  0  0  0  0  0
  161.7540  203.8030  146.1270 O   0  0  0  0  0  1  0  0  0  0  0  0
  162.1920  212.3090  149.0910 C   0  0  0  0  0  2  0  0  0  0  0  0
  160.0390  213.4960  150.0480 C   0  0  0  0  0  2  0  0  0  0  0  0
  159.1030  214.4440  149.4320 N   0  0  0  0  0  0  0  0  0  0  0  0
  159.4050  214.3600  148.0650 N   0  0  0  0  0  2  0  0  0  0  0  0
  160.9600  213.1310  148.9360 C   0  0  0  0  0  0  0  0  0  0  0  0
  160.5590  213.6190  147.8210 N   0  0  0  0  0  0  0  0  0  0  0  0
  157.8020  213.9520  149.6080 N   0  0  0  0  0  2  0  0  0  0  0  0
  155.8630  214.2110  150.8670 O   0  0  0  0  0  0  0  0  0  0  0  0
  157.1190  214.1520  150.8470 C   0  0  0  0  0  0  0  0  0  0  0  0
  157.8350  214.3210  152.0380 O   0  0  0  0  0  0  0  0  0  0  0  0
  157.4660  213.6300  153.2260 C   0  0  2  0  0  3  0  0  0  0  0  0
  156.6490  214.4530  154.0070 O   0  0  0  0  0  1  0  0  0  0  0  0
  158.3760  212.9850  155.3580 O   0  0  0  0  0  1  0  0  0  0  0  0
  158.7010  213.1980  154.0140 C   0  0  1  0  0  3  0  0  0  0  0  0
  158.7810  211.3960  152.4580 O   0  0  0  0  0  0  0  0  0  0  0  0
  159.3220  211.9650  153.3990 C   0  0  0  0  0  0  0  0  0  0  0  0
  160.6500  211.4700  153.8860 C   0  0  0  0  0  2  0  0  0  0  0  0
  160.6690  209.0370  154.1810 C   0  0  0  0  0  3  0  0  0  0  0  0
  160.4420  210.2400  154.7050 C   0  0  0  0  0  3  0  0  0  0  0  0
  160.5490  207.8230  154.9970 C   0  0  0  0  0  0  0  0  0  0  0  0
  160.0150  207.9120  156.2750 O   0  0  0  0  0  1  0  0  0  0  0  0
  160.8790  206.6930  154.5360 O   0  0  0  0  0  0  0  0  0  0  0  0
  1 23  1  0  0  0  0
  1  3  1  0  0  0  0
  3  2  1  0  0  0  0
  4  3  1  0  0  0  0
  4  7  1  0  0  0  0
  7  6  2  0  0  0  0
  7  5  2  0  0  0  0
  8  7  1  1  0  0  0
  8 13  1  0  0  0  0
 10 12  1  0  0  0  0
 11 14  1  0  0  0  0
 12 14  2  0  0  0  0
 13 11  2  0  0  0  0
 15  9  1  6  0  0  0
 15 13  1  0  0  0  0
 15 10  1  0  0  0  0
 16 10  2  0  0  0  0
 17 21  1  1  0  0  0
 17 19  1  0  0  0  0
 17 18  1  0  0  0  0
 18  8  1  1  0  0  0
 19 18  1  0  0  0  0
 20 21  1  0  0  0  0
 22 21  1  0  0  0  0
 25 29  1  0  0  0  0
 25 24  1  0  0  0  0
 26 25  1  0  0  0  0
 27 23  1  0  0  0  0
 27 24  1  0  0  0  0
 28 26  1  0  0  0  0
 28 27  2  0  0  0  0
 29 31  1  0  0  0  0
 31 30  2  0  0  0  0
 31 32  1  0  0  0  0
 32 33  1  0  0  0  0
 33 34  1  1  0  0  0
 33 36  1  0  0  0  0
 36 35  1  1  0  0  0
 37 38  2  0  0  0  0
 38 39  1  0  0  0  0
 38 36  1  0  0  0  0
 39 41  1  0  0  0  0
 40 41  2  0  0  0  0
 40 42  1  0  0  0  0
 42 43  1  0  0  0  0
 44 42  2  0  0  0  0
M  END
>  <MODEL>
6

>  <REMARK>
 VINA RESULT:      -5.5      3.141      9.789
  Name = 
  17 active torsions:
  status: ('A' for Active; 'I' for Inactive)
    1  A    between atoms: C_3  and  N_13
    2  A    between atoms: C_3  and  S_24
    3  A    between atoms: C_8  and  C_20
    4  A    between atoms: C_8  and  C_43
    5  A    between atoms: C_11  and  O_21
    6  A    between atoms: C_11  and  C_40
    7  A    between atoms: N_13  and  C_37
    8  A    between atoms: C_15  and  C_27
    9  A    between atoms: C_16  and  N_23
   10  A    between atoms: N_17  and  N_25
   11  A    between atoms: C_18  and  C_22
   12  A    between atoms: C_20  and  C_40
   13  A    between atoms: O_21  and  C_36
   14  A    between atoms: S_24  and  C_27
   15  A    between atoms: C_27  and  C_29
   16  A    between atoms: C_31  and  C_39
   17  A    between atoms: C_37  and  C_39
                            x       y       z     vdW  Elec       q    Type
                         _______ _______ _______ _____ _____    ______ ____

>  <TORSDO>
F 17

$$$$
=
 OpenBabel11072413233D

 44 46  0  0  1  0  0  0  0  0999 V2000
  162.2620  206.7070  141.7650 C   0  0  0  0  0  2  0  0  0  0  0  0
  162.8380  206.3010  139.5420 C   0  0  0  0  0  1  0  0  0  0  0  0
  161.9010  207.0250  140.3920 N   0  0  0  0  0  0  0  0  0  0  0  0
  162.1970  208.4390  140.2050 C   0  0  0  0  0  2  0  0  0  0  0  0
  162.1940  209.5740  137.8050 O   0  0  0  0  0  0  0  0  0  0  0  0
  160.3240  208.0790  138.3350 O   0  0  0  0  0  0  0  0  0  0  0  0
  161.2310  209.1460  138.8810 S   0  0  0  0  0  0  0  0  0  0  0  0
  160.2510  210.5610  139.4150 C   0  0  1  0  0  3  0  0  0  0  0  0
  159.4380  211.7630  142.0850 F   0  0  0  0  0  0  0  0  0  0  0  0
  161.6400  212.4280  142.5960 C   0  0  0  0  0  0  0  0  0  0  0  0
  162.0480  212.1420  139.8220 C   0  0  0  0  0  3  0  0  0  0  0  0
  162.7090  213.1170  141.9280 N   0  0  0  0  0  0  0  0  0  0  0  0
  161.0500  211.4240  140.3540 C   0  0  0  0  0  0  0  0  0  0  0  0
  162.9090  212.9980  140.6520 C   0  0  0  0  0  3  0  0  0  0  0  0
  160.7670  211.4570  141.8440 C   0  0  2  0  0  3  0  0  0  0  0  0
  161.4810  212.5720  143.8350 O   0  0  0  0  0  0  0  0  0  0  0  0
  158.2390  211.5700  138.0830 C   0  0  1  0  0  3  0  0  0  0  0  0
  159.7170  211.3390  138.2050 C   0  0  2  0  0  3  0  0  0  0  0  0
  158.8800  210.4800  137.4710 O   0  0  0  0  0  0  0  0  0  0  0  0
  156.5180  210.1210  138.7870 C   0  0  0  0  0  1  0  0  0  0  0  0
  157.4680  211.1290  139.2450 N   0  0  0  0  0  0  0  0  0  0  0  0
  156.7110  212.1890  139.6170 O   0  0  0  0  0  1  0  0  0  0  0  0
  161.2100  205.8030  142.3820 C   0  0  0  0  0  2  0  0  0  0  0  0
  160.4570  205.9230  144.9080 C   0  0  0  0  0  2  0  0  0  0  0  0
  161.1120  205.4570  146.1350 N   0  0  0  0  0  0  0  0  0  0  0  0
  162.4280  205.1960  145.7240 N   0  0  0  0  0  2  0  0  0  0  0  0
  161.4610  205.6500  143.8420 C   0  0  0  0  0  0  0  0  0  0  0  0
  162.5750  205.2600  144.3400 N   0  0  0  0  0  0  0  0  0  0  0  0
  161.1560  206.5240  147.0430 N   0  0  0  0  0  2  0  0  0  0  0  0
  162.2270  207.3070  148.9540 O   0  0  0  0  0  0  0  0  0  0  0  0
  161.7050  206.3360  148.3490 C   0  0  0  0  0  0  0  0  0  0  0  0
  161.7010  205.0710  148.9490 O   0  0  0  0  0  0  0  0  0  0  0  0
  160.7860  204.7520  149.9900 C   0  0  2  0  0  3  0  0  0  0  0  0
  160.7420  205.8050  150.9100 O   0  0  0  0  0  1  0  0  0  0  0  0
  160.7140  203.4360  152.0040 O   0  0  0  0  0  1  0  0  0  0  0  0
  161.1800  203.4500  150.6850 C   0  0  1  0  0  3  0  0  0  0  0  0
  159.4650  202.0780  149.7600 O   0  0  0  0  0  0  0  0  0  0  0  0
  160.6690  202.2560  149.9120 C   0  0  0  0  0  0  0  0  0  0  0  0
  161.6340  201.3170  149.2550 C   0  0  0  0  0  2  0  0  0  0  0  0
  160.8680  201.9400  147.0120 C   0  0  0  0  0  3  0  0  0  0  0  0
  161.1320  200.9760  147.8920 C   0  0  0  0  0  3  0  0  0  0  0  0
  160.4540  201.6190  145.6410 C   0  0  0  0  0  0  0  0  0  0  0  0
  160.4190  200.2930  145.2330 O   0  0  0  0  0  1  0  0  0  0  0  0
  160.0820  202.5270  144.8430 O   0  0  0  0  0  0  0  0  0  0  0  0
  1 23  1  0  0  0  0
  2  3  1  0  0  0  0
  3  1  1  0  0  0  0
  4  3  1  0  0  0  0
  5  7  2  0  0  0  0
  6  7  2  0  0  0  0
  7  4  1  0  0  0  0
  8  7  1  6  0  0  0
  8 13  1  0  0  0  0
 10 16  2  0  0  0  0
 11 13  2  0  0  0  0
 11 14  1  0  0  0  0
 12 10  1  0  0  0  0
 13 15  1  0  0  0  0
 14 12  2  0  0  0  0
 15  9  1  6  0  0  0
 15 10  1  0  0  0  0
 17 18  1  0  0  0  0
 17 21  1  1  0  0  0
 18  8  1  1  0  0  0
 19 17  1  0  0  0  0
 19 18  1  0  0  0  0
 20 21  1  0  0  0  0
 21 22  1  0  0  0  0
 23 27  1  0  0  0  0
 24 25  1  0  0  0  0
 25 29  1  0  0  0  0
 26 25  1  0  0  0  0
 27 28  2  0  0  0  0
 27 24  1  0  0  0  0
 28 26  1  0  0  0  0
 29 31  1  0  0  0  0
 31 32  1  0  0  0  0
 31 30  2  0  0  0  0
 32 33  1  0  0  0  0
 33 36  1  0  0  0  0
 33 34  1  1  0  0  0
 36 35  1  1  0  0  0
 37 38  2  0  0  0  0
 38 36  1  0  0  0  0
 39 38  1  0  0  0  0
 40 41  2  0  0  0  0
 41 39  1  0  0  0  0
 42 40  1  0  0  0  0
 43 42  1  0  0  0  0
 44 42  2  0  0  0  0
M  END
>  <MODEL>
7

>  <REMARK>
 VINA RESULT:      -5.5      6.618     10.616
  Name = 
  17 active torsions:
  status: ('A' for Active; 'I' for Inactive)
    1  A    between atoms: C_3  and  N_13
    2  A    between atoms: C_3  and  S_24
    3  A    between atoms: C_8  and  C_20
    4  A    between atoms: C_8  and  C_43
    5  A    between atoms: C_11  and  O_21
    6  A    between atoms: C_11  and  C_40
    7  A    between atoms: N_13  and  C_37
    8  A    between atoms: C_15  and  C_27
    9  A    between atoms: C_16  and  N_23
   10  A    between atoms: N_17  and  N_25
   11  A    between atoms: C_18  and  C_22
   12  A    between atoms: C_20  and  C_40
   13  A    between atoms: O_21  and  C_36
   14  A    between atoms: S_24  and  C_27
   15  A    between atoms: C_27  and  C_29
   16  A    between atoms: C_31  and  C_39
   17  A    between atoms: C_37  and  C_39
                            x       y       z     vdW  Elec       q    Type
                         _______ _______ _______ _____ _____    ______ ____

>  <TORSDO>
F 17

$$$$
=
 OpenBabel11072413233D

 44 46  0  0  1  0  0  0  0  0999 V2000
  161.5840  208.3020  148.7690 C   0  0  0  0  0  2  0  0  0  0  0  0
  162.6950  206.9940  150.3480 C   0  0  0  0  0  1  0  0  0  0  0  0
  162.2450  208.3510  150.0650 N   0  0  0  0  0  0  0  0  0  0  0  0
  161.2070  208.6440  151.0450 C   0  0  0  0  0  2  0  0  0  0  0  0
  162.9000  210.2990  152.2480 O   0  0  0  0  0  0  0  0  0  0  0  0
  161.2060  211.3030  150.7870 O   0  0  0  0  0  0  0  0  0  0  0  0
  161.4580  210.2350  151.8140 S   0  0  0  0  0  0  0  0  0  0  0  0
  160.3840  210.4970  153.2370 C   0  0  1  0  0  3  0  0  0  0  0  0
  159.5420  208.5070  155.3740 F   0  0  0  0  0  0  0  0  0  0  0  0
  161.6450  208.5720  156.4370 C   0  0  0  0  0  0  0  0  0  0  0  0
  161.9440  210.9950  155.0300 C   0  0  0  0  0  3  0  0  0  0  0  0
  162.5620  209.5820  156.8860 N   0  0  0  0  0  0  0  0  0  0  0  0
  161.0940  210.1040  154.5050 C   0  0  0  0  0  0  0  0  0  0  0  0
  162.7110  210.7030  156.2510 C   0  0  0  0  0  3  0  0  0  0  0  0
  160.8880  208.7430  155.1450 C   0  0  2  0  0  3  0  0  0  0  0  0
  161.5310  207.4990  157.0830 O   0  0  0  0  0  0  0  0  0  0  0  0
  158.5980  212.2450  154.0100 C   0  0  1  0  0  3  0  0  0  0  0  0
  159.8700  211.9420  153.2710 C   0  0  2  0  0  3  0  0  0  0  0  0
  158.6180  211.9730  152.6320 O   0  0  0  0  0  0  0  0  0  0  0  0
  156.6010  211.1610  154.6370 C   0  0  0  0  0  1  0  0  0  0  0  0
  158.0540  211.1080  154.7520 N   0  0  0  0  0  0  0  0  0  0  0  0
  158.3180  211.3530  156.0580 O   0  0  0  0  0  1  0  0  0  0  0  0
  160.9820  206.9260  148.5460 C   0  0  0  0  0  2  0  0  0  0  0  0
  160.5280  206.2030  146.0490 C   0  0  0  0  0  2  0  0  0  0  0  0
  161.4470  205.8260  144.9690 N   0  0  0  0  0  0  0  0  0  0  0  0
  162.6630  205.6110  145.6360 N   0  0  0  0  0  2  0  0  0  0  0  0
  161.4180  206.3850  147.2290 C   0  0  0  0  0  0  0  0  0  0  0  0
  162.6180  206.0190  146.9670 N   0  0  0  0  0  0  0  0  0  0  0  0
  161.0280  204.5950  144.4460 N   0  0  0  0  0  2  0  0  0  0  0  0
  159.9790  202.5930  144.9950 O   0  0  0  0  0  0  0  0  0  0  0  0
  160.8100  203.4810  145.3140 C   0  0  0  0  0  0  0  0  0  0  0  0
  161.4850  203.3860  146.5370 O   0  0  0  0  0  0  0  0  0  0  0  0
  161.4810  202.1790  147.2900 C   0  0  2  0  0  3  0  0  0  0  0  0
  161.2060  201.1030  146.4400 O   0  0  0  0  0  1  0  0  0  0  0  0
  160.0340  200.9580  148.7760 O   0  0  0  0  0  1  0  0  0  0  0  0
  160.4550  202.2430  148.4200 C   0  0  1  0  0  3  0  0  0  0  0  0
  161.5820  204.0630  149.4670 O   0  0  0  0  0  0  0  0  0  0  0  0
  161.0200  202.9830  149.6120 C   0  0  0  0  0  0  0  0  0  0  0  0
  160.8300  202.4380  150.9940 C   0  0  0  0  0  2  0  0  0  0  0  0
  160.7170  204.5260  152.2730 C   0  0  0  0  0  3  0  0  0  0  0  0
  161.3830  203.4100  151.9820 C   0  0  0  0  0  3  0  0  0  0  0  0
  161.2060  205.4510  153.3020 C   0  0  0  0  0  0  0  0  0  0  0  0
  162.4840  205.9810  153.1900 O   0  0  0  0  0  0  0  0  0  0  0  0
  160.4630  205.8090  154.2610 O   0  0  0  0  0  1  0  0  0  0  0  0
  1  3  1  0  0  0  0
  3  2  1  0  0  0  0
  3  4  1  0  0  0  0
  4  7  1  0  0  0  0
  6  7  2  0  0  0  0
  7  5  2  0  0  0  0
  8  7  1  6  0  0  0
  8 13  1  0  0  0  0
 10 12  1  0  0  0  0
 10 16  2  0  0  0  0
 11 14  1  0  0  0  0
 13 11  2  0  0  0  0
 13 15  1  0  0  0  0
 14 12  2  0  0  0  0
 15  9  1  1  0  0  0
 15 10  1  0  0  0  0
 17 21  1  1  0  0  0
 18  8  1  1  0  0  0
 18 17  1  0  0  0  0
 19 18  1  0  0  0  0
 19 17  1  0  0  0  0
 20 21  1  0  0  0  0
 21 22  1  0  0  0  0
 23  1  1  0  0  0  0
 24 27  1  0  0  0  0
 25 26  1  0  0  0  0
 25 24  1  0  0  0  0
 26 28  1  0  0  0  0
 27 23  1  0  0  0  0
 28 27  2  0  0  0  0
 29 25  1  0  0  0  0
 29 31  1  0  0  0  0
 30 31  2  0  0  0  0
 31 32  1  0  0  0  0
 32 33  1  0  0  0  0
 33 34  1  6  0  0  0
 33 36  1  0  0  0  0
 36 35  1  1  0  0  0
 36 38  1  0  0  0  0
 37 38  2  0  0  0  0
 38 39  1  0  0  0  0
 39 41  1  0  0  0  0
 40 42  1  0  0  0  0
 41 40  2  0  0  0  0
 42 44  1  0  0  0  0
 43 42  2  0  0  0  0
M  END
>  <MODEL>
8

>  <REMARK>
 VINA RESULT:      -5.4      2.246      3.562
  Name = 
  17 active torsions:
  status: ('A' for Active; 'I' for Inactive)
    1  A    between atoms: C_3  and  N_13
    2  A    between atoms: C_3  and  S_24
    3  A    between atoms: C_8  and  C_20
    4  A    between atoms: C_8  and  C_43
    5  A    between atoms: C_11  and  O_21
    6  A    between atoms: C_11  and  C_40
    7  A    between atoms: N_13  and  C_37
    8  A    between atoms: C_15  and  C_27
    9  A    between atoms: C_16  and  N_23
   10  A    between atoms: N_17  and  N_25
   11  A    between atoms: C_18  and  C_22
   12  A    between atoms: C_20  and  C_40
   13  A    between atoms: O_21  and  C_36
   14  A    between atoms: S_24  and  C_27
   15  A    between atoms: C_27  and  C_29
   16  A    between atoms: C_31  and  C_39
   17  A    between atoms: C_37  and  C_39
                            x       y       z     vdW  Elec       q    Type
                         _______ _______ _______ _____ _____    ______ ____

>  <TORSDO>
F 17

$$$$
=
 OpenBabel11072413233D

 44 46  0  0  1  0  0  0  0  0999 V2000
  161.5460  207.6310  154.2710 C   0  0  0  0  0  2  0  0  0  0  0  0
  161.7090  208.1720  156.5340 C   0  0  0  0  0  1  0  0  0  0  0  0
  161.4700  208.7390  155.2120 N   0  0  0  0  0  0  0  0  0  0  0  0
  160.0840  209.1870  155.2100 C   0  0  0  0  0  2  0  0  0  0  0  0
  159.5020  210.8380  157.2060 O   0  0  0  0  0  0  0  0  0  0  0  0
  161.2900  211.5250  155.6750 O   0  0  0  0  0  0  0  0  0  0  0  0
  159.9360  210.8770  155.7640 S   0  0  0  0  0  0  0  0  0  0  0  0
  158.7460  211.8240  154.7970 C   0  0  1  0  0  3  0  0  0  0  0  0
  157.5990  213.5650  152.5860 F   0  0  0  0  0  0  0  0  0  0  0  0
  159.5720  213.4460  151.3020 C   0  0  0  0  0  0  0  0  0  0  0  0
  160.1150  211.1880  152.8960 C   0  0  0  0  0  3  0  0  0  0  0  0
  160.4710  212.4200  150.8520 N   0  0  0  0  0  0  0  0  0  0  0  0
  159.2960  212.1050  153.4250 C   0  0  0  0  0  0  0  0  0  0  0  0
  160.7300  211.3740  151.5730 C   0  0  0  0  0  3  0  0  0  0  0  0
  158.9700  213.3880  152.6820 C   0  0  2  0  0  3  0  0  0  0  0  0
  159.3480  214.4460  150.5710 O   0  0  0  0  0  0  0  0  0  0  0  0
  156.1590  211.8590  155.1800 C   0  0  1  0  0  3  0  0  0  0  0  0
  157.3890  211.1090  154.7560 C   0  0  2  0  0  3  0  0  0  0  0  0
  156.8880  211.0520  156.0690 O   0  0  0  0  0  0  0  0  0  0  0  0
  156.6350  213.4070  156.8940 C   0  0  0  0  0  1  0  0  0  0  0  0
  156.3900  213.2750  155.4610 N   0  0  0  0  0  0  0  0  0  0  0  0
  155.2080  213.8990  155.2430 O   0  0  0  0  0  1  0  0  0  0  0  0
  160.6010  207.8740  153.1080 C   0  0  0  0  0  2  0  0  0  0  0  0
  162.2000  207.9630  151.0110 C   0  0  0  0  0  2  0  0  0  0  0  0
  162.5580  206.9380  150.0240 N   0  0  0  0  0  0  0  0  0  0  0  0
  161.6010  205.9340  150.2340 N   0  0  0  0  0  2  0  0  0  0  0  0
  161.1710  207.2990  151.8590 C   0  0  0  0  0  0  0  0  0  0  0  0
  160.8380  206.1590  151.3780 N   0  0  0  0  0  0  0  0  0  0  0  0
  162.3420  207.4670  148.7440 N   0  0  0  0  0  2  0  0  0  0  0  0
  161.0360  207.2500  146.8310 O   0  0  0  0  0  0  0  0  0  0  0  0
  161.6910  206.6830  147.7420 C   0  0  0  0  0  0  0  0  0  0  0  0
  161.7410  205.2840  147.7860 O   0  0  0  0  0  0  0  0  0  0  0  0
  162.1880  204.5270  146.6670 C   0  0  2  0  0  3  0  0  0  0  0  0
  163.4610  204.9670  146.2870 O   0  0  0  0  0  1  0  0  0  0  0  0
  161.8520  205.1700  144.3720 O   0  0  0  0  0  1  0  0  0  0  0  0
  161.2100  204.6470  145.4990 C   0  0  1  0  0  3  0  0  0  0  0  0
  159.6110  203.2320  144.4420 O   0  0  0  0  0  0  0  0  0  0  0  0
  160.5750  203.3090  145.1970 C   0  0  0  0  0  0  0  0  0  0  0  0
  161.1660  202.0520  145.7570 C   0  0  0  0  0  2  0  0  0  0  0  0
  161.1850  201.6030  148.1660 C   0  0  0  0  0  3  0  0  0  0  0  0
  160.4820  201.7210  147.0410 C   0  0  0  0  0  3  0  0  0  0  0  0
  160.5190  201.3590  149.4510 C   0  0  0  0  0  0  0  0  0  0  0  0
  159.1360  201.2410  149.4900 O   0  0  0  0  0  0  0  0  0  0  0  0
  161.1880  201.2060  150.5130 O   0  0  0  0  0  1  0  0  0  0  0  0
  1  3  1  0  0  0  0
  3  2  1  0  0  0  0
  4  3  1  0  0  0  0
  4  7  1  0  0  0  0
  6  7  2  0  0  0  0
  7  5  2  0  0  0  0
  8  7  1  1  0  0  0
 10 15  1  0  0  0  0
 11 13  2  0  0  0  0
 12 10  1  0  0  0  0
 12 14  2  0  0  0  0
 13  8  1  0  0  0  0
 14 11  1  0  0  0  0
 15  9  1  6  0  0  0
 15 13  1  0  0  0  0
 16 10  2  0  0  0  0
 17 21  1  1  0  0  0
 17 19  1  0  0  0  0
 18  8  1  1  0  0  0
 18 17  1  0  0  0  0
 18 19  1  0  0  0  0
 21 20  1  0  0  0  0
 22 21  1  0  0  0  0
 23  1  1  0  0  0  0
 24 27  1  0  0  0  0
 25 26  1  0  0  0  0
 25 24  1  0  0  0  0
 26 28  1  0  0  0  0
 27 23  1  0  0  0  0
 28 27  2  0  0  0  0
 29 25  1  0  0  0  0
 30 31  2  0  0  0  0
 31 32  1  0  0  0  0
 31 29  1  0  0  0  0
 33 34  1  6  0  0  0
 33 32  1  0  0  0  0
 36 35  1  6  0  0  0
 36 33  1  0  0  0  0
 37 38  2  0  0  0  0
 38 36  1  0  0  0  0
 38 39  1  0  0  0  0
 39 41  1  0  0  0  0
 40 42  1  0  0  0  0
 41 40  2  0  0  0  0
 42 43  2  0  0  0  0
 42 44  1  0  0  0  0
M  END
>  <MODEL>
9

>  <REMARK>
 VINA RESULT:      -5.3      1.968      3.898
  Name = 
  17 active torsions:
  status: ('A' for Active; 'I' for Inactive)
    1  A    between atoms: C_3  and  N_13
    2  A    between atoms: C_3  and  S_24
    3  A    between atoms: C_8  and  C_20
    4  A    between atoms: C_8  and  C_43
    5  A    between atoms: C_11  and  O_21
    6  A    between atoms: C_11  and  C_40
    7  A    between atoms: N_13  and  C_37
    8  A    between atoms: C_15  and  C_27
    9  A    between atoms: C_16  and  N_23
   10  A    between atoms: N_17  and  N_25
   11  A    between atoms: C_18  and  C_22
   12  A    between atoms: C_20  and  C_40
   13  A    between atoms: O_21  and  C_36
   14  A    between atoms: S_24  and  C_27
   15  A    between atoms: C_27  and  C_29
   16  A    between atoms: C_31  and  C_39
   17  A    between atoms: C_37  and  C_39
                            x       y       z     vdW  Elec       q    Type
                         _______ _______ _______ _____ _____    ______ ____

>  <TORSDO>
F 17

$$$$
