=
 OpenBabel11072413193D

 44 47  0  0  1  0  0  0  0  0999 V2000
  161.7980  206.9970  155.2950 C   0  0  0  0  0  2  0  0  0  0  0  0
  160.1360  209.2020  157.1280 O   0  0  0  0  0  0  0  0  0  0  0  0
  159.9640  212.9700  155.8220 O   0  0  0  0  0  0  0  0  0  0  0  0
  161.7360  208.9650  149.9630 C   0  0  2  0  0  3  0  0  0  0  0  0
  162.4450  207.6020  149.9880 C   0  0  1  0  0  3  0  0  0  0  0  0
  161.0950  207.7970  154.1910 C   0  0  2  0  0  3  0  0  0  0  0  0
  159.8150  208.5310  154.6670 C   0  0  1  0  0  3  0  0  0  0  0  0
  162.9270  206.1520  152.5680 O   0  0  0  0  0  0  0  0  0  0  0  0
  158.7220  214.4530  154.2690 C   0  0  0  0  0  2  0  0  0  0  0  0
  160.6620  207.9040  157.2610 C   0  0  0  0  0  2  0  0  0  0  0  0
  159.4910  209.9670  152.6120 C   0  0  0  0  0  0  0  0  0  0  0  0
  160.0090  209.6080  155.7750 C   0  0  2  0  0  3  0  0  0  0  0  0
  162.3770  209.8490  149.0950 O   0  0  0  0  0  1  0  0  0  0  0  0
  158.6950  211.2140  152.3500 C   0  0  0  0  0  2  0  0  0  0  0  0
  160.0870  211.9080  154.9100 C   0  0  2  0  0  3  0  0  0  0  0  0
  157.5640  213.8990  152.3000 O   0  0  0  0  0  0  0  0  0  0  0  0
  161.7270  209.5690  151.3240 C   0  0  0  0  0  3  0  0  0  0  0  0
  160.9320  210.7730  155.4530 C   0  0  0  0  0  2  0  0  0  0  0  0
  161.5700  206.5650  150.6830 C   0  0  0  0  0  2  0  0  0  0  0  0
  161.8320  206.5040  152.1550 C   0  0  0  0  0  0  0  0  0  0  0  0
  159.4670  212.5340  152.6000 C   0  0  1  0  0  3  0  0  0  0  0  0
  158.5140  213.6310  153.0190 C   0  0  0  0  0  0  0  0  0  0  0  0
  158.7320  213.6330  155.5800 C   0  0  1  0  0  3  0  0  0  0  0  0
  160.6340  212.3910  153.5840 C   0  0  0  0  0  2  0  0  0  0  0  0
  160.6040  209.7610  151.9540 C   0  0  0  0  0  0  0  0  0  0  0  0
  159.0300  209.0610  153.5830 O   0  0  0  0  0  0  0  0  0  0  0  0
  162.0140  207.7630  156.5840 C   0  0  0  0  0  2  0  0  0  0  0  0
  160.7120  206.7880  153.1100 C   0  0  0  0  0  2  0  0  0  0  0  0
  157.4790  212.7680  155.8500 C   0  0  2  0  0  3  0  0  0  0  0  0
  155.8800  214.3570  156.9470 O   0  0  0  0  0  1  0  0  0  0  0  0
  155.4750  213.5650  154.8350 O   0  0  0  0  0  0  0  0  0  0  0  0
  156.2250  213.5840  155.8430 C   0  0  0  0  0  0  0  0  0  0  0  0
  157.5870  212.0690  157.1700 C   0  0  0  0  0  3  0  0  0  0  0  0
  157.3900  210.8680  157.2610 O   0  0  0  0  0  0  0  0  0  0  0  0
  162.7200  207.0900  148.5780 C   0  0  0  0  0  2  0  0  0  0  0  0
  160.5320  207.6860  147.8590 O   0  0  0  0  0  0  0  0  0  0  0  0
  161.4460  206.8210  147.8400 C   0  0  0  0  0  0  0  0  0  0  0  0
  162.1910  204.5550  146.9130 C   0  0  0  0  0  0  0  0  0  0  0  0
  163.3630  204.6410  147.3670 O   0  0  0  0  0  0  0  0  0  0  0  0
  161.2390  205.6100  147.1000 N   0  0  0  0  0  2  0  0  0  0  0  0
  161.7970  203.3500  146.1350 C   0  0  0  0  0  2  0  0  0  0  0  0
  160.6250  202.6630  146.8060 C   0  0  0  0  0  2  0  0  0  0  0  0
  161.0910  202.0110  148.0900 C   0  0  0  0  0  2  0  0  0  0  0  0
  160.8740  202.9650  149.2470 C   0  0  0  0  0  1  0  0  0  0  0  0
  1 27  1  0  0  0  0
  2 10  1  0  0  0  0
  4 13  1  6  0  0  0
  4  5  1  0  0  0  0
  4 17  1  0  0  0  0
  5 35  1  6  0  0  0
  5 19  1  0  0  0  0
  6 28  1  6  0  0  0
  6  7  1  0  0  0  0
  6  1  1  0  0  0  0
  7 26  1  6  0  0  0
  7 12  1  0  0  0  0
  9 23  1  0  0  0  0
 11 26  1  0  0  0  0
 12 18  1  6  0  0  0
 12  2  1  0  0  0  0
 14 11  1  0  0  0  0
 15 24  1  6  0  0  0
 15 18  1  0  0  0  0
 15  3  1  0  0  0  0
 16 22  2  0  0  0  0
 17 25  2  0  0  0  0
 19 20  1  0  0  0  0
 20  8  2  0  0  0  0
 20 28  1  0  0  0  0
 21 14  1  1  0  0  0
 21 22  1  0  0  0  0
 21 24  1  0  0  0  0
 22  9  1  0  0  0  0
 23  3  1  0  0  0  0
 23 29  1  6  0  0  0
 25 11  2  0  0  0  0
 27 10  1  0  0  0  0
 29 33  1  1  0  0  0
 31 32  2  0  0  0  0
 32 29  1  0  0  0  0
 32 30  1  0  0  0  0
 33 34  2  0  0  0  0
 37 36  2  0  0  0  0
 37 35  1  0  0  0  0
 38 40  1  0  0  0  0
 38 39  2  0  0  0  0
 40 37  1  0  0  0  0
 41 42  1  0  0  0  0
 41 38  1  0  0  0  0
 42 43  1  0  0  0  0
 43 44  1  0  0  0  0
M  END
>  <MODEL>
1

>  <REMARK>
 VINA RESULT:      -3.0      0.000      0.000
  Name = 
  8 active torsions:
  status: ('A' for Active; 'I' for Inactive)
    1  A    between atoms: C_6  and  C_8
    2  A    between atoms: C_6  and  C_18
    3  A    between atoms: C_6  and  C_37
    4  A    between atoms: C_9  and  C_40
    5  A    between atoms: C_13  and  C_40
    6  A    between atoms: C_23  and  C_33
    7  A    between atoms: C_30  and  C_34
    8  A    between atoms: C_33  and  C_34
                            x       y       z     vdW  Elec       q    Type
                         _______ _______ _______ _____ _____    ______ ____

>  <TORSDO>
F 8

$$$$
=
 OpenBabel11072413193D

 44 47  0  0  1  0  0  0  0  0999 V2000
  160.4580  212.2990  149.7210 C   0  0  0  0  0  2  0  0  0  0  0  0
  160.0010  213.2140  152.8730 O   0  0  0  0  0  0  0  0  0  0  0  0
  158.8370  210.4250  155.4810 O   0  0  0  0  0  0  0  0  0  0  0  0
  161.6290  206.7380  149.8150 C   0  0  2  0  0  3  0  0  0  0  0  0
  161.7130  207.2450  148.3680 C   0  0  1  0  0  3  0  0  0  0  0  0
  161.0560  211.0880  150.4480 C   0  0  2  0  0  3  0  0  0  0  0  0
  161.5280  211.3930  151.8930 C   0  0  1  0  0  3  0  0  0  0  0  0
  161.0300  210.0810  147.6760 O   0  0  0  0  0  0  0  0  0  0  0  0
  159.7050  208.6050  156.9250 C   0  0  0  0  0  2  0  0  0  0  0  0
  160.1570  213.8180  151.6120 C   0  0  0  0  0  2  0  0  0  0  0  0
  161.8920  209.0000  152.6210 C   0  0  0  0  0  0  0  0  0  0  0  0
  160.4310  211.8630  152.8930 C   0  0  2  0  0  3  0  0  0  0  0  0
  161.0360  205.4760  149.8710 O   0  0  0  0  0  1  0  0  0  0  0  0
  162.0220  208.3480  153.9680 C   0  0  0  0  0  2  0  0  0  0  0  0
  159.6010  210.0710  154.3570 C   0  0  2  0  0  3  0  0  0  0  0  0
  161.6450  207.3040  156.6620 O   0  0  0  0  0  0  0  0  0  0  0  0
  160.8190  207.6720  150.6440 C   0  0  0  0  0  3  0  0  0  0  0  0
  159.2690  210.9110  153.1410 C   0  0  0  0  0  2  0  0  0  0  0  0
  162.6300  208.4600  148.2870 C   0  0  0  0  0  2  0  0  0  0  0  0
  161.8840  209.7420  148.4820 C   0  0  0  0  0  0  0  0  0  0  0  0
  160.6850  207.8590  154.5780 C   0  0  1  0  0  3  0  0  0  0  0  0
  160.7470  207.9010  156.0890 C   0  0  0  0  0  0  0  0  0  0  0  0
  159.5830  210.1220  156.6510 C   0  0  1  0  0  3  0  0  0  0  0  0
  159.4530  208.5970  154.0420 C   0  0  0  0  0  2  0  0  0  0  0  0
  161.3680  208.3280  151.6270 C   0  0  0  0  0  0  0  0  0  0  0  0
  162.3120  210.3320  152.4690 O   0  0  0  0  0  0  0  0  0  0  0  0
  159.4220  213.0610  150.5210 C   0  0  0  0  0  2  0  0  0  0  0  0
  162.2600  210.6430  149.6190 C   0  0  0  0  0  2  0  0  0  0  0  0
  160.8800  210.9490  156.8110 C   0  0  2  0  0  3  0  0  0  0  0  0
  159.4160  212.9140  156.2820 O   0  0  0  0  0  0  0  0  0  0  0  0
  161.4660  213.2150  157.2610 O   0  0  0  0  0  1  0  0  0  0  0  0
  160.6070  212.4200  156.8020 C   0  0  0  0  0  0  0  0  0  0  0  0
  161.8520  210.6360  155.7150 C   0  0  0  0  0  3  0  0  0  0  0  0
  163.0350  210.9110  155.8310 O   0  0  0  0  0  0  0  0  0  0  0  0
  162.2880  206.1830  147.4360 C   0  0  0  0  0  2  0  0  0  0  0  0
  160.7660  206.5790  145.6520 O   0  0  0  0  0  0  0  0  0  0  0  0
  161.2730  205.7320  146.4330 C   0  0  0  0  0  0  0  0  0  0  0  0
  161.3890  203.2600  147.0820 C   0  0  0  0  0  0  0  0  0  0  0  0
  162.3310  203.4160  147.9050 O   0  0  0  0  0  0  0  0  0  0  0  0
  160.8680  204.3600  146.3270 N   0  0  0  0  0  2  0  0  0  0  0  0
  160.8320  201.8980  146.8620 C   0  0  0  0  0  2  0  0  0  0  0  0
  160.9950  201.0660  148.1190 C   0  0  0  0  0  2  0  0  0  0  0  0
  160.0740  201.5970  149.1970 C   0  0  0  0  0  2  0  0  0  0  0  0
  160.8360  201.7100  150.5010 C   0  0  0  0  0  1  0  0  0  0  0  0
  1  6  1  0  0  0  0
  1 27  1  0  0  0  0
  2 12  1  0  0  0  0
  3 23  1  0  0  0  0
  4 13  1  6  0  0  0
  4 17  1  0  0  0  0
  5 35  1  6  0  0  0
  5  4  1  0  0  0  0
  6 28  1  6  0  0  0
  6  7  1  0  0  0  0
  7 26  1  1  0  0  0
  7 12  1  0  0  0  0
  8 20  2  0  0  0  0
 10  2  1  0  0  0  0
 11 14  1  0  0  0  0
 12 18  1  6  0  0  0
 15 18  1  6  0  0  0
 15  3  1  0  0  0  0
 17 25  2  0  0  0  0
 19  5  1  0  0  0  0
 19 20  1  0  0  0  0
 20 28  1  0  0  0  0
 21 14  1  6  0  0  0
 21 22  1  0  0  0  0
 22 16  2  0  0  0  0
 22  9  1  0  0  0  0
 23 29  1  6  0  0  0
 23  9  1  0  0  0  0
 24 15  1  0  0  0  0
 24 21  1  0  0  0  0
 25 11  2  0  0  0  0
 26 11  1  0  0  0  0
 27 10  1  0  0  0  0
 29 33  1  6  0  0  0
 30 32  2  0  0  0  0
 32 29  1  0  0  0  0
 32 31  1  0  0  0  0
 33 34  2  0  0  0  0
 36 37  2  0  0  0  0
 37 35  1  0  0  0  0
 38 39  2  0  0  0  0
 40 37  1  0  0  0  0
 40 38  1  0  0  0  0
 41 38  1  0  0  0  0
 41 42  1  0  0  0  0
 42 43  1  0  0  0  0
 43 44  1  0  0  0  0
M  END
>  <MODEL>
2

>  <REMARK>
 VINA RESULT:      -1.7      2.064      4.540
  Name = 
  8 active torsions:
  status: ('A' for Active; 'I' for Inactive)
    1  A    between atoms: C_6  and  C_8
    2  A    between atoms: C_6  and  C_18
    3  A    between atoms: C_6  and  C_37
    4  A    between atoms: C_9  and  C_40
    5  A    between atoms: C_13  and  C_40
    6  A    between atoms: C_23  and  C_33
    7  A    between atoms: C_30  and  C_34
    8  A    between atoms: C_33  and  C_34
                            x       y       z     vdW  Elec       q    Type
                         _______ _______ _______ _____ _____    ______ ____

>  <TORSDO>
F 8

$$$$
=
 OpenBabel11072413193D

 44 47  0  0  1  0  0  0  0  0999 V2000
  161.7290  208.0970  148.5800 C   0  0  0  0  0  2  0  0  0  0  0  0
  162.0560  210.4020  150.9380 O   0  0  0  0  0  0  0  0  0  0  0  0
  160.0510  209.8860  154.3510 O   0  0  0  0  0  0  0  0  0  0  0  0
  160.3080  203.2750  151.2320 C   0  0  2  0  0  3  0  0  0  0  0  0
  160.4580  202.9970  149.7290 C   0  0  1  0  0  3  0  0  0  0  0  0
  161.7970  207.2060  149.8270 C   0  0  2  0  0  3  0  0  0  0  0  0
  162.5030  207.8730  151.0360 C   0  0  1  0  0  3  0  0  0  0  0  0
  161.0390  205.2110  147.7920 O   0  0  0  0  0  0  0  0  0  0  0  0
  160.1640  208.7160  156.5350 C   0  0  0  0  0  2  0  0  0  0  0  0
  162.3320  210.2510  149.5670 C   0  0  0  0  0  2  0  0  0  0  0  0
  161.8380  206.1630  152.7740 C   0  0  0  0  0  0  0  0  0  0  0  0
  161.8390  209.1650  151.5960 C   0  0  2  0  0  3  0  0  0  0  0  0
  159.2250  202.5760  151.7660 O   0  0  0  0  0  1  0  0  0  0  0  0
  161.8040  206.1890  154.2760 C   0  0  0  0  0  2  0  0  0  0  0  0
  160.4570  208.7760  153.5910 C   0  0  2  0  0  3  0  0  0  0  0  0
  161.2840  206.7260  157.0920 O   0  0  0  0  0  0  0  0  0  0  0  0
  160.0880  204.7280  151.4700 C   0  0  0  0  0  3  0  0  0  0  0  0
  160.4090  209.0440  152.1010 C   0  0  0  0  0  2  0  0  0  0  0  0
  161.8050  203.5060  149.2310 C   0  0  0  0  0  2  0  0  0  0  0  0
  161.7320  204.9230  148.7570 C   0  0  0  0  0  0  0  0  0  0  0  0
  160.4600  206.6670  154.8800 C   0  0  1  0  0  3  0  0  0  0  0  0
  160.6910  207.3370  156.2160 C   0  0  0  0  0  0  0  0  0  0  0  0
  160.7010  209.8340  155.6120 C   0  0  1  0  0  3  0  0  0  0  0  0
  159.6370  207.5520  153.9380 C   0  0  0  0  0  2  0  0  0  0  0  0
  160.9700  205.4310  152.1220 C   0  0  0  0  0  0  0  0  0  0  0  0
  162.7890  206.9510  152.1040 O   0  0  0  0  0  0  0  0  0  0  0  0
  161.2280  209.5030  148.8410 C   0  0  0  0  0  2  0  0  0  0  0  0
  162.5850  205.9620  149.4200 C   0  0  0  0  0  2  0  0  0  0  0  0
  162.2390  209.9780  155.5410 C   0  0  2  0  0  3  0  0  0  0  0  0
  162.1240  211.8270  157.2310 O   0  0  0  0  0  0  0  0  0  0  0  0
  163.8540  210.3240  157.2610 O   0  0  0  0  0  1  0  0  0  0  0  0
  162.7850  210.7130  156.7250 C   0  0  0  0  0  0  0  0  0  0  0  0
  162.6520  210.7030  154.2970 C   0  0  0  0  0  3  0  0  0  0  0  0
  163.8250  210.7620  153.9680 O   0  0  0  0  0  0  0  0  0  0  0  0
  160.4010  201.5020  149.4290 C   0  0  0  0  0  2  0  0  0  0  0  0
  162.5400  200.6220  148.8780 O   0  0  0  0  0  0  0  0  0  0  0  0
  161.4600  201.1030  148.4490 C   0  0  0  0  0  0  0  0  0  0  0  0
  160.0910  201.7040  146.3730 C   0  0  0  0  0  0  0  0  0  0  0  0
  159.0470  201.9870  147.0190 O   0  0  0  0  0  0  0  0  0  0  0  0
  161.2750  201.2430  147.0340 N   0  0  0  0  0  2  0  0  0  0  0  0
  160.0820  201.8130  144.8890 C   0  0  0  0  0  2  0  0  0  0  0  0
  159.9290  203.2650  144.4800 C   0  0  0  0  0  2  0  0  0  0  0  0
  161.1560  204.0400  144.9090 C   0  0  0  0  0  2  0  0  0  0  0  0
  161.2070  205.3570  144.1620 C   0  0  0  0  0  1  0  0  0  0  0  0
  1 27  1  0  0  0  0
  2 12  1  0  0  0  0
  3 23  1  0  0  0  0
  4 17  1  0  0  0  0
  4 13  1  6  0  0  0
  5 35  1  1  0  0  0
  5  4  1  0  0  0  0
  6  1  1  6  0  0  0
  6  7  1  0  0  0  0
  7 12  1  0  0  0  0
  7 26  1  1  0  0  0
  8 20  2  0  0  0  0
 10  2  1  0  0  0  0
 11 14  1  0  0  0  0
 12 18  1  6  0  0  0
 14 21  1  0  0  0  0
 15 18  1  6  0  0  0
 15 24  1  0  0  0  0
 15  3  1  0  0  0  0
 17 25  2  0  0  0  0
 19  5  1  0  0  0  0
 20 19  1  0  0  0  0
 20 28  1  0  0  0  0
 21 24  1  6  0  0  0
 21 22  1  0  0  0  0
 22  9  1  0  0  0  0
 22 16  2  0  0  0  0
 23 29  1  6  0  0  0
 23  9  1  0  0  0  0
 25 11  2  0  0  0  0
 26 11  1  0  0  0  0
 27 10  1  0  0  0  0
 28  6  1  0  0  0  0
 29 33  1  6  0  0  0
 29 32  1  0  0  0  0
 32 30  2  0  0  0  0
 32 31  1  0  0  0  0
 34 33  2  0  0  0  0
 37 36  2  0  0  0  0
 37 35  1  0  0  0  0
 38 39  2  0  0  0  0
 38 40  1  0  0  0  0
 40 37  1  0  0  0  0
 41 38  1  0  0  0  0
 42 41  1  0  0  0  0
 42 43  1  0  0  0  0
 44 43  1  0  0  0  0
M  END
>  <MODEL>
3

>  <REMARK>
 VINA RESULT:      -0.1      2.947      5.756
  Name = 
  8 active torsions:
  status: ('A' for Active; 'I' for Inactive)
    1  A    between atoms: C_6  and  C_8
    2  A    between atoms: C_6  and  C_18
    3  A    between atoms: C_6  and  C_37
    4  A    between atoms: C_9  and  C_40
    5  A    between atoms: C_13  and  C_40
    6  A    between atoms: C_23  and  C_33
    7  A    between atoms: C_30  and  C_34
    8  A    between atoms: C_33  and  C_34
                            x       y       z     vdW  Elec       q    Type
                         _______ _______ _______ _____ _____    ______ ____

>  <TORSDO>
F 8

$$$$
