=
 OpenBabel11072412063D

 50 56  0  0  1  0  0  0  0  0999 V2000
  159.2820  207.9180  156.2270 N   0  0  0  0  0  0  0  0  0  0  0  0
  160.9230  207.7290  154.7780 C   0  0  0  0  0  0  0  0  0  0  0  0
  160.0200  207.0610  155.6420 N   0  0  0  0  0  0  0  0  0  0  0  0
  159.6030  209.2780  155.8060 C   0  0  0  0  0  2  0  0  0  0  0  0
  160.7080  209.0300  154.8370 C   0  0  0  0  0  0  0  0  0  0  0  0
  160.7910  203.2100  151.9390 C   0  0  0  0  0  3  0  0  0  0  0  0
  161.9900  207.8540  152.5560 C   0  0  0  0  0  2  0  0  0  0  0  0
  161.6470  204.3440  151.4630 C   0  0  1  0  0  3  0  0  0  0  0  0
  161.7200  206.6120  149.2380 C   0  0  2  0  0  3  0  0  0  0  0  0
  160.1420  200.9410  148.3380 C   0  0  0  0  0  1  0  0  0  0  0  0
  161.4300  202.7170  147.4250 O   0  0  0  0  0  0  0  0  0  0  0  0
  161.9590  206.8380  151.4530 C   0  0  2  0  0  3  0  0  0  0  0  0
  161.6410  204.1910  149.9170 C   0  0  1  0  0  3  0  0  0  0  0  0
  160.9440  202.9330  149.7010 N   0  0  0  0  0  0  0  0  0  0  0  0
  160.4400  202.4360  150.9300 C   0  0  0  0  0  3  0  0  0  0  0  0
  160.9310  205.3070  149.1450 C   0  0  0  0  0  2  0  0  0  0  0  0
  161.2870  207.3650  150.3450 O   0  0  0  0  0  0  0  0  0  0  0  0
  161.3480  205.7130  153.4830 N   0  0  0  0  0  2  0  0  0  0  0  0
  161.8520  207.0420  153.8260 C   0  0  2  0  0  3  0  0  0  0  0  0
  160.8710  202.2380  148.4480 C   0  0  0  0  0  0  0  0  0  0  0  0
  161.1670  205.6850  152.0340 C   0  0  2  0  0  3  0  0  0  0  0  0
  161.5830  207.3740  147.9920 N   0  0  0  0  0  0  0  0  0  0  0  0
  162.1090  206.5480  146.9140 C   0  0  0  0  0  2  0  0  0  0  0  0
  160.3450  206.7280  145.3130 O   0  0  0  0  0  1  0  0  0  0  0  0
  160.9750  205.8450  146.1920 C   0  0  0  0  0  2  0  0  0  0  0  0
  162.3620  208.4850  148.0700 O   0  0  0  0  0  0  0  0  0  0  0  0
  162.1110  210.2210  149.6710 C   0  0  0  0  0  2  0  0  0  0  0  0
  161.4990  209.5050  148.4840 C   0  0  0  0  0  3  0  0  0  0  0  0
  162.1860  210.8410  148.2910 C   0  0  0  0  0  2  0  0  0  0  0  0
  161.3620  210.0110  154.0240 N   0  0  0  0  0  2  0  0  0  0  0  0
  160.9140  211.3930  153.9630 C   0  0  0  0  0  2  0  0  0  0  0  0
  160.1330  211.6220  152.6780 C   0  0  0  0  0  2  0  0  0  0  0  0
  157.5760  211.4000  153.8480 O   0  0  0  0  0  0  0  0  0  0  0  0
  159.2010  212.7330  152.8350 N   0  0  0  0  0  0  0  0  0  0  0  0
  158.0310  212.5630  153.6500 C   0  0  0  0  0  0  0  0  0  0  0  0
  157.3510  213.7060  154.2970 C   0  0  0  0  0  0  0  0  0  0  0  0
  156.2110  214.0570  153.8860 O   0  0  0  0  0  0  0  0  0  0  0  0
  157.9670  214.4520  155.4500 C   0  0  2  0  0  3  0  0  0  0  0  0
  158.7800  213.5850  156.2060 O   0  0  0  0  0  0  0  0  0  0  0  0
  157.5840  213.9910  156.8270 C   0  0  2  0  0  3  0  0  0  0  0  0
  157.0090  211.6790  156.9290 O   0  0  0  0  0  0  0  0  0  0  0  0
  155.1580  213.1190  157.0260 C   0  0  0  0  0  1  0  0  0  0  0  0
  156.6160  212.8380  156.9120 C   0  0  0  0  0  0  0  0  0  0  0  0
  159.3440  213.9040  151.9740 C   0  0  0  0  0  2  0  0  0  0  0  0
  159.6800  213.5060  150.6760 O   0  0  0  0  0  0  0  0  0  0  0  0
  158.4930  213.6340  149.9500 C   0  0  0  0  0  2  0  0  0  0  0  0
  158.7620  213.4310  148.4650 C   0  0  0  0  0  2  0  0  0  0  0  0
  157.7390  212.9720  146.2670 C   0  0  0  0  0  2  0  0  0  0  0  0
  156.8900  214.0130  146.9590 C   0  0  0  0  0  2  0  0  0  0  0  0
  157.5250  212.9030  147.7640 C   0  0  0  0  0  3  0  0  0  0  0  0
  2  5  2  0  0  0  0
  2  3  1  0  0  0  0
  3  1  2  0  0  0  0
  4  1  1  0  0  0  0
  5  4  1  0  0  0  0
  7 19  1  0  0  0  0
  8  6  1  1  0  0  0
  8 21  1  0  0  0  0
  9 22  1  6  0  0  0
  9 17  1  0  0  0  0
 10 20  1  0  0  0  0
 11 20  2  0  0  0  0
 12 21  1  0  0  0  0
 12  7  1  1  0  0  0
 13 16  1  6  0  0  0
 13  8  1  0  0  0  0
 14 13  1  0  0  0  0
 14 15  1  0  0  0  0
 15  6  2  0  0  0  0
 16  9  1  0  0  0  0
 17 12  1  0  0  0  0
 18 19  1  0  0  0  0
 19  2  1  1  0  0  0
 20 14  1  0  0  0  0
 21 18  1  1  0  0  0
 22 26  1  0  0  0  0
 23 22  1  0  0  0  0
 24 25  1  0  0  0  0
 25 23  1  0  0  0  0
 26 28  1  0  0  0  0
 28 27  1  0  0  0  0
 29 28  1  0  0  0  0
 29 27  1  0  0  0  0
 30  5  1  0  0  0  0
 31 30  1  0  0  0  0
 32 34  1  0  0  0  0
 32 31  1  0  0  0  0
 34 35  1  0  0  0  0
 35 33  2  0  0  0  0
 35 36  1  0  0  0  0
 37 36  2  0  0  0  0
 38 36  1  6  0  0  0
 38 39  1  0  0  0  0
 38 40  1  0  0  0  0
 39 40  1  0  0  0  0
 40 43  1  6  0  0  0
 43 41  2  0  0  0  0
 43 42  1  0  0  0  0
 44 34  1  0  0  0  0
 45 44  1  0  0  0  0
 46 45  1  0  0  0  0
 47 46  1  0  0  0  0
 48 49  1  0  0  0  0
 48 50  1  0  0  0  0
 49 50  1  0  0  0  0
 50 47  1  0  0  0  0
M  END
>  <MODEL>
1

>  <REMARK>
 VINA RESULT:      -6.4      0.000      0.000
  Name = 
  18 active torsions:
  status: ('A' for Active; 'I' for Inactive)
    1  A    between atoms: C_1  and  C_37
    2  A    between atoms: C_1  and  O_42
    3  A    between atoms: C_9  and  C_44
    4  A    between atoms: C_12  and  N_17
    5  A    between atoms: N_13  and  C_18
    6  A    between atoms: N_13  and  C_49
    7  A    between atoms: C_14  and  C_27
    8  A    between atoms: C_15  and  C_24
    9  A    between atoms: O_16  and  N_17
   10  A    between atoms: O_16  and  C_20
   11  A    between atoms: N_17  and  C_27
   12  A    between atoms: C_18  and  O_42
   13  A    between atoms: C_24  and  C_43
   14  A    between atoms: C_28  and  C_35
   15  A    between atoms: C_33  and  N_45
   16  A    between atoms: C_36  and  C_37
   17  A    between atoms: N_45  and  C_47
   18  A    between atoms: C_47  and  C_49
                            x       y       z     vdW  Elec       q    Type
                         _______ _______ _______ _____ _____    ______ ____

>  <TORSDO>
F 18

$$$$
=
 OpenBabel11072412063D

 50 56  0  0  1  0  0  0  0  0999 V2000
  159.3310  208.1940  156.2140 N   0  0  0  0  0  0  0  0  0  0  0  0
  160.9520  207.8250  154.7760 C   0  0  0  0  0  0  0  0  0  0  0  0
  160.0680  207.2720  155.7370 N   0  0  0  0  0  2  0  0  0  0  0  0
  159.6340  209.4880  155.6100 C   0  0  0  0  0  3  0  0  0  0  0  0
  160.7260  209.1200  154.6640 C   0  0  0  0  0  0  0  0  0  0  0  0
  160.6130  203.1910  152.1460 C   0  0  0  0  0  3  0  0  0  0  0  0
  162.1380  207.7570  152.6130 C   0  0  0  0  0  2  0  0  0  0  0  0
  161.5780  204.2320  151.6660 C   0  0  1  0  0  3  0  0  0  0  0  0
  161.9420  206.3730  149.3460 C   0  0  2  0  0  3  0  0  0  0  0  0
  159.9750  200.7990  148.6230 C   0  0  0  0  0  1  0  0  0  0  0  0
  161.4430  202.4250  147.7020 O   0  0  0  0  0  0  0  0  0  0  0  0
  162.0850  206.6920  151.5580 C   0  0  2  0  0  3  0  0  0  0  0  0
  161.6400  204.0020  150.1310 C   0  0  1  0  0  3  0  0  0  0  0  0
  160.8590  202.7910  149.9350 N   0  0  0  0  0  0  0  0  0  0  0  0
  160.2560  202.3960  151.1560 C   0  0  0  0  0  3  0  0  0  0  0  0
  161.0600  205.1290  149.2700 C   0  0  0  0  0  2  0  0  0  0  0  0
  161.5130  207.2110  150.3920 O   0  0  0  0  0  0  0  0  0  0  0  0
  161.2840  205.7200  153.6010 N   0  0  0  0  0  2  0  0  0  0  0  0
  161.8720  207.0230  153.9100 C   0  0  2  0  0  3  0  0  0  0  0  0
  160.7970  202.0420  148.7130 C   0  0  0  0  0  0  0  0  0  0  0  0
  161.1760  205.6330  152.1480 C   0  0  2  0  0  3  0  0  0  0  0  0
  161.9290  207.0800  148.0610 N   0  0  0  0  0  0  0  0  0  0  0  0
  161.2080  208.3310  148.2570 C   0  0  0  0  0  2  0  0  0  0  0  0
  162.0840  210.0800  149.6280 O   0  0  0  0  0  1  0  0  0  0  0  0
  162.1840  209.4870  148.3680 C   0  0  0  0  0  2  0  0  0  0  0  0
  161.2270  206.3420  147.1600 O   0  0  0  0  0  0  0  0  0  0  0  0
  161.8430  204.6300  145.6350 C   0  0  0  0  0  2  0  0  0  0  0  0
  162.1490  206.0180  146.1600 C   0  0  0  0  0  3  0  0  0  0  0  0
  161.4120  205.8490  144.8480 C   0  0  0  0  0  2  0  0  0  0  0  0
  161.3590  209.9880  153.7170 N   0  0  0  0  0  2  0  0  0  0  0  0
  160.9370  211.3660  153.5220 C   0  0  0  0  0  2  0  0  0  0  0  0
  159.9240  211.4360  152.3890 C   0  0  0  0  0  2  0  0  0  0  0  0
  157.3690  211.4770  153.5820 O   0  0  0  0  0  0  0  0  0  0  0  0
  159.0950  212.6290  152.5150 N   0  0  0  0  0  0  0  0  0  0  0  0
  157.9220  212.5880  153.3430 C   0  0  0  0  0  0  0  0  0  0  0  0
  157.3500  213.8070  153.9560 C   0  0  0  0  0  0  0  0  0  0  0  0
  156.3050  214.3120  153.4620 O   0  0  0  0  0  0  0  0  0  0  0  0
  157.9640  214.4530  155.1680 C   0  0  2  0  0  3  0  0  0  0  0  0
  158.4780  213.4660  156.0330 O   0  0  0  0  0  0  0  0  0  0  0  0
  157.3270  214.1350  156.4910 C   0  0  2  0  0  3  0  0  0  0  0  0
  155.0080  213.6350  156.2430 O   0  0  0  0  0  0  0  0  0  0  0  0
  156.3410  211.7520  156.6710 C   0  0  0  0  0  1  0  0  0  0  0  0
  156.1350  213.2120  156.4660 C   0  0  0  0  0  0  0  0  0  0  0  0
  159.3320  213.7540  151.6150 C   0  0  0  0  0  2  0  0  0  0  0  0
  158.8140  213.4710  150.3470 O   0  0  0  0  0  0  0  0  0  0  0  0
  159.5420  214.2870  149.4780 C   0  0  0  0  0  2  0  0  0  0  0  0
  160.8270  213.5870  149.0570 C   0  0  0  0  0  2  0  0  0  0  0  0
  161.9710  212.9060  146.9780 C   0  0  0  0  0  2  0  0  0  0  0  0
  160.8900  213.8950  146.6050 C   0  0  0  0  0  2  0  0  0  0  0  0
  160.6480  212.9000  147.7160 C   0  0  0  0  0  3  0  0  0  0  0  0
  2  3  1  0  0  0  0
  3  1  1  0  0  0  0
  4  1  2  0  0  0  0
  5  2  2  0  0  0  0
  5  4  1  0  0  0  0
  7 19  1  0  0  0  0
  8  6  1  1  0  0  0
  8 21  1  0  0  0  0
  9 22  1  6  0  0  0
  9 17  1  0  0  0  0
 10 20  1  0  0  0  0
 11 20  2  0  0  0  0
 12 21  1  0  0  0  0
 12  7  1  1  0  0  0
 13 16  1  6  0  0  0
 13  8  1  0  0  0  0
 14 13  1  0  0  0  0
 14 15  1  0  0  0  0
 15  6  2  0  0  0  0
 16  9  1  0  0  0  0
 17 12  1  0  0  0  0
 18 19  1  0  0  0  0
 19  2  1  1  0  0  0
 20 14  1  0  0  0  0
 21 18  1  1  0  0  0
 22 23  1  0  0  0  0
 23 25  1  0  0  0  0
 25 24  1  0  0  0  0
 26 22  1  0  0  0  0
 27 28  1  0  0  0  0
 28 26  1  0  0  0  0
 29 27  1  0  0  0  0
 29 28  1  0  0  0  0
 30  5  1  0  0  0  0
 31 30  1  0  0  0  0
 32 34  1  0  0  0  0
 32 31  1  0  0  0  0
 34 35  1  0  0  0  0
 35 33  2  0  0  0  0
 35 36  1  0  0  0  0
 37 36  2  0  0  0  0
 38 36  1  6  0  0  0
 38 39  1  0  0  0  0
 38 40  1  0  0  0  0
 39 40  1  0  0  0  0
 40 43  1  6  0  0  0
 41 43  2  0  0  0  0
 43 42  1  0  0  0  0
 44 34  1  0  0  0  0
 45 44  1  0  0  0  0
 46 45  1  0  0  0  0
 47 46  1  0  0  0  0
 48 50  1  0  0  0  0
 49 48  1  0  0  0  0
 49 50  1  0  0  0  0
 50 47  1  0  0  0  0
M  END
>  <MODEL>
2

>  <REMARK>
 VINA RESULT:      -6.1      1.145      2.168
  Name = 
  18 active torsions:
  status: ('A' for Active; 'I' for Inactive)
    1  A    between atoms: C_1  and  C_37
    2  A    between atoms: C_1  and  O_42
    3  A    between atoms: C_9  and  C_44
    4  A    between atoms: C_12  and  N_17
    5  A    between atoms: N_13  and  C_18
    6  A    between atoms: N_13  and  C_49
    7  A    between atoms: C_14  and  C_27
    8  A    between atoms: C_15  and  C_24
    9  A    between atoms: O_16  and  N_17
   10  A    between atoms: O_16  and  C_20
   11  A    between atoms: N_17  and  C_27
   12  A    between atoms: C_18  and  O_42
   13  A    between atoms: C_24  and  C_43
   14  A    between atoms: C_28  and  C_35
   15  A    between atoms: C_33  and  N_45
   16  A    between atoms: C_36  and  C_37
   17  A    between atoms: N_45  and  C_47
   18  A    between atoms: C_47  and  C_49
                            x       y       z     vdW  Elec       q    Type
                         _______ _______ _______ _____ _____    ______ ____

>  <TORSDO>
F 18

$$$$
=
 OpenBabel11072412063D

 50 56  0  0  1  0  0  0  0  0999 V2000
  159.3860  212.7680  146.9900 N   0  0  0  0  0  0  0  0  0  0  0  0
  160.5160  212.7150  148.8740 C   0  0  0  0  0  0  0  0  0  0  0  0
  159.4640  213.3140  148.1370 N   0  0  0  0  0  2  0  0  0  0  0  0
  160.3860  211.7170  146.8280 C   0  0  0  0  0  3  0  0  0  0  0  0
  161.0790  211.7680  148.1460 C   0  0  0  0  0  0  0  0  0  0  0  0
  157.6180  213.9060  153.1950 C   0  0  0  0  0  3  0  0  0  0  0  0
  161.3500  211.7620  150.9920 C   0  0  0  0  0  2  0  0  0  0  0  0
  158.9550  213.2540  153.3730 C   0  0  1  0  0  3  0  0  0  0  0  0
  160.2510  210.4460  154.1040 C   0  0  2  0  0  3  0  0  0  0  0  0
  155.5950  212.9240  156.8680 C   0  0  0  0  0  1  0  0  0  0  0  0
  157.6400  211.7780  157.2580 O   0  0  0  0  0  0  0  0  0  0  0  0
  160.6770  211.7480  152.3320 C   0  0  2  0  0  3  0  0  0  0  0  0
  158.7900  212.4150  154.6700 C   0  0  1  0  0  3  0  0  0  0  0  0
  157.4770  212.7990  155.1620 N   0  0  0  0  0  0  0  0  0  0  0  0
  156.8330  213.6460  154.2240 C   0  0  0  0  0  3  0  0  0  0  0  0
  158.8420  210.8950  154.4840 C   0  0  0  0  0  2  0  0  0  0  0  0
  160.3960  210.4290  152.7040 O   0  0  0  0  0  0  0  0  0  0  0  0
  159.6120  213.4450  151.0120 N   0  0  0  0  0  2  0  0  0  0  0  0
  160.8170  213.0050  150.3100 C   0  0  2  0  0  3  0  0  0  0  0  0
  156.9530  212.4640  156.4540 C   0  0  0  0  0  0  0  0  0  0  0  0
  159.3850  212.5040  152.1040 C   0  0  2  0  0  3  0  0  0  0  0  0
  160.5340  209.1280  154.6820 N   0  0  0  0  0  0  0  0  0  0  0  0
  159.5320  208.8770  155.7090 C   0  0  0  0  0  2  0  0  0  0  0  0
  158.8360  206.6260  156.1030 O   0  0  0  0  0  1  0  0  0  0  0  0
  159.8220  207.5650  156.4140 C   0  0  0  0  0  2  0  0  0  0  0  0
  161.7460  209.1700  155.2970 O   0  0  0  0  0  0  0  0  0  0  0  0
  162.7420  210.5410  156.9600 C   0  0  0  0  0  2  0  0  0  0  0  0
  161.9010  210.5000  155.7000 C   0  0  0  0  0  3  0  0  0  0  0  0
  163.3670  210.8710  155.6210 C   0  0  0  0  0  2  0  0  0  0  0  0
  162.1070  210.8810  148.6020 N   0  0  0  0  0  2  0  0  0  0  0  0
  162.1420  209.4760  148.2290 C   0  0  0  0  0  2  0  0  0  0  0  0
  161.3070  208.6660  149.2110 C   0  0  0  0  0  2  0  0  0  0  0  0
  160.0110  206.6600  147.7110 O   0  0  0  0  0  0  0  0  0  0  0  0
  161.7100  207.2640  149.1920 N   0  0  0  0  0  0  0  0  0  0  0  0
  161.1330  206.3780  148.2190 C   0  0  0  0  0  0  0  0  0  0  0  0
  161.8260  205.1530  147.7650 C   0  0  0  0  0  0  0  0  0  0  0  0
  161.4820  204.0380  148.2450 O   0  0  0  0  0  0  0  0  0  0  0  0
  162.9140  205.1900  146.7270 C   0  0  2  0  0  3  0  0  0  0  0  0
  162.5560  206.0680  145.6840 O   0  0  0  0  0  0  0  0  0  0  0  0
  162.5490  204.6990  145.3550 C   0  0  2  0  0  3  0  0  0  0  0  0
  160.2360  204.9760  144.8420 O   0  0  0  0  0  0  0  0  0  0  0  0
  160.8380  202.7600  145.3240 C   0  0  0  0  0  1  0  0  0  0  0  0
  161.1350  204.2100  145.1630 C   0  0  0  0  0  0  0  0  0  0  0  0
  162.4960  206.7380  150.3040 C   0  0  0  0  0  2  0  0  0  0  0  0
  162.2160  207.4560  151.4710 O   0  0  0  0  0  0  0  0  0  0  0  0
  161.1070  206.8100  152.0230 C   0  0  0  0  0  2  0  0  0  0  0  0
  161.4950  205.4170  152.4990 C   0  0  0  0  0  2  0  0  0  0  0  0
  160.7500  203.0640  152.4240 C   0  0  0  0  0  2  0  0  0  0  0  0
  161.8230  203.2390  151.3740 C   0  0  0  0  0  2  0  0  0  0  0  0
  160.8380  204.3550  151.6360 C   0  0  0  0  0  3  0  0  0  0  0  0
  1  3  1  0  0  0  0
  3  2  1  0  0  0  0
  4  1  2  0  0  0  0
  4  5  1  0  0  0  0
  5 30  1  0  0  0  0
  5  2  2  0  0  0  0
  6 15  2  0  0  0  0
  8  6  1  6  0  0  0
  8 13  1  0  0  0  0
  9 16  1  0  0  0  0
  9 22  1  6  0  0  0
 12  7  1  6  0  0  0
 12 17  1  0  0  0  0
 13 16  1  6  0  0  0
 13 14  1  0  0  0  0
 14 20  1  0  0  0  0
 15 14  1  0  0  0  0
 17  9  1  0  0  0  0
 19  2  1  6  0  0  0
 19  7  1  0  0  0  0
 19 18  1  0  0  0  0
 20 10  1  0  0  0  0
 20 11  2  0  0  0  0
 21 18  1  6  0  0  0
 21 12  1  0  0  0  0
 21  8  1  0  0  0  0
 22 26  1  0  0  0  0
 22 23  1  0  0  0  0
 23 25  1  0  0  0  0
 24 25  1  0  0  0  0
 26 28  1  0  0  0  0
 28 27  1  0  0  0  0
 29 28  1  0  0  0  0
 29 27  1  0  0  0  0
 31 30  1  0  0  0  0
 31 32  1  0  0  0  0
 33 35  2  0  0  0  0
 34 32  1  0  0  0  0
 34 44  1  0  0  0  0
 35 34  1  0  0  0  0
 36 35  1  0  0  0  0
 36 37  2  0  0  0  0
 38 36  1  1  0  0  0
 39 38  1  0  0  0  0
 40 43  1  1  0  0  0
 40 39  1  0  0  0  0
 40 38  1  0  0  0  0
 41 43  2  0  0  0  0
 43 42  1  0  0  0  0
 44 45  1  0  0  0  0
 45 46  1  0  0  0  0
 46 47  1  0  0  0  0
 49 50  1  0  0  0  0
 49 48  1  0  0  0  0
 50 48  1  0  0  0  0
 50 47  1  0  0  0  0
M  END
>  <MODEL>
3

>  <REMARK>
 VINA RESULT:      -5.7      2.298     10.093
  Name = 
  18 active torsions:
  status: ('A' for Active; 'I' for Inactive)
    1  A    between atoms: C_1  and  C_37
    2  A    between atoms: C_1  and  O_42
    3  A    between atoms: C_9  and  C_44
    4  A    between atoms: C_12  and  N_17
    5  A    between atoms: N_13  and  C_18
    6  A    between atoms: N_13  and  C_49
    7  A    between atoms: C_14  and  C_27
    8  A    between atoms: C_15  and  C_24
    9  A    between atoms: O_16  and  N_17
   10  A    between atoms: O_16  and  C_20
   11  A    between atoms: N_17  and  C_27
   12  A    between atoms: C_18  and  O_42
   13  A    between atoms: C_24  and  C_43
   14  A    between atoms: C_28  and  C_35
   15  A    between atoms: C_33  and  N_45
   16  A    between atoms: C_36  and  C_37
   17  A    between atoms: N_45  and  C_47
   18  A    between atoms: C_47  and  C_49
                            x       y       z     vdW  Elec       q    Type
                         _______ _______ _______ _____ _____    ______ ____

>  <TORSDO>
F 18

$$$$
=
 OpenBabel11072412063D

 50 56  0  0  1  0  0  0  0  0999 V2000
  160.4640  212.8270  147.4130 N   0  0  0  0  0  0  0  0  0  0  0  0
  161.3760  211.3490  148.7580 C   0  0  0  0  0  0  0  0  0  0  0  0
  161.1880  211.7810  147.4220 N   0  0  0  0  0  0  0  0  0  0  0  0
  160.0870  213.2290  148.7650 C   0  0  0  0  0  2  0  0  0  0  0  0
  160.7540  212.1740  149.5790 C   0  0  0  0  0  0  0  0  0  0  0  0
  160.9880  207.1570  152.0420 C   0  0  0  0  0  3  0  0  0  0  0  0
  162.5340  209.3070  147.9960 C   0  0  0  0  0  2  0  0  0  0  0  0
  161.9500  207.0970  150.8950 C   0  0  1  0  0  3  0  0  0  0  0  0
  162.2930  205.7620  148.0320 C   0  0  2  0  0  3  0  0  0  0  0  0
  160.2980  202.9970  152.9140 C   0  0  0  0  0  1  0  0  0  0  0  0
  161.7600  202.7450  151.0580 O   0  0  0  0  0  0  0  0  0  0  0  0
  162.4640  207.9270  148.5790 C   0  0  2  0  0  3  0  0  0  0  0  0
  161.9920  205.5890  150.5240 C   0  0  1  0  0  3  0  0  0  0  0  0
  161.2050  204.9570  151.5700 N   0  0  0  0  0  0  0  0  0  0  0  0
  160.6150  205.9440  152.4010 C   0  0  0  0  0  3  0  0  0  0  0  0
  161.4060  205.2300  149.1550 C   0  0  0  0  0  2  0  0  0  0  0  0
  161.8800  207.0540  147.6560 O   0  0  0  0  0  0  0  0  0  0  0  0
  161.6860  209.4560  150.2570 N   0  0  0  0  0  2  0  0  0  0  0  0
  162.2820  210.2300  149.1690 C   0  0  2  0  0  3  0  0  0  0  0  0
  161.1250  203.5430  151.7980 C   0  0  0  0  0  0  0  0  0  0  0  0
  161.5590  208.0810  149.7840 C   0  0  2  0  0  3  0  0  0  0  0  0
  162.2660  204.8430  146.8890 N   0  0  0  0  0  0  0  0  0  0  0  0
  162.1410  205.6500  145.6820 C   0  0  0  0  0  2  0  0  0  0  0  0
  160.6070  204.4790  144.2750 O   0  0  0  0  0  1  0  0  0  0  0  0
  160.7260  205.5670  145.1410 C   0  0  0  0  0  2  0  0  0  0  0  0
  161.1540  204.0660  146.9760 O   0  0  0  0  0  0  0  0  0  0  0  0
  160.6670  201.8620  147.7130 C   0  0  0  0  0  2  0  0  0  0  0  0
  161.6280  202.7510  146.9490 C   0  0  0  0  0  3  0  0  0  0  0  0
  160.6370  201.8850  146.2000 C   0  0  0  0  0  2  0  0  0  0  0  0
  160.8090  212.1110  151.0090 N   0  0  0  0  0  2  0  0  0  0  0  0
  159.9330  212.9060  151.8560 C   0  0  0  0  0  2  0  0  0  0  0  0
  158.7940  212.0380  152.3710 C   0  0  0  0  0  2  0  0  0  0  0  0
  158.4690  214.0840  154.2840 O   0  0  0  0  0  0  0  0  0  0  0  0
  158.9090  211.8420  153.8110 N   0  0  0  0  0  0  0  0  0  0  0  0
  158.4940  212.8910  154.7010 C   0  0  0  0  0  0  0  0  0  0  0  0
  158.0650  212.6190  156.0900 C   0  0  0  0  0  0  0  0  0  0  0  0
  158.6080  213.2510  157.0370 O   0  0  0  0  0  0  0  0  0  0  0  0
  156.9800  211.6260  156.4090 C   0  0  2  0  0  3  0  0  0  0  0  0
  156.0690  211.5460  155.3370 O   0  0  0  0  0  0  0  0  0  0  0  0
  155.5830  212.1690  156.5030 C   0  0  2  0  0  3  0  0  0  0  0  0
  155.5470  214.4520  157.1930 O   0  0  0  0  0  0  0  0  0  0  0  0
  155.1220  214.1490  154.9050 C   0  0  0  0  0  1  0  0  0  0  0  0
  155.4130  213.6500  156.2780 C   0  0  0  0  0  0  0  0  0  0  0  0
  159.6610  210.6950  154.3120 C   0  0  0  0  0  2  0  0  0  0  0  0
  160.9480  211.0930  154.6870 O   0  0  0  0  0  0  0  0  0  0  0  0
  161.0210  210.8090  156.0530 C   0  0  0  0  0  2  0  0  0  0  0  0
  161.3710  209.3420  156.2650 C   0  0  0  0  0  2  0  0  0  0  0  0
  160.5980  207.2090  157.2370 C   0  0  0  0  0  2  0  0  0  0  0  0
  159.9940  207.3300  155.8570 C   0  0  0  0  0  2  0  0  0  0  0  0
  160.1530  208.5610  156.7180 C   0  0  0  0  0  3  0  0  0  0  0  0
  1  3  2  0  0  0  0
  1  4  1  0  0  0  0
  2  5  2  0  0  0  0
  3  2  1  0  0  0  0
  4  5  1  0  0  0  0
  5 30  1  0  0  0  0
  6 15  2  0  0  0  0
  7 19  1  0  0  0  0
  8  6  1  1  0  0  0
  9 22  1  6  0  0  0
  9 16  1  0  0  0  0
 11 20  2  0  0  0  0
 12  7  1  6  0  0  0
 12 21  1  0  0  0  0
 13 16  1  6  0  0  0
 13  8  1  0  0  0  0
 13 14  1  0  0  0  0
 14 20  1  0  0  0  0
 14 15  1  0  0  0  0
 17  9  1  0  0  0  0
 17 12  1  0  0  0  0
 19  2  1  6  0  0  0
 19 18  1  0  0  0  0
 20 10  1  0  0  0  0
 21 18  1  1  0  0  0
 21  8  1  0  0  0  0
 22 26  1  0  0  0  0
 23 22  1  0  0  0  0
 24 25  1  0  0  0  0
 25 23  1  0  0  0  0
 28 26  1  0  0  0  0
 28 27  1  0  0  0  0
 29 28  1  0  0  0  0
 29 27  1  0  0  0  0
 30 31  1  0  0  0  0
 31 32  1  0  0  0  0
 32 34  1  0  0  0  0
 33 35  2  0  0  0  0
 34 44  1  0  0  0  0
 34 35  1  0  0  0  0
 35 36  1  0  0  0  0
 36 37  2  0  0  0  0
 38 36  1  6  0  0  0
 38 40  1  0  0  0  0
 39 38  1  0  0  0  0
 39 40  1  0  0  0  0
 40 43  1  6  0  0  0
 42 43  1  0  0  0  0
 43 41  2  0  0  0  0
 44 45  1  0  0  0  0
 45 46  1  0  0  0  0
 46 47  1  0  0  0  0
 47 50  1  0  0  0  0
 49 50  1  0  0  0  0
 49 48  1  0  0  0  0
 50 48  1  0  0  0  0
M  END
>  <MODEL>
4

>  <REMARK>
 VINA RESULT:      -5.2      2.042      5.456
  Name = 
  18 active torsions:
  status: ('A' for Active; 'I' for Inactive)
    1  A    between atoms: C_1  and  C_37
    2  A    between atoms: C_1  and  O_42
    3  A    between atoms: C_9  and  C_44
    4  A    between atoms: C_12  and  N_17
    5  A    between atoms: N_13  and  C_18
    6  A    between atoms: N_13  and  C_49
    7  A    between atoms: C_14  and  C_27
    8  A    between atoms: C_15  and  C_24
    9  A    between atoms: O_16  and  N_17
   10  A    between atoms: O_16  and  C_20
   11  A    between atoms: N_17  and  C_27
   12  A    between atoms: C_18  and  O_42
   13  A    between atoms: C_24  and  C_43
   14  A    between atoms: C_28  and  C_35
   15  A    between atoms: C_33  and  N_45
   16  A    between atoms: C_36  and  C_37
   17  A    between atoms: N_45  and  C_47
   18  A    between atoms: C_47  and  C_49
                            x       y       z     vdW  Elec       q    Type
                         _______ _______ _______ _____ _____    ______ ____

>  <TORSDO>
F 18

$$$$
=
 OpenBabel11072412063D

 50 56  0  0  1  0  0  0  0  0999 V2000
  158.8400  212.9610  147.0480 N   0  0  0  0  0  0  0  0  0  0  0  0
  160.0380  213.2080  148.8730 C   0  0  0  0  0  0  0  0  0  0  0  0
  158.7900  213.4170  148.2350 N   0  0  0  0  0  2  0  0  0  0  0  0
  160.1440  212.3750  146.7530 C   0  0  0  0  0  3  0  0  0  0  0  0
  160.8590  212.5920  148.0430 C   0  0  0  0  0  0  0  0  0  0  0  0
  157.0390  214.1060  153.1970 C   0  0  0  0  0  3  0  0  0  0  0  0
  160.9270  212.2770  150.9790 C   0  0  0  0  0  2  0  0  0  0  0  0
  158.4190  213.5480  153.3710 C   0  0  1  0  0  3  0  0  0  0  0  0
  159.9090  210.8270  154.0590 C   0  0  2  0  0  3  0  0  0  0  0  0
  155.0730  212.9120  156.8380 C   0  0  0  0  0  1  0  0  0  0  0  0
  157.1930  211.9090  157.2200 O   0  0  0  0  0  0  0  0  0  0  0  0
  160.2500  212.1890  152.3140 C   0  0  2  0  0  3  0  0  0  0  0  0
  158.3080  212.6750  154.6510 C   0  0  1  0  0  3  0  0  0  0  0  0
  156.9680  212.9550  155.1420 N   0  0  0  0  0  0  0  0  0  0  0  0
  156.2700  213.7710  154.2150 C   0  0  0  0  0  3  0  0  0  0  0  0
  158.4700  211.1660  154.4380 C   0  0  0  0  0  2  0  0  0  0  0  0
  160.0620  210.8470  152.6600 O   0  0  0  0  0  0  0  0  0  0  0  0
  159.0720  213.8310  151.0180 N   0  0  0  0  0  2  0  0  0  0  0  0
  160.3100  213.4910  150.3170 C   0  0  2  0  0  3  0  0  0  0  0  0
  156.4620  212.5580  156.4240 C   0  0  0  0  0  0  0  0  0  0  0  0
  158.9080  212.8550  152.0920 C   0  0  2  0  0  3  0  0  0  0  0  0
  160.2840  209.5220  154.6140 N   0  0  0  0  0  0  0  0  0  0  0  0
  159.5700  209.3630  155.8750 C   0  0  0  0  0  2  0  0  0  0  0  0
  159.0980  207.0230  155.9700 O   0  0  0  0  0  1  0  0  0  0  0  0
  159.9110  208.0250  156.5040 C   0  0  0  0  0  2  0  0  0  0  0  0
  161.6130  209.5310  154.8980 O   0  0  0  0  0  0  0  0  0  0  0  0
  162.6700  210.1030  156.9460 C   0  0  0  0  0  2  0  0  0  0  0  0
  161.7810  210.5750  155.8130 C   0  0  0  0  0  3  0  0  0  0  0  0
  163.2420  210.9710  155.8470 C   0  0  0  0  0  2  0  0  0  0  0  0
  162.1720  212.1270  148.3770 N   0  0  0  0  0  2  0  0  0  0  0  0
  162.5120  210.7130  148.4010 C   0  0  0  0  0  2  0  0  0  0  0  0
  161.3980  209.9300  149.0790 C   0  0  0  0  0  2  0  0  0  0  0  0
  161.5950  208.5280  151.5180 O   0  0  0  0  0  0  0  0  0  0  0  0
  161.7550  208.5210  149.1900 N   0  0  0  0  0  0  0  0  0  0  0  0
  161.5970  207.8510  150.4510 C   0  0  0  0  0  0  0  0  0  0  0  0
  161.4040  206.3870  150.5440 C   0  0  0  0  0  0  0  0  0  0  0  0
  160.2620  205.9010  150.3210 O   0  0  0  0  0  0  0  0  0  0  0  0
  162.5360  205.4530  150.8740 C   0  0  2  0  0  3  0  0  0  0  0  0
  162.0290  204.1930  151.2500 O   0  0  0  0  0  0  0  0  0  0  0  0
  162.6000  204.9520  152.2880 C   0  0  2  0  0  3  0  0  0  0  0  0
  161.6610  206.4930  153.8480 O   0  0  0  0  0  0  0  0  0  0  0  0
  160.2750  204.6580  153.3810 C   0  0  0  0  0  1  0  0  0  0  0  0
  161.5320  205.4430  153.2320 C   0  0  0  0  0  0  0  0  0  0  0  0
  162.4880  207.8880  148.0980 C   0  0  0  0  0  2  0  0  0  0  0  0
  161.5920  207.3320  147.1790 O   0  0  0  0  0  0  0  0  0  0  0  0
  162.1820  206.1240  146.7980 C   0  0  0  0  0  2  0  0  0  0  0  0
  161.3680  204.9530  147.3290 C   0  0  0  0  0  2  0  0  0  0  0  0
  161.2490  203.0230  145.7950 C   0  0  0  0  0  2  0  0  0  0  0  0
  161.0440  202.5050  147.2000 C   0  0  0  0  0  2  0  0  0  0  0  0
  162.0160  203.6340  146.9490 C   0  0  0  0  0  3  0  0  0  0  0  0
  1  3  1  0  0  0  0
  3  2  1  0  0  0  0
  4  1  2  0  0  0  0
  4  5  1  0  0  0  0
  5 30  1  0  0  0  0
  5  2  2  0  0  0  0
  6 15  2  0  0  0  0
  8  6  1  6  0  0  0
  8 13  1  0  0  0  0
  9 16  1  0  0  0  0
  9 22  1  6  0  0  0
 12  7  1  6  0  0  0
 12 17  1  0  0  0  0
 13 16  1  6  0  0  0
 13 14  1  0  0  0  0
 14 20  1  0  0  0  0
 15 14  1  0  0  0  0
 17  9  1  0  0  0  0
 19  2  1  6  0  0  0
 19  7  1  0  0  0  0
 19 18  1  0  0  0  0
 20 10  1  0  0  0  0
 20 11  2  0  0  0  0
 21 18  1  6  0  0  0
 21 12  1  0  0  0  0
 21  8  1  0  0  0  0
 22 26  1  0  0  0  0
 22 23  1  0  0  0  0
 23 25  1  0  0  0  0
 24 25  1  0  0  0  0
 26 28  1  0  0  0  0
 28 29  1  0  0  0  0
 28 27  1  0  0  0  0
 29 27  1  0  0  0  0
 30 31  1  0  0  0  0
 31 32  1  0  0  0  0
 32 34  1  0  0  0  0
 34 35  1  0  0  0  0
 35 36  1  0  0  0  0
 35 33  2  0  0  0  0
 37 36  2  0  0  0  0
 38 36  1  1  0  0  0
 38 39  1  0  0  0  0
 38 40  1  0  0  0  0
 39 40  1  0  0  0  0
 40 43  1  1  0  0  0
 43 42  1  0  0  0  0
 43 41  2  0  0  0  0
 44 34  1  0  0  0  0
 45 44  1  0  0  0  0
 46 45  1  0  0  0  0
 46 47  1  0  0  0  0
 48 50  1  0  0  0  0
 48 49  1  0  0  0  0
 50 49  1  0  0  0  0
 50 47  1  0  0  0  0
M  END
>  <MODEL>
5

>  <REMARK>
 VINA RESULT:      -4.8      2.355      9.291
  Name = 
  18 active torsions:
  status: ('A' for Active; 'I' for Inactive)
    1  A    between atoms: C_1  and  C_37
    2  A    between atoms: C_1  and  O_42
    3  A    between atoms: C_9  and  C_44
    4  A    between atoms: C_12  and  N_17
    5  A    between atoms: N_13  and  C_18
    6  A    between atoms: N_13  and  C_49
    7  A    between atoms: C_14  and  C_27
    8  A    between atoms: C_15  and  C_24
    9  A    between atoms: O_16  and  N_17
   10  A    between atoms: O_16  and  C_20
   11  A    between atoms: N_17  and  C_27
   12  A    between atoms: C_18  and  O_42
   13  A    between atoms: C_24  and  C_43
   14  A    between atoms: C_28  and  C_35
   15  A    between atoms: C_33  and  N_45
   16  A    between atoms: C_36  and  C_37
   17  A    between atoms: N_45  and  C_47
   18  A    between atoms: C_47  and  C_49
                            x       y       z     vdW  Elec       q    Type
                         _______ _______ _______ _____ _____    ______ ____

>  <TORSDO>
F 18

$$$$
=
 OpenBabel11072412063D

 50 56  0  0  1  0  0  0  0  0999 V2000
  159.6540  208.1830  156.6960 N   0  0  0  0  0  0  0  0  0  0  0  0
  160.9680  207.9340  154.9520 C   0  0  0  0  0  0  0  0  0  0  0  0
  160.5180  207.4000  156.1860 N   0  0  0  0  0  2  0  0  0  0  0  0
  159.4130  209.3440  155.8440 C   0  0  0  0  0  3  0  0  0  0  0  0
  160.3400  209.0690  154.7090 C   0  0  0  0  0  0  0  0  0  0  0  0
  160.7470  203.4070  152.1320 C   0  0  0  0  0  3  0  0  0  0  0  0
  162.0390  208.0280  152.7310 C   0  0  0  0  0  2  0  0  0  0  0  0
  161.6260  204.5220  151.6520 C   0  0  1  0  0  3  0  0  0  0  0  0
  161.7480  206.7780  149.4180 C   0  0  2  0  0  3  0  0  0  0  0  0
  160.0570  201.1360  148.5390 C   0  0  0  0  0  1  0  0  0  0  0  0
  161.3820  202.8820  147.6210 O   0  0  0  0  0  0  0  0  0  0  0  0
  161.9890  207.0090  151.6330 C   0  0  2  0  0  3  0  0  0  0  0  0
  161.6190  204.3620  150.1070 C   0  0  1  0  0  3  0  0  0  0  0  0
  160.8980  203.1170  149.8950 N   0  0  0  0  0  0  0  0  0  0  0  0
  160.3830  202.6360  151.1260 C   0  0  0  0  0  3  0  0  0  0  0  0
  160.9330  205.4890  149.3290 C   0  0  0  0  0  2  0  0  0  0  0  0
  161.3290  207.5440  150.5220 O   0  0  0  0  0  0  0  0  0  0  0  0
  161.3530  205.9040  153.6660 N   0  0  0  0  0  2  0  0  0  0  0  0
  161.8830  207.2250  154.0050 C   0  0  2  0  0  3  0  0  0  0  0  0
  160.8130  202.4190  148.6450 C   0  0  0  0  0  0  0  0  0  0  0  0
  161.1730  205.8740  152.2180 C   0  0  2  0  0  3  0  0  0  0  0  0
  161.6280  207.5380  148.1690 N   0  0  0  0  0  0  0  0  0  0  0  0
  162.1700  206.7090  147.1000 C   0  0  0  0  0  2  0  0  0  0  0  0
  160.4550  205.6780  145.7940 O   0  0  0  0  0  1  0  0  0  0  0  0
  161.2860  206.7980  145.8700 C   0  0  0  0  0  2  0  0  0  0  0  0
  162.4050  208.6500  148.2560 O   0  0  0  0  0  0  0  0  0  0  0  0
  162.3140  210.3930  149.8660 C   0  0  0  0  0  2  0  0  0  0  0  0
  161.5670  209.6370  148.7850 C   0  0  0  0  0  3  0  0  0  0  0  0
  162.1600  210.9980  148.4870 C   0  0  0  0  0  2  0  0  0  0  0  0
  160.4630  209.8370  153.5070 N   0  0  0  0  0  2  0  0  0  0  0  0
  159.5510  210.9230  153.1820 C   0  0  0  0  0  2  0  0  0  0  0  0
  160.3060  212.0230  152.4500 C   0  0  0  0  0  2  0  0  0  0  0  0
  161.1530  214.0210  150.6490 O   0  0  0  0  0  0  0  0  0  0  0  0
  159.4210  212.7280  151.5300 N   0  0  0  0  0  0  0  0  0  0  0  0
  159.9890  213.5520  150.4980 C   0  0  0  0  0  0  0  0  0  0  0  0
  159.2650  213.8480  149.2430 C   0  0  0  0  0  0  0  0  0  0  0  0
  158.1600  214.4530  149.2980 O   0  0  0  0  0  0  0  0  0  0  0  0
  159.8190  213.4700  147.8950 C   0  0  2  0  0  3  0  0  0  0  0  0
  159.4110  214.4090  146.9270 O   0  0  0  0  0  0  0  0  0  0  0  0
  158.8150  213.1380  146.8290 C   0  0  2  0  0  3  0  0  0  0  0  0
  156.8110  212.2730  147.7920 O   0  0  0  0  0  0  0  0  0  0  0  0
  156.5910  214.4510  146.9470 C   0  0  0  0  0  1  0  0  0  0  0  0
  157.3600  213.2060  147.2200 C   0  0  0  0  0  0  0  0  0  0  0  0
  157.9920  212.7790  151.8210 C   0  0  0  0  0  2  0  0  0  0  0  0
  157.6100  214.0910  152.1200 O   0  0  0  0  0  0  0  0  0  0  0  0
  157.5380  214.1270  153.5140 C   0  0  0  0  0  2  0  0  0  0  0  0
  156.4190  213.2180  154.0050 C   0  0  0  0  0  2  0  0  0  0  0  0
  156.5140  211.1590  155.3630 C   0  0  0  0  0  2  0  0  0  0  0  0
  155.4970  212.0800  155.9960 C   0  0  0  0  0  2  0  0  0  0  0  0
  156.7470  212.6560  155.3750 C   0  0  0  0  0  3  0  0  0  0  0  0
  2  3  1  0  0  0  0
  3  1  1  0  0  0  0
  4  1  2  0  0  0  0
  5  2  2  0  0  0  0
  5  4  1  0  0  0  0
  7 19  1  0  0  0  0
  8  6  1  1  0  0  0
  8 21  1  0  0  0  0
  9 22  1  6  0  0  0
  9 17  1  0  0  0  0
 10 20  1  0  0  0  0
 11 20  2  0  0  0  0
 12 21  1  0  0  0  0
 12  7  1  1  0  0  0
 13 16  1  6  0  0  0
 13  8  1  0  0  0  0
 14 13  1  0  0  0  0
 14 15  1  0  0  0  0
 15  6  2  0  0  0  0
 16  9  1  0  0  0  0
 17 12  1  0  0  0  0
 18 19  1  0  0  0  0
 19  2  1  1  0  0  0
 20 14  1  0  0  0  0
 21 18  1  1  0  0  0
 22 26  1  0  0  0  0
 23 22  1  0  0  0  0
 24 25  1  0  0  0  0
 25 23  1  0  0  0  0
 26 28  1  0  0  0  0
 28 27  1  0  0  0  0
 29 28  1  0  0  0  0
 29 27  1  0  0  0  0
 30  5  1  0  0  0  0
 31 30  1  0  0  0  0
 32 31  1  0  0  0  0
 34 44  1  0  0  0  0
 34 32  1  0  0  0  0
 35 33  2  0  0  0  0
 35 34  1  0  0  0  0
 36 37  2  0  0  0  0
 36 35  1  0  0  0  0
 38 36  1  1  0  0  0
 39 38  1  0  0  0  0
 40 39  1  0  0  0  0
 40 43  1  1  0  0  0
 40 38  1  0  0  0  0
 42 43  1  0  0  0  0
 43 41  2  0  0  0  0
 44 45  1  0  0  0  0
 45 46  1  0  0  0  0
 46 47  1  0  0  0  0
 47 50  1  0  0  0  0
 48 50  1  0  0  0  0
 48 49  1  0  0  0  0
 50 49  1  0  0  0  0
M  END
>  <MODEL>
6

>  <REMARK>
 VINA RESULT:      -4.5      1.415      4.332
  Name = 
  18 active torsions:
  status: ('A' for Active; 'I' for Inactive)
    1  A    between atoms: C_1  and  C_37
    2  A    between atoms: C_1  and  O_42
    3  A    between atoms: C_9  and  C_44
    4  A    between atoms: C_12  and  N_17
    5  A    between atoms: N_13  and  C_18
    6  A    between atoms: N_13  and  C_49
    7  A    between atoms: C_14  and  C_27
    8  A    between atoms: C_15  and  C_24
    9  A    between atoms: O_16  and  N_17
   10  A    between atoms: O_16  and  C_20
   11  A    between atoms: N_17  and  C_27
   12  A    between atoms: C_18  and  O_42
   13  A    between atoms: C_24  and  C_43
   14  A    between atoms: C_28  and  C_35
   15  A    between atoms: C_33  and  N_45
   16  A    between atoms: C_36  and  C_37
   17  A    between atoms: N_45  and  C_47
   18  A    between atoms: C_47  and  C_49
                            x       y       z     vdW  Elec       q    Type
                         _______ _______ _______ _____ _____    ______ ____

>  <TORSDO>
F 18

$$$$
=
 OpenBabel11072412063D

 50 56  0  0  1  0  0  0  0  0999 V2000
  164.1410  212.1770  147.9730 N   0  0  0  0  0  0  0  0  0  0  0  0
  162.1860  211.2800  148.4200 C   0  0  0  0  0  0  0  0  0  0  0  0
  163.5140  211.0700  147.9710 N   0  0  0  0  0  0  0  0  0  0  0  0
  163.2960  213.2710  148.4420 C   0  0  0  0  0  2  0  0  0  0  0  0
  162.0170  212.5550  148.7150 C   0  0  0  0  0  0  0  0  0  0  0  0
  161.2020  206.4720  146.3170 C   0  0  0  0  0  3  0  0  0  0  0  0
  161.4510  209.5600  150.0310 C   0  0  0  0  0  2  0  0  0  0  0  0
  160.7970  206.7440  147.7350 C   0  0  1  0  0  3  0  0  0  0  0  0
  161.6690  206.0810  150.7170 C   0  0  2  0  0  3  0  0  0  0  0  0
  161.4870  202.1770  146.2250 C   0  0  0  0  0  1  0  0  0  0  0  0
  160.9200  202.4570  148.5150 O   0  0  0  0  0  0  0  0  0  0  0  0
  161.2800  208.0880  149.8030 C   0  0  2  0  0  3  0  0  0  0  0  0
  160.9180  205.3590  148.4270 C   0  0  1  0  0  3  0  0  0  0  0  0
  161.2070  204.4500  147.3290 N   0  0  0  0  0  0  0  0  0  0  0  0
  161.3980  205.1820  146.1290 C   0  0  0  0  0  3  0  0  0  0  0  0
  162.0170  205.2440  149.4880 C   0  0  0  0  0  2  0  0  0  0  0  0
  162.1950  207.3800  150.5880 O   0  0  0  0  0  0  0  0  0  0  0  0
  161.2930  209.1500  147.6510 N   0  0  0  0  0  2  0  0  0  0  0  0
  161.1950  210.1880  148.6770 C   0  0  2  0  0  3  0  0  0  0  0  0
  161.1910  203.0190  147.4200 C   0  0  0  0  0  0  0  0  0  0  0  0
  161.6080  207.9000  148.3360 C   0  0  2  0  0  3  0  0  0  0  0  0
  162.1670  205.4250  151.9320 N   0  0  0  0  0  0  0  0  0  0  0  0
  162.2430  203.9960  151.6570 C   0  0  0  0  0  2  0  0  0  0  0  0
  160.9070  202.0210  151.5150 O   0  0  0  0  0  1  0  0  0  0  0  0
  160.9310  203.3240  152.0170 C   0  0  0  0  0  2  0  0  0  0  0  0
  161.2590  205.6000  152.9280 O   0  0  0  0  0  0  0  0  0  0  0  0
  160.4570  207.6760  153.7570 C   0  0  0  0  0  2  0  0  0  0  0  0
  161.6590  206.7700  153.5820 C   0  0  0  0  0  3  0  0  0  0  0  0
  160.9590  206.8500  154.9220 C   0  0  0  0  0  2  0  0  0  0  0  0
  160.8350  213.1170  149.2950 N   0  0  0  0  0  2  0  0  0  0  0  0
  160.6010  213.1220  150.7310 C   0  0  0  0  0  2  0  0  0  0  0  0
  159.1090  213.2320  151.0070 C   0  0  0  0  0  2  0  0  0  0  0  0
  159.3510  210.8820  152.5470 O   0  0  0  0  0  0  0  0  0  0  0  0
  158.8450  213.1570  152.4390 N   0  0  0  0  0  0  0  0  0  0  0  0
  159.2240  211.9770  153.1660 C   0  0  0  0  0  0  0  0  0  0  0  0
  159.5020  212.0050  154.6180 C   0  0  0  0  0  0  0  0  0  0  0  0
  159.9740  213.0540  155.1350 O   0  0  0  0  0  0  0  0  0  0  0  0
  159.2160  210.8250  155.5070 C   0  0  2  0  0  3  0  0  0  0  0  0
  159.6270  211.1040  156.8260 O   0  0  0  0  0  0  0  0  0  0  0  0
  160.4050  210.1560  156.1350 C   0  0  2  0  0  3  0  0  0  0  0  0
  162.3600  211.4450  156.5920 O   0  0  0  0  0  0  0  0  0  0  0  0
  162.4000  210.3740  154.5040 C   0  0  0  0  0  1  0  0  0  0  0  0
  161.7600  210.7280  155.8010 C   0  0  0  0  0  0  0  0  0  0  0  0
  157.9900  214.1680  153.0550 C   0  0  0  0  0  2  0  0  0  0  0  0
  156.7700  213.5980  153.4330 O   0  0  0  0  0  0  0  0  0  0  0  0
  156.2960  214.4250  154.4550 C   0  0  0  0  0  2  0  0  0  0  0  0
  155.4710  213.6140  155.4450 C   0  0  0  0  0  2  0  0  0  0  0  0
  155.1680  211.3820  156.4540 C   0  0  0  0  0  2  0  0  0  0  0  0
  156.2220  212.1090  157.2570 C   0  0  0  0  0  2  0  0  0  0  0  0
  156.1550  212.2970  155.7590 C   0  0  0  0  0  3  0  0  0  0  0  0
  1  4  1  0  0  0  0
  2  5  2  0  0  0  0
  3  1  2  0  0  0  0
  3  2  1  0  0  0  0
  4  5  1  0  0  0  0
  5 30  1  0  0  0  0
  8  6  1  6  0  0  0
  8 21  1  0  0  0  0
  8 13  1  0  0  0  0
  9 22  1  1  0  0  0
 10 20  1  0  0  0  0
 12  7  1  1  0  0  0
 12 17  1  0  0  0  0
 13 16  1  1  0  0  0
 14 20  1  0  0  0  0
 14 13  1  0  0  0  0
 15  6  2  0  0  0  0
 15 14  1  0  0  0  0
 16  9  1  0  0  0  0
 17  9  1  0  0  0  0
 18 19  1  0  0  0  0
 19  2  1  6  0  0  0
 19  7  1  0  0  0  0
 20 11  2  0  0  0  0
 21 18  1  6  0  0  0
 21 12  1  0  0  0  0
 22 26  1  0  0  0  0
 23 22  1  0  0  0  0
 23 25  1  0  0  0  0
 24 25  1  0  0  0  0
 26 28  1  0  0  0  0
 27 29  1  0  0  0  0
 28 27  1  0  0  0  0
 28 29  1  0  0  0  0
 30 31  1  0  0  0  0
 31 32  1  0  0  0  0
 32 34  1  0  0  0  0
 33 35  2  0  0  0  0
 34 44  1  0  0  0  0
 34 35  1  0  0  0  0
 35 36  1  0  0  0  0
 36 37  2  0  0  0  0
 38 36  1  6  0  0  0
 38 40  1  0  0  0  0
 38 39  1  0  0  0  0
 40 43  1  6  0  0  0
 40 39  1  0  0  0  0
 42 43  1  0  0  0  0
 43 41  2  0  0  0  0
 44 45  1  0  0  0  0
 45 46  1  0  0  0  0
 46 47  1  0  0  0  0
 47 50  1  0  0  0  0
 48 49  1  0  0  0  0
 50 48  1  0  0  0  0
 50 49  1  0  0  0  0
M  END
>  <MODEL>
7

>  <REMARK>
 VINA RESULT:      -3.9      2.331      5.620
  Name = 
  18 active torsions:
  status: ('A' for Active; 'I' for Inactive)
    1  A    between atoms: C_1  and  C_37
    2  A    between atoms: C_1  and  O_42
    3  A    between atoms: C_9  and  C_44
    4  A    between atoms: C_12  and  N_17
    5  A    between atoms: N_13  and  C_18
    6  A    between atoms: N_13  and  C_49
    7  A    between atoms: C_14  and  C_27
    8  A    between atoms: C_15  and  C_24
    9  A    between atoms: O_16  and  N_17
   10  A    between atoms: O_16  and  C_20
   11  A    between atoms: N_17  and  C_27
   12  A    between atoms: C_18  and  O_42
   13  A    between atoms: C_24  and  C_43
   14  A    between atoms: C_28  and  C_35
   15  A    between atoms: C_33  and  N_45
   16  A    between atoms: C_36  and  C_37
   17  A    between atoms: N_45  and  C_47
   18  A    between atoms: C_47  and  C_49
                            x       y       z     vdW  Elec       q    Type
                         _______ _______ _______ _____ _____    ______ ____

>  <TORSDO>
F 18

$$$$
=
 OpenBabel11072412063D

 50 56  0  0  1  0  0  0  0  0999 V2000
  158.6530  207.1270  155.8190 N   0  0  0  0  0  0  0  0  0  0  0  0
  160.5590  207.0070  154.7320 C   0  0  0  0  0  0  0  0  0  0  0  0
  159.3140  206.3920  155.0180 N   0  0  0  0  0  0  0  0  0  0  0  0
  159.3850  208.3430  156.1590 C   0  0  0  0  0  2  0  0  0  0  0  0
  160.6390  208.1570  155.3750 C   0  0  0  0  0  0  0  0  0  0  0  0
  160.7430  202.8920  151.3360 C   0  0  0  0  0  3  0  0  0  0  0  0
  161.6570  207.4770  152.5730 C   0  0  0  0  0  2  0  0  0  0  0  0
  161.5400  204.1240  151.0310 C   0  0  1  0  0  3  0  0  0  0  0  0
  161.5220  206.6610  149.1170 C   0  0  2  0  0  3  0  0  0  0  0  0
  160.2940  201.0750  147.4570 C   0  0  0  0  0  1  0  0  0  0  0  0
  161.4940  203.0230  146.8140 O   0  0  0  0  0  0  0  0  0  0  0  0
  161.7070  206.6120  151.3490 C   0  0  2  0  0  3  0  0  0  0  0  0
  161.5710  204.1710  149.4790 C   0  0  1  0  0  3  0  0  0  0  0  0
  160.9530  202.9150  149.0850 N   0  0  0  0  0  0  0  0  0  0  0  0
  160.4570  202.2370  150.2270 C   0  0  0  0  0  3  0  0  0  0  0  0
  160.8130  205.3380  148.8370 C   0  0  0  0  0  2  0  0  0  0  0  0
  161.0260  207.2390  150.3010 O   0  0  0  0  0  0  0  0  0  0  0  0
  161.1240  205.2010  153.2010 N   0  0  0  0  0  2  0  0  0  0  0  0
  161.5430  206.5010  153.7250 C   0  0  2  0  0  3  0  0  0  0  0  0
  160.9450  202.3860  147.7520 C   0  0  0  0  0  0  0  0  0  0  0  0
  160.9720  205.3510  151.7570 C   0  0  2  0  0  3  0  0  0  0  0  0
  161.3640  207.5690  147.9760 N   0  0  0  0  0  0  0  0  0  0  0  0
  161.6750  206.8140  146.7700 C   0  0  0  0  0  2  0  0  0  0  0  0
  160.6990  205.4850  145.0400 O   0  0  0  0  0  1  0  0  0  0  0  0
  160.3970  206.3210  146.1170 C   0  0  0  0  0  2  0  0  0  0  0  0
  162.2820  208.5660  148.0790 O   0  0  0  0  0  0  0  0  0  0  0  0
  162.7020  210.1840  149.7660 C   0  0  0  0  0  2  0  0  0  0  0  0
  161.6650  209.5470  148.8620 C   0  0  0  0  0  3  0  0  0  0  0  0
  162.2510  210.8990  148.5100 C   0  0  0  0  0  2  0  0  0  0  0  0
  161.7090  209.1000  155.2450 N   0  0  0  0  0  2  0  0  0  0  0  0
  161.6100  210.4610  155.7480 C   0  0  0  0  0  2  0  0  0  0  0  0
  161.0710  211.3720  154.6550 C   0  0  0  0  0  2  0  0  0  0  0  0
  159.9270  211.5960  157.2230 O   0  0  0  0  0  0  0  0  0  0  0  0
  159.6730  211.7030  154.9060 N   0  0  0  0  0  0  0  0  0  0  0  0
  159.2520  212.0220  156.2420 C   0  0  0  0  0  0  0  0  0  0  0  0
  158.0660  212.8620  156.5130 C   0  0  0  0  0  0  0  0  0  0  0  0
  158.0680  214.0680  156.1430 O   0  0  0  0  0  0  0  0  0  0  0  0
  156.8410  212.3170  157.1960 C   0  0  2  0  0  3  0  0  0  0  0  0
  156.4830  211.0780  156.6290 O   0  0  0  0  0  0  0  0  0  0  0  0
  155.6160  212.1500  156.3440 C   0  0  2  0  0  3  0  0  0  0  0  0
  156.1460  211.7720  154.0490 O   0  0  0  0  0  0  0  0  0  0  0  0
  155.3050  213.9190  154.4840 C   0  0  0  0  0  1  0  0  0  0  0  0
  155.7370  212.5550  154.8960 C   0  0  0  0  0  0  0  0  0  0  0  0
  158.6900  211.4680  153.8530 C   0  0  0  0  0  2  0  0  0  0  0  0
  159.3180  211.4650  152.6040 O   0  0  0  0  0  0  0  0  0  0  0  0
  158.4140  212.1060  151.7530 C   0  0  0  0  0  2  0  0  0  0  0  0
  158.3150  213.5830  152.1110 C   0  0  0  0  0  2  0  0  0  0  0  0
  157.9790  214.0390  149.7090 C   0  0  0  0  0  2  0  0  0  0  0  0
  159.4070  213.5800  149.8930 C   0  0  0  0  0  2  0  0  0  0  0  0
  158.7540  214.4470  150.9440 C   0  0  0  0  0  3  0  0  0  0  0  0
  1  4  1  0  0  0  0
  2  3  1  0  0  0  0
  2  5  2  0  0  0  0
  3  1  2  0  0  0  0
  5  4  1  0  0  0  0
  7 19  1  0  0  0  0
  8  6  1  6  0  0  0
  8 21  1  0  0  0  0
  9 22  1  6  0  0  0
  9 17  1  0  0  0  0
 10 20  1  0  0  0  0
 11 20  2  0  0  0  0
 12 21  1  0  0  0  0
 12  7  1  1  0  0  0
 13 16  1  6  0  0  0
 13  8  1  0  0  0  0
 14 13  1  0  0  0  0
 14 15  1  0  0  0  0
 15  6  2  0  0  0  0
 16  9  1  0  0  0  0
 17 12  1  0  0  0  0
 18 19  1  0  0  0  0
 19  2  1  1  0  0  0
 20 14  1  0  0  0  0
 21 18  1  1  0  0  0
 22 26  1  0  0  0  0
 23 22  1  0  0  0  0
 24 25  1  0  0  0  0
 25 23  1  0  0  0  0
 26 28  1  0  0  0  0
 28 27  1  0  0  0  0
 29 28  1  0  0  0  0
 29 27  1  0  0  0  0
 30  5  1  0  0  0  0
 30 31  1  0  0  0  0
 32 34  1  0  0  0  0
 32 31  1  0  0  0  0
 34 35  1  0  0  0  0
 35 36  1  0  0  0  0
 35 33  2  0  0  0  0
 37 36  2  0  0  0  0
 38 36  1  6  0  0  0
 39 38  1  0  0  0  0
 40 43  1  6  0  0  0
 40 39  1  0  0  0  0
 40 38  1  0  0  0  0
 41 43  2  0  0  0  0
 42 43  1  0  0  0  0
 44 34  1  0  0  0  0
 45 44  1  0  0  0  0
 46 47  1  0  0  0  0
 46 45  1  0  0  0  0
 48 49  1  0  0  0  0
 48 50  1  0  0  0  0
 49 50  1  0  0  0  0
 50 47  1  0  0  0  0
M  END
>  <MODEL>
8

>  <REMARK>
 VINA RESULT:      -3.9      1.320      1.999
  Name = 
  18 active torsions:
  status: ('A' for Active; 'I' for Inactive)
    1  A    between atoms: C_1  and  C_37
    2  A    between atoms: C_1  and  O_42
    3  A    between atoms: C_9  and  C_44
    4  A    between atoms: C_12  and  N_17
    5  A    between atoms: N_13  and  C_18
    6  A    between atoms: N_13  and  C_49
    7  A    between atoms: C_14  and  C_27
    8  A    between atoms: C_15  and  C_24
    9  A    between atoms: O_16  and  N_17
   10  A    between atoms: O_16  and  C_20
   11  A    between atoms: N_17  and  C_27
   12  A    between atoms: C_18  and  O_42
   13  A    between atoms: C_24  and  C_43
   14  A    between atoms: C_28  and  C_35
   15  A    between atoms: C_33  and  N_45
   16  A    between atoms: C_36  and  C_37
   17  A    between atoms: N_45  and  C_47
   18  A    between atoms: C_47  and  C_49
                            x       y       z     vdW  Elec       q    Type
                         _______ _______ _______ _____ _____    ______ ____

>  <TORSDO>
F 18

$$$$
=
 OpenBabel11072412063D

 50 56  0  0  1  0  0  0  0  0999 V2000
  158.5800  206.8200  155.7550 N   0  0  0  0  0  0  0  0  0  0  0  0
  160.5480  206.6620  154.7900 C   0  0  0  0  0  0  0  0  0  0  0  0
  159.2630  206.0910  154.9660 N   0  0  0  0  0  0  0  0  0  0  0  0
  159.3370  207.9870  156.1960 C   0  0  0  0  0  2  0  0  0  0  0  0
  160.6320  207.7800  155.4870 C   0  0  0  0  0  0  0  0  0  0  0  0
  160.9180  202.5000  151.4670 C   0  0  0  0  0  3  0  0  0  0  0  0
  161.7180  207.1160  152.6660 C   0  0  0  0  0  2  0  0  0  0  0  0
  161.7080  203.7400  151.1730 C   0  0  1  0  0  3  0  0  0  0  0  0
  161.7230  206.2470  149.2200 C   0  0  2  0  0  3  0  0  0  0  0  0
  160.6410  200.6190  147.6040 C   0  0  0  0  0  1  0  0  0  0  0  0
  161.8340  202.5750  146.9740 O   0  0  0  0  0  0  0  0  0  0  0  0
  161.8260  206.2340  151.4580 C   0  0  2  0  0  3  0  0  0  0  0  0
  161.7960  203.7640  149.6220 C   0  0  1  0  0  3  0  0  0  0  0  0
  161.2120  202.4930  149.2260 N   0  0  0  0  0  0  0  0  0  0  0  0
  160.6830  201.8240  150.3590 C   0  0  0  0  0  3  0  0  0  0  0  0
  161.0440  204.9090  148.9360 C   0  0  0  0  0  2  0  0  0  0  0  0
  161.1750  206.8350  150.3760 O   0  0  0  0  0  0  0  0  0  0  0  0
  161.1960  204.8430  153.3090 N   0  0  0  0  0  2  0  0  0  0  0  0
  161.5770  206.1570  153.8280 C   0  0  2  0  0  3  0  0  0  0  0  0
  161.2600  201.9430  147.9020 C   0  0  0  0  0  0  0  0  0  0  0  0
  161.0960  204.9690  151.8580 C   0  0  2  0  0  3  0  0  0  0  0  0
  161.5940  207.1360  148.0610 N   0  0  0  0  0  0  0  0  0  0  0  0
  161.1810  208.4420  148.5560 C   0  0  0  0  0  2  0  0  0  0  0  0
  161.9810  210.1720  149.9960 O   0  0  0  0  0  1  0  0  0  0  0  0
  162.3850  209.2130  149.0640 C   0  0  0  0  0  2  0  0  0  0  0  0
  160.5980  206.6710  147.2600 O   0  0  0  0  0  0  0  0  0  0  0  0
  160.3400  205.0610  145.5330 C   0  0  0  0  0  2  0  0  0  0  0  0
  161.2520  206.0930  146.1670 C   0  0  0  0  0  3  0  0  0  0  0  0
  160.4890  206.4300  144.9030 C   0  0  0  0  0  2  0  0  0  0  0  0
  161.7460  208.6800  155.4700 N   0  0  0  0  0  2  0  0  0  0  0  0
  161.6770  210.0110  156.0510 C   0  0  0  0  0  2  0  0  0  0  0  0
  161.5790  211.0490  154.9430 C   0  0  0  0  0  2  0  0  0  0  0  0
  160.1860  211.8510  157.2600 O   0  0  0  0  0  0  0  0  0  0  0  0
  160.2590  211.6690  154.9350 N   0  0  0  0  0  0  0  0  0  0  0  0
  159.7460  212.2500  156.1450 C   0  0  0  0  0  0  0  0  0  0  0  0
  158.7330  213.3280  156.1300 C   0  0  0  0  0  0  0  0  0  0  0  0
  158.7760  214.2000  155.2190 O   0  0  0  0  0  0  0  0  0  0  0  0
  157.6360  213.4060  157.1570 C   0  0  2  0  0  3  0  0  0  0  0  0
  156.9840  212.1610  157.2610 O   0  0  0  0  0  0  0  0  0  0  0  0
  156.2360  213.1900  156.6580 C   0  0  2  0  0  3  0  0  0  0  0  0
  156.5100  211.9080  154.6650 O   0  0  0  0  0  0  0  0  0  0  0  0
  155.3270  213.9100  154.3470 C   0  0  0  0  0  1  0  0  0  0  0  0
  156.0740  212.9280  155.1810 C   0  0  0  0  0  0  0  0  0  0  0  0
  159.3910  211.4730  153.7770 C   0  0  0  0  0  2  0  0  0  0  0  0
  160.1630  211.2320  152.6360 O   0  0  0  0  0  0  0  0  0  0  0  0
  160.0250  212.3900  151.8670 C   0  0  0  0  0  2  0  0  0  0  0  0
  158.6990  212.3680  151.1190 C   0  0  0  0  0  2  0  0  0  0  0  0
  157.1610  213.8340  149.8630 C   0  0  0  0  0  2  0  0  0  0  0  0
  158.5440  214.4370  149.7750 C   0  0  0  0  0  2  0  0  0  0  0  0
  158.1000  213.7600  151.0500 C   0  0  0  0  0  3  0  0  0  0  0  0
  1  4  1  0  0  0  0
  2  3  1  0  0  0  0
  2  5  2  0  0  0  0
  3  1  2  0  0  0  0
  5  4  1  0  0  0  0
  7 19  1  0  0  0  0
  8  6  1  6  0  0  0
  8 21  1  0  0  0  0
  9 22  1  6  0  0  0
  9 17  1  0  0  0  0
 10 20  1  0  0  0  0
 11 20  2  0  0  0  0
 12 21  1  0  0  0  0
 12  7  1  1  0  0  0
 13 16  1  6  0  0  0
 13  8  1  0  0  0  0
 14 13  1  0  0  0  0
 14 15  1  0  0  0  0
 15  6  2  0  0  0  0
 16  9  1  0  0  0  0
 17 12  1  0  0  0  0
 18 19  1  0  0  0  0
 19  2  1  1  0  0  0
 20 14  1  0  0  0  0
 21 18  1  1  0  0  0
 22 23  1  0  0  0  0
 23 25  1  0  0  0  0
 25 24  1  0  0  0  0
 26 22  1  0  0  0  0
 27 28  1  0  0  0  0
 28 26  1  0  0  0  0
 29 27  1  0  0  0  0
 29 28  1  0  0  0  0
 30  5  1  0  0  0  0
 30 31  1  0  0  0  0
 32 31  1  0  0  0  0
 34 32  1  0  0  0  0
 34 35  1  0  0  0  0
 35 33  2  0  0  0  0
 36 35  1  0  0  0  0
 37 36  2  0  0  0  0
 38 36  1  6  0  0  0
 38 39  1  0  0  0  0
 40 43  1  6  0  0  0
 40 38  1  0  0  0  0
 40 39  1  0  0  0  0
 41 43  2  0  0  0  0
 42 43  1  0  0  0  0
 44 34  1  0  0  0  0
 45 44  1  0  0  0  0
 46 45  1  0  0  0  0
 47 46  1  0  0  0  0
 48 50  1  0  0  0  0
 49 48  1  0  0  0  0
 49 50  1  0  0  0  0
 50 47  1  0  0  0  0
M  END
>  <MODEL>
9

>  <REMARK>
 VINA RESULT:      -3.6      1.489      2.664
  Name = 
  18 active torsions:
  status: ('A' for Active; 'I' for Inactive)
    1  A    between atoms: C_1  and  C_37
    2  A    between atoms: C_1  and  O_42
    3  A    between atoms: C_9  and  C_44
    4  A    between atoms: C_12  and  N_17
    5  A    between atoms: N_13  and  C_18
    6  A    between atoms: N_13  and  C_49
    7  A    between atoms: C_14  and  C_27
    8  A    between atoms: C_15  and  C_24
    9  A    between atoms: O_16  and  N_17
   10  A    between atoms: O_16  and  C_20
   11  A    between atoms: N_17  and  C_27
   12  A    between atoms: C_18  and  O_42
   13  A    between atoms: C_24  and  C_43
   14  A    between atoms: C_28  and  C_35
   15  A    between atoms: C_33  and  N_45
   16  A    between atoms: C_36  and  C_37
   17  A    between atoms: N_45  and  C_47
   18  A    between atoms: C_47  and  C_49
                            x       y       z     vdW  Elec       q    Type
                         _______ _______ _______ _____ _____    ______ ____

>  <TORSDO>
F 18

$$$$
