=
 OpenBabel11072414243D

 26 28  0  0  1  0  0  0  0  0999 V2000
  160.5340  209.4930  152.0490 C   0  0  2  0  0  3  0  0  0  0  0  0
  160.9930  207.2930  150.1970 C   0  0  1  0  0  3  0  0  0  0  0  0
  160.5600  208.6910  155.9290 C   0  0  0  0  0  0  0  0  0  0  0  0
  160.8400  207.6630  154.8290 C   0  0  0  0  0  2  0  0  0  0  0  0
  161.7030  210.1290  151.2650 C   0  0  2  0  0  3  0  0  0  0  0  0
  161.7630  209.7100  149.8620 N   0  0  0  0  0  0  0  0  0  0  0  0
  161.6290  208.2160  153.8120 O   0  0  0  0  0  0  0  0  0  0  0  0
  162.3790  208.0180  148.3790 O   0  0  0  0  0  0  0  0  0  0  0  0
  159.8900  208.0520  156.9730 O   0  0  0  0  0  1  0  0  0  0  0  0
  161.4540  207.1520  151.6250 C   0  0  0  0  0  0  0  0  0  0  0  0
  162.0590  210.9630  148.6890 Cl  0  0  0  0  0  0  0  0  0  0  0  0
  159.7140  209.8510  155.4510 C   0  0  0  0  0  0  0  0  0  0  0  0
  159.9600  210.4930  153.0750 C   0  0  2  0  0  3  0  0  0  0  0  0
  163.0640  210.0160  151.9390 C   0  0  0  0  0  1  0  0  0  0  0  0
  162.5410  206.2650  151.9720 S   0  0  0  0  0  0  0  0  0  0  0  0
  161.7790  209.1780  156.4140 O   0  0  0  0  0  1  0  0  0  0  0  0
  160.8520  208.0980  152.6470 C   0  0  2  0  0  3  0  0  0  0  0  0
  161.7620  208.3370  149.4310 C   0  0  0  0  0  0  0  0  0  0  0  0
  159.5710  210.8260  156.1750 O   0  0  0  0  0  0  0  0  0  0  0  0
  159.0410  209.8470  154.1110 C   0  0  0  0  0  2  0  0  0  0  0  0
  158.3540  212.3160  153.3220 O   0  0  0  0  0  0  0  0  0  0  0  0
  159.5950  212.9800  153.3170 C   0  0  0  0  0  2  0  0  0  0  0  0
  159.3490  211.7780  152.4720 C   0  0  1  0  0  3  0  0  0  0  0  0
  160.8100  204.7510  150.1430 N   0  0  0  0  0  1  0  0  0  0  0  0
  160.4240  206.0330  148.2480 O   0  0  0  0  0  0  0  0  0  0  0  0
  160.7330  206.0020  149.4670 C   0  0  0  0  0  0  0  0  0  0  0  0
  1 17  1  0  0  0  0
  1 13  1  0  0  0  0
  2 10  1  0  0  0  0
  3 16  1  0  0  0  0
  3  9  1  0  0  0  0
  4  3  1  0  0  0  0
  5 14  1  0  0  0  0
  5  1  1  0  0  0  0
  6  5  1  0  0  0  0
  7  4  1  0  0  0  0
  8 18  2  0  0  0  0
 10 15  2  0  0  0  0
 10 17  1  0  0  0  0
 11  6  1  0  0  0  0
 12  3  1  0  0  0  0
 12 19  2  0  0  0  0
 13 20  1  0  0  0  0
 17  7  1  0  0  0  0
 18  6  1  0  0  0  0
 18  2  1  0  0  0  0
 20 12  1  0  0  0  0
 22 21  1  0  0  0  0
 23 13  1  0  0  0  0
 23 22  1  0  0  0  0
 23 21  1  0  0  0  0
 25 26  2  0  0  0  0
 26 24  1  0  0  0  0
 26  2  1  0  0  0  0
M  END
>  <MODEL>
1

>  <REMARK>
 VINA RESULT:      -5.8      0.000      0.000
  Name = 
  2 active torsions:
  status: ('A' for Active; 'I' for Inactive)
    1  A    between atoms: C_2  and  C_22
    2  A    between atoms: C_13  and  C_18
                            x       y       z     vdW  Elec       q    Type
                         _______ _______ _______ _____ _____    ______ ____

>  <TORSDO>
F 2

$$$$
=
 OpenBabel11072414243D

 26 28  0  0  1  0  0  0  0  0999 V2000
  160.8730  206.5010  151.1720 C   0  0  2  0  0  3  0  0  0  0  0  0
  160.4970  209.1760  152.2620 C   0  0  1  0  0  3  0  0  0  0  0  0
  162.1070  206.1810  147.4210 C   0  0  0  0  0  0  0  0  0  0  0  0
  161.9150  207.5090  148.1600 C   0  0  0  0  0  2  0  0  0  0  0  0
  161.7690  206.3390  152.4190 C   0  0  2  0  0  3  0  0  0  0  0  0
  161.3260  207.1360  153.5660 N   0  0  0  0  0  0  0  0  0  0  0  0
  162.3700  207.4180  149.4820 O   0  0  0  0  0  0  0  0  0  0  0  0
  161.2640  209.2580  154.5330 O   0  0  0  0  0  0  0  0  0  0  0  0
  161.7660  206.3670  146.0810 O   0  0  0  0  0  1  0  0  0  0  0  0
  161.3890  208.9970  151.0610 C   0  0  0  0  0  0  0  0  0  0  0  0
  161.3280  206.3380  155.1140 Cl  0  0  0  0  0  0  0  0  0  0  0  0
  161.2580  205.0640  147.9840 C   0  0  0  0  0  0  0  0  0  0  0  0
  160.7620  205.1670  150.4060 C   0  0  2  0  0  3  0  0  0  0  0  0
  163.2610  206.5130  152.1640 C   0  0  0  0  0  1  0  0  0  0  0  0
  162.4460  209.9390  150.7720 S   0  0  0  0  0  0  0  0  0  0  0  0
  163.4560  205.8160  147.4890 O   0  0  0  0  0  1  0  0  0  0  0  0
  161.2450  207.7080  150.2720 C   0  0  2  0  0  3  0  0  0  0  0  0
  161.0590  208.5490  153.5100 C   0  0  0  0  0  0  0  0  0  0  0  0
  161.4490  203.9170  147.6060 O   0  0  0  0  0  0  0  0  0  0  0  0
  160.1830  205.3150  148.9990 C   0  0  0  0  0  2  0  0  0  0  0  0
  160.2650  202.7780  150.5140 O   0  0  0  0  0  0  0  0  0  0  0  0
  161.0890  202.9850  151.6370 C   0  0  0  0  0  2  0  0  0  0  0  0
  160.1020  204.0100  151.1900 C   0  0  1  0  0  3  0  0  0  0  0  0
  158.6550  210.7250  153.1020 N   0  0  0  0  0  1  0  0  0  0  0  0
  160.5140  211.5480  151.9830 O   0  0  0  0  0  0  0  0  0  0  0  0
  159.8970  210.5470  152.4280 C   0  0  0  0  0  0  0  0  0  0  0  0
  1  5  1  0  0  0  0
  2 26  1  0  0  0  0
  2 18  1  0  0  0  0
  3 16  1  0  0  0  0
  3 12  1  0  0  0  0
  3  4  1  0  0  0  0
  4  7  1  0  0  0  0
  5  6  1  0  0  0  0
  6 11  1  0  0  0  0
  7 17  1  0  0  0  0
  9  3  1  0  0  0  0
 10  2  1  0  0  0  0
 12 20  1  0  0  0  0
 13  1  1  0  0  0  0
 13 23  1  0  0  0  0
 14  5  1  0  0  0  0
 15 10  2  0  0  0  0
 17 10  1  0  0  0  0
 17  1  1  0  0  0  0
 18  6  1  0  0  0  0
 18  8  2  0  0  0  0
 19 12  2  0  0  0  0
 20 13  1  0  0  0  0
 21 23  1  0  0  0  0
 21 22  1  0  0  0  0
 23 22  1  0  0  0  0
 25 26  2  0  0  0  0
 26 24  1  0  0  0  0
M  END
>  <MODEL>
2

>  <REMARK>
 VINA RESULT:      -5.4      2.826      6.964
  Name = 
  2 active torsions:
  status: ('A' for Active; 'I' for Inactive)
    1  A    between atoms: C_2  and  C_22
    2  A    between atoms: C_13  and  C_18
                            x       y       z     vdW  Elec       q    Type
                         _______ _______ _______ _____ _____    ______ ____

>  <TORSDO>
F 2

$$$$
=
 OpenBabel11072414243D

 26 28  0  0  1  0  0  0  0  0999 V2000
  160.6110  209.2630  154.4670 C   0  0  2  0  0  3  0  0  0  0  0  0
  159.0100  211.6350  153.9200 C   0  0  1  0  0  3  0  0  0  0  0  0
  161.5530  206.9150  151.4170 C   0  0  0  0  0  0  0  0  0  0  0  0
  160.7690  208.2250  151.2930 C   0  0  0  0  0  2  0  0  0  0  0  0
  161.5550  210.2980  155.1160 C   0  0  2  0  0  3  0  0  0  0  0  0
  160.8550  211.4530  155.6850 N   0  0  0  0  0  0  0  0  0  0  0  0
  161.3040  209.2120  152.1310 O   0  0  0  0  0  0  0  0  0  0  0  0
  159.7960  213.4820  155.2330 O   0  0  0  0  0  0  0  0  0  0  0  0
  161.0650  206.0160  150.4680 O   0  0  0  0  0  1  0  0  0  0  0  0
  159.7780  210.9970  152.7910 C   0  0  0  0  0  0  0  0  0  0  0  0
  161.3780  211.9790  157.2600 Cl  0  0  0  0  0  0  0  0  0  0  0  0
  161.4330  206.2840  152.7870 C   0  0  0  0  0  0  0  0  0  0  0  0
  161.1360  207.8300  154.6950 C   0  0  2  0  0  3  0  0  0  0  0  0
  162.7280  210.7310  154.2460 C   0  0  0  0  0  1  0  0  0  0  0  0
  160.1850  211.7680  151.6390 S   0  0  0  0  0  0  0  0  0  0  0  0
  162.9000  207.1660  151.1400 O   0  0  0  0  0  1  0  0  0  0  0  0
  160.2500  209.5680  152.9890 C   0  0  2  0  0  3  0  0  0  0  0  0
  159.9050  212.2550  154.9610 C   0  0  0  0  0  0  0  0  0  0  0  0
  162.1520  205.3370  153.0750 O   0  0  0  0  0  0  0  0  0  0  0  0
  160.4580  206.7820  153.8110 C   0  0  0  0  0  2  0  0  0  0  0  0
  160.4470  208.2340  157.0020 O   0  0  0  0  0  0  0  0  0  0  0  0
  159.8910  206.9720  156.7180 C   0  0  0  0  0  2  0  0  0  0  0  0
  161.2160  207.3850  156.1720 C   0  0  1  0  0  3  0  0  0  0  0  0
  156.6230  212.4450  154.2970 N   0  0  0  0  0  1  0  0  0  0  0  0
  157.8720  213.1610  152.4770 O   0  0  0  0  0  0  0  0  0  0  0  0
  157.8120  212.4500  153.5130 C   0  0  0  0  0  0  0  0  0  0  0  0
  1 13  1  0  0  0  0
  1  5  1  0  0  0  0
  2 18  1  0  0  0  0
  3 12  1  0  0  0  0
  4  3  1  0  0  0  0
  4  7  1  0  0  0  0
  5  6  1  0  0  0  0
  6 11  1  0  0  0  0
  7 17  1  0  0  0  0
  9  3  1  0  0  0  0
 10 17  1  0  0  0  0
 10  2  1  0  0  0  0
 12 19  2  0  0  0  0
 12 20  1  0  0  0  0
 13 23  1  0  0  0  0
 14  5  1  0  0  0  0
 15 10  2  0  0  0  0
 16  3  1  0  0  0  0
 17  1  1  0  0  0  0
 18  8  2  0  0  0  0
 18  6  1  0  0  0  0
 20 13  1  0  0  0  0
 22 21  1  0  0  0  0
 23 22  1  0  0  0  0
 23 21  1  0  0  0  0
 25 26  2  0  0  0  0
 26  2  1  0  0  0  0
 26 24  1  0  0  0  0
M  END
>  <MODEL>
3

>  <REMARK>
 VINA RESULT:      -4.4      3.347      5.997
  Name = 
  2 active torsions:
  status: ('A' for Active; 'I' for Inactive)
    1  A    between atoms: C_2  and  C_22
    2  A    between atoms: C_13  and  C_18
                            x       y       z     vdW  Elec       q    Type
                         _______ _______ _______ _____ _____    ______ ____

>  <TORSDO>
F 2

$$$$
=
 OpenBabel11072414243D

 26 28  0  0  1  0  0  0  0  0999 V2000
  160.3530  209.9950  152.2930 C   0  0  2  0  0  3  0  0  0  0  0  0
  160.8670  207.2810  151.3680 C   0  0  1  0  0  3  0  0  0  0  0  0
  159.7630  210.5550  156.1700 C   0  0  0  0  0  0  0  0  0  0  0  0
  160.1000  209.2050  155.5310 C   0  0  0  0  0  2  0  0  0  0  0  0
  161.6720  210.2830  151.5440 C   0  0  2  0  0  3  0  0  0  0  0  0
  161.8900  209.4120  150.3860 N   0  0  0  0  0  0  0  0  0  0  0  0
  161.0700  209.3510  154.5310 O   0  0  0  0  0  0  0  0  0  0  0  0
  162.5540  207.2950  149.6620 O   0  0  0  0  0  0  0  0  0  0  0  0
  158.8980  210.3330  157.2430 O   0  0  0  0  0  1  0  0  0  0  0  0
  161.1090  207.6160  152.8170 C   0  0  0  0  0  0  0  0  0  0  0  0
  162.4590  210.1810  148.9310 Cl  0  0  0  0  0  0  0  0  0  0  0  0
  159.0990  211.5140  155.2070 C   0  0  0  0  0  0  0  0  0  0  0  0
  159.7330  211.3030  152.8250 C   0  0  2  0  0  3  0  0  0  0  0  0
  162.9090  210.3540  152.4290 C   0  0  0  0  0  1  0  0  0  0  0  0
  162.0530  206.8590  153.6080 S   0  0  0  0  0  0  0  0  0  0  0  0
  160.9390  211.1310  156.6590 O   0  0  0  0  0  1  0  0  0  0  0  0
  160.4570  208.8740  153.3600 C   0  0  2  0  0  3  0  0  0  0  0  0
  161.8260  207.9750  150.4370 C   0  0  0  0  0  0  0  0  0  0  0  0
  158.9440  212.6820  155.5360 O   0  0  0  0  0  0  0  0  0  0  0  0
  158.6230  211.0820  153.8530 C   0  0  0  0  0  2  0  0  0  0  0  0
  158.4820  213.3280  152.2770 O   0  0  0  0  0  0  0  0  0  0  0  0
  159.8190  213.7040  152.0460 C   0  0  0  0  0  2  0  0  0  0  0  0
  159.3290  212.3300  151.7420 C   0  0  1  0  0  3  0  0  0  0  0  0
  160.9310  204.8160  152.0140 N   0  0  0  0  0  1  0  0  0  0  0  0
  160.0510  205.5130  149.9840 O   0  0  0  0  0  0  0  0  0  0  0  0
  160.5970  205.8300  151.0720 C   0  0  0  0  0  0  0  0  0  0  0  0
  1 13  1  0  0  0  0
  1 17  1  0  0  0  0
  2 10  1  0  0  0  0
  3 16  1  0  0  0  0
  3  9  1  0  0  0  0
  4  3  1  0  0  0  0
  5  1  1  0  0  0  0
  5 14  1  0  0  0  0
  6 18  1  0  0  0  0
  6  5  1  0  0  0  0
  7  4  1  0  0  0  0
  8 18  2  0  0  0  0
 10 17  1  0  0  0  0
 10 15  2  0  0  0  0
 11  6  1  0  0  0  0
 12 19  2  0  0  0  0
 12  3  1  0  0  0  0
 13 20  1  0  0  0  0
 17  7  1  0  0  0  0
 18  2  1  0  0  0  0
 20 12  1  0  0  0  0
 22 21  1  0  0  0  0
 23 22  1  0  0  0  0
 23 21  1  0  0  0  0
 23 13  1  0  0  0  0
 25 26  2  0  0  0  0
 26  2  1  0  0  0  0
 26 24  1  0  0  0  0
M  END
>  <MODEL>
4

>  <REMARK>
 VINA RESULT:      -4.2      1.337      1.498
  Name = 
  2 active torsions:
  status: ('A' for Active; 'I' for Inactive)
    1  A    between atoms: C_2  and  C_22
    2  A    between atoms: C_13  and  C_18
                            x       y       z     vdW  Elec       q    Type
                         _______ _______ _______ _____ _____    ______ ____

>  <TORSDO>
F 2

$$$$
=
 OpenBabel11072414243D

 26 28  0  0  1  0  0  0  0  0999 V2000
  160.4560  209.0450  153.3390 C   0  0  2  0  0  3  0  0  0  0  0  0
  158.4490  210.7350  154.6030 C   0  0  1  0  0  3  0  0  0  0  0  0
  161.9560  210.2220  149.8660 C   0  0  0  0  0  0  0  0  0  0  0  0
  160.9380  211.0210  150.6860 C   0  0  0  0  0  2  0  0  0  0  0  0
  161.1550  209.1990  154.7070 C   0  0  2  0  0  3  0  0  0  0  0  0
  160.2220  209.3540  155.8270 N   0  0  0  0  0  0  0  0  0  0  0  0
  161.2380  210.9620  152.0530 O   0  0  0  0  0  0  0  0  0  0  0  0
  158.8090  210.8140  156.9730 O   0  0  0  0  0  0  0  0  0  0  0  0
  161.6900  210.4260  148.5110 O   0  0  0  0  0  1  0  0  0  0  0  0
  159.3700  211.3410  153.5750 C   0  0  0  0  0  0  0  0  0  0  0  0
  160.5700  208.4290  157.2610 Cl  0  0  0  0  0  0  0  0  0  0  0  0
  161.9070  208.7370  150.1490 C   0  0  0  0  0  0  0  0  0  0  0  0
  161.2390  208.0690  152.4360 C   0  0  2  0  0  3  0  0  0  0  0  0
  162.2550  210.2520  154.7500 C   0  0  0  0  0  1  0  0  0  0  0  0
  159.6650  212.7560  153.5810 S   0  0  0  0  0  0  0  0  0  0  0  0
  163.2390  210.7040  150.1440 O   0  0  0  0  0  1  0  0  0  0  0  0
  160.1020  210.3870  152.6480 C   0  0  2  0  0  3  0  0  0  0  0  0
  159.1640  210.3280  155.8640 C   0  0  0  0  0  0  0  0  0  0  0  0
  162.7830  208.0120  149.7000 O   0  0  0  0  0  0  0  0  0  0  0  0
  160.8140  208.1180  150.9680 C   0  0  0  0  0  2  0  0  0  0  0  0
  161.2020  205.6840  151.9170 O   0  0  0  0  0  0  0  0  0  0  0  0
  162.5100  205.8870  152.3950 C   0  0  0  0  0  2  0  0  0  0  0  0
  161.3460  206.6210  152.9660 C   0  0  1  0  0  3  0  0  0  0  0  0
  155.9310  210.7030  154.9970 N   0  0  0  0  0  1  0  0  0  0  0  0
  157.0990  212.6970  154.7890 O   0  0  0  0  0  0  0  0  0  0  0  0
  157.1320  211.4400  154.7920 C   0  0  0  0  0  0  0  0  0  0  0  0
  1  5  1  0  0  0  0
  2 26  1  0  0  0  0
  2 18  1  0  0  0  0
  3 16  1  0  0  0  0
  3 12  1  0  0  0  0
  3  4  1  0  0  0  0
  4  7  1  0  0  0  0
  5 14  1  0  0  0  0
  5  6  1  0  0  0  0
  6 18  1  0  0  0  0
  6 11  1  0  0  0  0
  7 17  1  0  0  0  0
  9  3  1  0  0  0  0
 10 15  2  0  0  0  0
 10  2  1  0  0  0  0
 12 20  1  0  0  0  0
 13 23  1  0  0  0  0
 13  1  1  0  0  0  0
 17  1  1  0  0  0  0
 17 10  1  0  0  0  0
 18  8  2  0  0  0  0
 19 12  2  0  0  0  0
 20 13  1  0  0  0  0
 21 22  1  0  0  0  0
 21 23  1  0  0  0  0
 22 23  1  0  0  0  0
 25 26  2  0  0  0  0
 26 24  1  0  0  0  0
M  END
>  <MODEL>
5

>  <REMARK>
 VINA RESULT:      -3.8      3.463      6.597
  Name = 
  2 active torsions:
  status: ('A' for Active; 'I' for Inactive)
    1  A    between atoms: C_2  and  C_22
    2  A    between atoms: C_13  and  C_18
                            x       y       z     vdW  Elec       q    Type
                         _______ _______ _______ _____ _____    ______ ____

>  <TORSDO>
F 2

$$$$
=
 OpenBabel11072414243D

 26 28  0  0  1  0  0  0  0  0999 V2000
  161.1920  210.9270  152.4110 C   0  0  2  0  0  3  0  0  0  0  0  0
  161.7130  210.5900  155.2570 C   0  0  1  0  0  3  0  0  0  0  0  0
  161.7340  207.7980  150.0410 C   0  0  0  0  0  0  0  0  0  0  0  0
  161.9080  207.7730  151.5620 C   0  0  0  0  0  2  0  0  0  0  0  0
  159.8250  211.4250  152.9270 C   0  0  2  0  0  3  0  0  0  0  0  0
  159.8950  212.0760  154.2370 N   0  0  0  0  0  0  0  0  0  0  0  0
  160.9030  208.5160  152.1950 O   0  0  0  0  0  0  0  0  0  0  0  0
  160.0590  211.7590  156.5430 O   0  0  0  0  0  0  0  0  0  0  0  0
  162.6750  206.9380  149.4740 O   0  0  0  0  0  1  0  0  0  0  0  0
  161.4400  209.3690  154.4160 C   0  0  0  0  0  0  0  0  0  0  0  0
  158.9950  213.5550  154.4200 Cl  0  0  0  0  0  0  0  0  0  0  0  0
  161.9230  209.1770  149.4480 C   0  0  0  0  0  0  0  0  0  0  0  0
  161.2890  211.0920  150.8800 C   0  0  2  0  0  3  0  0  0  0  0  0
  158.7060  210.3920  152.8770 C   0  0  0  0  0  1  0  0  0  0  0  0
  160.9060  208.1630  155.0060 S   0  0  0  0  0  0  0  0  0  0  0  0
  160.4550  207.3300  149.7240 O   0  0  0  0  0  1  0  0  0  0  0  0
  161.5870  209.5130  152.9120 C   0  0  2  0  0  3  0  0  0  0  0  0
  160.5100  211.4860  155.3970 C   0  0  0  0  0  0  0  0  0  0  0  0
  161.6340  209.3690  148.2750 O   0  0  0  0  0  0  0  0  0  0  0  0
  162.4530  210.3250  150.2530 C   0  0  0  0  0  2  0  0  0  0  0  0
  161.3020  212.5980  148.9580 O   0  0  0  0  0  0  0  0  0  0  0  0
  160.0160  212.7820  149.5000 C   0  0  0  0  0  2  0  0  0  0  0  0
  161.2050  212.5480  150.3680 C   0  0  1  0  0  3  0  0  0  0  0  0
  163.5740  211.2140  156.8830 N   0  0  0  0  0  1  0  0  0  0  0  0
  162.1990  209.3830  157.2610 O   0  0  0  0  0  0  0  0  0  0  0  0
  162.5040  210.3500  156.5150 C   0  0  0  0  0  0  0  0  0  0  0  0
  1 17  1  0  0  0  0
  1  5  1  0  0  0  0
  2 18  1  0  0  0  0
  2 26  1  0  0  0  0
  3  4  1  0  0  0  0
  4  7  1  0  0  0  0
  5  6  1  0  0  0  0
  6 11  1  0  0  0  0
  6 18  1  0  0  0  0
  7 17  1  0  0  0  0
  9  3  1  0  0  0  0
 10 15  2  0  0  0  0
 10  2  1  0  0  0  0
 12  3  1  0  0  0  0
 12 20  1  0  0  0  0
 13  1  1  0  0  0  0
 14  5  1  0  0  0  0
 16  3  1  0  0  0  0
 17 10  1  0  0  0  0
 18  8  2  0  0  0  0
 19 12  2  0  0  0  0
 20 13  1  0  0  0  0
 21 22  1  0  0  0  0
 21 23  1  0  0  0  0
 22 23  1  0  0  0  0
 23 13  1  0  0  0  0
 26 24  1  0  0  0  0
 26 25  2  0  0  0  0
M  END
>  <MODEL>
6

>  <REMARK>
 VINA RESULT:      -3.7      2.978      5.990
  Name = 
  2 active torsions:
  status: ('A' for Active; 'I' for Inactive)
    1  A    between atoms: C_2  and  C_22
    2  A    between atoms: C_13  and  C_18
                            x       y       z     vdW  Elec       q    Type
                         _______ _______ _______ _____ _____    ______ ____

>  <TORSDO>
F 2

$$$$
=
 OpenBabel11072414243D

 26 28  0  0  1  0  0  0  0  0999 V2000
  161.4170  209.9730  152.4900 C   0  0  2  0  0  3  0  0  0  0  0  0
  161.7190  210.5910  155.3200 C   0  0  1  0  0  3  0  0  0  0  0  0
  161.5240  206.1660  151.3990 C   0  0  0  0  0  0  0  0  0  0  0  0
  161.6100  206.6550  152.8470 C   0  0  0  0  0  2  0  0  0  0  0  0
  160.1340  210.8160  152.6510 C   0  0  2  0  0  3  0  0  0  0  0  0
  160.2480  211.8700  153.6620 N   0  0  0  0  0  0  0  0  0  0  0  0
  160.7200  207.7120  153.0750 O   0  0  0  0  0  0  0  0  0  0  0  0
  160.2320  212.3680  155.9410 O   0  0  0  0  0  0  0  0  0  0  0  0
  162.3270  205.0330  151.2650 O   0  0  0  0  0  1  0  0  0  0  0  0
  161.2810  209.2060  154.9190 C   0  0  0  0  0  0  0  0  0  0  0  0
  159.6140  213.4340  153.2300 Cl  0  0  0  0  0  0  0  0  0  0  0  0
  161.9830  207.2030  150.3970 C   0  0  0  0  0  0  0  0  0  0  0  0
  161.6220  209.5710  151.0140 C   0  0  2  0  0  3  0  0  0  0  0  0
  158.8550  210.0090  152.8310 C   0  0  0  0  0  1  0  0  0  0  0  0
  160.5130  208.3790  155.8210 S   0  0  0  0  0  0  0  0  0  0  0  0
  160.2010  205.8090  151.1200 O   0  0  0  0  0  1  0  0  0  0  0  0
  161.5290  208.7860  153.4820 C   0  0  2  0  0  3  0  0  0  0  0  0
  160.6880  211.6450  155.0130 C   0  0  0  0  0  0  0  0  0  0  0  0
  161.7950  207.0080  149.2050 O   0  0  0  0  0  0  0  0  0  0  0  0
  162.6640  208.4700  150.8190 C   0  0  0  0  0  2  0  0  0  0  0  0
  162.8620  210.4710  149.1130 O   0  0  0  0  0  0  0  0  0  0  0  0
  161.5480  210.3660  148.6180 C   0  0  0  0  0  2  0  0  0  0  0  0
  161.8230  210.7480  150.0320 C   0  0  1  0  0  3  0  0  0  0  0  0
  163.0180  209.5680  157.2610 N   0  0  0  0  0  1  0  0  0  0  0  0
  162.4080  211.8070  157.2580 O   0  0  0  0  0  0  0  0  0  0  0  0
  162.3880  210.6980  156.6650 C   0  0  0  0  0  0  0  0  0  0  0  0
  1  5  1  0  0  0  0
  1 17  1  0  0  0  0
  2 26  1  0  0  0  0
  3  4  1  0  0  0  0
  4  7  1  0  0  0  0
  5 14  1  0  0  0  0
  5  6  1  0  0  0  0
  6 18  1  0  0  0  0
  7 17  1  0  0  0  0
  9  3  1  0  0  0  0
 10  2  1  0  0  0  0
 10 15  2  0  0  0  0
 11  6  1  0  0  0  0
 12 20  1  0  0  0  0
 12  3  1  0  0  0  0
 13  1  1  0  0  0  0
 16  3  1  0  0  0  0
 17 10  1  0  0  0  0
 18  2  1  0  0  0  0
 18  8  2  0  0  0  0
 19 12  2  0  0  0  0
 20 13  1  0  0  0  0
 21 23  1  0  0  0  0
 22 21  1  0  0  0  0
 22 23  1  0  0  0  0
 23 13  1  0  0  0  0
 26 25  2  0  0  0  0
 26 24  1  0  0  0  0
M  END
>  <MODEL>
7

>  <REMARK>
 VINA RESULT:      -2.9      2.886      5.902
  Name = 
  2 active torsions:
  status: ('A' for Active; 'I' for Inactive)
    1  A    between atoms: C_2  and  C_22
    2  A    between atoms: C_13  and  C_18
                            x       y       z     vdW  Elec       q    Type
                         _______ _______ _______ _____ _____    ______ ____

>  <TORSDO>
F 2

$$$$
