=
 OpenBabel11072410243D

 51 54  0  0  1  0  0  0  0  0999 V2000
  161.0780  205.8400  145.1160 C   0  0  0  0  0  0  0  0  0  0  0  0
  159.7550  205.9490  145.1510 C   0  0  0  0  0  2  0  0  0  0  0  0
  163.0100  205.5010  146.4570 O   0  0  0  0  0  0  0  0  0  0  0  0
  161.8810  206.0550  146.3360 C   0  0  0  0  0  0  0  0  0  0  0  0
  161.3750  206.9580  147.4210 C   0  0  1  0  0  3  0  0  0  0  0  0
  160.3270  206.2640  148.2800 C   0  0  0  0  0  2  0  0  0  0  0  0
  160.9490  205.2120  149.0710 N   0  0  0  0  0  2  0  0  0  0  0  0
  160.7400  203.9630  148.3530 C   0  0  0  0  0  2  0  0  0  0  0  0
  161.6490  202.8800  148.9290 C   0  0  0  0  0  2  0  0  0  0  0  0
  160.8800  201.6240  149.3420 C   0  0  2  0  0  0  0  0  0  0  0  0
  159.5400  201.7340  148.9340 O   0  0  0  0  0  1  0  0  0  0  0  0
  160.5810  202.6440  151.5290 O   0  0  0  0  0  0  0  0  0  0  0  0
  161.9730  202.4240  151.4710 C   0  0  0  0  0  2  0  0  0  0  0  0
  161.0070  201.4730  150.8700 C   0  0  2  0  0  3  0  0  0  0  0  0
  161.4980  200.4220  148.6870 C   0  0  0  0  0  3  0  0  0  0  0  0
  161.4120  200.2500  147.4790 O   0  0  0  0  0  0  0  0  0  0  0  0
  162.7570  207.5390  148.4520 S   0  0  0  0  0  0  0  0  0  0  0  0
  161.8210  208.9600  149.1020 C   0  0  1  0  0  3  0  0  0  0  0  0
  162.5920  207.3490  151.0960 O   0  0  0  0  0  1  0  0  0  0  0  0
  162.7650  209.8840  151.4220 O   0  0  0  0  0  1  0  0  0  0  0  0
  161.5570  208.7370  150.9320 P   0  0  0  0  0  0  0  0  0  0  0  0
  162.5630  210.1860  148.8600 N   0  0  0  0  0  2  0  0  0  0  0  0
  161.5780  211.2260  148.5930 C   0  0  0  0  0  2  0  0  0  0  0  0
  163.5140  212.3630  147.7600 O   0  0  0  0  0  1  0  0  0  0  0  0
  162.2610  212.5630  148.3460 C   0  0  1  0  0  3  0  0  0  0  0  0
  161.4750  213.3640  147.5150 O   0  0  0  0  0  0  0  0  0  0  0  0
  160.7330  212.4630  146.7440 C   0  0  0  0  0  1  0  0  0  0  0  0
  161.7270  205.3880  143.8500 C   0  0  0  0  0  2  0  0  0  0  0  0
  161.6030  206.4680  142.7860 C   0  0  0  0  0  2  0  0  0  0  0  0
  161.9950  205.9270  141.4190 C   0  0  0  0  0  2  0  0  0  0  0  0
  162.3500  207.0480  140.4540 C   0  0  1  0  0  3  0  0  0  0  0  0
  161.3010  208.7320  139.0710 C   0  0  1  0  0  0  0  0  0  0  0  0
  161.5940  211.0600  138.1010 C   0  0  0  0  0  2  0  0  0  0  0  0
  162.3610  206.5280  139.0380 C   0  0  0  0  0  2  0  0  0  0  0  0
  160.1730  211.4870  138.4890 C   0  0  1  0  0  3  0  0  0  0  0  0
  159.8530  208.9510  138.6020 C   0  0  0  0  0  2  0  0  0  0  0  0
  161.9700  207.7080  138.1660 C   0  0  0  0  0  2  0  0  0  0  0  0
  162.1390  210.0200  139.0770 C   0  0  0  0  0  2  0  0  0  0  0  0
  161.2990  208.1370  140.4670 C   0  0  0  0  0  2  0  0  0  0  0  0
  159.3170  210.3200  139.0270 C   0  0  2  0  0  3  0  0  0  0  0  0
  157.5610  211.3080  137.7300 O   0  0  0  0  0  0  0  0  0  0  0  0
  157.8900  210.4660  138.6070 C   0  0  0  0  0  0  0  0  0  0  0  0
  156.9190  209.6610  139.1860 O   0  0  0  0  0  1  0  0  0  0  0  0
  160.2490  212.6040  139.5170 C   0  0  0  0  0  2  0  0  0  0  0  0
  161.7610  213.5870  139.2820 S   0  0  0  0  0  0  0  0  0  0  0  0
  163.2140  214.2730  141.5350 C   0  0  0  0  0  3  0  0  0  0  0  0
  161.5360  212.5490  141.8390 C   0  0  0  0  0  3  0  0  0  0  0  0
  163.5600  214.1740  142.8860 C   0  0  0  0  0  3  0  0  0  0  0  0
  161.8830  212.4520  143.1910 C   0  0  0  0  0  3  0  0  0  0  0  0
  162.2040  213.4580  141.0110 C   0  0  0  0  0  0  0  0  0  0  0  0
  162.8940  213.2640  143.7150 C   0  0  0  0  0  3  0  0  0  0  0  0
  1  2  2  0  0  0  0
  1  4  1  0  0  0  0
  4  3  2  0  0  0  0
  4  5  1  0  0  0  0
  5  6  1  1  0  0  0
  5 17  1  0  0  0  0
  6  7  1  0  0  0  0
  8  9  1  0  0  0  0
  8  7  1  0  0  0  0
  9 10  1  0  0  0  0
 10 11  1  6  0  0  0
 13 12  1  0  0  0  0
 14 10  1  6  0  0  0
 14 13  1  0  0  0  0
 14 12  1  0  0  0  0
 15 10  1  0  0  0  0
 16 15  2  0  0  0  0
 18 17  1  1  0  0  0
 18 21  1  0  0  0  0
 21 19  1  0  0  0  0
 21 20  1  0  0  0  0
 22 18  1  0  0  0  0
 23 22  1  0  0  0  0
 25 24  1  6  0  0  0
 25 23  1  0  0  0  0
 26 25  1  0  0  0  0
 27 26  1  0  0  0  0
 28  1  1  0  0  0  0
 29 28  1  0  0  0  0
 30 29  1  0  0  0  0
 31 39  1  0  0  0  0
 31 30  1  1  0  0  0
 32 37  1  6  0  0  0
 32 38  1  0  0  0  0
 32 39  1  0  0  0  0
 33 35  1  0  0  0  0
 33 38  1  0  0  0  0
 34 31  1  0  0  0  0
 35 40  1  0  0  0  0
 35 44  1  1  0  0  0
 36 40  1  0  0  0  0
 36 32  1  0  0  0  0
 37 34  1  0  0  0  0
 40 42  1  6  0  0  0
 41 42  2  0  0  0  0
 42 43  1  0  0  0  0
 45 44  1  0  0  0  0
 45 50  1  0  0  0  0
 46 48  1  0  0  0  0
 47 49  2  0  0  0  0
 48 51  2  0  0  0  0
 49 51  1  0  0  0  0
 50 46  2  0  0  0  0
 50 47  1  0  0  0  0
M  END
>  <MODEL>
1

>  <REMARK>
 VINA RESULT:      -4.8      0.000      0.000
  Name = 
  24 active torsions:
  status: ('A' for Active; 'I' for Inactive)
    1  A    between atoms: C_1  and  C_7
    2  A    between atoms: C_4  and  C_35
    3  A    between atoms: C_6  and  C_10
    4  A    between atoms: C_6  and  C_31
    5  A    between atoms: C_7  and  C_16
    6  A    between atoms: C_7  and  C_45
    7  A    between atoms: C_9  and  C_10
    8  A    between atoms: C_9  and  C_35
    9  A    between atoms: C_11  and  C_42
   10  A    between atoms: S_12  and  C_13
   11  A    between atoms: S_12  and  C_27
   12  A    between atoms: C_13  and  C_31
   13  A    between atoms: C_13  and  C_34
   14  A    between atoms: C_16  and  C_29
   15  A    between atoms: C_18  and  O_33
   16  A    between atoms: C_18  and  C_44
   17  A    between atoms: C_20  and  C_28
   18  A    between atoms: N_25  and  C_27
   19  A    between atoms: N_25  and  C_44
   20  A    between atoms: C_27  and  P_49
   21  A    between atoms: C_28  and  S_43
   22  A    between atoms: C_29  and  N_51
   23  A    between atoms: C_34  and  N_51
   24  A    between atoms: S_43  and  C_48
                            x       y       z     vdW  Elec       q    Type
                         _______ _______ _______ _____ _____    ______ ____

>  <TORSDO>
F 24

$$$$
=
 OpenBabel11072410243D

 51 54  0  0  1  0  0  0  0  0999 V2000
  161.2480  212.5370  149.1950 C   0  0  0  0  0  0  0  0  0  0  0  0
  160.0890  212.9560  149.6880 C   0  0  0  0  0  2  0  0  0  0  0  0
  163.1590  211.1670  149.5340 O   0  0  0  0  0  0  0  0  0  0  0  0
  161.9400  211.3760  149.7890 C   0  0  0  0  0  0  0  0  0  0  0  0
  161.2080  210.4590  150.7220 C   0  0  1  0  0  3  0  0  0  0  0  0
  161.4960  208.9970  150.4090 C   0  0  0  0  0  2  0  0  0  0  0  0
  161.7450  208.8340  148.9840 N   0  0  0  0  0  2  0  0  0  0  0  0
  162.1220  207.4430  148.7780 C   0  0  0  0  0  2  0  0  0  0  0  0
  161.0200  206.7190  148.0090 C   0  0  0  0  0  2  0  0  0  0  0  0
  161.5700  205.7870  146.9290 C   0  0  2  0  0  0  0  0  0  0  0  0
  162.9360  206.0460  146.7320 O   0  0  0  0  0  1  0  0  0  0  0  0
  160.2770  204.7910  145.1260 O   0  0  0  0  0  0  0  0  0  0  0  0
  161.3590  205.3880  144.4460 C   0  0  0  0  0  2  0  0  0  0  0  0
  160.7490  206.0130  145.6450 C   0  0  2  0  0  3  0  0  0  0  0  0
  161.3970  204.3600  147.3650 C   0  0  0  0  0  3  0  0  0  0  0  0
  160.8490  204.0880  148.4240 O   0  0  0  0  0  0  0  0  0  0  0  0
  161.6450  210.8360  152.4470 S   0  0  0  0  0  0  0  0  0  0  0  0
  160.1180  210.1000  153.1130 C   0  0  1  0  0  3  0  0  0  0  0  0
  161.4340  207.9890  154.1010 O   0  0  0  0  0  1  0  0  0  0  0  0
  161.8540  210.2960  155.1310 O   0  0  0  0  0  1  0  0  0  0  0  0
  160.4870  209.2950  154.7510 P   0  0  0  0  0  0  0  0  0  0  0  0
  159.1140  211.1360  153.2920 N   0  0  0  0  0  2  0  0  0  0  0  0
  158.7630  211.1400  154.7070 C   0  0  0  0  0  2  0  0  0  0  0  0
  157.1960  212.0920  156.2460 O   0  0  0  0  0  1  0  0  0  0  0  0
  157.8490  212.3130  155.0310 C   0  0  1  0  0  3  0  0  0  0  0  0
  158.5860  213.4980  155.1000 O   0  0  0  0  0  0  0  0  0  0  0  0
  157.7640  214.3920  155.7930 C   0  0  0  0  0  1  0  0  0  0  0  0
  161.7810  213.1900  147.9630 C   0  0  0  0  0  2  0  0  0  0  0  0
  161.2200  212.5060  146.7260 C   0  0  0  0  0  2  0  0  0  0  0  0
  160.0600  213.3030  146.1470 C   0  0  0  0  0  2  0  0  0  0  0  0
  160.4500  213.9980  144.8520 C   0  0  1  0  0  3  0  0  0  0  0  0
  161.2530  213.4980  142.6250 C   0  0  1  0  0  0  0  0  0  0  0  0
  161.2010  214.2720  140.2080 C   0  0  0  0  0  2  0  0  0  0  0  0
  161.9320  214.2800  144.8410 C   0  0  0  0  0  2  0  0  0  0  0  0
  160.9360  212.8580  139.6780 C   0  0  1  0  0  3  0  0  0  0  0  0
  161.8490  212.2350  141.9850 C   0  0  0  0  0  2  0  0  0  0  0  0
  162.3450  214.2400  143.3810 C   0  0  0  0  0  2  0  0  0  0  0  0
  160.6120  214.4520  141.6040 C   0  0  0  0  0  2  0  0  0  0  0  0
  160.2100  213.1030  143.6550 C   0  0  0  0  0  2  0  0  0  0  0  0
  161.0390  211.7730  140.7710 C   0  0  2  0  0  3  0  0  0  0  0  0
  162.8520  210.2800  140.2980 O   0  0  0  0  0  1  0  0  0  0  0  0
  161.6160  210.5090  140.2190 C   0  0  0  0  0  0  0  0  0  0  0  0
  160.7800  209.5800  139.6170 O   0  0  0  0  0  0  0  0  0  0  0  0
  159.5650  212.8170  139.0220 C   0  0  0  0  0  2  0  0  0  0  0  0
  159.6540  211.9870  137.4070 S   0  0  0  0  0  0  0  0  0  0  0  0
  158.0030  209.8020  137.0110 C   0  0  0  0  0  3  0  0  0  0  0  0
  157.3940  211.2750  138.8380 C   0  0  0  0  0  3  0  0  0  0  0  0
  156.9040  208.9880  137.3010 C   0  0  0  0  0  3  0  0  0  0  0  0
  156.2950  210.4600  139.1280 C   0  0  0  0  0  3  0  0  0  0  0  0
  158.2470  210.9470  137.7780 C   0  0  0  0  0  0  0  0  0  0  0  0
  156.0500  209.3160  138.3600 C   0  0  0  0  0  3  0  0  0  0  0  0
  1  2  2  0  0  0  0
  1  4  1  0  0  0  0
  3  4  2  0  0  0  0
  4  5  1  0  0  0  0
  5  6  1  6  0  0  0
  5 17  1  0  0  0  0
  7  6  1  0  0  0  0
  8  7  1  0  0  0  0
  9  8  1  0  0  0  0
 10 11  1  6  0  0  0
 10 15  1  0  0  0  0
 10  9  1  0  0  0  0
 12 14  1  0  0  0  0
 13 12  1  0  0  0  0
 13 14  1  0  0  0  0
 14 10  1  1  0  0  0
 15 16  2  0  0  0  0
 18 17  1  1  0  0  0
 18 22  1  0  0  0  0
 18 21  1  0  0  0  0
 19 21  1  0  0  0  0
 21 20  1  0  0  0  0
 22 23  1  0  0  0  0
 23 25  1  0  0  0  0
 25 26  1  0  0  0  0
 25 24  1  1  0  0  0
 26 27  1  0  0  0  0
 28  1  1  0  0  0  0
 29 28  1  0  0  0  0
 30 29  1  0  0  0  0
 31 30  1  1  0  0  0
 32 38  1  6  0  0  0
 32 37  1  0  0  0  0
 32 39  1  0  0  0  0
 33 38  1  0  0  0  0
 34 31  1  0  0  0  0
 35 44  1  1  0  0  0
 35 33  1  0  0  0  0
 35 40  1  0  0  0  0
 36 32  1  0  0  0  0
 37 34  1  0  0  0  0
 39 31  1  0  0  0  0
 40 42  1  6  0  0  0
 40 36  1  0  0  0  0
 42 41  1  0  0  0  0
 43 42  2  0  0  0  0
 45 50  1  0  0  0  0
 45 44  1  0  0  0  0
 46 48  2  0  0  0  0
 46 50  1  0  0  0  0
 47 49  1  0  0  0  0
 48 51  1  0  0  0  0
 50 47  2  0  0  0  0
 51 49  2  0  0  0  0
M  END
>  <MODEL>
2

>  <REMARK>
 VINA RESULT:      -4.0      3.314      6.404
  Name = 
  24 active torsions:
  status: ('A' for Active; 'I' for Inactive)
    1  A    between atoms: C_1  and  C_7
    2  A    between atoms: C_4  and  C_35
    3  A    between atoms: C_6  and  C_10
    4  A    between atoms: C_6  and  C_31
    5  A    between atoms: C_7  and  C_16
    6  A    between atoms: C_7  and  C_45
    7  A    between atoms: C_9  and  C_10
    8  A    between atoms: C_9  and  C_35
    9  A    between atoms: C_11  and  C_42
   10  A    between atoms: S_12  and  C_13
   11  A    between atoms: S_12  and  C_27
   12  A    between atoms: C_13  and  C_31
   13  A    between atoms: C_13  and  C_34
   14  A    between atoms: C_16  and  C_29
   15  A    between atoms: C_18  and  O_33
   16  A    between atoms: C_18  and  C_44
   17  A    between atoms: C_20  and  C_28
   18  A    between atoms: N_25  and  C_27
   19  A    between atoms: N_25  and  C_44
   20  A    between atoms: C_27  and  P_49
   21  A    between atoms: C_28  and  S_43
   22  A    between atoms: C_29  and  N_51
   23  A    between atoms: C_34  and  N_51
   24  A    between atoms: S_43  and  C_48
                            x       y       z     vdW  Elec       q    Type
                         _______ _______ _______ _____ _____    ______ ____

>  <TORSDO>
F 24

$$$$
=
 OpenBabel11072410243D

 51 54  0  0  1  0  0  0  0  0999 V2000
  161.2560  212.6950  149.1470 C   0  0  0  0  0  0  0  0  0  0  0  0
  160.2360  213.0040  149.9390 C   0  0  0  0  0  2  0  0  0  0  0  0
  163.2420  211.4790  149.6150 O   0  0  0  0  0  0  0  0  0  0  0  0
  162.0080  211.4410  149.3470 C   0  0  0  0  0  0  0  0  0  0  0  0
  161.3050  210.1200  149.2650 C   0  0  1  0  0  3  0  0  0  0  0  0
  162.2430  209.0170  148.7940 C   0  0  0  0  0  2  0  0  0  0  0  0
  161.5320  208.1020  147.9140 N   0  0  0  0  0  2  0  0  0  0  0  0
  162.0110  206.7620  148.2200 C   0  0  0  0  0  2  0  0  0  0  0  0
  161.0220  205.7270  147.6900 C   0  0  0  0  0  2  0  0  0  0  0  0
  161.6790  204.7060  146.7600 C   0  0  2  0  0  0  0  0  0  0  0  0
  163.0510  204.9850  146.6460 O   0  0  0  0  0  1  0  0  0  0  0  0
  161.6030  205.6890  144.5380 O   0  0  0  0  0  0  0  0  0  0  0  0
  160.3860  206.1120  145.1120 C   0  0  0  0  0  2  0  0  0  0  0  0
  160.9620  204.7760  145.3980 C   0  0  2  0  0  3  0  0  0  0  0  0
  161.5020  203.3270  147.3270 C   0  0  0  0  0  3  0  0  0  0  0  0
  161.5030  203.1380  148.5360 O   0  0  0  0  0  0  0  0  0  0  0  0
  160.5820  209.6900  150.8790 S   0  0  0  0  0  0  0  0  0  0  0  0
  162.2050  209.5390  151.6910 C   0  0  1  0  0  3  0  0  0  0  0  0
  160.8410  211.4420  152.9870 O   0  0  0  0  0  1  0  0  0  0  0  0
  161.0910  209.1420  154.0840 O   0  0  0  0  0  1  0  0  0  0  0  0
  162.1280  210.3380  153.3710 P   0  0  0  0  0  0  0  0  0  0  0  0
  162.5520  208.1340  151.8330 N   0  0  0  0  0  2  0  0  0  0  0  0
  161.3020  207.3870  151.7800 C   0  0  0  0  0  2  0  0  0  0  0  0
  162.9460  205.6450  151.7690 O   0  0  0  0  0  1  0  0  0  0  0  0
  161.5730  205.8920  151.6880 C   0  0  1  0  0  3  0  0  0  0  0  0
  160.9110  205.2140  152.7140 O   0  0  0  0  0  0  0  0  0  0  0  0
  160.7610  203.9060  152.2420 C   0  0  0  0  0  1  0  0  0  0  0  0
  161.5550  213.5830  147.9850 C   0  0  0  0  0  2  0  0  0  0  0  0
  161.5920  212.7690  146.7010 C   0  0  0  0  0  2  0  0  0  0  0  0
  160.1830  212.4560  146.2180 C   0  0  0  0  0  2  0  0  0  0  0  0
  159.8950  213.1080  144.8740 C   0  0  1  0  0  3  0  0  0  0  0  0
  160.3980  212.8520  142.5220 C   0  0  1  0  0  0  0  0  0  0  0  0
  159.4880  213.2230  140.1810 C   0  0  0  0  0  2  0  0  0  0  0  0
  160.9760  214.1060  144.5410 C   0  0  0  0  0  2  0  0  0  0  0  0
  159.9060  211.8250  139.7110 C   0  0  1  0  0  3  0  0  0  0  0  0
  161.4320  212.0120  141.7560 C   0  0  0  0  0  2  0  0  0  0  0  0
  161.0620  214.1250  143.0250 C   0  0  0  0  0  2  0  0  0  0  0  0
  159.1720  213.2270  141.6740 C   0  0  0  0  0  2  0  0  0  0  0  0
  159.9360  212.0930  143.7520 C   0  0  0  0  0  2  0  0  0  0  0  0
  160.7690  211.0710  140.7470 C   0  0  2  0  0  3  0  0  0  0  0  0
  162.6690  210.7570  139.3220 O   0  0  0  0  0  0  0  0  0  0  0  0
  161.8040  210.2310  140.0710 C   0  0  0  0  0  0  0  0  0  0  0  0
  161.8130  208.8590  140.2760 O   0  0  0  0  0  1  0  0  0  0  0  0
  158.6640  211.0170  139.3720 C   0  0  0  0  0  2  0  0  0  0  0  0
  157.4310  212.0610  138.5380 S   0  0  0  0  0  0  0  0  0  0  0  0
  154.8350  211.5100  139.3230 C   0  0  0  0  0  3  0  0  0  0  0  0
  156.2850  209.5890  139.0260 C   0  0  0  0  0  3  0  0  0  0  0  0
  153.7840  210.6610  139.6810 C   0  0  0  0  0  3  0  0  0  0  0  0
  155.2330  208.7400  139.3840 C   0  0  0  0  0  3  0  0  0  0  0  0
  156.0870  210.9740  138.9980 C   0  0  0  0  0  0  0  0  0  0  0  0
  153.9820  209.2750  139.7100 C   0  0  0  0  0  3  0  0  0  0  0  0
  1  4  1  0  0  0  0
  1  2  2  0  0  0  0
  4  3  2  0  0  0  0
  5  6  1  1  0  0  0
  5  4  1  0  0  0  0
  5 17  1  0  0  0  0
  7  8  1  0  0  0  0
  7  6  1  0  0  0  0
  9  8  1  0  0  0  0
 10 11  1  6  0  0  0
 10 15  1  0  0  0  0
 10  9  1  0  0  0  0
 12 13  1  0  0  0  0
 12 14  1  0  0  0  0
 13 14  1  0  0  0  0
 14 10  1  1  0  0  0
 15 16  2  0  0  0  0
 18 17  1  1  0  0  0
 18 22  1  0  0  0  0
 18 21  1  0  0  0  0
 19 21  1  0  0  0  0
 21 20  1  0  0  0  0
 23 22  1  0  0  0  0
 25 24  1  1  0  0  0
 25 23  1  0  0  0  0
 25 26  1  0  0  0  0
 27 26  1  0  0  0  0
 28  1  1  0  0  0  0
 29 28  1  0  0  0  0
 30 29  1  0  0  0  0
 31 30  1  1  0  0  0
 32 38  1  6  0  0  0
 32 37  1  0  0  0  0
 32 39  1  0  0  0  0
 33 38  1  0  0  0  0
 34 31  1  0  0  0  0
 35 44  1  1  0  0  0
 35 33  1  0  0  0  0
 35 40  1  0  0  0  0
 36 32  1  0  0  0  0
 37 34  1  0  0  0  0
 39 31  1  0  0  0  0
 40 42  1  6  0  0  0
 40 36  1  0  0  0  0
 41 42  2  0  0  0  0
 42 43  1  0  0  0  0
 45 50  1  0  0  0  0
 45 44  1  0  0  0  0
 46 48  1  0  0  0  0
 47 49  2  0  0  0  0
 48 51  2  0  0  0  0
 49 51  1  0  0  0  0
 50 47  1  0  0  0  0
 50 46  2  0  0  0  0
M  END
>  <MODEL>
3

>  <REMARK>
 VINA RESULT:      -4.0      2.509      6.327
  Name = 
  24 active torsions:
  status: ('A' for Active; 'I' for Inactive)
    1  A    between atoms: C_1  and  C_7
    2  A    between atoms: C_4  and  C_35
    3  A    between atoms: C_6  and  C_10
    4  A    between atoms: C_6  and  C_31
    5  A    between atoms: C_7  and  C_16
    6  A    between atoms: C_7  and  C_45
    7  A    between atoms: C_9  and  C_10
    8  A    between atoms: C_9  and  C_35
    9  A    between atoms: C_11  and  C_42
   10  A    between atoms: S_12  and  C_13
   11  A    between atoms: S_12  and  C_27
   12  A    between atoms: C_13  and  C_31
   13  A    between atoms: C_13  and  C_34
   14  A    between atoms: C_16  and  C_29
   15  A    between atoms: C_18  and  O_33
   16  A    between atoms: C_18  and  C_44
   17  A    between atoms: C_20  and  C_28
   18  A    between atoms: N_25  and  C_27
   19  A    between atoms: N_25  and  C_44
   20  A    between atoms: C_27  and  P_49
   21  A    between atoms: C_28  and  S_43
   22  A    between atoms: C_29  and  N_51
   23  A    between atoms: C_34  and  N_51
   24  A    between atoms: S_43  and  C_48
                            x       y       z     vdW  Elec       q    Type
                         _______ _______ _______ _____ _____    ______ ____

>  <TORSDO>
F 24

$$$$
=
 OpenBabel11072410243D

 51 54  0  0  1  0  0  0  0  0999 V2000
  162.3460  209.5780  151.1550 C   0  0  0  0  0  0  0  0  0  0  0  0
  163.4400  210.2480  151.4970 C   0  0  0  0  0  2  0  0  0  0  0  0
  160.0570  209.1430  151.6180 O   0  0  0  0  0  0  0  0  0  0  0  0
  161.1710  209.5550  152.0480 C   0  0  0  0  0  0  0  0  0  0  0  0
  161.3020  209.9890  153.4770 C   0  0  1  0  0  3  0  0  0  0  0  0
  161.1210  211.4940  153.6210 C   0  0  0  0  0  2  0  0  0  0  0  0
  159.8610  211.7810  154.2910 N   0  0  0  0  0  2  0  0  0  0  0  0
  159.1860  212.8030  153.5040 C   0  0  0  0  0  2  0  0  0  0  0  0
  158.5110  213.8080  154.4340 C   0  0  0  0  0  2  0  0  0  0  0  0
  157.0810  213.4060  154.7970 C   0  0  2  0  0  0  0  0  0  0  0  0
  156.8630  212.0650  154.4430 O   0  0  0  0  0  1  0  0  0  0  0  0
  155.3380  213.6620  153.1220 O   0  0  0  0  0  0  0  0  0  0  0  0
  156.3880  214.4500  152.6070 C   0  0  0  0  0  2  0  0  0  0  0  0
  156.1200  214.3610  154.0630 C   0  0  2  0  0  3  0  0  0  0  0  0
  156.8790  213.5650  156.2770 C   0  0  0  0  0  3  0  0  0  0  0  0
  157.4490  214.4490  156.8990 O   0  0  0  0  0  0  0  0  0  0  0  0
  160.1020  209.1030  154.5170 S   0  0  0  0  0  0  0  0  0  0  0  0
  161.2000  207.6710  154.7610 C   0  0  1  0  0  3  0  0  0  0  0  0
  161.1040  208.6750  157.2400 O   0  0  0  0  0  1  0  0  0  0  0  0
  159.3390  206.9580  156.5360 O   0  0  0  0  0  1  0  0  0  0  0  0
  161.0700  207.0900  156.5250 P   0  0  0  0  0  0  0  0  0  0  0  0
  160.8100  206.5970  153.8620 N   0  0  0  0  0  2  0  0  0  0  0  0
  161.8940  206.4420  152.9000 C   0  0  0  0  0  2  0  0  0  0  0  0
  161.1640  204.1640  152.7920 O   0  0  0  0  0  1  0  0  0  0  0  0
  161.6660  205.2190  152.0250 C   0  0  1  0  0  3  0  0  0  0  0  0
  160.7720  205.5190  150.9940 O   0  0  0  0  0  0  0  0  0  0  0  0
  160.4450  204.2820  150.4300 C   0  0  0  0  0  1  0  0  0  0  0  0
  162.2870  208.9420  149.8060 C   0  0  0  0  0  2  0  0  0  0  0  0
  161.5940  209.8710  148.8210 C   0  0  0  0  0  2  0  0  0  0  0  0
  161.7280  211.3210  149.2600 C   0  0  0  0  0  2  0  0  0  0  0  0
  160.8610  212.2440  148.4160 C   0  0  1  0  0  3  0  0  0  0  0  0
  160.8750  213.4040  146.2940 C   0  0  1  0  0  0  0  0  0  0  0  0
  159.3950  214.2490  144.4120 C   0  0  0  0  0  2  0  0  0  0  0  0
  161.2100  213.6840  148.7000 C   0  0  0  0  0  2  0  0  0  0  0  0
  160.3230  213.6930  143.3250 C   0  0  1  0  0  3  0  0  0  0  0  0
  161.9820  213.7090  145.2720 C   0  0  0  0  0  2  0  0  0  0  0  0
  160.9280  214.4350  147.4110 C   0  0  0  0  0  2  0  0  0  0  0  0
  159.4660  213.4010  145.6790 C   0  0  0  0  0  2  0  0  0  0  0  0
  161.1360  212.0560  146.9390 C   0  0  0  0  0  2  0  0  0  0  0  0
  161.6530  213.1450  143.8870 C   0  0  2  0  0  3  0  0  0  0  0  0
  163.8010  214.0430  143.3230 O   0  0  0  0  0  1  0  0  0  0  0  0
  162.7810  213.4090  142.9440 C   0  0  0  0  0  0  0  0  0  0  0  0
  162.7050  212.9470  141.6380 O   0  0  0  0  0  0  0  0  0  0  0  0
  159.5920  212.6080  142.5500 C   0  0  0  0  0  2  0  0  0  0  0  0
  158.7760  213.3110  141.0850 S   0  0  0  0  0  0  0  0  0  0  0  0
  160.4440  211.2250  140.3620 C   0  0  0  0  0  3  0  0  0  0  0  0
  160.1190  212.9520  138.6910 C   0  0  0  0  0  3  0  0  0  0  0  0
  161.2910  210.5380  139.4870 C   0  0  0  0  0  3  0  0  0  0  0  0
  160.9650  212.2630  137.8160 C   0  0  0  0  0  3  0  0  0  0  0  0
  159.8600  212.4340  139.9650 C   0  0  0  0  0  0  0  0  0  0  0  0
  161.5510  211.0560  138.2140 C   0  0  0  0  0  3  0  0  0  0  0  0
  1  2  2  0  0  0  0
  1  4  1  0  0  0  0
  3  4  2  0  0  0  0
  4  5  1  0  0  0  0
  5  6  1  6  0  0  0
  5 17  1  0  0  0  0
  6  7  1  0  0  0  0
  8  7  1  0  0  0  0
  8  9  1  0  0  0  0
  9 10  1  0  0  0  0
 10 11  1  6  0  0  0
 10 15  1  0  0  0  0
 12 14  1  0  0  0  0
 13 12  1  0  0  0  0
 13 14  1  0  0  0  0
 14 10  1  1  0  0  0
 15 16  2  0  0  0  0
 17 18  1  0  0  0  0
 18 22  1  6  0  0  0
 18 21  1  0  0  0  0
 21 20  1  0  0  0  0
 21 19  1  0  0  0  0
 23 22  1  0  0  0  0
 25 24  1  1  0  0  0
 25 23  1  0  0  0  0
 26 25  1  0  0  0  0
 27 26  1  0  0  0  0
 28  1  1  0  0  0  0
 29 30  1  0  0  0  0
 29 28  1  0  0  0  0
 31 34  1  0  0  0  0
 31 30  1  1  0  0  0
 32 36  1  6  0  0  0
 32 39  1  0  0  0  0
 32 37  1  0  0  0  0
 33 38  1  0  0  0  0
 35 44  1  1  0  0  0
 35 40  1  0  0  0  0
 35 33  1  0  0  0  0
 37 34  1  0  0  0  0
 38 32  1  0  0  0  0
 39 31  1  0  0  0  0
 40 42  1  6  0  0  0
 40 36  1  0  0  0  0
 42 41  1  0  0  0  0
 43 42  2  0  0  0  0
 45 44  1  0  0  0  0
 47 50  2  0  0  0  0
 48 46  2  0  0  0  0
 49 51  2  0  0  0  0
 49 47  1  0  0  0  0
 50 46  1  0  0  0  0
 50 45  1  0  0  0  0
 51 48  1  0  0  0  0
M  END
>  <MODEL>
4

>  <REMARK>
 VINA RESULT:      -2.7      4.531      8.809
  Name = 
  24 active torsions:
  status: ('A' for Active; 'I' for Inactive)
    1  A    between atoms: C_1  and  C_7
    2  A    between atoms: C_4  and  C_35
    3  A    between atoms: C_6  and  C_10
    4  A    between atoms: C_6  and  C_31
    5  A    between atoms: C_7  and  C_16
    6  A    between atoms: C_7  and  C_45
    7  A    between atoms: C_9  and  C_10
    8  A    between atoms: C_9  and  C_35
    9  A    between atoms: C_11  and  C_42
   10  A    between atoms: S_12  and  C_13
   11  A    between atoms: S_12  and  C_27
   12  A    between atoms: C_13  and  C_31
   13  A    between atoms: C_13  and  C_34
   14  A    between atoms: C_16  and  C_29
   15  A    between atoms: C_18  and  O_33
   16  A    between atoms: C_18  and  C_44
   17  A    between atoms: C_20  and  C_28
   18  A    between atoms: N_25  and  C_27
   19  A    between atoms: N_25  and  C_44
   20  A    between atoms: C_27  and  P_49
   21  A    between atoms: C_28  and  S_43
   22  A    between atoms: C_29  and  N_51
   23  A    between atoms: C_34  and  N_51
   24  A    between atoms: S_43  and  C_48
                            x       y       z     vdW  Elec       q    Type
                         _______ _______ _______ _____ _____    ______ ____

>  <TORSDO>
F 24

$$$$
=
 OpenBabel11072410243D

 51 54  0  0  1  0  0  0  0  0999 V2000
  160.9870  205.8020  145.4860 C   0  0  0  0  0  0  0  0  0  0  0  0
  159.7510  206.2650  145.6230 C   0  0  0  0  0  2  0  0  0  0  0  0
  163.0840  205.3300  146.5000 O   0  0  0  0  0  0  0  0  0  0  0  0
  161.9220  205.8100  146.6290 C   0  0  0  0  0  0  0  0  0  0  0  0
  161.5080  206.4160  147.9360 C   0  0  1  0  0  3  0  0  0  0  0  0
  161.1330  205.3470  148.9530 C   0  0  0  0  0  2  0  0  0  0  0  0
  160.4850  204.2290  148.2830 N   0  0  0  0  0  2  0  0  0  0  0  0
  161.2550  203.0370  148.6090 C   0  0  0  0  0  2  0  0  0  0  0  0
  161.7840  202.3990  147.3270 C   0  0  0  0  0  2  0  0  0  0  0  0
  160.8540  201.3130  146.7830 C   0  0  2  0  0  0  0  0  0  0  0  0
  159.6660  201.2900  147.5320 O   0  0  0  0  0  1  0  0  0  0  0  0
  161.8630  199.4700  145.5600 O   0  0  0  0  0  0  0  0  0  0  0  0
  160.8300  198.8400  146.2840 C   0  0  0  0  0  2  0  0  0  0  0  0
  161.6050  199.9690  146.8520 C   0  0  2  0  0  3  0  0  0  0  0  0
  160.5280  201.6080  145.3470 C   0  0  0  0  0  3  0  0  0  0  0  0
  159.3880  201.4800  144.9220 O   0  0  0  0  0  0  0  0  0  0  0  0
  162.8370  207.4730  148.5890 S   0  0  0  0  0  0  0  0  0  0  0  0
  161.6790  208.7130  149.2510 C   0  0  1  0  0  3  0  0  0  0  0  0
  160.5600  209.0730  151.6550 O   0  0  0  0  0  1  0  0  0  0  0  0
  162.5870  207.5200  151.4600 O   0  0  0  0  0  1  0  0  0  0  0  0
  162.1680  209.1400  150.9970 P   0  0  0  0  0  0  0  0  0  0  0  0
  161.7180  209.9090  148.4250 N   0  0  0  0  0  2  0  0  0  0  0  0
  162.1140  211.0070  149.2970 C   0  0  0  0  0  2  0  0  0  0  0  0
  161.7860  212.1180  147.2010 O   0  0  0  0  0  1  0  0  0  0  0  0
  162.2550  212.2990  148.5040 C   0  0  1  0  0  3  0  0  0  0  0  0
  161.5430  213.3280  149.1230 O   0  0  0  0  0  0  0  0  0  0  0  0
  160.5910  212.6810  149.9170 C   0  0  0  0  0  1  0  0  0  0  0  0
  161.3780  205.1730  144.1900 C   0  0  0  0  0  2  0  0  0  0  0  0
  161.9360  206.2260  143.2460 C   0  0  0  0  0  2  0  0  0  0  0  0
  161.6110  205.8820  141.8000 C   0  0  0  0  0  2  0  0  0  0  0  0
  162.2120  206.8930  140.8350 C   0  0  1  0  0  3  0  0  0  0  0  0
  161.5480  208.6130  139.2700 C   0  0  1  0  0  0  0  0  0  0  0  0
  162.2470  210.8260  138.2410 C   0  0  0  0  0  2  0  0  0  0  0  0
  162.3080  206.2950  139.4530 C   0  0  0  0  0  2  0  0  0  0  0  0
  160.8610  211.4490  138.4440 C   0  0  1  0  0  3  0  0  0  0  0  0
  160.2020  208.9850  138.6290 C   0  0  0  0  0  2  0  0  0  0  0  0
  162.1710  207.4630  138.4930 C   0  0  0  0  0  2  0  0  0  0  0  0
  162.5420  209.7840  139.3160 C   0  0  0  0  0  2  0  0  0  0  0  0
  161.3170  208.1030  140.6800 C   0  0  0  0  0  2  0  0  0  0  0  0
  159.8060  210.4320  138.9300 C   0  0  2  0  0  3  0  0  0  0  0  0
  157.5760  211.3030  139.0290 O   0  0  0  0  0  1  0  0  0  0  0  0
  158.4640  210.7310  138.3430 C   0  0  0  0  0  0  0  0  0  0  0  0
  158.1980  210.3770  137.0280 O   0  0  0  0  0  0  0  0  0  0  0  0
  160.9700  212.6050  139.4260 C   0  0  0  0  0  2  0  0  0  0  0  0
  161.5680  212.0180  141.0400 S   0  0  0  0  0  0  0  0  0  0  0  0
  159.2700  213.5480  141.2290 C   0  0  0  0  0  3  0  0  0  0  0  0
  160.4200  213.0990  143.3150 C   0  0  0  0  0  3  0  0  0  0  0  0
  158.3020  214.2820  141.9200 C   0  0  0  0  0  3  0  0  0  0  0  0
  159.4510  213.8340  144.0060 C   0  0  0  0  0  3  0  0  0  0  0  0
  160.3310  212.9590  141.9260 C   0  0  0  0  0  0  0  0  0  0  0  0
  158.3910  214.4250  143.3090 C   0  0  0  0  0  3  0  0  0  0  0  0
  1  2  2  0  0  0  0
  1  4  1  0  0  0  0
  3  4  2  0  0  0  0
  4  5  1  0  0  0  0
  5 17  1  0  0  0  0
  5  6  1  1  0  0  0
  7  8  1  0  0  0  0
  7  6  1  0  0  0  0
  9  8  1  0  0  0  0
 10  9  1  0  0  0  0
 10 11  1  1  0  0  0
 12 13  1  0  0  0  0
 12 14  1  0  0  0  0
 13 14  1  0  0  0  0
 14 10  1  6  0  0  0
 15 10  1  0  0  0  0
 16 15  2  0  0  0  0
 17 18  1  0  0  0  0
 18 22  1  6  0  0  0
 18 21  1  0  0  0  0
 21 20  1  0  0  0  0
 21 19  1  0  0  0  0
 22 23  1  0  0  0  0
 25 24  1  6  0  0  0
 25 26  1  0  0  0  0
 25 23  1  0  0  0  0
 26 27  1  0  0  0  0
 28  1  1  0  0  0  0
 29 28  1  0  0  0  0
 30 29  1  0  0  0  0
 31 30  1  1  0  0  0
 32 37  1  6  0  0  0
 32 38  1  0  0  0  0
 32 39  1  0  0  0  0
 33 35  1  0  0  0  0
 33 38  1  0  0  0  0
 34 31  1  0  0  0  0
 35 40  1  0  0  0  0
 35 44  1  1  0  0  0
 36 40  1  0  0  0  0
 36 32  1  0  0  0  0
 37 34  1  0  0  0  0
 39 31  1  0  0  0  0
 40 42  1  6  0  0  0
 42 41  1  0  0  0  0
 43 42  2  0  0  0  0
 44 45  1  0  0  0  0
 45 50  1  0  0  0  0
 46 48  2  0  0  0  0
 46 50  1  0  0  0  0
 47 49  1  0  0  0  0
 48 51  1  0  0  0  0
 50 47  2  0  0  0  0
 51 49  2  0  0  0  0
M  END
>  <MODEL>
5

>  <REMARK>
 VINA RESULT:      -2.5      1.620      2.360
  Name = 
  24 active torsions:
  status: ('A' for Active; 'I' for Inactive)
    1  A    between atoms: C_1  and  C_7
    2  A    between atoms: C_4  and  C_35
    3  A    between atoms: C_6  and  C_10
    4  A    between atoms: C_6  and  C_31
    5  A    between atoms: C_7  and  C_16
    6  A    between atoms: C_7  and  C_45
    7  A    between atoms: C_9  and  C_10
    8  A    between atoms: C_9  and  C_35
    9  A    between atoms: C_11  and  C_42
   10  A    between atoms: S_12  and  C_13
   11  A    between atoms: S_12  and  C_27
   12  A    between atoms: C_13  and  C_31
   13  A    between atoms: C_13  and  C_34
   14  A    between atoms: C_16  and  C_29
   15  A    between atoms: C_18  and  O_33
   16  A    between atoms: C_18  and  C_44
   17  A    between atoms: C_20  and  C_28
   18  A    between atoms: N_25  and  C_27
   19  A    between atoms: N_25  and  C_44
   20  A    between atoms: C_27  and  P_49
   21  A    between atoms: C_28  and  S_43
   22  A    between atoms: C_29  and  N_51
   23  A    between atoms: C_34  and  N_51
   24  A    between atoms: S_43  and  C_48
                            x       y       z     vdW  Elec       q    Type
                         _______ _______ _______ _____ _____    ______ ____

>  <TORSDO>
F 24

$$$$
=
 OpenBabel11072410243D

 51 54  0  0  1  0  0  0  0  0999 V2000
  160.8400  205.8210  145.4040 C   0  0  0  0  0  0  0  0  0  0  0  0
  159.5210  205.9630  145.4670 C   0  0  0  0  0  2  0  0  0  0  0  0
  162.9430  206.0880  146.4760 O   0  0  0  0  0  0  0  0  0  0  0  0
  161.6850  206.1360  146.5730 C   0  0  0  0  0  0  0  0  0  0  0  0
  161.0540  206.5460  147.8700 C   0  0  1  0  0  3  0  0  0  0  0  0
  161.5840  205.7210  149.0340 C   0  0  0  0  0  2  0  0  0  0  0  0
  161.3500  204.3060  148.7890 N   0  0  0  0  0  2  0  0  0  0  0  0
  161.6330  203.6080  150.0350 C   0  0  0  0  0  2  0  0  0  0  0  0
  160.4440  202.7300  150.4150 C   0  0  0  0  0  2  0  0  0  0  0  0
  160.3640  201.4530  149.5770 C   0  0  2  0  0  0  0  0  0  0  0  0
  160.5050  200.3310  150.4110 O   0  0  0  0  0  1  0  0  0  0  0  0
  160.9230  201.4290  147.2110 O   0  0  0  0  0  0  0  0  0  0  0  0
  161.5720  200.2770  147.7000 C   0  0  0  0  0  2  0  0  0  0  0  0
  161.4700  201.5170  148.5070 C   0  0  2  0  0  3  0  0  0  0  0  0
  159.0310  201.3900  148.8880 C   0  0  0  0  0  3  0  0  0  0  0  0
  158.0490  200.9330  149.4570 O   0  0  0  0  0  0  0  0  0  0  0  0
  161.3290  208.3190  148.1710 S   0  0  0  0  0  0  0  0  0  0  0  0
  161.8610  208.0580  149.8930 C   0  0  1  0  0  3  0  0  0  0  0  0
  162.4190  210.5480  149.0870 O   0  0  0  0  0  1  0  0  0  0  0  0
  161.0900  210.2230  151.2520 O   0  0  0  0  0  1  0  0  0  0  0  0
  162.5740  209.6420  150.5630 P   0  0  0  0  0  0  0  0  0  0  0  0
  160.7220  207.6540  150.7010 N   0  0  0  0  0  2  0  0  0  0  0  0
  161.2350  206.7600  151.7310 C   0  0  0  0  0  2  0  0  0  0  0  0
  160.1720  208.4320  153.0760 O   0  0  0  0  0  1  0  0  0  0  0  0
  161.1100  207.3970  153.1080 C   0  0  1  0  0  3  0  0  0  0  0  0
  160.7260  206.4420  154.0520 O   0  0  0  0  0  0  0  0  0  0  0  0
  160.5500  207.1600  155.2390 C   0  0  0  0  0  1  0  0  0  0  0  0
  161.4390  205.2320  144.1710 C   0  0  0  0  0  2  0  0  0  0  0  0
  161.8880  206.3390  143.2290 C   0  0  0  0  0  2  0  0  0  0  0  0
  161.6610  205.9400  141.7790 C   0  0  0  0  0  2  0  0  0  0  0  0
  162.2070  206.9860  140.8180 C   0  0  1  0  0  3  0  0  0  0  0  0
  161.4540  208.6030  139.1850 C   0  0  1  0  0  0  0  0  0  0  0  0
  161.9840  210.8540  138.1370 C   0  0  0  0  0  2  0  0  0  0  0  0
  162.4240  206.3750  139.4560 C   0  0  0  0  0  2  0  0  0  0  0  0
  160.5370  211.3440  138.2640 C   0  0  1  0  0  3  0  0  0  0  0  0
  160.1090  208.8310  138.4770 C   0  0  0  0  0  2  0  0  0  0  0  0
  162.2200  207.5050  138.4630 C   0  0  0  0  0  2  0  0  0  0  0  0
  162.3280  209.8660  139.2480 C   0  0  0  0  0  2  0  0  0  0  0  0
  161.2080  208.1010  140.5960 C   0  0  0  0  0  2  0  0  0  0  0  0
  159.5630  210.2390  138.7270 C   0  0  2  0  0  3  0  0  0  0  0  0
  157.4770  209.3980  137.9000 O   0  0  0  0  0  1  0  0  0  0  0  0
  158.2280  210.3950  138.0740 C   0  0  0  0  0  0  0  0  0  0  0  0
  157.8100  211.6510  137.6590 O   0  0  0  0  0  0  0  0  0  0  0  0
  160.4890  212.5230  139.2230 C   0  0  0  0  0  2  0  0  0  0  0  0
  161.9710  213.5600  139.0330 S   0  0  0  0  0  0  0  0  0  0  0  0
  161.7460  212.4960  141.5780 C   0  0  0  0  0  3  0  0  0  0  0  0
  163.2360  214.3960  141.3500 C   0  0  0  0  0  3  0  0  0  0  0  0
  162.0370  212.4320  142.9440 C   0  0  0  0  0  3  0  0  0  0  0  0
  163.5270  214.3300  142.7160 C   0  0  0  0  0  3  0  0  0  0  0  0
  162.3430  213.4800  140.7810 C   0  0  0  0  0  0  0  0  0  0  0  0
  162.9290  213.3480  143.5140 C   0  0  0  0  0  3  0  0  0  0  0  0
  1  2  2  0  0  0  0
  1  4  1  0  0  0  0
  3  4  2  0  0  0  0
  4  5  1  0  0  0  0
  5 17  1  0  0  0  0
  5  6  1  1  0  0  0
  7  6  1  0  0  0  0
  7  8  1  0  0  0  0
  8  9  1  0  0  0  0
 10 11  1  1  0  0  0
 10  9  1  0  0  0  0
 12 13  1  0  0  0  0
 12 14  1  0  0  0  0
 13 14  1  0  0  0  0
 14 10  1  1  0  0  0
 15 16  2  0  0  0  0
 15 10  1  0  0  0  0
 18 17  1  6  0  0  0
 18 21  1  0  0  0  0
 18 22  1  0  0  0  0
 19 21  1  0  0  0  0
 21 20  1  0  0  0  0
 22 23  1  0  0  0  0
 23 25  1  0  0  0  0
 25 24  1  6  0  0  0
 25 26  1  0  0  0  0
 26 27  1  0  0  0  0
 28  1  1  0  0  0  0
 29 28  1  0  0  0  0
 30 29  1  0  0  0  0
 31 30  1  1  0  0  0
 32 37  1  6  0  0  0
 32 38  1  0  0  0  0
 32 39  1  0  0  0  0
 33 35  1  0  0  0  0
 33 38  1  0  0  0  0
 34 31  1  0  0  0  0
 35 40  1  0  0  0  0
 35 44  1  1  0  0  0
 36 40  1  0  0  0  0
 36 32  1  0  0  0  0
 37 34  1  0  0  0  0
 39 31  1  0  0  0  0
 40 42  1  6  0  0  0
 41 42  1  0  0  0  0
 43 42  2  0  0  0  0
 45 44  1  0  0  0  0
 45 50  1  0  0  0  0
 46 48  1  0  0  0  0
 47 49  2  0  0  0  0
 48 51  2  0  0  0  0
 49 51  1  0  0  0  0
 50 47  1  0  0  0  0
 50 46  2  0  0  0  0
M  END
>  <MODEL>
6

>  <REMARK>
 VINA RESULT:      -2.3      1.701      3.088
  Name = 
  24 active torsions:
  status: ('A' for Active; 'I' for Inactive)
    1  A    between atoms: C_1  and  C_7
    2  A    between atoms: C_4  and  C_35
    3  A    between atoms: C_6  and  C_10
    4  A    between atoms: C_6  and  C_31
    5  A    between atoms: C_7  and  C_16
    6  A    between atoms: C_7  and  C_45
    7  A    between atoms: C_9  and  C_10
    8  A    between atoms: C_9  and  C_35
    9  A    between atoms: C_11  and  C_42
   10  A    between atoms: S_12  and  C_13
   11  A    between atoms: S_12  and  C_27
   12  A    between atoms: C_13  and  C_31
   13  A    between atoms: C_13  and  C_34
   14  A    between atoms: C_16  and  C_29
   15  A    between atoms: C_18  and  O_33
   16  A    between atoms: C_18  and  C_44
   17  A    between atoms: C_20  and  C_28
   18  A    between atoms: N_25  and  C_27
   19  A    between atoms: N_25  and  C_44
   20  A    between atoms: C_27  and  P_49
   21  A    between atoms: C_28  and  S_43
   22  A    between atoms: C_29  and  N_51
   23  A    between atoms: C_34  and  N_51
   24  A    between atoms: S_43  and  C_48
                            x       y       z     vdW  Elec       q    Type
                         _______ _______ _______ _____ _____    ______ ____

>  <TORSDO>
F 24

$$$$
=
 OpenBabel11072410243D

 51 54  0  0  1  0  0  0  0  0999 V2000
  161.9440  209.3800  149.1240 C   0  0  0  0  0  0  0  0  0  0  0  0
  162.5230  209.5930  150.3000 C   0  0  0  0  0  2  0  0  0  0  0  0
  163.0330  208.0650  147.4720 O   0  0  0  0  0  0  0  0  0  0  0  0
  162.1710  208.1170  148.3930 C   0  0  0  0  0  0  0  0  0  0  0  0
  161.4020  206.8840  148.7640 C   0  0  1  0  0  3  0  0  0  0  0  0
  161.1410  206.0040  147.5490 C   0  0  0  0  0  2  0  0  0  0  0  0
  162.2320  205.0560  147.3780 N   0  0  0  0  0  2  0  0  0  0  0  0
  161.6550  203.8450  146.8120 C   0  0  0  0  0  2  0  0  0  0  0  0
  161.5560  202.7700  147.8910 C   0  0  0  0  0  2  0  0  0  0  0  0
  160.9240  201.4750  147.3760 C   0  0  2  0  0  0  0  0  0  0  0  0
  161.9310  200.5380  147.0930 O   0  0  0  0  0  1  0  0  0  0  0  0
  159.3160  200.7140  145.7190 O   0  0  0  0  0  0  0  0  0  0  0  0
  160.4550  201.0090  144.9410 C   0  0  0  0  0  2  0  0  0  0  0  0
  160.0890  201.8190  146.1280 C   0  0  2  0  0  3  0  0  0  0  0  0
  160.0100  200.9140  148.4270 C   0  0  0  0  0  3  0  0  0  0  0  0
  159.1920  201.6240  148.9950 O   0  0  0  0  0  0  0  0  0  0  0  0
  162.2920  205.9480  150.0450 S   0  0  0  0  0  0  0  0  0  0  0  0
  160.7700  205.5200  150.9480 C   0  0  1  0  0  3  0  0  0  0  0  0
  161.2790  202.8930  150.9990 O   0  0  0  0  0  1  0  0  0  0  0  0
  162.8480  204.4770  152.2580 O   0  0  0  0  0  1  0  0  0  0  0  0
  161.1420  204.1680  152.1740 P   0  0  0  0  0  0  0  0  0  0  0  0
  160.2700  206.6920  151.6480 N   0  0  0  0  0  2  0  0  0  0  0  0
  160.9680  206.7450  152.9260 C   0  0  0  0  0  2  0  0  0  0  0  0
  160.5790  209.0600  152.4500 O   0  0  0  0  0  1  0  0  0  0  0  0
  161.1230  208.1850  153.3940 C   0  0  1  0  0  3  0  0  0  0  0  0
  160.4900  208.3670  154.6250 O   0  0  0  0  0  0  0  0  0  0  0  0
  161.5270  208.3860  155.5640 C   0  0  0  0  0  1  0  0  0  0  0  0
  160.9740  210.3910  148.6090 C   0  0  0  0  0  2  0  0  0  0  0  0
  161.7190  211.6130  148.0940 C   0  0  0  0  0  2  0  0  0  0  0  0
  160.8090  212.8320  148.0770 C   0  0  0  0  0  2  0  0  0  0  0  0
  159.9650  212.8830  146.8120 C   0  0  1  0  0  3  0  0  0  0  0  0
  160.1500  213.4060  144.4570 C   0  0  1  0  0  0  0  0  0  0  0  0
  159.2380  212.8390  142.1560 C   0  0  0  0  0  2  0  0  0  0  0  0
  159.4040  214.2710  146.6200 C   0  0  0  0  0  2  0  0  0  0  0  0
  160.6380  212.7530  141.5360 C   0  0  1  0  0  3  0  0  0  0  0  0
  161.2280  214.1120  143.6210 C   0  0  0  0  0  2  0  0  0  0  0  0
  159.2650  214.4520  145.1190 C   0  0  0  0  0  2  0  0  0  0  0  0
  159.2690  212.4530  143.6330 C   0  0  0  0  0  2  0  0  0  0  0  0
  160.8070  212.6250  145.5800 C   0  0  0  0  0  2  0  0  0  0  0  0
  161.7550  213.2180  142.4950 C   0  0  2  0  0  3  0  0  0  0  0  0
  163.9600  214.1310  142.2900 O   0  0  0  0  0  1  0  0  0  0  0  0
  162.8430  213.9200  141.7490 C   0  0  0  0  0  0  0  0  0  0  0  0
  162.6200  214.3380  140.4450 O   0  0  0  0  0  0  0  0  0  0  0  0
  160.8960  211.3260  141.0790 C   0  0  0  0  0  2  0  0  0  0  0  0
  162.6450  211.1060  140.6320 S   0  0  0  0  0  0  0  0  0  0  0  0
  162.2270  210.1600  138.0650 C   0  0  0  0  0  3  0  0  0  0  0  0
  161.9910  208.5330  139.8480 C   0  0  0  0  0  3  0  0  0  0  0  0
  161.9250  209.1720  137.1240 C   0  0  0  0  0  3  0  0  0  0  0  0
  161.6900  207.5450  138.9050 C   0  0  0  0  0  3  0  0  0  0  0  0
  162.2570  209.8410  139.4280 C   0  0  0  0  0  0  0  0  0  0  0  0
  161.6580  207.8640  137.5420 C   0  0  0  0  0  3  0  0  0  0  0  0
  1  2  2  0  0  0  0
  3  4  2  0  0  0  0
  4  5  1  0  0  0  0
  4  1  1  0  0  0  0
  5  6  1  6  0  0  0
  5 17  1  0  0  0  0
  7  6  1  0  0  0  0
  8  7  1  0  0  0  0
  8  9  1  0  0  0  0
 10 11  1  6  0  0  0
 10  9  1  0  0  0  0
 10 15  1  0  0  0  0
 12 14  1  0  0  0  0
 13 12  1  0  0  0  0
 13 14  1  0  0  0  0
 14 10  1  1  0  0  0
 15 16  2  0  0  0  0
 18 17  1  1  0  0  0
 18 22  1  0  0  0  0
 18 21  1  0  0  0  0
 19 21  1  0  0  0  0
 21 20  1  0  0  0  0
 22 23  1  0  0  0  0
 23 25  1  0  0  0  0
 25 24  1  6  0  0  0
 25 26  1  0  0  0  0
 26 27  1  0  0  0  0
 28  1  1  0  0  0  0
 29 28  1  0  0  0  0
 30 29  1  0  0  0  0
 31 30  1  1  0  0  0
 32 36  1  6  0  0  0
 32 37  1  0  0  0  0
 32 39  1  0  0  0  0
 33 38  1  0  0  0  0
 34 31  1  0  0  0  0
 35 44  1  1  0  0  0
 35 33  1  0  0  0  0
 35 40  1  0  0  0  0
 37 34  1  0  0  0  0
 38 32  1  0  0  0  0
 39 31  1  0  0  0  0
 40 42  1  6  0  0  0
 40 36  1  0  0  0  0
 42 41  1  0  0  0  0
 43 42  2  0  0  0  0
 45 44  1  0  0  0  0
 46 50  1  0  0  0  0
 48 51  1  0  0  0  0
 48 46  2  0  0  0  0
 49 47  1  0  0  0  0
 50 47  2  0  0  0  0
 50 45  1  0  0  0  0
 51 49  2  0  0  0  0
M  END
>  <MODEL>
7

>  <REMARK>
 VINA RESULT:      -2.0      2.710      6.001
  Name = 
  24 active torsions:
  status: ('A' for Active; 'I' for Inactive)
    1  A    between atoms: C_1  and  C_7
    2  A    between atoms: C_4  and  C_35
    3  A    between atoms: C_6  and  C_10
    4  A    between atoms: C_6  and  C_31
    5  A    between atoms: C_7  and  C_16
    6  A    between atoms: C_7  and  C_45
    7  A    between atoms: C_9  and  C_10
    8  A    between atoms: C_9  and  C_35
    9  A    between atoms: C_11  and  C_42
   10  A    between atoms: S_12  and  C_13
   11  A    between atoms: S_12  and  C_27
   12  A    between atoms: C_13  and  C_31
   13  A    between atoms: C_13  and  C_34
   14  A    between atoms: C_16  and  C_29
   15  A    between atoms: C_18  and  O_33
   16  A    between atoms: C_18  and  C_44
   17  A    between atoms: C_20  and  C_28
   18  A    between atoms: N_25  and  C_27
   19  A    between atoms: N_25  and  C_44
   20  A    between atoms: C_27  and  P_49
   21  A    between atoms: C_28  and  S_43
   22  A    between atoms: C_29  and  N_51
   23  A    between atoms: C_34  and  N_51
   24  A    between atoms: S_43  and  C_48
                            x       y       z     vdW  Elec       q    Type
                         _______ _______ _______ _____ _____    ______ ____

>  <TORSDO>
F 24

$$$$
=
 OpenBabel11072410243D

 51 54  0  0  1  0  0  0  0  0999 V2000
  162.0540  209.7250  149.7990 C   0  0  0  0  0  0  0  0  0  0  0  0
  162.7220  210.1470  150.8660 C   0  0  0  0  0  2  0  0  0  0  0  0
  163.0130  208.0880  148.3690 O   0  0  0  0  0  0  0  0  0  0  0  0
  162.2130  208.3400  149.3140 C   0  0  0  0  0  0  0  0  0  0  0  0
  161.4510  207.2230  149.9610 C   0  0  1  0  0  3  0  0  0  0  0  0
  161.1880  206.0870  148.9830 C   0  0  0  0  0  2  0  0  0  0  0  0
  160.0820  206.4340  148.1030 N   0  0  0  0  0  2  0  0  0  0  0  0
  160.5780  206.3280  146.7380 C   0  0  0  0  0  2  0  0  0  0  0  0
  160.0780  205.0300  146.1080 C   0  0  0  0  0  2  0  0  0  0  0  0
  161.2090  204.0400  145.8230 C   0  0  2  0  0  0  0  0  0  0  0  0
  162.1370  204.0670  146.8770 O   0  0  0  0  0  1  0  0  0  0  0  0
  162.7820  205.4750  144.6500 O   0  0  0  0  0  0  0  0  0  0  0  0
  161.5450  205.8220  144.0690 C   0  0  0  0  0  2  0  0  0  0  0  0
  161.8520  204.4300  144.4790 C   0  0  2  0  0  3  0  0  0  0  0  0
  160.6400  202.6550  145.7010 C   0  0  0  0  0  3  0  0  0  0  0  0
  160.7410  202.0230  144.6590 O   0  0  0  0  0  0  0  0  0  0  0  0
  162.3490  206.6090  151.4190 S   0  0  0  0  0  0  0  0  0  0  0  0
  160.8490  205.9300  152.1970 C   0  0  1  0  0  3  0  0  0  0  0  0
  159.5680  203.6240  152.6480 O   0  0  0  0  0  1  0  0  0  0  0  0
  161.7270  203.5850  151.2720 O   0  0  0  0  0  1  0  0  0  0  0  0
  161.1990  204.2050  152.8060 P   0  0  0  0  0  0  0  0  0  0  0  0
  160.4530  206.7730  153.3140 N   0  0  0  0  0  2  0  0  0  0  0  0
  161.6810  207.2990  153.8970 C   0  0  0  0  0  2  0  0  0  0  0  0
  160.7240  209.4830  154.1280 O   0  0  0  0  0  1  0  0  0  0  0  0
  161.3770  208.4650  154.8270 C   0  0  1  0  0  3  0  0  0  0  0  0
  160.5810  208.0400  155.8930 O   0  0  0  0  0  0  0  0  0  0  0  0
  161.4280  208.0610  157.0060 C   0  0  0  0  0  1  0  0  0  0  0  0
  161.0580  210.6410  149.1680 C   0  0  0  0  0  2  0  0  0  0  0  0
  161.7700  211.8100  148.5060 C   0  0  0  0  0  2  0  0  0  0  0  0
  160.8210  212.9840  148.3170 C   0  0  0  0  0  2  0  0  0  0  0  0
  160.1170  212.9220  146.9700 C   0  0  1  0  0  3  0  0  0  0  0  0
  160.5050  213.3990  144.6300 C   0  0  1  0  0  0  0  0  0  0  0  0
  159.9020  212.6890  142.2680 C   0  0  0  0  0  2  0  0  0  0  0  0
  159.4560  214.2450  146.6700 C   0  0  0  0  0  2  0  0  0  0  0  0
  161.3620  212.7190  141.8010 C   0  0  1  0  0  3  0  0  0  0  0  0
  161.5990  214.1820  143.8860 C   0  0  0  0  0  2  0  0  0  0  0  0
  159.4640  214.3730  145.1580 C   0  0  0  0  0  2  0  0  0  0  0  0
  159.8090  212.3460  143.7520 C   0  0  0  0  0  2  0  0  0  0  0  0
  161.1060  212.7120  145.8430 C   0  0  0  0  0  2  0  0  0  0  0  0
  162.3220  213.3130  142.8540 C   0  0  2  0  0  3  0  0  0  0  0  0
  164.4430  214.4280  142.8510 O   0  0  0  0  0  1  0  0  0  0  0  0
  163.4160  214.0940  142.2020 C   0  0  0  0  0  0  0  0  0  0  0  0
  163.3010  214.4510  140.8660 O   0  0  0  0  0  0  0  0  0  0  0  0
  161.7970  211.3120  141.4250 C   0  0  0  0  0  2  0  0  0  0  0  0
  162.8100  211.3390  139.9150 S   0  0  0  0  0  0  0  0  0  0  0  0
  160.4510  210.2260  138.9890 C   0  0  0  0  0  3  0  0  0  0  0  0
  162.4480  208.8820  138.6910 C   0  0  0  0  0  3  0  0  0  0  0  0
  159.6870  209.2240  138.3860 C   0  0  0  0  0  3  0  0  0  0  0  0
  161.6820  207.8800  138.0870 C   0  0  0  0  0  3  0  0  0  0  0  0
  161.8320  210.0550  139.1440 C   0  0  0  0  0  0  0  0  0  0  0  0
  160.3010  208.0510  137.9340 C   0  0  0  0  0  3  0  0  0  0  0  0
  1  2  2  0  0  0  0
  3  4  2  0  0  0  0
  4  1  1  0  0  0  0
  4  5  1  0  0  0  0
  5  6  1  6  0  0  0
  5 17  1  0  0  0  0
  7  6  1  0  0  0  0
  8  7  1  0  0  0  0
  9  8  1  0  0  0  0
 10  9  1  0  0  0  0
 10 11  1  1  0  0  0
 13 14  1  0  0  0  0
 13 12  1  0  0  0  0
 14 12  1  0  0  0  0
 14 10  1  1  0  0  0
 15 10  1  0  0  0  0
 16 15  2  0  0  0  0
 18 17  1  1  0  0  0
 18 21  1  0  0  0  0
 18 22  1  0  0  0  0
 19 21  1  0  0  0  0
 20 21  1  0  0  0  0
 22 23  1  0  0  0  0
 23 25  1  0  0  0  0
 25 24  1  6  0  0  0
 25 26  1  0  0  0  0
 26 27  1  0  0  0  0
 28  1  1  0  0  0  0
 29 28  1  0  0  0  0
 30 29  1  0  0  0  0
 31 30  1  1  0  0  0
 32 38  1  6  0  0  0
 32 37  1  0  0  0  0
 32 39  1  0  0  0  0
 33 38  1  0  0  0  0
 34 31  1  0  0  0  0
 35 44  1  1  0  0  0
 35 33  1  0  0  0  0
 35 40  1  0  0  0  0
 36 32  1  0  0  0  0
 37 34  1  0  0  0  0
 39 31  1  0  0  0  0
 40 42  1  6  0  0  0
 40 36  1  0  0  0  0
 42 41  1  0  0  0  0
 43 42  2  0  0  0  0
 45 44  1  0  0  0  0
 46 50  1  0  0  0  0
 47 50  2  0  0  0  0
 48 46  2  0  0  0  0
 49 47  1  0  0  0  0
 50 45  1  0  0  0  0
 51 49  2  0  0  0  0
 51 48  1  0  0  0  0
M  END
>  <MODEL>
8

>  <REMARK>
 VINA RESULT:      -1.8      2.876      6.547
  Name = 
  24 active torsions:
  status: ('A' for Active; 'I' for Inactive)
    1  A    between atoms: C_1  and  C_7
    2  A    between atoms: C_4  and  C_35
    3  A    between atoms: C_6  and  C_10
    4  A    between atoms: C_6  and  C_31
    5  A    between atoms: C_7  and  C_16
    6  A    between atoms: C_7  and  C_45
    7  A    between atoms: C_9  and  C_10
    8  A    between atoms: C_9  and  C_35
    9  A    between atoms: C_11  and  C_42
   10  A    between atoms: S_12  and  C_13
   11  A    between atoms: S_12  and  C_27
   12  A    between atoms: C_13  and  C_31
   13  A    between atoms: C_13  and  C_34
   14  A    between atoms: C_16  and  C_29
   15  A    between atoms: C_18  and  O_33
   16  A    between atoms: C_18  and  C_44
   17  A    between atoms: C_20  and  C_28
   18  A    between atoms: N_25  and  C_27
   19  A    between atoms: N_25  and  C_44
   20  A    between atoms: C_27  and  P_49
   21  A    between atoms: C_28  and  S_43
   22  A    between atoms: C_29  and  N_51
   23  A    between atoms: C_34  and  N_51
   24  A    between atoms: S_43  and  C_48
                            x       y       z     vdW  Elec       q    Type
                         _______ _______ _______ _____ _____    ______ ____

>  <TORSDO>
F 24

$$$$
