=
 OpenBabel11072414093D

 28 31  0  0  1  0  0  0  0  0999 V2000
  162.0050  205.9550  152.5030 C   0  0  0  0  0  2  0  0  0  0  0  0
  162.0320  209.1890  149.4830 C   0  0  0  0  0  3  0  0  0  0  0  0
  160.2610  207.2220  153.5580 O   0  0  0  0  0  1  0  0  0  0  0  0
  159.9780  206.1920  149.5830 C   0  0  0  0  0  1  0  0  0  0  0  0
  161.5620  208.0590  150.1760 C   0  0  0  0  0  0  0  0  0  0  0  0
  160.8690  206.9420  152.3330 C   0  0  1  0  0  3  0  0  0  0  0  0
  162.0860  210.4890  151.5020 C   0  0  0  0  0  3  0  0  0  0  0  0
  161.4100  206.7220  149.4300 C   0  0  1  0  0  0  0  0  0  0  0  0
  162.2790  210.3920  150.1320 C   0  0  0  0  0  3  0  0  0  0  0  0
  161.6190  209.3950  152.2410 C   0  0  0  0  0  0  0  0  0  0  0  0
  162.0390  205.0150  151.3060 C   0  0  0  0  0  2  0  0  0  0  0  0
  162.4420  205.7230  150.0050 C   0  0  0  0  0  2  0  0  0  0  0  0
  161.3330  208.1700  151.5800 C   0  0  0  0  0  0  0  0  0  0  0  0
  160.5540  206.5510  147.0880 N   0  0  0  0  0  2  0  0  0  0  0  0
  162.2710  205.3340  146.2310 N   0  0  0  0  0  2  0  0  0  0  0  0
  160.3200  205.5400  145.0390 C   0  0  0  0  0  1  0  0  0  0  0  0
  161.7130  206.8660  147.9100 C   0  0  2  0  0  3  0  0  0  0  0  0
  160.8720  205.3810  146.3720 N   0  0  0  0  0  0  0  0  0  0  0  0
  162.8070  205.9550  147.4220 C   0  0  0  0  0  2  0  0  0  0  0  0
  161.5310  209.4990  153.6700 N   0  0  0  0  0  2  0  0  0  0  0  0
  159.6990  211.1420  154.0210 C   0  0  0  0  0  0  0  0  0  0  0  0
  160.9300  210.5770  154.4040 C   0  0  0  0  0  0  0  0  0  0  0  0
  159.1470  212.1780  154.7740 C   0  0  0  0  0  3  0  0  0  0  0  0
  159.0030  210.6640  152.9180 O   0  0  0  0  0  1  0  0  0  0  0  0
  159.8100  212.6260  155.9150 C   0  0  0  0  0  3  0  0  0  0  0  0
  162.7720  210.4660  156.0230 N   0  0  0  0  0  1  0  0  0  0  0  0
  161.5450  211.0370  155.5800 C   0  0  0  0  0  0  0  0  0  0  0  0
  160.9810  212.0480  156.2940 N   0  0  0  0  0  0  0  0  0  0  0  0
  2  9  2  0  0  0  0
  2  5  1  0  0  0  0
  5 13  2  0  0  0  0
  6  1  1  0  0  0  0
  6  3  1  1  0  0  0
  7 10  2  0  0  0  0
  8  4  1  1  0  0  0
  8 12  1  0  0  0  0
  8  5  1  0  0  0  0
  9  7  1  0  0  0  0
 10 20  1  0  0  0  0
 11  1  1  0  0  0  0
 12 11  1  0  0  0  0
 13 10  1  0  0  0  0
 13  6  1  0  0  0  0
 14 17  1  0  0  0  0
 15 18  1  0  0  0  0
 15 19  1  0  0  0  0
 16 18  1  0  0  0  0
 17 19  1  6  0  0  0
 17  8  1  0  0  0  0
 18 14  1  0  0  0  0
 20 22  1  0  0  0  0
 21 22  2  0  0  0  0
 21 23  1  0  0  0  0
 22 27  1  0  0  0  0
 23 25  2  0  0  0  0
 24 21  1  0  0  0  0
 25 28  1  0  0  0  0
 27 26  1  0  0  0  0
 27 28  2  0  0  0  0
M  END
>  <MODEL>
1

>  <REMARK>
 VINA RESULT:      -6.0      0.000      0.000
  Name = 
  3 active torsions:
  status: ('A' for Active; 'I' for Inactive)
    1  A    between atoms: C_2  and  N_20
    2  A    between atoms: C_18  and  C_21
    3  A    between atoms: N_20  and  C_24
                            x       y       z     vdW  Elec       q    Type
                         _______ _______ _______ _____ _____    ______ ____

>  <TORSDO>
F 3

$$$$
=
 OpenBabel11072414093D

 28 31  0  0  1  0  0  0  0  0999 V2000
  162.4030  209.0060  150.1650 C   0  0  0  0  0  2  0  0  0  0  0  0
  161.3210  206.7060  153.7870 C   0  0  0  0  0  3  0  0  0  0  0  0
  160.7330  207.6800  149.0630 O   0  0  0  0  0  1  0  0  0  0  0  0
  159.8180  209.7550  152.4980 C   0  0  0  0  0  1  0  0  0  0  0  0
  161.1800  207.6510  152.7550 C   0  0  0  0  0  0  0  0  0  0  0  0
  161.1170  208.2150  150.2930 C   0  0  1  0  0  3  0  0  0  0  0  0
  161.5790  204.9160  152.2060 C   0  0  0  0  0  3  0  0  0  0  0  0
  161.0900  209.1470  153.1040 C   0  0  1  0  0  0  0  0  0  0  0  0
  161.5050  205.3550  153.5200 C   0  0  0  0  0  3  0  0  0  0  0  0
  161.4450  205.8140  151.1400 C   0  0  0  0  0  0  0  0  0  0  0  0
  162.3400  210.2220  151.0780 C   0  0  0  0  0  2  0  0  0  0  0  0
  162.3580  209.8500  152.5660 C   0  0  0  0  0  2  0  0  0  0  0  0
  161.2250  207.1930  151.4050 C   0  0  0  0  0  0  0  0  0  0  0  0
  159.7630  209.8850  155.0900 N   0  0  0  0  0  2  0  0  0  0  0  0
  161.3130  211.2870  155.9800 N   0  0  0  0  0  2  0  0  0  0  0  0
  159.1450  211.3680  156.7310 C   0  0  0  0  0  1  0  0  0  0  0  0
  161.0550  209.3840  154.6420 C   0  0  2  0  0  3  0  0  0  0  0  0
  159.9760  211.1970  155.5530 N   0  0  0  0  0  0  0  0  0  0  0  0
  162.0610  210.3940  155.1220 C   0  0  0  0  0  2  0  0  0  0  0  0
  161.6320  205.3420  149.7980 N   0  0  0  0  0  2  0  0  0  0  0  0
  160.5060  203.1430  150.0660 C   0  0  0  0  0  0  0  0  0  0  0  0
  161.2560  204.0510  149.2950 C   0  0  0  0  0  0  0  0  0  0  0  0
  160.1510  201.9050  149.5300 C   0  0  0  0  0  3  0  0  0  0  0  0
  160.0820  203.4690  151.3470 O   0  0  0  0  0  1  0  0  0  0  0  0
  160.5230  201.5910  148.2230 C   0  0  0  0  0  3  0  0  0  0  0  0
  162.3040  204.6110  147.1460 N   0  0  0  0  0  1  0  0  0  0  0  0
  161.5780  203.7050  147.9730 C   0  0  0  0  0  0  0  0  0  0  0  0
  161.2180  202.4910  147.4780 N   0  0  0  0  0  0  0  0  0  0  0  0
  1  6  1  0  0  0  0
  1 11  1  0  0  0  0
  5  8  1  0  0  0  0
  5  2  2  0  0  0  0
  6  3  1  6  0  0  0
  6 13  1  0  0  0  0
  7  9  2  0  0  0  0
  8  4  1  6  0  0  0
  8 17  1  0  0  0  0
  9  2  1  0  0  0  0
 10 13  2  0  0  0  0
 10  7  1  0  0  0  0
 11 12  1  0  0  0  0
 12  8  1  0  0  0  0
 13  5  1  0  0  0  0
 14 18  1  0  0  0  0
 17 14  1  0  0  0  0
 17 19  1  6  0  0  0
 18 15  1  0  0  0  0
 18 16  1  0  0  0  0
 19 15  1  0  0  0  0
 20 10  1  0  0  0  0
 21 24  1  0  0  0  0
 22 20  1  0  0  0  0
 22 21  2  0  0  0  0
 23 21  1  0  0  0  0
 25 23  2  0  0  0  0
 26 27  1  0  0  0  0
 27 22  1  0  0  0  0
 28 27  2  0  0  0  0
 28 25  1  0  0  0  0
M  END
>  <MODEL>
2

>  <REMARK>
 VINA RESULT:      -6.0      2.293      8.074
  Name = 
  3 active torsions:
  status: ('A' for Active; 'I' for Inactive)
    1  A    between atoms: C_2  and  N_20
    2  A    between atoms: C_18  and  C_21
    3  A    between atoms: N_20  and  C_24
                            x       y       z     vdW  Elec       q    Type
                         _______ _______ _______ _____ _____    ______ ____

>  <TORSDO>
F 3

$$$$
=
 OpenBabel11072414093D

 28 31  0  0  1  0  0  0  0  0999 V2000
  161.2340  208.8450  150.4890 C   0  0  0  0  0  2  0  0  0  0  0  0
  160.7300  206.3580  154.1140 C   0  0  0  0  0  3  0  0  0  0  0  0
  162.8140  210.0880  151.8000 O   0  0  0  0  0  1  0  0  0  0  0  0
  163.1610  206.0020  151.4360 C   0  0  0  0  0  1  0  0  0  0  0  0
  161.3560  206.8700  152.9640 C   0  0  0  0  0  0  0  0  0  0  0  0
  162.2280  208.8320  151.6320 C   0  0  1  0  0  3  0  0  0  0  0  0
  160.5410  208.5530  155.0720 C   0  0  0  0  0  3  0  0  0  0  0  0
  161.6700  205.9280  151.7890 C   0  0  1  0  0  0  0  0  0  0  0  0
  160.3380  207.1830  155.1600 C   0  0  0  0  0  3  0  0  0  0  0  0
  161.1600  209.1160  153.9500 C   0  0  0  0  0  0  0  0  0  0  0  0
  161.3030  207.5170  149.7470 C   0  0  0  0  0  2  0  0  0  0  0  0
  160.7890  206.3400  150.5860 C   0  0  0  0  0  2  0  0  0  0  0  0
  161.5930  208.2750  152.8880 C   0  0  0  0  0  0  0  0  0  0  0  0
  162.0710  203.5110  151.2940 N   0  0  0  0  0  2  0  0  0  0  0  0
  159.8960  202.8730  151.1430 N   0  0  0  0  0  2  0  0  0  0  0  0
  161.5460  201.4710  150.3790 C   0  0  0  0  0  1  0  0  0  0  0  0
  161.3240  204.4470  152.1220 C   0  0  2  0  0  3  0  0  0  0  0  0
  161.1320  202.8590  150.4720 N   0  0  0  0  0  0  0  0  0  0  0  0
  159.8750  204.1020  151.9060 C   0  0  0  0  0  2  0  0  0  0  0  0
  161.2580  210.5440  153.8450 N   0  0  0  0  0  2  0  0  0  0  0  0
  160.6920  211.8970  155.8510 C   0  0  0  0  0  0  0  0  0  0  0  0
  160.4320  211.5010  154.5250 C   0  0  0  0  0  0  0  0  0  0  0  0
  159.8710  212.8410  156.4670 C   0  0  0  0  0  3  0  0  0  0  0  0
  161.7770  211.3870  156.5530 O   0  0  0  0  0  1  0  0  0  0  0  0
  158.8130  213.4020  155.7510 C   0  0  0  0  0  3  0  0  0  0  0  0
  159.1040  211.7720  152.4790 N   0  0  0  0  0  1  0  0  0  0  0  0
  159.3780  212.1170  153.8340 C   0  0  0  0  0  0  0  0  0  0  0  0
  158.5940  213.0360  154.4610 N   0  0  0  0  0  0  0  0  0  0  0  0
  1  6  1  0  0  0  0
  2  9  1  0  0  0  0
  5  2  2  0  0  0  0
  6  3  1  1  0  0  0
  6 13  1  0  0  0  0
  7  9  2  0  0  0  0
  8  4  1  6  0  0  0
  8 17  1  0  0  0  0
  8  5  1  0  0  0  0
 10  7  1  0  0  0  0
 11  1  1  0  0  0  0
 11 12  1  0  0  0  0
 12  8  1  0  0  0  0
 13  5  1  0  0  0  0
 13 10  2  0  0  0  0
 14 17  1  0  0  0  0
 15 19  1  0  0  0  0
 16 18  1  0  0  0  0
 17 19  1  6  0  0  0
 18 15  1  0  0  0  0
 18 14  1  0  0  0  0
 20 10  1  0  0  0  0
 20 22  1  0  0  0  0
 21 23  1  0  0  0  0
 21 24  1  0  0  0  0
 22 21  2  0  0  0  0
 25 23  2  0  0  0  0
 26 27  1  0  0  0  0
 27 28  2  0  0  0  0
 27 22  1  0  0  0  0
 28 25  1  0  0  0  0
M  END
>  <MODEL>
3

>  <REMARK>
 VINA RESULT:      -5.3      2.659      3.984
  Name = 
  3 active torsions:
  status: ('A' for Active; 'I' for Inactive)
    1  A    between atoms: C_2  and  N_20
    2  A    between atoms: C_18  and  C_21
    3  A    between atoms: N_20  and  C_24
                            x       y       z     vdW  Elec       q    Type
                         _______ _______ _______ _____ _____    ______ ____

>  <TORSDO>
F 3

$$$$
=
 OpenBabel11072414093D

 28 31  0  0  1  0  0  0  0  0999 V2000
  161.7100  210.3380  150.1260 C   0  0  0  0  0  2  0  0  0  0  0  0
  161.0160  206.0690  151.0660 C   0  0  0  0  0  3  0  0  0  0  0  0
  163.2810  210.2790  151.9400 O   0  0  0  0  0  1  0  0  0  0  0  0
  163.5230  207.5360  148.8800 C   0  0  0  0  0  1  0  0  0  0  0  0
  161.6940  207.2020  150.5810 C   0  0  0  0  0  0  0  0  0  0  0  0
  162.6640  209.5040  150.9560 C   0  0  1  0  0  3  0  0  0  0  0  0
  160.8580  207.0220  153.2650 C   0  0  0  0  0  3  0  0  0  0  0  0
  162.0190  207.3050  149.0800 C   0  0  1  0  0  0  0  0  0  0  0  0
  160.6130  205.9730  152.3910 C   0  0  0  0  0  3  0  0  0  0  0  0
  161.5300  208.1730  152.8350 C   0  0  0  0  0  0  0  0  0  0  0  0
  161.7650  209.8750  148.6770 C   0  0  0  0  0  2  0  0  0  0  0  0
  161.1900  208.4660  148.4810 C   0  0  0  0  0  2  0  0  0  0  0  0
  161.9730  208.2670  151.4880 C   0  0  0  0  0  0  0  0  0  0  0  0
  162.6960  205.5330  147.4520 N   0  0  0  0  0  2  0  0  0  0  0  0
  160.8460  205.6160  146.1360 N   0  0  0  0  0  2  0  0  0  0  0  0
  162.7180  204.5120  145.3950 C   0  0  0  0  0  1  0  0  0  0  0  0
  161.6210  206.0140  148.3080 C   0  0  2  0  0  3  0  0  0  0  0  0
  162.2510  205.6770  146.1250 N   0  0  0  0  0  0  0  0  0  0  0  0
  160.4370  206.1950  147.3970 C   0  0  0  0  0  2  0  0  0  0  0  0
  161.6720  209.2810  153.7360 N   0  0  0  0  0  2  0  0  0  0  0  0
  159.5990  210.6250  154.0030 C   0  0  0  0  0  0  0  0  0  0  0  0
  160.6340  209.8460  154.5520 C   0  0  0  0  0  0  0  0  0  0  0  0
  158.6040  211.1410  154.8330 C   0  0  0  0  0  3  0  0  0  0  0  0
  159.5290  210.8650  152.6370 O   0  0  0  0  0  1  0  0  0  0  0  0
  158.6330  210.8570  156.1980 C   0  0  0  0  0  3  0  0  0  0  0  0
  161.6120  208.7430  156.5150 N   0  0  0  0  0  1  0  0  0  0  0  0
  160.6040  209.5580  155.9260 C   0  0  0  0  0  0  0  0  0  0  0  0
  159.6200  210.0750  156.7100 N   0  0  0  0  0  0  0  0  0  0  0  0
  1  6  1  0  0  0  0
  2  9  1  0  0  0  0
  5  2  2  0  0  0  0
  5 13  1  0  0  0  0
  6 13  1  0  0  0  0
  6  3  1  1  0  0  0
  8  4  1  6  0  0  0
  8  5  1  0  0  0  0
  9  7  2  0  0  0  0
 10  7  1  0  0  0  0
 10 20  1  0  0  0  0
 11  1  1  0  0  0  0
 12 11  1  0  0  0  0
 12  8  1  0  0  0  0
 13 10  2  0  0  0  0
 14 17  1  0  0  0  0
 15 19  1  0  0  0  0
 16 18  1  0  0  0  0
 17 19  1  6  0  0  0
 17  8  1  0  0  0  0
 18 15  1  0  0  0  0
 18 14  1  0  0  0  0
 20 22  1  0  0  0  0
 21 22  2  0  0  0  0
 21 23  1  0  0  0  0
 22 27  1  0  0  0  0
 23 25  2  0  0  0  0
 24 21  1  0  0  0  0
 25 28  1  0  0  0  0
 27 26  1  0  0  0  0
 27 28  2  0  0  0  0
M  END
>  <MODEL>
4

>  <REMARK>
 VINA RESULT:      -4.9      1.572      2.806
  Name = 
  3 active torsions:
  status: ('A' for Active; 'I' for Inactive)
    1  A    between atoms: C_2  and  N_20
    2  A    between atoms: C_18  and  C_21
    3  A    between atoms: N_20  and  C_24
                            x       y       z     vdW  Elec       q    Type
                         _______ _______ _______ _____ _____    ______ ____

>  <TORSDO>
F 3

$$$$
=
 OpenBabel11072414093D

 28 31  0  0  1  0  0  0  0  0999 V2000
  160.0900  209.8300  155.8080 C   0  0  0  0  0  2  0  0  0  0  0  0
  158.7430  212.9160  152.9360 C   0  0  0  0  0  3  0  0  0  0  0  0
  162.2980  210.3370  155.0160 O   0  0  0  0  0  1  0  0  0  0  0  0
  159.8300  213.3360  156.3790 C   0  0  0  0  0  1  0  0  0  0  0  0
  159.3350  212.3880  154.0980 C   0  0  0  0  0  0  0  0  0  0  0  0
  161.0180  210.8620  155.2020 C   0  0  1  0  0  3  0  0  0  0  0  0
  160.2030  211.6280  151.5270 C   0  0  0  0  0  3  0  0  0  0  0  0
  158.7440  212.7390  155.4750 C   0  0  1  0  0  0  0  0  0  0  0  0
  159.1770  212.5520  151.6670 C   0  0  0  0  0  3  0  0  0  0  0  0
  160.8270  211.0730  152.6500 C   0  0  0  0  0  0  0  0  0  0  0  0
  159.1450  210.5140  156.7850 C   0  0  0  0  0  2  0  0  0  0  0  0
  158.1480  211.4510  156.0910 C   0  0  0  0  0  2  0  0  0  0  0  0
  160.4100  211.4630  153.9530 C   0  0  0  0  0  0  0  0  0  0  0  0
  156.9470  214.0190  156.6500 N   0  0  0  0  0  2  0  0  0  0  0  0
  155.2580  213.5620  155.2000 N   0  0  0  0  0  2  0  0  0  0  0  0
  154.7760  214.4510  157.2610 C   0  0  0  0  0  1  0  0  0  0  0  0
  157.5840  213.7710  155.3640 C   0  0  2  0  0  3  0  0  0  0  0  0
  155.6350  213.5180  156.5540 N   0  0  0  0  0  0  0  0  0  0  0  0
  156.4730  213.3360  154.4470 C   0  0  0  0  0  2  0  0  0  0  0  0
  161.8100  210.0430  152.4690 N   0  0  0  0  0  2  0  0  0  0  0  0
  161.9270  208.9330  150.2490 C   0  0  0  0  0  0  0  0  0  0  0  0
  161.6770  208.8840  151.6330 C   0  0  0  0  0  0  0  0  0  0  0  0
  161.7980  207.7770  149.4790 C   0  0  0  0  0  3  0  0  0  0  0  0
  162.3320  210.1110  149.6350 O   0  0  0  0  0  1  0  0  0  0  0  0
  161.4480  206.5770  150.0960 C   0  0  0  0  0  3  0  0  0  0  0  0
  161.1370  207.5450  153.6190 N   0  0  0  0  0  1  0  0  0  0  0  0
  161.3600  207.6460  152.2160 C   0  0  0  0  0  0  0  0  0  0  0  0
  161.2430  206.5360  151.4390 N   0  0  0  0  0  0  0  0  0  0  0  0
  1 11  1  0  0  0  0
  2  5  1  0  0  0  0
  5  8  1  0  0  0  0
  6  3  1  6  0  0  0
  6  1  1  0  0  0  0
  7  9  1  0  0  0  0
  7 10  2  0  0  0  0
  8 12  1  0  0  0  0
  8  4  1  1  0  0  0
  9  2  2  0  0  0  0
 10 13  1  0  0  0  0
 12 11  1  0  0  0  0
 13  5  2  0  0  0  0
 13  6  1  0  0  0  0
 15 18  1  0  0  0  0
 17 19  1  6  0  0  0
 17  8  1  0  0  0  0
 17 14  1  0  0  0  0
 18 14  1  0  0  0  0
 18 16  1  0  0  0  0
 19 15  1  0  0  0  0
 20 10  1  0  0  0  0
 21 22  1  0  0  0  0
 22 27  2  0  0  0  0
 22 20  1  0  0  0  0
 23 25  1  0  0  0  0
 23 21  2  0  0  0  0
 24 21  1  0  0  0  0
 25 28  2  0  0  0  0
 27 26  1  0  0  0  0
 28 27  1  0  0  0  0
M  END
>  <MODEL>
5

>  <REMARK>
 VINA RESULT:      -4.8      2.849      8.195
  Name = 
  3 active torsions:
  status: ('A' for Active; 'I' for Inactive)
    1  A    between atoms: C_2  and  N_20
    2  A    between atoms: C_18  and  C_21
    3  A    between atoms: N_20  and  C_24
                            x       y       z     vdW  Elec       q    Type
                         _______ _______ _______ _____ _____    ______ ____

>  <TORSDO>
F 3

$$$$
=
 OpenBabel11072414093D

 28 31  0  0  1  0  0  0  0  0999 V2000
  160.0300  209.5630  155.0200 C   0  0  0  0  0  2  0  0  0  0  0  0
  158.7620  212.9840  152.5160 C   0  0  0  0  0  3  0  0  0  0  0  0
  162.2620  210.1910  154.4020 O   0  0  0  0  0  1  0  0  0  0  0  0
  159.6900  212.9620  156.0310 C   0  0  0  0  0  1  0  0  0  0  0  0
  159.3100  212.3150  153.6250 C   0  0  0  0  0  0  0  0  0  0  0  0
  160.9670  210.6740  154.5970 C   0  0  1  0  0  3  0  0  0  0  0  0
  160.3020  211.9070  151.0200 C   0  0  0  0  0  3  0  0  0  0  0  0
  158.6540  212.4770  155.0070 C   0  0  1  0  0  0  0  0  0  0  0  0
  159.2570  212.7950  151.2320 C   0  0  0  0  0  3  0  0  0  0  0  0
  160.8850  211.2150  152.0880 C   0  0  0  0  0  0  0  0  0  0  0  0
  159.0320  210.1040  156.0340 C   0  0  0  0  0  2  0  0  0  0  0  0
  158.0520  211.1140  155.4230 C   0  0  0  0  0  2  0  0  0  0  0  0
  160.4060  211.4270  153.4100 C   0  0  0  0  0  0  0  0  0  0  0  0
  157.0880  213.9180  156.3180 N   0  0  0  0  0  2  0  0  0  0  0  0
  155.1690  213.3080  155.2640 N   0  0  0  0  0  2  0  0  0  0  0  0
  155.0580  214.4530  157.2500 C   0  0  0  0  0  1  0  0  0  0  0  0
  157.4840  213.5030  154.9790 C   0  0  2  0  0  3  0  0  0  0  0  0
  155.7840  213.4280  156.5230 N   0  0  0  0  0  0  0  0  0  0  0  0
  156.2300  212.9730  154.3390 C   0  0  0  0  0  2  0  0  0  0  0  0
  161.8910  210.2280  151.8200 N   0  0  0  0  0  2  0  0  0  0  0  0
  161.3470  207.8350  151.4290 C   0  0  0  0  0  0  0  0  0  0  0  0
  161.7540  209.0950  150.9490 C   0  0  0  0  0  0  0  0  0  0  0  0
  161.2130  206.7660  150.5430 C   0  0  0  0  0  3  0  0  0  0  0  0
  161.0450  207.6410  152.7700 O   0  0  0  0  0  1  0  0  0  0  0  0
  161.4590  206.9640  149.1850 C   0  0  0  0  0  3  0  0  0  0  0  0
  162.3320  210.5230  149.0380 N   0  0  0  0  0  1  0  0  0  0  0  0
  161.9570  209.2560  149.5690 C   0  0  0  0  0  0  0  0  0  0  0  0
  161.8170  208.1940  148.7300 N   0  0  0  0  0  0  0  0  0  0  0  0
  1 11  1  0  0  0  0
  2  5  1  0  0  0  0
  5  8  1  0  0  0  0
  6  3  1  6  0  0  0
  6  1  1  0  0  0  0
  7  9  1  0  0  0  0
  7 10  2  0  0  0  0
  8 12  1  0  0  0  0
  8  4  1  1  0  0  0
  9  2  2  0  0  0  0
 10 13  1  0  0  0  0
 12 11  1  0  0  0  0
 13  5  2  0  0  0  0
 13  6  1  0  0  0  0
 14 18  1  0  0  0  0
 15 18  1  0  0  0  0
 17 19  1  1  0  0  0
 17  8  1  0  0  0  0
 17 14  1  0  0  0  0
 18 16  1  0  0  0  0
 19 15  1  0  0  0  0
 20 10  1  0  0  0  0
 21 24  1  0  0  0  0
 22 21  1  0  0  0  0
 22 20  1  0  0  0  0
 23 21  2  0  0  0  0
 25 23  1  0  0  0  0
 26 27  1  0  0  0  0
 27 22  2  0  0  0  0
 28 25  2  0  0  0  0
 28 27  1  0  0  0  0
M  END
>  <MODEL>
6

>  <REMARK>
 VINA RESULT:      -4.8      2.769      8.138
  Name = 
  3 active torsions:
  status: ('A' for Active; 'I' for Inactive)
    1  A    between atoms: C_2  and  N_20
    2  A    between atoms: C_18  and  C_21
    3  A    between atoms: N_20  and  C_24
                            x       y       z     vdW  Elec       q    Type
                         _______ _______ _______ _____ _____    ______ ____

>  <TORSDO>
F 3

$$$$
=
 OpenBabel11072414093D

 28 31  0  0  1  0  0  0  0  0999 V2000
  161.4290  207.5880  147.9660 C   0  0  0  0  0  2  0  0  0  0  0  0
  160.6490  203.7800  150.0810 C   0  0  0  0  0  3  0  0  0  0  0  0
  163.4280  207.6870  149.2900 O   0  0  0  0  0  1  0  0  0  0  0  0
  162.5750  204.3410  147.0490 C   0  0  0  0  0  1  0  0  0  0  0  0
  161.2640  204.6650  149.1770 C   0  0  0  0  0  0  0  0  0  0  0  0
  162.4990  206.8200  148.7140 C   0  0  1  0  0  3  0  0  0  0  0  0
  161.1890  205.2000  151.9420 C   0  0  0  0  0  3  0  0  0  0  0  0
  161.1700  204.3890  147.6660 C   0  0  1  0  0  0  0  0  0  0  0  0
  160.6210  204.0350  151.4460 C   0  0  0  0  0  3  0  0  0  0  0  0
  161.8140  206.1150  151.0860 C   0  0  0  0  0  0  0  0  0  0  0  0
  161.0420  206.8180  146.7110 C   0  0  0  0  0  2  0  0  0  0  0  0
  160.3130  205.5040  147.0200 C   0  0  0  0  0  2  0  0  0  0  0  0
  161.8750  205.8460  149.6920 C   0  0  0  0  0  0  0  0  0  0  0  0
  161.1610  201.9070  147.9610 N   0  0  0  0  0  2  0  0  0  0  0  0
  160.8280  201.3500  145.7840 N   0  0  0  0  0  2  0  0  0  0  0  0
  161.4990  199.7410  147.2780 C   0  0  0  0  0  1  0  0  0  0  0  0
  160.4620  203.0370  147.3640 C   0  0  2  0  0  3  0  0  0  0  0  0
  161.6600  201.1320  146.8970 N   0  0  0  0  0  0  0  0  0  0  0  0
  160.3690  202.7170  145.8970 C   0  0  0  0  0  2  0  0  0  0  0  0
  162.2960  207.3570  151.6190 N   0  0  0  0  0  2  0  0  0  0  0  0
  161.0660  208.0440  153.6660 C   0  0  0  0  0  0  0  0  0  0  0  0
  161.5270  208.3140  152.3640 C   0  0  0  0  0  0  0  0  0  0  0  0
  160.3350  209.0090  154.3580 C   0  0  0  0  0  3  0  0  0  0  0  0
  161.3550  206.8390  154.2940 O   0  0  0  0  0  1  0  0  0  0  0  0
  160.0900  210.2440  153.7580 C   0  0  0  0  0  3  0  0  0  0  0  0
  161.7670  209.9100  150.5140 N   0  0  0  0  0  1  0  0  0  0  0  0
  161.2860  209.5830  151.8140 C   0  0  0  0  0  0  0  0  0  0  0  0
  160.5700  210.5040  152.5140 N   0  0  0  0  0  0  0  0  0  0  0  0
  1  6  1  0  0  0  0
  2  9  1  0  0  0  0
  5 13  1  0  0  0  0
  5  2  2  0  0  0  0
  6  3  1  1  0  0  0
  6 13  1  0  0  0  0
  8  4  1  6  0  0  0
  8  5  1  0  0  0  0
  9  7  2  0  0  0  0
 10 20  1  0  0  0  0
 10  7  1  0  0  0  0
 11 12  1  0  0  0  0
 11  1  1  0  0  0  0
 12  8  1  0  0  0  0
 13 10  2  0  0  0  0
 15 19  1  0  0  0  0
 15 18  1  0  0  0  0
 17 19  1  6  0  0  0
 17  8  1  0  0  0  0
 17 14  1  0  0  0  0
 18 16  1  0  0  0  0
 18 14  1  0  0  0  0
 20 22  1  0  0  0  0
 21 24  1  0  0  0  0
 21 23  1  0  0  0  0
 22 21  2  0  0  0  0
 25 23  2  0  0  0  0
 26 27  1  0  0  0  0
 27 22  1  0  0  0  0
 27 28  2  0  0  0  0
 28 25  1  0  0  0  0
M  END
>  <MODEL>
7

>  <REMARK>
 VINA RESULT:      -4.7      2.679      4.416
  Name = 
  3 active torsions:
  status: ('A' for Active; 'I' for Inactive)
    1  A    between atoms: C_2  and  N_20
    2  A    between atoms: C_18  and  C_21
    3  A    between atoms: N_20  and  C_24
                            x       y       z     vdW  Elec       q    Type
                         _______ _______ _______ _____ _____    ______ ____

>  <TORSDO>
F 3

$$$$
=
 OpenBabel11072414093D

 28 31  0  0  1  0  0  0  0  0999 V2000
  162.0250  205.7880  152.1530 C   0  0  0  0  0  2  0  0  0  0  0  0
  161.9570  209.0610  149.1760 C   0  0  0  0  0  3  0  0  0  0  0  0
  160.4560  207.1310  153.3750 O   0  0  0  0  0  1  0  0  0  0  0  0
  159.7590  206.1770  149.4320 C   0  0  0  0  0  1  0  0  0  0  0  0
  161.4900  207.9480  149.8980 C   0  0  0  0  0  0  0  0  0  0  0  0
  160.9340  206.8370  152.0970 C   0  0  1  0  0  3  0  0  0  0  0  0
  162.2630  210.3260  151.1960 C   0  0  0  0  0  3  0  0  0  0  0  0
  161.1980  206.6320  149.1550 C   0  0  1  0  0  0  0  0  0  0  0  0
  162.3270  210.2400  149.8130 C   0  0  0  0  0  3  0  0  0  0  0  0
  161.8060  209.2480  151.9620 C   0  0  0  0  0  0  0  0  0  0  0  0
  161.9000  204.8660  150.9480 C   0  0  0  0  0  2  0  0  0  0  0  0
  162.2220  205.5710  149.6240 C   0  0  0  0  0  2  0  0  0  0  0  0
  161.3950  208.0490  151.3170 C   0  0  0  0  0  0  0  0  0  0  0  0
  160.3840  206.0090  146.8750 N   0  0  0  0  0  2  0  0  0  0  0  0
  162.4000  205.4650  145.9780 N   0  0  0  0  0  2  0  0  0  0  0  0
  160.4710  204.8570  144.8900 C   0  0  0  0  0  1  0  0  0  0  0  0
  161.3710  206.7830  147.6150 C   0  0  2  0  0  3  0  0  0  0  0  0
  161.0910  204.9980  146.1960 N   0  0  0  0  0  0  0  0  0  0  0  0
  162.7080  206.3140  147.1080 C   0  0  0  0  0  2  0  0  0  0  0  0
  161.8530  209.3340  153.3940 N   0  0  0  0  0  2  0  0  0  0  0  0
  160.7250  209.4430  155.6060 C   0  0  0  0  0  0  0  0  0  0  0  0
  160.8000  209.8070  154.2480 C   0  0  0  0  0  0  0  0  0  0  0  0
  159.6920  209.9380  156.4010 C   0  0  0  0  0  3  0  0  0  0  0  0
  161.6840  208.6200  156.1820 O   0  0  0  0  0  1  0  0  0  0  0  0
  158.7560  210.8110  155.8460 C   0  0  0  0  0  3  0  0  0  0  0  0
  159.9180  211.1380  152.3830 N   0  0  0  0  0  1  0  0  0  0  0  0
  159.8560  210.7140  153.7420 C   0  0  0  0  0  0  0  0  0  0  0  0
  158.8600  211.1810  154.5430 N   0  0  0  0  0  0  0  0  0  0  0  0
  2  9  2  0  0  0  0
  2  5  1  0  0  0  0
  5 13  2  0  0  0  0
  6  1  1  0  0  0  0
  6  3  1  1  0  0  0
  7 10  2  0  0  0  0
  8  4  1  1  0  0  0
  8 12  1  0  0  0  0
  8  5  1  0  0  0  0
  9  7  1  0  0  0  0
 10 20  1  0  0  0  0
 11  1  1  0  0  0  0
 12 11  1  0  0  0  0
 13 10  1  0  0  0  0
 13  6  1  0  0  0  0
 14 17  1  0  0  0  0
 15 18  1  0  0  0  0
 15 19  1  0  0  0  0
 16 18  1  0  0  0  0
 17 19  1  6  0  0  0
 17  8  1  0  0  0  0
 18 14  1  0  0  0  0
 20 22  1  0  0  0  0
 21 24  1  0  0  0  0
 21 23  1  0  0  0  0
 22 21  2  0  0  0  0
 25 23  2  0  0  0  0
 26 27  1  0  0  0  0
 27 22  1  0  0  0  0
 27 28  2  0  0  0  0
 28 25  1  0  0  0  0
M  END
>  <MODEL>
8

>  <REMARK>
 VINA RESULT:      -4.5      1.300      1.705
  Name = 
  3 active torsions:
  status: ('A' for Active; 'I' for Inactive)
    1  A    between atoms: C_2  and  N_20
    2  A    between atoms: C_18  and  C_21
    3  A    between atoms: N_20  and  C_24
                            x       y       z     vdW  Elec       q    Type
                         _______ _______ _______ _____ _____    ______ ____

>  <TORSDO>
F 3

$$$$
=
 OpenBabel11072414093D

 28 31  0  0  1  0  0  0  0  0999 V2000
  161.4350  207.6660  148.1750 C   0  0  0  0  0  2  0  0  0  0  0  0
  160.6480  203.7860  150.1500 C   0  0  0  0  0  3  0  0  0  0  0  0
  163.4300  207.7180  149.5090 O   0  0  0  0  0  1  0  0  0  0  0  0
  162.5830  204.4540  147.1470 C   0  0  0  0  0  1  0  0  0  0  0  0
  161.2660  204.7020  149.2800 C   0  0  0  0  0  0  0  0  0  0  0  0
  162.5020  206.8720  148.8990 C   0  0  1  0  0  3  0  0  0  0  0  0
  161.1810  205.1390  152.0620 C   0  0  0  0  0  3  0  0  0  0  0  0
  161.1770  204.4810  147.7600 C   0  0  1  0  0  0  0  0  0  0  0  0
  160.6150  203.9920  151.5240 C   0  0  0  0  0  3  0  0  0  0  0  0
  161.8100  206.0830  151.2420 C   0  0  0  0  0  0  0  0  0  0  0  0
  161.0520  206.9420  146.8920 C   0  0  0  0  0  2  0  0  0  0  0  0
  160.3220  205.6180  147.1520 C   0  0  0  0  0  2  0  0  0  0  0  0
  161.8750  205.8640  149.8390 C   0  0  0  0  0  0  0  0  0  0  0  0
  161.1260  201.9960  148.0240 N   0  0  0  0  0  2  0  0  0  0  0  0
  160.8940  201.4670  145.8260 N   0  0  0  0  0  2  0  0  0  0  0  0
  161.4740  199.8340  147.3310 C   0  0  0  0  0  1  0  0  0  0  0  0
  160.4690  203.1400  147.4080 C   0  0  2  0  0  3  0  0  0  0  0  0
  161.6680  201.2280  146.9760 N   0  0  0  0  0  0  0  0  0  0  0  0
  160.4450  202.8380  145.9340 C   0  0  0  0  0  2  0  0  0  0  0  0
  162.2900  207.3060  151.8200 N   0  0  0  0  0  2  0  0  0  0  0  0
  161.1010  209.4870  151.8850 C   0  0  0  0  0  0  0  0  0  0  0  0
  161.4970  208.2870  152.5060 C   0  0  0  0  0  0  0  0  0  0  0  0
  160.3170  210.4040  152.5860 C   0  0  0  0  0  3  0  0  0  0  0  0
  161.4490  209.7640  150.5700 O   0  0  0  0  0  1  0  0  0  0  0  0
  159.9140  210.1090  153.8870 C   0  0  0  0  0  3  0  0  0  0  0  0
  161.3850  206.7980  154.4550 N   0  0  0  0  0  1  0  0  0  0  0  0
  161.0380  208.0180  153.8050 C   0  0  0  0  0  0  0  0  0  0  0  0
  160.2750  208.9310  154.4620 N   0  0  0  0  0  0  0  0  0  0  0  0
  1  6  1  0  0  0  0
  2  9  1  0  0  0  0
  5 13  1  0  0  0  0
  5  2  2  0  0  0  0
  6  3  1  1  0  0  0
  6 13  1  0  0  0  0
  8  4  1  6  0  0  0
  8  5  1  0  0  0  0
  9  7  2  0  0  0  0
 10 20  1  0  0  0  0
 10  7  1  0  0  0  0
 11 12  1  0  0  0  0
 11  1  1  0  0  0  0
 12  8  1  0  0  0  0
 13 10  2  0  0  0  0
 15 19  1  0  0  0  0
 15 18  1  0  0  0  0
 17 19  1  6  0  0  0
 17  8  1  0  0  0  0
 17 14  1  0  0  0  0
 18 16  1  0  0  0  0
 18 14  1  0  0  0  0
 20 22  1  0  0  0  0
 21 22  2  0  0  0  0
 21 23  1  0  0  0  0
 22 27  1  0  0  0  0
 23 25  2  0  0  0  0
 24 21  1  0  0  0  0
 25 28  1  0  0  0  0
 27 26  1  0  0  0  0
 27 28  2  0  0  0  0
M  END
>  <MODEL>
9

>  <REMARK>
 VINA RESULT:      -4.4      2.686      4.209
  Name = 
  3 active torsions:
  status: ('A' for Active; 'I' for Inactive)
    1  A    between atoms: C_2  and  N_20
    2  A    between atoms: C_18  and  C_21
    3  A    between atoms: N_20  and  C_24
                            x       y       z     vdW  Elec       q    Type
                         _______ _______ _______ _____ _____    ______ ____

>  <TORSDO>
F 3

$$$$
