=
 OpenBabel11072412423D

 66 71  0  0  1  0  0  0  0  0999 V2000
  161.7490  210.9970  150.1120 C   0  0  0  0  0  0  0  0  0  0  0  0
  161.9280  209.9860  149.2730 C   0  0  0  0  0  2  0  0  0  0  0  0
  162.2260  210.8650  151.4510 N   0  0  0  0  0  2  0  0  0  0  0  0
  162.4670  209.6500  152.0160 O   0  0  0  0  0  0  0  0  0  0  0  0
  161.3590  209.3200  152.8280 C   0  0  2  0  0  3  0  0  0  0  0  0
  159.2750  209.2300  154.9390 O   0  0  0  0  0  0  0  0  0  0  0  0
  162.7750  210.9060  155.9210 O   0  0  0  0  0  0  0  0  0  0  0  0
  160.3600  209.8110  155.2050 C   0  0  0  0  0  0  0  0  0  0  0  0
  162.6210  210.3920  154.6270 C   0  0  0  0  0  3  0  0  0  0  0  0
  161.4520  209.8950  154.2170 C   0  0  0  0  0  0  0  0  0  0  0  0
  160.5640  210.3350  156.4810 O   0  0  0  0  0  0  0  0  0  0  0  0
  161.6510  211.2220  156.7460 C   0  0  0  0  0  2  0  0  0  0  0  0
  161.2740  207.2620  151.3850 C   0  0  0  0  0  2  0  0  0  0  0  0
  160.8550  205.7920  151.3000 C   0  0  2  0  0  3  0  0  0  0  0  0
  161.5750  207.0240  153.8560 C   0  0  0  0  0  2  0  0  0  0  0  0
  160.9110  207.8510  152.7520 C   0  0  1  0  0  3  0  0  0  0  0  0
  161.4550  204.9730  152.4450 C   0  0  0  0  0  2  0  0  0  0  0  0
  161.0880  205.5830  153.7920 C   0  0  0  0  0  2  0  0  0  0  0  0
  161.2380  205.2140  150.0140 N   0  0  0  0  0  2  0  0  0  0  0  0
  159.7270  206.4260  148.7080 O   0  0  0  0  0  0  0  0  0  0  0  0
  160.7060  205.6310  148.7490 C   0  0  0  0  0  0  0  0  0  0  0  0
  160.5370  204.8110  145.1290 C   0  0  0  0  0  3  0  0  0  0  0  0
  162.6430  205.2880  147.3280 C   0  0  0  0  0  3  0  0  0  0  0  0
  161.3210  205.1460  147.4970 C   0  0  0  0  0  0  0  0  0  0  0  0
  163.0210  204.6910  144.9100 C   0  0  0  0  0  3  0  0  0  0  0  0
  160.4710  204.3470  146.5480 C   0  0  2  0  0  3  0  0  0  0  0  0
  161.6550  204.9210  144.4120 C   0  0  0  0  0  3  0  0  0  0  0  0
  163.4440  204.8500  146.1680 C   0  0  0  0  0  3  0  0  0  0  0  0
  160.7220  202.8510  146.6760 C   0  0  0  0  0  2  0  0  0  0  0  0
  161.1350  201.8380  150.3850 C   0  0  0  0  0  1  0  0  0  0  0  0
  159.5280  201.2030  148.7090 N   0  0  0  0  0  2  0  0  0  0  0  0
  161.3160  202.5730  147.9760 N   0  0  0  0  0  2  0  0  0  0  0  0
  160.6220  201.8400  148.9880 C   0  0  0  0  0  0  0  0  0  0  0  0
  160.8350  212.1340  149.7580 C   0  0  1  0  0  3  0  0  0  0  0  0
  160.1350  214.3610  150.4120 F   0  0  0  0  0  0  0  0  0  0  0  0
  160.6490  213.1690  150.8830 C   0  0  1  0  0  3  0  0  0  0  0  0
  160.7320  212.5440  153.1870 F   0  0  0  0  0  0  0  0  0  0  0  0
  159.8940  212.5730  152.0880 C   0  0  1  0  0  3  0  0  0  0  0  0
  156.7080  213.2670  154.0580 C   0  0  0  0  0  0  0  0  0  0  0  0
  158.5430  213.1500  152.4580 C   0  0  0  0  0  0  0  0  0  0  0  0
  156.5020  214.3630  151.9090 C   0  0  0  0  0  3  0  0  0  0  0  0
  157.7750  213.9040  151.5550 C   0  0  0  0  0  3  0  0  0  0  0  0
  157.9850  212.8170  153.7040 C   0  0  0  0  0  3  0  0  0  0  0  0
  155.9720  214.0450  153.1600 C   0  0  0  0  0  3  0  0  0  0  0  0
  156.1560  212.9250  155.3260 N   0  0  0  0  0  0  0  0  0  0  0  0
  155.8850  213.1860  156.7710 C   0  0  0  0  0  2  0  0  0  0  0  0
  155.4010  212.0130  156.2320 C   0  0  0  0  0  2  0  0  0  0  0  0
  161.1090  212.6780  148.3460 C   0  0  2  0  0  3  0  0  0  0  0  0
  161.2490  214.1940  148.2870 C   0  0  0  0  0  1  0  0  0  0  0  0
  158.6730  213.8120  146.8080 C   0  0  2  0  0  3  0  0  0  0  0  0
  160.0940  212.0970  147.3490 C   0  0  2  0  0  3  0  0  0  0  0  0
  158.8070  213.7010  145.4210 O   0  0  0  0  0  0  0  0  0  0  0  0
  161.0600  212.8250  145.3110 C   0  0  1  0  0  3  0  0  0  0  0  0
  160.5640  211.7260  146.0620 O   0  0  0  0  0  0  0  0  0  0  0  0
  158.7530  212.5370  147.3930 O   0  0  0  0  0  0  0  0  0  0  0  0
  160.1370  214.0490  145.1850 C   0  0  0  0  0  2  0  0  0  0  0  0
  162.5240  213.1610  145.6070 C   0  0  2  0  0  3  0  0  0  0  0  0
  162.6390  214.4180  146.2100 O   0  0  0  0  0  1  0  0  0  0  0  0
  163.2630  213.1350  144.4220 O   0  0  0  0  0  0  0  0  0  0  0  0
  162.3200  213.3130  143.4060 C   0  0  0  0  0  2  0  0  0  0  0  0
  162.1030  211.9150  141.4940 O   0  0  0  0  0  1  0  0  0  0  0  0
  162.9120  212.8930  142.0760 C   0  0  0  0  0  2  0  0  0  0  0  0
  157.3340  214.4530  147.1490 C   0  0  1  0  0  3  0  0  0  0  0  0
  156.5090  214.4500  146.0210 O   0  0  0  0  0  1  0  0  0  0  0  0
  155.2810  214.2690  148.5380 C   0  0  0  0  0  1  0  0  0  0  0  0
  156.6540  213.6860  148.2740 C   0  0  0  0  0  2  0  0  0  0  0  0
  1  3  1  0  0  0  0
  2  1  2  0  0  0  0
  3  4  1  0  0  0  0
  5  4  1  1  0  0  0
  5 10  1  0  0  0  0
  6  8  2  0  0  0  0
  7 12  1  0  0  0  0
  8 11  1  0  0  0  0
  9  7  1  0  0  0  0
 10  9  2  0  0  0  0
 10  8  1  0  0  0  0
 11 12  1  0  0  0  0
 13 16  1  0  0  0  0
 14 19  1  6  0  0  0
 14 13  1  0  0  0  0
 14 17  1  0  0  0  0
 16  5  1  6  0  0  0
 16 15  1  0  0  0  0
 17 18  1  0  0  0  0
 18 15  1  0  0  0  0
 20 21  2  0  0  0  0
 21 19  1  0  0  0  0
 22 26  1  0  0  0  0
 23 24  2  0  0  0  0
 24 21  1  0  0  0  0
 25 28  2  0  0  0  0
 26 29  1  6  0  0  0
 26 24  1  0  0  0  0
 27 25  1  0  0  0  0
 27 22  2  0  0  0  0
 28 23  1  0  0  0  0
 29 32  1  0  0  0  0
 31 33  2  0  0  0  0
 32 33  1  0  0  0  0
 33 30  1  0  0  0  0
 34  1  1  1  0  0  0
 34 36  1  0  0  0  0
 36 35  1  6  0  0  0
 36 38  1  0  0  0  0
 38 40  1  0  0  0  0
 38 37  1  1  0  0  0
 39 45  1  0  0  0  0
 40 43  2  0  0  0  0
 41 44  1  0  0  0  0
 42 41  2  0  0  0  0
 42 40  1  0  0  0  0
 43 39  1  0  0  0  0
 44 39  2  0  0  0  0
 45 47  1  0  0  0  0
 45 46  1  0  0  0  0
 47 46  1  0  0  0  0
 48 49  1  1  0  0  0
 48 34  1  0  0  0  0
 50 63  1  6  0  0  0
 50 55  1  0  0  0  0
 51 55  1  0  0  0  0
 51 48  1  6  0  0  0
 52 50  1  0  0  0  0
 53 57  1  1  0  0  0
 53 54  1  0  0  0  0
 54 51  1  0  0  0  0
 56 53  1  0  0  0  0
 56 52  1  0  0  0  0
 57 58  1  6  0  0  0
 59 57  1  0  0  0  0
 60 59  1  0  0  0  0
 61 62  1  0  0  0  0
 62 60  1  0  0  0  0
 63 64  1  6  0  0  0
 63 66  1  0  0  0  0
 66 65  1  0  0  0  0
M  END
>  <MODEL>
1

>  <REMARK>
 VINA RESULT:      -5.5      0.000      0.000
  Name = 
  22 active torsions:
  status: ('A' for Active; 'I' for Inactive)
    1  A    between atoms: C_1  and  C_8
    2  A    between atoms: C_1  and  C_47
    3  A    between atoms: C_3  and  C_14
    4  A    between atoms: C_3  and  C_56
    5  A    between atoms: C_4  and  N_24
    6  A    between atoms: C_7  and  C_32
    7  A    between atoms: C_9  and  C_32
    8  A    between atoms: C_9  and  C_56
    9  A    between atoms: C_11  and  N_30
   10  A    between atoms: C_11  and  C_56
   11  A    between atoms: N_13  and  C_36
   12  A    between atoms: C_19  and  C_45
   13  A    between atoms: C_19  and  N_55
   14  A    between atoms: C_20  and  O_25
   15  A    between atoms: C_20  and  C_40
   16  A    between atoms: C_22  and  C_23
   17  A    between atoms: C_23  and  O_25
   18  A    between atoms: C_29  and  C_37
   19  A    between atoms: N_30  and  O_35
   20  A    between atoms: O_35  and  C_65
   21  A    between atoms: C_43  and  C_65
   22  A    between atoms: C_58  and  C_65
                            x       y       z     vdW  Elec       q    Type
                         _______ _______ _______ _____ _____    ______ ____

>  <TORSDO>
F 22

$$$$
=
 OpenBabel11072412423D

 66 71  0  0  1  0  0  0  0  0999 V2000
  162.0640  209.1830  148.5580 C   0  0  0  0  0  0  0  0  0  0  0  0
  161.8960  209.8950  149.6630 C   0  0  0  0  0  2  0  0  0  0  0  0
  161.6300  209.7370  147.3160 N   0  0  0  0  0  2  0  0  0  0  0  0
  160.5030  210.4940  147.2180 O   0  0  0  0  0  0  0  0  0  0  0  0
  160.8880  211.8540  147.2440 C   0  0  2  0  0  3  0  0  0  0  0  0
  161.4090  213.7240  149.4880 O   0  0  0  0  0  0  0  0  0  0  0  0
  157.6870  213.6550  148.0160 O   0  0  0  0  0  0  0  0  0  0  0  0
  160.2300  213.6370  149.0530 C   0  0  0  0  0  0  0  0  0  0  0  0
  158.6500  212.8190  147.4360 C   0  0  0  0  0  3  0  0  0  0  0  0
  159.8850  212.7390  147.9350 C   0  0  0  0  0  0  0  0  0  0  0  0
  159.2360  214.4520  149.5940 O   0  0  0  0  0  0  0  0  0  0  0  0
  157.8570  214.2060  149.3240 C   0  0  0  0  0  2  0  0  0  0  0  0
  160.3820  212.2860  144.8180 C   0  0  0  0  0  2  0  0  0  0  0  0
  160.9110  212.8440  143.4950 C   0  0  2  0  0  3  0  0  0  0  0  0
  161.8700  213.8600  146.0670 C   0  0  0  0  0  2  0  0  0  0  0  0
  161.4430  212.3970  145.9170 C   0  0  1  0  0  3  0  0  0  0  0  0
  161.4090  214.2820  143.6540 C   0  0  0  0  0  2  0  0  0  0  0  0
  162.4560  214.3680  144.7580 C   0  0  0  0  0  2  0  0  0  0  0  0
  159.8870  212.7790  142.4550 N   0  0  0  0  0  2  0  0  0  0  0  0
  161.0780  213.9540  140.8240 O   0  0  0  0  0  0  0  0  0  0  0  0
  160.0580  213.2710  141.1180 C   0  0  0  0  0  0  0  0  0  0  0  0
  157.8230  210.8840  139.3540 C   0  0  0  0  0  3  0  0  0  0  0  0
  158.2230  213.9230  139.6710 C   0  0  0  0  0  3  0  0  0  0  0  0
  159.0530  212.9550  140.0840 C   0  0  0  0  0  0  0  0  0  0  0  0
  156.5160  212.7130  138.2700 C   0  0  0  0  0  3  0  0  0  0  0  0
  159.1260  211.6150  139.4050 C   0  0  2  0  0  3  0  0  0  0  0  0
  156.6990  211.3610  138.8210 C   0  0  0  0  0  3  0  0  0  0  0  0
  157.1740  213.8160  138.6380 C   0  0  0  0  0  3  0  0  0  0  0  0
  159.7890  211.7030  138.0380 C   0  0  0  0  0  2  0  0  0  0  0  0
  163.5710  211.5020  138.8170 C   0  0  0  0  0  1  0  0  0  0  0  0
  161.9770  209.8380  138.1220 N   0  0  0  0  0  2  0  0  0  0  0  0
  161.1880  212.0700  138.2050 N   0  0  0  0  0  2  0  0  0  0  0  0
  162.2180  211.0900  138.3530 C   0  0  0  0  0  0  0  0  0  0  0  0
  162.4430  207.7320  148.6320 C   0  0  1  0  0  3  0  0  0  0  0  0
  163.4040  207.5120  150.8460 F   0  0  0  0  0  0  0  0  0  0  0  0
  162.3490  207.1250  150.0430 C   0  0  1  0  0  3  0  0  0  0  0  0
  160.1050  206.3300  150.2470 F   0  0  0  0  0  0  0  0  0  0  0  0
  160.9530  207.3380  150.6650 C   0  0  1  0  0  3  0  0  0  0  0  0
  160.6690  209.0960  154.0330 C   0  0  0  0  0  0  0  0  0  0  0  0
  160.8480  207.5440  152.1620 C   0  0  0  0  0  0  0  0  0  0  0  0
  160.9820  206.7320  154.4570 C   0  0  0  0  0  3  0  0  0  0  0  0
  161.0180  206.4930  153.0790 C   0  0  0  0  0  3  0  0  0  0  0  0
  160.6970  208.8510  152.6550 C   0  0  0  0  0  3  0  0  0  0  0  0
  160.8050  208.0330  154.9310 C   0  0  0  0  0  3  0  0  0  0  0  0
  160.5110  210.4250  154.5190 N   0  0  0  0  0  0  0  0  0  0  0  0
  160.2550  211.8850  154.3370 C   0  0  0  0  0  2  0  0  0  0  0  0
  160.4830  211.4320  155.6190 C   0  0  0  0  0  2  0  0  0  0  0  0
  161.8380  206.9160  147.4770 C   0  0  2  0  0  3  0  0  0  0  0  0
  160.3300  206.7230  147.5850 C   0  0  0  0  0  1  0  0  0  0  0  0
  161.2150  203.9080  147.8590 C   0  0  2  0  0  3  0  0  0  0  0  0
  162.6290  205.6150  147.2750 C   0  0  2  0  0  3  0  0  0  0  0  0
  161.3590  203.1690  146.6800 O   0  0  0  0  0  0  0  0  0  0  0  0
  161.8280  204.9760  145.1390 C   0  0  1  0  0  3  0  0  0  0  0  0
  162.9650  205.2400  145.9480 O   0  0  0  0  0  0  0  0  0  0  0  0
  162.4300  204.5400  148.1700 O   0  0  0  0  0  0  0  0  0  0  0  0
  160.7920  203.9880  145.7020 C   0  0  0  0  0  2  0  0  0  0  0  0
  161.2280  206.2280  144.4950 C   0  0  2  0  0  3  0  0  0  0  0  0
  160.0200  206.5790  145.1090 O   0  0  0  0  0  1  0  0  0  0  0  0
  161.0190  206.0040  143.1320 O   0  0  0  0  0  0  0  0  0  0  0  0
  162.3000  205.9650  142.5730 C   0  0  0  0  0  2  0  0  0  0  0  0
  161.4830  207.4530  140.9070 O   0  0  0  0  0  1  0  0  0  0  0  0
  162.2240  206.2850  141.0940 C   0  0  0  0  0  2  0  0  0  0  0  0
  160.8060  202.9850  149.0000 C   0  0  1  0  0  3  0  0  0  0  0  0
  161.3600  201.7180  148.8030 O   0  0  0  0  0  1  0  0  0  0  0  0
  161.1110  202.5110  151.4210 C   0  0  0  0  0  1  0  0  0  0  0  0
  161.2890  203.5470  150.3300 C   0  0  0  0  0  2  0  0  0  0  0  0
  1  2  2  0  0  0  0
  3  1  1  0  0  0  0
  4  3  1  0  0  0  0
  5  4  1  6  0  0  0
  5 10  1  0  0  0  0
  7 12  1  0  0  0  0
  8  6  2  0  0  0  0
  8 11  1  0  0  0  0
  9 10  2  0  0  0  0
  9  7  1  0  0  0  0
 10  8  1  0  0  0  0
 12 11  1  0  0  0  0
 13 16  1  0  0  0  0
 14 19  1  6  0  0  0
 14 17  1  0  0  0  0
 14 13  1  0  0  0  0
 16 15  1  0  0  0  0
 16  5  1  1  0  0  0
 17 18  1  0  0  0  0
 18 15  1  0  0  0  0
 20 21  2  0  0  0  0
 21 19  1  0  0  0  0
 22 26  1  0  0  0  0
 23 24  2  0  0  0  0
 24 21  1  0  0  0  0
 25 28  2  0  0  0  0
 25 27  1  0  0  0  0
 26 29  1  6  0  0  0
 26 24  1  0  0  0  0
 27 22  2  0  0  0  0
 28 23  1  0  0  0  0
 29 32  1  0  0  0  0
 31 33  2  0  0  0  0
 32 33  1  0  0  0  0
 33 30  1  0  0  0  0
 34  1  1  1  0  0  0
 34 36  1  0  0  0  0
 36 38  1  0  0  0  0
 36 35  1  1  0  0  0
 38 37  1  1  0  0  0
 38 40  1  0  0  0  0
 39 45  1  0  0  0  0
 39 44  1  0  0  0  0
 40 43  1  0  0  0  0
 40 42  2  0  0  0  0
 41 44  2  0  0  0  0
 42 41  1  0  0  0  0
 43 39  2  0  0  0  0
 45 47  1  0  0  0  0
 46 45  1  0  0  0  0
 46 47  1  0  0  0  0
 48 49  1  1  0  0  0
 48 34  1  0  0  0  0
 50 55  1  0  0  0  0
 50 63  1  1  0  0  0
 51 48  1  6  0  0  0
 51 55  1  0  0  0  0
 52 50  1  0  0  0  0
 53 57  1  1  0  0  0
 53 56  1  0  0  0  0
 53 54  1  0  0  0  0
 54 51  1  0  0  0  0
 56 52  1  0  0  0  0
 57 58  1  1  0  0  0
 59 57  1  0  0  0  0
 60 59  1  0  0  0  0
 61 62  1  0  0  0  0
 62 60  1  0  0  0  0
 63 64  1  6  0  0  0
 63 66  1  0  0  0  0
 66 65  1  0  0  0  0
M  END
>  <MODEL>
2

>  <REMARK>
 VINA RESULT:      -4.7      4.106      9.238
  Name = 
  22 active torsions:
  status: ('A' for Active; 'I' for Inactive)
    1  A    between atoms: C_1  and  C_8
    2  A    between atoms: C_1  and  C_47
    3  A    between atoms: C_3  and  C_14
    4  A    between atoms: C_3  and  C_56
    5  A    between atoms: C_4  and  N_24
    6  A    between atoms: C_7  and  C_32
    7  A    between atoms: C_9  and  C_32
    8  A    between atoms: C_9  and  C_56
    9  A    between atoms: C_11  and  N_30
   10  A    between atoms: C_11  and  C_56
   11  A    between atoms: N_13  and  C_36
   12  A    between atoms: C_19  and  C_45
   13  A    between atoms: C_19  and  N_55
   14  A    between atoms: C_20  and  O_25
   15  A    between atoms: C_20  and  C_40
   16  A    between atoms: C_22  and  C_23
   17  A    between atoms: C_23  and  O_25
   18  A    between atoms: C_29  and  C_37
   19  A    between atoms: N_30  and  O_35
   20  A    between atoms: O_35  and  C_65
   21  A    between atoms: C_43  and  C_65
   22  A    between atoms: C_58  and  C_65
                            x       y       z     vdW  Elec       q    Type
                         _______ _______ _______ _____ _____    ______ ____

>  <TORSDO>
F 22

$$$$
=
 OpenBabel11072412423D

 66 71  0  0  1  0  0  0  0  0999 V2000
  161.8990  209.1780  148.6340 C   0  0  0  0  0  0  0  0  0  0  0  0
  161.4930  209.8740  149.6870 C   0  0  0  0  0  2  0  0  0  0  0  0
  161.6660  209.7150  147.3320 N   0  0  0  0  0  2  0  0  0  0  0  0
  160.5650  210.4620  147.0440 O   0  0  0  0  0  0  0  0  0  0  0  0
  160.9440  211.8230  147.0700 C   0  0  2  0  0  3  0  0  0  0  0  0
  161.1150  213.5830  149.4520 O   0  0  0  0  0  0  0  0  0  0  0  0
  157.7260  213.7380  147.3270 O   0  0  0  0  0  0  0  0  0  0  0  0
  160.0340  213.5660  148.8070 C   0  0  0  0  0  0  0  0  0  0  0  0
  158.7470  212.8810  146.8950 C   0  0  0  0  0  3  0  0  0  0  0  0
  159.8650  212.7260  147.6060 C   0  0  0  0  0  0  0  0  0  0  0  0
  158.9890  214.4050  149.1940 O   0  0  0  0  0  0  0  0  0  0  0  0
  157.6740  214.2320  148.6670 C   0  0  0  0  0  2  0  0  0  0  0  0
  160.6530  212.4220  144.6440 C   0  0  0  0  0  2  0  0  0  0  0  0
  161.3390  212.9410  143.3770 C   0  0  2  0  0  3  0  0  0  0  0  0
  162.2900  213.6950  146.0410 C   0  0  0  0  0  2  0  0  0  0  0  0
  161.6530  212.3230  145.8010 C   0  0  1  0  0  3  0  0  0  0  0  0
  162.0420  214.2760  143.6300 C   0  0  0  0  0  2  0  0  0  0  0  0
  163.0230  214.1560  144.7900 C   0  0  0  0  0  2  0  0  0  0  0  0
  160.3800  213.0770  142.2840 N   0  0  0  0  0  2  0  0  0  0  0  0
  161.9460  213.1300  140.5510 O   0  0  0  0  0  0  0  0  0  0  0  0
  160.7320  213.0770  140.8930 C   0  0  0  0  0  0  0  0  0  0  0  0
  157.2070  212.5000  139.8740 C   0  0  0  0  0  3  0  0  0  0  0  0
  159.8060  213.7070  138.7410 C   0  0  0  0  0  3  0  0  0  0  0  0
  159.6750  212.9910  139.8670 C   0  0  0  0  0  0  0  0  0  0  0  0
  157.5650  213.4920  137.6120 C   0  0  0  0  0  3  0  0  0  0  0  0
  158.5910  211.9640  140.0440 C   0  0  2  0  0  3  0  0  0  0  0  0
  156.7590  213.1340  138.7900 C   0  0  0  0  0  3  0  0  0  0  0  0
  158.8780  213.7390  137.5930 C   0  0  0  0  0  3  0  0  0  0  0  0
  158.8340  210.7230  139.1970 C   0  0  0  0  0  2  0  0  0  0  0  0
  155.9470  208.8070  137.4790 C   0  0  0  0  0  1  0  0  0  0  0  0
  158.3090  208.9120  137.0250 N   0  0  0  0  0  2  0  0  0  0  0  0
  157.5700  210.0370  138.9740 N   0  0  0  0  0  2  0  0  0  0  0  0
  157.3330  209.2380  137.8120 C   0  0  0  0  0  0  0  0  0  0  0  0
  162.3420  207.7510  148.7810 C   0  0  1  0  0  3  0  0  0  0  0  0
  163.5200  207.6370  150.8960 F   0  0  0  0  0  0  0  0  0  0  0  0
  162.3720  207.2470  150.2350 C   0  0  1  0  0  3  0  0  0  0  0  0
  160.3200  206.4080  151.1270 F   0  0  0  0  0  0  0  0  0  0  0  0
  161.0590  207.5670  150.9790 C   0  0  1  0  0  3  0  0  0  0  0  0
  160.9070  208.3040  154.7130 C   0  0  0  0  0  0  0  0  0  0  0  0
  161.1310  208.3290  152.2870 C   0  0  0  0  0  0  0  0  0  0  0  0
  161.2700  210.4020  153.5600 C   0  0  0  0  0  3  0  0  0  0  0  0
  161.2760  209.7250  152.3360 C   0  0  0  0  0  3  0  0  0  0  0  0
  160.9220  207.6300  153.4870 C   0  0  0  0  0  3  0  0  0  0  0  0
  161.0870  209.6900  154.7470 C   0  0  0  0  0  3  0  0  0  0  0  0
  160.6980  207.5820  155.9230 N   0  0  0  0  0  0  0  0  0  0  0  0
  159.9200  207.2450  157.1520 C   0  0  0  0  0  2  0  0  0  0  0  0
  161.1070  206.5740  156.9440 C   0  0  0  0  0  2  0  0  0  0  0  0
  161.6910  206.8320  147.7350 C   0  0  2  0  0  3  0  0  0  0  0  0
  160.1960  206.6260  147.9420 C   0  0  0  0  0  1  0  0  0  0  0  0
  161.0600  203.8290  148.1430 C   0  0  2  0  0  3  0  0  0  0  0  0
  162.4950  205.5310  147.5980 C   0  0  2  0  0  3  0  0  0  0  0  0
  161.2650  203.0690  146.9870 O   0  0  0  0  0  0  0  0  0  0  0  0
  161.8050  204.8470  145.4370 C   0  0  1  0  0  3  0  0  0  0  0  0
  162.8990  205.1320  146.2970 O   0  0  0  0  0  0  0  0  0  0  0  0
  162.2560  204.4720  148.5020 O   0  0  0  0  0  0  0  0  0  0  0  0
  160.7460  203.8660  145.9670 C   0  0  0  0  0  2  0  0  0  0  0  0
  161.2340  206.0840  144.7400 C   0  0  2  0  0  3  0  0  0  0  0  0
  160.1080  206.5680  145.4160 O   0  0  0  0  0  1  0  0  0  0  0  0
  160.8940  205.7690  143.4220 O   0  0  0  0  0  0  0  0  0  0  0  0
  162.0910  205.8760  142.7070 C   0  0  0  0  0  2  0  0  0  0  0  0
  162.9510  206.4150  140.5570 O   0  0  0  0  0  1  0  0  0  0  0  0
  161.8400  206.5730  141.3860 C   0  0  0  0  0  2  0  0  0  0  0  0
  160.5970  202.9270  149.2800 C   0  0  1  0  0  3  0  0  0  0  0  0
  161.1420  201.6500  149.1200 O   0  0  0  0  0  1  0  0  0  0  0  0
  161.7420  202.4320  151.4300 C   0  0  0  0  0  1  0  0  0  0  0  0
  161.0370  203.5000  150.6190 C   0  0  0  0  0  2  0  0  0  0  0  0
  1  2  2  0  0  0  0
  3  1  1  0  0  0  0
  4  3  1  0  0  0  0
  5  4  1  6  0  0  0
  5 10  1  0  0  0  0
  7 12  1  0  0  0  0
  8 11  1  0  0  0  0
  8  6  2  0  0  0  0
  9  7  1  0  0  0  0
  9 10  2  0  0  0  0
 10  8  1  0  0  0  0
 12 11  1  0  0  0  0
 13 16  1  0  0  0  0
 14 19  1  6  0  0  0
 14 17  1  0  0  0  0
 14 13  1  0  0  0  0
 16 15  1  0  0  0  0
 16  5  1  1  0  0  0
 17 18  1  0  0  0  0
 18 15  1  0  0  0  0
 20 21  2  0  0  0  0
 21 19  1  0  0  0  0
 22 26  1  0  0  0  0
 23 24  2  0  0  0  0
 24 26  1  0  0  0  0
 24 21  1  0  0  0  0
 25 27  1  0  0  0  0
 26 29  1  6  0  0  0
 27 22  2  0  0  0  0
 28 25  2  0  0  0  0
 28 23  1  0  0  0  0
 30 33  1  0  0  0  0
 31 33  2  0  0  0  0
 32 29  1  0  0  0  0
 33 32  1  0  0  0  0
 34  1  1  1  0  0  0
 34 36  1  0  0  0  0
 36 35  1  1  0  0  0
 36 38  1  0  0  0  0
 38 37  1  1  0  0  0
 38 40  1  0  0  0  0
 39 44  1  0  0  0  0
 39 45  1  0  0  0  0
 40 42  2  0  0  0  0
 40 43  1  0  0  0  0
 41 44  2  0  0  0  0
 42 41  1  0  0  0  0
 43 39  2  0  0  0  0
 45 47  1  0  0  0  0
 45 46  1  0  0  0  0
 47 46  1  0  0  0  0
 48 49  1  1  0  0  0
 48 34  1  0  0  0  0
 50 55  1  0  0  0  0
 50 63  1  1  0  0  0
 51 48  1  6  0  0  0
 51 55  1  0  0  0  0
 52 50  1  0  0  0  0
 53 57  1  1  0  0  0
 53 56  1  0  0  0  0
 53 54  1  0  0  0  0
 54 51  1  0  0  0  0
 56 52  1  0  0  0  0
 57 58  1  1  0  0  0
 59 57  1  0  0  0  0
 60 59  1  0  0  0  0
 61 62  1  0  0  0  0
 62 60  1  0  0  0  0
 63 64  1  6  0  0  0
 63 66  1  0  0  0  0
 66 65  1  0  0  0  0
M  END
>  <MODEL>
3

>  <REMARK>
 VINA RESULT:      -3.7      4.278      9.294
  Name = 
  22 active torsions:
  status: ('A' for Active; 'I' for Inactive)
    1  A    between atoms: C_1  and  C_8
    2  A    between atoms: C_1  and  C_47
    3  A    between atoms: C_3  and  C_14
    4  A    between atoms: C_3  and  C_56
    5  A    between atoms: C_4  and  N_24
    6  A    between atoms: C_7  and  C_32
    7  A    between atoms: C_9  and  C_32
    8  A    between atoms: C_9  and  C_56
    9  A    between atoms: C_11  and  N_30
   10  A    between atoms: C_11  and  C_56
   11  A    between atoms: N_13  and  C_36
   12  A    between atoms: C_19  and  C_45
   13  A    between atoms: C_19  and  N_55
   14  A    between atoms: C_20  and  O_25
   15  A    between atoms: C_20  and  C_40
   16  A    between atoms: C_22  and  C_23
   17  A    between atoms: C_23  and  O_25
   18  A    between atoms: C_29  and  C_37
   19  A    between atoms: N_30  and  O_35
   20  A    between atoms: O_35  and  C_65
   21  A    between atoms: C_43  and  C_65
   22  A    between atoms: C_58  and  C_65
                            x       y       z     vdW  Elec       q    Type
                         _______ _______ _______ _____ _____    ______ ____

>  <TORSDO>
F 22

$$$$
