=
 OpenBabel11072414163D

 34 36  0  0  1  0  0  0  0  0999 V2000
  161.7450  209.6150  151.8970 C   0  0  2  0  0  3  0  0  0  0  0  0
  162.5900  208.5400  151.3010 C   0  0  0  0  0  2  0  0  0  0  0  0
  161.6910  207.3170  151.3260 C   0  0  1  0  0  0  0  0  0  0  0  0
  162.5290  210.4930  152.6490 O   0  0  0  0  0  1  0  0  0  0  0  0
  160.7430  208.8470  152.7390 C   0  0  1  0  0  3  0  0  0  0  0  0
  160.6290  207.5360  152.2340 O   0  0  0  0  0  0  0  0  0  0  0  0
  162.1170  206.9500  148.9690 O   0  0  0  0  0  1  0  0  0  0  0  0
  161.1010  207.0660  149.9210 C   0  0  1  0  0  3  0  0  0  0  0  0
  160.5410  204.7810  150.9630 C   0  0  2  0  0  3  0  0  0  0  0  0
  162.5170  206.1100  151.8090 C   0  0  0  0  0  2  0  0  0  0  0  0
  160.2150  205.8090  149.8730 C   0  0  0  0  0  2  0  0  0  0  0  0
  162.0390  204.7600  151.2580 C   0  0  0  0  0  2  0  0  0  0  0  0
  161.0610  208.8190  154.2400 C   0  0  2  0  0  3  0  0  0  0  0  0
  161.1570  207.5040  154.7160 O   0  0  0  0  0  1  0  0  0  0  0  0
  158.1510  212.4870  156.9870 O   0  0  0  0  0  1  0  0  0  0  0  0
  160.7010  210.3100  155.9630 O   0  0  0  0  0  0  0  0  0  0  0  0
  160.0670  209.5890  154.9930 N   0  0  0  0  0  0  0  0  0  0  0  0
  159.4170  210.5180  154.0570 C   0  0  0  0  0  2  0  0  0  0  0  0
  158.5090  211.3530  156.2570 C   0  0  1  0  0  3  0  0  0  0  0  0
  159.6480  212.8050  154.7130 O   0  0  0  0  0  1  0  0  0  0  0  0
  158.7850  211.7100  154.7920 C   0  0  1  0  0  3  0  0  0  0  0  0
  159.7130  210.6530  156.9100 C   0  0  0  0  0  2  0  0  0  0  0  0
  160.0620  203.4110  150.5280 C   0  0  0  0  0  2  0  0  0  0  0  0
  161.4730  202.4000  149.9750 S   0  0  0  0  0  0  0  0  0  0  0  0
  160.6900  201.8340  148.4220 C   0  0  1  0  0  3  0  0  0  0  0  0
  160.6720  202.9330  147.3620 C   0  0  0  0  0  2  0  0  0  0  0  0
  161.8980  203.8250  147.4680 C   0  0  0  0  0  2  0  0  0  0  0  0
  162.5430  204.0110  146.1040 C   0  0  0  0  0  2  0  0  0  0  0  0
  162.4420  205.4640  145.6750 C   0  0  0  0  0  2  0  0  0  0  0  0
  160.3800  206.2200  145.4660 C   0  0  0  0  0  1  0  0  0  0  0  0
  161.4110  205.6170  144.7470 O   0  0  0  0  0  0  0  0  0  0  0  0
  161.3740  200.5760  147.9020 C   0  0  0  0  0  2  0  0  0  0  0  0
  161.4310  199.0660  146.0490 O   0  0  0  0  0  1  0  0  0  0  0  0
  161.0890  200.3660  146.4220 C   0  0  0  0  0  2  0  0  0  0  0  0
  1  4  1  1  0  0  0
  1  5  1  0  0  0  0
  2  1  1  0  0  0  0
  3  2  1  6  0  0  0
  3 10  1  0  0  0  0
  3  6  1  0  0  0  0
  5 13  1  1  0  0  0
  6  5  1  0  0  0  0
  8  7  1  6  0  0  0
  8  3  1  0  0  0  0
  9 23  1  6  0  0  0
  9 12  1  0  0  0  0
 11  8  1  0  0  0  0
 11  9  1  0  0  0  0
 12 10  1  0  0  0  0
 13 14  1  1  0  0  0
 13 17  1  0  0  0  0
 16 22  1  0  0  0  0
 17 16  1  0  0  0  0
 18 21  1  0  0  0  0
 18 17  1  0  0  0  0
 19 22  1  0  0  0  0
 19 15  1  1  0  0  0
 21 20  1  1  0  0  0
 21 19  1  0  0  0  0
 24 23  1  0  0  0  0
 25 26  1  6  0  0  0
 25 24  1  0  0  0  0
 26 27  1  0  0  0  0
 28 27  1  0  0  0  0
 29 28  1  0  0  0  0
 31 30  1  0  0  0  0
 31 29  1  0  0  0  0
 32 25  1  0  0  0  0
 33 34  1  0  0  0  0
 34 32  1  0  0  0  0
M  END
>  <MODEL>
1

>  <REMARK>
 VINA RESULT:      -6.2      0.000      0.000
  Name = 
  12 active torsions:
  status: ('A' for Active; 'I' for Inactive)
    1  A    between atoms: C_2  and  C_10
    2  A    between atoms: C_2  and  C_27
    3  A    between atoms: C_4  and  C_13
    4  A    between atoms: C_4  and  N_19
    5  A    between atoms: C_8  and  S_9
    6  A    between atoms: C_8  and  C_24
    7  A    between atoms: S_9  and  C_10
    8  A    between atoms: C_10  and  C_22
    9  A    between atoms: C_15  and  C_22
   10  A    between atoms: C_23  and  O_33
   11  A    between atoms: C_23  and  C_34
   12  A    between atoms: C_27  and  C_34
                            x       y       z     vdW  Elec       q    Type
                         _______ _______ _______ _____ _____    ______ ____

>  <TORSDO>
F 12

$$$$
=
 OpenBabel11072414163D

 34 36  0  0  1  0  0  0  0  0999 V2000
  161.0470  208.1420  155.9250 C   0  0  2  0  0  3  0  0  0  0  0  0
  160.2370  207.6150  154.7880 C   0  0  0  0  0  2  0  0  0  0  0  0
  161.1350  207.8130  153.5810 C   0  0  1  0  0  0  0  0  0  0  0  0
  160.2220  208.7570  156.8690 O   0  0  0  0  0  1  0  0  0  0  0  0
  162.0030  209.1110  155.2530 C   0  0  1  0  0  3  0  0  0  0  0  0
  162.1460  208.7490  153.8990 O   0  0  0  0  0  0  0  0  0  0  0  0
  160.8380  205.4870  152.9720 O   0  0  0  0  0  1  0  0  0  0  0  0
  161.8000  206.4750  153.1910 C   0  0  1  0  0  3  0  0  0  0  0  0
  162.3060  207.7740  151.0290 C   0  0  2  0  0  3  0  0  0  0  0  0
  160.2850  208.3720  152.4240 C   0  0  0  0  0  2  0  0  0  0  0  0
  162.6890  206.6030  151.9420 C   0  0  0  0  0  2  0  0  0  0  0  0
  160.7940  207.9880  151.0280 C   0  0  0  0  0  2  0  0  0  0  0  0
  161.6030  210.5880  155.3770 C   0  0  2  0  0  3  0  0  0  0  0  0
  161.7940  211.0600  156.6830 O   0  0  0  0  0  1  0  0  0  0  0  0
  156.6070  212.3470  154.1890 O   0  0  0  0  0  1  0  0  0  0  0  0
  159.5320  211.4560  155.9030 O   0  0  0  0  0  0  0  0  0  0  0  0
  160.2210  210.7870  154.9330 N   0  0  0  0  0  0  0  0  0  0  0  0
  160.2540  211.6140  153.7180 C   0  0  0  0  0  2  0  0  0  0  0  0
  157.7800  211.5910  154.2040 C   0  0  1  0  0  3  0  0  0  0  0  0
  159.0100  213.6420  153.9420 O   0  0  0  0  0  1  0  0  0  0  0  0
  158.9150  212.3270  153.4820 C   0  0  1  0  0  3  0  0  0  0  0  0
  158.1640  211.2260  155.6480 C   0  0  0  0  0  2  0  0  0  0  0  0
  162.8090  207.5080  149.6250 C   0  0  0  0  0  2  0  0  0  0  0  0
  161.4090  207.1680  148.5100 S   0  0  0  0  0  0  0  0  0  0  0  0
  162.1900  205.7450  147.6680 C   0  0  1  0  0  3  0  0  0  0  0  0
  161.5400  204.4220  148.0690 C   0  0  0  0  0  2  0  0  0  0  0  0
  160.7550  204.5600  149.3640 C   0  0  0  0  0  2  0  0  0  0  0  0
  160.9470  203.3320  150.2380 C   0  0  0  0  0  2  0  0  0  0  0  0
  160.2610  202.1330  149.6080 C   0  0  0  0  0  2  0  0  0  0  0  0
  161.3840  200.7240  148.3340 C   0  0  0  0  0  1  0  0  0  0  0  0
  161.1000  201.0190  149.6670 O   0  0  0  0  0  0  0  0  0  0  0  0
  162.1700  205.9350  146.1570 C   0  0  0  0  0  2  0  0  0  0  0  0
  160.0610  206.2540  145.0770 O   0  0  0  0  0  1  0  0  0  0  0  0
  160.9470  205.2780  145.5360 C   0  0  0  0  0  2  0  0  0  0  0  0
  1  4  1  1  0  0  0
  2  1  1  0  0  0  0
  3 10  1  6  0  0  0
  3  6  1  0  0  0  0
  3  2  1  0  0  0  0
  5 13  1  6  0  0  0
  5  1  1  0  0  0  0
  6  5  1  0  0  0  0
  8  7  1  6  0  0  0
  8  3  1  0  0  0  0
  9 23  1  6  0  0  0
  9 11  1  0  0  0  0
 11  8  1  0  0  0  0
 12  9  1  0  0  0  0
 12 10  1  0  0  0  0
 13 14  1  1  0  0  0
 17 13  1  0  0  0  0
 17 16  1  0  0  0  0
 18 17  1  0  0  0  0
 19 15  1  1  0  0  0
 19 22  1  0  0  0  0
 21 18  1  0  0  0  0
 21 20  1  1  0  0  0
 21 19  1  0  0  0  0
 22 16  1  0  0  0  0
 24 23  1  0  0  0  0
 25 32  1  6  0  0  0
 25 26  1  0  0  0  0
 25 24  1  0  0  0  0
 26 27  1  0  0  0  0
 27 28  1  0  0  0  0
 29 31  1  0  0  0  0
 29 28  1  0  0  0  0
 30 31  1  0  0  0  0
 33 34  1  0  0  0  0
 34 32  1  0  0  0  0
M  END
>  <MODEL>
2

>  <REMARK>
 VINA RESULT:      -5.7      1.955      3.974
  Name = 
  12 active torsions:
  status: ('A' for Active; 'I' for Inactive)
    1  A    between atoms: C_2  and  C_10
    2  A    between atoms: C_2  and  C_27
    3  A    between atoms: C_4  and  C_13
    4  A    between atoms: C_4  and  N_19
    5  A    between atoms: C_8  and  S_9
    6  A    between atoms: C_8  and  C_24
    7  A    between atoms: S_9  and  C_10
    8  A    between atoms: C_10  and  C_22
    9  A    between atoms: C_15  and  C_22
   10  A    between atoms: C_23  and  O_33
   11  A    between atoms: C_23  and  C_34
   12  A    between atoms: C_27  and  C_34
                            x       y       z     vdW  Elec       q    Type
                         _______ _______ _______ _____ _____    ______ ____

>  <TORSDO>
F 12

$$$$
=
 OpenBabel11072414163D

 34 36  0  0  1  0  0  0  0  0999 V2000
  161.1800  206.8220  153.7260 C   0  0  2  0  0  3  0  0  0  0  0  0
  161.5420  207.8240  154.7700 C   0  0  0  0  0  2  0  0  0  0  0  0
  160.7650  209.0640  154.3680 C   0  0  1  0  0  0  0  0  0  0  0  0
  162.2680  205.9940  153.4440 O   0  0  0  0  0  1  0  0  0  0  0  0
  160.7670  207.6810  152.5450 C   0  0  1  0  0  3  0  0  0  0  0  0
  160.3640  208.9460  153.0170 O   0  0  0  0  0  0  0  0  0  0  0  0
  159.8460  209.2190  156.6050 O   0  0  0  0  0  1  0  0  0  0  0  0
  159.5050  209.2080  155.2500 C   0  0  1  0  0  3  0  0  0  0  0  0
  159.5320  211.5840  154.2670 C   0  0  2  0  0  3  0  0  0  0  0  0
  161.6880  210.2880  154.5090 C   0  0  0  0  0  2  0  0  0  0  0  0
  158.6980  210.4750  154.9190 C   0  0  0  0  0  2  0  0  0  0  0  0
  160.9520  211.5970  154.8270 C   0  0  0  0  0  2  0  0  0  0  0  0
  161.8420  207.8300  151.4590 C   0  0  2  0  0  3  0  0  0  0  0  0
  162.3630  209.1310  151.4330 O   0  0  0  0  0  1  0  0  0  0  0  0
  160.8200  205.7840  146.5360 O   0  0  0  0  0  1  0  0  0  0  0  0
  162.3280  207.4270  149.2410 O   0  0  0  0  0  0  0  0  0  0  0  0
  161.3110  207.4410  150.1510 N   0  0  0  0  0  0  0  0  0  0  0  0
  160.7650  206.0810  150.2740 C   0  0  0  0  0  2  0  0  0  0  0  0
  160.6590  206.4060  147.7750 C   0  0  1  0  0  3  0  0  0  0  0  0
  161.7910  204.5300  148.7720 O   0  0  0  0  0  1  0  0  0  0  0  0
  160.6880  205.3770  148.9110 C   0  0  1  0  0  3  0  0  0  0  0  0
  161.7230  207.5000  147.9680 C   0  0  0  0  0  2  0  0  0  0  0  0
  158.8570  212.9230  154.4890 C   0  0  0  0  0  2  0  0  0  0  0  0
  158.8480  213.8850  152.9420 S   0  0  0  0  0  0  0  0  0  0  0  0
  157.0900  214.3790  153.0480 C   0  0  1  0  0  3  0  0  0  0  0  0
  156.4350  214.4460  151.6700 C   0  0  0  0  0  2  0  0  0  0  0  0
  157.3980  214.0100  150.5770 C   0  0  0  0  0  2  0  0  0  0  0  0
  156.6510  213.3030  149.4580 C   0  0  0  0  0  2  0  0  0  0  0  0
  157.4890  213.3020  148.1930 C   0  0  0  0  0  2  0  0  0  0  0  0
  159.4810  213.7040  147.3310 C   0  0  0  0  0  1  0  0  0  0  0  0
  158.8450  213.3470  148.5200 O   0  0  0  0  0  0  0  0  0  0  0  0
  156.3240  213.4470  153.9800 C   0  0  0  0  0  2  0  0  0  0  0  0
  155.2990  213.5340  156.1380 O   0  0  0  0  0  1  0  0  0  0  0  0
  155.4400  214.2310  154.9380 C   0  0  0  0  0  2  0  0  0  0  0  0
  1  4  1  6  0  0  0
  1  2  1  0  0  0  0
  3 10  1  1  0  0  0
  3  2  1  0  0  0  0
  3  8  1  0  0  0  0
  5 13  1  6  0  0  0
  5  6  1  0  0  0  0
  5  1  1  0  0  0  0
  6  3  1  0  0  0  0
  8  7  1  1  0  0  0
  9 23  1  1  0  0  0
  9 12  1  0  0  0  0
  9 11  1  0  0  0  0
 10 12  1  0  0  0  0
 11  8  1  0  0  0  0
 13 14  1  6  0  0  0
 16 17  1  0  0  0  0
 17 18  1  0  0  0  0
 17 13  1  0  0  0  0
 19 15  1  6  0  0  0
 19 22  1  0  0  0  0
 19 21  1  0  0  0  0
 21 20  1  6  0  0  0
 21 18  1  0  0  0  0
 22 16  1  0  0  0  0
 24 25  1  0  0  0  0
 24 23  1  0  0  0  0
 25 26  1  6  0  0  0
 25 32  1  0  0  0  0
 27 26  1  0  0  0  0
 28 27  1  0  0  0  0
 29 31  1  0  0  0  0
 29 28  1  0  0  0  0
 30 31  1  0  0  0  0
 32 34  1  0  0  0  0
 34 33  1  0  0  0  0
M  END
>  <MODEL>
3

>  <REMARK>
 VINA RESULT:      -5.3      3.810      9.454
  Name = 
  12 active torsions:
  status: ('A' for Active; 'I' for Inactive)
    1  A    between atoms: C_2  and  C_10
    2  A    between atoms: C_2  and  C_27
    3  A    between atoms: C_4  and  C_13
    4  A    between atoms: C_4  and  N_19
    5  A    between atoms: C_8  and  S_9
    6  A    between atoms: C_8  and  C_24
    7  A    between atoms: S_9  and  C_10
    8  A    between atoms: C_10  and  C_22
    9  A    between atoms: C_15  and  C_22
   10  A    between atoms: C_23  and  O_33
   11  A    between atoms: C_23  and  C_34
   12  A    between atoms: C_27  and  C_34
                            x       y       z     vdW  Elec       q    Type
                         _______ _______ _______ _____ _____    ______ ____

>  <TORSDO>
F 12

$$$$
=
 OpenBabel11072414163D

 34 36  0  0  1  0  0  0  0  0999 V2000
  160.2940  213.1710  156.3980 C   0  0  2  0  0  3  0  0  0  0  0  0
  160.5160  211.8330  157.0170 C   0  0  0  0  0  2  0  0  0  0  0  0
  160.4640  210.8760  155.8410 C   0  0  1  0  0  0  0  0  0  0  0  0
  159.5610  213.9930  157.2570 O   0  0  0  0  0  1  0  0  0  0  0  0
  159.5520  212.8450  155.1150 C   0  0  1  0  0  3  0  0  0  0  0  0
  159.8390  211.5150  154.7450 O   0  0  0  0  0  0  0  0  0  0  0  0
  162.5900  209.9270  156.5130 O   0  0  0  0  0  1  0  0  0  0  0  0
  161.8950  210.4670  155.4280 C   0  0  1  0  0  3  0  0  0  0  0  0
  160.6130  208.6430  154.1460 C   0  0  2  0  0  3  0  0  0  0  0  0
  159.6270  209.6480  156.2440 C   0  0  0  0  0  2  0  0  0  0  0  0
  161.9050  209.4590  154.2660 C   0  0  0  0  0  2  0  0  0  0  0  0
  160.0250  208.3520  155.5240 C   0  0  0  0  0  2  0  0  0  0  0  0
  158.0350  213.0690  155.1820 C   0  0  2  0  0  3  0  0  0  0  0  0
  157.3570  211.8780  155.4780 O   0  0  0  0  0  1  0  0  0  0  0  0
  155.5840  214.3610  150.5140 O   0  0  0  0  0  1  0  0  0  0  0  0
  157.4120  212.6890  152.9940 O   0  0  0  0  0  0  0  0  0  0  0  0
  157.5460  213.6670  153.9370 N   0  0  0  0  0  0  0  0  0  0  0  0
  156.2240  214.2510  154.2080 C   0  0  0  0  0  2  0  0  0  0  0  0
  156.3220  214.4500  151.6960 C   0  0  1  0  0  3  0  0  0  0  0  0
  154.5060  213.3390  152.8190 O   0  0  0  0  0  1  0  0  0  0  0  0
  155.4010  214.4070  152.9210 C   0  0  1  0  0  3  0  0  0  0  0  0
  157.3900  213.3450  151.7450 C   0  0  0  0  0  2  0  0  0  0  0  0
  160.8960  207.3530  153.4020 C   0  0  0  0  0  2  0  0  0  0  0  0
  161.4680  207.7160  151.7110 S   0  0  0  0  0  0  0  0  0  0  0  0
  161.1140  206.0520  151.0400 C   0  0  1  0  0  3  0  0  0  0  0  0
  161.5320  205.9300  149.5760 C   0  0  0  0  0  2  0  0  0  0  0  0
  160.5910  206.7020  148.6640 C   0  0  0  0  0  2  0  0  0  0  0  0
  160.7150  206.2120  147.2310 C   0  0  0  0  0  2  0  0  0  0  0  0
  162.1530  205.8230  146.9370 C   0  0  0  0  0  2  0  0  0  0  0  0
  161.7810  204.3310  145.3540 C   0  0  0  0  0  1  0  0  0  0  0  0
  162.2300  204.4560  146.6680 O   0  0  0  0  0  0  0  0  0  0  0  0
  161.7730  204.9760  151.8940 C   0  0  0  0  0  2  0  0  0  0  0  0
  160.7440  202.8970  152.4740 O   0  0  0  0  0  1  0  0  0  0  0  0
  161.3700  203.5840  151.4330 C   0  0  0  0  0  2  0  0  0  0  0  0
  1  2  1  0  0  0  0
  1  4  1  1  0  0  0
  3 10  1  1  0  0  0
  3  2  1  0  0  0  0
  5 13  1  1  0  0  0
  5  1  1  0  0  0  0
  6  5  1  0  0  0  0
  6  3  1  0  0  0  0
  8  3  1  0  0  0  0
  8  7  1  1  0  0  0
  9 23  1  1  0  0  0
  9 11  1  0  0  0  0
  9 12  1  0  0  0  0
 11  8  1  0  0  0  0
 12 10  1  0  0  0  0
 13 14  1  6  0  0  0
 16 17  1  0  0  0  0
 17 18  1  0  0  0  0
 17 13  1  0  0  0  0
 19 15  1  6  0  0  0
 19 22  1  0  0  0  0
 19 21  1  0  0  0  0
 21 20  1  6  0  0  0
 21 18  1  0  0  0  0
 22 16  1  0  0  0  0
 24 23  1  0  0  0  0
 25 26  1  6  0  0  0
 25 24  1  0  0  0  0
 25 32  1  0  0  0  0
 27 26  1  0  0  0  0
 28 27  1  0  0  0  0
 29 28  1  0  0  0  0
 30 31  1  0  0  0  0
 31 29  1  0  0  0  0
 34 32  1  0  0  0  0
 34 33  1  0  0  0  0
M  END
>  <MODEL>
4

>  <REMARK>
 VINA RESULT:      -5.2      2.899      5.482
  Name = 
  12 active torsions:
  status: ('A' for Active; 'I' for Inactive)
    1  A    between atoms: C_2  and  C_10
    2  A    between atoms: C_2  and  C_27
    3  A    between atoms: C_4  and  C_13
    4  A    between atoms: C_4  and  N_19
    5  A    between atoms: C_8  and  S_9
    6  A    between atoms: C_8  and  C_24
    7  A    between atoms: S_9  and  C_10
    8  A    between atoms: C_10  and  C_22
    9  A    between atoms: C_15  and  C_22
   10  A    between atoms: C_23  and  O_33
   11  A    between atoms: C_23  and  C_34
   12  A    between atoms: C_27  and  C_34
                            x       y       z     vdW  Elec       q    Type
                         _______ _______ _______ _____ _____    ______ ____

>  <TORSDO>
F 12

$$$$
=
 OpenBabel11072414163D

 34 36  0  0  1  0  0  0  0  0999 V2000
  161.2110  206.3540  153.2500 C   0  0  2  0  0  3  0  0  0  0  0  0
  161.6290  206.7280  154.6320 C   0  0  0  0  0  2  0  0  0  0  0  0
  160.9720  208.0780  154.8570 C   0  0  1  0  0  0  0  0  0  0  0  0
  162.2320  205.6560  152.6020 O   0  0  0  0  0  1  0  0  0  0  0  0
  160.9050  207.6920  152.6020 C   0  0  1  0  0  3  0  0  0  0  0  0
  160.5990  208.6300  153.6090 O   0  0  0  0  0  0  0  0  0  0  0  0
  160.0100  207.2690  156.9290 O   0  0  0  0  0  1  0  0  0  0  0  0
  159.7060  207.9120  155.7260 C   0  0  1  0  0  3  0  0  0  0  0  0
  159.9630  210.4620  155.9440 C   0  0  2  0  0  3  0  0  0  0  0  0
  161.9930  209.0140  155.5300 C   0  0  0  0  0  2  0  0  0  0  0  0
  159.0200  209.2560  156.0270 C   0  0  0  0  0  2  0  0  0  0  0  0
  161.3640  210.0890  156.4260 C   0  0  0  0  0  2  0  0  0  0  0  0
  162.0190  208.2270  151.6900 C   0  0  2  0  0  3  0  0  0  0  0  0
  162.2650  209.5860  151.9300 O   0  0  0  0  0  1  0  0  0  0  0  0
  161.3620  206.3580  146.6360 O   0  0  0  0  0  1  0  0  0  0  0  0
  162.7720  207.4210  149.6650 O   0  0  0  0  0  0  0  0  0  0  0  0
  161.6930  207.9840  150.2830 N   0  0  0  0  0  0  0  0  0  0  0  0
  160.5710  207.0340  150.2390 C   0  0  0  0  0  2  0  0  0  0  0  0
  161.2180  207.1110  147.8030 C   0  0  1  0  0  3  0  0  0  0  0  0
  161.0900  205.0420  149.0250 O   0  0  0  0  0  1  0  0  0  0  0  0
  160.5020  206.3020  148.8910 C   0  0  1  0  0  3  0  0  0  0  0  0
  162.5860  207.6250  148.2810 C   0  0  0  0  0  2  0  0  0  0  0  0
  159.4000  211.6030  156.7670 C   0  0  0  0  0  2  0  0  0  0  0  0
  159.4730  213.1560  155.8180 S   0  0  0  0  0  0  0  0  0  0  0  0
  157.6730  213.4770  155.8590 C   0  0  1  0  0  3  0  0  0  0  0  0
  157.1920  214.1780  154.5900 C   0  0  0  0  0  2  0  0  0  0  0  0
  158.3450  214.4500  153.6360 C   0  0  0  0  0  2  0  0  0  0  0  0
  158.1600  213.6770  152.3410 C   0  0  0  0  0  2  0  0  0  0  0  0
  159.5120  213.3460  151.7350 C   0  0  0  0  0  2  0  0  0  0  0  0
  159.0740  211.3110  152.4660 C   0  0  0  0  0  1  0  0  0  0  0  0
  160.0860  212.2680  152.4120 O   0  0  0  0  0  0  0  0  0  0  0  0
  156.9010  212.1850  156.1020 C   0  0  0  0  0  2  0  0  0  0  0  0
  155.5180  210.5240  155.0820 O   0  0  0  0  0  1  0  0  0  0  0  0
  156.1880  211.7240  154.8410 C   0  0  0  0  0  2  0  0  0  0  0  0
  1  4  1  6  0  0  0
  1  2  1  0  0  0  0
  3  2  1  6  0  0  0
  3 10  1  0  0  0  0
  3  8  1  0  0  0  0
  5 13  1  1  0  0  0
  5  1  1  0  0  0  0
  5  6  1  0  0  0  0
  6  3  1  0  0  0  0
  8 11  1  0  0  0  0
  8  7  1  1  0  0  0
  9 11  1  0  0  0  0
  9 12  1  0  0  0  0
  9 23  1  1  0  0  0
 10 12  1  0  0  0  0
 13 14  1  6  0  0  0
 16 17  1  0  0  0  0
 17 13  1  0  0  0  0
 18 17  1  0  0  0  0
 19 15  1  6  0  0  0
 19 22  1  0  0  0  0
 19 21  1  0  0  0  0
 21 20  1  1  0  0  0
 21 18  1  0  0  0  0
 22 16  1  0  0  0  0
 24 25  1  0  0  0  0
 24 23  1  0  0  0  0
 25 26  1  6  0  0  0
 25 32  1  0  0  0  0
 27 26  1  0  0  0  0
 28 27  1  0  0  0  0
 29 28  1  0  0  0  0
 29 31  1  0  0  0  0
 31 30  1  0  0  0  0
 34 33  1  0  0  0  0
 34 32  1  0  0  0  0
M  END
>  <MODEL>
5

>  <REMARK>
 VINA RESULT:      -5.2      3.688      9.305
  Name = 
  12 active torsions:
  status: ('A' for Active; 'I' for Inactive)
    1  A    between atoms: C_2  and  C_10
    2  A    between atoms: C_2  and  C_27
    3  A    between atoms: C_4  and  C_13
    4  A    between atoms: C_4  and  N_19
    5  A    between atoms: C_8  and  S_9
    6  A    between atoms: C_8  and  C_24
    7  A    between atoms: S_9  and  C_10
    8  A    between atoms: C_10  and  C_22
    9  A    between atoms: C_15  and  C_22
   10  A    between atoms: C_23  and  O_33
   11  A    between atoms: C_23  and  C_34
   12  A    between atoms: C_27  and  C_34
                            x       y       z     vdW  Elec       q    Type
                         _______ _______ _______ _____ _____    ______ ____

>  <TORSDO>
F 12

$$$$
=
 OpenBabel11072414163D

 34 36  0  0  1  0  0  0  0  0999 V2000
  161.3350  205.6190  151.2280 C   0  0  2  0  0  3  0  0  0  0  0  0
  162.0270  206.4890  152.2220 C   0  0  0  0  0  2  0  0  0  0  0  0
  161.4820  207.8750  151.9330 C   0  0  1  0  0  0  0  0  0  0  0  0
  162.1820  204.5950  150.8000 O   0  0  0  0  0  1  0  0  0  0  0  0
  160.9650  206.5840  150.1160 C   0  0  1  0  0  3  0  0  0  0  0  0
  160.8980  207.8890  150.6450 O   0  0  0  0  0  0  0  0  0  0  0  0
  160.9070  208.1410  154.2720 O   0  0  0  0  0  1  0  0  0  0  0  0
  160.4030  208.2460  152.9730 C   0  0  1  0  0  3  0  0  0  0  0  0
  160.8010  210.5980  152.0100 C   0  0  2  0  0  3  0  0  0  0  0  0
  162.6520  208.8770  151.9600 C   0  0  0  0  0  2  0  0  0  0  0  0
  159.8430  209.6630  152.7590 C   0  0  0  0  0  2  0  0  0  0  0  0
  162.2510  210.2980  152.3800 C   0  0  0  0  0  2  0  0  0  0  0  0
  161.9010  206.5440  148.9000 C   0  0  2  0  0  3  0  0  0  0  0  0
  162.3370  207.8300  148.5510 O   0  0  0  0  0  1  0  0  0  0  0  0
  160.4150  204.3760  144.1510 O   0  0  0  0  0  1  0  0  0  0  0  0
  161.4380  206.6200  146.6420 O   0  0  0  0  0  0  0  0  0  0  0  0
  161.2510  205.8760  147.7710 N   0  0  0  0  0  0  0  0  0  0  0  0
  161.8980  204.5680  147.5900 C   0  0  0  0  0  2  0  0  0  0  0  0
  160.4730  204.6790  145.5120 C   0  0  1  0  0  3  0  0  0  0  0  0
  162.8470  204.2950  145.4130 O   0  0  0  0  0  1  0  0  0  0  0  0
  161.6990  204.0300  146.1650 C   0  0  1  0  0  3  0  0  0  0  0  0
  160.4520  206.2020  145.7230 C   0  0  0  0  0  2  0  0  0  0  0  0
  160.4540  212.0390  152.3280 C   0  0  0  0  0  2  0  0  0  0  0  0
  159.3880  212.1170  153.8030 S   0  0  0  0  0  0  0  0  0  0  0  0
  158.0290  213.0350  152.9940 C   0  0  1  0  0  3  0  0  0  0  0  0
  157.7630  214.3750  153.6790 C   0  0  0  0  0  2  0  0  0  0  0  0
  157.0950  214.1830  155.0310 C   0  0  0  0  0  2  0  0  0  0  0  0
  155.9220  213.2230  154.9160 C   0  0  0  0  0  2  0  0  0  0  0  0
  155.9720  212.2050  156.0410 C   0  0  0  0  0  2  0  0  0  0  0  0
  155.3460  210.3560  155.0120 C   0  0  0  0  0  1  0  0  0  0  0  0
  156.4610  210.9890  155.5610 O   0  0  0  0  0  0  0  0  0  0  0  0
  158.3130  213.2200  151.5090 C   0  0  0  0  0  2  0  0  0  0  0  0
  156.7060  213.3840  149.7460 O   0  0  0  0  0  1  0  0  0  0  0  0
  157.2370  214.0640  150.8430 C   0  0  0  0  0  2  0  0  0  0  0  0
  1  4  1  6  0  0  0
  1  2  1  0  0  0  0
  3 10  1  1  0  0  0
  3  2  1  0  0  0  0
  3  8  1  0  0  0  0
  5 13  1  6  0  0  0
  5  6  1  0  0  0  0
  5  1  1  0  0  0  0
  6  3  1  0  0  0  0
  8  7  1  1  0  0  0
  9 23  1  1  0  0  0
  9 12  1  0  0  0  0
  9 11  1  0  0  0  0
 10 12  1  0  0  0  0
 11  8  1  0  0  0  0
 13 14  1  6  0  0  0
 16 17  1  0  0  0  0
 17 13  1  0  0  0  0
 18 17  1  0  0  0  0
 19 15  1  6  0  0  0
 19 22  1  0  0  0  0
 19 21  1  0  0  0  0
 21 20  1  6  0  0  0
 21 18  1  0  0  0  0
 22 16  1  0  0  0  0
 23 24  1  0  0  0  0
 25 32  1  6  0  0  0
 25 26  1  0  0  0  0
 25 24  1  0  0  0  0
 26 27  1  0  0  0  0
 28 27  1  0  0  0  0
 28 29  1  0  0  0  0
 30 31  1  0  0  0  0
 31 29  1  0  0  0  0
 33 34  1  0  0  0  0
 34 32  1  0  0  0  0
M  END
>  <MODEL>
6

>  <REMARK>
 VINA RESULT:      -4.9      3.244     10.087
  Name = 
  12 active torsions:
  status: ('A' for Active; 'I' for Inactive)
    1  A    between atoms: C_2  and  C_10
    2  A    between atoms: C_2  and  C_27
    3  A    between atoms: C_4  and  C_13
    4  A    between atoms: C_4  and  N_19
    5  A    between atoms: C_8  and  S_9
    6  A    between atoms: C_8  and  C_24
    7  A    between atoms: S_9  and  C_10
    8  A    between atoms: C_10  and  C_22
    9  A    between atoms: C_15  and  C_22
   10  A    between atoms: C_23  and  O_33
   11  A    between atoms: C_23  and  C_34
   12  A    between atoms: C_27  and  C_34
                            x       y       z     vdW  Elec       q    Type
                         _______ _______ _______ _____ _____    ______ ____

>  <TORSDO>
F 12

$$$$
=
 OpenBabel11072414163D

 34 36  0  0  1  0  0  0  0  0999 V2000
  161.1520  206.7660  152.6250 C   0  0  2  0  0  3  0  0  0  0  0  0
  161.5500  207.6730  153.7390 C   0  0  0  0  0  2  0  0  0  0  0  0
  160.8720  208.9870  153.3990 C   0  0  1  0  0  0  0  0  0  0  0  0
  162.1890  205.8840  152.3160 O   0  0  0  0  0  1  0  0  0  0  0  0
  160.8330  207.7240  151.4910 C   0  0  1  0  0  3  0  0  0  0  0  0
  160.5030  208.9830  152.0340 O   0  0  0  0  0  0  0  0  0  0  0  0
  159.9010  209.0650  155.6180 O   0  0  0  0  0  1  0  0  0  0  0  0
  159.6000  209.1630  154.2570 C   0  0  1  0  0  3  0  0  0  0  0  0
  159.8170  211.5890  153.4300 C   0  0  2  0  0  3  0  0  0  0  0  0
  161.8720  210.1320  153.6420 C   0  0  0  0  0  2  0  0  0  0  0  0
  158.8910  210.5020  153.9890 C   0  0  0  0  0  2  0  0  0  0  0  0
  161.2180  211.4670  154.0250 C   0  0  0  0  0  2  0  0  0  0  0  0
  161.9480  207.8650  150.4440 C   0  0  2  0  0  3  0  0  0  0  0  0
  161.8040  209.0470  149.7040 O   0  0  0  0  0  1  0  0  0  0  0  0
  161.1240  203.9180  146.8100 O   0  0  0  0  0  1  0  0  0  0  0  0
  160.7310  206.1640  149.4730 O   0  0  0  0  0  0  0  0  0  0  0  0
  161.9870  206.6890  149.5720 N   0  0  0  0  0  0  0  0  0  0  0  0
  162.4230  207.1330  148.2400 C   0  0  0  0  0  2  0  0  0  0  0  0
  161.7340  204.7580  147.7430 C   0  0  1  0  0  3  0  0  0  0  0  0
  160.8320  206.6300  146.5280 O   0  0  0  0  0  1  0  0  0  0  0  0
  161.9890  206.1470  147.1450 C   0  0  1  0  0  3  0  0  0  0  0  0
  160.8910  204.8350  149.0270 C   0  0  0  0  0  2  0  0  0  0  0  0
  159.2290  212.9550  153.7210 C   0  0  0  0  0  2  0  0  0  0  0  0
  157.5230  213.0500  153.0900 S   0  0  0  0  0  0  0  0  0  0  0  0
  157.9590  213.8780  151.5180 C   0  0  1  0  0  3  0  0  0  0  0  0
  158.8040  212.9780  150.6180 C   0  0  0  0  0  2  0  0  0  0  0  0
  160.0880  213.6700  150.1900 C   0  0  0  0  0  2  0  0  0  0  0  0
  160.3220  213.4880  148.6990 C   0  0  0  0  0  2  0  0  0  0  0  0
  161.6080  212.7160  148.4650 C   0  0  0  0  0  2  0  0  0  0  0  0
  161.0050  213.6150  146.5420 C   0  0  0  0  0  1  0  0  0  0  0  0
  161.9640  212.7820  147.1170 O   0  0  0  0  0  0  0  0  0  0  0  0
  156.7070  214.3610  150.7970 C   0  0  0  0  0  2  0  0  0  0  0  0
  156.8450  214.4530  148.4120 O   0  0  0  0  0  1  0  0  0  0  0  0
  156.5090  213.6220  149.4820 C   0  0  0  0  0  2  0  0  0  0  0  0
  1  4  1  6  0  0  0
  1  2  1  0  0  0  0
  3 10  1  1  0  0  0
  3  2  1  0  0  0  0
  3  8  1  0  0  0  0
  5 13  1  6  0  0  0
  5  6  1  0  0  0  0
  5  1  1  0  0  0  0
  6  3  1  0  0  0  0
  8  7  1  1  0  0  0
  9 23  1  1  0  0  0
  9 11  1  0  0  0  0
  9 12  1  0  0  0  0
 10 12  1  0  0  0  0
 11  8  1  0  0  0  0
 13 14  1  6  0  0  0
 16 17  1  0  0  0  0
 17 13  1  0  0  0  0
 18 17  1  0  0  0  0
 19 15  1  6  0  0  0
 19 22  1  0  0  0  0
 21 20  1  1  0  0  0
 21 19  1  0  0  0  0
 21 18  1  0  0  0  0
 22 16  1  0  0  0  0
 24 23  1  0  0  0  0
 25 26  1  6  0  0  0
 25 24  1  0  0  0  0
 27 26  1  0  0  0  0
 28 27  1  0  0  0  0
 29 28  1  0  0  0  0
 30 31  1  0  0  0  0
 31 29  1  0  0  0  0
 32 25  1  0  0  0  0
 33 34  1  0  0  0  0
 34 32  1  0  0  0  0
M  END
>  <MODEL>
7

>  <REMARK>
 VINA RESULT:      -4.8      3.990      8.916
  Name = 
  12 active torsions:
  status: ('A' for Active; 'I' for Inactive)
    1  A    between atoms: C_2  and  C_10
    2  A    between atoms: C_2  and  C_27
    3  A    between atoms: C_4  and  C_13
    4  A    between atoms: C_4  and  N_19
    5  A    between atoms: C_8  and  S_9
    6  A    between atoms: C_8  and  C_24
    7  A    between atoms: S_9  and  C_10
    8  A    between atoms: C_10  and  C_22
    9  A    between atoms: C_15  and  C_22
   10  A    between atoms: C_23  and  O_33
   11  A    between atoms: C_23  and  C_34
   12  A    between atoms: C_27  and  C_34
                            x       y       z     vdW  Elec       q    Type
                         _______ _______ _______ _____ _____    ______ ____

>  <TORSDO>
F 12

$$$$
=
 OpenBabel11072414163D

 34 36  0  0  1  0  0  0  0  0999 V2000
  161.3110  205.5500  151.1270 C   0  0  2  0  0  3  0  0  0  0  0  0
  162.0050  206.3950  152.1400 C   0  0  0  0  0  2  0  0  0  0  0  0
  161.4630  207.7890  151.8830 C   0  0  1  0  0  0  0  0  0  0  0  0
  162.1560  204.5340  150.6760 O   0  0  0  0  0  1  0  0  0  0  0  0
  160.9430  206.5410  150.0370 C   0  0  1  0  0  3  0  0  0  0  0  0
  160.8790  207.8330  150.5960 O   0  0  0  0  0  0  0  0  0  0  0  0
  160.8880  208.0030  154.2270 O   0  0  0  0  0  1  0  0  0  0  0  0
  160.3840  208.1390  152.9310 C   0  0  1  0  0  3  0  0  0  0  0  0
  160.7880  210.5110  152.0220 C   0  0  2  0  0  3  0  0  0  0  0  0
  162.6350  208.7880  151.9330 C   0  0  0  0  0  2  0  0  0  0  0  0
  159.8280  209.5620  152.7490 C   0  0  0  0  0  2  0  0  0  0  0  0
  162.2380  210.1990  152.3860 C   0  0  0  0  0  2  0  0  0  0  0  0
  161.8800  206.5260  148.8210 C   0  0  2  0  0  3  0  0  0  0  0  0
  162.3180  207.8190  148.5000 O   0  0  0  0  0  1  0  0  0  0  0  0
  160.4210  204.4060  144.0420 O   0  0  0  0  0  1  0  0  0  0  0  0
  161.4840  206.6120  146.5510 O   0  0  0  0  0  0  0  0  0  0  0  0
  161.2290  205.8840  147.6770 N   0  0  0  0  0  0  0  0  0  0  0  0
  161.8160  204.5450  147.5200 C   0  0  0  0  0  2  0  0  0  0  0  0
  160.4570  204.7130  145.4030 C   0  0  1  0  0  3  0  0  0  0  0  0
  162.8110  204.2140  145.3720 O   0  0  0  0  0  1  0  0  0  0  0  0
  161.6310  204.0100  146.0920 C   0  0  1  0  0  3  0  0  0  0  0  0
  160.5040  206.2370  145.6070 C   0  0  0  0  0  2  0  0  0  0  0  0
  160.4440  211.9450  152.3720 C   0  0  0  0  0  2  0  0  0  0  0  0
  158.6490  212.2150  152.2180 S   0  0  0  0  0  0  0  0  0  0  0  0
  158.3330  212.3450  154.0150 C   0  0  1  0  0  3  0  0  0  0  0  0
  159.3360  213.2680  154.7030 C   0  0  0  0  0  2  0  0  0  0  0  0
  159.8670  212.6500  155.9870 C   0  0  0  0  0  2  0  0  0  0  0  0
  159.7780  211.1340  155.9280 C   0  0  0  0  0  2  0  0  0  0  0  0
  160.5790  210.5220  157.0630 C   0  0  0  0  0  2  0  0  0  0  0  0
  162.3090  209.1660  157.2590 C   0  0  0  0  0  1  0  0  0  0  0  0
  161.9120  210.3690  156.6770 O   0  0  0  0  0  0  0  0  0  0  0  0
  156.9000  212.7920  154.2780 C   0  0  0  0  0  2  0  0  0  0  0  0
  155.7010  211.1680  155.5590 O   0  0  0  0  0  1  0  0  0  0  0  0
  156.4310  212.3530  155.6570 C   0  0  0  0  0  2  0  0  0  0  0  0
  1  4  1  6  0  0  0
  1  2  1  0  0  0  0
  3 10  1  1  0  0  0
  3  2  1  0  0  0  0
  3  8  1  0  0  0  0
  5 13  1  6  0  0  0
  5  6  1  0  0  0  0
  5  1  1  0  0  0  0
  6  3  1  0  0  0  0
  8  7  1  1  0  0  0
  9 23  1  1  0  0  0
  9 12  1  0  0  0  0
  9 11  1  0  0  0  0
 10 12  1  0  0  0  0
 11  8  1  0  0  0  0
 13 14  1  6  0  0  0
 16 17  1  0  0  0  0
 17 13  1  0  0  0  0
 18 17  1  0  0  0  0
 19 15  1  6  0  0  0
 19 22  1  0  0  0  0
 19 21  1  0  0  0  0
 21 20  1  6  0  0  0
 21 18  1  0  0  0  0
 22 16  1  0  0  0  0
 24 23  1  0  0  0  0
 24 25  1  0  0  0  0
 25 32  1  6  0  0  0
 25 26  1  0  0  0  0
 26 27  1  0  0  0  0
 28 27  1  0  0  0  0
 28 29  1  0  0  0  0
 31 29  1  0  0  0  0
 31 30  1  0  0  0  0
 32 34  1  0  0  0  0
 33 34  1  0  0  0  0
M  END
>  <MODEL>
8

>  <REMARK>
 VINA RESULT:      -4.8      3.073     10.032
  Name = 
  12 active torsions:
  status: ('A' for Active; 'I' for Inactive)
    1  A    between atoms: C_2  and  C_10
    2  A    between atoms: C_2  and  C_27
    3  A    between atoms: C_4  and  C_13
    4  A    between atoms: C_4  and  N_19
    5  A    between atoms: C_8  and  S_9
    6  A    between atoms: C_8  and  C_24
    7  A    between atoms: S_9  and  C_10
    8  A    between atoms: C_10  and  C_22
    9  A    between atoms: C_15  and  C_22
   10  A    between atoms: C_23  and  O_33
   11  A    between atoms: C_23  and  C_34
   12  A    between atoms: C_27  and  C_34
                            x       y       z     vdW  Elec       q    Type
                         _______ _______ _______ _____ _____    ______ ____

>  <TORSDO>
F 12

$$$$
=
 OpenBabel11072414163D

 34 36  0  0  1  0  0  0  0  0999 V2000
  160.1060  212.2880  154.3740 C   0  0  2  0  0  3  0  0  0  0  0  0
  161.3250  211.4540  154.5800 C   0  0  0  0  0  2  0  0  0  0  0  0
  160.9080  210.0750  154.1030 C   0  0  1  0  0  0  0  0  0  0  0  0
  159.9940  213.2480  155.3810 O   0  0  0  0  0  1  0  0  0  0  0  0
  158.9790  211.2710  154.3980 C   0  0  1  0  0  3  0  0  0  0  0  0
  159.4960  210.0060  154.0540 O   0  0  0  0  0  0  0  0  0  0  0  0
  162.8550  209.9790  152.6630 O   0  0  0  0  0  1  0  0  0  0  0  0
  161.4670  209.8140  152.6870 C   0  0  1  0  0  3  0  0  0  0  0  0
  160.8300  207.3930  153.2780 C   0  0  2  0  0  3  0  0  0  0  0  0
  161.4240  209.0300  155.1100 C   0  0  0  0  0  2  0  0  0  0  0  0
  161.1140  208.4100  152.1660 C   0  0  0  0  0  2  0  0  0  0  0  0
  161.7170  207.6560  154.4930 C   0  0  0  0  0  2  0  0  0  0  0  0
  158.2160  211.1980  155.7280 C   0  0  2  0  0  3  0  0  0  0  0  0
  157.5990  209.9500  155.8930 O   0  0  0  0  0  1  0  0  0  0  0  0
  153.8580  214.4230  156.0020 O   0  0  0  0  0  1  0  0  0  0  0  0
  156.2280  212.0650  154.9450 O   0  0  0  0  0  0  0  0  0  0  0  0
  157.2450  212.2900  155.8260 N   0  0  0  0  0  0  0  0  0  0  0  0
  156.7010  212.2860  157.1920 C   0  0  0  0  0  2  0  0  0  0  0  0
  155.1710  213.9540  156.0810 C   0  0  1  0  0  3  0  0  0  0  0  0
  154.3260  212.0230  157.2430 O   0  0  0  0  0  1  0  0  0  0  0  0
  155.3370  212.9880  157.2600 C   0  0  1  0  0  3  0  0  0  0  0  0
  155.5900  213.3090  154.7500 C   0  0  0  0  0  2  0  0  0  0  0  0
  161.0500  205.9900  152.7490 C   0  0  0  0  0  2  0  0  0  0  0  0
  161.9400  206.0500  151.1600 S   0  0  0  0  0  0  0  0  0  0  0  0
  160.6300  205.2210  150.1890 C   0  0  1  0  0  3  0  0  0  0  0  0
  160.0370  206.1470  149.1290 C   0  0  0  0  0  2  0  0  0  0  0  0
  161.1220  206.7480  148.2490 C   0  0  0  0  0  2  0  0  0  0  0  0
  160.8610  206.4270  146.7860 C   0  0  0  0  0  2  0  0  0  0  0  0
  162.0870  205.7790  146.1690 C   0  0  0  0  0  2  0  0  0  0  0  0
  161.4140  203.7890  145.4940 C   0  0  0  0  0  1  0  0  0  0  0  0
  162.1310  204.4260  146.5060 O   0  0  0  0  0  0  0  0  0  0  0  0
  161.1540  203.9330  149.5670 C   0  0  0  0  0  2  0  0  0  0  0  0
  161.2430  201.5620  149.8630 O   0  0  0  0  0  1  0  0  0  0  0  0
  160.5430  202.7110  150.2350 C   0  0  0  0  0  2  0  0  0  0  0  0
  1  5  1  0  0  0  0
  1  2  1  0  0  0  0
  1  4  1  1  0  0  0
  3  2  1  1  0  0  0
  3 10  1  0  0  0  0
  5 13  1  1  0  0  0
  6  3  1  0  0  0  0
  6  5  1  0  0  0  0
  8  7  1  1  0  0  0
  8  3  1  0  0  0  0
  9 23  1  6  0  0  0
  9 12  1  0  0  0  0
 11  8  1  0  0  0  0
 11  9  1  0  0  0  0
 12 10  1  0  0  0  0
 13 17  1  0  0  0  0
 13 14  1  6  0  0  0
 16 17  1  0  0  0  0
 17 18  1  0  0  0  0
 18 21  1  0  0  0  0
 19 15  1  6  0  0  0
 19 21  1  0  0  0  0
 21 20  1  6  0  0  0
 22 16  1  0  0  0  0
 22 19  1  0  0  0  0
 24 23  1  0  0  0  0
 25 26  1  6  0  0  0
 25 24  1  0  0  0  0
 27 26  1  0  0  0  0
 28 27  1  0  0  0  0
 29 31  1  0  0  0  0
 29 28  1  0  0  0  0
 30 31  1  0  0  0  0
 32 25  1  0  0  0  0
 32 34  1  0  0  0  0
 33 34  1  0  0  0  0
M  END
>  <MODEL>
9

>  <REMARK>
 VINA RESULT:      -4.8      2.409      4.072
  Name = 
  12 active torsions:
  status: ('A' for Active; 'I' for Inactive)
    1  A    between atoms: C_2  and  C_10
    2  A    between atoms: C_2  and  C_27
    3  A    between atoms: C_4  and  C_13
    4  A    between atoms: C_4  and  N_19
    5  A    between atoms: C_8  and  S_9
    6  A    between atoms: C_8  and  C_24
    7  A    between atoms: S_9  and  C_10
    8  A    between atoms: C_10  and  C_22
    9  A    between atoms: C_15  and  C_22
   10  A    between atoms: C_23  and  O_33
   11  A    between atoms: C_23  and  C_34
   12  A    between atoms: C_27  and  C_34
                            x       y       z     vdW  Elec       q    Type
                         _______ _______ _______ _____ _____    ______ ____

>  <TORSDO>
F 12

$$$$
