=
 OpenBabel11072410003D

 54 60  0  0  1  0  0  0  0  0999 V2000
  161.6190  211.1940  151.1700 C   0  0  2  0  0  3  0  0  0  0  0  0
  160.9110  206.0990  152.8200 C   0  0  2  0  0  3  0  0  0  0  0  0
  160.2490  210.8700  151.6130 N   0  0  2  0  0  0  0  0  0  0  0  0
  160.9100  203.0100  149.9970 C   0  0  0  0  0  2  0  0  0  0  0  0
  162.8740  207.9360  149.6720 N   0  0  0  0  0  2  0  0  0  0  0  0
  161.9310  209.8900  148.5980 C   0  0  0  0  0  3  0  0  0  0  0  0
  161.6620  212.1090  147.1330 Cl  0  0  0  0  0  0  0  0  0  0  0  0
  159.3230  211.9170  151.2240 C   0  0  0  0  0  2  0  0  0  0  0  0
  163.3680  205.8880  148.6840 O   0  0  0  0  0  0  0  0  0  0  0  0
  160.8190  205.6790  147.3370 C   0  0  1  0  0  3  0  0  0  0  0  0
  161.6360  211.8990  149.8810 N   0  0  0  0  0  2  0  0  0  0  0  0
  160.2380  210.9350  153.0780 C   0  0  1  0  0  3  0  0  0  0  0  0
  160.5450  207.2050  153.6190 O   0  0  0  0  0  0  0  0  0  0  0  0
  161.2030  203.5370  148.5960 C   0  0  2  0  0  3  0  0  0  0  0  0
  162.4940  204.0750  151.3720 C   0  0  0  0  0  2  0  0  0  0  0  0
  161.2760  206.7960  148.1570 N   0  0  0  0  0  2  0  0  0  0  0  0
  159.0750  211.5910  153.5210 O   0  0  0  0  0  0  0  0  0  0  0  0
  162.4620  209.9140  151.0510 C   0  0  0  0  0  2  0  0  0  0  0  0
  161.9870  209.0710  149.8590 C   0  0  2  0  0  3  0  0  0  0  0  0
  159.8700  204.9840  152.9110 C   0  0  0  0  0  2  0  0  0  0  0  0
  160.4130  208.4570  153.0250 C   0  0  0  0  0  3  0  0  0  0  0  0
  162.8640  205.4250  151.9900 C   0  0  0  0  0  2  0  0  0  0  0  0
  158.7170  212.4570  152.4860 C   0  0  1  0  0  3  0  0  0  0  0  0
  160.3070  203.7270  152.1530 C   0  0  0  0  0  2  0  0  0  0  0  0
  161.0880  204.0740  150.9740 N   0  0  2  0  0  0  0  0  0  0  0  0
  160.3490  209.5790  153.7440 C   0  0  0  0  0  0  0  0  0  0  0  0
  161.7230  211.2060  148.6300 C   0  0  0  0  0  0  0  0  0  0  0  0
  162.5420  206.8290  148.8260 C   0  0  0  0  0  0  0  0  0  0  0  0
  162.1760  205.6330  153.1930 O   0  0  0  0  0  0  0  0  0  0  0  0
  160.1850  204.6100  148.2170 C   0  0  0  0  0  2  0  0  0  0  0  0
  160.8270  201.4630  145.4150 C   0  0  0  0  0  3  0  0  0  0  0  0
  160.8410  202.5580  146.2840 C   0  0  0  0  0  3  0  0  0  0  0  0
  161.1810  199.1350  145.0360 F   0  0  0  0  0  0  0  0  0  0  0  0
  161.1990  200.1980  145.8760 C   0  0  0  0  0  0  0  0  0  0  0  0
  161.5960  200.0290  147.2050 C   0  0  0  0  0  3  0  0  0  0  0  0
  161.2420  202.3980  147.6150 C   0  0  0  0  0  0  0  0  0  0  0  0
  161.6150  201.1250  148.0710 C   0  0  0  0  0  3  0  0  0  0  0  0
  160.4490  209.5030  155.2100 C   0  0  0  0  0  3  0  0  0  0  0  0
  161.4990  209.8540  155.8110 O   0  0  0  0  0  0  0  0  0  0  0  0
  159.8050  206.1740  146.3070 C   0  0  0  0  0  2  0  0  0  0  0  0
  160.1400  205.6730  144.9080 C   0  0  2  0  0  3  0  0  0  0  0  0
  161.5270  205.0610  144.9120 C   0  0  0  0  0  2  0  0  0  0  0  0
  161.3140  206.4540  144.3500 C   0  0  1  0  0  3  0  0  0  0  0  0
  161.2140  207.8000  142.2460 C   0  0  0  0  0  2  0  0  0  0  0  0
  162.4320  207.0300  140.2590 N   0  0  0  0  0  2  0  0  0  0  0  0
  162.4340  205.6530  140.7620 C   0  0  0  0  0  2  0  0  0  0  0  0
  162.4810  205.6470  142.2900 C   0  0  0  0  0  2  0  0  0  0  0  0
  161.2640  206.3930  142.8350 C   0  0  0  0  0  3  0  0  0  0  0  0
  161.2130  207.6960  140.7210 C   0  0  0  0  0  2  0  0  0  0  0  0
  159.2520  213.8580  152.7550 C   0  0  0  0  0  2  0  0  0  0  0  0
  159.0100  214.2830  154.1980 C   0  0  0  0  0  2  0  0  0  0  0  0
  157.5630  214.2020  154.5550 C   0  0  0  0  0  0  0  0  0  0  0  0
  157.2210  213.9450  155.7380 O   0  0  0  0  0  1  0  0  0  0  0  0
  156.5880  214.4530  153.5920 O   0  0  0  0  0  0  0  0  0  0  0  0
  1 18  1  6  0  0  0
  1  3  1  0  0  0  0
  2 20  1  1  0  0  0
  2 29  1  0  0  0  0
  2 13  1  0  0  0  0
  3  8  1  6  0  0  0
  3 12  1  0  0  0  0
  5 19  1  0  0  0  0
  6 27  2  0  0  0  0
  7 27  1  0  0  0  0
  8 23  1  0  0  0  0
  9 28  2  0  0  0  0
 10 40  1  6  0  0  0
 10 16  1  0  0  0  0
 10 30  1  0  0  0  0
 11  1  1  0  0  0  0
 12 17  1  6  0  0  0
 12 26  1  0  0  0  0
 14 36  1  6  0  0  0
 14  4  1  0  0  0  0
 15 22  1  0  0  0  0
 16 28  1  0  0  0  0
 19  6  1  6  0  0  0
 19 18  1  0  0  0  0
 21 13  1  0  0  0  0
 21 26  2  0  0  0  0
 22 29  1  0  0  0  0
 23 50  1  1  0  0  0
 23 17  1  0  0  0  0
 24 20  1  0  0  0  0
 25  4  1  6  0  0  0
 25 15  1  0  0  0  0
 25 24  1  0  0  0  0
 26 38  1  0  0  0  0
 27 11  1  0  0  0  0
 28  5  1  0  0  0  0
 30 14  1  0  0  0  0
 31 34  2  0  0  0  0
 31 32  1  0  0  0  0
 32 36  2  0  0  0  0
 33 34  1  0  0  0  0
 34 35  1  0  0  0  0
 35 37  2  0  0  0  0
 36 37  1  0  0  0  0
 38 39  2  0  0  0  0
 41 42  1  0  0  0  0
 41 40  1  1  0  0  0
 43 48  1  6  0  0  0
 43 41  1  0  0  0  0
 43 42  1  0  0  0  0
 44 48  1  0  0  0  0
 45 49  1  0  0  0  0
 45 46  1  0  0  0  0
 46 47  1  0  0  0  0
 47 48  1  0  0  0  0
 49 44  1  0  0  0  0
 50 51  1  0  0  0  0
 51 52  1  0  0  0  0
 52 53  1  0  0  0  0
 54 52  2  0  0  0  0
M  END
>  <MODEL>
1

>  <REMARK>
 VINA RESULT:       5.9      0.000      0.000
  Name = 
  8 active torsions:
  status: ('A' for Active; 'I' for Inactive)
    1  A    between atoms: C_14  and  C_32
    2  A    between atoms: C_17  and  C_24
    3  A    between atoms: C_18  and  C_46
    4  A    between atoms: C_22  and  C_45
    5  A    between atoms: C_24  and  C_26
    6  A    between atoms: C_27  and  C_48
    7  A    between atoms: C_32  and  C_39
    8  A    between atoms: C_39  and  C_40
                            x       y       z     vdW  Elec       q    Type
                         _______ _______ _______ _____ _____    ______ ____

>  <TORSDO>
F 8

$$$$
=
 OpenBabel11072410003D

 54 60  0  0  1  0  0  0  0  0999 V2000
  161.3050  211.4830  151.7240 C   0  0  2  0  0  3  0  0  0  0  0  0
  161.0380  206.3920  153.5090 C   0  0  2  0  0  3  0  0  0  0  0  0
  159.9900  211.0830  152.2630 N   0  0  2  0  0  0  0  0  0  0  0  0
  161.0540  203.2470  150.7490 C   0  0  0  0  0  2  0  0  0  0  0  0
  162.6700  208.2790  150.2060 N   0  0  0  0  0  2  0  0  0  0  0  0
  161.5330  210.1450  149.1610 C   0  0  0  0  0  3  0  0  0  0  0  0
  161.0260  212.3090  147.6780 Cl  0  0  0  0  0  0  0  0  0  0  0  0
  158.9750  212.0600  151.9180 C   0  0  0  0  0  2  0  0  0  0  0  0
  163.2290  206.2450  149.2240 O   0  0  0  0  0  0  0  0  0  0  0  0
  160.6170  205.8450  148.0530 C   0  0  1  0  0  3  0  0  0  0  0  0
  161.1930  212.1590  150.4250 N   0  0  0  0  0  2  0  0  0  0  0  0
  160.0710  211.1790  153.7240 C   0  0  1  0  0  3  0  0  0  0  0  0
  160.6540  207.4890  154.3110 O   0  0  0  0  0  0  0  0  0  0  0  0
  161.2210  203.7600  149.3230 C   0  0  2  0  0  3  0  0  0  0  0  0
  162.6510  204.4410  151.9960 C   0  0  0  0  0  2  0  0  0  0  0  0
  161.0540  207.0060  148.8210 N   0  0  0  0  0  2  0  0  0  0  0  0
  158.8990  211.7700  154.2320 O   0  0  0  0  0  0  0  0  0  0  0  0
  162.2200  210.2570  151.5730 C   0  0  0  0  0  2  0  0  0  0  0  0
  161.7250  209.3590  150.4300 C   0  0  2  0  0  3  0  0  0  0  0  0
  160.0800  205.2150  153.6890 C   0  0  0  0  0  2  0  0  0  0  0  0
  160.4020  208.7170  153.7050 C   0  0  0  0  0  3  0  0  0  0  0  0
  162.9720  205.8240  152.5640 C   0  0  0  0  0  2  0  0  0  0  0  0
  158.4180  212.5880  153.2070 C   0  0  1  0  0  3  0  0  0  0  0  0
  160.5480  203.9720  152.9270 C   0  0  0  0  0  2  0  0  0  0  0  0
  161.2260  204.3410  151.6930 N   0  0  2  0  0  0  0  0  0  0  0  0
  160.3130  209.8480  154.4060 C   0  0  0  0  0  0  0  0  0  0  0  0
  161.2430  211.4450  149.1830 C   0  0  0  0  0  0  0  0  0  0  0  0
  162.3550  207.1350  149.4040 C   0  0  0  0  0  0  0  0  0  0  0  0
  162.3520  206.0160  153.8060 O   0  0  0  0  0  0  0  0  0  0  0  0
  160.1130  204.7570  148.9930 C   0  0  0  0  0  2  0  0  0  0  0  0
  161.0010  201.6630  146.1410 C   0  0  0  0  0  3  0  0  0  0  0  0
  161.0120  202.7690  146.9960 C   0  0  0  0  0  3  0  0  0  0  0  0
  161.2170  199.3100  145.8220 F   0  0  0  0  0  0  0  0  0  0  0  0
  161.2320  200.3830  146.6500 C   0  0  0  0  0  0  0  0  0  0  0  0
  161.4870  200.2090  148.0120 C   0  0  0  0  0  3  0  0  0  0  0  0
  161.2700  202.6040  148.3620 C   0  0  0  0  0  0  0  0  0  0  0  0
  161.5030  201.3160  148.8650 C   0  0  0  0  0  3  0  0  0  0  0  0
  160.5120  209.8110  155.8630 C   0  0  0  0  0  3  0  0  0  0  0  0
  161.1990  210.6890  156.4500 O   0  0  0  0  0  0  0  0  0  0  0  0
  159.5090  206.2510  147.0840 C   0  0  0  0  0  2  0  0  0  0  0  0
  159.9940  206.2300  145.6400 C   0  0  2  0  0  3  0  0  0  0  0  0
  159.2680  205.1360  144.8820 C   0  0  0  0  0  2  0  0  0  0  0  0
  160.6930  204.9160  145.3520 C   0  0  1  0  0  3  0  0  0  0  0  0
  160.9010  205.5990  142.9570 C   0  0  0  0  0  2  0  0  0  0  0  0
  162.8770  206.8570  142.2250 N   0  0  0  0  0  2  0  0  0  0  0  0
  163.6510  206.3540  143.3640 C   0  0  0  0  0  2  0  0  0  0  0  0
  162.7360  206.1280  144.5680 C   0  0  0  0  0  2  0  0  0  0  0  0
  161.6520  205.1170  144.1940 C   0  0  0  0  0  3  0  0  0  0  0  0
  161.9060  205.8350  141.8300 C   0  0  0  0  0  2  0  0  0  0  0  0
  158.8780  214.0260  153.4150 C   0  0  0  0  0  2  0  0  0  0  0  0
  158.7490  214.4510  154.8720 C   0  0  0  0  0  2  0  0  0  0  0  0
  157.3700  214.2080  155.3900 C   0  0  0  0  0  0  0  0  0  0  0  0
  157.2030  213.8200  156.5750 O   0  0  0  0  0  1  0  0  0  0  0  0
  156.2630  214.4530  154.5800 O   0  0  0  0  0  0  0  0  0  0  0  0
  1 18  1  6  0  0  0
  1  3  1  0  0  0  0
  2 20  1  1  0  0  0
  2 29  1  0  0  0  0
  2 13  1  0  0  0  0
  3  8  1  6  0  0  0
  3 12  1  0  0  0  0
  5 19  1  0  0  0  0
  6 27  2  0  0  0  0
  7 27  1  0  0  0  0
  8 23  1  0  0  0  0
  9 28  2  0  0  0  0
 10 40  1  6  0  0  0
 10 16  1  0  0  0  0
 10 30  1  0  0  0  0
 11  1  1  0  0  0  0
 12 17  1  1  0  0  0
 12 26  1  0  0  0  0
 14 36  1  6  0  0  0
 14  4  1  0  0  0  0
 15 22  1  0  0  0  0
 16 28  1  0  0  0  0
 19  6  1  6  0  0  0
 19 18  1  0  0  0  0
 21 13  1  0  0  0  0
 21 26  2  0  0  0  0
 22 29  1  0  0  0  0
 23 50  1  1  0  0  0
 23 17  1  0  0  0  0
 24 20  1  0  0  0  0
 25  4  1  6  0  0  0
 25 15  1  0  0  0  0
 25 24  1  0  0  0  0
 26 38  1  0  0  0  0
 27 11  1  0  0  0  0
 28  5  1  0  0  0  0
 30 14  1  0  0  0  0
 31 34  2  0  0  0  0
 31 32  1  0  0  0  0
 32 36  2  0  0  0  0
 33 34  1  0  0  0  0
 34 35  1  0  0  0  0
 35 37  2  0  0  0  0
 36 37  1  0  0  0  0
 38 39  2  0  0  0  0
 41 40  1  1  0  0  0
 42 43  1  0  0  0  0
 42 41  1  0  0  0  0
 43 48  1  6  0  0  0
 43 41  1  0  0  0  0
 44 48  1  0  0  0  0
 45 46  1  0  0  0  0
 46 47  1  0  0  0  0
 48 47  1  0  0  0  0
 49 45  1  0  0  0  0
 49 44  1  0  0  0  0
 50 51  1  0  0  0  0
 51 52  1  0  0  0  0
 52 53  1  0  0  0  0
 54 52  2  0  0  0  0
M  END
>  <MODEL>
2

>  <REMARK>
 VINA RESULT:       7.4      0.932      1.136
  Name = 
  8 active torsions:
  status: ('A' for Active; 'I' for Inactive)
    1  A    between atoms: C_14  and  C_32
    2  A    between atoms: C_17  and  C_24
    3  A    between atoms: C_18  and  C_46
    4  A    between atoms: C_22  and  C_45
    5  A    between atoms: C_24  and  C_26
    6  A    between atoms: C_27  and  C_48
    7  A    between atoms: C_32  and  C_39
    8  A    between atoms: C_39  and  C_40
                            x       y       z     vdW  Elec       q    Type
                         _______ _______ _______ _____ _____    ______ ____

>  <TORSDO>
F 8

$$$$
=
 OpenBabel11072410003D

 54 60  0  0  1  0  0  0  0  0999 V2000
  160.9350  213.9680  144.4290 C   0  0  2  0  0  3  0  0  0  0  0  0
  157.5260  213.2140  148.5500 C   0  0  2  0  0  3  0  0  0  0  0  0
  159.9320  212.9060  144.2180 N   0  0  2  0  0  0  0  0  0  0  0  0
  158.9230  211.4300  152.0680 C   0  0  0  0  0  2  0  0  0  0  0  0
  161.5990  213.8490  148.1680 N   0  0  0  0  0  2  0  0  0  0  0  0
  162.8340  212.8730  146.3280 C   0  0  0  0  0  3  0  0  0  0  0  0
  164.7490  212.3610  144.5350 Cl  0  0  0  0  0  0  0  0  0  0  0  0
  160.2750  212.0970  143.0630 C   0  0  0  0  0  2  0  0  0  0  0  0
  161.9460  213.4940  150.4400 O   0  0  0  0  0  0  0  0  0  0  0  0
  162.0880  210.6180  150.1900 C   0  0  1  0  0  3  0  0  0  0  0  0
  162.2930  213.5280  144.0810 N   0  0  0  0  0  2  0  0  0  0  0  0
  158.6830  213.5610  143.8130 C   0  0  1  0  0  3  0  0  0  0  0  0
  157.0720  213.4370  147.2320 O   0  0  0  0  0  0  0  0  0  0  0  0
  160.4200  211.1530  151.9940 C   0  0  2  0  0  3  0  0  0  0  0  0
  158.6850  213.6160  151.2320 C   0  0  0  0  0  2  0  0  0  0  0  0
  161.9270  211.5760  149.1010 N   0  0  0  0  0  2  0  0  0  0  0  0
  158.0870  212.8480  142.7560 O   0  0  0  0  0  0  0  0  0  0  0  0
  160.9200  214.4380  145.8920 C   0  0  0  0  0  2  0  0  0  0  0  0
  161.4890  213.3460  146.8090 C   0  0  2  0  0  3  0  0  0  0  0  0
  156.6830  212.1510  149.2520 C   0  0  0  0  0  2  0  0  0  0  0  0
  157.9580  213.2690  146.1710 C   0  0  0  0  0  3  0  0  0  0  0  0
  158.7440  214.4460  149.9490 C   0  0  0  0  0  2  0  0  0  0  0  0
  159.1410  212.2180  142.0890 C   0  0  1  0  0  3  0  0  0  0  0  0
  157.0770  211.9830  150.7230 C   0  0  0  0  0  2  0  0  0  0  0  0
  158.5040  212.2030  150.9090 N   0  0  2  0  0  0  0  0  0  0  0  0
  157.6910  213.7240  144.9460 C   0  0  0  0  0  0  0  0  0  0  0  0
  163.1730  212.9280  145.0410 C   0  0  0  0  0  0  0  0  0  0  0  0
  161.8320  212.9910  149.2900 C   0  0  0  0  0  0  0  0  0  0  0  0
  157.5180  214.4140  149.2710 O   0  0  0  0  0  0  0  0  0  0  0  0
  160.7300  210.2720  150.7860 C   0  0  0  0  0  2  0  0  0  0  0  0
  160.4810  209.5550  155.4600 C   0  0  0  0  0  3  0  0  0  0  0  0
  160.0070  210.0420  154.2380 C   0  0  0  0  0  3  0  0  0  0  0  0
  162.3070  209.1260  156.9330 F   0  0  0  0  0  0  0  0  0  0  0  0
  161.8470  209.5940  155.7460 C   0  0  0  0  0  0  0  0  0  0  0  0
  162.7440  210.1090  154.8070 C   0  0  0  0  0  3  0  0  0  0  0  0
  160.8990  210.5560  153.2890 C   0  0  0  0  0  0  0  0  0  0  0  0
  162.2700  210.5900  153.5840 C   0  0  0  0  0  3  0  0  0  0  0  0
  156.4360  214.4530  144.7050 C   0  0  0  0  0  3  0  0  0  0  0  0
  155.4520  213.8910  144.1550 O   0  0  0  0  0  0  0  0  0  0  0  0
  162.7670  209.3520  149.6700 C   0  0  0  0  0  2  0  0  0  0  0  0
  162.5710  208.1800  150.6240 C   0  0  2  0  0  3  0  0  0  0  0  0
  163.1940  206.9350  150.0240 C   0  0  0  0  0  2  0  0  0  0  0  0
  161.6900  207.1320  149.9730 C   0  0  1  0  0  3  0  0  0  0  0  0
  161.3520  204.8270  150.8800 C   0  0  0  0  0  2  0  0  0  0  0  0
  161.2410  204.4880  153.3090 N   0  0  0  0  0  2  0  0  0  0  0  0
  160.8570  205.8880  153.5130 C   0  0  0  0  0  2  0  0  0  0  0  0
  161.4940  206.7740  152.4410 C   0  0  0  0  0  2  0  0  0  0  0  0
  161.0290  206.3070  151.0620 C   0  0  0  0  0  3  0  0  0  0  0  0
  160.7090  204.0390  152.0220 C   0  0  0  0  0  2  0  0  0  0  0  0
  159.5800  213.0470  140.8890 C   0  0  0  0  0  2  0  0  0  0  0  0
  159.2250  212.3640  139.5750 C   0  0  0  0  0  2  0  0  0  0  0  0
  160.2630  212.6150  138.5310 C   0  0  0  0  0  0  0  0  0  0  0  0
  160.9960  213.6350  138.6070 O   0  0  0  0  0  1  0  0  0  0  0  0
  160.4530  211.7010  137.4970 O   0  0  0  0  0  0  0  0  0  0  0  0
  1 18  1  1  0  0  0
  2 20  1  1  0  0  0
  2 29  1  0  0  0  0
  3  8  1  6  0  0  0
  3  1  1  0  0  0  0
  5 28  1  0  0  0  0
  6 19  1  0  0  0  0
  7 27  1  0  0  0  0
 10 40  1  6  0  0  0
 10 30  1  0  0  0  0
 11  1  1  0  0  0  0
 11 27  1  0  0  0  0
 12 17  1  6  0  0  0
 12  3  1  0  0  0  0
 12 26  1  0  0  0  0
 13  2  1  0  0  0  0
 14  4  1  0  0  0  0
 14 36  1  1  0  0  0
 16 28  1  0  0  0  0
 16 10  1  0  0  0  0
 19 18  1  6  0  0  0
 19  5  1  0  0  0  0
 20 24  1  0  0  0  0
 21 13  1  0  0  0  0
 22 15  1  0  0  0  0
 23 50  1  6  0  0  0
 23 17  1  0  0  0  0
 23  8  1  0  0  0  0
 25 24  1  1  0  0  0
 25 15  1  0  0  0  0
 25  4  1  0  0  0  0
 26 21  2  0  0  0  0
 27  6  2  0  0  0  0
 28  9  2  0  0  0  0
 29 22  1  0  0  0  0
 30 14  1  0  0  0  0
 31 34  1  0  0  0  0
 32 31  2  0  0  0  0
 34 33  1  0  0  0  0
 35 34  2  0  0  0  0
 36 37  2  0  0  0  0
 36 32  1  0  0  0  0
 37 35  1  0  0  0  0
 38 26  1  0  0  0  0
 39 38  2  0  0  0  0
 41 40  1  6  0  0  0
 42 41  1  0  0  0  0
 43 42  1  0  0  0  0
 43 41  1  0  0  0  0
 43 48  1  1  0  0  0
 44 48  1  0  0  0  0
 44 49  1  0  0  0  0
 45 46  1  0  0  0  0
 47 46  1  0  0  0  0
 48 47  1  0  0  0  0
 49 45  1  0  0  0  0
 51 50  1  0  0  0  0
 52 53  1  0  0  0  0
 52 51  1  0  0  0  0
 54 52  2  0  0  0  0
M  END
>  <MODEL>
3

>  <REMARK>
 VINA RESULT:       7.8      5.109     10.077
  Name = 
  8 active torsions:
  status: ('A' for Active; 'I' for Inactive)
    1  A    between atoms: C_14  and  C_32
    2  A    between atoms: C_17  and  C_24
    3  A    between atoms: C_18  and  C_46
    4  A    between atoms: C_22  and  C_45
    5  A    between atoms: C_24  and  C_26
    6  A    between atoms: C_27  and  C_48
    7  A    between atoms: C_32  and  C_39
    8  A    between atoms: C_39  and  C_40
                            x       y       z     vdW  Elec       q    Type
                         _______ _______ _______ _____ _____    ______ ____

>  <TORSDO>
F 8

$$$$
