=
 OpenBabel11072413313D

 36 39  0  0  1  0  0  0  0  0999 V2000
  160.8600  202.4330  151.1020 C   0  0  0  0  0  3  0  0  0  0  0  0
  160.6890  207.0070  151.1740 C   0  0  1  0  0  3  0  0  0  0  0  0
  161.8460  205.2770  153.1150 N   0  0  0  0  0  2  0  0  0  0  0  0
  160.6510  206.5630  148.9660 C   0  0  1  0  0  3  0  0  0  0  0  0
  160.8480  205.5550  150.9810 C   0  0  0  0  0  0  0  0  0  0  0  0
  160.7800  203.9510  149.0730 C   0  0  0  0  0  3  0  0  0  0  0  0
  161.6760  207.5220  152.1950 C   0  0  0  0  0  0  0  0  0  0  0  0
  161.2740  204.7010  152.0950 C   0  0  0  0  0  0  0  0  0  0  0  0
  161.0740  203.2510  152.1340 C   0  0  0  0  0  2  0  0  0  0  0  0
  160.7650  205.2770  149.7110 C   0  0  0  0  0  0  0  0  0  0  0  0
  162.1250  206.6930  153.1520 C   0  0  0  0  0  3  0  0  0  0  0  0
  160.8040  202.7560  149.6660 C   0  0  0  0  0  3  0  0  0  0  0  0
  160.8270  207.6070  149.9080 O   0  0  0  0  0  0  0  0  0  0  0  0
  161.9510  208.9270  152.2850 N   0  0  0  0  0  0  0  0  0  0  0  0
  161.5330  209.6940  153.4270 C   0  0  0  0  0  0  0  0  0  0  0  0
  161.8830  210.9010  153.5310 O   0  0  0  0  0  0  0  0  0  0  0  0
  160.6360  209.0940  154.4730 C   0  0  1  0  0  3  0  0  0  0  0  0
  161.4000  208.6050  155.5370 O   0  0  0  0  0  1  0  0  0  0  0  0
  159.0000  210.7320  153.9040 F   0  0  0  0  0  0  0  0  0  0  0  0
  158.6250  209.4240  155.6920 F   0  0  0  0  0  0  0  0  0  0  0  0
  159.5970  210.0940  154.9760 C   0  0  0  0  0  0  0  0  0  0  0  0
  160.1930  211.0370  155.7930 F   0  0  0  0  0  0  0  0  0  0  0  0
  162.6540  209.5520  151.2430 N   0  0  0  0  0  2  0  0  0  0  0  0
  161.7480  210.4840  150.5920 C   0  0  0  0  0  2  0  0  0  0  0  0
  162.0570  212.0740  148.7260 C   0  0  0  0  0  1  0  0  0  0  0  0
  162.1220  210.6170  149.1320 C   0  0  0  0  0  2  0  0  0  0  0  0
  161.7290  206.6800  147.8970 C   0  0  0  0  0  2  0  0  0  0  0  0
  161.1240  206.8540  146.5850 N   0  0  0  0  0  2  0  0  0  0  0  0
  162.7800  205.0730  146.4350 C   0  0  0  0  0  2  0  0  0  0  0  0
  161.7700  205.9150  145.6820 C   0  0  1  0  0  3  0  0  0  0  0  0
  162.7770  203.7150  145.7590 C   0  0  0  0  0  2  0  0  0  0  0  0
  160.7520  204.9380  145.1430 C   0  0  0  0  0  2  0  0  0  0  0  0
  161.5030  203.6370  144.9340 C   0  0  2  0  0  3  0  0  0  0  0  0
  159.6400  202.1730  144.6950 O   0  0  0  0  0  0  0  0  0  0  0  0
  160.6710  202.4720  145.3530 C   0  0  0  0  0  0  0  0  0  0  0  0
  161.0380  201.6970  146.4470 O   0  0  0  0  0  1  0  0  0  0  0  0
  1  9  1  0  0  0  0
  2 13  1  6  0  0  0
  2  7  1  0  0  0  0
  3 11  1  0  0  0  0
  4 27  1  6  0  0  0
  4 10  1  0  0  0  0
  4 13  1  0  0  0  0
  5  2  1  0  0  0  0
  5  8  2  0  0  0  0
  6 12  1  0  0  0  0
  6 10  2  0  0  0  0
  7 14  1  0  0  0  0
  7 11  2  0  0  0  0
  8  9  1  0  0  0  0
  8  3  1  0  0  0  0
 10  5  1  0  0  0  0
 12  1  2  0  0  0  0
 14 15  1  0  0  0  0
 15 16  2  0  0  0  0
 15 17  1  0  0  0  0
 17 21  1  0  0  0  0
 17 18  1  1  0  0  0
 19 21  1  0  0  0  0
 21 20  1  0  0  0  0
 21 22  1  0  0  0  0
 23 14  1  0  0  0  0
 24 23  1  0  0  0  0
 25 26  1  0  0  0  0
 26 24  1  0  0  0  0
 28 27  1  0  0  0  0
 30 29  1  0  0  0  0
 30 28  1  1  0  0  0
 31 29  1  0  0  0  0
 32 30  1  0  0  0  0
 33 32  1  0  0  0  0
 33 35  1  1  0  0  0
 33 31  1  0  0  0  0
 34 35  2  0  0  0  0
 35 36  1  0  0  0  0
M  END
>  <MODEL>
1

>  <REMARK>
 VINA RESULT:      -8.2      0.000      0.000
  Name = 
  10 active torsions:
  status: ('A' for Active; 'I' for Inactive)
    1  A    between atoms: N_1  and  C_6
    2  A    between atoms: N_1  and  C_24
    3  A    between atoms: N_7  and  C_17
    4  A    between atoms: N_7  and  N_36
    5  A    between atoms: C_10  and  C_24
    6  A    between atoms: C_12  and  C_16
    7  A    between atoms: C_12  and  C_20
    8  A    between atoms: C_13  and  C_28
    9  A    between atoms: C_13  and  N_36
   10  A    between atoms: C_25  and  C_35
                            x       y       z     vdW  Elec       q    Type
                         _______ _______ _______ _____ _____    ______ ____

>  <TORSDO>
F 10

$$$$
=
 OpenBabel11072413313D

 36 39  0  0  1  0  0  0  0  0999 V2000
  160.4690  213.9920  149.3490 C   0  0  0  0  0  3  0  0  0  0  0  0
  161.6550  210.3470  151.8510 C   0  0  1  0  0  3  0  0  0  0  0  0
  159.4810  212.1270  152.2920 N   0  0  0  0  0  2  0  0  0  0  0  0
  162.4260  209.7940  149.8070 C   0  0  1  0  0  3  0  0  0  0  0  0
  161.2510  211.3910  150.8940 C   0  0  0  0  0  0  0  0  0  0  0  0
  161.6630  211.9250  148.4940 C   0  0  0  0  0  3  0  0  0  0  0  0
  160.5040  209.9690  152.7520 C   0  0  0  0  0  0  0  0  0  0  0  0
  160.2470  212.3920  151.2720 C   0  0  0  0  0  0  0  0  0  0  0  0
  160.0750  213.6740  150.5830 C   0  0  0  0  0  2  0  0  0  0  0  0
  161.7420  211.1160  149.7200 C   0  0  0  0  0  0  0  0  0  0  0  0
  159.5460  210.8760  153.0090 C   0  0  0  0  0  3  0  0  0  0  0  0
  161.1400  213.1440  148.3490 C   0  0  0  0  0  3  0  0  0  0  0  0
  162.1530  209.2680  151.0940 O   0  0  0  0  0  0  0  0  0  0  0  0
  160.5500  208.7510  153.5060 N   0  0  0  0  0  0  0  0  0  0  0  0
  160.5450  208.7660  154.9440 C   0  0  0  0  0  0  0  0  0  0  0  0
  160.4750  207.6800  155.5810 O   0  0  0  0  0  0  0  0  0  0  0  0
  160.6810  210.0570  155.7020 C   0  0  1  0  0  3  0  0  0  0  0  0
  159.8940  210.0210  156.8560 O   0  0  0  0  0  1  0  0  0  0  0  0
  162.8390  210.6960  154.9130 F   0  0  0  0  0  0  0  0  0  0  0  0
  162.1810  211.4250  156.9340 F   0  0  0  0  0  0  0  0  0  0  0  0
  162.1360  210.3610  156.0550 C   0  0  0  0  0  0  0  0  0  0  0  0
  162.7260  209.2600  156.6480 F   0  0  0  0  0  0  0  0  0  0  0  0
  160.5820  207.5260  152.8210 N   0  0  0  0  0  2  0  0  0  0  0  0
  161.6600  206.7300  153.3870 C   0  0  0  0  0  2  0  0  0  0  0  0
  161.2410  204.4710  152.4750 C   0  0  0  0  0  1  0  0  0  0  0  0
  162.1160  205.7020  152.3740 C   0  0  0  0  0  2  0  0  0  0  0  0
  161.8940  208.8260  148.7590 C   0  0  0  0  0  2  0  0  0  0  0  0
  161.2920  207.6670  149.4020 N   0  0  0  0  0  2  0  0  0  0  0  0
  161.0040  205.2840  148.9840 C   0  0  0  0  0  2  0  0  0  0  0  0
  161.9180  206.4830  148.8350 C   0  0  1  0  0  3  0  0  0  0  0  0
  161.2610  204.4090  147.7720 C   0  0  0  0  0  2  0  0  0  0  0  0
  162.1060  206.6640  147.3480 C   0  0  0  0  0  2  0  0  0  0  0  0
  161.9690  205.2790  146.7460 C   0  0  2  0  0  3  0  0  0  0  0  0
  161.4790  204.5370  144.5360 O   0  0  0  0  0  0  0  0  0  0  0  0
  161.1950  205.3300  145.4710 C   0  0  0  0  0  0  0  0  0  0  0  0
  160.1440  206.2270  145.3170 O   0  0  0  0  0  1  0  0  0  0  0  0
  1  9  1  0  0  0  0
  2  5  1  6  0  0  0
  2  7  1  0  0  0  0
  3 11  1  0  0  0  0
  4 27  1  6  0  0  0
  4 13  1  0  0  0  0
  5  8  2  0  0  0  0
  6 10  2  0  0  0  0
  7 11  2  0  0  0  0
  7 14  1  0  0  0  0
  8  3  1  0  0  0  0
  9  8  1  0  0  0  0
 10  4  1  0  0  0  0
 10  5  1  0  0  0  0
 12  6  1  0  0  0  0
 12  1  2  0  0  0  0
 13  2  1  0  0  0  0
 14 15  1  0  0  0  0
 15 16  2  0  0  0  0
 15 17  1  0  0  0  0
 17 21  1  0  0  0  0
 17 18  1  1  0  0  0
 19 21  1  0  0  0  0
 21 22  1  0  0  0  0
 21 20  1  0  0  0  0
 23 24  1  0  0  0  0
 23 14  1  0  0  0  0
 26 25  1  0  0  0  0
 26 24  1  0  0  0  0
 27 28  1  0  0  0  0
 30 29  1  0  0  0  0
 30 28  1  6  0  0  0
 31 29  1  0  0  0  0
 32 30  1  0  0  0  0
 33 35  1  6  0  0  0
 33 32  1  0  0  0  0
 33 31  1  0  0  0  0
 34 35  2  0  0  0  0
 36 35  1  0  0  0  0
M  END
>  <MODEL>
2

>  <REMARK>
 VINA RESULT:      -7.3      2.091      5.251
  Name = 
  10 active torsions:
  status: ('A' for Active; 'I' for Inactive)
    1  A    between atoms: N_1  and  C_6
    2  A    between atoms: N_1  and  C_24
    3  A    between atoms: N_7  and  C_17
    4  A    between atoms: N_7  and  N_36
    5  A    between atoms: C_10  and  C_24
    6  A    between atoms: C_12  and  C_16
    7  A    between atoms: C_12  and  C_20
    8  A    between atoms: C_13  and  C_28
    9  A    between atoms: C_13  and  N_36
   10  A    between atoms: C_25  and  C_35
                            x       y       z     vdW  Elec       q    Type
                         _______ _______ _______ _____ _____    ______ ____

>  <TORSDO>
F 10

$$$$
=
 OpenBabel11072413313D

 36 39  0  0  1  0  0  0  0  0999 V2000
  162.3400  211.0370  149.7430 C   0  0  0  0  0  3  0  0  0  0  0  0
  160.6600  206.7830  149.5840 C   0  0  1  0  0  3  0  0  0  0  0  0
  162.2440  208.1030  147.6240 N   0  0  0  0  0  2  0  0  0  0  0  0
  160.8610  207.1330  151.8000 C   0  0  1  0  0  3  0  0  0  0  0  0
  161.2980  208.0920  149.8000 C   0  0  0  0  0  0  0  0  0  0  0  0
  161.8450  209.5580  151.7410 C   0  0  0  0  0  3  0  0  0  0  0  0
  161.3760  206.0080  148.5040 C   0  0  0  0  0  0  0  0  0  0  0  0
  161.9380  208.7980  148.6830 C   0  0  0  0  0  0  0  0  0  0  0  0
  162.2280  210.2340  148.6850 C   0  0  0  0  0  3  0  0  0  0  0  0
  161.3650  208.3360  151.0770 C   0  0  0  0  0  0  0  0  0  0  0  0
  162.0350  206.6770  147.5420 C   0  0  0  0  0  3  0  0  0  0  0  0
  162.2390  210.6990  151.1730 C   0  0  0  0  0  2  0  0  0  0  0  0
  160.6420  206.1250  150.8290 O   0  0  0  0  0  0  0  0  0  0  0  0
  161.1660  204.5960  148.3710 N   0  0  0  0  0  0  0  0  0  0  0  0
  161.5660  203.8940  147.1810 C   0  0  0  0  0  0  0  0  0  0  0  0
  161.4690  202.6370  147.1340 O   0  0  0  0  0  0  0  0  0  0  0  0
  162.0430  204.6420  145.9680 C   0  0  1  0  0  3  0  0  0  0  0  0
  163.2190  204.0650  145.4820 O   0  0  0  0  0  1  0  0  0  0  0  0
  159.9580  205.5460  145.2470 F   0  0  0  0  0  0  0  0  0  0  0  0
  161.5460  205.1620  143.7050 F   0  0  0  0  0  0  0  0  0  0  0  0
  160.9790  204.6920  144.8730 C   0  0  0  0  0  0  0  0  0  0  0  0
  160.4600  203.4310  144.6490 F   0  0  0  0  0  0  0  0  0  0  0  0
  160.5740  203.8920  149.4320 N   0  0  0  0  0  2  0  0  0  0  0  0
  161.6310  203.5100  150.3550 C   0  0  0  0  0  2  0  0  0  0  0  0
  160.7750  201.2040  150.1160 C   0  0  0  0  0  1  0  0  0  0  0  0
  161.2220  202.2600  151.1040 C   0  0  0  0  0  2  0  0  0  0  0  0
  161.8830  206.6270  152.8100 C   0  0  0  0  0  2  0  0  0  0  0  0
  161.2110  206.1230  153.9980 N   0  0  0  0  0  2  0  0  0  0  0  0
  160.0490  206.9090  155.9910 C   0  0  0  0  0  2  0  0  0  0  0  0
  160.4390  207.2190  154.5590 C   0  0  1  0  0  3  0  0  0  0  0  0
  160.0290  208.2400  156.7160 C   0  0  0  0  0  2  0  0  0  0  0  0
  161.2940  208.4620  154.6360 C   0  0  0  0  0  2  0  0  0  0  0  0
  160.8040  209.2230  155.8530 C   0  0  2  0  0  3  0  0  0  0  0  0
  162.7180  209.0460  157.2610 O   0  0  0  0  0  1  0  0  0  0  0  0
  161.9500  209.8030  156.6100 C   0  0  0  0  0  0  0  0  0  0  0  0
  162.1960  211.1720  156.5830 O   0  0  0  0  0  0  0  0  0  0  0  0
  1 12  1  0  0  0  0
  2  7  1  6  0  0  0
  2  5  1  0  0  0  0
  2 13  1  0  0  0  0
  3  8  1  0  0  0  0
  4 27  1  1  0  0  0
  5 10  1  0  0  0  0
  8  9  1  0  0  0  0
  8  5  2  0  0  0  0
  9  1  2  0  0  0  0
 10  6  2  0  0  0  0
 10  4  1  0  0  0  0
 11  3  1  0  0  0  0
 11  7  2  0  0  0  0
 12  6  1  0  0  0  0
 13  4  1  0  0  0  0
 14  7  1  0  0  0  0
 14 23  1  0  0  0  0
 15 14  1  0  0  0  0
 16 15  2  0  0  0  0
 17 18  1  6  0  0  0
 17 15  1  0  0  0  0
 20 21  1  0  0  0  0
 21 19  1  0  0  0  0
 21 17  1  0  0  0  0
 22 21  1  0  0  0  0
 23 24  1  0  0  0  0
 24 26  1  0  0  0  0
 25 26  1  0  0  0  0
 27 28  1  0  0  0  0
 29 31  1  0  0  0  0
 30 28  1  1  0  0  0
 30 32  1  0  0  0  0
 30 29  1  0  0  0  0
 32 33  1  0  0  0  0
 33 35  1  1  0  0  0
 33 31  1  0  0  0  0
 35 34  1  0  0  0  0
 36 35  2  0  0  0  0
M  END
>  <MODEL>
3

>  <REMARK>
 VINA RESULT:      -6.6      3.713      9.069
  Name = 
  10 active torsions:
  status: ('A' for Active; 'I' for Inactive)
    1  A    between atoms: N_1  and  C_6
    2  A    between atoms: N_1  and  C_24
    3  A    between atoms: N_7  and  C_17
    4  A    between atoms: N_7  and  N_36
    5  A    between atoms: C_10  and  C_24
    6  A    between atoms: C_12  and  C_16
    7  A    between atoms: C_12  and  C_20
    8  A    between atoms: C_13  and  C_28
    9  A    between atoms: C_13  and  N_36
   10  A    between atoms: C_25  and  C_35
                            x       y       z     vdW  Elec       q    Type
                         _______ _______ _______ _____ _____    ______ ____

>  <TORSDO>
F 10

$$$$
=
 OpenBabel11072413313D

 36 39  0  0  1  0  0  0  0  0999 V2000
  161.0000  207.4390  154.3790 C   0  0  0  0  0  3  0  0  0  0  0  0
  162.2540  206.0500  150.2020 C   0  0  1  0  0  3  0  0  0  0  0  0
  160.5090  204.7330  152.0230 N   0  0  0  0  0  2  0  0  0  0  0  0
  162.4280  208.2890  150.0330 C   0  0  1  0  0  3  0  0  0  0  0  0
  161.7740  206.6580  151.4550 C   0  0  0  0  0  0  0  0  0  0  0  0
  161.6640  208.9420  152.4490 C   0  0  0  0  0  3  0  0  0  0  0  0
  161.3140  204.9620  149.7390 C   0  0  0  0  0  0  0  0  0  0  0  0
  161.0350  205.8530  152.4340 C   0  0  0  0  0  0  0  0  0  0  0  0
  160.8760  206.2240  153.8420 C   0  0  0  0  0  2  0  0  0  0  0  0
  161.9270  207.9500  151.3950 C   0  0  0  0  0  0  0  0  0  0  0  0
  160.5760  204.3010  150.6470 C   0  0  0  0  0  3  0  0  0  0  0  0
  161.2890  208.7180  153.7100 C   0  0  0  0  0  3  0  0  0  0  0  0
  162.4050  207.0950  149.2710 O   0  0  0  0  0  0  0  0  0  0  0  0
  161.3760  204.4830  148.3900 N   0  0  0  0  0  0  0  0  0  0  0  0
  160.9170  203.1640  148.0470 C   0  0  0  0  0  0  0  0  0  0  0  0
  160.8820  202.8090  146.8370 O   0  0  0  0  0  0  0  0  0  0  0  0
  160.5330  202.1800  149.1160 C   0  0  1  0  0  3  0  0  0  0  0  0
  159.1860  201.8310  148.9850 O   0  0  0  0  0  1  0  0  0  0  0  0
  161.3060  200.2490  150.2820 F   0  0  0  0  0  0  0  0  0  0  0  0
  161.0020  200.1050  148.0610 F   0  0  0  0  0  0  0  0  0  0  0  0
  161.4150  200.9330  149.0860 C   0  0  0  0  0  0  0  0  0  0  0  0
  162.7360  201.2830  148.8800 F   0  0  0  0  0  0  0  0  0  0  0  0
  161.8800  205.3290  147.3890 N   0  0  0  0  0  2  0  0  0  0  0  0
  160.7900  206.1790  146.9370 C   0  0  0  0  0  2  0  0  0  0  0  0
  161.8210  205.4780  144.8030 C   0  0  0  0  0  1  0  0  0  0  0  0
  160.5400  205.9420  145.4620 C   0  0  0  0  0  2  0  0  0  0  0  0
  161.5340  209.3200  149.3550 C   0  0  0  0  0  2  0  0  0  0  0  0
  162.2870  210.0640  148.3570 N   0  0  0  0  0  2  0  0  0  0  0  0
  163.1910  212.3190  148.1720 C   0  0  0  0  0  2  0  0  0  0  0  0
  161.9920  211.4740  148.5540 C   0  0  1  0  0  3  0  0  0  0  0  0
  162.6290  213.6140  147.6180 C   0  0  0  0  0  2  0  0  0  0  0  0
  160.8840  211.9020  147.6210 C   0  0  0  0  0  2  0  0  0  0  0  0
  161.1690  213.3520  147.2830 C   0  0  2  0  0  3  0  0  0  0  0  0
  159.7170  213.8150  145.4520 O   0  0  0  0  0  1  0  0  0  0  0  0
  160.9000  213.6220  145.8410 C   0  0  0  0  0  0  0  0  0  0  0  0
  161.9440  213.6910  144.9260 O   0  0  0  0  0  0  0  0  0  0  0  0
  2 13  1  6  0  0  0
  2  5  1  0  0  0  0
  3  8  1  0  0  0  0
  4 27  1  6  0  0  0
  4 10  1  0  0  0  0
  5  8  2  0  0  0  0
  6 12  1  0  0  0  0
  7  2  1  0  0  0  0
  7 11  2  0  0  0  0
  8  9  1  0  0  0  0
  9  1  1  0  0  0  0
 10  5  1  0  0  0  0
 10  6  2  0  0  0  0
 11  3  1  0  0  0  0
 12  1  2  0  0  0  0
 13  4  1  0  0  0  0
 14  7  1  0  0  0  0
 15 14  1  0  0  0  0
 15 17  1  0  0  0  0
 16 15  2  0  0  0  0
 17 18  1  6  0  0  0
 20 21  1  0  0  0  0
 21 17  1  0  0  0  0
 21 19  1  0  0  0  0
 22 21  1  0  0  0  0
 23 14  1  0  0  0  0
 24 23  1  0  0  0  0
 25 26  1  0  0  0  0
 26 24  1  0  0  0  0
 28 27  1  0  0  0  0
 29 30  1  0  0  0  0
 30 28  1  6  0  0  0
 31 29  1  0  0  0  0
 32 30  1  0  0  0  0
 33 35  1  6  0  0  0
 33 31  1  0  0  0  0
 33 32  1  0  0  0  0
 34 35  1  0  0  0  0
 36 35  2  0  0  0  0
M  END
>  <MODEL>
4

>  <REMARK>
 VINA RESULT:      -6.2      4.155      7.604
  Name = 
  10 active torsions:
  status: ('A' for Active; 'I' for Inactive)
    1  A    between atoms: N_1  and  C_6
    2  A    between atoms: N_1  and  C_24
    3  A    between atoms: N_7  and  C_17
    4  A    between atoms: N_7  and  N_36
    5  A    between atoms: C_10  and  C_24
    6  A    between atoms: C_12  and  C_16
    7  A    between atoms: C_12  and  C_20
    8  A    between atoms: C_13  and  C_28
    9  A    between atoms: C_13  and  N_36
   10  A    between atoms: C_25  and  C_35
                            x       y       z     vdW  Elec       q    Type
                         _______ _______ _______ _____ _____    ______ ____

>  <TORSDO>
F 10

$$$$
=
 OpenBabel11072413313D

 36 39  0  0  1  0  0  0  0  0999 V2000
  161.4820  204.0740  148.1170 C   0  0  0  0  0  3  0  0  0  0  0  0
  162.5000  207.9100  150.3960 C   0  0  1  0  0  3  0  0  0  0  0  0
  161.4760  207.6760  147.7530 N   0  0  0  0  0  2  0  0  0  0  0  0
  161.9960  206.4830  152.0650 C   0  0  1  0  0  3  0  0  0  0  0  0
  162.0420  206.6400  149.8100 C   0  0  0  0  0  0  0  0  0  0  0  0
  161.4140  204.3710  150.6340 C   0  0  0  0  0  3  0  0  0  0  0  0
  161.8610  209.0860  149.6980 C   0  0  0  0  0  0  0  0  0  0  0  0
  161.7070  206.5600  148.3830 C   0  0  0  0  0  0  0  0  0  0  0  0
  161.6420  205.3050  147.6300 C   0  0  0  0  0  3  0  0  0  0  0  0
  161.8050  205.7840  150.7630 C   0  0  0  0  0  0  0  0  0  0  0  0
  161.4770  208.9590  148.4160 C   0  0  0  0  0  3  0  0  0  0  0  0
  161.2960  203.6530  149.5160 C   0  0  0  0  0  2  0  0  0  0  0  0
  162.2150  207.8530  151.7740 O   0  0  0  0  0  0  0  0  0  0  0  0
  161.8730  210.3820  150.3100 N   0  0  0  0  0  0  0  0  0  0  0  0
  161.8300  211.5800  149.5160 C   0  0  0  0  0  0  0  0  0  0  0  0
  161.7320  212.7020  150.0830 O   0  0  0  0  0  0  0  0  0  0  0  0
  161.9590  211.5180  148.0200 C   0  0  1  0  0  3  0  0  0  0  0  0
  160.7410  211.8480  147.4200 O   0  0  0  0  0  1  0  0  0  0  0  0
  162.9830  213.6700  148.1050 F   0  0  0  0  0  0  0  0  0  0  0  0
  164.2980  211.8710  147.8160 F   0  0  0  0  0  0  0  0  0  0  0  0
  163.0730  212.4280  147.5050 C   0  0  0  0  0  0  0  0  0  0  0  0
  162.9780  212.5760  146.1340 F   0  0  0  0  0  0  0  0  0  0  0  0
  161.9120  210.4730  151.7110 N   0  0  0  0  0  2  0  0  0  0  0  0
  160.5400  210.4660  152.1930 C   0  0  0  0  0  2  0  0  0  0  0  0
  159.0570  212.4160  152.5200 C   0  0  0  0  0  1  0  0  0  0  0  0
  160.2910  211.7030  153.0290 C   0  0  0  0  0  2  0  0  0  0  0  0
  160.7580  206.3620  152.9450 C   0  0  0  0  0  2  0  0  0  0  0  0
  161.1370  206.3390  154.3500 N   0  0  0  0  0  2  0  0  0  0  0  0
  160.1930  206.9540  156.5100 C   0  0  0  0  0  2  0  0  0  0  0  0
  160.3020  207.3080  155.0400 C   0  0  1  0  0  3  0  0  0  0  0  0
  160.0810  208.2730  157.2490 C   0  0  0  0  0  2  0  0  0  0  0  0
  160.9550  208.6690  155.0010 C   0  0  0  0  0  2  0  0  0  0  0  0
  160.5500  209.3560  156.2910 C   0  0  2  0  0  3  0  0  0  0  0  0
  162.7210  209.4960  157.2610 O   0  0  0  0  0  1  0  0  0  0  0  0
  161.6960  210.1150  156.8690 C   0  0  0  0  0  0  0  0  0  0  0  0
  161.6560  211.5020  156.9550 O   0  0  0  0  0  0  0  0  0  0  0  0
  1 12  1  0  0  0  0
  2  7  1  6  0  0  0
  2 13  1  0  0  0  0
  3  8  1  0  0  0  0
  3 11  1  0  0  0  0
  4 27  1  1  0  0  0
  5  2  1  0  0  0  0
  5 10  1  0  0  0  0
  6 10  2  0  0  0  0
  7 14  1  0  0  0  0
  8  5  2  0  0  0  0
  9  1  2  0  0  0  0
  9  8  1  0  0  0  0
 10  4  1  0  0  0  0
 11  7  2  0  0  0  0
 12  6  1  0  0  0  0
 13  4  1  0  0  0  0
 14 23  1  0  0  0  0
 15 16  2  0  0  0  0
 15 14  1  0  0  0  0
 17 18  1  6  0  0  0
 17 15  1  0  0  0  0
 21 20  1  0  0  0  0
 21 17  1  0  0  0  0
 21 19  1  0  0  0  0
 22 21  1  0  0  0  0
 23 24  1  0  0  0  0
 24 26  1  0  0  0  0
 25 26  1  0  0  0  0
 27 28  1  0  0  0  0
 29 31  1  0  0  0  0
 30 28  1  6  0  0  0
 30 29  1  0  0  0  0
 32 30  1  0  0  0  0
 32 33  1  0  0  0  0
 33 35  1  1  0  0  0
 33 31  1  0  0  0  0
 35 36  2  0  0  0  0
 35 34  1  0  0  0  0
M  END
>  <MODEL>
5

>  <REMARK>
 VINA RESULT:      -5.9      3.694      7.550
  Name = 
  10 active torsions:
  status: ('A' for Active; 'I' for Inactive)
    1  A    between atoms: N_1  and  C_6
    2  A    between atoms: N_1  and  C_24
    3  A    between atoms: N_7  and  C_17
    4  A    between atoms: N_7  and  N_36
    5  A    between atoms: C_10  and  C_24
    6  A    between atoms: C_12  and  C_16
    7  A    between atoms: C_12  and  C_20
    8  A    between atoms: C_13  and  C_28
    9  A    between atoms: C_13  and  N_36
   10  A    between atoms: C_25  and  C_35
                            x       y       z     vdW  Elec       q    Type
                         _______ _______ _______ _____ _____    ______ ____

>  <TORSDO>
F 10

$$$$
=
 OpenBabel11072413313D

 36 39  0  0  1  0  0  0  0  0999 V2000
  162.2640  210.2930  148.6060 C   0  0  0  0  0  3  0  0  0  0  0  0
  161.7720  209.4310  153.0740 C   0  0  1  0  0  3  0  0  0  0  0  0
  160.8380  211.6940  151.6250 N   0  0  0  0  0  2  0  0  0  0  0  0
  161.9200  207.3590  152.2020 C   0  0  1  0  0  3  0  0  0  0  0  0
  161.8290  209.5390  151.6070 C   0  0  0  0  0  0  0  0  0  0  0  0
  162.1650  207.9970  149.6760 C   0  0  0  0  0  3  0  0  0  0  0  0
  160.7020  210.3350  153.6380 C   0  0  0  0  0  0  0  0  0  0  0  0
  161.5070  210.8080  150.9440 C   0  0  0  0  0  0  0  0  0  0  0  0
  161.9140  211.1390  149.5760 C   0  0  0  0  0  2  0  0  0  0  0  0
  161.9770  208.3510  151.0910 C   0  0  0  0  0  0  0  0  0  0  0  0
  160.3570  211.4450  152.9640 C   0  0  0  0  0  3  0  0  0  0  0  0
  162.3020  208.8210  148.6360 C   0  0  0  0  0  3  0  0  0  0  0  0
  161.5760  208.0700  153.3790 O   0  0  0  0  0  0  0  0  0  0  0  0
  160.2260  210.1400  154.9760 N   0  0  0  0  0  0  0  0  0  0  0  0
  158.9280  210.6110  155.3790 C   0  0  0  0  0  0  0  0  0  0  0  0
  158.4910  210.3300  156.5290 O   0  0  0  0  0  0  0  0  0  0  0  0
  158.1080  211.4830  154.4710 C   0  0  1  0  0  3  0  0  0  0  0  0
  156.7710  211.0780  154.4970 O   0  0  0  0  0  1  0  0  0  0  0  0
  157.0480  213.4030  155.4090 F   0  0  0  0  0  0  0  0  0  0  0  0
  159.2510  213.1240  155.7510 F   0  0  0  0  0  0  0  0  0  0  0  0
  158.2280  212.9610  154.8390 C   0  0  0  0  0  0  0  0  0  0  0  0
  158.5010  213.7160  153.7140 F   0  0  0  0  0  0  0  0  0  0  0  0
  161.0400  209.4620  155.8970 N   0  0  0  0  0  2  0  0  0  0  0  0
  161.4770  210.4240  156.8950 C   0  0  0  0  0  2  0  0  0  0  0  0
  163.7790  211.0920  156.2950 C   0  0  0  0  0  1  0  0  0  0  0  0
  162.9450  210.2100  157.1970 C   0  0  0  0  0  2  0  0  0  0  0  0
  160.8570  206.2990  151.9430 C   0  0  0  0  0  2  0  0  0  0  0  0
  161.4790  205.0530  151.5210 N   0  0  0  0  0  2  0  0  0  0  0  0
  161.6060  204.6770  149.1170 C   0  0  0  0  0  2  0  0  0  0  0  0
  160.7460  204.5730  150.3610 C   0  0  1  0  0  3  0  0  0  0  0  0
  161.2010  203.5150  148.2310 C   0  0  0  0  0  2  0  0  0  0  0  0
  160.4420  203.1020  150.5180 C   0  0  0  0  0  2  0  0  0  0  0  0
  160.4550  202.5280  149.1150 C   0  0  2  0  0  3  0  0  0  0  0  0
  161.2850  200.5620  150.1720 O   0  0  0  0  0  1  0  0  0  0  0  0
  161.1190  201.1930  149.0950 C   0  0  0  0  0  0  0  0  0  0  0  0
  161.5330  200.6260  147.8950 O   0  0  0  0  0  0  0  0  0  0  0  0
  1 12  2  0  0  0  0
  1  9  1  0  0  0  0
  2  5  1  6  0  0  0
  2 13  1  0  0  0  0
  2  7  1  0  0  0  0
  3 11  1  0  0  0  0
  4 27  1  6  0  0  0
  4 13  1  0  0  0  0
  6 10  2  0  0  0  0
  7 14  1  0  0  0  0
  8  5  2  0  0  0  0
  8  3  1  0  0  0  0
  9  8  1  0  0  0  0
 10  5  1  0  0  0  0
 10  4  1  0  0  0  0
 11  7  2  0  0  0  0
 12  6  1  0  0  0  0
 14 15  1  0  0  0  0
 14 23  1  0  0  0  0
 15 16  2  0  0  0  0
 17 18  1  1  0  0  0
 17 21  1  0  0  0  0
 17 15  1  0  0  0  0
 21 19  1  0  0  0  0
 21 20  1  0  0  0  0
 22 21  1  0  0  0  0
 23 24  1  0  0  0  0
 24 26  1  0  0  0  0
 25 26  1  0  0  0  0
 28 27  1  0  0  0  0
 29 30  1  0  0  0  0
 30 32  1  0  0  0  0
 30 28  1  1  0  0  0
 31 33  1  0  0  0  0
 31 29  1  0  0  0  0
 33 35  1  1  0  0  0
 33 32  1  0  0  0  0
 35 34  1  0  0  0  0
 36 35  2  0  0  0  0
M  END
>  <MODEL>
6

>  <REMARK>
 VINA RESULT:      -5.8      2.428      5.016
  Name = 
  10 active torsions:
  status: ('A' for Active; 'I' for Inactive)
    1  A    between atoms: N_1  and  C_6
    2  A    between atoms: N_1  and  C_24
    3  A    between atoms: N_7  and  C_17
    4  A    between atoms: N_7  and  N_36
    5  A    between atoms: C_10  and  C_24
    6  A    between atoms: C_12  and  C_16
    7  A    between atoms: C_12  and  C_20
    8  A    between atoms: C_13  and  C_28
    9  A    between atoms: C_13  and  N_36
   10  A    between atoms: C_25  and  C_35
                            x       y       z     vdW  Elec       q    Type
                         _______ _______ _______ _____ _____    ______ ____

>  <TORSDO>
F 10

$$$$
=
 OpenBabel11072413313D

 36 39  0  0  1  0  0  0  0  0999 V2000
  160.1660  207.5210  155.9510 C   0  0  0  0  0  3  0  0  0  0  0  0
  161.8610  209.1900  152.0410 C   0  0  1  0  0  3  0  0  0  0  0  0
  161.1620  206.4950  152.6250 N   0  0  0  0  0  2  0  0  0  0  0  0
  160.7860  210.9750  152.8960 C   0  0  1  0  0  3  0  0  0  0  0  0
  161.1620  208.7780  153.2700 C   0  0  0  0  0  0  0  0  0  0  0  0
  159.8550  209.8820  155.0840 C   0  0  0  0  0  3  0  0  0  0  0  0
  161.6520  208.1790  150.9390 C   0  0  0  0  0  0  0  0  0  0  0  0
  161.0050  207.3540  153.5910 C   0  0  0  0  0  0  0  0  0  0  0  0
  160.7080  206.8500  154.9340 C   0  0  0  0  0  3  0  0  0  0  0  0
  160.5860  209.8140  153.8090 C   0  0  0  0  0  0  0  0  0  0  0  0
  161.4160  206.8960  151.2610 C   0  0  0  0  0  3  0  0  0  0  0  0
  159.6960  208.9160  155.9890 C   0  0  0  0  0  2  0  0  0  0  0  0
  161.3950  210.4790  151.7170 O   0  0  0  0  0  0  0  0  0  0  0  0
  161.9280  208.5310  149.5770 N   0  0  0  0  0  0  0  0  0  0  0  0
  161.5980  207.6400  148.4980 C   0  0  0  0  0  0  0  0  0  0  0  0
  161.7510  208.0190  147.3050 O   0  0  0  0  0  0  0  0  0  0  0  0
  161.1260  206.2390  148.7710 C   0  0  1  0  0  3  0  0  0  0  0  0
  159.7290  206.1950  148.7700 O   0  0  0  0  0  1  0  0  0  0  0  0
  160.8810  205.1790  146.6490 F   0  0  0  0  0  0  0  0  0  0  0  0
  162.9540  205.6490  147.3760 F   0  0  0  0  0  0  0  0  0  0  0  0
  161.6940  205.2400  147.7650 C   0  0  0  0  0  0  0  0  0  0  0  0
  161.7830  203.9830  148.3340 F   0  0  0  0  0  0  0  0  0  0  0  0
  162.5160  209.7750  149.3010 N   0  0  0  0  0  2  0  0  0  0  0  0
  161.5810  210.5370  148.4890 C   0  0  0  0  0  2  0  0  0  0  0  0
  163.1660  212.3370  147.8910 C   0  0  0  0  0  1  0  0  0  0  0  0
  161.8810  212.0150  148.6230 C   0  0  0  0  0  2  0  0  0  0  0  0
  159.4580  211.6220  152.5250 C   0  0  0  0  0  2  0  0  0  0  0  0
  159.6690  212.9900  152.0770 N   0  0  0  0  0  2  0  0  0  0  0  0
  157.3730  213.8060  152.0630 C   0  0  0  0  0  2  0  0  0  0  0  0
  158.7100  213.8290  152.7770 C   0  0  1  0  0  3  0  0  0  0  0  0
  156.3200  213.9430  153.1450 C   0  0  0  0  0  2  0  0  0  0  0  0
  158.4420  213.2650  154.1520 C   0  0  0  0  0  2  0  0  0  0  0  0
  156.9990  213.6140  154.4640 C   0  0  2  0  0  3  0  0  0  0  0  0
  156.5060  211.2990  154.7360 O   0  0  0  0  0  0  0  0  0  0  0  0
  156.3150  212.4750  155.1430 C   0  0  0  0  0  0  0  0  0  0  0  0
  155.4890  212.6980  156.2390 O   0  0  0  0  0  1  0  0  0  0  0  0
  1 12  1  0  0  0  0
  2  7  1  6  0  0  0
  2  5  1  0  0  0  0
  3  8  1  0  0  0  0
  4 27  1  6  0  0  0
  4 10  1  0  0  0  0
  5  8  2  0  0  0  0
  5 10  1  0  0  0  0
  6 12  1  0  0  0  0
  7 11  2  0  0  0  0
  8  9  1  0  0  0  0
  9  1  2  0  0  0  0
 10  6  2  0  0  0  0
 11  3  1  0  0  0  0
 13  2  1  0  0  0  0
 13  4  1  0  0  0  0
 14  7  1  0  0  0  0
 15 17  1  0  0  0  0
 15 14  1  0  0  0  0
 16 15  2  0  0  0  0
 17 18  1  6  0  0  0
 19 21  1  0  0  0  0
 20 21  1  0  0  0  0
 21 22  1  0  0  0  0
 21 17  1  0  0  0  0
 23 14  1  0  0  0  0
 24 26  1  0  0  0  0
 24 23  1  0  0  0  0
 25 26  1  0  0  0  0
 28 27  1  0  0  0  0
 29 30  1  0  0  0  0
 29 31  1  0  0  0  0
 30 28  1  6  0  0  0
 30 32  1  0  0  0  0
 31 33  1  0  0  0  0
 32 33  1  0  0  0  0
 33 35  1  6  0  0  0
 34 35  2  0  0  0  0
 35 36  1  0  0  0  0
M  END
>  <MODEL>
7

>  <REMARK>
 VINA RESULT:      -5.7      3.900      8.365
  Name = 
  10 active torsions:
  status: ('A' for Active; 'I' for Inactive)
    1  A    between atoms: N_1  and  C_6
    2  A    between atoms: N_1  and  C_24
    3  A    between atoms: N_7  and  C_17
    4  A    between atoms: N_7  and  N_36
    5  A    between atoms: C_10  and  C_24
    6  A    between atoms: C_12  and  C_16
    7  A    between atoms: C_12  and  C_20
    8  A    between atoms: C_13  and  C_28
    9  A    between atoms: C_13  and  N_36
   10  A    between atoms: C_25  and  C_35
                            x       y       z     vdW  Elec       q    Type
                         _______ _______ _______ _____ _____    ______ ____

>  <TORSDO>
F 10

$$$$
=
 OpenBabel11072413313D

 36 39  0  0  1  0  0  0  0  0999 V2000
  160.1850  207.3280  155.8490 C   0  0  0  0  0  3  0  0  0  0  0  0
  161.9240  208.9210  151.9260 C   0  0  1  0  0  3  0  0  0  0  0  0
  161.1610  206.2490  152.5330 N   0  0  0  0  0  2  0  0  0  0  0  0
  160.8900  210.7390  152.7620 C   0  0  1  0  0  3  0  0  0  0  0  0
  161.2140  208.5370  153.1570 C   0  0  0  0  0  0  0  0  0  0  0  0
  159.9310  209.6890  154.9590 C   0  0  0  0  0  3  0  0  0  0  0  0
  161.6920  207.9060  150.8330 C   0  0  0  0  0  0  0  0  0  0  0  0
  161.0230  207.1210  153.4910 C   0  0  0  0  0  0  0  0  0  0  0  0
  160.7120  206.6350  154.8380 C   0  0  0  0  0  3  0  0  0  0  0  0
  160.6620  209.5920  153.6860 C   0  0  0  0  0  0  0  0  0  0  0  0
  161.4260  206.6310  151.1660 C   0  0  0  0  0  3  0  0  0  0  0  0
  159.7480  208.7340  155.8730 C   0  0  0  0  0  2  0  0  0  0  0  0
  161.4890  210.2180  151.5890 O   0  0  0  0  0  0  0  0  0  0  0  0
  161.9780  208.2380  149.4680 N   0  0  0  0  0  0  0  0  0  0  0  0
  161.6390  207.3400  148.3980 C   0  0  0  0  0  0  0  0  0  0  0  0
  161.8020  207.7040  147.2010 O   0  0  0  0  0  0  0  0  0  0  0  0
  161.1470  205.9490  148.6840 C   0  0  1  0  0  3  0  0  0  0  0  0
  159.7540  205.9460  148.7890 O   0  0  0  0  0  1  0  0  0  0  0  0
  160.8280  205.0760  146.4880 F   0  0  0  0  0  0  0  0  0  0  0  0
  162.9220  205.2100  147.2910 F   0  0  0  0  0  0  0  0  0  0  0  0
  161.6070  204.9510  147.6230 C   0  0  0  0  0  0  0  0  0  0  0  0
  161.5080  203.6590  148.1040 F   0  0  0  0  0  0  0  0  0  0  0  0
  162.5850  209.4710  149.1800 N   0  0  0  0  0  2  0  0  0  0  0  0
  161.5870  210.3200  148.5510 C   0  0  0  0  0  2  0  0  0  0  0  0
  161.4010  212.3920  147.2160 C   0  0  0  0  0  1  0  0  0  0  0  0
  162.1670  211.7000  148.3220 C   0  0  0  0  0  2  0  0  0  0  0  0
  159.5780  211.4140  152.3840 C   0  0  0  0  0  2  0  0  0  0  0  0
  159.4320  212.6720  153.1000 N   0  0  0  0  0  2  0  0  0  0  0  0
  159.9840  213.3650  150.8300 C   0  0  0  0  0  2  0  0  0  0  0  0
  159.2470  213.7180  152.1070 C   0  0  1  0  0  3  0  0  0  0  0  0
  159.1580  213.9440  149.6980 C   0  0  0  0  0  2  0  0  0  0  0  0
  157.7900  213.8060  151.7190 C   0  0  0  0  0  2  0  0  0  0  0  0
  157.7770  214.2340  150.2650 C   0  0  2  0  0  3  0  0  0  0  0  0
  155.5110  213.7100  149.7510 O   0  0  0  0  0  1  0  0  0  0  0  0
  156.7270  213.4960  149.5050 C   0  0  0  0  0  0  0  0  0  0  0  0
  157.0780  212.5920  148.5080 O   0  0  0  0  0  0  0  0  0  0  0  0
  1 12  1  0  0  0  0
  2  7  1  6  0  0  0
  2  5  1  0  0  0  0
  3  8  1  0  0  0  0
  4 27  1  6  0  0  0
  4 10  1  0  0  0  0
  5  8  2  0  0  0  0
  5 10  1  0  0  0  0
  6 12  1  0  0  0  0
  7 11  2  0  0  0  0
  8  9  1  0  0  0  0
  9  1  2  0  0  0  0
 10  6  2  0  0  0  0
 11  3  1  0  0  0  0
 13  2  1  0  0  0  0
 13  4  1  0  0  0  0
 14  7  1  0  0  0  0
 15 17  1  0  0  0  0
 15 14  1  0  0  0  0
 16 15  2  0  0  0  0
 17 18  1  6  0  0  0
 19 21  1  0  0  0  0
 20 21  1  0  0  0  0
 21 22  1  0  0  0  0
 21 17  1  0  0  0  0
 23 14  1  0  0  0  0
 24 23  1  0  0  0  0
 25 26  1  0  0  0  0
 26 24  1  0  0  0  0
 27 28  1  0  0  0  0
 29 30  1  0  0  0  0
 30 28  1  1  0  0  0
 31 33  1  0  0  0  0
 31 29  1  0  0  0  0
 32 30  1  0  0  0  0
 33 35  1  6  0  0  0
 33 32  1  0  0  0  0
 35 34  1  0  0  0  0
 36 35  2  0  0  0  0
M  END
>  <MODEL>
8

>  <REMARK>
 VINA RESULT:      -5.7      4.047      7.706
  Name = 
  10 active torsions:
  status: ('A' for Active; 'I' for Inactive)
    1  A    between atoms: N_1  and  C_6
    2  A    between atoms: N_1  and  C_24
    3  A    between atoms: N_7  and  C_17
    4  A    between atoms: N_7  and  N_36
    5  A    between atoms: C_10  and  C_24
    6  A    between atoms: C_12  and  C_16
    7  A    between atoms: C_12  and  C_20
    8  A    between atoms: C_13  and  C_28
    9  A    between atoms: C_13  and  N_36
   10  A    between atoms: C_25  and  C_35
                            x       y       z     vdW  Elec       q    Type
                         _______ _______ _______ _____ _____    ______ ____

>  <TORSDO>
F 10

$$$$
