=
 OpenBabel11072415113D

 39 46  0  0  1  0  0  0  0  0999 V2000
  160.8310  208.6260  151.5100 C   0  0  0  0  0  3  0  0  0  0  0  0
  161.8530  209.4980  149.4770 C   0  0  0  0  0  0  0  0  0  0  0  0
  160.6040  207.4040  150.8770 C   0  0  0  0  0  3  0  0  0  0  0  0
  159.4210  211.9360  152.2170 C   0  0  0  0  0  0  0  0  0  0  0  0
  162.5530  211.9600  149.1790 C   0  0  0  0  0  2  0  0  0  0  0  0
  161.6210  210.9750  151.5440 C   0  0  0  0  0  2  0  0  0  0  0  0
  159.7490  213.8670  147.5020 C   0  0  0  0  0  3  0  0  0  0  0  0
  160.2340  212.5100  149.9900 C   0  0  0  0  0  0  0  0  0  0  0  0
  157.9420  213.0840  150.7090 C   0  0  0  0  0  3  0  0  0  0  0  0
  161.4620  209.6720  150.8290 C   0  0  0  0  0  0  0  0  0  0  0  0
  158.9570  213.1110  149.7430 C   0  0  0  0  0  0  0  0  0  0  0  0
  158.2050  212.4930  151.9300 C   0  0  0  0  0  0  0  0  0  0  0  0
  160.9450  213.3330  147.7450 C   0  0  0  0  0  0  0  0  0  0  0  0
  162.5870  210.5270  148.6530 C   0  0  0  0  0  2  0  0  0  0  0  0
  161.1950  212.5850  149.0150 C   0  0  0  0  0  0  0  0  0  0  0  0
  157.3560  212.3350  152.8870 N   0  0  0  0  0  0  0  0  0  0  0  0
  158.5820  213.6870  148.4110 C   0  0  0  0  0  2  0  0  0  0  0  0
  157.9990  211.6380  153.9210 N   0  0  0  0  0  0  0  0  0  0  0  0
  161.0030  207.2210  149.5530 C   0  0  0  0  0  3  0  0  0  0  0  0
  159.2190  211.3880  153.5650 C   0  0  0  0  0  0  0  0  0  0  0  0
  160.4440  211.8590  151.2580 C   0  0  0  0  0  0  0  0  0  0  0  0
  161.6260  208.2610  148.8620 C   0  0  0  0  0  3  0  0  0  0  0  0
  159.9390  209.4640  154.9830 C   0  0  0  0  0  3  0  0  0  0  0  0
  160.8200  208.8630  155.8990 C   0  0  0  0  0  3  0  0  0  0  0  0
  163.8670  210.3180  157.2600 C   0  0  0  0  0  2  0  0  0  0  0  0
  162.9370  209.2300  157.1700 O   0  0  0  0  0  0  0  0  0  0  0  0
  160.1950  210.7620  154.4770 C   0  0  0  0  0  0  0  0  0  0  0  0
  161.9400  209.5930  156.2880 C   0  0  0  0  0  0  0  0  0  0  0  0
  162.1830  210.8410  155.8180 C   0  0  0  0  0  0  0  0  0  0  0  0
  161.3310  211.4700  154.9160 C   0  0  0  0  0  3  0  0  0  0  0  0
  163.3460  211.3260  156.3830 O   0  0  0  0  0  0  0  0  0  0  0  0
  163.2280  213.5580  147.1470 O   0  0  0  0  0  0  0  0  0  0  0  0
  162.7320  214.4000  144.4760 C   0  0  0  0  0  2  0  0  0  0  0  0
  162.0280  213.5810  146.7610 C   0  0  0  0  0  0  0  0  0  0  0  0
  160.4470  213.6590  144.7470 C   0  0  1  0  0  3  0  0  0  0  0  0
  162.0650  214.4520  143.1140 C   0  0  0  0  0  2  0  0  0  0  0  0
  160.0900  211.8800  144.6160 S   0  0  0  0  0  1  0  0  0  0  0  0
  161.7390  213.8600  145.3790 N   0  0  0  0  0  0  0  0  0  0  0  0
  160.5780  214.2490  143.3580 C   0  0  0  0  0  2  0  0  0  0  0  0
  2 10  1  0  0  0  0
  3  1  1  0  0  0  0
  4 20  1  0  0  0  0
  7 13  2  0  0  0  0
  7 17  1  0  0  0  0
  8 21  1  0  0  0  0
  9 12  1  0  0  0  0
 10  1  2  0  0  0  0
 10  6  1  0  0  0  0
 11  8  1  0  0  0  0
 11  9  2  0  0  0  0
 12  4  1  0  0  0  0
 12 16  2  0  0  0  0
 13 15  1  0  0  0  0
 14  5  1  0  0  0  0
 14  2  1  0  0  0  0
 15  5  1  0  0  0  0
 15  8  2  0  0  0  0
 16 18  1  0  0  0  0
 17 11  1  0  0  0  0
 19  3  2  0  0  0  0
 20 18  2  0  0  0  0
 20 27  1  0  0  0  0
 21  6  1  0  0  0  0
 21  4  2  0  0  0  0
 22  2  2  0  0  0  0
 22 19  1  0  0  0  0
 23 24  1  0  0  0  0
 24 28  2  0  0  0  0
 26 25  1  0  0  0  0
 27 30  1  0  0  0  0
 27 23  2  0  0  0  0
 28 26  1  0  0  0  0
 29 28  1  0  0  0  0
 29 31  1  0  0  0  0
 30 29  2  0  0  0  0
 31 25  1  0  0  0  0
 33 38  1  0  0  0  0
 34 32  2  0  0  0  0
 34 13  1  0  0  0  0
 35 37  1  6  0  0  0
 35 38  1  0  0  0  0
 36 39  1  0  0  0  0
 36 33  1  0  0  0  0
 38 34  1  0  0  0  0
 39 35  1  0  0  0  0
M  END
>  <MODEL>
1

>  <REMARK>
 VINA RESULT:      -4.1      0.000      0.000
  Name = 
  2 active torsions:
  status: ('A' for Active; 'I' for Inactive)
    1  A    between atoms: C_19  and  C_20
    2  A    between atoms: C_26  and  C_34
                            x       y       z     vdW  Elec       q    Type
                         _______ _______ _______ _____ _____    ______ ____

>  <TORSDO>
F 2

$$$$
=
 OpenBabel11072415113D

 39 46  0  0  1  0  0  0  0  0999 V2000
  158.7680  212.7470  148.3720 C   0  0  0  0  0  3  0  0  0  0  0  0
  158.0340  213.7650  150.4610 C   0  0  0  0  0  0  0  0  0  0  0  0
  157.4530  212.7440  147.9070 C   0  0  0  0  0  3  0  0  0  0  0  0
  161.2960  210.8230  150.2030 C   0  0  0  0  0  0  0  0  0  0  0  0
  159.5790  214.1170  152.4930 C   0  0  0  0  0  2  0  0  0  0  0  0
  160.4910  213.1810  150.1000 C   0  0  0  0  0  2  0  0  0  0  0  0
  159.2280  211.1840  154.8570 C   0  0  0  0  0  3  0  0  0  0  0  0
  160.1900  211.6930  152.1960 C   0  0  0  0  0  0  0  0  0  0  0  0
  160.7540  209.2980  151.9800 C   0  0  0  0  0  3  0  0  0  0  0  0
  159.0730  213.2630  149.6370 C   0  0  0  0  0  0  0  0  0  0  0  0
  160.2250  210.3610  152.7240 C   0  0  0  0  0  0  0  0  0  0  0  0
  161.2820  209.5610  150.7300 C   0  0  1  0  0  3  0  0  0  0  0  0
  159.2240  212.4260  154.3750 C   0  0  0  0  0  0  0  0  0  0  0  0
  158.2390  214.3950  151.8170 C   0  0  0  0  0  2  0  0  0  0  0  0
  159.6780  212.6960  152.9770 C   0  0  0  0  0  0  0  0  0  0  0  0
  161.7410  208.6820  149.9080 N   0  0  0  0  0  0  0  0  0  0  0  0
  159.5910  209.9970  154.0320 C   0  0  0  0  0  3  0  0  0  0  0  0
  162.1180  209.3480  148.7320 N   0  0  0  0  0  0  0  0  0  0  0  0
  156.4300  213.2550  148.7060 C   0  0  0  0  0  3  0  0  0  0  0  0
  161.8740  210.6130  148.8690 C   0  0  0  0  0  0  0  0  0  0  0  0
  160.7030  211.9090  150.8660 C   0  0  0  0  0  0  0  0  0  0  0  0
  156.7220  213.7640  149.9710 C   0  0  0  0  0  3  0  0  0  0  0  0
  163.3390  212.4850  148.1070 C   0  0  0  0  0  3  0  0  0  0  0  0
  163.6950  213.4800  147.1800 C   0  0  0  0  0  3  0  0  0  0  0  0
  162.0720  214.1620  143.9940 C   0  0  0  0  0  2  0  0  0  0  0  0
  163.0890  214.4520  144.9630 O   0  0  0  0  0  0  0  0  0  0  0  0
  162.2590  211.6060  147.8490 C   0  0  0  0  0  0  0  0  0  0  0  0
  162.9440  213.5670  146.0100 C   0  0  0  0  0  0  0  0  0  0  0  0
  161.9010  212.7370  145.7630 C   0  0  0  0  0  0  0  0  0  0  0  0
  161.5160  211.7460  146.6600 C   0  0  0  0  0  3  0  0  0  0  0  0
  161.3360  213.0620  144.5460 O   0  0  0  0  0  0  0  0  0  0  0  0
  159.6840  214.4190  155.5740 O   0  0  0  0  0  0  0  0  0  0  0  0
  157.2270  214.4530  157.0060 C   0  0  0  0  0  2  0  0  0  0  0  0
  158.8390  213.5250  155.2960 C   0  0  0  0  0  0  0  0  0  0  0  0
  156.3910  212.7940  155.4610 C   0  0  1  0  0  3  0  0  0  0  0  0
  155.7400  214.2950  157.2600 C   0  0  0  0  0  2  0  0  0  0  0  0
  155.8350  213.3410  153.8170 S   0  0  0  0  0  1  0  0  0  0  0  0
  157.5290  213.5870  155.8880 N   0  0  0  0  0  0  0  0  0  0  0  0
  155.3000  213.0680  156.4770 C   0  0  0  0  0  2  0  0  0  0  0  0
  1 10  1  0  0  0  0
  2 14  1  0  0  0  0
  3  1  2  0  0  0  0
  3 19  1  0  0  0  0
  4 12  1  0  0  0  0
  4 21  1  0  0  0  0
  5 15  1  0  0  0  0
  6 21  1  0  0  0  0
  8 11  1  0  0  0  0
  8 15  1  0  0  0  0
  9 11  2  0  0  0  0
 10  6  1  0  0  0  0
 10  2  2  0  0  0  0
 11 17  1  0  0  0  0
 12  9  1  6  0  0  0
 13  7  1  0  0  0  0
 13 34  1  0  0  0  0
 14  5  1  0  0  0  0
 15 13  2  0  0  0  0
 16 12  1  0  0  0  0
 17  7  2  0  0  0  0
 18 20  1  0  0  0  0
 18 16  2  0  0  0  0
 19 22  2  0  0  0  0
 20  4  2  0  0  0  0
 21  8  2  0  0  0  0
 22  2  1  0  0  0  0
 24 23  2  0  0  0  0
 25 31  1  0  0  0  0
 25 26  1  0  0  0  0
 26 28  1  0  0  0  0
 27 23  1  0  0  0  0
 27 20  1  0  0  0  0
 28 24  1  0  0  0  0
 29 28  2  0  0  0  0
 29 30  1  0  0  0  0
 30 27  2  0  0  0  0
 31 29  1  0  0  0  0
 33 36  1  0  0  0  0
 34 32  2  0  0  0  0
 34 38  1  0  0  0  0
 35 37  1  6  0  0  0
 35 38  1  0  0  0  0
 35 39  1  0  0  0  0
 38 33  1  0  0  0  0
 39 36  1  0  0  0  0
M  END
>  <MODEL>
2

>  <REMARK>
 VINA RESULT:      -3.5      3.108      8.607
  Name = 
  2 active torsions:
  status: ('A' for Active; 'I' for Inactive)
    1  A    between atoms: C_19  and  C_20
    2  A    between atoms: C_26  and  C_34
                            x       y       z     vdW  Elec       q    Type
                         _______ _______ _______ _____ _____    ______ ____

>  <TORSDO>
F 2

$$$$
