=
 OpenBabel11072412493D

 52 57  0  0  1  0  0  0  0  0999 V2000
  161.3760  213.2910  148.7350 C   0  0  0  0  0  3  0  0  0  0  0  0
  160.7370  213.1740  147.5400 N   0  0  0  0  0  0  0  0  0  0  0  0
  161.8620  212.1530  149.3830 C   0  0  0  0  0  3  0  0  0  0  0  0
  160.5340  211.9650  146.9490 C   0  0  0  0  0  0  0  0  0  0  0  0
  161.0080  210.8010  147.5710 C   0  0  0  0  0  3  0  0  0  0  0  0
  161.6840  210.8970  148.7970 C   0  0  0  0  0  0  0  0  0  0  0  0
  159.8690  211.9170  145.6050 C   0  0  1  0  0  3  0  0  0  0  0  0
  158.5130  212.2900  145.6600 O   0  0  0  0  0  0  0  0  0  0  0  0
  158.4600  213.4800  146.2340 O   0  0  0  0  0  1  0  0  0  0  0  0
  160.6000  212.6590  144.5820 N   0  0  0  0  0  2  0  0  0  0  0  0
  159.7040  212.8310  143.4460 C   0  0  0  0  0  2  0  0  0  0  0  0
  160.1950  212.0420  142.2340 C   0  0  0  0  0  2  0  0  0  0  0  0
  160.3920  212.4480  139.6380 C   0  0  1  0  0  0  0  0  0  0  0  0
  158.2570  213.1300  140.5850 O   0  0  0  0  0  1  0  0  0  0  0  0
  160.6190  212.9450  141.0620 C   0  0  1  0  0  0  0  0  0  0  0  0
  159.5210  213.5810  140.1920 C   0  0  1  0  0  3  0  0  0  0  0  0
  161.3670  212.8180  138.7100 O   0  0  0  0  0  1  0  0  0  0  0  0
  159.7780  211.1290  139.4460 N   0  0  0  0  0  0  0  0  0  0  0  0
  157.7370  210.0460  139.1140 O   0  0  0  0  0  0  0  0  0  0  0  0
  158.5140  210.9760  138.7680 C   0  0  0  0  0  0  0  0  0  0  0  0
  158.1180  211.8250  137.7330 O   0  0  0  0  0  0  0  0  0  0  0  0
  156.8810  212.3330  137.6590 O   0  0  0  0  0  1  0  0  0  0  0  0
  160.4300  210.0310  139.9830 O   0  0  0  0  0  0  0  0  0  0  0  0
  162.1440  207.0220  137.5970 C   0  0  0  0  0  3  0  0  0  0  0  0
  162.1760  206.8970  138.9870 C   0  0  0  0  0  3  0  0  0  0  0  0
  160.9910  209.1420  137.8140 C   0  0  0  0  0  3  0  0  0  0  0  0
  161.6150  207.8940  139.7920 C   0  0  0  0  0  3  0  0  0  0  0  0
  161.0260  209.0280  139.2090 C   0  0  0  0  0  0  0  0  0  0  0  0
  161.5490  208.1430  137.0110 C   0  0  0  0  0  3  0  0  0  0  0  0
  161.7860  213.8110  141.2350 N   0  0  0  0  0  2  0  0  0  0  0  0
  162.8470  213.0510  141.8810 C   0  0  0  0  0  1  0  0  0  0  0  0
  162.2140  209.7770  149.4550 O   0  0  0  0  0  0  0  0  0  0  0  0
  160.6270  206.4080  149.1340 C   0  0  2  0  0  3  0  0  0  0  0  0
  162.3940  206.7140  147.1720 C   0  0  1  0  0  3  0  0  0  0  0  0
  160.9900  206.4870  146.6150 C   0  0  2  0  0  3  0  0  0  0  0  0
  162.5240  208.1780  147.6210 C   0  0  0  0  0  2  0  0  0  0  0  0
  161.3840  205.8230  147.9170 C   0  0  2  0  0  3  0  0  0  0  0  0
  160.6420  207.9380  149.2050 C   0  0  0  0  0  2  0  0  0  0  0  0
  162.0680  208.4140  149.0510 C   0  0  2  0  0  3  0  0  0  0  0  0
  161.0350  205.4980  145.5500 N   0  0  0  0  0  2  0  0  0  0  0  0
  162.4390  205.2560  145.2590 C   0  0  0  0  0  1  0  0  0  0  0  0
  161.1380  205.7820  150.4530 C   0  0  2  0  0  3  0  0  0  0  0  0
  160.3080  202.0790  149.5620 C   0  0  0  0  0  2  0  0  0  0  0  0
  160.7110  203.5290  149.3130 C   0  0  0  0  0  2  0  0  0  0  0  0
  161.7540  203.6130  151.6120 C   0  0  0  0  0  2  0  0  0  0  0  0
  161.3040  201.4100  150.5030 C   0  0  0  0  0  2  0  0  0  0  0  0
  161.3490  202.1570  151.8340 C   0  0  0  0  0  2  0  0  0  0  0  0
  160.7950  204.2930  150.6380 C   0  0  0  0  0  3  0  0  0  0  0  0
  160.6410  206.5660  151.6690 C   0  0  0  0  0  2  0  0  0  0  0  0
  161.7910  207.2730  152.3740 C   0  0  0  0  0  2  0  0  0  0  0  0
  161.6730  207.1380  153.8570 C   0  0  0  0  0  3  0  0  0  0  0  0
  160.6940  206.6050  154.3520 O   0  0  0  0  0  0  0  0  0  0  0  0
  1  3  1  0  0  0  0
  2  1  2  0  0  0  0
  4  2  1  0  0  0  0
  4  5  2  0  0  0  0
  5  6  1  0  0  0  0
  6  3  2  0  0  0  0
  6 32  1  0  0  0  0
  7 10  1  6  0  0  0
  7  8  1  0  0  0  0
  7  4  1  0  0  0  0
  8  9  1  0  0  0  0
 11 10  1  0  0  0  0
 12 11  1  0  0  0  0
 13 17  1  6  0  0  0
 13 16  1  0  0  0  0
 13 15  1  0  0  0  0
 15 30  1  0  0  0  0
 15 12  1  1  0  0  0
 16 14  1  1  0  0  0
 16 15  1  0  0  0  0
 18 13  1  0  0  0  0
 18 23  1  0  0  0  0
 20 19  2  0  0  0  0
 20 18  1  0  0  0  0
 21 20  1  0  0  0  0
 22 21  1  0  0  0  0
 24 25  1  0  0  0  0
 25 27  2  0  0  0  0
 26 28  2  0  0  0  0
 28 27  1  0  0  0  0
 28 23  1  0  0  0  0
 29 24  2  0  0  0  0
 29 26  1  0  0  0  0
 30 31  1  0  0  0  0
 33 38  1  0  0  0  0
 33 42  1  1  0  0  0
 34 36  1  1  0  0  0
 34 37  1  0  0  0  0
 35 40  1  6  0  0  0
 35 34  1  0  0  0  0
 35 37  1  0  0  0  0
 36 39  1  0  0  0  0
 37 33  1  0  0  0  0
 39 38  1  0  0  0  0
 39 32  1  0  0  0  0
 41 40  1  0  0  0  0
 42 48  1  0  0  0  0
 42 49  1  0  0  0  0
 43 46  1  0  0  0  0
 44 43  1  0  0  0  0
 44 48  1  0  0  0  0
 45 47  1  0  0  0  0
 46 47  1  0  0  0  0
 48 45  1  0  0  0  0
 49 50  1  0  0  0  0
 50 51  1  0  0  0  0
 51 52  2  0  0  0  0
M  END
>  <MODEL>
1

>  <REMARK>
 VINA RESULT:      -5.7      0.000      0.000
  Name = 
  19 active torsions:
  status: ('A' for Active; 'I' for Inactive)
    1  A    between atoms: C_1  and  O_22
    2  A    between atoms: C_1  and  C_38
    3  A    between atoms: C_1  and  N_47
    4  A    between atoms: C_2  and  C_39
    5  A    between atoms: N_3  and  C_17
    6  A    between atoms: C_4  and  N_5
    7  A    between atoms: N_5  and  O_42
    8  A    between atoms: C_7  and  N_13
    9  A    between atoms: O_9  and  C_48
   10  A    between atoms: O_9  and  C_49
   11  A    between atoms: C_15  and  C_39
   12  A    between atoms: C_15  and  C_51
   13  A    between atoms: C_17  and  C_32
   14  A    between atoms: C_21  and  O_24
   15  A    between atoms: C_32  and  C_43
   16  A    between atoms: C_39  and  C_52
   17  A    between atoms: C_40  and  C_51
   18  A    between atoms: O_42  and  C_44
   19  A    between atoms: C_43  and  N_47
                            x       y       z     vdW  Elec       q    Type
                         _______ _______ _______ _____ _____    ______ ____

>  <TORSDO>
F 19

$$$$
=
 OpenBabel11072412493D

 52 57  0  0  1  0  0  0  0  0999 V2000
  162.0690  209.6280  151.1730 C   0  0  0  0  0  3  0  0  0  0  0  0
  161.6740  210.9050  150.9200 N   0  0  0  0  0  0  0  0  0  0  0  0
  162.3590  208.7630  150.1150 C   0  0  0  0  0  3  0  0  0  0  0  0
  161.5320  211.3750  149.6510 C   0  0  0  0  0  0  0  0  0  0  0  0
  161.8130  210.5350  148.5650 C   0  0  0  0  0  3  0  0  0  0  0  0
  162.2370  209.2180  148.7990 C   0  0  0  0  0  0  0  0  0  0  0  0
  161.1450  212.8100  149.4490 C   0  0  1  0  0  3  0  0  0  0  0  0
  161.5840  213.3210  148.2130 O   0  0  0  0  0  0  0  0  0  0  0  0
  162.8830  213.5430  148.3240 O   0  0  0  0  0  1  0  0  0  0  0  0
  159.7210  213.0510  149.6660 N   0  0  0  0  0  2  0  0  0  0  0  0
  159.5840  213.7100  150.9580 C   0  0  0  0  0  2  0  0  0  0  0  0
  158.7540  212.8640  151.9220 C   0  0  0  0  0  2  0  0  0  0  0  0
  157.1080  213.1580  153.9590 C   0  0  1  0  0  0  0  0  0  0  0  0
  159.3100  214.1330  154.3180 O   0  0  0  0  0  1  0  0  0  0  0  0
  157.6470  213.6690  152.6270 C   0  0  1  0  0  0  0  0  0  0  0  0
  157.9940  214.4090  153.9290 C   0  0  1  0  0  3  0  0  0  0  0  0
  155.7470  213.3730  154.1790 O   0  0  0  0  0  1  0  0  0  0  0  0
  157.6710  211.9210  154.5140 N   0  0  0  0  0  0  0  0  0  0  0  0
  157.9780  210.7300  156.4970 O   0  0  0  0  0  0  0  0  0  0  0  0
  157.1810  211.3550  155.7470 C   0  0  0  0  0  0  0  0  0  0  0  0
  155.8480  211.4750  156.1420 O   0  0  0  0  0  0  0  0  0  0  0  0
  154.9690  210.4750  155.9990 O   0  0  0  0  0  1  0  0  0  0  0  0
  158.7280  211.3340  153.8360 O   0  0  0  0  0  0  0  0  0  0  0  0
  162.0580  209.5800  155.7110 C   0  0  0  0  0  3  0  0  0  0  0  0
  161.0870  208.7620  155.1290 C   0  0  0  0  0  3  0  0  0  0  0  0
  160.7970  211.5420  155.0530 C   0  0  0  0  0  3  0  0  0  0  0  0
  159.9720  209.3330  154.5080 C   0  0  0  0  0  3  0  0  0  0  0  0
  159.8170  210.7290  154.4730 C   0  0  0  0  0  0  0  0  0  0  0  0
  161.9140  210.9690  155.6710 C   0  0  0  0  0  3  0  0  0  0  0  0
  156.6740  214.3860  151.8010 N   0  0  0  0  0  2  0  0  0  0  0  0
  156.6220  213.7660  150.4840 C   0  0  0  0  0  1  0  0  0  0  0  0
  162.5680  208.3360  147.7590 O   0  0  0  0  0  0  0  0  0  0  0  0
  160.7240  205.1270  148.2830 C   0  0  2  0  0  3  0  0  0  0  0  0
  162.5860  204.7520  146.4250 C   0  0  1  0  0  3  0  0  0  0  0  0
  161.1920  204.4740  145.8670 C   0  0  2  0  0  3  0  0  0  0  0  0
  162.8180  206.2710  146.4590 C   0  0  0  0  0  2  0  0  0  0  0  0
  161.4780  204.1760  147.3230 C   0  0  2  0  0  3  0  0  0  0  0  0
  160.8620  206.6120  147.9300 C   0  0  0  0  0  2  0  0  0  0  0  0
  162.3270  206.9270  147.7380 C   0  0  2  0  0  3  0  0  0  0  0  0
  161.1970  203.2250  145.1220 N   0  0  0  0  0  2  0  0  0  0  0  0
  159.9330  203.1570  144.4070 C   0  0  0  0  0  1  0  0  0  0  0  0
  161.1280  204.8620  149.7530 C   0  0  2  0  0  3  0  0  0  0  0  0
  159.8190  201.1920  149.7990 C   0  0  0  0  0  2  0  0  0  0  0  0
  160.2360  202.5280  149.1940 C   0  0  0  0  0  2  0  0  0  0  0  0
  161.8960  202.8380  151.0720 C   0  0  0  0  0  2  0  0  0  0  0  0
  160.9920  200.5610  150.5410 C   0  0  0  0  0  2  0  0  0  0  0  0
  161.4690  201.4920  151.6540 C   0  0  0  0  0  2  0  0  0  0  0  0
  160.7480  203.4700  150.2880 C   0  0  0  0  0  3  0  0  0  0  0  0
  160.5600  205.9320  150.6880 C   0  0  0  0  0  2  0  0  0  0  0  0
  160.7920  205.5650  152.1470 C   0  0  0  0  0  2  0  0  0  0  0  0
  162.0400  206.2010  152.6670 C   0  0  0  0  0  3  0  0  0  0  0  0
  163.1210  205.9320  152.1710 O   0  0  0  0  0  0  0  0  0  0  0  0
  2  1  1  0  0  0  0
  3  1  2  0  0  0  0
  4  2  2  0  0  0  0
  5  6  2  0  0  0  0
  5  4  1  0  0  0  0
  6  3  1  0  0  0  0
  7  8  1  6  0  0  0
  7  4  1  0  0  0  0
  7 10  1  0  0  0  0
  8  9  1  0  0  0  0
 10 11  1  0  0  0  0
 11 12  1  0  0  0  0
 13 17  1  1  0  0  0
 13 18  1  0  0  0  0
 15 12  1  6  0  0  0
 15 16  1  0  0  0  0
 15 13  1  0  0  0  0
 16 13  1  0  0  0  0
 16 14  1  1  0  0  0
 18 20  1  0  0  0  0
 20 21  1  0  0  0  0
 20 19  2  0  0  0  0
 22 21  1  0  0  0  0
 23 28  1  0  0  0  0
 23 18  1  0  0  0  0
 25 24  2  0  0  0  0
 26 29  2  0  0  0  0
 27 25  1  0  0  0  0
 28 27  2  0  0  0  0
 28 26  1  0  0  0  0
 29 24  1  0  0  0  0
 30 15  1  0  0  0  0
 31 30  1  0  0  0  0
 32  6  1  0  0  0  0
 33 42  1  1  0  0  0
 34 36  1  1  0  0  0
 34 37  1  0  0  0  0
 35 40  1  6  0  0  0
 35 34  1  0  0  0  0
 35 37  1  0  0  0  0
 36 39  1  0  0  0  0
 37 33  1  0  0  0  0
 38 33  1  0  0  0  0
 39 32  1  0  0  0  0
 39 38  1  0  0  0  0
 41 40  1  0  0  0  0
 42 48  1  0  0  0  0
 42 49  1  0  0  0  0
 43 46  1  0  0  0  0
 44 43  1  0  0  0  0
 44 48  1  0  0  0  0
 45 47  1  0  0  0  0
 46 47  1  0  0  0  0
 48 45  1  0  0  0  0
 49 50  1  0  0  0  0
 50 51  1  0  0  0  0
 52 51  2  0  0  0  0
M  END
>  <MODEL>
2

>  <REMARK>
 VINA RESULT:      -5.4      5.782      9.872
  Name = 
  19 active torsions:
  status: ('A' for Active; 'I' for Inactive)
    1  A    between atoms: C_1  and  O_22
    2  A    between atoms: C_1  and  C_38
    3  A    between atoms: C_1  and  N_47
    4  A    between atoms: C_2  and  C_39
    5  A    between atoms: N_3  and  C_17
    6  A    between atoms: C_4  and  N_5
    7  A    between atoms: N_5  and  O_42
    8  A    between atoms: C_7  and  N_13
    9  A    between atoms: O_9  and  C_48
   10  A    between atoms: O_9  and  C_49
   11  A    between atoms: C_15  and  C_39
   12  A    between atoms: C_15  and  C_51
   13  A    between atoms: C_17  and  C_32
   14  A    between atoms: C_21  and  O_24
   15  A    between atoms: C_32  and  C_43
   16  A    between atoms: C_39  and  C_52
   17  A    between atoms: C_40  and  C_51
   18  A    between atoms: O_42  and  C_44
   19  A    between atoms: C_43  and  N_47
                            x       y       z     vdW  Elec       q    Type
                         _______ _______ _______ _____ _____    ______ ____

>  <TORSDO>
F 19

$$$$
=
 OpenBabel11072412493D

 52 57  0  0  1  0  0  0  0  0999 V2000
  162.1990  209.8610  151.2970 C   0  0  0  0  0  3  0  0  0  0  0  0
  161.9390  211.1060  150.8150 N   0  0  0  0  0  0  0  0  0  0  0  0
  162.3080  208.7800  150.4200 C   0  0  0  0  0  3  0  0  0  0  0  0
  161.7600  211.3390  149.4850 C   0  0  0  0  0  0  0  0  0  0  0  0
  161.8610  210.2770  148.5760 C   0  0  0  0  0  3  0  0  0  0  0  0
  162.1440  208.9860  149.0470 C   0  0  0  0  0  0  0  0  0  0  0  0
  161.5300  212.7460  149.0210 C   0  0  1  0  0  3  0  0  0  0  0  0
  162.1450  213.0160  147.7830 O   0  0  0  0  0  0  0  0  0  0  0  0
  162.8890  214.0970  147.9470 O   0  0  0  0  0  1  0  0  0  0  0  0
  160.1190  213.1230  149.0240 N   0  0  0  0  0  2  0  0  0  0  0  0
  159.8300  213.7160  150.3230 C   0  0  0  0  0  2  0  0  0  0  0  0
  158.8860  212.8310  151.1340 C   0  0  0  0  0  2  0  0  0  0  0  0
  157.2430  213.1660  153.1670 C   0  0  1  0  0  0  0  0  0  0  0  0
  159.3970  214.2630  153.4470 O   0  0  0  0  0  1  0  0  0  0  0  0
  157.7470  213.6220  151.8020 C   0  0  1  0  0  0  0  0  0  0  0  0
  158.0680  214.4530  153.0560 C   0  0  1  0  0  3  0  0  0  0  0  0
  155.8740  213.3290  153.3870 O   0  0  0  0  0  1  0  0  0  0  0  0
  157.8680  211.9910  153.7870 N   0  0  0  0  0  0  0  0  0  0  0  0
  157.9920  210.7660  155.7690 O   0  0  0  0  0  0  0  0  0  0  0  0
  157.2570  211.3110  154.9030 C   0  0  0  0  0  0  0  0  0  0  0  0
  155.8720  211.2340  155.0580 O   0  0  0  0  0  0  0  0  0  0  0  0
  155.2750  210.1810  155.6310 O   0  0  0  0  0  1  0  0  0  0  0  0
  159.0960  211.5820  153.2950 O   0  0  0  0  0  0  0  0  0  0  0  0
  161.7090  209.1160  155.4800 C   0  0  0  0  0  3  0  0  0  0  0  0
  161.8700  210.5020  155.5310 C   0  0  0  0  0  3  0  0  0  0  0  0
  159.8320  209.3890  153.9730 C   0  0  0  0  0  3  0  0  0  0  0  0
  161.0120  211.3320  154.8040 C   0  0  0  0  0  3  0  0  0  0  0  0
  159.9910  210.7790  154.0130 C   0  0  0  0  0  0  0  0  0  0  0  0
  160.6890  208.5600  154.7040 C   0  0  0  0  0  3  0  0  0  0  0  0
  156.7350  214.2430  150.9460 N   0  0  0  0  0  2  0  0  0  0  0  0
  156.8720  213.7190  149.5940 C   0  0  0  0  0  1  0  0  0  0  0  0
  162.2940  207.8860  148.1890 O   0  0  0  0  0  0  0  0  0  0  0  0
  162.0120  204.1600  148.0660 C   0  0  2  0  0  3  0  0  0  0  0  0
  160.3040  205.0910  149.8770 C   0  0  1  0  0  3  0  0  0  0  0  0
  161.3160  204.1420  150.5150 C   0  0  2  0  0  3  0  0  0  0  0  0
  160.9610  206.4660  149.6800 C   0  0  0  0  0  2  0  0  0  0  0  0
  160.8770  203.9020  149.0870 C   0  0  2  0  0  3  0  0  0  0  0  0
  162.7370  205.4950  148.2610 C   0  0  0  0  0  2  0  0  0  0  0  0
  161.7050  206.5950  148.3620 C   0  0  2  0  0  3  0  0  0  0  0  0
  160.6300  203.1970  151.3830 N   0  0  0  0  0  2  0  0  0  0  0  0
  160.8340  201.8760  150.8100 C   0  0  0  0  0  1  0  0  0  0  0  0
  161.4930  204.0130  146.6160 C   0  0  2  0  0  3  0  0  0  0  0  0
  161.4160  200.1160  146.6620 C   0  0  0  0  0  2  0  0  0  0  0  0
  161.4560  201.5290  147.2370 C   0  0  0  0  0  2  0  0  0  0  0  0
  160.1610  202.3580  145.2330 C   0  0  0  0  0  2  0  0  0  0  0  0
  160.1550  199.9230  145.8270 C   0  0  0  0  0  2  0  0  0  0  0  0
  160.1260  200.9340  144.6830 C   0  0  0  0  0  2  0  0  0  0  0  0
  161.3940  202.5630  146.1080 C   0  0  0  0  0  3  0  0  0  0  0  0
  162.3380  204.8310  145.6370 C   0  0  0  0  0  2  0  0  0  0  0  0
  161.5630  205.1300  144.3600 C   0  0  0  0  0  2  0  0  0  0  0  0
  160.2830  205.8380  144.6650 C   0  0  0  0  0  3  0  0  0  0  0  0
  160.2340  206.6650  145.5600 O   0  0  0  0  0  0  0  0  0  0  0  0
  2  1  1  0  0  0  0
  3  1  2  0  0  0  0
  4  2  2  0  0  0  0
  5  6  2  0  0  0  0
  5  4  1  0  0  0  0
  6  3  1  0  0  0  0
  7  8  1  6  0  0  0
  7 10  1  0  0  0  0
  7  4  1  0  0  0  0
  8  9  1  0  0  0  0
 10 11  1  0  0  0  0
 11 12  1  0  0  0  0
 13 17  1  1  0  0  0
 13 18  1  0  0  0  0
 15 12  1  6  0  0  0
 15 16  1  0  0  0  0
 15 13  1  0  0  0  0
 16 13  1  0  0  0  0
 16 14  1  1  0  0  0
 18 20  1  0  0  0  0
 20 21  1  0  0  0  0
 20 19  2  0  0  0  0
 21 22  1  0  0  0  0
 23 18  1  0  0  0  0
 23 28  1  0  0  0  0
 24 25  1  0  0  0  0
 26 28  2  0  0  0  0
 26 29  1  0  0  0  0
 27 25  2  0  0  0  0
 28 27  1  0  0  0  0
 29 24  2  0  0  0  0
 30 15  1  0  0  0  0
 31 30  1  0  0  0  0
 32 39  1  0  0  0  0
 32  6  1  0  0  0  0
 33 42  1  6  0  0  0
 33 38  1  0  0  0  0
 33 37  1  0  0  0  0
 34 36  1  6  0  0  0
 34 35  1  0  0  0  0
 35 40  1  1  0  0  0
 37 34  1  0  0  0  0
 37 35  1  0  0  0  0
 38 39  1  0  0  0  0
 39 36  1  0  0  0  0
 41 40  1  0  0  0  0
 43 44  1  0  0  0  0
 45 48  1  0  0  0  0
 46 43  1  0  0  0  0
 47 45  1  0  0  0  0
 47 46  1  0  0  0  0
 48 42  1  0  0  0  0
 48 44  1  0  0  0  0
 49 42  1  0  0  0  0
 50 51  1  0  0  0  0
 50 49  1  0  0  0  0
 51 52  2  0  0  0  0
M  END
>  <MODEL>
3

>  <REMARK>
 VINA RESULT:      -5.2      5.331     10.027
  Name = 
  19 active torsions:
  status: ('A' for Active; 'I' for Inactive)
    1  A    between atoms: C_1  and  O_22
    2  A    between atoms: C_1  and  C_38
    3  A    between atoms: C_1  and  N_47
    4  A    between atoms: C_2  and  C_39
    5  A    between atoms: N_3  and  C_17
    6  A    between atoms: C_4  and  N_5
    7  A    between atoms: N_5  and  O_42
    8  A    between atoms: C_7  and  N_13
    9  A    between atoms: O_9  and  C_48
   10  A    between atoms: O_9  and  C_49
   11  A    between atoms: C_15  and  C_39
   12  A    between atoms: C_15  and  C_51
   13  A    between atoms: C_17  and  C_32
   14  A    between atoms: C_21  and  O_24
   15  A    between atoms: C_32  and  C_43
   16  A    between atoms: C_39  and  C_52
   17  A    between atoms: C_40  and  C_51
   18  A    between atoms: O_42  and  C_44
   19  A    between atoms: C_43  and  N_47
                            x       y       z     vdW  Elec       q    Type
                         _______ _______ _______ _____ _____    ______ ____

>  <TORSDO>
F 19

$$$$
=
 OpenBabel11072412493D

 52 57  0  0  1  0  0  0  0  0999 V2000
  162.1490  210.6820  148.9360 C   0  0  0  0  0  3  0  0  0  0  0  0
  161.7650  210.6420  150.2400 N   0  0  0  0  0  0  0  0  0  0  0  0
  162.1550  209.5120  148.1730 C   0  0  0  0  0  3  0  0  0  0  0  0
  161.3970  209.4790  150.8460 C   0  0  0  0  0  0  0  0  0  0  0  0
  161.3920  208.2860  150.1100 C   0  0  0  0  0  3  0  0  0  0  0  0
  161.7690  208.3030  148.7590 C   0  0  0  0  0  0  0  0  0  0  0  0
  160.9340  209.5200  152.2720 C   0  0  1  0  0  3  0  0  0  0  0  0
  161.6360  208.6180  153.0950 O   0  0  0  0  0  0  0  0  0  0  0  0
  160.8090  207.6250  153.3750 O   0  0  0  0  0  1  0  0  0  0  0  0
  160.9200  210.8700  152.8270 N   0  0  0  0  0  2  0  0  0  0  0  0
  159.7430  211.5460  152.2980 C   0  0  0  0  0  2  0  0  0  0  0  0
  158.6550  211.6700  153.3640 C   0  0  0  0  0  2  0  0  0  0  0  0
  157.6300  213.4950  154.9640 C   0  0  1  0  0  0  0  0  0  0  0  0
  160.0390  213.2280  155.1850 O   0  0  0  0  0  1  0  0  0  0  0  0
  158.2140  213.1250  153.6040 C   0  0  1  0  0  0  0  0  0  0  0  0
  159.0310  213.9870  154.5820 C   0  0  1  0  0  3  0  0  0  0  0  0
  156.6150  214.4530  154.9410 O   0  0  0  0  0  1  0  0  0  0  0  0
  157.5160  212.4480  155.9860 N   0  0  0  0  0  0  0  0  0  0  0  0
  155.9830  211.2360  157.2600 O   0  0  0  0  0  0  0  0  0  0  0  0
  156.3220  211.6500  156.1200 C   0  0  0  0  0  0  0  0  0  0  0  0
  155.5240  211.3160  155.0240 O   0  0  0  0  0  0  0  0  0  0  0  0
  155.2620  210.0460  154.6920 O   0  0  0  0  0  1  0  0  0  0  0  0
  158.5820  212.2790  156.8550 O   0  0  0  0  0  0  0  0  0  0  0  0
  161.2520  209.0350  156.6910 C   0  0  0  0  0  3  0  0  0  0  0  0
  159.9050  208.8320  156.3830 C   0  0  0  0  0  3  0  0  0  0  0  0
  160.8010  211.3770  157.1160 C   0  0  0  0  0  3  0  0  0  0  0  0
  159.0060  209.9010  156.4400 C   0  0  0  0  0  3  0  0  0  0  0  0
  159.4490  211.1810  156.8150 C   0  0  0  0  0  0  0  0  0  0  0  0
  161.7000  210.3070  157.0540 C   0  0  0  0  0  3  0  0  0  0  0  0
  157.6810  213.8880  152.4750 N   0  0  0  0  0  2  0  0  0  0  0  0
  157.7960  213.0850  151.2650 C   0  0  0  0  0  1  0  0  0  0  0  0
  161.7530  207.1520  147.9560 O   0  0  0  0  0  0  0  0  0  0  0  0
  161.7270  203.4190  148.1430 C   0  0  2  0  0  3  0  0  0  0  0  0
  160.5000  204.3930  150.2890 C   0  0  1  0  0  3  0  0  0  0  0  0
  161.7140  203.5550  150.6850 C   0  0  2  0  0  3  0  0  0  0  0  0
  160.9770  205.7820  149.8370 C   0  0  0  0  0  2  0  0  0  0  0  0
  160.9290  203.1790  149.4470 C   0  0  2  0  0  3  0  0  0  0  0  0
  162.3770  204.8030  148.0520 C   0  0  0  0  0  2  0  0  0  0  0  0
  161.3300  205.8480  148.3610 C   0  0  2  0  0  3  0  0  0  0  0  0
  161.3570  202.6450  151.7620 N   0  0  0  0  0  2  0  0  0  0  0  0
  160.1220  201.9880  151.3660 C   0  0  0  0  0  1  0  0  0  0  0  0
  160.8530  203.1280  146.9000 C   0  0  2  0  0  3  0  0  0  0  0  0
  160.0960  199.8500  144.9330 C   0  0  0  0  0  2  0  0  0  0  0  0
  160.4060  201.3300  145.1330 C   0  0  0  0  0  2  0  0  0  0  0  0
  161.6840  200.7570  147.2350 C   0  0  0  0  0  2  0  0  0  0  0  0
  161.2150  198.9940  145.5170 C   0  0  0  0  0  2  0  0  0  0  0  0
  161.3690  199.2800  147.0090 C   0  0  0  0  0  2  0  0  0  0  0  0
  160.5970  201.6360  146.6220 C   0  0  0  0  0  3  0  0  0  0  0  0
  161.4370  203.7790  145.6450 C   0  0  0  0  0  2  0  0  0  0  0  0
  160.4770  204.8080  145.0620 C   0  0  0  0  0  2  0  0  0  0  0  0
  161.2220  205.9420  144.4360 C   0  0  0  0  0  3  0  0  0  0  0  0
  161.3200  206.0190  143.2230 O   0  0  0  0  0  0  0  0  0  0  0  0
  1  2  1  0  0  0  0
  2  4  2  0  0  0  0
  3  6  1  0  0  0  0
  3  1  2  0  0  0  0
  4  7  1  0  0  0  0
  5  4  1  0  0  0  0
  6  5  2  0  0  0  0
  7 10  1  1  0  0  0
  7  8  1  0  0  0  0
  8  9  1  0  0  0  0
 11 10  1  0  0  0  0
 11 12  1  0  0  0  0
 13 17  1  6  0  0  0
 13 18  1  0  0  0  0
 15 12  1  6  0  0  0
 15 16  1  0  0  0  0
 15 13  1  0  0  0  0
 16 13  1  0  0  0  0
 16 14  1  1  0  0  0
 18 20  1  0  0  0  0
 18 23  1  0  0  0  0
 20 19  2  0  0  0  0
 21 20  1  0  0  0  0
 22 21  1  0  0  0  0
 24 29  1  0  0  0  0
 25 27  1  0  0  0  0
 25 24  2  0  0  0  0
 27 28  2  0  0  0  0
 28 23  1  0  0  0  0
 28 26  1  0  0  0  0
 29 26  2  0  0  0  0
 30 15  1  0  0  0  0
 31 30  1  0  0  0  0
 32 39  1  0  0  0  0
 32  6  1  0  0  0  0
 33 42  1  6  0  0  0
 33 37  1  0  0  0  0
 34 36  1  6  0  0  0
 34 35  1  0  0  0  0
 35 40  1  1  0  0  0
 37 34  1  0  0  0  0
 37 35  1  0  0  0  0
 38 33  1  0  0  0  0
 38 39  1  0  0  0  0
 39 36  1  0  0  0  0
 41 40  1  0  0  0  0
 43 44  1  0  0  0  0
 43 46  1  0  0  0  0
 44 48  1  0  0  0  0
 46 47  1  0  0  0  0
 47 45  1  0  0  0  0
 48 42  1  0  0  0  0
 48 45  1  0  0  0  0
 49 42  1  0  0  0  0
 50 49  1  0  0  0  0
 51 50  1  0  0  0  0
 52 51  2  0  0  0  0
M  END
>  <MODEL>
4

>  <REMARK>
 VINA RESULT:      -4.5      5.428     11.220
  Name = 
  19 active torsions:
  status: ('A' for Active; 'I' for Inactive)
    1  A    between atoms: C_1  and  O_22
    2  A    between atoms: C_1  and  C_38
    3  A    between atoms: C_1  and  N_47
    4  A    between atoms: C_2  and  C_39
    5  A    between atoms: N_3  and  C_17
    6  A    between atoms: C_4  and  N_5
    7  A    between atoms: N_5  and  O_42
    8  A    between atoms: C_7  and  N_13
    9  A    between atoms: O_9  and  C_48
   10  A    between atoms: O_9  and  C_49
   11  A    between atoms: C_15  and  C_39
   12  A    between atoms: C_15  and  C_51
   13  A    between atoms: C_17  and  C_32
   14  A    between atoms: C_21  and  O_24
   15  A    between atoms: C_32  and  C_43
   16  A    between atoms: C_39  and  C_52
   17  A    between atoms: C_40  and  C_51
   18  A    between atoms: O_42  and  C_44
   19  A    between atoms: C_43  and  N_47
                            x       y       z     vdW  Elec       q    Type
                         _______ _______ _______ _____ _____    ______ ____

>  <TORSDO>
F 19

$$$$
=
 OpenBabel11072412493D

 52 57  0  0  1  0  0  0  0  0999 V2000
  161.1930  213.9520  148.3900 C   0  0  0  0  0  3  0  0  0  0  0  0
  160.5600  213.6050  147.2370 N   0  0  0  0  0  0  0  0  0  0  0  0
  161.7910  212.9690  149.1820 C   0  0  0  0  0  3  0  0  0  0  0  0
  160.4720  212.3100  146.8260 C   0  0  0  0  0  0  0  0  0  0  0  0
  161.0600  211.2980  147.5970 C   0  0  0  0  0  3  0  0  0  0  0  0
  161.7320  211.6310  148.7830 C   0  0  0  0  0  0  0  0  0  0  0  0
  159.8050  212.0090  145.5170 C   0  0  1  0  0  3  0  0  0  0  0  0
  158.6330  212.7640  145.3190 O   0  0  0  0  0  0  0  0  0  0  0  0
  157.9910  212.7920  146.4750 O   0  0  0  0  0  1  0  0  0  0  0  0
  160.7160  212.1040  144.3800 N   0  0  0  0  0  2  0  0  0  0  0  0
  159.9020  212.2740  143.1840 C   0  0  0  0  0  2  0  0  0  0  0  0
  160.7450  212.7710  142.0100 C   0  0  0  0  0  2  0  0  0  0  0  0
  160.3320  212.4330  139.4300 C   0  0  1  0  0  0  0  0  0  0  0  0
  159.3060  210.7240  140.8260 O   0  0  0  0  0  1  0  0  0  0  0  0
  159.9080  213.0640  140.7520 C   0  0  1  0  0  0  0  0  0  0  0  0
  159.0750  211.9230  140.1430 C   0  0  1  0  0  3  0  0  0  0  0  0
  160.1200  213.2180  138.2950 O   0  0  0  0  0  1  0  0  0  0  0  0
  161.5200  211.5710  139.4140 N   0  0  0  0  0  0  0  0  0  0  0  0
  162.2230  209.3510  139.5660 O   0  0  0  0  0  0  0  0  0  0  0  0
  161.4410  210.1830  139.0320 C   0  0  0  0  0  0  0  0  0  0  0  0
  160.5240  209.7240  138.0850 O   0  0  0  0  0  0  0  0  0  0  0  0
  160.8250  208.7550  137.2100 O   0  0  0  0  0  1  0  0  0  0  0  0
  162.7210  212.1240  139.8270 O   0  0  0  0  0  0  0  0  0  0  0  0
  165.1310  214.4390  137.2740 C   0  0  0  0  0  3  0  0  0  0  0  0
  165.7030  213.8340  138.3960 C   0  0  0  0  0  3  0  0  0  0  0  0
  162.9750  213.5120  137.8730 C   0  0  0  0  0  3  0  0  0  0  0  0
  164.9100  213.0670  139.2560 C   0  0  0  0  0  3  0  0  0  0  0  0
  163.5380  212.9080  139.0030 C   0  0  0  0  0  0  0  0  0  0  0  0
  163.7690  214.2750  137.0110 C   0  0  0  0  0  3  0  0  0  0  0  0
  159.2620  214.3720  140.6330 N   0  0  0  0  0  2  0  0  0  0  0  0
  157.9970  214.3420  141.3540 C   0  0  0  0  0  1  0  0  0  0  0  0
  162.3720  210.6710  149.5820 O   0  0  0  0  0  0  0  0  0  0  0  0
  160.6440  207.3680  149.8580 C   0  0  2  0  0  3  0  0  0  0  0  0
  162.6660  207.1380  148.1490 C   0  0  1  0  0  3  0  0  0  0  0  0
  161.3360  206.8170  147.4710 C   0  0  2  0  0  3  0  0  0  0  0  0
  162.8230  208.6640  148.2470 C   0  0  0  0  0  2  0  0  0  0  0  0
  161.5170  206.4840  148.9360 C   0  0  2  0  0  3  0  0  0  0  0  0
  160.7400  208.8680  149.5610 C   0  0  0  0  0  2  0  0  0  0  0  0
  162.1990  209.2550  149.5000 C   0  0  2  0  0  3  0  0  0  0  0  0
  161.4600  205.5950  146.6920 N   0  0  0  0  0  2  0  0  0  0  0  0
  162.2980  205.9100  145.5470 C   0  0  0  0  0  1  0  0  0  0  0  0
  160.9400  207.0730  151.3480 C   0  0  2  0  0  3  0  0  0  0  0  0
  160.4310  209.2610  154.5320 C   0  0  0  0  0  2  0  0  0  0  0  0
  160.4740  207.9880  153.6930 C   0  0  0  0  0  2  0  0  0  0  0  0
  162.2860  209.0160  152.2640 C   0  0  0  0  0  2  0  0  0  0  0  0
  161.8010  209.9290  154.5480 C   0  0  0  0  0  2  0  0  0  0  0  0
  162.2300  210.2770  153.1240 C   0  0  0  0  0  2  0  0  0  0  0  0
  160.9340  208.3070  152.2670 C   0  0  0  0  0  3  0  0  0  0  0  0
  162.2680  206.3310  151.5140 C   0  0  0  0  0  2  0  0  0  0  0  0
  162.0860  205.0530  152.3210 C   0  0  0  0  0  2  0  0  0  0  0  0
  161.5710  203.9450  151.4610 C   0  0  0  0  0  3  0  0  0  0  0  0
  161.1430  202.9210  151.9660 O   0  0  0  0  0  0  0  0  0  0  0  0
  1  3  1  0  0  0  0
  2  1  2  0  0  0  0
  4  2  1  0  0  0  0
  4  5  2  0  0  0  0
  5  6  1  0  0  0  0
  6  3  2  0  0  0  0
  6 32  1  0  0  0  0
  7 10  1  6  0  0  0
  7  4  1  0  0  0  0
  8  7  1  0  0  0  0
  8  9  1  0  0  0  0
 11 10  1  0  0  0  0
 12 11  1  0  0  0  0
 13 17  1  6  0  0  0
 13 16  1  0  0  0  0
 13 15  1  0  0  0  0
 15 12  1  1  0  0  0
 16 15  1  0  0  0  0
 16 14  1  1  0  0  0
 18 13  1  0  0  0  0
 18 23  1  0  0  0  0
 20 18  1  0  0  0  0
 20 19  2  0  0  0  0
 21 20  1  0  0  0  0
 22 21  1  0  0  0  0
 24 25  1  0  0  0  0
 25 27  2  0  0  0  0
 26 28  2  0  0  0  0
 28 27  1  0  0  0  0
 28 23  1  0  0  0  0
 29 24  2  0  0  0  0
 29 26  1  0  0  0  0
 30 15  1  0  0  0  0
 30 31  1  0  0  0  0
 33 42  1  1  0  0  0
 34 36  1  1  0  0  0
 34 37  1  0  0  0  0
 35 40  1  6  0  0  0
 35 34  1  0  0  0  0
 35 37  1  0  0  0  0
 36 39  1  0  0  0  0
 37 33  1  0  0  0  0
 38 33  1  0  0  0  0
 39 38  1  0  0  0  0
 39 32  1  0  0  0  0
 41 40  1  0  0  0  0
 42 49  1  0  0  0  0
 42 48  1  0  0  0  0
 43 46  1  0  0  0  0
 44 43  1  0  0  0  0
 45 48  1  0  0  0  0
 45 47  1  0  0  0  0
 47 46  1  0  0  0  0
 48 44  1  0  0  0  0
 49 50  1  0  0  0  0
 51 52  2  0  0  0  0
 51 50  1  0  0  0  0
M  END
>  <MODEL>
5

>  <REMARK>
 VINA RESULT:      -3.1      2.041      3.823
  Name = 
  19 active torsions:
  status: ('A' for Active; 'I' for Inactive)
    1  A    between atoms: C_1  and  O_22
    2  A    between atoms: C_1  and  C_38
    3  A    between atoms: C_1  and  N_47
    4  A    between atoms: C_2  and  C_39
    5  A    between atoms: N_3  and  C_17
    6  A    between atoms: C_4  and  N_5
    7  A    between atoms: N_5  and  O_42
    8  A    between atoms: C_7  and  N_13
    9  A    between atoms: O_9  and  C_48
   10  A    between atoms: O_9  and  C_49
   11  A    between atoms: C_15  and  C_39
   12  A    between atoms: C_15  and  C_51
   13  A    between atoms: C_17  and  C_32
   14  A    between atoms: C_21  and  O_24
   15  A    between atoms: C_32  and  C_43
   16  A    between atoms: C_39  and  C_52
   17  A    between atoms: C_40  and  C_51
   18  A    between atoms: O_42  and  C_44
   19  A    between atoms: C_43  and  N_47
                            x       y       z     vdW  Elec       q    Type
                         _______ _______ _______ _____ _____    ______ ____

>  <TORSDO>
F 19

$$$$
=
 OpenBabel11072412493D

 52 57  0  0  1  0  0  0  0  0999 V2000
  160.5420  207.6850  153.7490 C   0  0  0  0  0  3  0  0  0  0  0  0
  161.1160  207.4200  152.5440 N   0  0  0  0  0  0  0  0  0  0  0  0
  160.4840  208.9970  154.2220 C   0  0  0  0  0  3  0  0  0  0  0  0
  161.6590  208.4040  151.7760 C   0  0  0  0  0  0  0  0  0  0  0  0
  161.6190  209.7320  152.2200 C   0  0  0  0  0  3  0  0  0  0  0  0
  161.0200  210.0330  153.4530 C   0  0  0  0  0  0  0  0  0  0  0  0
  162.2260  208.0450  150.4340 C   0  0  1  0  0  3  0  0  0  0  0  0
  163.1800  207.0120  150.5080 O   0  0  0  0  0  0  0  0  0  0  0  0
  163.2250  206.6150  151.7690 O   0  0  0  0  0  1  0  0  0  0  0  0
  161.1960  207.7680  149.4370 N   0  0  0  0  0  2  0  0  0  0  0  0
  161.8730  207.4940  148.1760 C   0  0  0  0  0  2  0  0  0  0  0  0
  162.1450  206.0000  148.0120 C   0  0  0  0  0  2  0  0  0  0  0  0
  161.2820  204.2010  146.2910 C   0  0  1  0  0  0  0  0  0  0  0  0
  159.6310  205.8960  146.8600 O   0  0  0  0  0  1  0  0  0  0  0  0
  161.9990  205.5210  146.5560 C   0  0  1  0  0  0  0  0  0  0  0  0
  160.5980  205.5220  145.9210 C   0  0  1  0  0  3  0  0  0  0  0  0
  161.7830  203.4480  145.2270 O   0  0  0  0  0  1  0  0  0  0  0  0
  160.7600  203.4450  147.4360 N   0  0  0  0  0  0  0  0  0  0  0  0
  159.5250  201.5540  148.0230 O   0  0  0  0  0  0  0  0  0  0  0  0
  160.4680  202.0350  147.3400 C   0  0  0  0  0  0  0  0  0  0  0  0
  161.1990  201.1790  146.5150 O   0  0  0  0  0  0  0  0  0  0  0  0
  161.5990  199.9670  146.9190 O   0  0  0  0  0  1  0  0  0  0  0  0
  160.5100  204.1420  148.6060 O   0  0  0  0  0  0  0  0  0  0  0  0
  161.2540  202.6540  152.4680 C   0  0  0  0  0  3  0  0  0  0  0  0
  161.3990  201.8070  151.3660 C   0  0  0  0  0  3  0  0  0  0  0  0
  160.6060  204.4630  150.9930 C   0  0  0  0  0  3  0  0  0  0  0  0
  161.1480  202.2890  150.0780 C   0  0  0  0  0  3  0  0  0  0  0  0
  160.7420  203.6200  149.8840 C   0  0  0  0  0  0  0  0  0  0  0  0
  160.8610  203.9810  152.2810 C   0  0  0  0  0  3  0  0  0  0  0  0
  163.0610  205.8490  145.6040 N   0  0  0  0  0  2  0  0  0  0  0  0
  164.1900  204.9560  145.8270 C   0  0  0  0  0  1  0  0  0  0  0  0
  160.9150  211.3450  153.9400 O   0  0  0  0  0  0  0  0  0  0  0  0
  158.0150  212.7930  152.0770 C   0  0  2  0  0  3  0  0  0  0  0  0
  158.2280  214.0240  154.4240 C   0  0  1  0  0  3  0  0  0  0  0  0
  156.8740  213.3300  154.2890 C   0  0  2  0  0  3  0  0  0  0  0  0
  159.2930  212.9770  154.7890 C   0  0  0  0  0  2  0  0  0  0  0  0
  157.5390  213.8960  153.0530 C   0  0  2  0  0  3  0  0  0  0  0  0
  158.8230  211.6750  152.7420 C   0  0  0  0  0  2  0  0  0  0  0  0
  159.9150  212.3010  153.5800 C   0  0  2  0  0  3  0  0  0  0  0  0
  155.8120  214.2320  154.7070 N   0  0  0  0  0  2  0  0  0  0  0  0
  155.9830  214.4480  156.1340 C   0  0  0  0  0  1  0  0  0  0  0  0
  158.7860  213.4080  150.8850 C   0  0  2  0  0  3  0  0  0  0  0  0
  157.4670  214.4440  147.3670 C   0  0  0  0  0  2  0  0  0  0  0  0
  158.3450  213.7190  148.3820 C   0  0  0  0  0  2  0  0  0  0  0  0
  156.4250  213.7350  150.0230 C   0  0  0  0  0  2  0  0  0  0  0  0
  156.0040  214.0720  147.5750 C   0  0  0  0  0  2  0  0  0  0  0  0
  155.5630  214.4520  148.9860 C   0  0  0  0  0  2  0  0  0  0  0  0
  157.9010  214.0600  149.8080 C   0  0  0  0  0  3  0  0  0  0  0  0
  159.7020  212.3760  150.2240 C   0  0  0  0  0  2  0  0  0  0  0  0
  161.1070  212.9320  150.0320 C   0  0  0  0  0  2  0  0  0  0  0  0
  161.8620  212.1380  149.0160 C   0  0  0  0  0  3  0  0  0  0  0  0
  161.4110  211.9870  147.8930 O   0  0  0  0  0  0  0  0  0  0  0  0
  1  3  1  0  0  0  0
  2  1  2  0  0  0  0
  4  5  2  0  0  0  0
  4  2  1  0  0  0  0
  5  6  1  0  0  0  0
  6 32  1  0  0  0  0
  6  3  2  0  0  0  0
  7 10  1  6  0  0  0
  7  8  1  0  0  0  0
  7  4  1  0  0  0  0
  8  9  1  0  0  0  0
 11 10  1  0  0  0  0
 12 11  1  0  0  0  0
 13 17  1  6  0  0  0
 13 15  1  0  0  0  0
 13 18  1  0  0  0  0
 15 12  1  1  0  0  0
 16 13  1  0  0  0  0
 16 15  1  0  0  0  0
 16 14  1  1  0  0  0
 18 23  1  0  0  0  0
 20 18  1  0  0  0  0
 20 19  2  0  0  0  0
 21 22  1  0  0  0  0
 21 20  1  0  0  0  0
 23 28  1  0  0  0  0
 25 24  2  0  0  0  0
 26 29  2  0  0  0  0
 27 25  1  0  0  0  0
 28 27  2  0  0  0  0
 28 26  1  0  0  0  0
 29 24  1  0  0  0  0
 30 31  1  0  0  0  0
 30 15  1  0  0  0  0
 33 42  1  6  0  0  0
 33 38  1  0  0  0  0
 33 37  1  0  0  0  0
 34 36  1  6  0  0  0
 35 34  1  0  0  0  0
 35 40  1  1  0  0  0
 37 35  1  0  0  0  0
 37 34  1  0  0  0  0
 38 39  1  0  0  0  0
 39 32  1  0  0  0  0
 39 36  1  0  0  0  0
 40 41  1  0  0  0  0
 43 46  1  0  0  0  0
 43 44  1  0  0  0  0
 44 48  1  0  0  0  0
 46 47  1  0  0  0  0
 47 45  1  0  0  0  0
 48 45  1  0  0  0  0
 48 42  1  0  0  0  0
 49 42  1  0  0  0  0
 50 49  1  0  0  0  0
 51 50  1  0  0  0  0
 52 51  2  0  0  0  0
M  END
>  <MODEL>
6

>  <REMARK>
 VINA RESULT:      -2.9      5.651     10.428
  Name = 
  19 active torsions:
  status: ('A' for Active; 'I' for Inactive)
    1  A    between atoms: C_1  and  O_22
    2  A    between atoms: C_1  and  C_38
    3  A    between atoms: C_1  and  N_47
    4  A    between atoms: C_2  and  C_39
    5  A    between atoms: N_3  and  C_17
    6  A    between atoms: C_4  and  N_5
    7  A    between atoms: N_5  and  O_42
    8  A    between atoms: C_7  and  N_13
    9  A    between atoms: O_9  and  C_48
   10  A    between atoms: O_9  and  C_49
   11  A    between atoms: C_15  and  C_39
   12  A    between atoms: C_15  and  C_51
   13  A    between atoms: C_17  and  C_32
   14  A    between atoms: C_21  and  O_24
   15  A    between atoms: C_32  and  C_43
   16  A    between atoms: C_39  and  C_52
   17  A    between atoms: C_40  and  C_51
   18  A    between atoms: O_42  and  C_44
   19  A    between atoms: C_43  and  N_47
                            x       y       z     vdW  Elec       q    Type
                         _______ _______ _______ _____ _____    ______ ____

>  <TORSDO>
F 19

$$$$
=
 OpenBabel11072412493D

 52 57  0  0  1  0  0  0  0  0999 V2000
  163.1030  209.2040  151.0590 C   0  0  0  0  0  3  0  0  0  0  0  0
  162.5790  210.4580  151.1150 N   0  0  0  0  0  0  0  0  0  0  0  0
  162.6330  208.2910  150.1120 C   0  0  0  0  0  3  0  0  0  0  0  0
  161.5820  210.8580  150.2770 C   0  0  0  0  0  0  0  0  0  0  0  0
  161.0870  209.9670  149.3150 C   0  0  0  0  0  3  0  0  0  0  0  0
  161.6220  208.6730  149.2270 C   0  0  0  0  0  0  0  0  0  0  0  0
  161.0900  212.2730  150.3600 C   0  0  1  0  0  3  0  0  0  0  0  0
  161.4690  213.0440  149.2450 O   0  0  0  0  0  0  0  0  0  0  0  0
  160.9050  212.4940  148.1830 O   0  0  0  0  0  1  0  0  0  0  0  0
  159.6580  212.3620  150.6260 N   0  0  0  0  0  2  0  0  0  0  0  0
  159.4980  212.7430  152.0230 C   0  0  0  0  0  2  0  0  0  0  0  0
  158.4760  211.8480  152.7230 C   0  0  0  0  0  2  0  0  0  0  0  0
  159.0710  211.7620  155.2890 C   0  0  1  0  0  0  0  0  0  0  0  0
  160.2910  213.4640  154.0480 O   0  0  0  0  0  1  0  0  0  0  0  0
  158.1820  212.2910  154.1680 C   0  0  1  0  0  0  0  0  0  0  0  0
  159.1790  213.2310  154.8650 C   0  0  1  0  0  3  0  0  0  0  0  0
  158.4260  211.5180  156.5030 O   0  0  0  0  0  1  0  0  0  0  0  0
  160.1710  210.8550  154.9410 N   0  0  0  0  0  0  0  0  0  0  0  0
  162.4960  210.6640  154.9020 O   0  0  0  0  0  0  0  0  0  0  0  0
  161.4680  210.9690  155.5630 C   0  0  0  0  0  0  0  0  0  0  0  0
  161.6260  211.4040  156.8800 O   0  0  0  0  0  0  0  0  0  0  0  0
  161.3270  212.6530  157.2590 O   0  0  0  0  0  1  0  0  0  0  0  0
  159.9390  209.9100  153.9560 O   0  0  0  0  0  0  0  0  0  0  0  0
  161.1630  205.9060  154.3490 C   0  0  0  0  0  3  0  0  0  0  0  0
  161.2740  206.5400  153.1090 C   0  0  0  0  0  3  0  0  0  0  0  0
  160.2300  207.9300  155.2990 C   0  0  0  0  0  3  0  0  0  0  0  0
  160.8640  207.8690  152.9640 C   0  0  0  0  0  3  0  0  0  0  0  0
  160.3320  208.5700  154.0590 C   0  0  0  0  0  0  0  0  0  0  0  0
  160.6440  206.6020  155.4430 C   0  0  0  0  0  3  0  0  0  0  0  0
  156.7920  212.5440  154.5500 N   0  0  0  0  0  2  0  0  0  0  0  0
  155.9710  211.4180  154.1270 C   0  0  0  0  0  1  0  0  0  0  0  0
  161.1960  207.7450  148.2650 O   0  0  0  0  0  0  0  0  0  0  0  0
  162.0160  204.0980  148.2430 C   0  0  2  0  0  3  0  0  0  0  0  0
  160.0900  204.5330  150.0220 C   0  0  1  0  0  3  0  0  0  0  0  0
  161.3280  203.9370  150.6890 C   0  0  2  0  0  3  0  0  0  0  0  0
  160.3200  206.0350  149.7900 C   0  0  0  0  0  2  0  0  0  0  0  0
  160.9950  203.5440  149.2660 C   0  0  2  0  0  3  0  0  0  0  0  0
  162.3170  205.5910  148.4040 C   0  0  0  0  0  2  0  0  0  0  0  0
  161.0080  206.3430  148.4710 C   0  0  2  0  0  3  0  0  0  0  0  0
  160.9390  202.8560  151.5800 N   0  0  0  0  0  2  0  0  0  0  0  0
  160.8220  201.6590  150.7620 C   0  0  0  0  0  1  0  0  0  0  0  0
  161.5790  203.7690  146.7950 C   0  0  2  0  0  3  0  0  0  0  0  0
  159.7660  200.7720  145.0860 C   0  0  0  0  0  2  0  0  0  0  0  0
  160.4380  202.1370  145.1850 C   0  0  0  0  0  2  0  0  0  0  0  0
  161.8850  201.2660  147.0630 C   0  0  0  0  0  2  0  0  0  0  0  0
  160.7390  199.6740  145.5030 C   0  0  0  0  0  2  0  0  0  0  0  0
  161.2040  199.9050  146.9390 C   0  0  0  0  0  2  0  0  0  0  0  0
  160.9430  202.3790  146.6110 C   0  0  0  0  0  3  0  0  0  0  0  0
  162.7440  203.9210  145.8150 C   0  0  0  0  0  2  0  0  0  0  0  0
  162.7090  205.2800  145.1280 C   0  0  0  0  0  2  0  0  0  0  0  0
  161.3020  205.7390  144.9200 C   0  0  0  0  0  3  0  0  0  0  0  0
  160.8360  205.8050  143.7960 O   0  0  0  0  0  0  0  0  0  0  0  0
  1  2  1  0  0  0  0
  3  1  2  0  0  0  0
  4  7  1  0  0  0  0
  4  2  2  0  0  0  0
  5  4  1  0  0  0  0
  6  5  2  0  0  0  0
  6  3  1  0  0  0  0
  7  8  1  6  0  0  0
  7 10  1  0  0  0  0
  9  8  1  0  0  0  0
 10 11  1  0  0  0  0
 11 12  1  0  0  0  0
 13 17  1  1  0  0  0
 15 12  1  6  0  0  0
 15 30  1  0  0  0  0
 15 16  1  0  0  0  0
 15 13  1  0  0  0  0
 16 14  1  6  0  0  0
 16 13  1  0  0  0  0
 18 13  1  0  0  0  0
 18 20  1  0  0  0  0
 19 20  2  0  0  0  0
 20 21  1  0  0  0  0
 21 22  1  0  0  0  0
 23 28  1  0  0  0  0
 23 18  1  0  0  0  0
 24 29  1  0  0  0  0
 25 24  2  0  0  0  0
 26 29  2  0  0  0  0
 27 25  1  0  0  0  0
 27 28  2  0  0  0  0
 28 26  1  0  0  0  0
 31 30  1  0  0  0  0
 32 39  1  0  0  0  0
 32  6  1  0  0  0  0
 33 42  1  6  0  0  0
 33 38  1  0  0  0  0
 33 37  1  0  0  0  0
 34 36  1  6  0  0  0
 34 35  1  0  0  0  0
 35 40  1  1  0  0  0
 37 34  1  0  0  0  0
 37 35  1  0  0  0  0
 38 39  1  0  0  0  0
 39 36  1  0  0  0  0
 41 40  1  0  0  0  0
 43 44  1  0  0  0  0
 43 46  1  0  0  0  0
 44 48  1  0  0  0  0
 46 47  1  0  0  0  0
 47 45  1  0  0  0  0
 48 42  1  0  0  0  0
 48 45  1  0  0  0  0
 49 42  1  0  0  0  0
 50 49  1  0  0  0  0
 51 50  1  0  0  0  0
 52 51  2  0  0  0  0
M  END
>  <MODEL>
7

>  <REMARK>
 VINA RESULT:      -2.8      5.504     10.631
  Name = 
  19 active torsions:
  status: ('A' for Active; 'I' for Inactive)
    1  A    between atoms: C_1  and  O_22
    2  A    between atoms: C_1  and  C_38
    3  A    between atoms: C_1  and  N_47
    4  A    between atoms: C_2  and  C_39
    5  A    between atoms: N_3  and  C_17
    6  A    between atoms: C_4  and  N_5
    7  A    between atoms: N_5  and  O_42
    8  A    between atoms: C_7  and  N_13
    9  A    between atoms: O_9  and  C_48
   10  A    between atoms: O_9  and  C_49
   11  A    between atoms: C_15  and  C_39
   12  A    between atoms: C_15  and  C_51
   13  A    between atoms: C_17  and  C_32
   14  A    between atoms: C_21  and  O_24
   15  A    between atoms: C_32  and  C_43
   16  A    between atoms: C_39  and  C_52
   17  A    between atoms: C_40  and  C_51
   18  A    between atoms: O_42  and  C_44
   19  A    between atoms: C_43  and  N_47
                            x       y       z     vdW  Elec       q    Type
                         _______ _______ _______ _____ _____    ______ ____

>  <TORSDO>
F 19

$$$$
=
 OpenBabel11072412493D

 52 57  0  0  1  0  0  0  0  0999 V2000
  161.9660  206.2930  152.1720 C   0  0  0  0  0  3  0  0  0  0  0  0
  161.9030  206.5240  150.8330 N   0  0  0  0  0  0  0  0  0  0  0  0
  161.8940  207.3610  153.0700 C   0  0  0  0  0  3  0  0  0  0  0  0
  161.7880  207.7820  150.3250 C   0  0  0  0  0  0  0  0  0  0  0  0
  161.7140  208.8770  151.1970 C   0  0  0  0  0  3  0  0  0  0  0  0
  161.7610  208.6640  152.5840 C   0  0  0  0  0  0  0  0  0  0  0  0
  161.6700  207.9560  148.8400 C   0  0  1  0  0  3  0  0  0  0  0  0
  162.6750  208.7880  148.3120 O   0  0  0  0  0  0  0  0  0  0  0  0
  162.2240  210.0300  148.3760 O   0  0  0  0  0  1  0  0  0  0  0  0
  161.5780  206.6870  148.1240 N   0  0  0  0  0  2  0  0  0  0  0  0
  160.9120  206.9500  146.8560 C   0  0  0  0  0  2  0  0  0  0  0  0
  160.2570  205.6840  146.3050 C   0  0  0  0  0  2  0  0  0  0  0  0
  161.6480  203.4640  146.0260 C   0  0  1  0  0  0  0  0  0  0  0  0
  159.3600  203.3060  145.2110 O   0  0  0  0  0  1  0  0  0  0  0  0
  161.2240  204.8210  145.4750 C   0  0  1  0  0  0  0  0  0  0  0  0
  160.6870  203.5310  144.8320 C   0  0  1  0  0  3  0  0  0  0  0  0
  162.9600  203.0830  145.7390 O   0  0  0  0  0  1  0  0  0  0  0  0
  161.1130  203.0380  147.3250 N   0  0  0  0  0  0  0  0  0  0  0  0
  159.5080  201.6750  148.3310 O   0  0  0  0  0  0  0  0  0  0  0  0
  160.4360  201.7740  147.4840 C   0  0  0  0  0  0  0  0  0  0  0  0
  160.7760  200.6480  146.7320 O   0  0  0  0  0  0  0  0  0  0  0  0
  161.7690  199.8240  147.0870 O   0  0  0  0  0  1  0  0  0  0  0  0
  161.2380  203.9140  148.3900 O   0  0  0  0  0  0  0  0  0  0  0  0
  160.6890  202.8810  152.4300 C   0  0  0  0  0  3  0  0  0  0  0  0
  161.6670  202.2230  151.6790 C   0  0  0  0  0  3  0  0  0  0  0  0
  160.0850  204.1970  150.4880 C   0  0  0  0  0  3  0  0  0  0  0  0
  161.8540  202.5540  150.3340 C   0  0  0  0  0  3  0  0  0  0  0  0
  161.0580  203.5390  149.7270 C   0  0  0  0  0  0  0  0  0  0  0  0
  159.9010  203.8690  151.8350 C   0  0  0  0  0  3  0  0  0  0  0  0
  162.2290  205.4960  144.6530 N   0  0  0  0  0  2  0  0  0  0  0  0
  161.5570  206.2300  143.5890 C   0  0  0  0  0  1  0  0  0  0  0  0
  161.6570  209.7120  153.5110 O   0  0  0  0  0  0  0  0  0  0  0  0
  159.4890  212.2900  155.1320 C   0  0  2  0  0  3  0  0  0  0  0  0
  158.7940  212.0690  152.5760 C   0  0  1  0  0  3  0  0  0  0  0  0
  159.2590  213.4880  152.8970 C   0  0  2  0  0  3  0  0  0  0  0  0
  160.0260  211.1670  152.3980 C   0  0  0  0  0  2  0  0  0  0  0  0
  158.5510  212.6840  153.9650 C   0  0  2  0  0  3  0  0  0  0  0  0
  160.8160  211.6690  154.6860 C   0  0  0  0  0  2  0  0  0  0  0  0
  160.5230  210.5620  153.7000 C   0  0  2  0  0  3  0  0  0  0  0  0
  158.3250  214.4530  152.3380 N   0  0  0  0  0  2  0  0  0  0  0  0
  158.3660  214.2890  150.8940 C   0  0  0  0  0  1  0  0  0  0  0  0
  158.7570  211.3770  156.1440 C   0  0  2  0  0  3  0  0  0  0  0  0
  160.0990  207.7250  156.3530 C   0  0  0  0  0  2  0  0  0  0  0  0
  159.3140  208.9040  155.7880 C   0  0  0  0  0  2  0  0  0  0  0  0
  161.0590  210.4800  156.7100 C   0  0  0  0  0  2  0  0  0  0  0  0
  161.5880  208.0510  156.3900 C   0  0  0  0  0  2  0  0  0  0  0  0
  161.8320  209.2830  157.2590 C   0  0  0  0  0  2  0  0  0  0  0  0
  159.5690  210.1620  156.6250 C   0  0  0  0  0  3  0  0  0  0  0  0
  157.4140  210.8970  155.5900 C   0  0  0  0  0  2  0  0  0  0  0  0
  156.2520  211.4860  156.3790 C   0  0  0  0  0  2  0  0  0  0  0  0
  155.9560  212.8810  155.9340 C   0  0  0  0  0  3  0  0  0  0  0  0
  155.1330  213.5550  156.5300 O   0  0  0  0  0  0  0  0  0  0  0  0
  1  3  1  0  0  0  0
  2  1  2  0  0  0  0
  4  2  1  0  0  0  0
  4  5  2  0  0  0  0
  5  6  1  0  0  0  0
  6  3  2  0  0  0  0
  6 32  1  0  0  0  0
  7 10  1  6  0  0  0
  7  4  1  0  0  0  0
  8  9  1  0  0  0  0
  8  7  1  0  0  0  0
 11 10  1  0  0  0  0
 12 11  1  0  0  0  0
 13 17  1  6  0  0  0
 13 18  1  0  0  0  0
 15 13  1  0  0  0  0
 15 12  1  1  0  0  0
 16 14  1  1  0  0  0
 16 15  1  0  0  0  0
 16 13  1  0  0  0  0
 18 20  1  0  0  0  0
 18 23  1  0  0  0  0
 20 19  2  0  0  0  0
 21 22  1  0  0  0  0
 21 20  1  0  0  0  0
 23 28  1  0  0  0  0
 25 24  2  0  0  0  0
 26 29  2  0  0  0  0
 27 25  1  0  0  0  0
 28 27  2  0  0  0  0
 28 26  1  0  0  0  0
 29 24  1  0  0  0  0
 30 15  1  0  0  0  0
 31 30  1  0  0  0  0
 32 39  1  0  0  0  0
 33 42  1  1  0  0  0
 34 36  1  1  0  0  0
 34 35  1  0  0  0  0
 34 37  1  0  0  0  0
 35 40  1  6  0  0  0
 35 37  1  0  0  0  0
 36 39  1  0  0  0  0
 37 33  1  0  0  0  0
 38 33  1  0  0  0  0
 39 38  1  0  0  0  0
 41 40  1  0  0  0  0
 42 48  1  0  0  0  0
 43 46  1  0  0  0  0
 44 43  1  0  0  0  0
 44 48  1  0  0  0  0
 45 47  1  0  0  0  0
 46 47  1  0  0  0  0
 48 45  1  0  0  0  0
 49 42  1  0  0  0  0
 49 50  1  0  0  0  0
 51 50  1  0  0  0  0
 51 52  2  0  0  0  0
M  END
>  <MODEL>
8

>  <REMARK>
 VINA RESULT:      -2.7      5.553      9.687
  Name = 
  19 active torsions:
  status: ('A' for Active; 'I' for Inactive)
    1  A    between atoms: C_1  and  O_22
    2  A    between atoms: C_1  and  C_38
    3  A    between atoms: C_1  and  N_47
    4  A    between atoms: C_2  and  C_39
    5  A    between atoms: N_3  and  C_17
    6  A    between atoms: C_4  and  N_5
    7  A    between atoms: N_5  and  O_42
    8  A    between atoms: C_7  and  N_13
    9  A    between atoms: O_9  and  C_48
   10  A    between atoms: O_9  and  C_49
   11  A    between atoms: C_15  and  C_39
   12  A    between atoms: C_15  and  C_51
   13  A    between atoms: C_17  and  C_32
   14  A    between atoms: C_21  and  O_24
   15  A    between atoms: C_32  and  C_43
   16  A    between atoms: C_39  and  C_52
   17  A    between atoms: C_40  and  C_51
   18  A    between atoms: O_42  and  C_44
   19  A    between atoms: C_43  and  N_47
                            x       y       z     vdW  Elec       q    Type
                         _______ _______ _______ _____ _____    ______ ____

>  <TORSDO>
F 19

$$$$
