=
 OpenBabel11072412443D

 55 58  0  0  1  0  0  0  0  0999 V2000
  161.4870  208.3380  152.1830 C   0  0  2  0  0  3  0  0  0  0  0  0
  161.5630  210.7430  148.9180 C   0  0  1  0  0  3  0  0  0  0  0  0
  161.8200  209.4010  148.5920 O   0  0  0  0  0  0  0  0  0  0  0  0
  163.4230  210.6200  151.9870 O   0  0  0  0  0  0  0  0  0  0  0  0
  162.6960  210.2520  151.0280 C   0  0  0  0  0  0  0  0  0  0  0  0
  161.3360  208.6430  149.6800 C   0  0  2  0  0  3  0  0  0  0  0  0
  162.3930  211.1500  150.0040 O   0  0  0  0  0  0  0  0  0  0  0  0
  162.2270  208.8200  150.9240 C   0  0  2  0  0  3  0  0  0  0  0  0
  161.2160  213.4180  146.1790 N   0  0  0  0  0  2  0  0  0  0  0  0
  161.7980  211.5960  147.7590 N   0  0  0  0  0  2  0  0  0  0  0  0
  160.9110  212.6400  147.3380 C   0  0  0  0  0  0  0  0  0  0  0  0
  159.8150  212.8710  147.9820 N   0  0  0  0  0  2  0  0  0  0  0  0
  162.4550  213.2530  145.4350 C   0  0  0  0  0  2  0  0  0  0  0  0
  162.1530  213.0660  143.9590 C   0  0  0  0  0  2  0  0  0  0  0  0
  160.6810  212.9870  143.7520 C   0  0  0  0  0  0  0  0  0  0  0  0
  159.9690  211.8840  144.2060 O   0  0  0  0  0  1  0  0  0  0  0  0
  160.0830  213.9130  143.1430 O   0  0  0  0  0  0  0  0  0  0  0  0
  163.1370  206.4350  147.8730 O   0  0  0  0  0  0  0  0  0  0  0  0
  161.1590  207.1540  149.3350 C   0  0  1  0  0  3  0  0  0  0  0  0
  160.5330  206.9940  148.1260 O   0  0  0  0  0  0  0  0  0  0  0  0
  162.0010  206.7510  148.3170 C   0  0  0  0  0  0  0  0  0  0  0  0
  161.0710  207.0050  152.0590 O   0  0  0  0  0  0  0  0  0  0  0  0
  160.7860  206.5760  153.3610 C   0  0  0  0  0  2  0  0  0  0  0  0
  161.0790  205.0910  153.5270 C   0  0  0  0  0  2  0  0  0  0  0  0
  161.8010  204.5420  152.3110 C   0  0  0  0  0  2  0  0  0  0  0  0
  160.9840  203.4110  151.7170 C   0  0  0  0  0  2  0  0  0  0  0  0
  160.1410  203.9230  150.5660 C   0  0  0  0  0  2  0  0  0  0  0  0
  160.7000  203.4700  149.3020 N   0  0  0  0  0  2  0  0  0  0  0  0
  161.3790  201.0180  150.4750 O   0  0  0  0  0  1  0  0  0  0  0  0
  160.5000  201.7250  149.2160 P   0  0  1  0  0  0  0  0  0  0  0  0
  159.0380  201.3730  149.3770 O   0  0  0  0  0  0  0  0  0  0  0  0
  162.2830  201.7540  147.3000 F   0  0  0  0  0  0  0  0  0  0  0  0
  161.4060  199.7380  147.7200 F   0  0  0  0  0  0  0  0  0  0  0  0
  161.1110  201.0910  147.6120 C   0  0  0  0  0  0  0  0  0  0  0  0
  160.1810  201.3490  146.5780 O   0  0  0  0  0  0  0  0  0  0  0  0
  160.8710  201.7370  145.4200 C   0  0  0  0  0  2  0  0  0  0  0  0
  160.2200  202.9800  144.8390 C   0  0  0  0  0  2  0  0  0  0  0  0
  160.7030  204.1640  145.5330 N   0  0  0  0  0  0  0  0  0  0  0  0
  161.4950  206.2190  144.6650 N   0  0  0  0  0  2  0  0  0  0  0  0
  160.3630  205.3070  144.6980 C   0  0  0  0  0  2  0  0  0  0  0  0
  162.1560  204.1070  145.5310 C   0  0  0  0  0  2  0  0  0  0  0  0
  162.6540  205.3760  144.8850 C   0  0  0  0  0  2  0  0  0  0  0  0
  160.2910  209.2200  152.4930 C   0  0  0  0  0  2  0  0  0  0  0  0
  160.3160  209.6410  153.9570 C   0  0  0  0  0  2  0  0  0  0  0  0
  160.1530  211.1550  154.1350 C   0  0  2  0  0  3  0  0  0  0  0  0
  160.6860  212.8120  156.7590 C   0  0  0  0  0  2  0  0  0  0  0  0
  160.6870  211.3240  156.6160 C   0  0  0  0  0  0  0  0  0  0  0  0
  158.4310  211.0740  155.8770 O   0  0  0  0  0  1  0  0  0  0  0  0
  159.6820  211.6020  155.5410 C   0  0  2  0  0  0  0  0  0  0  0  0
  159.1340  214.0560  155.1870 O   0  0  0  0  0  0  0  0  0  0  0  0
  159.6850  213.0880  155.6870 C   0  0  0  0  0  0  0  0  0  0  0  0
  161.1970  210.2750  157.2590 C   0  0  0  0  0  2  0  0  0  0  0  0
  160.0350  212.6120  152.0770 N   0  0  0  0  0  1  0  0  0  0  0  0
  159.3710  211.7770  153.0160 C   0  0  0  0  0  0  0  0  0  0  0  0
  158.1360  211.5660  152.8980 O   0  0  0  0  0  0  0  0  0  0  0  0
  1 43  1  6  0  0  0
  2 10  1  6  0  0  0
  2  7  1  0  0  0  0
  3  2  1  0  0  0  0
  5  4  2  0  0  0  0
  6  3  1  6  0  0  0
  6  8  1  0  0  0  0
  7  5  1  0  0  0  0
  8  5  1  0  0  0  0
  8  1  1  1  0  0  0
  9 11  1  0  0  0  0
 11 10  1  0  0  0  0
 11 12  2  0  0  0  0
 13  9  1  0  0  0  0
 14 13  1  0  0  0  0
 15 14  1  0  0  0  0
 15 16  1  0  0  0  0
 17 15  2  0  0  0  0
 18 21  2  0  0  0  0
 19 20  1  6  0  0  0
 19  6  1  0  0  0  0
 20 21  1  0  0  0  0
 21 19  1  0  0  0  0
 22  1  1  0  0  0  0
 22 23  1  0  0  0  0
 23 24  1  0  0  0  0
 25 24  1  0  0  0  0
 26 25  1  0  0  0  0
 27 26  1  0  0  0  0
 28 27  1  0  0  0  0
 30 28  1  0  0  0  0
 30 31  2  1  0  0  0
 30 29  1  0  0  0  0
 32 34  1  0  0  0  0
 34 33  1  0  0  0  0
 34 30  1  0  0  0  0
 35 34  1  0  0  0  0
 36 35  1  0  0  0  0
 37 36  1  0  0  0  0
 37 38  1  0  0  0  0
 39 40  1  0  0  0  0
 39 42  1  0  0  0  0
 40 38  1  0  0  0  0
 41 38  1  0  0  0  0
 42 41  1  0  0  0  0
 43 44  1  0  0  0  0
 45 44  1  1  0  0  0
 45 49  1  0  0  0  0
 47 46  1  0  0  0  0
 47 52  2  0  0  0  0
 49 51  1  0  0  0  0
 49 48  1  1  0  0  0
 49 47  1  0  0  0  0
 50 51  2  0  0  0  0
 51 46  1  0  0  0  0
 53 54  1  0  0  0  0
 54 45  1  0  0  0  0
 55 54  2  0  0  0  0
M  END
>  <MODEL>
1

>  <REMARK>
 VINA RESULT:      -5.0      0.000      0.000
  Name = 
  24 active torsions:
  status: ('A' for Active; 'I' for Inactive)
    1  A    between atoms: C_3  and  C_38
    2  A    between atoms: N_5  and  C_51
    3  A    between atoms: C_11  and  N_32
    4  A    between atoms: C_12  and  C_21
    5  A    between atoms: C_12  and  C_43
    6  A    between atoms: N_13  and  C_45
    7  A    between atoms: C_14  and  C_54
    8  A    between atoms: C_17  and  C_24
    9  A    between atoms: C_17  and  C_43
   10  A    between atoms: C_20  and  C_22
   11  A    between atoms: C_20  and  C_36
   12  A    between atoms: C_21  and  N_31
   13  A    between atoms: C_22  and  C_54
   14  A    between atoms: C_23  and  C_33
   15  A    between atoms: C_24  and  O_39
   16  A    between atoms: C_25  and  C_54
   17  A    between atoms: O_26  and  C_30
   18  A    between atoms: O_26  and  C_49
   19  A    between atoms: C_30  and  P_34
   20  A    between atoms: N_31  and  P_34
   21  A    between atoms: C_33  and  C_45
   22  A    between atoms: C_36  and  O_39
   23  A    between atoms: C_36  and  C_53
   24  A    between atoms: C_49  and  C_51
                            x       y       z     vdW  Elec       q    Type
                         _______ _______ _______ _____ _____    ______ ____

>  <TORSDO>
F 24

$$$$
=
 OpenBabel11072412443D

 55 58  0  0  1  0  0  0  0  0999 V2000
  160.9580  207.4030  151.3600 C   0  0  2  0  0  3  0  0  0  0  0  0
  161.6220  203.9450  149.3470 C   0  0  1  0  0  3  0  0  0  0  0  0
  160.9080  204.8780  148.5750 O   0  0  0  0  0  0  0  0  0  0  0  0
  159.9230  204.7870  152.3970 O   0  0  0  0  0  0  0  0  0  0  0  0
  160.4510  204.9150  151.2610 C   0  0  0  0  0  0  0  0  0  0  0  0
  161.1330  206.1310  149.1850 C   0  0  2  0  0  3  0  0  0  0  0  0
  161.0150  203.8060  150.6300 O   0  0  0  0  0  0  0  0  0  0  0  0
  160.3940  206.2370  150.5320 C   0  0  2  0  0  3  0  0  0  0  0  0
  160.9720  200.2980  148.3190 N   0  0  0  0  0  2  0  0  0  0  0  0
  161.6620  202.6560  148.6670 N   0  0  0  0  0  2  0  0  0  0  0  0
  160.8550  201.5290  149.0350 C   0  0  0  0  0  0  0  0  0  0  0  0
  160.0370  201.6050  150.0330 N   0  0  0  0  0  2  0  0  0  0  0  0
  161.8280  200.1550  147.1520 C   0  0  0  0  0  2  0  0  0  0  0  0
  160.9790  200.0340  145.8990 C   0  0  0  0  0  2  0  0  0  0  0  0
  160.4210  201.3660  145.5380 C   0  0  0  0  0  0  0  0  0  0  0  0
  161.2270  202.4970  145.5820 O   0  0  0  0  0  1  0  0  0  0  0  0
  159.2090  201.4700  145.2110 O   0  0  0  0  0  0  0  0  0  0  0  0
  160.6900  206.4460  145.8540 O   0  0  0  0  0  0  0  0  0  0  0  0
  160.7750  207.3120  148.2650 C   0  0  1  0  0  3  0  0  0  0  0  0
  161.9010  207.8980  147.7480 O   0  0  0  0  0  0  0  0  0  0  0  0
  160.9960  207.0210  146.9320 C   0  0  0  0  0  0  0  0  0  0  0  0
  162.2210  207.7990  150.8990 O   0  0  0  0  0  0  0  0  0  0  0  0
  162.2160  209.1980  150.9370 C   0  0  0  0  0  2  0  0  0  0  0  0
  162.1290  209.7870  149.5350 C   0  0  0  0  0  2  0  0  0  0  0  0
  162.6220  211.2210  149.5180 C   0  0  0  0  0  2  0  0  0  0  0  0
  161.4930  212.1290  149.0720 C   0  0  0  0  0  2  0  0  0  0  0  0
  162.0430  213.4670  148.6200 C   0  0  0  0  0  2  0  0  0  0  0  0
  161.0610  214.1530  147.7950 N   0  0  0  0  0  2  0  0  0  0  0  0
  161.5130  214.4530  145.0470 O   0  0  0  0  0  0  0  0  0  0  0  0
  161.0130  213.3530  146.2310 P   0  0  1  0  0  0  0  0  0  0  0  0
  161.9570  212.1720  146.2350 O   0  0  0  0  0  1  0  0  0  0  0  0
  158.8250  212.1220  146.9690 F   0  0  0  0  0  0  0  0  0  0  0  0
  158.4920  213.8730  145.6130 F   0  0  0  0  0  0  0  0  0  0  0  0
  159.3160  212.7810  145.8570 C   0  0  0  0  0  0  0  0  0  0  0  0
  159.3160  211.8670  144.7780 O   0  0  0  0  0  0  0  0  0  0  0  0
  159.3070  212.5770  143.5680 C   0  0  0  0  0  2  0  0  0  0  0  0
  160.2190  211.8850  142.5710 C   0  0  0  0  0  2  0  0  0  0  0  0
  161.2770  212.7910  142.1540 N   0  0  0  0  0  0  0  0  0  0  0  0
  161.6980  213.7700  140.0400 N   0  0  0  0  0  2  0  0  0  0  0  0
  160.7200  213.6350  141.1070 C   0  0  0  0  0  2  0  0  0  0  0  0
  162.3020  211.9940  141.4990 C   0  0  0  0  0  2  0  0  0  0  0  0
  162.4940  212.5600  140.1140 C   0  0  0  0  0  2  0  0  0  0  0  0
  161.0400  207.0480  152.8340 C   0  0  0  0  0  2  0  0  0  0  0  0
  161.6380  208.2070  153.6200 C   0  0  0  0  0  2  0  0  0  0  0  0
  160.7130  208.6970  154.7400 C   0  0  2  0  0  3  0  0  0  0  0  0
  158.7750  211.1680  154.9590 C   0  0  0  0  0  2  0  0  0  0  0  0
  159.5790  210.7560  153.7700 C   0  0  0  0  0  0  0  0  0  0  0  0
  161.7390  210.9210  154.7730 O   0  0  0  0  0  1  0  0  0  0  0  0
  160.5230  210.2320  154.8080 C   0  0  2  0  0  0  0  0  0  0  0  0
  159.7880  210.5920  157.2110 O   0  0  0  0  0  0  0  0  0  0  0  0
  159.7150  210.6450  155.9940 C   0  0  0  0  0  0  0  0  0  0  0  0
  159.5470  210.9380  152.4510 C   0  0  0  0  0  2  0  0  0  0  0  0
  160.0590  207.3210  156.7530 N   0  0  0  0  0  1  0  0  0  0  0  0
  161.0470  208.0750  156.0640 C   0  0  0  0  0  0  0  0  0  0  0  0
  162.1920  208.2120  156.5690 O   0  0  0  0  0  0  0  0  0  0  0  0
  1 43  1  1  0  0  0
  2 10  1  6  0  0  0
  2  7  1  0  0  0  0
  3  2  1  0  0  0  0
  5  4  2  0  0  0  0
  6  3  1  6  0  0  0
  6  8  1  0  0  0  0
  7  5  1  0  0  0  0
  8  5  1  0  0  0  0
  8  1  1  1  0  0  0
  9 11  1  0  0  0  0
 10 11  1  0  0  0  0
 11 12  2  0  0  0  0
 13  9  1  0  0  0  0
 14 13  1  0  0  0  0
 15 16  1  0  0  0  0
 15 14  1  0  0  0  0
 17 15  2  0  0  0  0
 18 21  2  0  0  0  0
 19 21  1  6  0  0  0
 19  6  1  0  0  0  0
 20 19  1  0  0  0  0
 21 20  1  0  0  0  0
 22 23  1  0  0  0  0
 22  1  1  0  0  0  0
 24 23  1  0  0  0  0
 25 24  1  0  0  0  0
 26 25  1  0  0  0  0
 27 26  1  0  0  0  0
 28 27  1  0  0  0  0
 30 29  2  6  0  0  0
 30 31  1  0  0  0  0
 30 28  1  0  0  0  0
 33 34  1  0  0  0  0
 34 30  1  0  0  0  0
 34 32  1  0  0  0  0
 35 34  1  0  0  0  0
 36 35  1  0  0  0  0
 37 36  1  0  0  0  0
 38 37  1  0  0  0  0
 39 42  1  0  0  0  0
 39 40  1  0  0  0  0
 40 38  1  0  0  0  0
 41 38  1  0  0  0  0
 42 41  1  0  0  0  0
 43 44  1  0  0  0  0
 45 44  1  6  0  0  0
 45 49  1  0  0  0  0
 45 54  1  0  0  0  0
 46 51  1  0  0  0  0
 47 49  1  0  0  0  0
 47 46  1  0  0  0  0
 49 48  1  6  0  0  0
 49 51  1  0  0  0  0
 51 50  2  0  0  0  0
 52 47  2  0  0  0  0
 54 55  2  0  0  0  0
 54 53  1  0  0  0  0
M  END
>  <MODEL>
2

>  <REMARK>
 VINA RESULT:      -3.6      3.642      8.319
  Name = 
  24 active torsions:
  status: ('A' for Active; 'I' for Inactive)
    1  A    between atoms: C_3  and  C_38
    2  A    between atoms: N_5  and  C_51
    3  A    between atoms: C_11  and  N_32
    4  A    between atoms: C_12  and  C_21
    5  A    between atoms: C_12  and  C_43
    6  A    between atoms: N_13  and  C_45
    7  A    between atoms: C_14  and  C_54
    8  A    between atoms: C_17  and  C_24
    9  A    between atoms: C_17  and  C_43
   10  A    between atoms: C_20  and  C_22
   11  A    between atoms: C_20  and  C_36
   12  A    between atoms: C_21  and  N_31
   13  A    between atoms: C_22  and  C_54
   14  A    between atoms: C_23  and  C_33
   15  A    between atoms: C_24  and  O_39
   16  A    between atoms: C_25  and  C_54
   17  A    between atoms: O_26  and  C_30
   18  A    between atoms: O_26  and  C_49
   19  A    between atoms: C_30  and  P_34
   20  A    between atoms: N_31  and  P_34
   21  A    between atoms: C_33  and  C_45
   22  A    between atoms: C_36  and  O_39
   23  A    between atoms: C_36  and  C_53
   24  A    between atoms: C_49  and  C_51
                            x       y       z     vdW  Elec       q    Type
                         _______ _______ _______ _____ _____    ______ ____

>  <TORSDO>
F 24

$$$$
=
 OpenBabel11072412443D

 55 58  0  0  1  0  0  0  0  0999 V2000
  160.9990  209.5170  151.6860 C   0  0  2  0  0  3  0  0  0  0  0  0
  160.9640  206.2560  149.2750 C   0  0  1  0  0  3  0  0  0  0  0  0
  161.7330  206.0490  150.4330 O   0  0  0  0  0  0  0  0  0  0  0  0
  162.0230  209.6630  148.8720 O   0  0  0  0  0  0  0  0  0  0  0  0
  161.6990  208.5820  149.4290 C   0  0  0  0  0  0  0  0  0  0  0  0
  161.3110  207.0330  151.3530 C   0  0  2  0  0  3  0  0  0  0  0  0
  161.3400  207.4820  148.6510 O   0  0  0  0  0  0  0  0  0  0  0  0
  161.7870  208.4350  150.9300 C   0  0  2  0  0  3  0  0  0  0  0  0
  161.6290  204.1500  146.1280 N   0  0  0  0  0  2  0  0  0  0  0  0
  161.1420  205.1440  148.3490 N   0  0  0  0  0  2  0  0  0  0  0  0
  161.4890  205.2990  146.9660 C   0  0  0  0  0  0  0  0  0  0  0  0
  161.6510  206.4760  146.4580 N   0  0  0  0  0  2  0  0  0  0  0  0
  161.5170  202.7940  146.6420 C   0  0  0  0  0  2  0  0  0  0  0  0
  160.4330  202.0440  145.8890 C   0  0  0  0  0  2  0  0  0  0  0  0
  160.7250  200.5850  145.9030 C   0  0  0  0  0  0  0  0  0  0  0  0
  160.3100  199.7780  144.8510 O   0  0  0  0  0  0  0  0  0  0  0  0
  161.3330  200.0760  146.8820 O   0  0  0  0  0  1  0  0  0  0  0  0
  161.4360  204.2030  153.1870 O   0  0  0  0  0  0  0  0  0  0  0  0
  161.7380  206.7170  152.7980 C   0  0  1  0  0  3  0  0  0  0  0  0
  160.6620  206.7230  153.6470 O   0  0  0  0  0  0  0  0  0  0  0  0
  161.3350  205.4580  153.1980 C   0  0  0  0  0  0  0  0  0  0  0  0
  160.6710  210.5950  150.8530 O   0  0  0  0  0  0  0  0  0  0  0  0
  161.8630  211.3040  150.6660 C   0  0  0  0  0  2  0  0  0  0  0  0
  161.6100  212.6310  149.9620 C   0  0  0  0  0  2  0  0  0  0  0  0
  160.1240  212.8590  149.7540 C   0  0  0  0  0  2  0  0  0  0  0  0
  159.9110  213.5680  148.4310 C   0  0  0  0  0  2  0  0  0  0  0  0
  161.0280  213.2250  147.4660 C   0  0  0  0  0  2  0  0  0  0  0  0
  160.5030  212.4390  146.3600 N   0  0  0  0  0  2  0  0  0  0  0  0
  158.8580  214.4530  145.3200 O   0  0  0  0  0  1  0  0  0  0  0  0
  160.2350  213.5250  145.0040 P   0  0  1  0  0  0  0  0  0  0  0  0
  161.4250  214.4460  144.8470 O   0  0  0  0  0  0  0  0  0  0  0  0
  159.9910  211.2260  143.7770 F   0  0  0  0  0  0  0  0  0  0  0  0
  158.7540  212.8760  142.9080 F   0  0  0  0  0  0  0  0  0  0  0  0
  159.9910  212.5720  143.4610 C   0  0  0  0  0  0  0  0  0  0  0  0
  161.0490  212.8020  142.5510 O   0  0  0  0  0  0  0  0  0  0  0  0
  160.5660  212.6870  141.2390 C   0  0  0  0  0  2  0  0  0  0  0  0
  161.1240  211.4250  140.6060 C   0  0  0  0  0  2  0  0  0  0  0  0
  161.1830  211.5780  139.1610 N   0  0  0  0  0  0  0  0  0  0  0  0
  162.8240  210.8490  137.6180 N   0  0  0  0  0  2  0  0  0  0  0  0
  161.8890  210.4150  138.6430 C   0  0  0  0  0  2  0  0  0  0  0  0
  162.0500  212.7100  138.8770 C   0  0  0  0  0  2  0  0  0  0  0  0
  163.1530  212.2150  137.9740 C   0  0  0  0  0  2  0  0  0  0  0  0
  161.7680  210.0210  152.8940 C   0  0  0  0  0  2  0  0  0  0  0  0
  161.0190  211.1740  153.5480 C   0  0  0  0  0  2  0  0  0  0  0  0
  160.0940  210.7090  154.6790 C   0  0  2  0  0  3  0  0  0  0  0  0
  158.6390  213.4830  154.3680 C   0  0  0  0  0  2  0  0  0  0  0  0
  159.0880  212.8380  155.6380 C   0  0  0  0  0  0  0  0  0  0  0  0
  157.7780  210.8490  155.4670 O   0  0  0  0  0  1  0  0  0  0  0  0
  158.8250  211.5710  154.8840 C   0  0  2  0  0  0  0  0  0  0  0  0
  157.9820  211.8870  152.5100 O   0  0  0  0  0  0  0  0  0  0  0  0
  158.3780  212.2210  153.6150 C   0  0  0  0  0  0  0  0  0  0  0  0
  159.3910  213.2160  156.8790 C   0  0  0  0  0  2  0  0  0  0  0  0
  162.0480  211.1400  156.2170 N   0  0  0  0  0  1  0  0  0  0  0  0
  160.8440  210.4340  155.9490 C   0  0  0  0  0  0  0  0  0  0  0  0
  160.4180  209.5890  156.7790 O   0  0  0  0  0  0  0  0  0  0  0  0
  1 43  1  1  0  0  0
  2 10  1  6  0  0  0
  2  3  1  0  0  0  0
  4  5  2  0  0  0  0
  5  8  1  0  0  0  0
  6  3  1  6  0  0  0
  6 19  1  0  0  0  0
  7  2  1  0  0  0  0
  7  5  1  0  0  0  0
  8  6  1  0  0  0  0
  8  1  1  1  0  0  0
  9 13  1  0  0  0  0
  9 11  1  0  0  0  0
 11 10  1  0  0  0  0
 12 11  2  0  0  0  0
 14 15  1  0  0  0  0
 14 13  1  0  0  0  0
 15 17  1  0  0  0  0
 16 15  2  0  0  0  0
 18 21  2  0  0  0  0
 19 21  1  6  0  0  0
 19 20  1  0  0  0  0
 21 20  1  0  0  0  0
 22  1  1  0  0  0  0
 23 22  1  0  0  0  0
 24 23  1  0  0  0  0
 25 24  1  0  0  0  0
 26 25  1  0  0  0  0
 27 26  1  0  0  0  0
 28 27  1  0  0  0  0
 30 31  2  6  0  0  0
 30 29  1  0  0  0  0
 30 28  1  0  0  0  0
 33 34  1  0  0  0  0
 34 32  1  0  0  0  0
 34 30  1  0  0  0  0
 35 34  1  0  0  0  0
 36 35  1  0  0  0  0
 37 36  1  0  0  0  0
 38 37  1  0  0  0  0
 39 42  1  0  0  0  0
 39 40  1  0  0  0  0
 40 38  1  0  0  0  0
 41 38  1  0  0  0  0
 42 41  1  0  0  0  0
 43 44  1  0  0  0  0
 45 44  1  6  0  0  0
 45 49  1  0  0  0  0
 45 54  1  0  0  0  0
 46 47  1  0  0  0  0
 47 52  2  0  0  0  0
 49 48  1  1  0  0  0
 49 47  1  0  0  0  0
 50 51  2  0  0  0  0
 51 46  1  0  0  0  0
 51 49  1  0  0  0  0
 54 53  1  0  0  0  0
 54 55  2  0  0  0  0
M  END
>  <MODEL>
3

>  <REMARK>
 VINA RESULT:      -3.4      3.798      8.121
  Name = 
  24 active torsions:
  status: ('A' for Active; 'I' for Inactive)
    1  A    between atoms: C_3  and  C_38
    2  A    between atoms: N_5  and  C_51
    3  A    between atoms: C_11  and  N_32
    4  A    between atoms: C_12  and  C_21
    5  A    between atoms: C_12  and  C_43
    6  A    between atoms: N_13  and  C_45
    7  A    between atoms: C_14  and  C_54
    8  A    between atoms: C_17  and  C_24
    9  A    between atoms: C_17  and  C_43
   10  A    between atoms: C_20  and  C_22
   11  A    between atoms: C_20  and  C_36
   12  A    between atoms: C_21  and  N_31
   13  A    between atoms: C_22  and  C_54
   14  A    between atoms: C_23  and  C_33
   15  A    between atoms: C_24  and  O_39
   16  A    between atoms: C_25  and  C_54
   17  A    between atoms: O_26  and  C_30
   18  A    between atoms: O_26  and  C_49
   19  A    between atoms: C_30  and  P_34
   20  A    between atoms: N_31  and  P_34
   21  A    between atoms: C_33  and  C_45
   22  A    between atoms: C_36  and  O_39
   23  A    between atoms: C_36  and  C_53
   24  A    between atoms: C_49  and  C_51
                            x       y       z     vdW  Elec       q    Type
                         _______ _______ _______ _____ _____    ______ ____

>  <TORSDO>
F 24

$$$$
=
 OpenBabel11072412443D

 55 58  0  0  1  0  0  0  0  0999 V2000
  161.6330  208.4260  152.1930 C   0  0  2  0  0  3  0  0  0  0  0  0
  161.4040  210.8710  148.9650 C   0  0  1  0  0  3  0  0  0  0  0  0
  161.7640  209.5600  148.6110 O   0  0  0  0  0  0  0  0  0  0  0  0
  163.3610  210.8670  151.9760 O   0  0  0  0  0  0  0  0  0  0  0  0
  162.6390  210.4510  151.0330 C   0  0  0  0  0  0  0  0  0  0  0  0
  161.3790  208.7500  149.7010 C   0  0  2  0  0  3  0  0  0  0  0  0
  162.2290  211.3330  150.0330 O   0  0  0  0  0  0  0  0  0  0  0  0
  162.2900  208.9850  150.9210 C   0  0  2  0  0  3  0  0  0  0  0  0
  162.7800  213.2500  146.2780 N   0  0  0  0  0  2  0  0  0  0  0  0
  161.5290  211.7560  147.8130 N   0  0  0  0  0  2  0  0  0  0  0  0
  162.7540  212.3850  147.4140 C   0  0  0  0  0  0  0  0  0  0  0  0
  163.8380  212.2010  148.0930 N   0  0  0  0  0  2  0  0  0  0  0  0
  161.6150  213.4610  145.4330 C   0  0  0  0  0  2  0  0  0  0  0  0
  161.9930  213.2760  143.9740 C   0  0  0  0  0  2  0  0  0  0  0  0
  160.8670  212.6390  143.2380 C   0  0  0  0  0  0  0  0  0  0  0  0
  160.5930  213.0060  141.9260 O   0  0  0  0  0  0  0  0  0  0  0  0
  160.1480  211.7800  143.8130 O   0  0  0  0  0  1  0  0  0  0  0  0
  161.0370  207.0630  146.7980 O   0  0  0  0  0  0  0  0  0  0  0  0
  161.3190  207.2550  149.3380 C   0  0  1  0  0  3  0  0  0  0  0  0
  160.0230  206.8140  149.2620 O   0  0  0  0  0  0  0  0  0  0  0  0
  160.8720  207.0490  148.0470 C   0  0  0  0  0  0  0  0  0  0  0  0
  161.1800  207.1130  152.0060 O   0  0  0  0  0  0  0  0  0  0  0  0
  161.7320  206.3700  153.0560 C   0  0  0  0  0  2  0  0  0  0  0  0
  162.2610  205.0290  152.5620 C   0  0  0  0  0  2  0  0  0  0  0  0
  161.8430  204.7790  151.1250 C   0  0  0  0  0  2  0  0  0  0  0  0
  160.4350  204.2180  151.1070 C   0  0  0  0  0  2  0  0  0  0  0  0
  160.4180  202.8240  151.7030 C   0  0  0  0  0  2  0  0  0  0  0  0
  161.4120  201.9910  151.0430 N   0  0  0  0  0  2  0  0  0  0  0  0
  160.9340  199.3770  150.1590 O   0  0  0  0  0  1  0  0  0  0  0  0
  160.5830  201.0020  149.8500 P   0  0  1  0  0  0  0  0  0  0  0  0
  159.0900  201.2140  149.9620 O   0  0  0  0  0  0  0  0  0  0  0  0
  161.7290  200.3220  147.5970 F   0  0  0  0  0  0  0  0  0  0  0  0
  160.0450  201.7800  147.3780 F   0  0  0  0  0  0  0  0  0  0  0  0
  161.1390  201.4380  148.1610 C   0  0  0  0  0  0  0  0  0  0  0  0
  162.1080  202.4670  148.1980 O   0  0  0  0  0  0  0  0  0  0  0  0
  161.5910  203.6120  147.5730 C   0  0  0  0  0  2  0  0  0  0  0  0
  162.6930  204.2930  146.7800 C   0  0  0  0  0  2  0  0  0  0  0  0
  162.4710  204.1010  145.3560 N   0  0  0  0  0  0  0  0  0  0  0  0
  161.4980  205.5520  143.7580 N   0  0  0  0  0  2  0  0  0  0  0  0
  162.5650  205.4150  144.7350 C   0  0  0  0  0  2  0  0  0  0  0  0
  161.0860  203.6940  145.1820 C   0  0  0  0  0  2  0  0  0  0  0  0
  160.4430  204.6820  144.2400 C   0  0  0  0  0  2  0  0  0  0  0  0
  160.4820  209.3030  152.6530 C   0  0  0  0  0  2  0  0  0  0  0  0
  160.8480  210.0070  153.9530 C   0  0  0  0  0  2  0  0  0  0  0  0
  159.8440  209.7240  155.0780 C   0  0  2  0  0  3  0  0  0  0  0  0
  159.7100  212.8620  155.3030 C   0  0  0  0  0  2  0  0  0  0  0  0
  160.3630  211.9160  156.2580 C   0  0  0  0  0  0  0  0  0  0  0  0
  158.4190  210.6570  156.8390 O   0  0  0  0  0  1  0  0  0  0  0  0
  159.2900  210.9800  155.7930 C   0  0  2  0  0  0  0  0  0  0  0  0
  157.6970  211.9420  154.0660 O   0  0  0  0  0  0  0  0  0  0  0  0
  158.6420  211.9290  154.8380 C   0  0  0  0  0  0  0  0  0  0  0  0
  161.3130  211.9610  157.1900 C   0  0  0  0  0  2  0  0  0  0  0  0
  161.7290  208.5080  156.2340 N   0  0  0  0  0  1  0  0  0  0  0  0
  160.3330  208.6640  156.0200 C   0  0  0  0  0  0  0  0  0  0  0  0
  159.5220  207.9140  156.6230 O   0  0  0  0  0  0  0  0  0  0  0  0
  1 43  1  6  0  0  0
  2 10  1  6  0  0  0
  2  7  1  0  0  0  0
  3  2  1  0  0  0  0
  5  4  2  0  0  0  0
  6  3  1  6  0  0  0
  6  8  1  0  0  0  0
  7  5  1  0  0  0  0
  8  5  1  0  0  0  0
  8  1  1  1  0  0  0
  9 11  1  0  0  0  0
 11 10  1  0  0  0  0
 11 12  2  0  0  0  0
 13  9  1  0  0  0  0
 14 13  1  0  0  0  0
 15 17  1  0  0  0  0
 15 14  1  0  0  0  0
 16 15  2  0  0  0  0
 18 21  2  0  0  0  0
 19 21  1  6  0  0  0
 19  6  1  0  0  0  0
 20 19  1  0  0  0  0
 21 20  1  0  0  0  0
 22  1  1  0  0  0  0
 22 23  1  0  0  0  0
 24 23  1  0  0  0  0
 25 24  1  0  0  0  0
 26 25  1  0  0  0  0
 26 27  1  0  0  0  0
 28 27  1  0  0  0  0
 30 31  2  1  0  0  0
 30 29  1  0  0  0  0
 30 28  1  0  0  0  0
 32 34  1  0  0  0  0
 33 34  1  0  0  0  0
 34 35  1  0  0  0  0
 34 30  1  0  0  0  0
 36 35  1  0  0  0  0
 37 36  1  0  0  0  0
 38 37  1  0  0  0  0
 39 42  1  0  0  0  0
 39 40  1  0  0  0  0
 40 38  1  0  0  0  0
 41 38  1  0  0  0  0
 42 41  1  0  0  0  0
 43 44  1  0  0  0  0
 45 44  1  6  0  0  0
 45 49  1  0  0  0  0
 45 54  1  0  0  0  0
 46 47  1  0  0  0  0
 47 52  2  0  0  0  0
 49 47  1  0  0  0  0
 49 48  1  1  0  0  0
 50 51  2  0  0  0  0
 51 46  1  0  0  0  0
 51 49  1  0  0  0  0
 54 53  1  0  0  0  0
 54 55  2  0  0  0  0
M  END
>  <MODEL>
4

>  <REMARK>
 VINA RESULT:      -3.4      1.498      2.026
  Name = 
  24 active torsions:
  status: ('A' for Active; 'I' for Inactive)
    1  A    between atoms: C_3  and  C_38
    2  A    between atoms: N_5  and  C_51
    3  A    between atoms: C_11  and  N_32
    4  A    between atoms: C_12  and  C_21
    5  A    between atoms: C_12  and  C_43
    6  A    between atoms: N_13  and  C_45
    7  A    between atoms: C_14  and  C_54
    8  A    between atoms: C_17  and  C_24
    9  A    between atoms: C_17  and  C_43
   10  A    between atoms: C_20  and  C_22
   11  A    between atoms: C_20  and  C_36
   12  A    between atoms: C_21  and  N_31
   13  A    between atoms: C_22  and  C_54
   14  A    between atoms: C_23  and  C_33
   15  A    between atoms: C_24  and  O_39
   16  A    between atoms: C_25  and  C_54
   17  A    between atoms: O_26  and  C_30
   18  A    between atoms: O_26  and  C_49
   19  A    between atoms: C_30  and  P_34
   20  A    between atoms: N_31  and  P_34
   21  A    between atoms: C_33  and  C_45
   22  A    between atoms: C_36  and  O_39
   23  A    between atoms: C_36  and  C_53
   24  A    between atoms: C_49  and  C_51
                            x       y       z     vdW  Elec       q    Type
                         _______ _______ _______ _____ _____    ______ ____

>  <TORSDO>
F 24

$$$$
