=
 OpenBabel11072411383D

 61 67  0  0  1  0  0  0  0  0999 V2000
  162.4420  209.3500  149.7310 C   0  0  0  0  0  2  0  0  0  0  0  0
  161.7360  208.5610  153.0040 C   0  0  2  0  0  3  0  0  0  0  0  0
  161.8950  209.6310  155.1180 C   0  0  1  0  0  3  0  0  0  0  0  0
  162.0960  211.7330  149.6830 C   0  0  2  0  0  3  0  0  0  0  0  0
  160.4500  213.4220  150.5570 C   0  0  0  0  0  2  0  0  0  0  0  0
  159.8260  212.6930  151.5700 O   0  0  0  0  0  0  0  0  0  0  0  0
  158.8470  213.1020  153.7220 C   0  0  1  0  0  3  0  0  0  0  0  0
  161.7860  210.4790  150.4840 C   0  0  2  0  0  3  0  0  0  0  0  0
  161.9400  208.6940  154.2570 C   0  0  0  0  0  2  0  0  0  0  0  0
  162.3690  210.5860  151.8140 N   0  0  0  0  0  2  0  0  0  0  0  0
  162.5910  209.8890  148.3270 C   0  0  0  0  0  2  0  0  0  0  0  0
  159.1950  213.6640  152.3500 C   0  0  0  0  0  2  0  0  0  0  0  0
  160.1880  211.2180  154.6100 C   0  0  2  0  0  3  0  0  0  0  0  0
  160.8210  212.5120  149.3910 C   0  0  0  0  0  2  0  0  0  0  0  0
  161.5490  210.7170  154.1470 C   0  0  2  0  0  3  0  0  0  0  0  0
  160.1030  212.7300  154.4940 C   0  0  0  0  0  2  0  0  0  0  0  0
  162.7220  211.3350  148.4230 N   0  0  0  0  0  2  0  0  0  0  0  0
  161.4130  210.0120  152.7510 C   0  0  2  0  0  3  0  0  0  0  0  0
  160.0310  210.7840  156.0630 C   0  0  0  0  0  2  0  0  0  0  0  0
  160.9400  209.5760  156.2560 C   0  0  0  0  0  2  0  0  0  0  0  0
  157.9940  214.0860  154.5140 C   0  0  0  0  0  2  0  0  0  0  0  0
  156.5860  213.7040  154.4840 N   0  0  0  0  0  0  0  0  0  0  0  0
  154.3730  212.0690  156.9010 N   0  0  0  0  0  2  0  0  0  0  0  0
  155.1280  210.8710  157.2610 C   0  0  0  0  0  2  0  0  0  0  0  0
  156.0190  211.2810  154.9080 C   0  0  0  0  0  2  0  0  0  0  0  0
  155.7900  210.2560  156.0230 C   0  0  0  0  0  2  0  0  0  0  0  0
  155.3110  213.1280  156.5260 C   0  0  0  0  0  2  0  0  0  0  0  0
  156.3500  212.6630  155.4940 C   0  0  2  0  0  3  0  0  0  0  0  0
  156.2840  213.2140  153.1410 C   0  0  0  0  0  2  0  0  0  0  0  0
  155.0980  213.8860  152.6390 N   0  0  0  0  0  2  0  0  0  0  0  0
  154.8290  213.3500  151.3180 C   0  0  0  0  0  2  0  0  0  0  0  0
  154.9890  214.4420  150.2700 C   0  0  0  0  0  2  0  0  0  0  0  0
  157.5830  212.5900  148.2170 C   0  0  0  0  0  3  0  0  0  0  0  0
  158.2500  212.5100  145.5710 Cl  0  0  0  0  0  0  0  0  0  0  0  0
  155.5370  214.4510  147.8270 C   0  0  0  0  0  3  0  0  0  0  0  0
  155.8100  213.9740  149.1130 C   0  0  0  0  0  0  0  0  0  0  0  0
  156.2880  214.0020  146.7370 C   0  0  0  0  0  3  0  0  0  0  0  0
  156.8320  213.0390  149.3070 C   0  0  0  0  0  3  0  0  0  0  0  0
  157.3110  213.0720  146.9330 C   0  0  0  0  0  0  0  0  0  0  0  0
  160.8970  207.4540  152.4410 C   0  0  0  0  0  2  0  0  0  0  0  0
  161.1100  205.4350  150.8730 N   0  0  0  0  0  0  0  0  0  0  0  0
  162.4960  207.3060  150.6710 O   0  0  0  0  0  0  0  0  0  0  0  0
  160.6210  204.6960  153.0560 O   0  0  0  0  0  0  0  0  0  0  0  0
  160.6280  204.4520  151.8190 C   0  0  0  0  0  0  0  0  0  0  0  0
  161.5500  206.7430  151.2860 C   0  0  0  0  0  0  0  0  0  0  0  0
  161.2180  205.0800  149.4620 C   0  0  0  0  0  2  0  0  0  0  0  0
  160.3340  205.9940  148.6180 C   0  0  0  0  0  2  0  0  0  0  0  0
  162.2460  206.7770  147.4380 O   0  0  0  0  0  0  0  0  0  0  0  0
  161.0560  206.3750  147.3750 C   0  0  0  0  0  0  0  0  0  0  0  0
  160.4110  206.2690  146.1150 N   0  0  0  0  0  1  0  0  0  0  0  0
  160.1750  203.1030  151.3550 C   0  0  0  0  0  2  0  0  0  0  0  0
  161.3500  202.2920  150.8520 C   0  0  0  0  0  2  0  0  0  0  0  0
  161.1530  201.9440  149.4170 C   0  0  0  0  0  0  0  0  0  0  0  0
  160.3400  202.5190  147.2070 C   0  0  0  0  0  3  0  0  0  0  0  0
  160.5390  202.8540  148.5500 C   0  0  0  0  0  3  0  0  0  0  0  0
  161.7970  199.1120  147.1300 O   0  0  0  0  0  1  0  0  0  0  0  0
  161.3710  200.3530  147.5930 C   0  0  0  0  0  0  0  0  0  0  0  0
  161.5620  200.6900  148.9360 C   0  0  0  0  0  3  0  0  0  0  0  0
  160.7530  201.2690  146.7260 C   0  0  0  0  0  0  0  0  0  0  0  0
  160.5600  200.9430  145.2850 C   0  0  0  0  0  2  0  0  0  0  0  0
  159.5790  201.8470  144.7020 N   0  0  0  0  0  1  0  0  0  0  0  0
  2 40  1  1  0  0  0
  2  9  1  0  0  0  0
  3  9  1  6  0  0  0
  3 20  1  0  0  0  0
  4 14  1  6  0  0  0
  4  8  1  0  0  0  0
  5  6  1  0  0  0  0
  6 12  1  0  0  0  0
  7 16  1  0  0  0  0
  7 21  1  1  0  0  0
  8  1  1  6  0  0  0
  8 10  1  0  0  0  0
 10 18  1  0  0  0  0
 11 17  1  0  0  0  0
 11  1  1  0  0  0  0
 12  7  1  0  0  0  0
 13 16  1  1  0  0  0
 13 19  1  0  0  0  0
 14  5  1  0  0  0  0
 15 13  1  0  0  0  0
 15  3  1  0  0  0  0
 17  4  1  0  0  0  0
 18  2  1  0  0  0  0
 18 15  1  0  0  0  0
 19 20  1  0  0  0  0
 22 21  1  0  0  0  0
 22 28  1  0  0  0  0
 23 24  1  0  0  0  0
 25 28  1  0  0  0  0
 25 26  1  0  0  0  0
 26 24  1  0  0  0  0
 27 23  1  0  0  0  0
 28 27  1  0  0  0  0
 29 22  1  0  0  0  0
 30 29  1  0  0  0  0
 31 30  1  0  0  0  0
 32 31  1  0  0  0  0
 33 38  1  0  0  0  0
 34 39  1  0  0  0  0
 35 36  1  0  0  0  0
 36 38  2  0  0  0  0
 36 32  1  0  0  0  0
 37 39  1  0  0  0  0
 37 35  2  0  0  0  0
 39 33  2  0  0  0  0
 41 45  1  0  0  0  0
 41 44  1  0  0  0  0
 42 45  2  0  0  0  0
 44 43  2  0  0  0  0
 45 40  1  0  0  0  0
 46 41  1  0  0  0  0
 47 46  1  0  0  0  0
 49 48  2  0  0  0  0
 49 47  1  0  0  0  0
 50 49  1  0  0  0  0
 51 44  1  0  0  0  0
 52 51  1  0  0  0  0
 53 52  1  0  0  0  0
 54 55  1  0  0  0  0
 55 53  2  0  0  0  0
 56 57  1  0  0  0  0
 57 58  2  0  0  0  0
 58 53  1  0  0  0  0
 59 54  2  0  0  0  0
 59 57  1  0  0  0  0
 60 59  1  0  0  0  0
 61 60  1  0  0  0  0
M  END
>  <MODEL>
1

>  <REMARK>
 VINA RESULT:      -4.7      0.000      0.000
  Name = 
  17 active torsions:
  status: ('A' for Active; 'I' for Inactive)
    1  A    between atoms: C_1  and  C_35
    2  A    between atoms: N_2  and  C_55
    3  A    between atoms: C_5  and  C_6
    4  A    between atoms: C_5  and  C_57
    5  A    between atoms: N_10  and  C_22
    6  A    between atoms: N_10  and  C_23
    7  A    between atoms: N_10  and  C_59
    8  A    between atoms: C_15  and  C_22
    9  A    between atoms: N_21  and  C_23
   10  A    between atoms: N_21  and  C_61
   11  A    between atoms: C_24  and  C_51
   12  A    between atoms: C_24  and  C_55
   13  A    between atoms: C_31  and  C_35
   14  A    between atoms: C_31  and  C_45
   15  A    between atoms: C_34  and  C_44
   16  A    between atoms: C_34  and  C_61
   17  A    between atoms: C_48  and  C_53
                            x       y       z     vdW  Elec       q    Type
                         _______ _______ _______ _____ _____    ______ ____

>  <TORSDO>
F 17

$$$$
=
 OpenBabel11072411383D

 61 67  0  0  1  0  0  0  0  0999 V2000
  160.1560  209.0400  155.1110 C   0  0  0  0  0  2  0  0  0  0  0  0
  160.5070  210.9980  152.3040 C   0  0  2  0  0  3  0  0  0  0  0  0
  162.1160  211.2850  150.5810 C   0  0  1  0  0  3  0  0  0  0  0  0
  161.3510  207.0390  154.5040 C   0  0  2  0  0  3  0  0  0  0  0  0
  161.6030  205.5180  152.5160 C   0  0  0  0  0  2  0  0  0  0  0  0
  161.1390  206.3390  151.4870 O   0  0  0  0  0  0  0  0  0  0  0  0
  161.5820  206.7050  149.1580 C   0  0  1  0  0  3  0  0  0  0  0  0
  160.6970  208.2840  153.9250 C   0  0  2  0  0  3  0  0  0  0  0  0
  161.2310  211.5980  151.4410 C   0  0  0  0  0  2  0  0  0  0  0  0
  161.6950  209.0930  153.2400 N   0  0  0  0  0  2  0  0  0  0  0  0
  160.0220  207.9850  156.1840 C   0  0  0  0  0  2  0  0  0  0  0  0
  161.6110  205.7270  150.3230 C   0  0  0  0  0  2  0  0  0  0  0  0
  161.7100  209.1320  149.6380 C   0  0  2  0  0  3  0  0  0  0  0  0
  160.8350  205.7890  153.8050 C   0  0  0  0  0  2  0  0  0  0  0  0
  162.1500  209.8270  150.9190 C   0  0  2  0  0  3  0  0  0  0  0  0
  162.5250  207.8730  149.4010 C   0  0  0  0  0  2  0  0  0  0  0  0
  161.0310  206.9680  155.9290 N   0  0  0  0  0  2  0  0  0  0  0  0
  161.0670  209.6240  152.0380 C   0  0  2  0  0  3  0  0  0  0  0  0
  161.9220  210.1270  148.5030 C   0  0  0  0  0  2  0  0  0  0  0  0
  161.8860  211.5160  149.1310 C   0  0  0  0  0  2  0  0  0  0  0  0
  161.9150  206.0020  147.8470 C   0  0  0  0  0  2  0  0  0  0  0  0
  160.9020  205.0060  147.5130 N   0  0  0  0  0  0  0  0  0  0  0  0
  159.8810  201.8390  149.0430 N   0  0  0  0  0  2  0  0  0  0  0  0
  161.1500  201.1280  149.1750 C   0  0  0  0  0  2  0  0  0  0  0  0
  161.6730  202.6270  147.1800 C   0  0  0  0  0  2  0  0  0  0  0  0
  162.0200  201.3370  147.9310 C   0  0  0  0  0  2  0  0  0  0  0  0
  160.1320  203.2790  149.1110 C   0  0  0  0  0  2  0  0  0  0  0  0
  161.2500  203.7330  148.1580 C   0  0  2  0  0  3  0  0  0  0  0  0
  160.8720  204.8700  146.0590 C   0  0  0  0  0  2  0  0  0  0  0  0
  161.7090  205.8980  145.4630 N   0  0  0  0  0  2  0  0  0  0  0  0
  161.1730  206.1720  144.1430 C   0  0  0  0  0  2  0  0  0  0  0  0
  162.0150  205.4740  143.0840 C   0  0  0  0  0  2  0  0  0  0  0  0
  162.3700  206.2770  139.3950 C   0  0  0  0  0  3  0  0  0  0  0  0
  161.8050  208.4410  137.8300 Cl  0  0  0  0  0  0  0  0  0  0  0  0
  161.4800  207.5150  141.7360 C   0  0  0  0  0  3  0  0  0  0  0  0
  161.9810  206.2100  141.7840 C   0  0  0  0  0  0  0  0  0  0  0  0
  161.4260  208.2030  140.5200 C   0  0  0  0  0  3  0  0  0  0  0  0
  162.4230  205.5900  140.6110 C   0  0  0  0  0  3  0  0  0  0  0  0
  161.8720  207.5830  139.3510 C   0  0  0  0  0  0  0  0  0  0  0  0
  159.0330  211.2420  152.4250 C   0  0  0  0  0  2  0  0  0  0  0  0
  157.8120  213.4850  152.1890 N   0  0  0  0  0  0  0  0  0  0  0  0
  159.2010  213.0200  154.0110 O   0  0  0  0  0  0  0  0  0  0  0  0
  158.5430  212.7550  150.0730 O   0  0  0  0  0  0  0  0  0  0  0  0
  157.7660  213.4870  150.7440 C   0  0  0  0  0  0  0  0  0  0  0  0
  158.6980  212.6210  152.9270 C   0  0  0  0  0  0  0  0  0  0  0  0
  156.9860  214.4290  152.9350 C   0  0  0  0  0  2  0  0  0  0  0  0
  155.5690  213.8850  153.0900 C   0  0  0  0  0  2  0  0  0  0  0  0
  155.1610  213.9510  155.4320 O   0  0  0  0  0  0  0  0  0  0  0  0
  155.4240  213.2460  154.4250 C   0  0  0  0  0  0  0  0  0  0  0  0
  155.5640  211.8400  154.5620 N   0  0  0  0  0  1  0  0  0  0  0  0
  156.8310  214.3950  150.0100 C   0  0  0  0  0  2  0  0  0  0  0  0
  156.1870  213.6700  148.8470 C   0  0  0  0  0  2  0  0  0  0  0  0
  156.9910  213.8730  147.6100 C   0  0  0  0  0  0  0  0  0  0  0  0
  157.1170  214.1200  145.2020 C   0  0  0  0  0  3  0  0  0  0  0  0
  156.3580  213.9440  146.3640 C   0  0  0  0  0  3  0  0  0  0  0  0
  160.5340  214.2620  146.6290 O   0  0  0  0  0  1  0  0  0  0  0  0
  159.1500  214.1520  146.5300 C   0  0  0  0  0  0  0  0  0  0  0  0
  158.3880  213.9700  147.6890 C   0  0  0  0  0  3  0  0  0  0  0  0
  158.5120  214.2210  145.2810 C   0  0  0  0  0  0  0  0  0  0  0  0
  159.2990  214.4390  144.0350 C   0  0  0  0  0  2  0  0  0  0  0  0
  158.6610  213.7480  142.9230 N   0  0  0  0  0  1  0  0  0  0  0  0
  1 11  1  0  0  0  0
  2 40  1  6  0  0  0
  3 20  1  6  0  0  0
  3 15  1  0  0  0  0
  3  9  1  0  0  0  0
  4 14  1  6  0  0  0
  4 17  1  0  0  0  0
  5 14  1  0  0  0  0
  6  5  1  0  0  0  0
  7 21  1  6  0  0  0
  7 16  1  0  0  0  0
  7 12  1  0  0  0  0
  8  4  1  0  0  0  0
  8  1  1  1  0  0  0
  9  2  1  0  0  0  0
 10  8  1  0  0  0  0
 12  6  1  0  0  0  0
 13 19  1  6  0  0  0
 13 15  1  0  0  0  0
 15 18  1  0  0  0  0
 16 13  1  0  0  0  0
 17 11  1  0  0  0  0
 18  2  1  0  0  0  0
 18 10  1  0  0  0  0
 19 20  1  0  0  0  0
 22 21  1  0  0  0  0
 22 28  1  0  0  0  0
 23 27  1  0  0  0  0
 23 24  1  0  0  0  0
 25 26  1  0  0  0  0
 25 28  1  0  0  0  0
 26 24  1  0  0  0  0
 28 27  1  0  0  0  0
 29 22  1  0  0  0  0
 30 29  1  0  0  0  0
 31 30  1  0  0  0  0
 32 31  1  0  0  0  0
 33 38  1  0  0  0  0
 34 39  1  0  0  0  0
 35 36  1  0  0  0  0
 36 32  1  0  0  0  0
 37 35  2  0  0  0  0
 38 36  2  0  0  0  0
 39 33  2  0  0  0  0
 39 37  1  0  0  0  0
 40 45  1  0  0  0  0
 41 45  1  0  0  0  0
 41 46  1  0  0  0  0
 43 44  2  0  0  0  0
 44 41  1  0  0  0  0
 45 42  2  0  0  0  0
 46 47  1  0  0  0  0
 47 49  1  0  0  0  0
 49 50  1  0  0  0  0
 49 48  2  0  0  0  0
 51 44  1  0  0  0  0
 52 51  1  0  0  0  0
 53 58  1  0  0  0  0
 53 52  1  0  0  0  0
 54 59  2  0  0  0  0
 54 55  1  0  0  0  0
 55 53  2  0  0  0  0
 57 56  1  0  0  0  0
 57 58  2  0  0  0  0
 59 57  1  0  0  0  0
 60 59  1  0  0  0  0
 61 60  1  0  0  0  0
M  END
>  <MODEL>
2

>  <REMARK>
 VINA RESULT:      -3.5      3.401     10.371
  Name = 
  17 active torsions:
  status: ('A' for Active; 'I' for Inactive)
    1  A    between atoms: C_1  and  C_35
    2  A    between atoms: N_2  and  C_55
    3  A    between atoms: C_5  and  C_6
    4  A    between atoms: C_5  and  C_57
    5  A    between atoms: N_10  and  C_22
    6  A    between atoms: N_10  and  C_23
    7  A    between atoms: N_10  and  C_59
    8  A    between atoms: C_15  and  C_22
    9  A    between atoms: N_21  and  C_23
   10  A    between atoms: N_21  and  C_61
   11  A    between atoms: C_24  and  C_51
   12  A    between atoms: C_24  and  C_55
   13  A    between atoms: C_31  and  C_35
   14  A    between atoms: C_31  and  C_45
   15  A    between atoms: C_34  and  C_44
   16  A    between atoms: C_34  and  C_61
   17  A    between atoms: C_48  and  C_53
                            x       y       z     vdW  Elec       q    Type
                         _______ _______ _______ _____ _____    ______ ____

>  <TORSDO>
F 17

$$$$
=
 OpenBabel11072411383D

 61 67  0  0  1  0  0  0  0  0999 V2000
  162.1850  208.8080  149.5820 C   0  0  0  0  0  2  0  0  0  0  0  0
  160.9270  208.2900  152.7420 C   0  0  2  0  0  3  0  0  0  0  0  0
  160.9650  209.4200  154.8300 C   0  0  1  0  0  3  0  0  0  0  0  0
  162.2300  211.2110  149.4270 C   0  0  2  0  0  3  0  0  0  0  0  0
  160.7680  213.1710  150.0180 C   0  0  0  0  0  2  0  0  0  0  0  0
  159.9050  212.5940  150.9510 O   0  0  0  0  0  0  0  0  0  0  0  0
  158.7210  213.2470  152.9320 C   0  0  1  0  0  3  0  0  0  0  0  0
  161.6200  210.0580  150.2070 C   0  0  2  0  0  3  0  0  0  0  0  0
  160.9790  208.4480  154.0070 C   0  0  0  0  0  2  0  0  0  0  0  0
  162.0270  210.1360  151.6020 N   0  0  0  0  0  2  0  0  0  0  0  0
  162.6050  209.2520  148.2000 C   0  0  0  0  0  2  0  0  0  0  0  0
  159.3360  213.6860  151.6100 C   0  0  0  0  0  2  0  0  0  0  0  0
  159.6160  211.2240  154.0470 C   0  0  2  0  0  3  0  0  0  0  0  0
  161.1440  212.1610  148.9390 C   0  0  0  0  0  2  0  0  0  0  0  0
  160.9300  210.5000  153.7930 C   0  0  2  0  0  3  0  0  0  0  0  0
  159.7860  212.7240  153.8830 C   0  0  0  0  0  2  0  0  0  0  0  0
  162.9500  210.6640  148.2780 N   0  0  0  0  0  2  0  0  0  0  0  0
  160.8750  209.7590  152.4100 C   0  0  2  0  0  3  0  0  0  0  0  0
  159.1970  210.8870  155.4740 C   0  0  0  0  0  2  0  0  0  0  0  0
  159.8690  209.5650  155.8230 C   0  0  0  0  0  2  0  0  0  0  0  0
  157.9360  214.3860  153.5720 C   0  0  0  0  0  2  0  0  0  0  0  0
  156.5480  213.9990  153.8100 N   0  0  0  0  0  0  0  0  0  0  0  0
  155.3270  211.9950  156.6210 N   0  0  0  0  0  2  0  0  0  0  0  0
  155.8060  210.6560  156.2860 C   0  0  0  0  0  2  0  0  0  0  0  0
  155.6040  211.6630  153.9540 C   0  0  0  0  0  2  0  0  0  0  0  0
  155.6390  210.3790  154.7890 C   0  0  0  0  0  2  0  0  0  0  0  0
  156.2390  212.9840  156.0470 C   0  0  0  0  0  2  0  0  0  0  0  0
  156.5250  212.7340  154.5580 C   0  0  2  0  0  3  0  0  0  0  0  0
  155.8960  213.8560  152.5110 C   0  0  0  0  0  2  0  0  0  0  0  0
  156.7320  214.4530  151.4840 N   0  0  0  0  0  2  0  0  0  0  0  0
  156.0170  214.3360  150.2280 C   0  0  0  0  0  2  0  0  0  0  0  0
  156.3590  213.0130  149.5550 C   0  0  0  0  0  2  0  0  0  0  0  0
  158.0840  212.5720  146.2080 C   0  0  0  0  0  3  0  0  0  0  0  0
  160.0960  213.8640  144.8910 Cl  0  0  0  0  0  0  0  0  0  0  0  0
  158.2250  214.2520  148.4360 C   0  0  0  0  0  3  0  0  0  0  0  0
  157.2930  213.2090  148.4060 C   0  0  0  0  0  0  0  0  0  0  0  0
  159.0890  214.4530  147.3550 C   0  0  0  0  0  3  0  0  0  0  0  0
  157.2200  212.3710  147.2890 C   0  0  0  0  0  3  0  0  0  0  0  0
  159.0170  213.6130  146.2420 C   0  0  0  0  0  0  0  0  0  0  0  0
  160.0080  207.2990  152.0940 C   0  0  0  0  0  2  0  0  0  0  0  0
  161.3690  205.4010  151.0340 N   0  0  0  0  0  0  0  0  0  0  0  0
  160.2690  205.1380  153.0790 O   0  0  0  0  0  0  0  0  0  0  0  0
  160.2320  206.5950  149.3520 O   0  0  0  0  0  0  0  0  0  0  0  0
  161.1720  205.8150  149.6620 C   0  0  0  0  0  0  0  0  0  0  0  0
  160.5450  205.8930  152.1080 C   0  0  0  0  0  0  0  0  0  0  0  0
  162.3900  204.4050  151.3430 C   0  0  0  0  0  2  0  0  0  0  0  0
  161.7890  203.2700  152.1660 C   0  0  0  0  0  2  0  0  0  0  0  0
  161.6500  201.4380  150.6560 O   0  0  0  0  0  0  0  0  0  0  0  0
  161.0400  202.3490  151.2700 C   0  0  0  0  0  0  0  0  0  0  0  0
  159.6340  202.4850  151.1220 N   0  0  0  0  0  1  0  0  0  0  0  0
  162.0490  205.2870  148.5710 C   0  0  0  0  0  2  0  0  0  0  0  0
  161.3100  205.2840  147.2490 C   0  0  0  0  0  2  0  0  0  0  0  0
  161.0540  203.8830  146.8110 C   0  0  0  0  0  0  0  0  0  0  0  0
  160.3670  202.3080  145.1010 C   0  0  0  0  0  3  0  0  0  0  0  0
  160.6230  203.6230  145.5050 C   0  0  0  0  0  3  0  0  0  0  0  0
  161.1600  200.4670  148.2180 O   0  0  0  0  0  1  0  0  0  0  0  0
  160.9730  201.5070  147.3130 C   0  0  0  0  0  0  0  0  0  0  0  0
  161.2210  202.8230  147.7150 C   0  0  0  0  0  3  0  0  0  0  0  0
  160.5390  201.2490  146.0020 C   0  0  0  0  0  0  0  0  0  0  0  0
  160.2920  199.8530  145.5430 C   0  0  0  0  0  2  0  0  0  0  0  0
  161.5450  199.1130  145.5220 N   0  0  0  0  0  1  0  0  0  0  0  0
  2 40  1  1  0  0  0
  2  9  1  0  0  0  0
  3  9  1  6  0  0  0
  3 20  1  0  0  0  0
  4 14  1  6  0  0  0
  4  8  1  0  0  0  0
  5  6  1  0  0  0  0
  6 12  1  0  0  0  0
  7 21  1  1  0  0  0
  7 16  1  0  0  0  0
  8  1  1  6  0  0  0
  8 10  1  0  0  0  0
 10 18  1  0  0  0  0
 11 17  1  0  0  0  0
 11  1  1  0  0  0  0
 12  7  1  0  0  0  0
 13 16  1  1  0  0  0
 13 19  1  0  0  0  0
 14  5  1  0  0  0  0
 15 13  1  0  0  0  0
 15  3  1  0  0  0  0
 17  4  1  0  0  0  0
 18  2  1  0  0  0  0
 18 15  1  0  0  0  0
 19 20  1  0  0  0  0
 21 22  1  0  0  0  0
 22 28  1  0  0  0  0
 24 23  1  0  0  0  0
 25 28  1  0  0  0  0
 25 26  1  0  0  0  0
 26 24  1  0  0  0  0
 27 23  1  0  0  0  0
 28 27  1  0  0  0  0
 29 22  1  0  0  0  0
 30 29  1  0  0  0  0
 31 30  1  0  0  0  0
 32 31  1  0  0  0  0
 33 39  2  0  0  0  0
 33 38  1  0  0  0  0
 34 39  1  0  0  0  0
 36 35  1  0  0  0  0
 36 32  1  0  0  0  0
 37 35  2  0  0  0  0
 38 36  2  0  0  0  0
 39 37  1  0  0  0  0
 40 45  1  0  0  0  0
 41 46  1  0  0  0  0
 41 45  1  0  0  0  0
 43 44  2  0  0  0  0
 44 41  1  0  0  0  0
 45 42  2  0  0  0  0
 46 47  1  0  0  0  0
 48 49  2  0  0  0  0
 49 47  1  0  0  0  0
 50 49  1  0  0  0  0
 51 44  1  0  0  0  0
 52 51  1  0  0  0  0
 53 52  1  0  0  0  0
 53 58  1  0  0  0  0
 54 55  1  0  0  0  0
 54 59  2  0  0  0  0
 55 53  2  0  0  0  0
 57 58  2  0  0  0  0
 57 56  1  0  0  0  0
 59 57  1  0  0  0  0
 60 59  1  0  0  0  0
 61 60  1  0  0  0  0
M  END
>  <MODEL>
3

>  <REMARK>
 VINA RESULT:      -3.5      1.427      2.365
  Name = 
  17 active torsions:
  status: ('A' for Active; 'I' for Inactive)
    1  A    between atoms: C_1  and  C_35
    2  A    between atoms: N_2  and  C_55
    3  A    between atoms: C_5  and  C_6
    4  A    between atoms: C_5  and  C_57
    5  A    between atoms: N_10  and  C_22
    6  A    between atoms: N_10  and  C_23
    7  A    between atoms: N_10  and  C_59
    8  A    between atoms: C_15  and  C_22
    9  A    between atoms: N_21  and  C_23
   10  A    between atoms: N_21  and  C_61
   11  A    between atoms: C_24  and  C_51
   12  A    between atoms: C_24  and  C_55
   13  A    between atoms: C_31  and  C_35
   14  A    between atoms: C_31  and  C_45
   15  A    between atoms: C_34  and  C_44
   16  A    between atoms: C_34  and  C_61
   17  A    between atoms: C_48  and  C_53
                            x       y       z     vdW  Elec       q    Type
                         _______ _______ _______ _____ _____    ______ ____

>  <TORSDO>
F 17

$$$$
=
 OpenBabel11072411383D

 61 68  0  0  1  0  0  0  0  0999 V2000
  162.2770  208.2120  149.6900 C   0  0  2  0  0  3  0  0  0  0  0  0
  161.2570  207.2160  152.8210 C   0  0  2  0  0  3  0  0  0  0  0  0
  161.5070  207.9870  155.0530 C   0  0  1  0  0  3  0  0  0  0  0  0
  162.4050  210.6060  149.9210 C   0  0  2  0  0  3  0  0  0  0  0  0
  161.0740  212.4800  150.9440 C   0  0  0  0  0  2  0  0  0  0  0  0
  160.2660  211.7800  151.8410 O   0  0  0  0  0  0  0  0  0  0  0  0
  159.2720  212.1310  153.9960 C   0  0  1  0  0  3  0  0  0  0  0  0
  161.8140  209.3570  150.5550 C   0  0  2  0  0  3  0  0  0  0  0  0
  161.4160  207.1630  154.0860 C   0  0  0  0  0  2  0  0  0  0  0  0
  162.3350  209.1940  151.9040 N   0  0  0  0  0  2  0  0  0  0  0  0
  162.6030  208.8660  148.3670 C   0  0  0  0  0  2  0  0  0  0  0  0
  159.7960  212.7640  152.7150 C   0  0  0  0  0  2  0  0  0  0  0  0
  160.1720  209.9290  154.6900 C   0  0  2  0  0  3  0  0  0  0  0  0
  161.3220  211.6520  149.6880 C   0  0  0  0  0  2  0  0  0  0  0  0
  161.4320  209.2230  154.2100 C   0  0  2  0  0  3  0  0  0  0  0  0
  160.3880  211.4310  154.7550 C   0  0  0  0  0  2  0  0  0  0  0  0
  163.0080  210.2370  148.6420 N   0  0  0  0  0  2  0  0  0  0  0  0
  161.2370  208.7210  152.7350 C   0  0  2  0  0  3  0  0  0  0  0  0
  159.8560  209.3740  156.0740 C   0  0  0  0  0  2  0  0  0  0  0  0
  160.5010  207.9950  156.1460 C   0  0  0  0  0  2  0  0  0  0  0  0
  158.5860  213.1690  154.8760 C   0  0  0  0  0  2  0  0  0  0  0  0
  157.1390  213.1470  154.6830 N   0  0  0  0  0  0  0  0  0  0  0  0
  154.7540  212.0930  157.2550 N   0  0  0  0  0  2  0  0  0  0  0  0
  154.8620  210.6370  157.2080 C   0  0  0  0  0  2  0  0  0  0  0  0
  155.5170  211.2190  154.8140 C   0  0  0  0  0  2  0  0  0  0  0  0
  154.9650  210.1480  155.7600 C   0  0  0  0  0  2  0  0  0  0  0  0
  156.0320  212.6790  156.8480 C   0  0  0  0  0  2  0  0  0  0  0  0
  156.5590  212.0940  155.5280 C   0  0  2  0  0  3  0  0  0  0  0  0
  156.8800  212.8920  153.2690 C   0  0  0  0  0  2  0  0  0  0  0  0
  156.1070  213.9910  152.7150 N   0  0  0  0  0  2  0  0  0  0  0  0
  156.8000  214.4460  151.5250 C   0  0  0  0  0  2  0  0  0  0  0  0
  156.1690  213.8270  150.2860 C   0  0  0  0  0  2  0  0  0  0  0  0
  159.2710  214.3730  148.1750 C   0  0  0  0  0  3  0  0  0  0  0  0
  160.0830  213.5670  145.6960 Cl  0  0  0  0  0  0  0  0  0  0  0  0
  156.8160  213.0510  147.9950 C   0  0  0  0  0  3  0  0  0  0  0  0
  157.1330  213.7790  149.1460 C   0  0  0  0  0  0  0  0  0  0  0  0
  157.7220  212.9870  146.9320 C   0  0  0  0  0  3  0  0  0  0  0  0
  158.3640  214.4370  149.2370 C   0  0  0  0  0  3  0  0  0  0  0  0
  158.9490  213.6470  147.0230 C   0  0  0  0  0  0  0  0  0  0  0  0
  160.2500  206.3690  152.1020 C   0  0  0  0  0  2  0  0  0  0  0  0
  160.6340  204.9200  150.0200 N   0  0  0  0  0  0  0  0  0  0  0  0
  160.6980  207.2550  149.9290 O   0  0  0  0  0  0  0  0  0  0  0  0
  161.6280  203.8950  151.8930 O   0  0  0  0  0  0  0  0  0  0  0  0
  161.1740  203.7770  150.7230 C   0  0  0  0  0  0  0  0  0  0  0  0
  160.5390  206.2210  150.6320 C   0  0  1  0  0  3  0  0  0  0  0  0
  160.2270  204.7790  148.6260 C   0  0  0  0  0  2  0  0  0  0  0  0
  161.3830  205.1400  147.6990 C   0  0  0  0  0  2  0  0  0  0  0  0
  159.8980  206.5590  146.4990 O   0  0  0  0  0  0  0  0  0  0  0  0
  160.8490  205.7390  146.4460 C   0  0  0  0  0  0  0  0  0  0  0  0
  161.4230  205.4010  145.1930 N   0  0  0  0  0  1  0  0  0  0  0  0
  161.2540  202.4390  150.0580 C   0  0  0  0  0  2  0  0  0  0  0  0
  162.1180  202.5130  148.8160 C   0  0  0  0  0  2  0  0  0  0  0  0
  161.6670  201.5030  147.8190 C   0  0  0  0  0  0  0  0  0  0  0  0
  161.5910  199.2110  147.0350 C   0  0  0  0  0  3  0  0  0  0  0  0
  162.0030  200.1550  147.9820 C   0  0  0  0  0  3  0  0  0  0  0  0
  159.7540  201.3800  144.6580 O   0  0  0  0  0  1  0  0  0  0  0  0
  160.5050  200.9650  145.7540 C   0  0  0  0  0  0  0  0  0  0  0  0
  160.9230  201.9070  146.6990 C   0  0  0  0  0  3  0  0  0  0  0  0
  160.8450  199.6120  145.9200 C   0  0  0  0  0  0  0  0  0  0  0  0
  160.3900  198.5870  144.9400 C   0  0  0  0  0  2  0  0  0  0  0  0
  161.5350  197.8360  144.4460 N   0  0  0  0  0  1  0  0  0  0  0  0
  1 11  1  6  0  0  0
  1 42  1  0  0  0  0
  1  8  1  0  0  0  0
  2 40  1  1  0  0  0
  2  9  1  0  0  0  0
  3  9  1  6  0  0  0
  3 20  1  0  0  0  0
  4 14  1  6  0  0  0
  4  8  1  0  0  0  0
  5  6  1  0  0  0  0
  6 12  1  0  0  0  0
  7 16  1  0  0  0  0
  7 21  1  1  0  0  0
  8 10  1  1  0  0  0
 10 18  1  0  0  0  0
 11 17  1  0  0  0  0
 12  7  1  0  0  0  0
 13 16  1  1  0  0  0
 13 19  1  0  0  0  0
 14  5  1  0  0  0  0
 15 13  1  0  0  0  0
 15  3  1  0  0  0  0
 17  4  1  0  0  0  0
 18  2  1  0  0  0  0
 18 15  1  0  0  0  0
 19 20  1  0  0  0  0
 22 21  1  0  0  0  0
 22 28  1  0  0  0  0
 24 23  1  0  0  0  0
 25 28  1  0  0  0  0
 25 26  1  0  0  0  0
 26 24  1  0  0  0  0
 27 23  1  0  0  0  0
 28 27  1  0  0  0  0
 29 22  1  0  0  0  0
 30 29  1  0  0  0  0
 31 30  1  0  0  0  0
 32 31  1  0  0  0  0
 33 38  1  0  0  0  0
 34 39  1  0  0  0  0
 35 36  1  0  0  0  0
 36 38  2  0  0  0  0
 36 32  1  0  0  0  0
 37 39  1  0  0  0  0
 37 35  2  0  0  0  0
 39 33  2  0  0  0  0
 41 45  1  0  0  0  0
 41 44  1  0  0  0  0
 42 45  1  0  0  0  0
 44 43  2  0  0  0  0
 45 40  1  0  0  0  0
 46 41  1  0  0  0  0
 47 46  1  0  0  0  0
 49 48  2  0  0  0  0
 49 47  1  0  0  0  0
 50 49  1  0  0  0  0
 51 44  1  0  0  0  0
 52 51  1  0  0  0  0
 53 55  1  0  0  0  0
 53 52  1  0  0  0  0
 54 55  2  0  0  0  0
 56 57  1  0  0  0  0
 57 59  2  0  0  0  0
 57 58  1  0  0  0  0
 58 53  2  0  0  0  0
 59 54  1  0  0  0  0
 60 59  1  0  0  0  0
 61 60  1  0  0  0  0
M  END
>  <MODEL>
4

>  <REMARK>
 VINA RESULT:      -2.1      1.474      1.770
  Name = 
  17 active torsions:
  status: ('A' for Active; 'I' for Inactive)
    1  A    between atoms: C_1  and  C_35
    2  A    between atoms: N_2  and  C_55
    3  A    between atoms: C_5  and  C_6
    4  A    between atoms: C_5  and  C_57
    5  A    between atoms: N_10  and  C_22
    6  A    between atoms: N_10  and  C_23
    7  A    between atoms: N_10  and  C_59
    8  A    between atoms: C_15  and  C_22
    9  A    between atoms: N_21  and  C_23
   10  A    between atoms: N_21  and  C_61
   11  A    between atoms: C_24  and  C_51
   12  A    between atoms: C_24  and  C_55
   13  A    between atoms: C_31  and  C_35
   14  A    between atoms: C_31  and  C_45
   15  A    between atoms: C_34  and  C_44
   16  A    between atoms: C_34  and  C_61
   17  A    between atoms: C_48  and  C_53
                            x       y       z     vdW  Elec       q    Type
                         _______ _______ _______ _____ _____    ______ ____

>  <TORSDO>
F 17

$$$$
