=
 OpenBabel11072413533D

 46 54  0  0  1  0  0  0  0  0999 V2000
  161.3450  209.1180  153.8470 C   0  0  0  0  0  0  0  0  0  0  0  0
  163.4500  210.4890  150.4000 C   0  0  0  0  0  1  0  0  0  0  0  0
  159.1690  212.7860  150.5690 C   0  0  0  0  0  2  0  0  0  0  0  0
  159.7550  211.8760  148.0230 C   0  0  0  0  0  2  0  0  0  0  0  0
  161.2680  206.3310  148.5930 C   0  0  0  0  0  0  0  0  0  0  0  0
  159.6470  209.5120  152.1770 O   0  0  0  0  0  0  0  0  0  0  0  0
  161.4070  207.7230  150.5980 C   0  0  0  0  0  0  0  0  0  0  0  0
  161.3440  206.1160  144.4480 C   0  0  0  0  0  3  0  0  0  0  0  0
  161.2980  206.1730  145.7810 C   0  0  0  0  0  0  0  0  0  0  0  0
  162.5020  208.4350  153.9390 N   0  0  0  0  0  2  0  0  0  0  0  0
  161.4090  207.8150  152.0660 C   0  0  0  0  0  0  0  0  0  0  0  0
  160.6730  208.7600  152.7260 C   0  0  0  0  0  0  0  0  0  0  0  0
  161.4480  207.4980  147.8000 C   0  0  0  0  0  0  0  0  0  0  0  0
  161.1400  211.6360  148.6470 C   0  0  2  0  0  3  0  0  0  0  0  0
  158.8320  213.2380  148.8290 S   0  0  0  0  0  0  0  0  0  0  0  0
  161.7290  203.6650  144.5600 C   0  0  0  0  0  2  0  0  0  0  0  0
  160.7920  211.5520  153.0900 C   0  0  0  0  0  2  0  0  0  0  0  0
  162.5480  207.6380  152.8420 C   0  0  0  0  0  3  0  0  0  0  0  0
  161.0510  203.6630  145.9280 C   0  0  0  0  0  2  0  0  0  0  0  0
  161.4690  207.4510  146.4650 C   0  0  0  0  0  3  0  0  0  0  0  0
  161.5910  208.8790  149.8010 C   0  0  0  0  0  0  0  0  0  0  0  0
  161.6230  208.7410  148.4090 C   0  0  0  0  0  3  0  0  0  0  0  0
  160.9550  210.6480  154.6910 S   0  0  0  0  0  0  0  0  0  0  0  0
  161.9580  210.2090  150.4520 C   0  0  2  0  0  3  0  0  0  0  0  0
  159.6990  210.9390  152.1690 C   0  0  1  0  0  3  0  0  0  0  0  0
  161.1630  204.9790  146.5760 N   0  0  0  0  0  0  0  0  0  0  0  0
  159.7900  211.4030  150.7020 C   0  0  2  0  0  3  0  0  0  0  0  0
  161.2470  206.4760  149.9940 C   0  0  0  0  0  3  0  0  0  0  0  0
  161.1200  205.1040  148.0190 C   0  0  0  0  0  0  0  0  0  0  0  0
  161.1510  211.4050  150.1100 N   0  0  2  0  0  0  0  0  0  0  0  0
  161.1660  204.8120  143.7280 C   0  0  0  0  0  2  0  0  0  0  0  0
  160.2990  202.8810  150.9660 C   0  0  0  0  0  3  0  0  0  0  0  0
  161.0970  202.6150  148.3020 C   0  0  0  0  0  3  0  0  0  0  0  0
  160.8930  201.4770  149.0860 C   0  0  0  0  0  3  0  0  0  0  0  0
  160.4940  201.6030  150.4240 C   0  0  0  0  0  0  0  0  0  0  0  0
  160.5000  204.0190  150.1810 C   0  0  0  0  0  3  0  0  0  0  0  0
  160.9030  203.8920  148.8470 C   0  0  0  0  0  0  0  0  0  0  0  0
  161.1660  199.5100  151.3170 O   0  0  0  0  0  0  0  0  0  0  0  0
  159.1150  200.2660  151.9910 O   0  0  0  0  0  1  0  0  0  0  0  0
  160.2850  200.4090  151.2560 C   0  0  0  0  0  0  0  0  0  0  0  0
  163.7150  214.4530  148.7050 C   0  0  0  0  0  3  0  0  0  0  0  0
  162.6110  212.6320  146.8940 C   0  0  0  0  0  3  0  0  0  0  0  0
  162.7430  213.5440  149.1340 C   0  0  0  0  0  3  0  0  0  0  0  0
  164.1370  214.4530  147.3710 C   0  0  0  0  0  3  0  0  0  0  0  0
  163.5920  213.5380  146.4680 C   0  0  0  0  0  3  0  0  0  0  0  0
  162.1740  212.6370  148.2240 C   0  0  0  0  0  0  0  0  0  0  0  0
  1 10  1  0  0  0  0
  1 23  1  0  0  0  0
  4 14  1  0  0  0  0
  4 15  1  0  0  0  0
  5 28  1  0  0  0  0
  6 12  1  0  0  0  0
  7 11  1  0  0  0  0
  8  9  2  0  0  0  0
  9 20  1  0  0  0  0
  9 26  1  0  0  0  0
 11 12  1  0  0  0  0
 11 18  2  0  0  0  0
 12  1  2  0  0  0  0
 13 22  1  0  0  0  0
 13  5  1  0  0  0  0
 14 46  1  1  0  0  0
 14 30  1  0  0  0  0
 15  3  1  0  0  0  0
 16 19  1  0  0  0  0
 17 23  1  0  0  0  0
 18 10  1  0  0  0  0
 19 26  1  0  0  0  0
 20 13  2  0  0  0  0
 21 24  1  0  0  0  0
 21  7  1  0  0  0  0
 22 21  2  0  0  0  0
 24  2  1  6  0  0  0
 25  6  1  0  0  0  0
 25 17  1  1  0  0  0
 26 29  1  0  0  0  0
 27  3  1  1  0  0  0
 27 25  1  0  0  0  0
 28  7  2  0  0  0  0
 29  5  2  0  0  0  0
 29 37  1  0  0  0  0
 30 24  1  0  0  0  0
 30 27  1  0  0  0  0
 31  8  1  0  0  0  0
 31 16  1  0  0  0  0
 33 37  2  0  0  0  0
 33 34  1  0  0  0  0
 34 35  2  0  0  0  0
 35 32  1  0  0  0  0
 35 40  1  0  0  0  0
 36 32  2  0  0  0  0
 37 36  1  0  0  0  0
 40 38  2  0  0  0  0
 40 39  1  0  0  0  0
 41 43  1  0  0  0  0
 42 46  1  0  0  0  0
 44 41  2  0  0  0  0
 45 42  2  0  0  0  0
 45 44  1  0  0  0  0
 46 43  2  0  0  0  0
M  END
>  <MODEL>
1

>  <REMARK>
 VINA RESULT:      15.1      0.000      0.000
  Name = 
  3 active torsions:
  status: ('A' for Active; 'I' for Inactive)
    1  A    between atoms: C_13  and  C_22
    2  A    between atoms: C_23  and  C_46
    3  A    between atoms: C_35  and  C_43
                            x       y       z     vdW  Elec       q    Type
                         _______ _______ _______ _____ _____    ______ ____

>  <TORSDO>
F 3

$$$$
=
 OpenBabel11072413533D

 46 54  0  0  1  0  0  0  0  0999 V2000
  161.5860  211.0910  152.3480 C   0  0  0  0  0  0  0  0  0  0  0  0
  163.1710  211.4950  148.4090 C   0  0  0  0  0  1  0  0  0  0  0  0
  158.7660  213.5500  148.4840 C   0  0  0  0  0  2  0  0  0  0  0  0
  159.1320  211.9680  146.2440 C   0  0  0  0  0  2  0  0  0  0  0  0
  161.1400  206.8990  148.1530 C   0  0  0  0  0  0  0  0  0  0  0  0
  159.6840  210.9080  150.8730 O   0  0  0  0  0  0  0  0  0  0  0  0
  161.3920  208.8180  149.6470 C   0  0  0  0  0  0  0  0  0  0  0  0
  160.7630  205.4940  144.2640 C   0  0  0  0  0  3  0  0  0  0  0  0
  160.8640  205.9340  145.5210 C   0  0  0  0  0  0  0  0  0  0  0  0
  162.7970  210.5170  152.4770 N   0  0  0  0  0  2  0  0  0  0  0  0
  161.5530  209.3320  151.0160 C   0  0  0  0  0  0  0  0  0  0  0  0
  160.8230  210.3940  151.4720 C   0  0  0  0  0  0  0  0  0  0  0  0
  161.1340  207.7930  147.0460 C   0  0  0  0  0  0  0  0  0  0  0  0
  160.5930  211.9810  146.7230 C   0  0  2  0  0  3  0  0  0  0  0  0
  158.2000  213.4630  146.7480 S   0  0  0  0  0  0  0  0  0  0  0  0
  161.3540  203.2010  145.0120 C   0  0  0  0  0  2  0  0  0  0  0  0
  160.7580  213.1740  151.0150 C   0  0  0  0  0  2  0  0  0  0  0  0
  162.7830  209.4380  151.6540 C   0  0  0  0  0  3  0  0  0  0  0  0
  160.8370  203.5670  146.4020 C   0  0  0  0  0  2  0  0  0  0  0  0
  161.0080  207.3620  145.7880 C   0  0  0  0  0  3  0  0  0  0  0  0
  161.3910  209.7000  148.5390 C   0  0  0  0  0  0  0  0  0  0  0  0
  161.2770  209.1660  147.2510 C   0  0  0  0  0  3  0  0  0  0  0  0
  161.1730  212.7810  152.7700 S   0  0  0  0  0  0  0  0  0  0  0  0
  161.7220  211.1770  148.7340 C   0  0  2  0  0  3  0  0  0  0  0  0
  159.6200  212.2720  150.4560 C   0  0  1  0  0  3  0  0  0  0  0  0
  160.9170  205.0170  146.6310 N   0  0  0  0  0  0  0  0  0  0  0  0
  159.5070  212.2950  148.9190 C   0  0  2  0  0  3  0  0  0  0  0  0
  161.2660  207.4440  149.4450 C   0  0  0  0  0  3  0  0  0  0  0  0
  161.0270  205.5530  147.9730 C   0  0  0  0  0  0  0  0  0  0  0  0
  160.7880  212.1850  148.1770 N   0  0  2  0  0  0  0  0  0  0  0  0
  160.6100  204.0310  143.9720 C   0  0  0  0  0  2  0  0  0  0  0  0
  160.9540  202.3660  150.0080 C   0  0  0  0  0  3  0  0  0  0  0  0
  161.0060  205.1260  150.4410 C   0  0  0  0  0  3  0  0  0  0  0  0
  160.9820  204.2500  151.5280 C   0  0  0  0  0  3  0  0  0  0  0  0
  160.9550  202.8640  151.3180 C   0  0  0  0  0  0  0  0  0  0  0  0
  160.9810  203.2430  148.9200 C   0  0  0  0  0  3  0  0  0  0  0  0
  161.0030  204.6260  149.1310 C   0  0  0  0  0  0  0  0  0  0  0  0
  161.9460  201.2750  152.7750 O   0  0  0  0  0  0  0  0  0  0  0  0
  159.7610  201.7930  153.2080 O   0  0  0  0  0  1  0  0  0  0  0  0
  160.9220  201.9370  152.4600 C   0  0  0  0  0  0  0  0  0  0  0  0
  163.3120  214.4530  145.6920 C   0  0  0  0  0  3  0  0  0  0  0  0
  161.3500  212.8500  144.5100 C   0  0  0  0  0  3  0  0  0  0  0  0
  162.4860  213.6560  146.4910 C   0  0  0  0  0  3  0  0  0  0  0  0
  163.1590  214.4500  144.3010 C   0  0  0  0  0  3  0  0  0  0  0  0
  162.1840  213.6430  143.7100 C   0  0  0  0  0  3  0  0  0  0  0  0
  161.4890  212.8610  145.9030 C   0  0  0  0  0  0  0  0  0  0  0  0
  1 10  1  0  0  0  0
  1 23  1  0  0  0  0
  4 14  1  0  0  0  0
  4 15  1  0  0  0  0
  5 28  1  0  0  0  0
  6 12  1  0  0  0  0
  7 11  1  0  0  0  0
  8  9  2  0  0  0  0
  9 20  1  0  0  0  0
  9 26  1  0  0  0  0
 11 12  1  0  0  0  0
 11 18  2  0  0  0  0
 12  1  2  0  0  0  0
 13 22  1  0  0  0  0
 13  5  1  0  0  0  0
 14 46  1  6  0  0  0
 14 30  1  0  0  0  0
 15  3  1  0  0  0  0
 16 19  1  0  0  0  0
 17 23  1  0  0  0  0
 18 10  1  0  0  0  0
 19 26  1  0  0  0  0
 20 13  2  0  0  0  0
 21 24  1  0  0  0  0
 21  7  1  0  0  0  0
 22 21  2  0  0  0  0
 24  2  1  6  0  0  0
 25  6  1  0  0  0  0
 25 17  1  6  0  0  0
 26 29  1  0  0  0  0
 27  3  1  1  0  0  0
 27 25  1  0  0  0  0
 28  7  2  0  0  0  0
 29  5  2  0  0  0  0
 29 37  1  0  0  0  0
 30 24  1  0  0  0  0
 30 27  1  0  0  0  0
 31  8  1  0  0  0  0
 31 16  1  0  0  0  0
 32 35  1  0  0  0  0
 33 34  1  0  0  0  0
 35 34  2  0  0  0  0
 35 40  1  0  0  0  0
 36 37  1  0  0  0  0
 36 32  2  0  0  0  0
 37 33  2  0  0  0  0
 40 38  2  0  0  0  0
 40 39  1  0  0  0  0
 41 43  1  0  0  0  0
 42 46  1  0  0  0  0
 44 41  2  0  0  0  0
 45 44  1  0  0  0  0
 45 42  2  0  0  0  0
 46 43  2  0  0  0  0
M  END
>  <MODEL>
2

>  <REMARK>
 VINA RESULT:      16.0      1.538      2.042
  Name = 
  3 active torsions:
  status: ('A' for Active; 'I' for Inactive)
    1  A    between atoms: C_13  and  C_22
    2  A    between atoms: C_23  and  C_46
    3  A    between atoms: C_35  and  C_43
                            x       y       z     vdW  Elec       q    Type
                         _______ _______ _______ _____ _____    ______ ____

>  <TORSDO>
F 3

$$$$
=
 OpenBabel11072413533D

 46 54  0  0  1  0  0  0  0  0999 V2000
  161.0240  212.0270  151.9550 C   0  0  0  0  0  0  0  0  0  0  0  0
  163.1040  211.9670  148.2310 C   0  0  0  0  0  1  0  0  0  0  0  0
  158.6950  213.8670  147.4690 C   0  0  0  0  0  2  0  0  0  0  0  0
  159.3750  212.0200  145.5250 C   0  0  0  0  0  2  0  0  0  0  0  0
  161.1970  207.3120  148.3340 C   0  0  0  0  0  0  0  0  0  0  0  0
  159.3350  211.5910  150.2870 O   0  0  0  0  0  0  0  0  0  0  0  0
  161.2210  209.4160  149.5780 C   0  0  0  0  0  0  0  0  0  0  0  0
  161.3540  205.4010  144.6510 C   0  0  0  0  0  3  0  0  0  0  0  0
  161.2820  206.0040  145.8410 C   0  0  0  0  0  0  0  0  0  0  0  0
  162.2170  211.5150  152.3120 N   0  0  0  0  0  2  0  0  0  0  0  0
  161.1930  210.1090  150.8750 C   0  0  0  0  0  0  0  0  0  0  0  0
  160.3930  211.1970  151.0890 C   0  0  0  0  0  0  0  0  0  0  0  0
  161.3210  208.0530  147.1260 C   0  0  0  0  0  0  0  0  0  0  0  0
  160.7610  212.1430  146.1800 C   0  0  2  0  0  3  0  0  0  0  0  0
  158.3620  213.5360  145.7020 S   0  0  0  0  0  0  0  0  0  0  0  0
  161.8780  203.2450  145.7670 C   0  0  0  0  0  2  0  0  0  0  0  0
  160.3450  213.8900  150.2600 C   0  0  0  0  0  2  0  0  0  0  0  0
  162.3280  210.3380  151.6450 C   0  0  0  0  0  3  0  0  0  0  0  0
  161.1780  203.7720  147.0190 C   0  0  0  0  0  2  0  0  0  0  0  0
  161.3680  207.4580  145.9310 C   0  0  0  0  0  3  0  0  0  0  0  0
  161.3510  210.1460  148.3710 C   0  0  0  0  0  0  0  0  0  0  0  0
  161.4150  209.4450  147.1630 C   0  0  0  0  0  3  0  0  0  0  0  0
  160.5330  213.7430  152.0900 S   0  0  0  0  0  0  0  0  0  0  0  0
  161.6300  211.6460  148.4080 C   0  0  2  0  0  3  0  0  0  0  0  0
  159.3040  212.8860  149.6860 C   0  0  1  0  0  3  0  0  0  0  0  0
  161.2040  205.2410  147.0610 N   0  0  0  0  0  0  0  0  0  0  0  0
  159.3930  212.7050  148.1590 C   0  0  2  0  0  3  0  0  0  0  0  0
  161.1440  208.0240  149.5470 C   0  0  0  0  0  3  0  0  0  0  0  0
  161.1290  205.9510  148.3220 C   0  0  0  0  0  0  0  0  0  0  0  0
  160.7610  212.5410  147.6070 N   0  0  2  0  0  0  0  0  0  0  0  0
  161.2630  203.9080  144.5400 C   0  0  0  0  0  2  0  0  0  0  0  0
  160.8160  205.1270  152.0000 C   0  0  0  0  0  3  0  0  0  0  0  0
  160.8200  203.7880  149.5480 C   0  0  0  0  0  3  0  0  0  0  0  0
  160.6710  203.0680  150.7350 C   0  0  0  0  0  3  0  0  0  0  0  0
  160.6690  203.7330  151.9690 C   0  0  0  0  0  0  0  0  0  0  0  0
  160.9620  205.8470  150.8110 C   0  0  0  0  0  3  0  0  0  0  0  0
  160.9690  205.1820  149.5810 C   0  0  0  0  0  0  0  0  0  0  0  0
  159.8020  201.9450  153.2640 O   0  0  0  0  0  0  0  0  0  0  0  0
  161.1790  203.3970  154.3710 O   0  0  0  0  0  1  0  0  0  0  0  0
  160.5200  202.9790  153.2220 C   0  0  0  0  0  0  0  0  0  0  0  0
  163.6360  214.4500  145.1890 C   0  0  0  0  0  3  0  0  0  0  0  0
  161.6960  212.8440  143.9760 C   0  0  0  0  0  3  0  0  0  0  0  0
  162.7290  213.7350  145.9770 C   0  0  0  0  0  3  0  0  0  0  0  0
  163.5750  214.3640  143.7940 C   0  0  0  0  0  3  0  0  0  0  0  0
  162.6120  213.5550  143.1880 C   0  0  0  0  0  3  0  0  0  0  0  0
  161.7430  212.9380  145.3710 C   0  0  0  0  0  0  0  0  0  0  0  0
  1 23  1  0  0  0  0
  1 10  1  0  0  0  0
  4 15  1  0  0  0  0
  4 14  1  0  0  0  0
  5 28  1  0  0  0  0
  6 12  1  0  0  0  0
  7 11  1  0  0  0  0
  8  9  2  0  0  0  0
  9 20  1  0  0  0  0
  9 26  1  0  0  0  0
 11 12  1  0  0  0  0
 11 18  2  0  0  0  0
 12  1  2  0  0  0  0
 13 22  1  0  0  0  0
 13  5  1  0  0  0  0
 14 46  1  6  0  0  0
 14 30  1  0  0  0  0
 15  3  1  0  0  0  0
 16 19  1  0  0  0  0
 17 23  1  0  0  0  0
 18 10  1  0  0  0  0
 19 26  1  0  0  0  0
 20 13  2  0  0  0  0
 21 24  1  0  0  0  0
 21  7  1  0  0  0  0
 22 21  2  0  0  0  0
 24  2  1  6  0  0  0
 25 17  1  1  0  0  0
 25  6  1  0  0  0  0
 26 29  1  0  0  0  0
 27  3  1  6  0  0  0
 27 25  1  0  0  0  0
 28  7  2  0  0  0  0
 29  5  2  0  0  0  0
 29 37  1  0  0  0  0
 30 27  1  0  0  0  0
 30 24  1  0  0  0  0
 31  8  1  0  0  0  0
 31 16  1  0  0  0  0
 33 37  2  0  0  0  0
 33 34  1  0  0  0  0
 34 35  2  0  0  0  0
 35 32  1  0  0  0  0
 35 40  1  0  0  0  0
 36 32  2  0  0  0  0
 37 36  1  0  0  0  0
 40 38  2  0  0  0  0
 40 39  1  0  0  0  0
 41 43  1  0  0  0  0
 42 46  1  0  0  0  0
 44 41  2  0  0  0  0
 45 44  1  0  0  0  0
 45 42  2  0  0  0  0
 46 43  2  0  0  0  0
M  END
>  <MODEL>
3

>  <REMARK>
 VINA RESULT:      18.0      1.855      2.618
  Name = 
  3 active torsions:
  status: ('A' for Active; 'I' for Inactive)
    1  A    between atoms: C_13  and  C_22
    2  A    between atoms: C_23  and  C_46
    3  A    between atoms: C_35  and  C_43
                            x       y       z     vdW  Elec       q    Type
                         _______ _______ _______ _____ _____    ______ ____

>  <TORSDO>
F 3

$$$$
