=
 OpenBabel11072413263D

 41 46  0  0  1  0  0  0  0  0999 V2000
  161.8120  205.5170  151.7430 C   0  0  0  0  0  2  0  0  0  0  0  0
  161.3160  208.4210  152.1350 C   0  0  0  0  0  0  0  0  0  0  0  0
  161.7500  207.1910  148.5900 C   0  0  0  0  0  2  0  0  0  0  0  0
  162.0170  204.9300  147.0890 C   0  0  1  0  0  0  0  0  0  0  0  0
  160.5150  207.4070  152.9050 C   0  0  0  0  0  2  0  0  0  0  0  0
  160.8390  205.7510  150.5910 C   0  0  2  0  0  3  0  0  0  0  0  0
  160.9060  204.5800  149.5750 C   0  0  0  0  0  2  0  0  0  0  0  0
  161.2420  205.9970  147.8180 C   0  0  1  0  0  3  0  0  0  0  0  0
  161.2630  206.0780  153.0590 C   0  0  0  0  0  2  0  0  0  0  0  0
  160.9860  207.1850  149.9350 C   0  0  1  0  0  3  0  0  0  0  0  0
  161.5580  208.2680  150.8230 C   0  0  0  0  0  3  0  0  0  0  0  0
  162.0120  204.9200  148.5990 C   0  0  2  0  0  3  0  0  0  0  0  0
  161.9900  209.5610  152.8640 C   0  0  1  0  0  3  0  0  0  0  0  0
  161.3930  210.8700  152.7050 C   0  0  2  0  0  3  0  0  0  0  0  0
  160.5800  210.0000  155.1630 N   0  0  0  0  0  0  0  0  0  0  0  0
  161.1240  210.1070  154.0070 C   0  0  0  0  0  0  0  0  0  0  0  0
  160.2580  212.5890  155.5290 O   0  0  0  0  0  0  0  0  0  0  0  0
  158.0500  211.2220  155.0160 N   0  0  0  0  0  1  0  0  0  0  0  0
  159.5980  211.2620  155.7810 S   0  0  0  0  0  0  0  0  0  0  0  0
  159.4240  211.0710  157.2600 O   0  0  0  0  0  0  0  0  0  0  0  0
  160.0790  210.9550  151.9230 C   0  0  0  0  0  2  0  0  0  0  0  0
  159.8650  212.3320  151.2960 C   0  0  2  0  0  3  0  0  0  0  0  0
  160.8250  213.8530  149.5620 C   0  0  0  0  0  3  0  0  0  0  0  0
  161.5550  211.5450  149.5880 C   0  0  0  0  0  3  0  0  0  0  0  0
  162.3830  211.7930  148.4890 C   0  0  0  0  0  3  0  0  0  0  0  0
  162.4330  213.0730  147.9290 C   0  0  0  0  0  3  0  0  0  0  0  0
  160.7750  212.5770  150.1320 C   0  0  0  0  0  0  0  0  0  0  0  0
  161.6540  214.1030  148.4650 C   0  0  0  0  0  3  0  0  0  0  0  0
  159.9770  213.3470  152.2510 O   0  0  0  0  0  0  0  0  0  0  0  0
  158.7620  213.4810  152.7390 O   0  0  0  0  0  1  0  0  0  0  0  0
  160.9490  203.9600  144.8850 C   0  0  1  0  0  3  0  0  0  0  0  0
  161.2190  203.8320  146.3480 C   0  0  2  0  0  0  0  0  0  0  0  0
  159.9720  204.2660  145.8590 O   0  0  0  0  0  0  0  0  0  0  0  0
  161.1840  201.4620  145.9010 F   0  0  0  0  0  0  0  0  0  0  0  0
  162.2860  202.2000  147.7170 F   0  0  0  0  0  0  0  0  0  0  0  0
  161.1790  202.4060  146.9160 C   0  0  0  0  0  0  0  0  0  0  0  0
  160.0370  202.2300  147.6730 F   0  0  0  0  0  0  0  0  0  0  0  0
  161.4550  205.2490  144.2550 C   0  0  0  0  0  2  0  0  0  0  0  0
  160.5430  206.2750  144.4950 O   0  0  0  0  0  1  0  0  0  0  0  0
  163.9900  204.3500  146.3860 F   0  0  0  0  0  0  0  0  0  0  0  0
  163.1950  205.4030  146.4990 O   0  0  0  0  0  0  0  0  0  0  0  0
  1  9  1  0  0  0  0
  2  5  1  0  0  0  0
  4 41  1  6  0  0  0
  4  8  1  0  0  0  0
  4 12  1  0  0  0  0
  5  9  1  0  0  0  0
  6  7  1  6  0  0  0
  6  1  1  0  0  0  0
  8  3  1  1  0  0  0
  8 12  1  0  0  0  0
 10  3  1  6  0  0  0
 10  6  1  0  0  0  0
 10 11  1  0  0  0  0
 11  2  2  0  0  0  0
 12  7  1  6  0  0  0
 13  2  1  6  0  0  0
 13 16  1  0  0  0  0
 14 21  1  6  0  0  0
 14 13  1  0  0  0  0
 14 16  1  0  0  0  0
 15 19  1  0  0  0  0
 16 15  2  0  0  0  0
 17 19  2  0  0  0  0
 18 19  1  0  0  0  0
 19 20  2  0  0  0  0
 22 21  1  1  0  0  0
 22 29  1  0  0  0  0
 23 27  1  0  0  0  0
 24 27  2  0  0  0  0
 25 24  1  0  0  0  0
 26 28  1  0  0  0  0
 26 25  2  0  0  0  0
 27 22  1  0  0  0  0
 28 23  2  0  0  0  0
 29 30  1  0  0  0  0
 31 38  1  1  0  0  0
 31 33  1  0  0  0  0
 31 32  1  0  0  0  0
 32 36  1  1  0  0  0
 32  4  1  0  0  0  0
 33 32  1  0  0  0  0
 34 36  1  0  0  0  0
 36 37  1  0  0  0  0
 36 35  1  0  0  0  0
 38 39  1  0  0  0  0
 40 41  1  0  0  0  0
M  END
>  <MODEL>
1

>  <REMARK>
 VINA RESULT:      -7.0      0.000      0.000
  Name = 
  10 active torsions:
  status: ('A' for Active; 'I' for Inactive)
    1  A    between atoms: C_2  and  C_19
    2  A    between atoms: C_5  and  C_8
    3  A    between atoms: C_6  and  C_15
    4  A    between atoms: C_6  and  O_22
    5  A    between atoms: O_14  and  C_33
    6  A    between atoms: C_15  and  C_36
    7  A    between atoms: C_30  and  C_38
    8  A    between atoms: S_31  and  N_35
    9  A    between atoms: C_33  and  C_34
   10  A    between atoms: C_33  and  C_38
                            x       y       z     vdW  Elec       q    Type
                         _______ _______ _______ _____ _____    ______ ____

>  <TORSDO>
F 10

$$$$
=
 OpenBabel11072413263D

 41 46  0  0  1  0  0  0  0  0999 V2000
  161.6480  205.6540  151.0540 C   0  0  0  0  0  2  0  0  0  0  0  0
  161.4080  208.5980  151.3770 C   0  0  0  0  0  0  0  0  0  0  0  0
  161.9380  207.2660  147.8820 C   0  0  0  0  0  2  0  0  0  0  0  0
  162.0790  204.9620  146.4300 C   0  0  1  0  0  0  0  0  0  0  0  0
  160.4690  207.6790  152.1090 C   0  0  0  0  0  2  0  0  0  0  0  0
  160.7740  205.9570  149.8410 C   0  0  2  0  0  3  0  0  0  0  0  0
  160.7910  204.7660  148.8460 C   0  0  0  0  0  2  0  0  0  0  0  0
  161.3670  206.1110  147.0950 C   0  0  1  0  0  3  0  0  0  0  0  0
  161.0760  206.2880  152.3260 C   0  0  0  0  0  2  0  0  0  0  0  0
  161.0970  207.3580  149.1770 C   0  0  1  0  0  3  0  0  0  0  0  0
  161.7130  208.3980  150.0840 C   0  0  0  0  0  3  0  0  0  0  0  0
  161.9810  204.9810  147.9370 C   0  0  2  0  0  3  0  0  0  0  0  0
  162.1420  209.6830  152.1310 C   0  0  1  0  0  3  0  0  0  0  0  0
  161.3830  210.8720  152.4520 C   0  0  2  0  0  3  0  0  0  0  0  0
  161.4740  209.4300  154.7690 N   0  0  0  0  0  0  0  0  0  0  0  0
  161.6180  209.8450  153.5650 C   0  0  0  0  0  0  0  0  0  0  0  0
  161.1710  211.7490  155.9830 O   0  0  0  0  0  0  0  0  0  0  0  0
  158.9360  210.4390  155.4430 N   0  0  0  0  0  1  0  0  0  0  0  0
  160.5970  210.3620  155.9100 S   0  0  0  0  0  0  0  0  0  0  0  0
  160.7020  209.7140  157.2600 O   0  0  0  0  0  0  0  0  0  0  0  0
  159.8900  210.8680  152.1080 C   0  0  0  0  0  2  0  0  0  0  0  0
  159.2480  212.2430  152.2950 C   0  0  2  0  0  3  0  0  0  0  0  0
  157.8950  213.2750  150.4650 C   0  0  0  0  0  3  0  0  0  0  0  0
  160.3080  213.4380  150.3350 C   0  0  0  0  0  3  0  0  0  0  0  0
  160.1970  214.1340  149.1280 C   0  0  0  0  0  3  0  0  0  0  0  0
  158.9340  214.4030  148.5910 C   0  0  0  0  0  3  0  0  0  0  0  0
  159.1560  213.0090  151.0110 C   0  0  0  0  0  0  0  0  0  0  0  0
  157.7840  213.9730  149.2590 C   0  0  0  0  0  3  0  0  0  0  0  0
  159.9100  212.9820  153.2810 O   0  0  0  0  0  0  0  0  0  0  0  0
  158.9460  213.4820  154.0250 O   0  0  0  0  0  1  0  0  0  0  0  0
  160.8770  202.6240  146.2850 C   0  0  1  0  0  3  0  0  0  0  0  0
  161.2270  203.9310  145.6550 C   0  0  2  0  0  0  0  0  0  0  0  0
  161.9160  202.7460  145.3350 O   0  0  0  0  0  0  0  0  0  0  0  0
  159.4850  203.3740  144.0810 F   0  0  0  0  0  0  0  0  0  0  0  0
  159.4880  205.4250  145.0040 F   0  0  0  0  0  0  0  0  0  0  0  0
  160.2940  204.4060  144.5320 C   0  0  0  0  0  0  0  0  0  0  0  0
  161.0370  204.8770  143.4670 F   0  0  0  0  0  0  0  0  0  0  0  0
  161.4770  202.4010  147.6640 C   0  0  0  0  0  2  0  0  0  0  0  0
  161.3260  201.0650  148.0300 O   0  0  0  0  0  1  0  0  0  0  0  0
  164.1940  204.4610  146.4430 F   0  0  0  0  0  0  0  0  0  0  0  0
  163.3300  205.3110  145.9080 O   0  0  0  0  0  0  0  0  0  0  0  0
  1  9  1  0  0  0  0
  2  5  1  0  0  0  0
  4 41  1  6  0  0  0
  4  8  1  0  0  0  0
  4 12  1  0  0  0  0
  5  9  1  0  0  0  0
  6  7  1  6  0  0  0
  6  1  1  0  0  0  0
  8  3  1  1  0  0  0
  8 12  1  0  0  0  0
 10  3  1  6  0  0  0
 10  6  1  0  0  0  0
 10 11  1  0  0  0  0
 11  2  2  0  0  0  0
 12  7  1  6  0  0  0
 13  2  1  6  0  0  0
 13 14  1  0  0  0  0
 13 16  1  0  0  0  0
 14 21  1  6  0  0  0
 14 16  1  0  0  0  0
 15 19  1  0  0  0  0
 16 15  2  0  0  0  0
 18 19  1  0  0  0  0
 19 17  2  0  0  0  0
 19 20  2  0  0  0  0
 22 21  1  6  0  0  0
 22 29  1  0  0  0  0
 23 27  1  0  0  0  0
 24 27  2  0  0  0  0
 25 24  1  0  0  0  0
 26 25  2  0  0  0  0
 26 28  1  0  0  0  0
 27 22  1  0  0  0  0
 28 23  2  0  0  0  0
 29 30  1  0  0  0  0
 31 38  1  1  0  0  0
 32 36  1  6  0  0  0
 32 31  1  0  0  0  0
 32  4  1  0  0  0  0
 33 32  1  0  0  0  0
 33 31  1  0  0  0  0
 34 36  1  0  0  0  0
 36 35  1  0  0  0  0
 37 36  1  0  0  0  0
 38 39  1  0  0  0  0
 41 40  1  0  0  0  0
M  END
>  <MODEL>
2

>  <REMARK>
 VINA RESULT:      -6.6      1.678      2.341
  Name = 
  10 active torsions:
  status: ('A' for Active; 'I' for Inactive)
    1  A    between atoms: C_2  and  C_19
    2  A    between atoms: C_5  and  C_8
    3  A    between atoms: C_6  and  C_15
    4  A    between atoms: C_6  and  O_22
    5  A    between atoms: O_14  and  C_33
    6  A    between atoms: C_15  and  C_36
    7  A    between atoms: C_30  and  C_38
    8  A    between atoms: S_31  and  N_35
    9  A    between atoms: C_33  and  C_34
   10  A    between atoms: C_33  and  C_38
                            x       y       z     vdW  Elec       q    Type
                         _______ _______ _______ _____ _____    ______ ____

>  <TORSDO>
F 10

$$$$
=
 OpenBabel11072413263D

 41 46  0  0  1  0  0  0  0  0999 V2000
  161.7120  205.7890  151.8650 C   0  0  0  0  0  2  0  0  0  0  0  0
  161.3820  208.7400  151.7360 C   0  0  0  0  0  0  0  0  0  0  0  0
  161.8280  206.8910  148.4710 C   0  0  0  0  0  2  0  0  0  0  0  0
  161.9950  204.3930  147.3910 C   0  0  1  0  0  0  0  0  0  0  0  0
  160.5030  207.9200  152.6410 C   0  0  0  0  0  2  0  0  0  0  0  0
  160.7840  205.8730  150.6580 C   0  0  2  0  0  3  0  0  0  0  0  0
  160.8050  204.5410  149.8610 C   0  0  0  0  0  2  0  0  0  0  0  0
  161.2690  205.6110  147.8990 C   0  0  1  0  0  3  0  0  0  0  0  0
  161.1660  206.5990  153.0460 C   0  0  0  0  0  2  0  0  0  0  0  0
  161.0330  207.1610  149.7710 C   0  0  1  0  0  3  0  0  0  0  0  0
  161.6460  208.3480  150.4780 C   0  0  0  0  0  3  0  0  0  0  0  0
  161.9530  204.6450  148.8800 C   0  0  2  0  0  3  0  0  0  0  0  0
  162.1050  209.9500  152.2800 C   0  0  1  0  0  3  0  0  0  0  0  0
  161.2810  211.0760  152.6620 C   0  0  2  0  0  3  0  0  0  0  0  0
  161.9390  209.8360  155.0050 N   0  0  0  0  0  0  0  0  0  0  0  0
  161.8230  210.1680  153.7730 C   0  0  0  0  0  0  0  0  0  0  0  0
  160.5710  211.9990  155.6310 O   0  0  0  0  0  0  0  0  0  0  0  0
  159.9360  209.8130  156.9810 N   0  0  0  0  0  1  0  0  0  0  0  0
  161.1710  210.7580  156.2300 S   0  0  0  0  0  0  0  0  0  0  0  0
  162.1900  211.1520  157.2610 O   0  0  0  0  0  0  0  0  0  0  0  0
  159.7620  210.8910  152.5960 C   0  0  0  0  0  2  0  0  0  0  0  0
  159.0180  212.2240  152.5180 C   0  0  2  0  0  3  0  0  0  0  0  0
  157.3200  213.5670  153.7660 C   0  0  0  0  0  3  0  0  0  0  0  0
  157.4980  211.2030  154.2610 C   0  0  0  0  0  3  0  0  0  0  0  0
  156.4830  211.3250  155.2140 C   0  0  0  0  0  3  0  0  0  0  0  0
  155.8850  212.5680  155.4410 C   0  0  0  0  0  3  0  0  0  0  0  0
  157.9180  212.3240  153.5290 C   0  0  0  0  0  0  0  0  0  0  0  0
  156.3030  213.6890  154.7170 C   0  0  0  0  0  3  0  0  0  0  0  0
  158.5420  212.4630  151.2250 O   0  0  0  0  0  0  0  0  0  0  0  0
  159.4340  213.2680  150.6850 O   0  0  0  0  0  1  0  0  0  0  0  0
  160.8650  203.1550  145.3600 C   0  0  1  0  0  3  0  0  0  0  0  0
  161.1510  203.2290  146.8230 C   0  0  2  0  0  0  0  0  0  0  0  0
  159.9120  203.6310  146.2880 O   0  0  0  0  0  0  0  0  0  0  0  0
  160.9490  200.8270  146.7230 F   0  0  0  0  0  0  0  0  0  0  0  0
  162.2220  201.7350  148.3390 F   0  0  0  0  0  0  0  0  0  0  0  0
  161.0720  201.9010  147.5900 C   0  0  0  0  0  0  0  0  0  0  0  0
  159.9810  201.9080  148.4370 F   0  0  0  0  0  0  0  0  0  0  0  0
  161.4030  204.3220  144.5470 C   0  0  0  0  0  2  0  0  0  0  0  0
  160.4460  205.3330  144.4910 O   0  0  0  0  0  1  0  0  0  0  0  0
  162.9970  205.7860  146.0580 F   0  0  0  0  0  0  0  0  0  0  0  0
  163.2130  204.6910  146.7700 O   0  0  0  0  0  0  0  0  0  0  0  0
  1  9  1  0  0  0  0
  2  5  1  0  0  0  0
  4 41  1  6  0  0  0
  4  8  1  0  0  0  0
  4 12  1  0  0  0  0
  5  9  1  0  0  0  0
  6  7  1  6  0  0  0
  6  1  1  0  0  0  0
  8  3  1  6  0  0  0
  8 12  1  0  0  0  0
 10  3  1  6  0  0  0
 10 11  1  0  0  0  0
 10  6  1  0  0  0  0
 11  2  2  0  0  0  0
 12  7  1  1  0  0  0
 13  2  1  6  0  0  0
 13 14  1  0  0  0  0
 13 16  1  0  0  0  0
 14 21  1  6  0  0  0
 14 16  1  0  0  0  0
 15 19  1  0  0  0  0
 16 15  2  0  0  0  0
 17 19  2  0  0  0  0
 19 18  1  0  0  0  0
 19 20  2  0  0  0  0
 22 21  1  6  0  0  0
 22 27  1  0  0  0  0
 23 28  1  0  0  0  0
 24 25  2  0  0  0  0
 25 26  1  0  0  0  0
 27 23  2  0  0  0  0
 27 24  1  0  0  0  0
 28 26  2  0  0  0  0
 29 22  1  0  0  0  0
 30 29  1  0  0  0  0
 31 38  1  6  0  0  0
 31 33  1  0  0  0  0
 31 32  1  0  0  0  0
 32  4  1  0  0  0  0
 32 36  1  1  0  0  0
 33 32  1  0  0  0  0
 34 36  1  0  0  0  0
 36 35  1  0  0  0  0
 36 37  1  0  0  0  0
 39 38  1  0  0  0  0
 40 41  1  0  0  0  0
M  END
>  <MODEL>
3

>  <REMARK>
 VINA RESULT:      -6.4      1.956      3.059
  Name = 
  10 active torsions:
  status: ('A' for Active; 'I' for Inactive)
    1  A    between atoms: C_2  and  C_19
    2  A    between atoms: C_5  and  C_8
    3  A    between atoms: C_6  and  C_15
    4  A    between atoms: C_6  and  O_22
    5  A    between atoms: O_14  and  C_33
    6  A    between atoms: C_15  and  C_36
    7  A    between atoms: C_30  and  C_38
    8  A    between atoms: S_31  and  N_35
    9  A    between atoms: C_33  and  C_34
   10  A    between atoms: C_33  and  C_38
                            x       y       z     vdW  Elec       q    Type
                         _______ _______ _______ _____ _____    ______ ____

>  <TORSDO>
F 10

$$$$
=
 OpenBabel11072413263D

 41 46  0  0  1  0  0  0  0  0999 V2000
  161.7350  204.9210  151.7710 C   0  0  0  0  0  2  0  0  0  0  0  0
  161.3030  207.7590  152.5380 C   0  0  0  0  0  0  0  0  0  0  0  0
  161.6920  206.9870  148.8600 C   0  0  0  0  0  2  0  0  0  0  0  0
  161.9020  204.9340  147.0780 C   0  0  1  0  0  0  0  0  0  0  0  0
  160.4860  206.6700  153.1780 C   0  0  0  0  0  2  0  0  0  0  0  0
  160.7620  205.3210  150.6670 C   0  0  2  0  0  3  0  0  0  0  0  0
  160.7980  204.2900  149.5080 C   0  0  0  0  0  2  0  0  0  0  0  0
  161.1550  205.9140  147.9450 C   0  0  1  0  0  3  0  0  0  0  0  0
  161.2060  205.3180  153.1530 C   0  0  0  0  0  2  0  0  0  0  0  0
  160.9360  206.8240  150.2000 C   0  0  1  0  0  3  0  0  0  0  0  0
  161.5350  207.7710  151.2150 C   0  0  0  0  0  3  0  0  0  0  0  0
  161.9050  204.7290  148.5750 C   0  0  2  0  0  3  0  0  0  0  0  0
  162.0060  208.7810  153.4020 C   0  0  1  0  0  3  0  0  0  0  0  0
  161.6870  210.1690  153.1460 C   0  0  2  0  0  3  0  0  0  0  0  0
  160.2650  209.5040  155.3800 N   0  0  0  0  0  0  0  0  0  0  0  0
  161.0380  209.4920  154.3580 C   0  0  0  0  0  0  0  0  0  0  0  0
  159.0300  210.8750  157.2600 O   0  0  0  0  0  0  0  0  0  0  0  0
  160.4060  212.3110  155.5140 N   0  0  0  0  0  1  0  0  0  0  0  0
  159.4120  210.9280  155.8080 S   0  0  0  0  0  0  0  0  0  0  0  0
  158.1680  211.0270  154.9730 O   0  0  0  0  0  0  0  0  0  0  0  0
  160.5890  210.4620  152.1190 C   0  0  0  0  0  2  0  0  0  0  0  0
  160.9470  211.6320  151.2030 C   0  0  2  0  0  3  0  0  0  0  0  0
  158.8320  212.6450  152.0650 C   0  0  0  0  0  3  0  0  0  0  0  0
  159.7700  213.5280  150.0150 C   0  0  0  0  0  3  0  0  0  0  0  0
  158.7130  214.4380  149.9220 C   0  0  0  0  0  3  0  0  0  0  0  0
  157.7160  214.4520  150.9020 C   0  0  0  0  0  3  0  0  0  0  0  0
  159.8360  212.6300  151.0910 C   0  0  0  0  0  0  0  0  0  0  0  0
  157.7760  213.5560  151.9740 C   0  0  0  0  0  3  0  0  0  0  0  0
  161.3550  211.1820  149.9430 O   0  0  0  0  0  0  0  0  0  0  0  0
  162.6550  211.0070  150.0570 O   0  0  0  0  0  1  0  0  0  0  0  0
  160.7100  204.3280  144.8100 C   0  0  1  0  0  3  0  0  0  0  0  0
  161.0770  203.9580  146.2090 C   0  0  2  0  0  0  0  0  0  0  0  0
  159.7930  204.4330  145.8800 O   0  0  0  0  0  0  0  0  0  0  0  0
  160.0310  202.0940  147.3270 F   0  0  0  0  0  0  0  0  0  0  0  0
  161.0250  201.7390  145.3420 F   0  0  0  0  0  0  0  0  0  0  0  0
  161.0990  202.4550  146.5220 C   0  0  0  0  0  0  0  0  0  0  0  0
  162.2720  202.1250  147.1740 F   0  0  0  0  0  0  0  0  0  0  0  0
  161.1500  205.7190  144.3830 C   0  0  0  0  0  2  0  0  0  0  0  0
  161.9580  205.6270  143.2520 O   0  0  0  0  0  1  0  0  0  0  0  0
  163.8190  204.4070  146.2020 F   0  0  0  0  0  0  0  0  0  0  0  0
  163.0870  205.4550  146.5450 O   0  0  0  0  0  0  0  0  0  0  0  0
  1  9  1  0  0  0  0
  2  5  1  0  0  0  0
  4 41  1  6  0  0  0
  4  8  1  0  0  0  0
  4 12  1  0  0  0  0
  6  7  1  6  0  0  0
  6  1  1  0  0  0  0
  8 12  1  0  0  0  0
  8  3  1  1  0  0  0
  9  5  1  0  0  0  0
 10  3  1  6  0  0  0
 10  6  1  0  0  0  0
 10 11  1  0  0  0  0
 11  2  2  0  0  0  0
 12  7  1  6  0  0  0
 13  2  1  6  0  0  0
 13 16  1  0  0  0  0
 14 21  1  6  0  0  0
 14 13  1  0  0  0  0
 14 16  1  0  0  0  0
 15 19  1  0  0  0  0
 16 15  2  0  0  0  0
 18 19  1  0  0  0  0
 19 17  2  0  0  0  0
 20 19  2  0  0  0  0
 22 21  1  1  0  0  0
 24 27  1  0  0  0  0
 25 24  2  0  0  0  0
 25 26  1  0  0  0  0
 26 28  2  0  0  0  0
 27 22  1  0  0  0  0
 27 23  2  0  0  0  0
 28 23  1  0  0  0  0
 29 30  1  0  0  0  0
 29 22  1  0  0  0  0
 31 38  1  1  0  0  0
 31 33  1  0  0  0  0
 31 32  1  0  0  0  0
 32 36  1  1  0  0  0
 32  4  1  0  0  0  0
 33 32  1  0  0  0  0
 35 36  1  0  0  0  0
 36 37  1  0  0  0  0
 36 34  1  0  0  0  0
 39 38  1  0  0  0  0
 40 41  1  0  0  0  0
M  END
>  <MODEL>
4

>  <REMARK>
 VINA RESULT:      -6.1      1.425      2.181
  Name = 
  10 active torsions:
  status: ('A' for Active; 'I' for Inactive)
    1  A    between atoms: C_2  and  C_19
    2  A    between atoms: C_5  and  C_8
    3  A    between atoms: C_6  and  C_15
    4  A    between atoms: C_6  and  O_22
    5  A    between atoms: O_14  and  C_33
    6  A    between atoms: C_15  and  C_36
    7  A    between atoms: C_30  and  C_38
    8  A    between atoms: S_31  and  N_35
    9  A    between atoms: C_33  and  C_34
   10  A    between atoms: C_33  and  C_38
                            x       y       z     vdW  Elec       q    Type
                         _______ _______ _______ _____ _____    ______ ____

>  <TORSDO>
F 10

$$$$
=
 OpenBabel11072413263D

 41 46  0  0  1  0  0  0  0  0999 V2000
  162.2700  209.9310  150.5460 C   0  0  0  0  0  2  0  0  0  0  0  0
  162.0680  207.3250  149.1340 C   0  0  0  0  0  0  0  0  0  0  0  0
  161.5830  207.3180  152.8800 C   0  0  0  0  0  2  0  0  0  0  0  0
  161.3440  208.9580  155.0460 C   0  0  1  0  0  0  0  0  0  0  0  0
  161.4060  208.5470  148.5610 C   0  0  0  0  0  2  0  0  0  0  0  0
  161.0730  209.3480  151.2910 C   0  0  2  0  0  3  0  0  0  0  0  0
  160.8240  210.1200  152.6140 C   0  0  0  0  0  2  0  0  0  0  0  0
  160.8320  208.2010  153.8480 C   0  0  1  0  0  3  0  0  0  0  0  0
  162.0810  209.8410  149.0290 C   0  0  0  0  0  2  0  0  0  0  0  0
  161.1550  207.7760  151.4660 C   0  0  1  0  0  3  0  0  0  0  0  0
  161.9870  207.0360  150.4430 C   0  0  0  0  0  3  0  0  0  0  0  0
  161.6910  209.4630  153.6650 C   0  0  2  0  0  3  0  0  0  0  0  0
  162.9660  206.4760  148.2630 C   0  0  1  0  0  3  0  0  0  0  0  0
  162.5160  205.1270  147.9950 C   0  0  2  0  0  3  0  0  0  0  0  0
  161.9400  206.5430  145.7320 N   0  0  0  0  0  0  0  0  0  0  0  0
  162.3340  206.1810  146.8960 C   0  0  0  0  0  0  0  0  0  0  0  0
  161.8520  204.0650  144.8430 O   0  0  0  0  0  0  0  0  0  0  0  0
  159.5190  205.3040  145.0110 N   0  0  0  0  0  1  0  0  0  0  0  0
  161.2090  205.4120  144.6710 S   0  0  0  0  0  0  0  0  0  0  0  0
  161.4000  205.8710  143.2540 O   0  0  0  0  0  0  0  0  0  0  0  0
  161.1290  204.7320  148.5100 C   0  0  0  0  0  2  0  0  0  0  0  0
  161.1430  203.3920  149.2440 C   0  0  2  0  0  3  0  0  0  0  0  0
  160.7030  202.4010  146.9930 C   0  0  0  0  0  3  0  0  0  0  0  0
  161.5940  200.9590  148.7220 C   0  0  0  0  0  3  0  0  0  0  0  0
  161.5810  199.8820  147.8320 C   0  0  0  0  0  3  0  0  0  0  0  0
  161.1310  200.0650  146.5210 C   0  0  0  0  0  3  0  0  0  0  0  0
  161.1580  202.2260  148.3050 C   0  0  0  0  0  0  0  0  0  0  0  0
  160.6920  201.3250  146.1020 C   0  0  0  0  0  3  0  0  0  0  0  0
  160.0810  203.3000  150.1500 O   0  0  0  0  0  0  0  0  0  0  0  0
  160.5600  203.7860  151.2760 O   0  0  0  0  0  1  0  0  0  0  0  0
  159.5460  209.0920  156.9650 C   0  0  1  0  0  3  0  0  0  0  0  0
  160.3260  209.7640  155.8840 C   0  0  2  0  0  0  0  0  0  0  0  0
  158.9890  209.3650  155.6950 O   0  0  0  0  0  0  0  0  0  0  0  0
  161.8230  211.6500  156.0410 F   0  0  0  0  0  0  0  0  0  0  0  0
  159.8760  211.9080  154.9450 F   0  0  0  0  0  0  0  0  0  0  0  0
  160.4860  211.2850  156.0180 C   0  0  0  0  0  0  0  0  0  0  0  0
  159.8930  211.7230  157.1870 F   0  0  0  0  0  0  0  0  0  0  0  0
  159.7960  207.5980  157.0960 C   0  0  0  0  0  2  0  0  0  0  0  0
  158.9540  206.9060  156.2280 O   0  0  0  0  0  1  0  0  0  0  0  0
  162.7080  209.0840  156.7340 F   0  0  0  0  0  0  0  0  0  0  0  0
  162.3800  208.2990  155.7190 O   0  0  0  0  0  0  0  0  0  0  0  0
  2 11  2  0  0  0  0
  4 41  1  1  0  0  0
  4 32  1  0  0  0  0
  5  9  1  0  0  0  0
  5  2  1  0  0  0  0
  6  1  1  1  0  0  0
  6 10  1  0  0  0  0
  6  7  1  0  0  0  0
  8  3  1  1  0  0  0
  8  4  1  0  0  0  0
  9  1  1  0  0  0  0
 10 11  1  6  0  0  0
 10  3  1  0  0  0  0
 12  7  1  6  0  0  0
 12  8  1  0  0  0  0
 12  4  1  0  0  0  0
 13  2  1  1  0  0  0
 14 13  1  0  0  0  0
 14 21  1  1  0  0  0
 15 16  2  0  0  0  0
 16 14  1  0  0  0  0
 16 13  1  0  0  0  0
 19 17  2  0  0  0  0
 19 18  1  0  0  0  0
 19 15  1  0  0  0  0
 20 19  2  0  0  0  0
 22 21  1  6  0  0  0
 22 29  1  0  0  0  0
 23 27  1  0  0  0  0
 25 24  1  0  0  0  0
 26 25  2  0  0  0  0
 27 24  2  0  0  0  0
 27 22  1  0  0  0  0
 28 26  1  0  0  0  0
 28 23  2  0  0  0  0
 29 30  1  0  0  0  0
 31 38  1  6  0  0  0
 32 36  1  1  0  0  0
 32 31  1  0  0  0  0
 33 32  1  0  0  0  0
 33 31  1  0  0  0  0
 35 36  1  0  0  0  0
 36 34  1  0  0  0  0
 36 37  1  0  0  0  0
 39 38  1  0  0  0  0
 41 40  1  0  0  0  0
M  END
>  <MODEL>
5

>  <REMARK>
 VINA RESULT:      -5.8      5.377     10.067
  Name = 
  10 active torsions:
  status: ('A' for Active; 'I' for Inactive)
    1  A    between atoms: C_2  and  C_19
    2  A    between atoms: C_5  and  C_8
    3  A    between atoms: C_6  and  C_15
    4  A    between atoms: C_6  and  O_22
    5  A    between atoms: O_14  and  C_33
    6  A    between atoms: C_15  and  C_36
    7  A    between atoms: C_30  and  C_38
    8  A    between atoms: S_31  and  N_35
    9  A    between atoms: C_33  and  C_34
   10  A    between atoms: C_33  and  C_38
                            x       y       z     vdW  Elec       q    Type
                         _______ _______ _______ _____ _____    ______ ____

>  <TORSDO>
F 10

$$$$
=
 OpenBabel11072413263D

 41 46  0  0  1  0  0  0  0  0999 V2000
  162.5030  210.4960  150.7650 C   0  0  0  0  0  2  0  0  0  0  0  0
  162.0010  208.0160  149.2070 C   0  0  0  0  0  0  0  0  0  0  0  0
  161.1440  207.9660  152.8860 C   0  0  0  0  0  2  0  0  0  0  0  0
  160.9720  209.5460  155.1020 C   0  0  1  0  0  0  0  0  0  0  0  0
  161.6200  209.3550  148.6390 C   0  0  0  0  0  2  0  0  0  0  0  0
  161.1540  210.1080  151.3630 C   0  0  2  0  0  3  0  0  0  0  0  0
  160.9090  210.8650  152.6950 C   0  0  0  0  0  2  0  0  0  0  0  0
  160.4620  208.9330  153.8230 C   0  0  1  0  0  3  0  0  0  0  0  0
  162.4560  210.4930  149.2340 C   0  0  0  0  0  2  0  0  0  0  0  0
  160.9470  208.5410  151.4630 C   0  0  1  0  0  3  0  0  0  0  0  0
  161.7390  207.7010  150.4870 C   0  0  0  0  0  3  0  0  0  0  0  0
  161.5390  210.0290  153.7880 C   0  0  2  0  0  3  0  0  0  0  0  0
  162.8240  207.0530  148.3820 C   0  0  1  0  0  3  0  0  0  0  0  0
  162.3390  205.6920  148.3070 C   0  0  2  0  0  3  0  0  0  0  0  0
  161.6190  206.8460  145.9380 N   0  0  0  0  0  0  0  0  0  0  0  0
  162.0910  206.6140  147.1070 C   0  0  0  0  0  0  0  0  0  0  0  0
  159.3150  205.7720  145.2440 O   0  0  0  0  0  0  0  0  0  0  0  0
  161.2090  205.7110  143.3970 N   0  0  0  0  0  1  0  0  0  0  0  0
  160.8000  205.6140  145.0720 S   0  0  0  0  0  0  0  0  0  0  0  0
  161.2180  204.2750  145.6070 O   0  0  0  0  0  0  0  0  0  0  0  0
  160.9870  205.3890  148.9610 C   0  0  0  0  0  2  0  0  0  0  0  0
  161.1060  204.3670  150.0910 C   0  0  2  0  0  3  0  0  0  0  0  0
  161.1990  202.7260  148.2100 C   0  0  0  0  0  3  0  0  0  0  0  0
  161.0210  201.8680  150.4670 C   0  0  0  0  0  3  0  0  0  0  0  0
  161.0150  200.5610  149.9710 C   0  0  0  0  0  3  0  0  0  0  0  0
  161.1030  200.3370  148.5940 C   0  0  0  0  0  3  0  0  0  0  0  0
  161.1180  202.9570  149.5870 C   0  0  0  0  0  0  0  0  0  0  0  0
  161.1950  201.4190  147.7130 C   0  0  0  0  0  3  0  0  0  0  0  0
  160.1050  204.5550  151.0510 O   0  0  0  0  0  0  0  0  0  0  0  0
  160.7490  204.6020  152.1980 O   0  0  0  0  0  1  0  0  0  0  0  0
  160.5810  211.4280  156.9020 C   0  0  1  0  0  3  0  0  0  0  0  0
  160.0270  210.4900  155.8810 C   0  0  2  0  0  0  0  0  0  0  0  0
  159.9530  210.2130  157.2600 O   0  0  0  0  0  0  0  0  0  0  0  0
  158.7660  212.0690  154.5640 F   0  0  0  0  0  0  0  0  0  0  0  0
  158.2490  209.8860  154.4150 F   0  0  0  0  0  0  0  0  0  0  0  0
  158.6730  210.8830  155.2740 C   0  0  0  0  0  0  0  0  0  0  0  0
  157.7340  211.0430  156.2750 F   0  0  0  0  0  0  0  0  0  0  0  0
  162.0790  211.3080  157.1300 C   0  0  0  0  0  2  0  0  0  0  0  0
  162.6350  212.5800  157.2600 O   0  0  0  0  0  1  0  0  0  0  0  0
  161.0440  207.6740  156.2020 F   0  0  0  0  0  0  0  0  0  0  0  0
  161.8050  208.6930  155.8340 O   0  0  0  0  0  0  0  0  0  0  0  0
  2 11  2  0  0  0  0
  4 41  1  1  0  0  0
  4 32  1  0  0  0  0
  5  2  1  0  0  0  0
  5  9  1  0  0  0  0
  6  1  1  1  0  0  0
  6 10  1  0  0  0  0
  6  7  1  0  0  0  0
  8  3  1  1  0  0  0
  8  4  1  0  0  0  0
  9  1  1  0  0  0  0
 10 11  1  6  0  0  0
 10  3  1  0  0  0  0
 12  7  1  6  0  0  0
 12  8  1  0  0  0  0
 12  4  1  0  0  0  0
 13  2  1  1  0  0  0
 14 13  1  0  0  0  0
 14 21  1  1  0  0  0
 15 16  2  0  0  0  0
 16 14  1  0  0  0  0
 16 13  1  0  0  0  0
 18 19  1  0  0  0  0
 19 17  2  0  0  0  0
 19 20  2  0  0  0  0
 19 15  1  0  0  0  0
 22 21  1  6  0  0  0
 22 29  1  0  0  0  0
 23 27  1  0  0  0  0
 25 24  1  0  0  0  0
 26 25  2  0  0  0  0
 27 22  1  0  0  0  0
 27 24  2  0  0  0  0
 28 23  2  0  0  0  0
 28 26  1  0  0  0  0
 29 30  1  0  0  0  0
 31 38  1  6  0  0  0
 31 33  1  0  0  0  0
 32 36  1  6  0  0  0
 32 31  1  0  0  0  0
 32 33  1  0  0  0  0
 34 36  1  0  0  0  0
 35 36  1  0  0  0  0
 36 37  1  0  0  0  0
 38 39  1  0  0  0  0
 41 40  1  0  0  0  0
M  END
>  <MODEL>
6

>  <REMARK>
 VINA RESULT:      -5.4      5.184      9.939
  Name = 
  10 active torsions:
  status: ('A' for Active; 'I' for Inactive)
    1  A    between atoms: C_2  and  C_19
    2  A    between atoms: C_5  and  C_8
    3  A    between atoms: C_6  and  C_15
    4  A    between atoms: C_6  and  O_22
    5  A    between atoms: O_14  and  C_33
    6  A    between atoms: C_15  and  C_36
    7  A    between atoms: C_30  and  C_38
    8  A    between atoms: S_31  and  N_35
    9  A    between atoms: C_33  and  C_34
   10  A    between atoms: C_33  and  C_38
                            x       y       z     vdW  Elec       q    Type
                         _______ _______ _______ _____ _____    ______ ____

>  <TORSDO>
F 10

$$$$
=
 OpenBabel11072413263D

 41 46  0  0  1  0  0  0  0  0999 V2000
  162.3320  209.7030  150.2670 C   0  0  0  0  0  2  0  0  0  0  0  0
  162.0200  207.0800  148.9050 C   0  0  0  0  0  0  0  0  0  0  0  0
  161.5230  207.1700  152.6490 C   0  0  0  0  0  2  0  0  0  0  0  0
  161.3510  208.8610  154.7810 C   0  0  1  0  0  0  0  0  0  0  0  0
  161.4140  208.3190  148.3060 C   0  0  0  0  0  2  0  0  0  0  0  0
  161.1080  209.1880  151.0180 C   0  0  2  0  0  3  0  0  0  0  0  0
  160.8900  209.9960  152.3240 C   0  0  0  0  0  2  0  0  0  0  0  0
  160.8100  208.1030  153.5960 C   0  0  1  0  0  3  0  0  0  0  0  0
  162.1450  209.5910  148.7510 C   0  0  0  0  0  2  0  0  0  0  0  0
  161.1210  207.6180  151.2240 C   0  0  1  0  0  3  0  0  0  0  0  0
  161.9220  206.8210  150.2200 C   0  0  0  0  0  3  0  0  0  0  0  0
  161.7240  209.3220  153.3920 C   0  0  2  0  0  3  0  0  0  0  0  0
  162.8830  206.1750  148.0550 C   0  0  1  0  0  3  0  0  0  0  0  0
  162.3180  204.8910  147.7040 C   0  0  2  0  0  3  0  0  0  0  0  0
  162.0310  206.4380  145.4720 N   0  0  0  0  0  0  0  0  0  0  0  0
  162.3120  205.9950  146.6420 C   0  0  0  0  0  0  0  0  0  0  0  0
  161.7520  204.0140  144.4780 O   0  0  0  0  0  0  0  0  0  0  0  0
  159.5500  205.4800  144.5560 N   0  0  0  0  0  1  0  0  0  0  0  0
  161.2600  205.4250  144.3230 S   0  0  0  0  0  0  0  0  0  0  0  0
  161.5870  205.9120  142.9400 O   0  0  0  0  0  0  0  0  0  0  0  0
  160.8680  204.6210  148.1180 C   0  0  0  0  0  2  0  0  0  0  0  0
  160.6440  203.1670  148.5330 C   0  0  2  0  0  3  0  0  0  0  0  0
  160.4770  203.9820  150.8890 C   0  0  0  0  0  3  0  0  0  0  0  0
  161.3780  201.7670  150.5070 C   0  0  0  0  0  3  0  0  0  0  0  0
  161.5600  201.6030  151.8830 C   0  0  0  0  0  3  0  0  0  0  0  0
  161.1990  202.6280  152.7620 C   0  0  0  0  0  3  0  0  0  0  0  0
  160.8310  202.9580  150.0040 C   0  0  0  0  0  0  0  0  0  0  0  0
  160.6570  203.8180  152.2650 C   0  0  0  0  0  3  0  0  0  0  0  0
  161.4490  202.2980  147.7900 O   0  0  0  0  0  0  0  0  0  0  0  0
  160.6180  201.6970  146.9650 O   0  0  0  0  0  1  0  0  0  0  0  0
  159.5430  209.1100  156.6800 C   0  0  1  0  0  3  0  0  0  0  0  0
  160.3670  209.7280  155.5990 C   0  0  2  0  0  0  0  0  0  0  0  0
  159.0130  209.3950  155.4010 O   0  0  0  0  0  0  0  0  0  0  0  0
  159.9400  211.9320  154.7150 F   0  0  0  0  0  0  0  0  0  0  0  0
  160.1370  211.6830  156.9410 F   0  0  0  0  0  0  0  0  0  0  0  0
  160.6020  211.2410  155.7170 C   0  0  0  0  0  0  0  0  0  0  0  0
  161.9520  211.5180  155.6230 F   0  0  0  0  0  0  0  0  0  0  0  0
  159.7160  207.6060  156.8300 C   0  0  0  0  0  2  0  0  0  0  0  0
  158.7040  206.9480  156.1360 O   0  0  0  0  0  1  0  0  0  0  0  0
  162.6900  208.9460  156.4900 F   0  0  0  0  0  0  0  0  0  0  0  0
  162.3550  208.1710  155.4710 O   0  0  0  0  0  0  0  0  0  0  0  0
  2 11  2  0  0  0  0
  4 41  1  1  0  0  0
  4 32  1  0  0  0  0
  5  9  1  0  0  0  0
  5  2  1  0  0  0  0
  6  1  1  1  0  0  0
  6 10  1  0  0  0  0
  6  7  1  0  0  0  0
  8  3  1  1  0  0  0
  8  4  1  0  0  0  0
  9  1  1  0  0  0  0
 10 11  1  6  0  0  0
 10  3  1  0  0  0  0
 12  7  1  6  0  0  0
 12  8  1  0  0  0  0
 12  4  1  0  0  0  0
 13  2  1  1  0  0  0
 14 13  1  0  0  0  0
 14 21  1  1  0  0  0
 15 16  2  0  0  0  0
 16 14  1  0  0  0  0
 16 13  1  0  0  0  0
 19 17  2  0  0  0  0
 19 18  1  0  0  0  0
 19 15  1  0  0  0  0
 20 19  2  0  0  0  0
 22 21  1  1  0  0  0
 22 27  1  0  0  0  0
 23 28  1  0  0  0  0
 24 25  2  0  0  0  0
 25 26  1  0  0  0  0
 27 24  1  0  0  0  0
 27 23  2  0  0  0  0
 28 26  2  0  0  0  0
 29 22  1  0  0  0  0
 30 29  1  0  0  0  0
 31 38  1  6  0  0  0
 32 36  1  1  0  0  0
 32 31  1  0  0  0  0
 33 32  1  0  0  0  0
 33 31  1  0  0  0  0
 34 36  1  0  0  0  0
 36 35  1  0  0  0  0
 37 36  1  0  0  0  0
 39 38  1  0  0  0  0
 41 40  1  0  0  0  0
M  END
>  <MODEL>
7

>  <REMARK>
 VINA RESULT:      -4.7      5.342      9.962
  Name = 
  10 active torsions:
  status: ('A' for Active; 'I' for Inactive)
    1  A    between atoms: C_2  and  C_19
    2  A    between atoms: C_5  and  C_8
    3  A    between atoms: C_6  and  C_15
    4  A    between atoms: C_6  and  O_22
    5  A    between atoms: O_14  and  C_33
    6  A    between atoms: C_15  and  C_36
    7  A    between atoms: C_30  and  C_38
    8  A    between atoms: S_31  and  N_35
    9  A    between atoms: C_33  and  C_34
   10  A    between atoms: C_33  and  C_38
                            x       y       z     vdW  Elec       q    Type
                         _______ _______ _______ _____ _____    ______ ____

>  <TORSDO>
F 10

$$$$
=
 OpenBabel11072413263D

 41 46  0  0  1  0  0  0  0  0999 V2000
  161.8820  209.6200  149.2370 C   0  0  0  0  0  2  0  0  0  0  0  0
  161.2980  208.9730  152.0780 C   0  0  0  0  0  0  0  0  0  0  0  0
  160.4020  206.3800  149.4810 C   0  0  0  0  0  2  0  0  0  0  0  0
  160.6270  205.7890  146.8290 C   0  0  1  0  0  0  0  0  0  0  0  0
  162.6110  209.6040  151.7010 C   0  0  0  0  0  2  0  0  0  0  0  0
  162.3220  208.1590  149.2450 C   0  0  2  0  0  3  0  0  0  0  0  0
  162.4340  207.6160  147.7960 C   0  0  0  0  0  2  0  0  0  0  0  0
  161.0960  205.8260  148.2610 C   0  0  1  0  0  3  0  0  0  0  0  0
  162.5140  210.3990  150.3950 C   0  0  0  0  0  2  0  0  0  0  0  0
  161.4510  207.2530  150.2090 C   0  0  1  0  0  3  0  0  0  0  0  0
  160.7770  207.9630  151.3610 C   0  0  0  0  0  3  0  0  0  0  0  0
  161.0580  207.1120  147.4170 C   0  0  2  0  0  3  0  0  0  0  0  0
  160.4670  209.5700  153.1910 C   0  0  1  0  0  3  0  0  0  0  0  0
  160.5080  208.8850  154.4650 C   0  0  2  0  0  3  0  0  0  0  0  0
  162.1490  211.0490  154.7560 N   0  0  0  0  0  0  0  0  0  0  0  0
  161.3370  210.1640  154.3060 C   0  0  0  0  0  0  0  0  0  0  0  0
  161.9400  211.8370  157.2610 O   0  0  0  0  0  0  0  0  0  0  0  0
  162.6460  209.3110  156.9120 N   0  0  0  0  0  1  0  0  0  0  0  0
  162.7460  210.9450  156.3600 S   0  0  0  0  0  0  0  0  0  0  0  0
  164.1800  211.3880  156.3820 O   0  0  0  0  0  0  0  0  0  0  0  0
  161.4760  207.7050  154.5990 C   0  0  0  0  0  2  0  0  0  0  0  0
  160.7470  206.3660  154.7120 C   0  0  2  0  0  3  0  0  0  0  0  0
  162.3420  205.5320  152.9790 C   0  0  0  0  0  3  0  0  0  0  0  0
  160.1620  204.4890  153.1230 C   0  0  0  0  0  3  0  0  0  0  0  0
  160.4950  203.6430  152.0610 C   0  0  0  0  0  3  0  0  0  0  0  0
  161.7530  203.7410  151.4600 C   0  0  0  0  0  3  0  0  0  0  0  0
  161.0870  205.4350  153.5890 C   0  0  0  0  0  0  0  0  0  0  0  0
  162.6770  204.6850  151.9190 C   0  0  0  0  0  3  0  0  0  0  0  0
  159.3650  206.5500  154.8180 O   0  0  0  0  0  0  0  0  0  0  0  0
  159.1500  206.7200  156.1060 O   0  0  0  0  0  1  0  0  0  0  0  0
  161.7810  203.6470  145.8220 C   0  0  1  0  0  3  0  0  0  0  0  0
  161.5470  205.1200  145.7810 C   0  0  2  0  0  0  0  0  0  0  0  0
  162.7250  204.5720  146.3240 O   0  0  0  0  0  0  0  0  0  0  0  0
  161.5500  204.9140  143.3780 F   0  0  0  0  0  0  0  0  0  0  0  0
  160.8980  206.8630  144.2910 F   0  0  0  0  0  0  0  0  0  0  0  0
  161.7700  205.7980  144.4220 C   0  0  0  0  0  0  0  0  0  0  0  0
  163.0670  206.2670  144.3340 F   0  0  0  0  0  0  0  0  0  0  0  0
  161.1130  202.9280  146.9830 C   0  0  0  0  0  2  0  0  0  0  0  0
  160.9980  201.5710  146.6890 O   0  0  0  0  0  1  0  0  0  0  0  0
  158.9530  205.9390  145.4510 F   0  0  0  0  0  0  0  0  0  0  0  0
  159.2440  205.6150  146.7010 O   0  0  0  0  0  0  0  0  0  0  0  0
  1  6  1  0  0  0  0
  1  9  1  0  0  0  0
  4 41  1  6  0  0  0
  4 12  1  0  0  0  0
  4  8  1  0  0  0  0
  5  2  1  0  0  0  0
  6  7  1  6  0  0  0
  6 10  1  0  0  0  0
  8  3  1  1  0  0  0
  9  5  1  0  0  0  0
 10  3  1  6  0  0  0
 10 11  1  0  0  0  0
 11  2  2  0  0  0  0
 12  7  1  6  0  0  0
 12  8  1  0  0  0  0
 13  2  1  6  0  0  0
 13 16  1  0  0  0  0
 13 14  1  0  0  0  0
 14 21  1  6  0  0  0
 15 19  1  0  0  0  0
 16 14  1  0  0  0  0
 16 15  2  0  0  0  0
 19 20  2  0  0  0  0
 19 18  1  0  0  0  0
 19 17  2  0  0  0  0
 22 21  1  6  0  0  0
 22 29  1  0  0  0  0
 23 27  1  0  0  0  0
 24 27  2  0  0  0  0
 25 24  1  0  0  0  0
 26 28  1  0  0  0  0
 26 25  2  0  0  0  0
 27 22  1  0  0  0  0
 28 23  2  0  0  0  0
 29 30  1  0  0  0  0
 31 33  1  0  0  0  0
 31 38  1  1  0  0  0
 32 36  1  6  0  0  0
 32 31  1  0  0  0  0
 32 33  1  0  0  0  0
 32  4  1  0  0  0  0
 34 36  1  0  0  0  0
 35 36  1  0  0  0  0
 37 36  1  0  0  0  0
 39 38  1  0  0  0  0
 40 41  1  0  0  0  0
M  END
>  <MODEL>
8

>  <REMARK>
 VINA RESULT:      -4.0      2.688      5.087
  Name = 
  10 active torsions:
  status: ('A' for Active; 'I' for Inactive)
    1  A    between atoms: C_2  and  C_19
    2  A    between atoms: C_5  and  C_8
    3  A    between atoms: C_6  and  C_15
    4  A    between atoms: C_6  and  O_22
    5  A    between atoms: O_14  and  C_33
    6  A    between atoms: C_15  and  C_36
    7  A    between atoms: C_30  and  C_38
    8  A    between atoms: S_31  and  N_35
    9  A    between atoms: C_33  and  C_34
   10  A    between atoms: C_33  and  C_38
                            x       y       z     vdW  Elec       q    Type
                         _______ _______ _______ _____ _____    ______ ____

>  <TORSDO>
F 10

$$$$
