=
 OpenBabel11072414323D

 36 41  0  0  1  0  0  0  0  0999 V2000
  161.3100  207.4380  152.3820 N   0  0  0  0  0  0  0  0  0  0  0  0
  162.5430  210.1570  152.8430 N   0  0  0  0  0  0  0  0  0  0  0  0
  163.9170  210.8130  155.3140 N   0  0  0  0  0  2  0  0  0  0  0  0
  161.3840  207.9510  150.0230 C   0  0  0  0  0  3  0  0  0  0  0  0
  164.5320  211.6360  156.3420 C   0  0  0  0  0  1  0  0  0  0  0  0
  161.6050  208.3720  151.3390 C   0  0  0  0  0  0  0  0  0  0  0  0
  159.9770  209.1370  155.4310 C   0  0  0  0  0  0  0  0  0  0  0  0
  160.7260  209.0940  154.0990 C   0  0  2  0  0  3  0  0  0  0  0  0
  160.2680  211.6040  155.6960 C   0  0  1  0  0  3  0  0  0  0  0  0
  159.8330  206.7070  155.6170 C   0  0  0  0  0  3  0  0  0  0  0  0
  162.5020  210.7570  155.1160 C   0  0  0  0  0  0  0  0  0  0  0  0
  160.6050  206.5680  154.4250 N   0  0  0  0  0  0  0  0  0  0  0  0
  160.9580  207.6840  153.6050 C   0  0  0  0  0  0  0  0  0  0  0  0
  159.7020  210.2730  156.0720 C   0  0  0  0  0  2  0  0  0  0  0  0
  161.7240  211.5390  155.8120 N   0  0  0  0  0  0  0  0  0  0  0  0
  162.5050  210.4370  150.4490 C   0  0  0  0  0  3  0  0  0  0  0  0
  162.1810  209.6450  151.5540 C   0  0  0  0  0  0  0  0  0  0  0  0
  162.2460  209.9800  149.1580 C   0  0  0  0  0  3  0  0  0  0  0  0
  159.5140  207.9060  156.0830 C   0  0  0  0  0  3  0  0  0  0  0  0
  161.9860  209.9370  153.9950 C   0  0  0  0  0  0  0  0  0  0  0  0
  161.6940  208.7540  148.9720 N   0  0  0  0  0  0  0  0  0  0  0  0
  159.8310  212.1160  154.3230 C   0  0  0  0  0  2  0  0  0  0  0  0
  158.8240  213.1600  154.4620 N   0  0  0  0  0  2  0  0  0  0  0  0
  155.7540  214.0580  152.5170 C   0  0  0  0  0  3  0  0  0  0  0  0
  158.5160  213.9530  152.1540 C   0  0  0  0  0  3  0  0  0  0  0  0
  157.9670  213.5600  153.3850 C   0  0  0  0  0  0  0  0  0  0  0  0
  156.5670  213.6030  153.5660 C   0  0  0  0  0  0  0  0  0  0  0  0
  157.6950  214.3870  151.1140 C   0  0  0  0  0  3  0  0  0  0  0  0
  156.3130  214.4450  151.2970 C   0  0  0  0  0  3  0  0  0  0  0  0
  155.8310  211.8440  155.2130 C   0  0  0  0  0  0  0  0  0  0  0  0
  155.2190  211.4960  156.4220 C   0  0  0  0  0  3  0  0  0  0  0  0
  155.9300  213.1990  154.8370 C   0  0  0  0  0  0  0  0  0  0  0  0
  156.2860  210.8580  154.3990 F   0  0  0  0  0  0  0  0  0  0  0  0
  155.3870  214.1830  155.6750 C   0  0  0  0  0  3  0  0  0  0  0  0
  154.7760  213.8310  156.8820 C   0  0  0  0  0  3  0  0  0  0  0  0
  154.6970  212.4870  157.2570 C   0  0  0  0  0  3  0  0  0  0  0  0
  1 13  2  0  0  0  0
  2 20  2  0  0  0  0
  3  5  1  0  0  0  0
  4  6  1  0  0  0  0
  6 17  2  0  0  0  0
  6  1  1  0  0  0  0
  7 14  1  0  0  0  0
  7 19  2  0  0  0  0
  8 13  1  1  0  0  0
  8  7  1  0  0  0  0
  9 22  1  6  0  0  0
  9 15  1  0  0  0  0
  9 14  1  0  0  0  0
 10 19  1  0  0  0  0
 11  3  1  0  0  0  0
 11 15  2  0  0  0  0
 12 10  2  0  0  0  0
 13 12  1  0  0  0  0
 16 17  1  0  0  0  0
 17  2  1  0  0  0  0
 18 16  2  0  0  0  0
 20  8  1  0  0  0  0
 20 11  1  0  0  0  0
 21 18  1  0  0  0  0
 21  4  2  0  0  0  0
 22 23  1  0  0  0  0
 24 27  1  0  0  0  0
 25 26  1  0  0  0  0
 26 27  2  0  0  0  0
 26 23  1  0  0  0  0
 27 32  1  0  0  0  0
 28 29  1  0  0  0  0
 28 25  2  0  0  0  0
 29 24  2  0  0  0  0
 30 31  1  0  0  0  0
 31 36  2  0  0  0  0
 32 30  2  0  0  0  0
 32 34  1  0  0  0  0
 33 30  1  0  0  0  0
 34 35  2  0  0  0  0
 35 36  1  0  0  0  0
M  END
>  <MODEL>
1

>  <REMARK>
 VINA RESULT:      -5.1      0.000      0.000
  Name = 
  4 active torsions:
  status: ('A' for Active; 'I' for Inactive)
    1  A    between atoms: C_5  and  N_14
    2  A    between atoms: C_5  and  C_19
    3  A    between atoms: C_10  and  C_26
    4  A    between atoms: N_14  and  C_16
                            x       y       z     vdW  Elec       q    Type
                         _______ _______ _______ _____ _____    ______ ____

>  <TORSDO>
F 4

$$$$
=
 OpenBabel11072414323D

 36 41  0  0  1  0  0  0  0  0999 V2000
  162.1640  207.6280  151.1270 N   0  0  0  0  0  0  0  0  0  0  0  0
  162.2950  210.3400  152.4510 N   0  0  0  0  0  0  0  0  0  0  0  0
  163.3840  210.6870  155.1190 N   0  0  0  0  0  2  0  0  0  0  0  0
  161.9790  208.8090  149.0270 C   0  0  0  0  0  3  0  0  0  0  0  0
  163.6710  211.3320  156.3900 C   0  0  0  0  0  1  0  0  0  0  0  0
  162.0590  208.8700  150.4240 C   0  0  0  0  0  0  0  0  0  0  0  0
  160.3680  207.7320  154.4020 C   0  0  0  0  0  0  0  0  0  0  0  0
  161.0440  208.3640  153.1840 C   0  0  2  0  0  3  0  0  0  0  0  0
  159.7170  209.9350  155.3830 C   0  0  1  0  0  3  0  0  0  0  0  0
  161.1540  205.4810  153.8740 C   0  0  0  0  0  3  0  0  0  0  0  0
  162.0900  210.1780  154.7870 C   0  0  0  0  0  0  0  0  0  0  0  0
  161.8900  205.9950  152.7660 N   0  0  0  0  0  0  0  0  0  0  0  0
  161.7770  207.3520  152.3330 C   0  0  0  0  0  0  0  0  0  0  0  0
  159.7030  208.4410  155.3120 C   0  0  0  0  0  2  0  0  0  0  0  0
  161.0930  210.3760  155.6060 N   0  0  0  0  0  0  0  0  0  0  0  0
  162.0940  211.2850  150.2420 C   0  0  0  0  0  3  0  0  0  0  0  0
  162.1200  210.1400  151.0430 C   0  0  0  0  0  0  0  0  0  0  0  0
  161.9920  211.1710  148.8570 C   0  0  0  0  0  3  0  0  0  0  0  0
  160.4190  206.2830  154.6320 C   0  0  0  0  0  3  0  0  0  0  0  0
  161.8910  209.5990  153.4390 C   0  0  0  0  0  0  0  0  0  0  0  0
  161.9370  209.9430  148.2820 N   0  0  0  0  0  0  0  0  0  0  0  0
  159.0840  210.6340  154.1790 C   0  0  0  0  0  2  0  0  0  0  0  0
  159.1520  212.0810  154.3330 N   0  0  0  0  0  2  0  0  0  0  0  0
  156.2660  214.4520  154.0850 C   0  0  0  0  0  3  0  0  0  0  0  0
  157.4610  212.7860  155.9740 C   0  0  0  0  0  3  0  0  0  0  0  0
  158.0150  212.8780  154.6870 C   0  0  0  0  0  0  0  0  0  0  0  0
  157.4160  213.7300  153.7330 C   0  0  0  0  0  0  0  0  0  0  0  0
  156.3270  213.5230  156.3160 C   0  0  0  0  0  3  0  0  0  0  0  0
  155.7250  214.3520  155.3680 C   0  0  0  0  0  3  0  0  0  0  0  0
  157.1090  213.8700  151.2360 C   0  0  0  0  0  0  0  0  0  0  0  0
  157.6530  214.0040  149.9540 C   0  0  0  0  0  3  0  0  0  0  0  0
  157.9540  213.8720  152.3640 C   0  0  0  0  0  0  0  0  0  0  0  0
  155.7700  213.7000  151.3680 F   0  0  0  0  0  0  0  0  0  0  0  0
  159.3410  213.9830  152.1810 C   0  0  0  0  0  3  0  0  0  0  0  0
  159.8790  214.1160  150.8980 C   0  0  0  0  0  3  0  0  0  0  0  0
  159.0340  214.1320  149.7850 C   0  0  0  0  0  3  0  0  0  0  0  0
  1 13  2  0  0  0  0
  2 20  2  0  0  0  0
  3  5  1  0  0  0  0
  4  6  1  0  0  0  0
  6 17  2  0  0  0  0
  6  1  1  0  0  0  0
  7 19  2  0  0  0  0
  7 14  1  0  0  0  0
  8 13  1  1  0  0  0
  8 20  1  0  0  0  0
  8  7  1  0  0  0  0
  9 22  1  6  0  0  0
  9 15  1  0  0  0  0
 10 19  1  0  0  0  0
 11  3  1  0  0  0  0
 11 15  2  0  0  0  0
 12 10  2  0  0  0  0
 13 12  1  0  0  0  0
 14  9  1  0  0  0  0
 16 17  1  0  0  0  0
 17  2  1  0  0  0  0
 18 16  2  0  0  0  0
 20 11  1  0  0  0  0
 21 18  1  0  0  0  0
 21  4  2  0  0  0  0
 22 23  1  0  0  0  0
 23 26  1  0  0  0  0
 24 29  1  0  0  0  0
 25 28  1  0  0  0  0
 26 25  2  0  0  0  0
 27 24  2  0  0  0  0
 27 26  1  0  0  0  0
 29 28  2  0  0  0  0
 30 33  1  0  0  0  0
 30 32  1  0  0  0  0
 31 30  2  0  0  0  0
 32 27  1  0  0  0  0
 34 32  2  0  0  0  0
 35 34  1  0  0  0  0
 36 31  1  0  0  0  0
 36 35  2  0  0  0  0
M  END
>  <MODEL>
2

>  <REMARK>
 VINA RESULT:      -4.9      1.433      3.292
  Name = 
  4 active torsions:
  status: ('A' for Active; 'I' for Inactive)
    1  A    between atoms: C_5  and  N_14
    2  A    between atoms: C_5  and  C_19
    3  A    between atoms: C_10  and  C_26
    4  A    between atoms: N_14  and  C_16
                            x       y       z     vdW  Elec       q    Type
                         _______ _______ _______ _____ _____    ______ ____

>  <TORSDO>
F 4

$$$$
=
 OpenBabel11072414323D

 36 41  0  0  1  0  0  0  0  0999 V2000
  157.9070  213.1300  153.0760 N   0  0  0  0  0  0  0  0  0  0  0  0
  159.3460  211.0150  154.6820 N   0  0  0  0  0  0  0  0  0  0  0  0
  162.1490  211.2740  155.3870 N   0  0  0  0  0  2  0  0  0  0  0  0
  155.8520  212.2020  153.9430 C   0  0  0  0  0  3  0  0  0  0  0  0
  163.4720  210.8770  155.8400 C   0  0  0  0  0  1  0  0  0  0  0  0
  157.2470  212.1290  153.8580 C   0  0  0  0  0  0  0  0  0  0  0  0
  160.9060  211.7640  151.3170 C   0  0  0  0  0  0  0  0  0  0  0  0
  159.8200  211.7510  152.3930 C   0  0  2  0  0  3  0  0  0  0  0  0
  161.8780  209.5810  152.0480 C   0  0  1  0  0  3  0  0  0  0  0  0
  160.4000  214.0420  150.6010 C   0  0  0  0  0  3  0  0  0  0  0  0
  161.6230  210.8900  154.1140 C   0  0  0  0  0  0  0  0  0  0  0  0
  159.4250  214.1540  151.6360 N   0  0  0  0  0  2  0  0  0  0  0  0
  159.0360  213.0420  152.4460 C   0  0  0  0  0  0  0  0  0  0  0  0
  161.7450  210.7470  151.1210 C   0  0  0  0  0  3  0  0  0  0  0  0
  162.3050  210.0750  153.3560 N   0  0  0  0  0  0  0  0  0  0  0  0
  157.1700  210.2670  155.4050 C   0  0  0  0  0  3  0  0  0  0  0  0
  157.9200  211.1380  154.6090 C   0  0  0  0  0  0  0  0  0  0  0  0
  155.7810  210.3670  155.4390 C   0  0  0  0  0  3  0  0  0  0  0  0
  161.0830  212.9190  150.4280 C   0  0  0  0  0  3  0  0  0  0  0  0
  160.2380  211.2930  153.7800 C   0  0  0  0  0  0  0  0  0  0  0  0
  155.1540  211.3270  154.7120 N   0  0  0  0  0  0  0  0  0  0  0  0
  160.6280  208.7060  152.1510 C   0  0  0  0  0  2  0  0  0  0  0  0
  160.6930  207.6060  151.1970 N   0  0  0  0  0  2  0  0  0  0  0  0
  161.2240  203.9030  151.0560 C   0  0  0  0  0  3  0  0  0  0  0  0
  160.7990  205.8950  152.9610 C   0  0  0  0  0  3  0  0  0  0  0  0
  160.8270  206.2380  151.5990 C   0  0  0  0  0  0  0  0  0  0  0  0
  161.0320  205.2280  150.6330 C   0  0  0  0  0  0  0  0  0  0  0  0
  160.9750  204.5730  153.3660 C   0  0  0  0  0  3  0  0  0  0  0  0
  161.1930  203.5760  152.4140 C   0  0  0  0  0  3  0  0  0  0  0  0
  161.3350  204.5200  148.2340 C   0  0  0  0  0  0  0  0  0  0  0  0
  161.3640  204.8370  146.8720 C   0  0  0  0  0  3  0  0  0  0  0  0
  161.0680  205.5250  149.1870 C   0  0  0  0  0  0  0  0  0  0  0  0
  161.6060  203.2480  148.6200 F   0  0  0  0  0  0  0  0  0  0  0  0
  160.8580  206.8420  148.7510 C   0  0  0  0  0  3  0  0  0  0  0  0
  160.8890  207.1530  147.3900 C   0  0  0  0  0  3  0  0  0  0  0  0
  161.1370  206.1490  146.4500 C   0  0  0  0  0  3  0  0  0  0  0  0
  1  6  1  0  0  0  0
  3  5  1  0  0  0  0
  4 21  1  0  0  0  0
  6  4  2  0  0  0  0
  6 17  1  0  0  0  0
  8  7  1  6  0  0  0
  8 13  1  0  0  0  0
  8 20  1  0  0  0  0
  9 22  1  1  0  0  0
  9 15  1  0  0  0  0
 10 12  1  0  0  0  0
 11  3  1  0  0  0  0
 12 13  1  0  0  0  0
 13  1  2  0  0  0  0
 14  7  2  0  0  0  0
 14  9  1  0  0  0  0
 15 11  2  0  0  0  0
 16 18  1  0  0  0  0
 17  2  1  0  0  0  0
 17 16  2  0  0  0  0
 19 10  2  0  0  0  0
 19  7  1  0  0  0  0
 20 11  1  0  0  0  0
 20  2  2  0  0  0  0
 21 18  2  0  0  0  0
 23 26  1  0  0  0  0
 23 22  1  0  0  0  0
 24 29  1  0  0  0  0
 25 28  1  0  0  0  0
 26 25  2  0  0  0  0
 27 24  2  0  0  0  0
 27 26  1  0  0  0  0
 29 28  2  0  0  0  0
 30 33  1  0  0  0  0
 30 32  1  0  0  0  0
 31 30  2  0  0  0  0
 32 27  1  0  0  0  0
 34 32  2  0  0  0  0
 35 34  1  0  0  0  0
 36 31  1  0  0  0  0
 36 35  2  0  0  0  0
M  END
>  <MODEL>
3

>  <REMARK>
 VINA RESULT:      -4.8      3.044      8.308
  Name = 
  4 active torsions:
  status: ('A' for Active; 'I' for Inactive)
    1  A    between atoms: C_5  and  N_14
    2  A    between atoms: C_5  and  C_19
    3  A    between atoms: C_10  and  C_26
    4  A    between atoms: N_14  and  C_16
                            x       y       z     vdW  Elec       q    Type
                         _______ _______ _______ _____ _____    ______ ____

>  <TORSDO>
F 4

$$$$
=
 OpenBabel11072414323D

 36 41  0  0  1  0  0  0  0  0999 V2000
  157.6120  213.1280  153.4240 N   0  0  0  0  0  0  0  0  0  0  0  0
  159.1180  210.9780  154.9180 N   0  0  0  0  0  0  0  0  0  0  0  0
  161.9140  211.2850  155.6320 N   0  0  0  0  0  2  0  0  0  0  0  0
  155.5880  212.0950  154.2450 C   0  0  0  0  0  3  0  0  0  0  0  0
  163.2500  210.9060  156.0630 C   0  0  0  0  0  1  0  0  0  0  0  0
  156.9840  212.0690  154.1540 C   0  0  0  0  0  0  0  0  0  0  0  0
  160.6460  211.9440  151.5940 C   0  0  0  0  0  0  0  0  0  0  0  0
  159.5640  211.8440  152.6690 C   0  0  2  0  0  3  0  0  0  0  0  0
  161.6860  209.7570  152.2120 C   0  0  1  0  0  3  0  0  0  0  0  0
  160.0700  214.2390  150.9960 C   0  0  0  0  0  3  0  0  0  0  0  0
  161.3960  210.9510  154.3420 C   0  0  0  0  0  0  0  0  0  0  0  0
  159.0950  214.2690  152.0360 N   0  0  0  0  0  2  0  0  0  0  0  0
  158.7420  213.1060  152.7890 C   0  0  0  0  0  0  0  0  0  0  0  0
  161.5150  210.9640  151.3460 C   0  0  0  0  0  3  0  0  0  0  0  0
  162.1000  210.1960  153.5430 N   0  0  0  0  0  0  0  0  0  0  0  0
  156.9680  210.1290  155.6040 C   0  0  0  0  0  3  0  0  0  0  0  0
  157.6890  211.0620  154.8530 C   0  0  0  0  0  0  0  0  0  0  0  0
  155.5760  210.1860  155.6450 C   0  0  0  0  0  3  0  0  0  0  0  0
  160.7860  213.1470  150.7650 C   0  0  0  0  0  3  0  0  0  0  0  0
  159.9980  211.3290  154.0310 C   0  0  0  0  0  0  0  0  0  0  0  0
  154.9180  211.1620  154.9680 N   0  0  0  0  0  0  0  0  0  0  0  0
  160.4630  208.8400  152.2710 C   0  0  0  0  0  2  0  0  0  0  0  0
  160.7490  207.5630  151.6320 N   0  0  0  0  0  2  0  0  0  0  0  0
  161.8930  206.1190  148.3730 C   0  0  0  0  0  3  0  0  0  0  0  0
  161.5020  208.6190  149.5430 C   0  0  0  0  0  3  0  0  0  0  0  0
  161.2520  207.4600  150.2950 C   0  0  0  0  0  0  0  0  0  0  0  0
  161.4600  206.1930  149.7060 C   0  0  0  0  0  0  0  0  0  0  0  0
  161.9480  208.5310  148.2250 C   0  0  0  0  0  3  0  0  0  0  0  0
  162.1390  207.2800  147.6380 C   0  0  0  0  0  3  0  0  0  0  0  0
  160.9460  203.7270  149.7770 C   0  0  0  0  0  0  0  0  0  0  0  0
  160.7180  202.5570  150.5100 C   0  0  0  0  0  3  0  0  0  0  0  0
  161.2170  204.9380  150.4470 C   0  0  0  0  0  0  0  0  0  0  0  0
  160.8600  203.6830  148.4240 F   0  0  0  0  0  0  0  0  0  0  0  0
  161.2310  204.9550  151.8490 C   0  0  0  0  0  3  0  0  0  0  0  0
  161.0030  203.7840  152.5770 C   0  0  0  0  0  3  0  0  0  0  0  0
  160.7520  202.5840  151.9060 C   0  0  0  0  0  3  0  0  0  0  0  0
  1  6  1  0  0  0  0
  3  5  1  0  0  0  0
  4 21  1  0  0  0  0
  6  4  2  0  0  0  0
  6 17  1  0  0  0  0
  8  7  1  6  0  0  0
  8 13  1  0  0  0  0
  8 20  1  0  0  0  0
  9 22  1  1  0  0  0
  9 15  1  0  0  0  0
 10 12  1  0  0  0  0
 11  3  1  0  0  0  0
 12 13  1  0  0  0  0
 13  1  2  0  0  0  0
 14  7  2  0  0  0  0
 14  9  1  0  0  0  0
 15 11  2  0  0  0  0
 16 18  1  0  0  0  0
 17  2  1  0  0  0  0
 17 16  2  0  0  0  0
 19 10  2  0  0  0  0
 19  7  1  0  0  0  0
 20 11  1  0  0  0  0
 20  2  2  0  0  0  0
 21 18  2  0  0  0  0
 23 22  1  0  0  0  0
 24 27  1  0  0  0  0
 25 26  1  0  0  0  0
 26 23  1  0  0  0  0
 27 26  2  0  0  0  0
 27 32  1  0  0  0  0
 28 25  2  0  0  0  0
 29 28  1  0  0  0  0
 29 24  2  0  0  0  0
 30 32  2  0  0  0  0
 30 31  1  0  0  0  0
 31 36  2  0  0  0  0
 32 34  1  0  0  0  0
 33 30  1  0  0  0  0
 34 35  2  0  0  0  0
 36 35  1  0  0  0  0
M  END
>  <MODEL>
4

>  <REMARK>
 VINA RESULT:      -4.4      2.998      7.913
  Name = 
  4 active torsions:
  status: ('A' for Active; 'I' for Inactive)
    1  A    between atoms: C_5  and  N_14
    2  A    between atoms: C_5  and  C_19
    3  A    between atoms: C_10  and  C_26
    4  A    between atoms: N_14  and  C_16
                            x       y       z     vdW  Elec       q    Type
                         _______ _______ _______ _____ _____    ______ ____

>  <TORSDO>
F 4

$$$$
=
 OpenBabel11072414323D

 36 41  0  0  1  0  0  0  0  0999 V2000
  157.7500  214.0430  149.7570 N   0  0  0  0  0  0  0  0  0  0  0  0
  160.6360  213.3540  150.3270 N   0  0  0  0  0  0  0  0  0  0  0  0
  162.8010  214.3490  148.6700 N   0  0  0  0  0  2  0  0  0  0  0  0
  157.2920  213.4430  152.0520 C   0  0  0  0  0  3  0  0  0  0  0  0
  164.1390  214.4530  148.1110 C   0  0  0  0  0  1  0  0  0  0  0  0
  158.2220  213.5370  151.0100 C   0  0  0  0  0  0  0  0  0  0  0  0
  159.4460  212.3910  146.8660 C   0  0  0  0  0  0  0  0  0  0  0  0
  159.3210  212.8030  148.3330 C   0  0  2  0  0  3  0  0  0  0  0  0
  161.5580  211.1090  147.2410 C   0  0  1  0  0  3  0  0  0  0  0  0
  157.6110  213.8270  146.1360 C   0  0  0  0  0  3  0  0  0  0  0  0
  161.9160  213.2710  148.3570 C   0  0  0  0  0  0  0  0  0  0  0  0
  157.4790  214.3360  147.4620 N   0  0  0  0  0  2  0  0  0  0  0  0
  158.2030  213.7930  148.5680 C   0  0  0  0  0  0  0  0  0  0  0  0
  160.3900  211.5610  146.4240 C   0  0  0  0  0  3  0  0  0  0  0  0
  162.3420  212.2840  147.6180 N   0  0  0  0  0  0  0  0  0  0  0  0
  159.9290  212.8100  152.5670 C   0  0  0  0  0  3  0  0  0  0  0  0
  159.5720  213.2130  151.2770 C   0  0  0  0  0  0  0  0  0  0  0  0
  158.9610  212.7130  153.5640 C   0  0  0  0  0  3  0  0  0  0  0  0
  158.5140  212.8980  145.8520 C   0  0  0  0  0  3  0  0  0  0  0  0
  160.6000  213.2280  149.0350 C   0  0  0  0  0  0  0  0  0  0  0  0
  157.6700  213.0290  153.2890 N   0  0  0  0  0  0  0  0  0  0  0  0
  161.1900  210.2580  148.4580 C   0  0  0  0  0  2  0  0  0  0  0  0
  161.7960  208.9370  148.3610 N   0  0  0  0  0  2  0  0  0  0  0  0
  161.0940  205.5400  149.7690 C   0  0  0  0  0  3  0  0  0  0  0  0
  161.4880  208.1490  150.6710 C   0  0  0  0  0  3  0  0  0  0  0  0
  161.5150  207.8840  149.2920 C   0  0  0  0  0  0  0  0  0  0  0  0
  161.3050  206.5650  148.8340 C   0  0  0  0  0  0  0  0  0  0  0  0
  161.2610  207.1240  151.5890 C   0  0  0  0  0  3  0  0  0  0  0  0
  161.0690  205.8180  151.1380 C   0  0  0  0  0  3  0  0  0  0  0  0
  162.4710  205.7100  146.7710 C   0  0  0  0  0  0  0  0  0  0  0  0
  162.4500  205.4010  145.4070 C   0  0  0  0  0  3  0  0  0  0  0  0
  161.3180  206.2250  147.3970 C   0  0  0  0  0  0  0  0  0  0  0  0
  163.6260  205.5440  147.4650 F   0  0  0  0  0  0  0  0  0  0  0  0
  160.1640  206.4440  146.6290 C   0  0  0  0  0  3  0  0  0  0  0  0
  160.1470  206.1350  145.2670 C   0  0  0  0  0  3  0  0  0  0  0  0
  161.2890  205.6080  144.6570 C   0  0  0  0  0  3  0  0  0  0  0  0
  1  6  1  0  0  0  0
  2 17  1  0  0  0  0
  4 21  1  0  0  0  0
  5  3  1  0  0  0  0
  6 17  1  0  0  0  0
  6  4  2  0  0  0  0
  8  7  1  6  0  0  0
  8 13  1  0  0  0  0
  8 20  1  0  0  0  0
  9 15  1  0  0  0  0
  9 22  1  1  0  0  0
 10 12  1  0  0  0  0
 11  3  1  0  0  0  0
 11 20  1  0  0  0  0
 12 13  1  0  0  0  0
 13  1  2  0  0  0  0
 14  7  2  0  0  0  0
 14  9  1  0  0  0  0
 15 11  2  0  0  0  0
 16 18  1  0  0  0  0
 17 16  2  0  0  0  0
 19 10  2  0  0  0  0
 19  7  1  0  0  0  0
 20  2  2  0  0  0  0
 21 18  2  0  0  0  0
 23 22  1  0  0  0  0
 23 26  1  0  0  0  0
 24 29  1  0  0  0  0
 25 28  1  0  0  0  0
 26 25  2  0  0  0  0
 27 26  1  0  0  0  0
 27 24  2  0  0  0  0
 29 28  2  0  0  0  0
 30 32  1  0  0  0  0
 30 33  1  0  0  0  0
 31 30  2  0  0  0  0
 32 27  1  0  0  0  0
 34 32  2  0  0  0  0
 35 34  1  0  0  0  0
 36 35  2  0  0  0  0
 36 31  1  0  0  0  0
M  END
>  <MODEL>
5

>  <REMARK>
 VINA RESULT:      -4.3      4.087      9.425
  Name = 
  4 active torsions:
  status: ('A' for Active; 'I' for Inactive)
    1  A    between atoms: C_5  and  N_14
    2  A    between atoms: C_5  and  C_19
    3  A    between atoms: C_10  and  C_26
    4  A    between atoms: N_14  and  C_16
                            x       y       z     vdW  Elec       q    Type
                         _______ _______ _______ _____ _____    ______ ____

>  <TORSDO>
F 4

$$$$
=
 OpenBabel11072414323D

 36 41  0  0  1  0  0  0  0  0999 V2000
  157.7160  214.2940  148.9320 N   0  0  0  0  0  0  0  0  0  0  0  0
  160.4590  213.8140  150.1020 N   0  0  0  0  0  0  0  0  0  0  0  0
  162.8800  214.4510  148.6340 N   0  0  0  0  0  2  0  0  0  0  0  0
  156.8820  214.2230  151.1990 C   0  0  0  0  0  3  0  0  0  0  0  0
  164.2920  214.4530  148.2890 C   0  0  0  0  0  1  0  0  0  0  0  0
  157.9700  214.0960  150.3270 C   0  0  0  0  0  0  0  0  0  0  0  0
  159.8290  212.0640  146.8060 C   0  0  0  0  0  0  0  0  0  0  0  0
  159.4750  212.7970  148.1010 C   0  0  2  0  0  3  0  0  0  0  0  0
  161.8310  210.9460  147.7990 C   0  0  1  0  0  3  0  0  0  0  0  0
  158.1610  213.2570  145.4820 C   0  0  0  0  0  3  0  0  0  0  0  0
  162.0400  213.3120  148.4360 C   0  0  0  0  0  0  0  0  0  0  0  0
  157.8250  214.0520  146.6180 N   0  0  0  0  0  2  0  0  0  0  0  0
  158.3510  213.7900  147.9210 C   0  0  0  0  0  0  0  0  0  0  0  0
  160.8190  211.1750  146.7230 C   0  0  0  0  0  3  0  0  0  0  0  0
  162.5640  212.1910  148.0200 N   0  0  0  0  0  0  0  0  0  0  0  0
  159.3910  213.7780  152.2630 C   0  0  0  0  0  3  0  0  0  0  0  0
  159.2540  213.8710  150.8750 C   0  0  0  0  0  0  0  0  0  0  0  0
  158.2730  213.8910  153.0870 C   0  0  0  0  0  3  0  0  0  0  0  0
  159.0820  212.3070  145.5660 C   0  0  0  0  0  3  0  0  0  0  0  0
  160.6310  213.3970  148.8840 C   0  0  0  0  0  0  0  0  0  0  0  0
  157.0490  214.1090  152.5420 N   0  0  0  0  0  0  0  0  0  0  0  0
  161.2570  210.3860  149.1020 C   0  0  0  0  0  2  0  0  0  0  0  0
  162.0030  209.2080  149.5260 N   0  0  0  0  0  2  0  0  0  0  0  0
  160.8330  205.6560  149.6930 C   0  0  0  0  0  3  0  0  0  0  0  0
  161.6320  207.5180  147.7780 C   0  0  0  0  0  3  0  0  0  0  0  0
  161.6390  207.8790  149.1350 C   0  0  0  0  0  0  0  0  0  0  0  0
  161.2450  206.9320  150.1070 C   0  0  0  0  0  0  0  0  0  0  0  0
  161.2360  206.2410  147.3820 C   0  0  0  0  0  3  0  0  0  0  0  0
  160.8320  205.3100  148.3400 C   0  0  0  0  0  3  0  0  0  0  0  0
  161.6110  206.2970  152.5170 C   0  0  0  0  0  0  0  0  0  0  0  0
  161.5870  206.6310  153.8760 C   0  0  0  0  0  3  0  0  0  0  0  0
  161.2350  207.2510  151.5490 C   0  0  0  0  0  0  0  0  0  0  0  0
  161.9590  205.0370  152.1560 F   0  0  0  0  0  0  0  0  0  0  0  0
  160.8170  208.5220  151.9680 C   0  0  0  0  0  3  0  0  0  0  0  0
  160.7940  208.8510  153.3260 C   0  0  0  0  0  3  0  0  0  0  0  0
  161.1850  207.9070  154.2790 C   0  0  0  0  0  3  0  0  0  0  0  0
  1  6  1  0  0  0  0
  2 17  1  0  0  0  0
  4 21  1  0  0  0  0
  5  3  1  0  0  0  0
  6 17  1  0  0  0  0
  6  4  2  0  0  0  0
  8  7  1  6  0  0  0
  8 20  1  0  0  0  0
  9 15  1  0  0  0  0
  9 22  1  1  0  0  0
 10 19  2  0  0  0  0
 10 12  1  0  0  0  0
 11  3  1  0  0  0  0
 11 20  1  0  0  0  0
 12 13  1  0  0  0  0
 13  8  1  0  0  0  0
 13  1  2  0  0  0  0
 14  7  2  0  0  0  0
 14  9  1  0  0  0  0
 15 11  2  0  0  0  0
 16 18  1  0  0  0  0
 17 16  2  0  0  0  0
 19  7  1  0  0  0  0
 20  2  2  0  0  0  0
 21 18  2  0  0  0  0
 22 23  1  0  0  0  0
 24 27  1  0  0  0  0
 25 26  1  0  0  0  0
 26 23  1  0  0  0  0
 26 27  2  0  0  0  0
 27 32  1  0  0  0  0
 28 25  2  0  0  0  0
 28 29  1  0  0  0  0
 29 24  2  0  0  0  0
 30 31  1  0  0  0  0
 31 36  2  0  0  0  0
 32 34  1  0  0  0  0
 32 30  2  0  0  0  0
 33 30  1  0  0  0  0
 34 35  2  0  0  0  0
 35 36  1  0  0  0  0
M  END
>  <MODEL>
6

>  <REMARK>
 VINA RESULT:      -4.0      3.525      8.387
  Name = 
  4 active torsions:
  status: ('A' for Active; 'I' for Inactive)
    1  A    between atoms: C_5  and  N_14
    2  A    between atoms: C_5  and  C_19
    3  A    between atoms: C_10  and  C_26
    4  A    between atoms: N_14  and  C_16
                            x       y       z     vdW  Elec       q    Type
                         _______ _______ _______ _____ _____    ______ ____

>  <TORSDO>
F 4

$$$$
=
 OpenBabel11072414323D

 36 41  0  0  1  0  0  0  0  0999 V2000
  159.7860  212.9420  156.5110 N   0  0  0  0  0  0  0  0  0  0  0  0
  158.5770  210.3600  155.5140 N   0  0  0  0  0  0  0  0  0  0  0  0
  159.3100  207.7900  156.6470 N   0  0  0  0  0  2  0  0  0  0  0  0
  157.8890  214.0600  155.5170 C   0  0  0  0  0  3  0  0  0  0  0  0
  159.4340  206.3460  156.7570 C   0  0  0  0  0  1  0  0  0  0  0  0
  158.5830  212.8650  155.7400 C   0  0  0  0  0  0  0  0  0  0  0  0
  162.3540  210.5000  155.3260 C   0  0  0  0  0  0  0  0  0  0  0  0
  160.9300  211.0420  155.4570 C   0  0  2  0  0  3  0  0  0  0  0  0
  161.6680  208.6090  153.8440 C   0  0  1  0  0  3  0  0  0  0  0  0
  163.2610  212.0200  157.0080 C   0  0  0  0  0  3  0  0  0  0  0  0
  160.0760  208.5610  155.7180 C   0  0  0  0  0  0  0  0  0  0  0  0
  161.9520  212.5260  157.2610 N   0  0  0  0  0  2  0  0  0  0  0  0
  160.8230  212.1660  156.4620 C   0  0  0  0  0  0  0  0  0  0  0  0
  162.6710  209.4800  154.5300 C   0  0  0  0  0  3  0  0  0  0  0  0
  160.8510  207.9520  154.8620 N   0  0  0  0  0  0  0  0  0  0  0  0
  156.7910  211.6980  154.6020 C   0  0  0  0  0  3  0  0  0  0  0  0
  158.0170  211.6570  155.2720 C   0  0  0  0  0  0  0  0  0  0  0  0
  156.1500  212.9170  154.3870 C   0  0  0  0  0  3  0  0  0  0  0  0
  163.4640  211.0870  156.0870 C   0  0  0  0  0  3  0  0  0  0  0  0
  159.8230  210.0180  155.6430 C   0  0  0  0  0  0  0  0  0  0  0  0
  156.7090  214.0660  154.8450 N   0  0  0  0  0  0  0  0  0  0  0  0
  160.8080  209.3290  152.8040 C   0  0  0  0  0  2  0  0  0  0  0  0
  160.4860  208.4360  151.6990 N   0  0  0  0  0  2  0  0  0  0  0  0
  162.4010  207.0680  148.7870 C   0  0  0  0  0  3  0  0  0  0  0  0
  161.6090  209.5390  149.8080 C   0  0  0  0  0  3  0  0  0  0  0  0
  161.2740  208.3650  150.5040 C   0  0  0  0  0  0  0  0  0  0  0  0
  161.6830  207.1150  149.9930 C   0  0  0  0  0  0  0  0  0  0  0  0
  162.3360  209.4790  148.6200 C   0  0  0  0  0  3  0  0  0  0  0  0
  162.7280  208.2420  148.1060 C   0  0  0  0  0  3  0  0  0  0  0  0
  160.8300  204.7440  149.9840 C   0  0  0  0  0  0  0  0  0  0  0  0
  160.5370  203.5590  150.6670 C   0  0  0  0  0  3  0  0  0  0  0  0
  161.3650  205.8470  150.6810 C   0  0  0  0  0  0  0  0  0  0  0  0
  160.5530  204.8240  148.6580 F   0  0  0  0  0  0  0  0  0  0  0  0
  161.5740  205.7450  152.0640 C   0  0  0  0  0  3  0  0  0  0  0  0
  161.2790  204.5600  152.7420 C   0  0  0  0  0  3  0  0  0  0  0  0
  160.7660  203.4650  152.0420 C   0  0  0  0  0  3  0  0  0  0  0  0
  2 20  2  0  0  0  0
  3  5  1  0  0  0  0
  4  6  1  0  0  0  0
  6  1  1  0  0  0  0
  7 19  1  0  0  0  0
  8  7  1  1  0  0  0
  8 20  1  0  0  0  0
  8 13  1  0  0  0  0
  9 22  1  6  0  0  0
  9 14  1  0  0  0  0
  9 15  1  0  0  0  0
 10 12  1  0  0  0  0
 11  3  1  0  0  0  0
 13  1  2  0  0  0  0
 13 12  1  0  0  0  0
 14  7  2  0  0  0  0
 15 11  2  0  0  0  0
 16 17  1  0  0  0  0
 17  2  1  0  0  0  0
 17  6  2  0  0  0  0
 18 16  2  0  0  0  0
 18 21  1  0  0  0  0
 19 10  2  0  0  0  0
 20 11  1  0  0  0  0
 21  4  2  0  0  0  0
 23 22  1  0  0  0  0
 24 27  1  0  0  0  0
 25 26  1  0  0  0  0
 26 23  1  0  0  0  0
 27 26  2  0  0  0  0
 27 32  1  0  0  0  0
 28 25  2  0  0  0  0
 29 28  1  0  0  0  0
 29 24  2  0  0  0  0
 30 31  2  0  0  0  0
 30 32  1  0  0  0  0
 31 36  1  0  0  0  0
 32 34  2  0  0  0  0
 33 30  1  0  0  0  0
 34 35  1  0  0  0  0
 36 35  2  0  0  0  0
M  END
>  <MODEL>
7

>  <REMARK>
 VINA RESULT:      -3.1      2.547      7.512
  Name = 
  4 active torsions:
  status: ('A' for Active; 'I' for Inactive)
    1  A    between atoms: C_5  and  N_14
    2  A    between atoms: C_5  and  C_19
    3  A    between atoms: C_10  and  C_26
    4  A    between atoms: N_14  and  C_16
                            x       y       z     vdW  Elec       q    Type
                         _______ _______ _______ _____ _____    ______ ____

>  <TORSDO>
F 4

$$$$
=
 OpenBabel11072414323D

 36 41  0  0  1  0  0  0  0  0999 V2000
  160.6570  214.1660  146.5810 N   0  0  0  0  0  0  0  0  0  0  0  0
  159.1910  212.6390  148.7350 N   0  0  0  0  0  0  0  0  0  0  0  0
  159.9240  212.8580  151.5340 N   0  0  0  0  0  2  0  0  0  0  0  0
  158.7110  213.8160  145.1920 C   0  0  0  0  0  3  0  0  0  0  0  0
  159.9830  212.5240  152.9470 C   0  0  0  0  0  1  0  0  0  0  0  0
  159.3620  213.5820  146.4100 C   0  0  0  0  0  0  0  0  0  0  0  0
  162.9140  211.9740  148.5960 C   0  0  0  0  0  0  0  0  0  0  0  0
  161.5500  212.4550  148.0980 C   0  0  2  0  0  3  0  0  0  0  0  0
  161.9400  210.1160  149.9530 C   0  0  1  0  0  3  0  0  0  0  0  0
  164.1120  213.8820  147.6560 C   0  0  0  0  0  3  0  0  0  0  0  0
  160.6040  212.0970  150.5330 C   0  0  0  0  0  0  0  0  0  0  0  0
  162.8760  214.4520  147.2300 N   0  0  0  0  0  0  0  0  0  0  0  0
  161.6350  213.7490  147.3220 C   0  0  0  0  0  0  0  0  0  0  0  0
  163.0700  210.8790  149.3380 C   0  0  0  0  0  2  0  0  0  0  0  0
  161.2280  211.0020  150.8720 N   0  0  0  0  0  0  0  0  0  0  0  0
  157.3770  212.4150  147.1620 C   0  0  0  0  0  3  0  0  0  0  0  0
  158.6750  212.8660  147.4170 C   0  0  0  0  0  0  0  0  0  0  0  0
  156.7810  212.6560  145.9250 C   0  0  0  0  0  3  0  0  0  0  0  0
  164.1430  212.7110  148.2760 C   0  0  0  0  0  3  0  0  0  0  0  0
  160.4230  212.4860  149.1160 C   0  0  0  0  0  0  0  0  0  0  0  0
  157.4560  213.3470  144.9720 N   0  0  0  0  0  0  0  0  0  0  0  0
  160.9930  209.4620  148.9460 C   0  0  0  0  0  2  0  0  0  0  0  0
  161.4520  208.1210  148.6070 N   0  0  0  0  0  2  0  0  0  0  0  0
  160.9870  204.6050  149.8050 C   0  0  0  0  0  3  0  0  0  0  0  0
  161.2770  207.1670  150.8670 C   0  0  0  0  0  3  0  0  0  0  0  0
  161.2640  206.9950  149.4730 C   0  0  0  0  0  0  0  0  0  0  0  0
  161.1060  205.6990  148.9350 C   0  0  0  0  0  0  0  0  0  0  0  0
  161.1410  206.0720  151.7210 C   0  0  0  0  0  3  0  0  0  0  0  0
  161.0010  204.7890  151.1890 C   0  0  0  0  0  3  0  0  0  0  0  0
  161.6640  204.3050  146.9120 C   0  0  0  0  0  0  0  0  0  0  0  0
  161.6240  204.1070  145.5280 C   0  0  0  0  0  3  0  0  0  0  0  0
  161.0800  205.4560  147.4780 C   0  0  0  0  0  0  0  0  0  0  0  0
  162.3070  203.3960  147.6880 F   0  0  0  0  0  0  0  0  0  0  0  0
  160.4840  206.4050  146.6340 C   0  0  0  0  0  3  0  0  0  0  0  0
  160.4460  206.2030  145.2520 C   0  0  0  0  0  3  0  0  0  0  0  0
  161.0120  205.0510  144.7000 C   0  0  0  0  0  3  0  0  0  0  0  0
  1 13  2  0  0  0  0
  2 20  2  0  0  0  0
  3  5  1  0  0  0  0
  4  6  1  0  0  0  0
  6  1  1  0  0  0  0
  6 17  2  0  0  0  0
  7 14  1  0  0  0  0
  8 13  1  1  0  0  0
  8  7  1  0  0  0  0
  8 20  1  0  0  0  0
  9 22  1  6  0  0  0
  9 15  1  0  0  0  0
 10 19  1  0  0  0  0
 11 15  2  0  0  0  0
 11  3  1  0  0  0  0
 12 13  1  0  0  0  0
 12 10  2  0  0  0  0
 14  9  1  0  0  0  0
 16 17  1  0  0  0  0
 17  2  1  0  0  0  0
 18 16  2  0  0  0  0
 19  7  2  0  0  0  0
 20 11  1  0  0  0  0
 21  4  2  0  0  0  0
 21 18  1  0  0  0  0
 23 22  1  0  0  0  0
 23 26  1  0  0  0  0
 24 29  1  0  0  0  0
 25 28  1  0  0  0  0
 26 25  2  0  0  0  0
 27 26  1  0  0  0  0
 27 24  2  0  0  0  0
 29 28  2  0  0  0  0
 30 32  1  0  0  0  0
 30 33  1  0  0  0  0
 31 30  2  0  0  0  0
 32 27  1  0  0  0  0
 34 32  2  0  0  0  0
 35 34  1  0  0  0  0
 36 35  2  0  0  0  0
 36 31  1  0  0  0  0
M  END
>  <MODEL>
8

>  <REMARK>
 VINA RESULT:      -2.2      4.424      9.373
  Name = 
  4 active torsions:
  status: ('A' for Active; 'I' for Inactive)
    1  A    between atoms: C_5  and  N_14
    2  A    between atoms: C_5  and  C_19
    3  A    between atoms: C_10  and  C_26
    4  A    between atoms: N_14  and  C_16
                            x       y       z     vdW  Elec       q    Type
                         _______ _______ _______ _____ _____    ______ ____

>  <TORSDO>
F 4

$$$$
