=
 OpenBabel11072410353D

 54 59  0  0  1  0  0  0  0  0999 V2000
  161.2190  206.9080  152.5640 C   0  0  1  0  0  3  0  0  0  0  0  0
  162.7520  207.6570  149.9060 C   0  0  0  0  0  0  0  0  0  0  0  0
  161.1110  210.1510  149.1380 C   0  0  1  0  0  3  0  0  0  0  0  0
  157.5470  212.1330  154.8310 O   0  0  0  0  0  1  0  0  0  0  0  0
  160.2900  210.3630  147.8410 C   0  0  0  0  0  2  0  0  0  0  0  0
  162.4320  209.8260  148.7500 O   0  0  0  0  0  0  0  0  0  0  0  0
  158.4860  212.0990  153.8030 C   0  0  2  0  0  3  0  0  0  0  0  0
  163.0640  205.9150  151.3040 N   0  0  0  0  0  2  0  0  0  0  0  0
  161.1370  208.5840  154.4030 O   0  0  0  0  0  0  0  0  0  0  0  0
  160.1940  211.0020  156.1280 O   0  0  0  0  0  1  0  0  0  0  0  0
  160.2720  211.8290  147.4240 C   0  0  0  0  0  2  0  0  0  0  0  0
  161.1140  211.4610  149.9920 C   0  0  1  0  0  0  0  0  0  0  0  0
  163.2210  210.8670  151.1220 O   0  0  0  0  0  1  0  0  0  0  0  0
  162.6170  208.1990  151.0580 N   0  0  0  0  0  0  0  0  0  0  0  0
  160.7770  211.3550  153.4990 O   0  0  0  0  0  0  0  0  0  0  0  0
  161.5290  212.4330  147.6700 O   0  0  0  0  0  0  0  0  0  0  0  0
  163.0460  206.3290  149.9950 O   0  0  0  0  0  0  0  0  0  0  0  0
  159.4900  210.2160  155.2050 C   0  0  1  0  0  3  0  0  0  0  0  0
  158.2160  214.1940  152.4360 C   0  0  0  0  0  2  0  0  0  0  0  0
  159.0320  209.9650  152.7270 C   0  0  0  0  0  2  0  0  0  0  0  0
  161.2990  210.4960  152.5180 C   0  0  1  0  0  3  0  0  0  0  0  0
  160.3110  209.3630  152.2280 C   0  0  1  0  0  3  0  0  0  0  0  0
  161.2050  205.7850  153.6050 C   0  0  0  0  0  1  0  0  0  0  0  0
  159.4730  210.9130  153.8180 C   0  0  1  0  0  0  0  0  0  0  0  0
  160.5850  208.1730  153.1810 C   0  0  1  0  0  3  0  0  0  0  0  0
  159.0700  213.4880  153.4930 C   0  0  1  0  0  3  0  0  0  0  0  0
  161.9050  211.3010  151.3390 C   0  0  2  0  0  3  0  0  0  0  0  0
  162.5850  208.4160  148.6150 C   0  0  2  0  0  3  0  0  0  0  0  0
  158.2610  213.4330  151.1090 C   0  0  2  0  0  3  0  0  0  0  0  0
  161.6840  212.6150  149.0710 C   0  0  2  0  0  3  0  0  0  0  0  0
  159.6620  211.8540  150.3450 C   0  0  0  0  0  2  0  0  0  0  0  0
  160.0270  208.7660  155.2350 C   0  0  0  0  0  2  0  0  0  0  0  0
  159.5930  213.2090  150.7190 O   0  0  0  0  0  0  0  0  0  0  0  0
  162.6420  207.1200  152.0360 C   0  0  1  0  0  3  0  0  0  0  0  0
  157.5360  214.2350  150.0340 C   0  0  0  0  0  1  0  0  0  0  0  0
  159.2970  214.3510  154.7430 C   0  0  0  0  0  3  0  0  0  0  0  0
  158.0980  214.4520  155.4480 O   0  0  0  0  0  1  0  0  0  0  0  0
  160.2680  213.7870  155.5740 O   0  0  0  0  0  1  0  0  0  0  0  0
  161.7310  207.7340  147.5370 C   0  0  0  0  0  2  0  0  0  0  0  0
  160.9830  206.5590  148.1140 C   0  0  0  0  0  0  0  0  0  0  0  0
  161.3380  205.2380  147.7090 N   0  0  0  0  0  2  0  0  0  0  0  0
  160.0600  206.7340  148.9570 O   0  0  0  0  0  0  0  0  0  0  0  0
  161.1860  204.1720  148.5400 O   0  0  0  0  0  0  0  0  0  0  0  0
  161.5690  203.0200  147.8220 C   0  0  1  0  0  3  0  0  0  0  0  0
  161.5590  200.0970  147.6410 N   0  0  0  0  0  1  0  0  0  0  0  0
  161.3790  201.3710  149.9840 O   0  0  0  0  0  1  0  0  0  0  0  0
  160.9360  201.4630  148.5410 P   0  0  1  0  0  0  0  0  0  0  0  0
  159.2440  201.4830  148.4650 O   0  0  0  0  0  0  0  0  0  0  0  0
  162.2960  203.9880  145.5550 C   0  0  0  0  0  1  0  0  0  0  0  0
  160.5350  202.4690  145.7540 O   0  0  0  0  0  0  0  0  0  0  0  0
  161.3780  203.1260  146.3390 C   0  0  0  0  0  0  0  0  0  0  0  0
  163.0080  213.0400  149.3880 O   0  0  0  0  0  0  0  0  0  0  0  0
  164.0540  213.1510  148.4700 C   0  0  0  0  0  3  0  0  0  0  0  0
  164.4290  212.1650  147.7800 O   0  0  0  0  0  0  0  0  0  0  0  0
  1 25  1  0  0  0  0
  1 23  1  1  0  0  0
  2 17  1  0  0  0  0
  2 14  2  0  0  0  0
  3  5  1  6  0  0  0
  3 12  1  0  0  0  0
  6  3  1  0  0  0  0
  7 24  1  0  0  0  0
  7  4  1  1  0  0  0
  8 34  1  0  0  0  0
  9 32  1  0  0  0  0
 11 16  1  0  0  0  0
 11  5  1  0  0  0  0
 12 31  1  1  0  0  0
 12 27  1  0  0  0  0
 15 24  1  0  0  0  0
 16 30  1  0  0  0  0
 17  8  1  0  0  0  0
 18 32  1  0  0  0  0
 18 10  1  1  0  0  0
 19 26  1  0  0  0  0
 21 15  1  1  0  0  0
 22 21  1  0  0  0  0
 22 20  1  1  0  0  0
 22 25  1  0  0  0  0
 24 20  1  6  0  0  0
 24 18  1  0  0  0  0
 25  9  1  1  0  0  0
 26  7  1  0  0  0  0
 26 36  1  1  0  0  0
 27 13  1  6  0  0  0
 27 21  1  0  0  0  0
 28 39  1  1  0  0  0
 28  6  1  0  0  0  0
 28  2  1  0  0  0  0
 29 35  1  6  0  0  0
 29 19  1  0  0  0  0
 30 52  1  6  0  0  0
 30 12  1  0  0  0  0
 31 33  1  0  0  0  0
 33 29  1  0  0  0  0
 34 14  1  6  0  0  0
 34  1  1  0  0  0  0
 36 37  1  0  0  0  0
 36 38  1  0  0  0  0
 39 40  1  0  0  0  0
 40 42  2  0  0  0  0
 41 40  1  0  0  0  0
 41 43  1  0  0  0  0
 44 51  1  6  0  0  0
 44 43  1  0  0  0  0
 44 47  1  0  0  0  0
 47 45  1  6  0  0  0
 47 46  1  0  0  0  0
 48 47  2  0  0  0  0
 49 51  1  0  0  0  0
 50 51  2  0  0  0  0
 53 52  1  0  0  0  0
 54 53  2  0  0  0  0
M  END
>  <MODEL>
1

>  <REMARK>
 VINA RESULT:       3.7      0.000      0.000
  Name = 
  9 active torsions:
  status: ('A' for Active; 'I' for Inactive)
    1  A    between atoms: C_1  and  P_37
    2  A    between atoms: C_1  and  O_43
    3  A    between atoms: C_1  and  C_47
    4  A    between atoms: C_3  and  C_6
    5  A    between atoms: N_5  and  O_43
    6  A    between atoms: C_6  and  C_44
    7  A    between atoms: O_11  and  C_21
    8  A    between atoms: O_11  and  C_49
    9  A    between atoms: C_23  and  C_41
                            x       y       z     vdW  Elec       q    Type
                         _______ _______ _______ _____ _____    ______ ____

>  <TORSDO>
F 9

$$$$
=
 OpenBabel11072410353D

 54 59  0  0  1  0  0  0  0  0999 V2000
  161.1490  206.9270  152.5410 C   0  0  1  0  0  3  0  0  0  0  0  0
  162.7040  207.6700  149.8940 C   0  0  0  0  0  0  0  0  0  0  0  0
  161.1080  210.1960  149.1390 C   0  0  1  0  0  3  0  0  0  0  0  0
  157.5570  212.1960  154.8340 O   0  0  0  0  0  1  0  0  0  0  0  0
  160.2950  210.4330  147.8410 C   0  0  0  0  0  2  0  0  0  0  0  0
  162.4240  209.8520  148.7530 O   0  0  0  0  0  0  0  0  0  0  0  0
  158.4980  212.1540  153.8090 C   0  0  2  0  0  3  0  0  0  0  0  0
  162.9820  205.9120  151.2800 N   0  0  0  0  0  2  0  0  0  0  0  0
  161.0880  208.5900  154.3930 O   0  0  0  0  0  0  0  0  0  0  0  0
  160.1790  211.0110  156.1310 O   0  0  0  0  0  1  0  0  0  0  0  0
  160.3040  211.9020  147.4340 C   0  0  0  0  0  2  0  0  0  0  0  0
  161.1300  211.5000  150.0020 C   0  0  1  0  0  0  0  0  0  0  0  0
  163.2220  210.8630  151.1360 O   0  0  0  0  0  1  0  0  0  0  0  0
  162.5740  208.2050  151.0490 N   0  0  0  0  0  0  0  0  0  0  0  0
  160.7780  211.3740  153.5080 O   0  0  0  0  0  0  0  0  0  0  0  0
  161.5700  212.4820  147.6900 O   0  0  0  0  0  0  0  0  0  0  0  0
  162.9760  206.3360  149.9750 O   0  0  0  0  0  0  0  0  0  0  0  0
  159.4660  210.2430  155.2000 C   0  0  1  0  0  3  0  0  0  0  0  0
  158.2690  214.2630  152.4570 C   0  0  0  0  0  2  0  0  0  0  0  0
  159.0130  210.0190  152.7190 C   0  0  0  0  0  2  0  0  0  0  0  0
  161.2890  210.5140  152.5220 C   0  0  1  0  0  3  0  0  0  0  0  0
  160.2830  209.3990  152.2200 C   0  0  1  0  0  3  0  0  0  0  0  0
  161.1120  205.7970  153.5730 C   0  0  0  0  0  1  0  0  0  0  0  0
  159.4650  210.9520  153.8190 C   0  0  1  0  0  0  0  0  0  0  0  0
  160.5330  208.1980  153.1650 C   0  0  1  0  0  3  0  0  0  0  0  0
  159.1070  213.5360  153.5120 C   0  0  1  0  0  3  0  0  0  0  0  0
  161.9130  211.3170  151.3510 C   0  0  2  0  0  3  0  0  0  0  0  0
  162.5550  208.4410  148.6080 C   0  0  2  0  0  3  0  0  0  0  0  0
  158.3060  213.5120  151.1240 C   0  0  2  0  0  3  0  0  0  0  0  0
  161.7220  212.6520  149.0930 C   0  0  2  0  0  3  0  0  0  0  0  0
  159.6830  211.9150  150.3530 C   0  0  0  0  0  2  0  0  0  0  0  0
  159.9780  208.7850  155.2220 C   0  0  0  0  0  2  0  0  0  0  0  0
  159.6360  213.2680  150.7380 O   0  0  0  0  0  0  0  0  0  0  0  0
  162.5770  207.1190  152.0200 C   0  0  1  0  0  3  0  0  0  0  0  0
  157.5990  214.3330  150.0530 C   0  0  0  0  0  1  0  0  0  0  0  0
  159.3440  214.3840  154.7690 C   0  0  0  0  0  3  0  0  0  0  0  0
  158.1590  214.4520  155.5010 O   0  0  0  0  0  1  0  0  0  0  0  0
  160.3440  213.8290  155.5710 O   0  0  0  0  0  1  0  0  0  0  0  0
  161.6940  207.7810  147.5220 C   0  0  0  0  0  2  0  0  0  0  0  0
  161.0710  206.5080  148.0360 C   0  0  0  0  0  0  0  0  0  0  0  0
  161.5340  205.2540  147.5360 N   0  0  0  0  0  2  0  0  0  0  0  0
  160.1600  206.5420  148.9080 O   0  0  0  0  0  0  0  0  0  0  0  0
  161.5020  204.1280  148.2980 O   0  0  0  0  0  0  0  0  0  0  0  0
  160.6970  203.1860  147.6230 C   0  0  1  0  0  3  0  0  0  0  0  0
  160.2760  204.3540  144.9710 N   0  0  0  0  0  1  0  0  0  0  0  0
  162.5580  203.1290  145.6330 O   0  0  0  0  0  1  0  0  0  0  0  0
  161.0620  203.0520  145.8370 P   0  0  1  0  0  0  0  0  0  0  0  0
  160.4890  201.5580  145.2810 O   0  0  0  0  0  0  0  0  0  0  0  0
  161.5250  200.7770  147.9660 C   0  0  0  0  0  1  0  0  0  0  0  0
  159.7770  201.6840  149.2190 O   0  0  0  0  0  0  0  0  0  0  0  0
  160.5800  201.8640  148.3200 C   0  0  0  0  0  0  0  0  0  0  0  0
  163.0520  213.0510  149.4170 O   0  0  0  0  0  0  0  0  0  0  0  0
  164.1740  212.8210  148.6200 C   0  0  0  0  0  3  0  0  0  0  0  0
  164.0630  212.5250  147.4000 O   0  0  0  0  0  0  0  0  0  0  0  0
  1 25  1  0  0  0  0
  1 23  1  1  0  0  0
  2 17  1  0  0  0  0
  2 14  2  0  0  0  0
  3  5  1  6  0  0  0
  3 12  1  0  0  0  0
  6  3  1  0  0  0  0
  7 24  1  0  0  0  0
  7  4  1  1  0  0  0
  8 34  1  0  0  0  0
  9 32  1  0  0  0  0
 11 16  1  0  0  0  0
 11  5  1  0  0  0  0
 12 31  1  1  0  0  0
 12 27  1  0  0  0  0
 15 24  1  0  0  0  0
 16 30  1  0  0  0  0
 17  8  1  0  0  0  0
 18 32  1  0  0  0  0
 18 10  1  1  0  0  0
 19 26  1  0  0  0  0
 21 15  1  1  0  0  0
 22 21  1  0  0  0  0
 22 20  1  1  0  0  0
 22 25  1  0  0  0  0
 24 20  1  6  0  0  0
 24 18  1  0  0  0  0
 25  9  1  1  0  0  0
 26  7  1  0  0  0  0
 26 36  1  1  0  0  0
 27 13  1  6  0  0  0
 27 21  1  0  0  0  0
 28 39  1  1  0  0  0
 28  6  1  0  0  0  0
 28  2  1  0  0  0  0
 29 35  1  6  0  0  0
 29 19  1  0  0  0  0
 30 52  1  6  0  0  0
 30 12  1  0  0  0  0
 31 33  1  0  0  0  0
 33 29  1  0  0  0  0
 34 14  1  6  0  0  0
 34  1  1  0  0  0  0
 36 37  1  0  0  0  0
 36 38  1  0  0  0  0
 39 40  1  0  0  0  0
 40 42  2  0  0  0  0
 41 40  1  0  0  0  0
 41 43  1  0  0  0  0
 44 43  1  1  0  0  0
 44 51  1  0  0  0  0
 46 47  1  0  0  0  0
 47 45  1  6  0  0  0
 47 44  1  0  0  0  0
 48 47  2  0  0  0  0
 49 51  1  0  0  0  0
 51 50  2  0  0  0  0
 53 52  1  0  0  0  0
 54 53  2  0  0  0  0
M  END
>  <MODEL>
2

>  <REMARK>
 VINA RESULT:       4.4      0.992      1.426
  Name = 
  9 active torsions:
  status: ('A' for Active; 'I' for Inactive)
    1  A    between atoms: C_1  and  P_37
    2  A    between atoms: C_1  and  O_43
    3  A    between atoms: C_1  and  C_47
    4  A    between atoms: C_3  and  C_6
    5  A    between atoms: N_5  and  O_43
    6  A    between atoms: C_6  and  C_44
    7  A    between atoms: O_11  and  C_21
    8  A    between atoms: O_11  and  C_49
    9  A    between atoms: C_23  and  C_41
                            x       y       z     vdW  Elec       q    Type
                         _______ _______ _______ _____ _____    ______ ____

>  <TORSDO>
F 9

$$$$
