=
 OpenBabel11072411053D

 30 34  0  0  1  0  0  0  0  0999 V2000
  161.9210  210.3420  150.6490 O   0  0  0  0  0  0  0  0  0  0  0  0
  161.4760  209.9120  151.7480 C   0  0  0  0  0  0  0  0  0  0  0  0
  160.9820  210.8910  152.7370 C   0  0  0  0  0  0  0  0  0  0  0  0
  159.7310  212.4980  155.1370 C   0  0  1  0  0  3  0  0  0  0  0  0
  161.3660  210.7500  154.1100 N   0  0  0  0  0  2  0  0  0  0  0  0
  160.2510  211.8530  152.3790 O   0  0  0  0  0  0  0  0  0  0  0  0
  159.7270  212.9920  156.5570 C   0  0  0  0  0  3  0  0  0  0  0  0
  160.6920  212.3670  157.2170 C   0  0  0  0  0  3  0  0  0  0  0  0
  160.8700  211.5320  155.2020 C   0  0  0  0  0  0  0  0  0  0  0  0
  161.3950  211.4620  156.3760 N   0  0  0  0  0  0  0  0  0  0  0  0
  156.4240  211.2980  155.6410 C   0  0  1  0  0  3  0  0  0  0  0  0
  157.5590  212.8130  154.2140 C   0  0  0  0  0  2  0  0  0  0  0  0
  156.1780  212.3880  154.6330 C   0  0  0  0  0  2  0  0  0  0  0  0
  155.9950  210.0900  155.1230 F   0  0  0  0  0  0  0  0  0  0  0  0
  158.4810  211.8210  154.7480 N   0  0  2  0  0  0  0  0  0  0  0  0
  157.8600  211.2410  155.8760 N   0  0  0  0  0  2  0  0  0  0  0  0
  160.7790  207.8240  153.0140 C   0  0  0  0  0  3  0  0  0  0  0  0
  161.4790  208.4510  151.9850 C   0  0  0  0  0  0  0  0  0  0  0  0
  160.9390  206.4310  153.0300 C   0  0  0  0  0  3  0  0  0  0  0  0
  162.2980  207.2770  151.0940 S   0  0  0  0  0  0  0  0  0  0  0  0
  161.7530  205.9780  152.0000 C   0  0  0  0  0  0  0  0  0  0  0  0
  162.1570  204.6240  151.7750 N   0  0  0  0  0  2  0  0  0  0  0  0
  161.7010  204.4100  148.5010 C   0  0  0  0  0  3  0  0  0  0  0  0
  160.7040  202.1860  147.9550 C   0  0  0  0  0  3  0  0  0  0  0  0
  160.6380  201.7330  150.4440 N   0  0  0  0  0  2  0  0  0  0  0  0
  161.3350  203.4560  147.3440 C   0  0  0  0  0  3  0  0  0  0  0  0
  161.1430  202.4530  151.4100 O   0  0  0  0  0  0  0  0  0  0  0  0
  161.0690  203.7620  149.6660 C   0  0  0  0  0  0  0  0  0  0  0  0
  160.5700  202.5500  149.3760 C   0  0  0  0  0  0  0  0  0  0  0  0
  161.4500  203.6600  150.9860 C   0  0  0  0  0  0  0  0  0  0  0  0
  1  2  2  0  0  0  0
  2 18  1  0  0  0  0
  2  3  1  0  0  0  0
  3  5  1  0  0  0  0
  4  9  1  0  0  0  0
  4  7  1  1  0  0  0
  5  9  1  0  0  0  0
  6  3  2  0  0  0  0
  7  8  2  0  0  0  0
  9 10  2  0  0  0  0
 10  8  1  0  0  0  0
 11 14  1  6  0  0  0
 11 16  1  0  0  0  0
 12 13  1  0  0  0  0
 13 11  1  0  0  0  0
 15 12  1  1  0  0  0
 15  4  1  0  0  0  0
 15 16  1  0  0  0  0
 17 19  1  0  0  0  0
 18 17  2  0  0  0  0
 20 18  1  0  0  0  0
 20 21  1  0  0  0  0
 21 19  2  0  0  0  0
 22 21  1  0  0  0  0
 23 28  1  0  0  0  0
 24 29  2  0  0  0  0
 25 27  1  0  0  0  0
 26 24  1  0  0  0  0
 26 23  2  0  0  0  0
 28 30  2  0  0  0  0
 29 28  1  0  0  0  0
 29 25  1  0  0  0  0
 30 27  1  0  0  0  0
 30 22  1  0  0  0  0
M  END
>  <MODEL>
1

>  <REMARK>
 VINA RESULT:      -8.3      0.000      0.000
  Name = 
  5 active torsions:
  status: ('A' for Active; 'I' for Inactive)
    1  A    between atoms: C_2  and  C_28
    2  A    between atoms: C_3  and  N_25
    3  A    between atoms: C_8  and  C_28
    4  A    between atoms: C_21  and  N_22
    5  A    between atoms: N_22  and  C_30
                            x       y       z     vdW  Elec       q    Type
                         _______ _______ _______ _____ _____    ______ ____

>  <TORSDO>
F 5

$$$$
=
 OpenBabel11072411053D

 30 34  0  0  1  0  0  0  0  0999 V2000
  161.2200  206.2210  153.6700 O   0  0  0  0  0  0  0  0  0  0  0  0
  161.1330  207.1550  152.8270 C   0  0  0  0  0  0  0  0  0  0  0  0
  160.9810  208.5370  153.3250 C   0  0  0  0  0  0  0  0  0  0  0  0
  160.3210  211.2320  154.8100 C   0  0  1  0  0  3  0  0  0  0  0  0
  161.3190  208.8300  154.6860 N   0  0  0  0  0  2  0  0  0  0  0  0
  160.5800  209.4550  152.5590 O   0  0  0  0  0  0  0  0  0  0  0  0
  160.4890  212.2120  155.9380 C   0  0  0  0  0  3  0  0  0  0  0  0
  161.2210  211.6380  156.8830 C   0  0  0  0  0  3  0  0  0  0  0  0
  161.1050  210.0800  155.3510 C   0  0  0  0  0  0  0  0  0  0  0  0
  161.5970  210.3170  156.5180 N   0  0  0  0  0  0  0  0  0  0  0  0
  156.8330  211.1780  155.4890 C   0  0  1  0  0  3  0  0  0  0  0  0
  158.2890  211.8890  153.7580 C   0  0  0  0  0  2  0  0  0  0  0  0
  156.8620  211.9910  154.2220 C   0  0  0  0  0  2  0  0  0  0  0  0
  156.0650  210.0470  155.2880 F   0  0  0  0  0  0  0  0  0  0  0  0
  158.9180  210.8540  154.5660 N   0  0  2  0  0  0  0  0  0  0  0  0
  158.2040  210.7860  155.7830 N   0  0  0  0  0  2  0  0  0  0  0  0
  160.3930  205.8320  150.7900 C   0  0  0  0  0  3  0  0  0  0  0  0
  161.1840  206.8120  151.3880 C   0  0  0  0  0  0  0  0  0  0  0  0
  160.6240  205.6940  149.4140 C   0  0  0  0  0  3  0  0  0  0  0  0
  162.1690  207.5070  150.2100 S   0  0  0  0  0  0  0  0  0  0  0  0
  161.5830  206.5800  148.9430 C   0  0  0  0  0  0  0  0  0  0  0  0
  162.0840  206.6530  147.6050 N   0  0  0  0  0  2  0  0  0  0  0  0
  161.7360  203.3600  147.5320 C   0  0  0  0  0  3  0  0  0  0  0  0
  160.7040  202.6920  145.3580 C   0  0  0  0  0  3  0  0  0  0  0  0
  160.7980  205.1330  144.6940 N   0  0  0  0  0  2  0  0  0  0  0  0
  161.1120  202.1800  146.7560 C   0  0  0  0  0  3  0  0  0  0  0  0
  161.1300  206.1580  145.4330 O   0  0  0  0  0  0  0  0  0  0  0  0
  161.8660  204.3980  146.4910 C   0  0  0  0  0  0  0  0  0  0  0  0
  161.2750  204.0500  145.3370 C   0  0  0  0  0  0  0  0  0  0  0  0
  161.7370  205.7690  146.5330 C   0  0  0  0  0  0  0  0  0  0  0  0
  2  3  1  0  0  0  0
  2  1  2  0  0  0  0
  3  5  1  0  0  0  0
  4  9  1  0  0  0  0
  4  7  1  1  0  0  0
  5  9  1  0  0  0  0
  6  3  2  0  0  0  0
  7  8  2  0  0  0  0
  9 10  2  0  0  0  0
 10  8  1  0  0  0  0
 11 14  1  6  0  0  0
 11 16  1  0  0  0  0
 12 13  1  0  0  0  0
 13 11  1  0  0  0  0
 15 12  1  6  0  0  0
 15  4  1  0  0  0  0
 15 16  1  0  0  0  0
 17 18  2  0  0  0  0
 18  2  1  0  0  0  0
 19 17  1  0  0  0  0
 20 18  1  0  0  0  0
 21 19  2  0  0  0  0
 21 20  1  0  0  0  0
 22 21  1  0  0  0  0
 24 26  1  0  0  0  0
 25 29  1  0  0  0  0
 25 27  1  0  0  0  0
 26 23  2  0  0  0  0
 27 30  1  0  0  0  0
 28 30  2  0  0  0  0
 28 23  1  0  0  0  0
 29 24  2  0  0  0  0
 29 28  1  0  0  0  0
 30 22  1  0  0  0  0
M  END
>  <MODEL>
2

>  <REMARK>
 VINA RESULT:      -8.3      2.484      3.062
  Name = 
  5 active torsions:
  status: ('A' for Active; 'I' for Inactive)
    1  A    between atoms: C_2  and  C_28
    2  A    between atoms: C_3  and  N_25
    3  A    between atoms: C_8  and  C_28
    4  A    between atoms: C_21  and  N_22
    5  A    between atoms: N_22  and  C_30
                            x       y       z     vdW  Elec       q    Type
                         _______ _______ _______ _____ _____    ______ ____

>  <TORSDO>
F 5

$$$$
=
 OpenBabel11072411053D

 30 34  0  0  1  0  0  0  0  0999 V2000
  162.2910  210.3810  149.9930 O   0  0  0  0  0  0  0  0  0  0  0  0
  161.9540  209.2950  150.5390 C   0  0  0  0  0  0  0  0  0  0  0  0
  161.8580  209.2510  152.0130 C   0  0  0  0  0  0  0  0  0  0  0  0
  161.0660  209.1010  155.0550 C   0  0  1  0  0  3  0  0  0  0  0  0
  161.1890  208.1460  152.6350 N   0  0  0  0  0  2  0  0  0  0  0  0
  162.3750  210.1580  152.7180 O   0  0  0  0  0  0  0  0  0  0  0  0
  160.6280  208.3590  156.2870 C   0  0  0  0  0  3  0  0  0  0  0  0
  160.2900  207.1270  155.9330 C   0  0  0  0  0  3  0  0  0  0  0  0
  160.9000  208.0240  154.0320 C   0  0  0  0  0  0  0  0  0  0  0  0
  160.4550  206.9250  154.5360 N   0  0  0  0  0  0  0  0  0  0  0  0
  158.4860  211.4690  155.6640 C   0  0  1  0  0  3  0  0  0  0  0  0
  160.8320  211.4560  155.3220 C   0  0  0  0  0  2  0  0  0  0  0  0
  159.7050  212.3460  155.7680 C   0  0  0  0  0  2  0  0  0  0  0  0
  157.6690  211.9390  154.6530 F   0  0  0  0  0  0  0  0  0  0  0  0
  160.2210  210.2680  154.7420 N   0  0  2  0  0  0  0  0  0  0  0  0
  158.9450  210.1280  155.3300 N   0  0  0  0  0  2  0  0  0  0  0  0
  160.6330  207.2300  149.8780 C   0  0  0  0  0  3  0  0  0  0  0  0
  161.6800  208.1260  149.6730 C   0  0  0  0  0  0  0  0  0  0  0  0
  160.5810  206.2060  148.9210 C   0  0  0  0  0  3  0  0  0  0  0  0
  162.5420  207.6490  148.3050 S   0  0  0  0  0  0  0  0  0  0  0  0
  161.5810  206.3200  147.9650 C   0  0  0  0  0  0  0  0  0  0  0  0
  161.8350  205.4070  146.8930 N   0  0  0  0  0  2  0  0  0  0  0  0
  161.1970  203.3550  149.4150 C   0  0  0  0  0  3  0  0  0  0  0  0
  160.4550  201.1490  148.5100 C   0  0  0  0  0  3  0  0  0  0  0  0
  160.8770  202.0850  146.1960 N   0  0  0  0  0  2  0  0  0  0  0  0
  160.5930  201.9880  149.7980 C   0  0  0  0  0  3  0  0  0  0  0  0
  161.1850  203.3100  145.8640 O   0  0  0  0  0  0  0  0  0  0  0  0
  161.5810  203.1540  148.0040 C   0  0  0  0  0  0  0  0  0  0  0  0
  161.1460  201.9840  147.5120 C   0  0  0  0  0  0  0  0  0  0  0  0
  161.5760  203.9980  146.9160 C   0  0  0  0  0  0  0  0  0  0  0  0
  1  2  2  0  0  0  0
  2  3  1  0  0  0  0
  3  5  1  0  0  0  0
  3  6  2  0  0  0  0
  4  7  1  1  0  0  0
  5  9  1  0  0  0  0
  8  7  2  0  0  0  0
  9 10  2  0  0  0  0
  9  4  1  0  0  0  0
 10  8  1  0  0  0  0
 11 14  1  6  0  0  0
 11 13  1  0  0  0  0
 12 13  1  0  0  0  0
 15  4  1  0  0  0  0
 15 12  1  1  0  0  0
 15 16  1  0  0  0  0
 16 11  1  0  0  0  0
 18 17  2  0  0  0  0
 18  2  1  0  0  0  0
 19 17  1  0  0  0  0
 20 18  1  0  0  0  0
 21 20  1  0  0  0  0
 21 19  2  0  0  0  0
 22 30  1  0  0  0  0
 22 21  1  0  0  0  0
 23 26  2  0  0  0  0
 24 26  1  0  0  0  0
 25 29  1  0  0  0  0
 27 25  1  0  0  0  0
 27 30  1  0  0  0  0
 28 23  1  0  0  0  0
 29 28  1  0  0  0  0
 29 24  2  0  0  0  0
 30 28  2  0  0  0  0
M  END
>  <MODEL>
3

>  <REMARK>
 VINA RESULT:      -8.2      2.455      3.371
  Name = 
  5 active torsions:
  status: ('A' for Active; 'I' for Inactive)
    1  A    between atoms: C_2  and  C_28
    2  A    between atoms: C_3  and  N_25
    3  A    between atoms: C_8  and  C_28
    4  A    between atoms: C_21  and  N_22
    5  A    between atoms: N_22  and  C_30
                            x       y       z     vdW  Elec       q    Type
                         _______ _______ _______ _____ _____    ______ ____

>  <TORSDO>
F 5

$$$$
=
 OpenBabel11072411053D

 30 34  0  0  1  0  0  0  0  0999 V2000
  162.2970  210.1510  150.3560 O   0  0  0  0  0  0  0  0  0  0  0  0
  161.6430  209.1330  150.7110 C   0  0  0  0  0  0  0  0  0  0  0  0
  161.0770  209.1030  152.0750 C   0  0  0  0  0  0  0  0  0  0  0  0
  160.1340  209.5720  155.0410 C   0  0  1  0  0  3  0  0  0  0  0  0
  160.2620  210.1970  152.5160 N   0  0  0  0  0  2  0  0  0  0  0  0
  161.2860  208.1210  152.8360 O   0  0  0  0  0  0  0  0  0  0  0  0
  159.2630  210.2230  156.0790 C   0  0  0  0  0  3  0  0  0  0  0  0
  158.5770  211.1950  155.4960 C   0  0  0  0  0  3  0  0  0  0  0  0
  159.7530  210.3780  153.8410 C   0  0  0  0  0  0  0  0  0  0  0  0
  158.8850  211.2910  154.1120 N   0  0  0  0  0  0  0  0  0  0  0  0
  163.0040  210.9510  156.6200 C   0  0  1  0  0  3  0  0  0  0  0  0
  161.8930  208.8610  156.4790 C   0  0  0  0  0  2  0  0  0  0  0  0
  162.9660  209.5830  157.2470 C   0  0  0  0  0  2  0  0  0  0  0  0
  164.2020  211.1140  155.9510 F   0  0  0  0  0  0  0  0  0  0  0  0
  161.5750  209.6920  155.3260 N   0  0  2  0  0  0  0  0  0  0  0  0
  161.9050  211.0210  155.6680 N   0  0  0  0  0  2  0  0  0  0  0  0
  160.4780  207.0630  149.8120 C   0  0  0  0  0  3  0  0  0  0  0  0
  161.4850  208.0240  149.7430 C   0  0  0  0  0  0  0  0  0  0  0  0
  160.5390  206.1170  148.7790 C   0  0  0  0  0  3  0  0  0  0  0  0
  162.4520  207.7000  148.4000 S   0  0  0  0  0  0  0  0  0  0  0  0
  161.5860  206.3560  147.8990 C   0  0  0  0  0  0  0  0  0  0  0  0
  161.9530  205.5450  146.7800 N   0  0  0  0  0  2  0  0  0  0  0  0
  161.2080  203.1950  148.9920 C   0  0  0  0  0  3  0  0  0  0  0  0
  160.3570  201.1770  147.7920 C   0  0  0  0  0  3  0  0  0  0  0  0
  160.8300  202.4050  145.6300 N   0  0  0  0  0  2  0  0  0  0  0  0
  160.5340  201.8190  149.1840 C   0  0  0  0  0  3  0  0  0  0  0  0
  161.2010  203.6480  145.4710 O   0  0  0  0  0  0  0  0  0  0  0  0
  161.5840  203.1740  147.5660 C   0  0  0  0  0  0  0  0  0  0  0  0
  161.0920  202.1080  146.9170 C   0  0  0  0  0  0  0  0  0  0  0  0
  161.6240  204.1620  146.6060 C   0  0  0  0  0  0  0  0  0  0  0  0
  1  2  2  0  0  0  0
  2  3  1  0  0  0  0
  3  5  1  0  0  0  0
  3  6  2  0  0  0  0
  4 15  1  0  0  0  0
  4  7  1  1  0  0  0
  5  9  1  0  0  0  0
  8  7  2  0  0  0  0
  9 10  2  0  0  0  0
  9  4  1  0  0  0  0
 10  8  1  0  0  0  0
 11 14  1  6  0  0  0
 11 13  1  0  0  0  0
 12 13  1  0  0  0  0
 15 16  1  0  0  0  0
 15 12  1  1  0  0  0
 16 11  1  0  0  0  0
 18 17  2  0  0  0  0
 18  2  1  0  0  0  0
 19 17  1  0  0  0  0
 20 18  1  0  0  0  0
 21 20  1  0  0  0  0
 21 19  2  0  0  0  0
 22 21  1  0  0  0  0
 23 26  2  0  0  0  0
 24 26  1  0  0  0  0
 25 29  1  0  0  0  0
 27 25  1  0  0  0  0
 27 30  1  0  0  0  0
 28 23  1  0  0  0  0
 29 28  1  0  0  0  0
 29 24  2  0  0  0  0
 30 22  1  0  0  0  0
 30 28  2  0  0  0  0
M  END
>  <MODEL>
4

>  <REMARK>
 VINA RESULT:      -8.1      2.916      4.071
  Name = 
  5 active torsions:
  status: ('A' for Active; 'I' for Inactive)
    1  A    between atoms: C_2  and  C_28
    2  A    between atoms: C_3  and  N_25
    3  A    between atoms: C_8  and  C_28
    4  A    between atoms: C_21  and  N_22
    5  A    between atoms: N_22  and  C_30
                            x       y       z     vdW  Elec       q    Type
                         _______ _______ _______ _____ _____    ______ ____

>  <TORSDO>
F 5

$$$$
=
 OpenBabel11072411053D

 30 34  0  0  1  0  0  0  0  0999 V2000
  162.0040  209.1700  156.5000 O   0  0  0  0  0  0  0  0  0  0  0  0
  161.1680  209.3320  155.5700 C   0  0  0  0  0  0  0  0  0  0  0  0
  160.2590  210.4950  155.6390 C   0  0  0  0  0  0  0  0  0  0  0  0
  158.1310  212.7820  155.2550 C   0  0  1  0  0  3  0  0  0  0  0  0
  158.8500  210.2890  155.4840 N   0  0  0  0  0  2  0  0  0  0  0  0
  160.7110  211.6510  155.8540 O   0  0  0  0  0  0  0  0  0  0  0  0
  156.7230  213.3080  155.2400 C   0  0  0  0  0  3  0  0  0  0  0  0
  155.8930  212.2790  155.3420 C   0  0  0  0  0  3  0  0  0  0  0  0
  157.8590  211.3180  155.3960 C   0  0  0  0  0  0  0  0  0  0  0  0
  156.5990  211.0490  155.4350 N   0  0  0  0  0  0  0  0  0  0  0  0
  158.5910  212.9430  151.7340 C   0  0  1  0  0  3  0  0  0  0  0  0
  158.5650  214.4230  153.5860 C   0  0  0  0  0  2  0  0  0  0  0  0
  158.5550  214.4070  152.0820 C   0  0  0  0  0  2  0  0  0  0  0  0
  159.8030  212.6450  151.1390 F   0  0  0  0  0  0  0  0  0  0  0  0
  158.8770  213.0680  154.0160 N   0  0  2  0  0  0  0  0  0  0  0  0
  158.4690  212.1990  152.9800 N   0  0  0  0  0  2  0  0  0  0  0  0
  160.9450  206.9790  154.6440 C   0  0  0  0  0  3  0  0  0  0  0  0
  161.1410  208.3470  154.4670 C   0  0  0  0  0  0  0  0  0  0  0  0
  160.9600  206.2530  153.4450 C   0  0  0  0  0  3  0  0  0  0  0  0
  161.3330  208.6570  152.8200 S   0  0  0  0  0  0  0  0  0  0  0  0
  161.1520  207.0640  152.3350 C   0  0  0  0  0  0  0  0  0  0  0  0
  161.2730  206.6270  150.9780 N   0  0  0  0  0  2  0  0  0  0  0  0
  161.4420  205.3420  147.9290 C   0  0  0  0  0  3  0  0  0  0  0  0
  161.3030  202.8530  148.0780 C   0  0  0  0  0  3  0  0  0  0  0  0
  160.9830  203.1350  150.5730 N   0  0  0  0  0  2  0  0  0  0  0  0
  161.5880  204.0330  147.1240 C   0  0  0  0  0  3  0  0  0  0  0  0
  161.0710  204.2300  151.2800 O   0  0  0  0  0  0  0  0  0  0  0  0
  160.8680  204.8740  149.2050 C   0  0  0  0  0  0  0  0  0  0  0  0
  160.8330  203.5360  149.2970 C   0  0  0  0  0  0  0  0  0  0  0  0
  161.0440  205.2940  150.5060 C   0  0  0  0  0  0  0  0  0  0  0  0
  2  3  1  0  0  0  0
  2  1  2  0  0  0  0
  3  6  2  0  0  0  0
  4  7  1  6  0  0  0
  4  9  1  0  0  0  0
  5  3  1  0  0  0  0
  7  8  2  0  0  0  0
  8 10  1  0  0  0  0
  9 10  2  0  0  0  0
  9  5  1  0  0  0  0
 11 14  1  1  0  0  0
 11 13  1  0  0  0  0
 11 16  1  0  0  0  0
 13 12  1  0  0  0  0
 15 12  1  6  0  0  0
 15  4  1  0  0  0  0
 16 15  1  0  0  0  0
 18 17  2  0  0  0  0
 18  2  1  0  0  0  0
 19 17  1  0  0  0  0
 20 18  1  0  0  0  0
 21 20  1  0  0  0  0
 21 19  2  0  0  0  0
 22 21  1  0  0  0  0
 23 28  1  0  0  0  0
 24 29  2  0  0  0  0
 25 27  1  0  0  0  0
 26 23  2  0  0  0  0
 26 24  1  0  0  0  0
 28 29  1  0  0  0  0
 28 30  2  0  0  0  0
 29 25  1  0  0  0  0
 30 22  1  0  0  0  0
 30 27  1  0  0  0  0
M  END
>  <MODEL>
5

>  <REMARK>
 VINA RESULT:      -8.0      2.342      3.064
  Name = 
  5 active torsions:
  status: ('A' for Active; 'I' for Inactive)
    1  A    between atoms: C_2  and  C_28
    2  A    between atoms: C_3  and  N_25
    3  A    between atoms: C_8  and  C_28
    4  A    between atoms: C_21  and  N_22
    5  A    between atoms: N_22  and  C_30
                            x       y       z     vdW  Elec       q    Type
                         _______ _______ _______ _____ _____    ______ ____

>  <TORSDO>
F 5

$$$$
=
 OpenBabel11072411053D

 30 34  0  0  1  0  0  0  0  0999 V2000
  162.0010  210.9070  150.5290 O   0  0  0  0  0  0  0  0  0  0  0  0
  161.9060  209.7280  150.9680 C   0  0  0  0  0  0  0  0  0  0  0  0
  161.8650  209.5260  152.4310 C   0  0  0  0  0  0  0  0  0  0  0  0
  161.1870  209.0740  155.4710 C   0  0  1  0  0  3  0  0  0  0  0  0
  161.1720  208.3880  152.9580 N   0  0  0  0  0  2  0  0  0  0  0  0
  162.4500  210.3270  153.2070 O   0  0  0  0  0  0  0  0  0  0  0  0
  160.7640  208.2180  156.6330 C   0  0  0  0  0  3  0  0  0  0  0  0
  160.3560  207.0480  156.1610 C   0  0  0  0  0  3  0  0  0  0  0  0
  160.9320  208.1240  154.3440 C   0  0  0  0  0  0  0  0  0  0  0  0
  160.4570  206.9950  154.7450 N   0  0  0  0  0  0  0  0  0  0  0  0
  158.5510  211.3170  156.2770 C   0  0  1  0  0  3  0  0  0  0  0  0
  160.9210  211.3190  156.2170 C   0  0  0  0  0  2  0  0  0  0  0  0
  159.7490  212.1190  156.7120 C   0  0  0  0  0  2  0  0  0  0  0  0
  157.8610  212.0170  155.3050 F   0  0  0  0  0  0  0  0  0  0  0  0
  160.3850  210.3010  155.3240 N   0  0  2  0  0  0  0  0  0  0  0  0
  159.0480  210.0700  155.7140 N   0  0  0  0  0  2  0  0  0  0  0  0
  162.3300  208.6930  148.6880 C   0  0  0  0  0  3  0  0  0  0  0  0
  161.8460  208.6160  149.9930 C   0  0  0  0  0  0  0  0  0  0  0  0
  162.1590  207.5070  147.9600 C   0  0  0  0  0  3  0  0  0  0  0  0
  161.2060  207.0770  150.2430 S   0  0  0  0  0  0  0  0  0  0  0  0
  161.5560  206.5050  148.7090 C   0  0  0  0  0  0  0  0  0  0  0  0
  161.1920  205.2030  148.2410 N   0  0  0  0  0  2  0  0  0  0  0  0
  161.0680  201.9910  147.4390 C   0  0  0  0  0  3  0  0  0  0  0  0
  161.1970  200.6190  149.5220 C   0  0  0  0  0  3  0  0  0  0  0  0
  161.1950  202.7940  150.8170 N   0  0  0  0  0  2  0  0  0  0  0  0
  161.2320  200.5550  147.9800 C   0  0  0  0  0  3  0  0  0  0  0  0
  161.2710  204.0120  150.3510 O   0  0  0  0  0  0  0  0  0  0  0  0
  160.7240  202.7560  148.6530 C   0  0  0  0  0  0  0  0  0  0  0  0
  160.8330  202.0250  149.7730 C   0  0  0  0  0  0  0  0  0  0  0  0
  161.0340  204.0360  149.0570 C   0  0  0  0  0  0  0  0  0  0  0  0
  1  2  2  0  0  0  0
  2  3  1  0  0  0  0
  3  5  1  0  0  0  0
  3  6  2  0  0  0  0
  4  7  1  1  0  0  0
  5  9  1  0  0  0  0
  8  7  2  0  0  0  0
  9 10  2  0  0  0  0
  9  4  1  0  0  0  0
 10  8  1  0  0  0  0
 11 14  1  6  0  0  0
 11 13  1  0  0  0  0
 12 13  1  0  0  0  0
 15  4  1  0  0  0  0
 15 16  1  0  0  0  0
 15 12  1  1  0  0  0
 16 11  1  0  0  0  0
 17 18  2  0  0  0  0
 18 20  1  0  0  0  0
 18  2  1  0  0  0  0
 19 17  1  0  0  0  0
 19 21  2  0  0  0  0
 21 20  1  0  0  0  0
 22 21  1  0  0  0  0
 22 30  1  0  0  0  0
 23 26  2  0  0  0  0
 23 28  1  0  0  0  0
 24 29  2  0  0  0  0
 26 24  1  0  0  0  0
 27 25  1  0  0  0  0
 28 30  2  0  0  0  0
 28 29  1  0  0  0  0
 29 25  1  0  0  0  0
 30 27  1  0  0  0  0
M  END
>  <MODEL>
6

>  <REMARK>
 VINA RESULT:      -7.9      2.172      3.121
  Name = 
  5 active torsions:
  status: ('A' for Active; 'I' for Inactive)
    1  A    between atoms: C_2  and  C_28
    2  A    between atoms: C_3  and  N_25
    3  A    between atoms: C_8  and  C_28
    4  A    between atoms: C_21  and  N_22
    5  A    between atoms: N_22  and  C_30
                            x       y       z     vdW  Elec       q    Type
                         _______ _______ _______ _____ _____    ______ ____

>  <TORSDO>
F 5

$$$$
=
 OpenBabel11072411053D

 30 34  0  0  1  0  0  0  0  0999 V2000
  162.7060  208.2280  151.2450 O   0  0  0  0  0  0  0  0  0  0  0  0
  161.7440  207.5430  151.6890 C   0  0  0  0  0  0  0  0  0  0  0  0
  161.2060  206.4580  150.8430 C   0  0  0  0  0  0  0  0  0  0  0  0
  160.6280  203.9630  149.0130 C   0  0  1  0  0  3  0  0  0  0  0  0
  161.4770  205.0960  151.1990 N   0  0  0  0  0  2  0  0  0  0  0  0
  160.5000  206.7210  149.8340 O   0  0  0  0  0  0  0  0  0  0  0  0
  160.4560  202.4880  148.7800 C   0  0  0  0  0  3  0  0  0  0  0  0
  160.8330  201.8470  149.8780 C   0  0  0  0  0  3  0  0  0  0  0  0
  161.1420  203.9450  150.4170 C   0  0  0  0  0  0  0  0  0  0  0  0
  161.2600  202.7510  150.8870 N   0  0  0  0  0  0  0  0  0  0  0  0
  162.4130  204.3280  145.9620 C   0  0  1  0  0  3  0  0  0  0  0  0
  160.9050  205.5840  147.2910 C   0  0  0  0  0  2  0  0  0  0  0  0
  161.5480  205.5600  145.9320 C   0  0  0  0  0  2  0  0  0  0  0  0
  163.7440  204.7030  145.9310 F   0  0  0  0  0  0  0  0  0  0  0  0
  161.5990  204.5920  148.0990 N   0  0  2  0  0  0  0  0  0  0  0  0
  162.1360  203.6340  147.2110 N   0  0  0  0  0  2  0  0  0  0  0  0
  160.9260  206.9200  154.0110 C   0  0  0  0  0  3  0  0  0  0  0  0
  161.2060  207.8690  153.0290 C   0  0  0  0  0  0  0  0  0  0  0  0
  160.4260  207.4770  155.1960 C   0  0  0  0  0  3  0  0  0  0  0  0
  160.8330  209.3990  153.6310 S   0  0  0  0  0  0  0  0  0  0  0  0
  160.3340  208.8610  155.1370 C   0  0  0  0  0  0  0  0  0  0  0  0
  159.8110  209.7190  156.1560 N   0  0  0  0  0  2  0  0  0  0  0  0
  156.8900  211.0780  155.3860 C   0  0  0  0  0  3  0  0  0  0  0  0
  157.0260  213.5510  155.7030 C   0  0  0  0  0  3  0  0  0  0  0  0
  159.4680  213.2260  156.2870 N   0  0  0  0  0  2  0  0  0  0  0  0
  156.0600  212.3790  155.4280 C   0  0  0  0  0  3  0  0  0  0  0  0
  160.1150  212.1050  156.4580 O   0  0  0  0  0  0  0  0  0  0  0  0
  158.2780  211.5790  155.4050 C   0  0  0  0  0  0  0  0  0  0  0  0
  158.3470  212.9030  155.6160 C   0  0  0  0  0  0  0  0  0  0  0  0
  159.4290  211.0880  155.9810 C   0  0  0  0  0  0  0  0  0  0  0  0
  1  2  2  0  0  0  0
  2 18  1  0  0  0  0
  3  5  1  0  0  0  0
  3  2  1  0  0  0  0
  4  7  1  6  0  0  0
  4  9  1  0  0  0  0
  6  3  2  0  0  0  0
  7  8  2  0  0  0  0
  8 10  1  0  0  0  0
  9 10  2  0  0  0  0
  9  5  1  0  0  0  0
 11 14  1  1  0  0  0
 11 16  1  0  0  0  0
 13 11  1  0  0  0  0
 13 12  1  0  0  0  0
 15 12  1  6  0  0  0
 15  4  1  0  0  0  0
 16 15  1  0  0  0  0
 17 19  1  0  0  0  0
 18 20  1  0  0  0  0
 18 17  2  0  0  0  0
 20 21  1  0  0  0  0
 21 19  2  0  0  0  0
 21 22  1  0  0  0  0
 23 28  1  0  0  0  0
 23 26  2  0  0  0  0
 25 27  1  0  0  0  0
 26 24  1  0  0  0  0
 28 29  1  0  0  0  0
 28 30  2  0  0  0  0
 29 24  2  0  0  0  0
 29 25  1  0  0  0  0
 30 22  1  0  0  0  0
 30 27  1  0  0  0  0
M  END
>  <MODEL>
7

>  <REMARK>
 VINA RESULT:      -7.9      3.223      9.697
  Name = 
  5 active torsions:
  status: ('A' for Active; 'I' for Inactive)
    1  A    between atoms: C_2  and  C_28
    2  A    between atoms: C_3  and  N_25
    3  A    between atoms: C_8  and  C_28
    4  A    between atoms: C_21  and  N_22
    5  A    between atoms: N_22  and  C_30
                            x       y       z     vdW  Elec       q    Type
                         _______ _______ _______ _____ _____    ______ ____

>  <TORSDO>
F 5

$$$$
=
 OpenBabel11072411053D

 30 34  0  0  1  0  0  0  0  0999 V2000
  162.1920  206.1970  153.2440 O   0  0  0  0  0  0  0  0  0  0  0  0
  161.6340  206.6600  152.2120 C   0  0  0  0  0  0  0  0  0  0  0  0
  161.1270  205.7080  151.2020 C   0  0  0  0  0  0  0  0  0  0  0  0
  160.6160  203.5050  149.0130 C   0  0  1  0  0  3  0  0  0  0  0  0
  161.3980  204.3100  151.3630 N   0  0  0  0  0  2  0  0  0  0  0  0
  160.4450  206.1130  150.2230 O   0  0  0  0  0  0  0  0  0  0  0  0
  160.4610  202.0790  148.5620 C   0  0  0  0  0  3  0  0  0  0  0  0
  160.8130  201.2860  149.5650 C   0  0  0  0  0  3  0  0  0  0  0  0
  161.0920  203.2840  150.4130 C   0  0  0  0  0  0  0  0  0  0  0  0
  161.2060  202.0350  150.7070 N   0  0  0  0  0  0  0  0  0  0  0  0
  162.4520  204.3420  146.0870 C   0  0  1  0  0  3  0  0  0  0  0  0
  160.9330  205.3810  147.5810 C   0  0  0  0  0  2  0  0  0  0  0  0
  161.5980  205.5710  146.2460 C   0  0  0  0  0  2  0  0  0  0  0  0
  163.7860  204.7030  146.1370 F   0  0  0  0  0  0  0  0  0  0  0  0
  161.6060  204.2630  148.2270 N   0  0  2  0  0  0  0  0  0  0  0  0
  162.1490  203.4570  147.2030 N   0  0  0  0  0  2  0  0  0  0  0  0
  162.3150  208.8930  151.2140 C   0  0  0  0  0  3  0  0  0  0  0  0
  161.5230  208.1280  152.0690 C   0  0  0  0  0  0  0  0  0  0  0  0
  162.0190  210.2630  151.2560 C   0  0  0  0  0  3  0  0  0  0  0  0
  160.4560  209.1520  152.8780 S   0  0  0  0  0  0  0  0  0  0  0  0
  160.9850  210.5570  152.1340 C   0  0  0  0  0  0  0  0  0  0  0  0
  160.4860  211.8610  152.4470 N   0  0  0  0  0  2  0  0  0  0  0  0
  160.8310  213.0760  149.3850 C   0  0  0  0  0  3  0  0  0  0  0  0
  158.6240  213.9300  148.5870 C   0  0  0  0  0  3  0  0  0  0  0  0
  157.7000  213.3370  150.8680 N   0  0  0  0  0  2  0  0  0  0  0  0
  160.0700  213.6080  148.1520 C   0  0  0  0  0  3  0  0  0  0  0  0
  158.2930  212.6930  151.8370 O   0  0  0  0  0  0  0  0  0  0  0  0
  159.8820  213.3310  150.4850 C   0  0  0  0  0  0  0  0  0  0  0  0
  158.6850  213.7520  150.0490 C   0  0  0  0  0  0  0  0  0  0  0  0
  159.5920  212.6310  151.6360 C   0  0  0  0  0  0  0  0  0  0  0  0
  2  1  2  0  0  0  0
  3  5  1  0  0  0  0
  3  2  1  0  0  0  0
  4  7  1  6  0  0  0
  4  9  1  0  0  0  0
  6  3  2  0  0  0  0
  7  8  2  0  0  0  0
  8 10  1  0  0  0  0
  9 10  2  0  0  0  0
  9  5  1  0  0  0  0
 11 14  1  1  0  0  0
 11 13  1  0  0  0  0
 11 16  1  0  0  0  0
 13 12  1  0  0  0  0
 15 12  1  6  0  0  0
 15  4  1  0  0  0  0
 16 15  1  0  0  0  0
 17 19  1  0  0  0  0
 17 18  2  0  0  0  0
 18  2  1  0  0  0  0
 18 20  1  0  0  0  0
 19 21  2  0  0  0  0
 21 22  1  0  0  0  0
 21 20  1  0  0  0  0
 23 28  1  0  0  0  0
 24 29  2  0  0  0  0
 25 27  1  0  0  0  0
 26 24  1  0  0  0  0
 26 23  2  0  0  0  0
 28 30  2  0  0  0  0
 29 28  1  0  0  0  0
 29 25  1  0  0  0  0
 30 27  1  0  0  0  0
 30 22  1  0  0  0  0
M  END
>  <MODEL>
8

>  <REMARK>
 VINA RESULT:      -7.9      3.741      9.514
  Name = 
  5 active torsions:
  status: ('A' for Active; 'I' for Inactive)
    1  A    between atoms: C_2  and  C_28
    2  A    between atoms: C_3  and  N_25
    3  A    between atoms: C_8  and  C_28
    4  A    between atoms: C_21  and  N_22
    5  A    between atoms: N_22  and  C_30
                            x       y       z     vdW  Elec       q    Type
                         _______ _______ _______ _____ _____    ______ ____

>  <TORSDO>
F 5

$$$$
=
 OpenBabel11072411053D

 30 34  0  0  1  0  0  0  0  0999 V2000
  161.9860  209.4320  149.1180 O   0  0  0  0  0  0  0  0  0  0  0  0
  161.8940  208.2100  149.4180 C   0  0  0  0  0  0  0  0  0  0  0  0
  162.0900  207.2090  148.3490 C   0  0  0  0  0  0  0  0  0  0  0  0
  161.9990  204.8390  146.2800 C   0  0  1  0  0  3  0  0  0  0  0  0
  161.0350  206.9810  147.4060 N   0  0  0  0  0  2  0  0  0  0  0  0
  163.1760  206.5780  148.2510 O   0  0  0  0  0  0  0  0  0  0  0  0
  161.4630  204.1580  145.0520 C   0  0  0  0  0  3  0  0  0  0  0  0
  160.3920  204.8220  144.6410 C   0  0  0  0  0  3  0  0  0  0  0  0
  161.0190  205.9620  146.4010 C   0  0  0  0  0  0  0  0  0  0  0  0
  160.1170  205.9360  145.4800 N   0  0  0  0  0  0  0  0  0  0  0  0
  160.4910  203.2280  149.0660 C   0  0  1  0  0  3  0  0  0  0  0  0
  161.6390  202.6270  147.0810 C   0  0  0  0  0  2  0  0  0  0  0  0
  160.8130  202.0440  148.1940 C   0  0  0  0  0  2  0  0  0  0  0  0
  161.1430  203.0960  150.2770 F   0  0  0  0  0  0  0  0  0  0  0  0
  161.9800  203.9850  147.4800 N   0  0  2  0  0  0  0  0  0  0  0  0
  160.9810  204.4160  148.3800 N   0  0  0  0  0  2  0  0  0  0  0  0
  161.6230  206.5490  151.3190 C   0  0  0  0  0  3  0  0  0  0  0  0
  161.5910  207.8500  150.8210 C   0  0  0  0  0  0  0  0  0  0  0  0
  161.2990  206.4650  152.6800 C   0  0  0  0  0  3  0  0  0  0  0  0
  161.1610  208.8980  152.0700 S   0  0  0  0  0  0  0  0  0  0  0  0
  161.0320  207.7070  153.2410 C   0  0  0  0  0  0  0  0  0  0  0  0
  160.6170  207.9550  154.5880 N   0  0  0  0  0  2  0  0  0  0  0  0
  159.9280  211.1340  155.2170 C   0  0  0  0  0  3  0  0  0  0  0  0
  161.2050  211.8670  157.2330 C   0  0  0  0  0  3  0  0  0  0  0  0
  162.2600  209.5660  157.2610 N   0  0  0  0  0  2  0  0  0  0  0  0
  160.0950  212.2760  156.2420 C   0  0  0  0  0  3  0  0  0  0  0  0
  161.9610  208.5320  156.5210 O   0  0  0  0  0  0  0  0  0  0  0  0
  161.0750  210.2560  155.5210 C   0  0  0  0  0  0  0  0  0  0  0  0
  161.7340  210.6320  156.6280 C   0  0  0  0  0  0  0  0  0  0  0  0
  161.2230  208.8870  155.4910 C   0  0  0  0  0  0  0  0  0  0  0  0
  1  2  2  0  0  0  0
  2 18  1  0  0  0  0
  3  2  1  0  0  0  0
  4  7  1  6  0  0  0
  4  9  1  0  0  0  0
  4 15  1  0  0  0  0
  5  3  1  0  0  0  0
  6  3  2  0  0  0  0
  8  7  2  0  0  0  0
  8 10  1  0  0  0  0
  9  5  1  0  0  0  0
 10  9  2  0  0  0  0
 11 14  1  1  0  0  0
 12 13  1  0  0  0  0
 13 11  1  0  0  0  0
 15 12  1  6  0  0  0
 15 16  1  0  0  0  0
 16 11  1  0  0  0  0
 17 19  1  0  0  0  0
 18 17  2  0  0  0  0
 18 20  1  0  0  0  0
 19 21  2  0  0  0  0
 20 21  1  0  0  0  0
 21 22  1  0  0  0  0
 22 30  1  0  0  0  0
 23 28  1  0  0  0  0
 23 26  2  0  0  0  0
 26 24  1  0  0  0  0
 27 25  1  0  0  0  0
 28 29  1  0  0  0  0
 29 24  2  0  0  0  0
 29 25  1  0  0  0  0
 30 28  2  0  0  0  0
 30 27  1  0  0  0  0
M  END
>  <MODEL>
9

>  <REMARK>
 VINA RESULT:      -7.9      3.315      9.453
  Name = 
  5 active torsions:
  status: ('A' for Active; 'I' for Inactive)
    1  A    between atoms: C_2  and  C_28
    2  A    between atoms: C_3  and  N_25
    3  A    between atoms: C_8  and  C_28
    4  A    between atoms: C_21  and  N_22
    5  A    between atoms: N_22  and  C_30
                            x       y       z     vdW  Elec       q    Type
                         _______ _______ _______ _____ _____    ______ ____

>  <TORSDO>
F 5

$$$$
