=
 OpenBabel11072413393D

 59 62  0  0  1  0  0  0  0  0999 V2000
  162.4710  207.5250  148.4470 C   0  0  2  0  0  3  0  0  0  0  0  0
  162.1390  211.1140  148.3650 C   0  0  0  0  0  3  0  0  0  0  0  0
  161.7960  209.8550  148.4590 C   0  0  0  0  0  0  0  0  0  0  0  0
  161.4420  208.6030  148.5480 C   0  0  0  0  0  3  0  0  0  0  0  0
  161.4540  212.0120  147.5410 O   0  0  0  0  0  0  0  0  0  0  0  0
  161.2290  213.3710  147.8990 C   0  0  2  0  0  3  0  0  0  0  0  0
  159.8520  213.5180  148.3570 N   0  0  0  0  0  2  0  0  0  0  0  0
  160.3960  213.9530  150.5900 O   0  0  0  0  0  0  0  0  0  0  0  0
  159.5020  213.8350  149.7060 C   0  0  0  0  0  0  0  0  0  0  0  0
  157.1360  213.3220  149.1290 C   0  0  0  0  0  1  0  0  0  0  0  0
  158.0710  214.1080  150.0320 C   0  0  1  0  0  3  0  0  0  0  0  0
  157.8010  213.7760  151.4910 C   0  0  0  0  0  2  0  0  0  0  0  0
  158.4070  212.4300  151.8600 C   0  0  0  0  0  2  0  0  0  0  0  0
  158.1680  212.0880  153.3250 C   0  0  0  0  0  2  0  0  0  0  0  0
  156.5840  213.2480  154.8700 C   0  0  0  0  0  1  0  0  0  0  0  0
  157.9180  213.3400  154.1500 C   0  0  0  0  0  2  0  0  0  0  0  0
  161.2670  213.4970  145.3980 C   0  0  2  0  0  3  0  0  0  0  0  0
  161.4650  214.2720  146.6930 C   0  0  2  0  0  3  0  0  0  0  0  0
  162.6630  213.7610  145.9220 C   0  0  0  0  0  2  0  0  0  0  0  0
  160.9850  214.3960  144.3660 O   0  0  0  0  0  0  0  0  0  0  0  0
  160.0550  213.7480  143.5450 C   0  0  0  0  0  2  0  0  0  0  0  0
  160.2940  214.1200  142.0900 C   0  0  2  0  0  3  0  0  0  0  0  0
  161.8730  213.5550  140.1340 C   0  0  0  0  0  2  0  0  0  0  0  0
  159.8240  213.0630  141.2150 N   0  0  0  0  0  0  0  0  0  0  0  0
  160.2310  211.8090  139.2580 N   0  0  0  0  0  2  0  0  0  0  0  0
  160.5920  212.8090  140.2130 C   0  0  0  0  0  0  0  0  0  0  0  0
  162.0700  214.3630  141.7510 S   0  0  0  0  0  0  0  0  0  0  0  0
  161.9990  210.4870  138.6620 C   0  0  0  0  0  1  0  0  0  0  0  0
  161.0690  211.4920  138.1820 N   0  0  0  0  0  2  0  0  0  0  0  0
  162.1330  206.6100  147.3170 C   0  0  0  0  0  0  0  0  0  0  0  0
  163.0340  205.2540  147.0980 S   0  0  0  0  0  0  0  0  0  0  0  0
  160.5380  206.0390  145.5030 C   0  0  0  0  0  1  0  0  0  0  0  0
  161.0820  206.9430  146.4560 O   0  0  0  0  0  0  0  0  0  0  0  0
  162.5290  206.7820  149.6590 O   0  0  0  0  0  0  0  0  0  0  0  0
  161.4370  206.6560  150.5230 C   0  0  0  0  0  0  0  0  0  0  0  0
  160.7960  207.6780  150.8970 O   0  0  0  0  0  0  0  0  0  0  0  0
  161.0240  205.3120  151.0340 C   0  0  2  0  0  3  0  0  0  0  0  0
  161.3790  205.1440  152.5030 C   0  0  0  0  0  2  0  0  0  0  0  0
  160.4680  206.0110  153.3560 C   0  0  0  0  0  2  0  0  0  0  0  0
  159.4340  211.0900  156.9800 C   0  0  0  0  0  2  0  0  0  0  0  0
  161.2540  206.7660  154.4230 C   0  0  2  0  0  3  0  0  0  0  0  0
  159.2630  209.9130  156.0370 C   0  0  0  0  0  2  0  0  0  0  0  0
  160.2180  213.1930  156.3000 O   0  0  0  0  0  0  0  0  0  0  0  0
  159.6950  207.6210  156.2160 C   0  0  0  0  0  2  0  0  0  0  0  0
  162.4850  210.9510  157.2500 O   0  0  0  0  0  1  0  0  0  0  0  0
  161.8680  211.5230  156.1340 C   0  0  2  0  0  3  0  0  0  0  0  0
  160.4910  212.0180  156.4740 C   0  0  0  0  0  0  0  0  0  0  0  0
  161.8250  210.5530  154.9510 C   0  0  0  0  0  2  0  0  0  0  0  0
  161.4580  209.1050  155.3180 C   0  0  2  0  0  3  0  0  0  0  0  0
  160.6810  206.5200  155.8290 C   0  0  0  0  0  2  0  0  0  0  0  0
  161.2950  208.2530  154.0590 C   0  0  0  0  0  2  0  0  0  0  0  0
  160.3300  208.9450  156.2790 N   0  0  1  0  0  0  0  0  0  0  0  0
  161.5590  204.1620  150.1860 C   0  0  0  0  0  2  0  0  0  0  0  0
  161.0730  202.9310  150.6400 O   0  0  0  0  0  0  0  0  0  0  0  0
  160.4790  203.1780  147.9360 O   0  0  0  0  0  0  0  0  0  0  0  0
  160.5750  202.1070  149.2430 P   0  0  2  0  0  0  0  0  0  0  0  0
  159.2110  201.5000  149.4810 O   0  0  0  0  0  1  0  0  0  0  0  0
  161.3440  200.0960  147.6490 N   0  0  0  0  0  1  0  0  0  0  0  0
  161.7610  200.7890  148.8550 C   0  0  0  0  0  2  0  0  0  0  0  0
  1  4  1  1  0  0  0
  1 34  1  0  0  0  0
  2  3  2  0  0  0  0
  3  4  2  0  0  0  0
  5  2  1  0  0  0  0
  6  5  1  6  0  0  0
  6  7  1  0  0  0  0
  7  9  1  0  0  0  0
  9 11  1  0  0  0  0
  9  8  2  0  0  0  0
 11 10  1  6  0  0  0
 11 12  1  0  0  0  0
 12 13  1  0  0  0  0
 13 14  1  0  0  0  0
 14 16  1  0  0  0  0
 16 15  1  0  0  0  0
 17 20  1  6  0  0  0
 17 19  1  0  0  0  0
 17 18  1  0  0  0  0
 18  6  1  1  0  0  0
 19 18  1  0  0  0  0
 21 20  1  0  0  0  0
 22 21  1  1  0  0  0
 23 26  1  0  0  0  0
 23 27  1  0  0  0  0
 24 22  1  0  0  0  0
 25 26  1  0  0  0  0
 26 24  2  0  0  0  0
 27 22  1  0  0  0  0
 29 28  1  0  0  0  0
 29 25  1  0  0  0  0
 30  1  1  0  0  0  0
 31 30  2  0  0  0  0
 32 33  1  0  0  0  0
 33 30  1  0  0  0  0
 34 35  1  0  0  0  0
 35 36  2  0  0  0  0
 35 37  1  0  0  0  0
 37 53  1  6  0  0  0
 37 38  1  0  0  0  0
 38 39  1  0  0  0  0
 41 39  1  6  0  0  0
 41 50  1  0  0  0  0
 42 40  1  0  0  0  0
 43 47  2  0  0  0  0
 44 52  1  0  0  0  0
 46 47  1  0  0  0  0
 46 45  1  1  0  0  0
 47 40  1  0  0  0  0
 48 49  1  0  0  0  0
 48 46  1  0  0  0  0
 49 51  1  6  0  0  0
 49 52  1  0  0  0  0
 50 44  1  0  0  0  0
 51 41  1  0  0  0  0
 52 42  1  6  0  0  0
 53 54  1  0  0  0  0
 56 55  2  6  0  0  0
 56 57  1  0  0  0  0
 56 54  1  0  0  0  0
 58 59  1  0  0  0  0
 59 56  1  0  0  0  0
M  END
>  <MODEL>
1

>  <REMARK>
 VINA RESULT:      -5.3      0.000      0.000
  Name = 
  26 active torsions:
  status: ('A' for Active; 'I' for Inactive)
    1  A    between atoms: C_2  and  O_20
    2  A    between atoms: C_2  and  C_24
    3  A    between atoms: C_4  and  O_6
    4  A    between atoms: O_6  and  C_44
    5  A    between atoms: C_9  and  C_48
    6  A    between atoms: C_10  and  C_40
    7  A    between atoms: C_10  and  O_41
    8  A    between atoms: C_12  and  C_59
    9  A    between atoms: C_15  and  C_30
   10  A    between atoms: C_15  and  C_51
   11  A    between atoms: O_18  and  C_19
   12  A    between atoms: O_18  and  C_40
   13  A    between atoms: C_19  and  C_24
   14  A    between atoms: O_20  and  P_53
   15  A    between atoms: C_21  and  O_31
   16  A    between atoms: C_23  and  C_44
   17  A    between atoms: C_24  and  C_56
   18  A    between atoms: C_30  and  C_46
   19  A    between atoms: O_31  and  C_59
   20  A    between atoms: N_32  and  N_39
   21  A    between atoms: N_34  and  C_59
   22  A    between atoms: C_37  and  C_46
   23  A    between atoms: C_37  and  C_57
   24  A    between atoms: C_40  and  C_47
   25  A    between atoms: C_48  and  C_56
   26  A    between atoms: P_53  and  C_54
                            x       y       z     vdW  Elec       q    Type
                         _______ _______ _______ _____ _____    ______ ____

>  <TORSDO>
F 26

$$$$
=
 OpenBabel11072413393D

 59 62  0  0  1  0  0  0  0  0999 V2000
  162.4410  207.5190  148.5160 C   0  0  2  0  0  3  0  0  0  0  0  0
  161.9560  211.0920  148.5200 C   0  0  0  0  0  3  0  0  0  0  0  0
  161.6620  209.8170  148.5260 C   0  0  0  0  0  0  0  0  0  0  0  0
  161.3590  208.5490  148.5260 C   0  0  0  0  0  3  0  0  0  0  0  0
  161.3360  211.9930  147.6490 O   0  0  0  0  0  0  0  0  0  0  0  0
  161.1560  213.3700  147.9620 C   0  0  2  0  0  3  0  0  0  0  0  0
  159.7270  213.6490  148.0590 N   0  0  0  0  0  2  0  0  0  0  0  0
  159.5010  214.4530  145.8740 O   0  0  0  0  0  0  0  0  0  0  0  0
  158.9520  214.1640  146.9730 C   0  0  0  0  0  0  0  0  0  0  0  0
  156.7400  213.7950  145.8930 C   0  0  0  0  0  1  0  0  0  0  0  0
  157.4720  214.2740  147.1350 C   0  0  1  0  0  3  0  0  0  0  0  0
  157.0250  213.4820  148.3520 C   0  0  0  0  0  2  0  0  0  0  0  0
  156.6630  214.4140  149.5000 C   0  0  0  0  0  2  0  0  0  0  0  0
  156.7420  213.7040  150.8460 C   0  0  0  0  0  2  0  0  0  0  0  0
  159.0810  213.9770  151.6770 C   0  0  0  0  0  1  0  0  0  0  0  0
  157.6450  214.4530  151.8130 C   0  0  0  0  0  2  0  0  0  0  0  0
  162.6860  213.4080  145.9810 C   0  0  2  0  0  3  0  0  0  0  0  0
  161.7720  214.2360  146.8720 C   0  0  2  0  0  3  0  0  0  0  0  0
  163.2720  214.2840  147.0690 C   0  0  0  0  0  2  0  0  0  0  0  0
  162.8270  214.0500  144.7470 O   0  0  0  0  0  0  0  0  0  0  0  0
  161.6940  213.6960  144.0060 C   0  0  0  0  0  2  0  0  0  0  0  0
  162.0300  212.5700  143.0420 C   0  0  2  0  0  3  0  0  0  0  0  0
  161.2900  211.6260  140.7610 C   0  0  0  0  0  2  0  0  0  0  0  0
  162.7670  213.0830  141.9030 N   0  0  0  0  0  0  0  0  0  0  0  0
  163.0960  212.9790  139.5690 N   0  0  0  0  0  2  0  0  0  0  0  0
  162.4270  212.5800  140.7670 C   0  0  0  0  0  0  0  0  0  0  0  0
  160.5190  211.7730  142.4020 S   0  0  0  0  0  0  0  0  0  0  0  0
  162.8190  211.0270  138.4100 C   0  0  0  0  0  1  0  0  0  0  0  0
  162.7170  212.4720  138.3200 N   0  0  0  0  0  2  0  0  0  0  0  0
  162.0350  206.3680  147.6580 C   0  0  0  0  0  0  0  0  0  0  0  0
  160.5720  205.6650  147.9130 S   0  0  0  0  0  0  0  0  0  0  0  0
  162.6010  204.8350  145.7900 C   0  0  0  0  0  1  0  0  0  0  0  0
  162.9200  205.8960  146.6810 O   0  0  0  0  0  0  0  0  0  0  0  0
  162.6990  207.0600  149.8380 O   0  0  0  0  0  0  0  0  0  0  0  0
  161.7600  207.1580  150.8700 C   0  0  0  0  0  0  0  0  0  0  0  0
  161.0450  208.1930  150.9890 O   0  0  0  0  0  0  0  0  0  0  0  0
  161.6020  206.0470  151.8600 C   0  0  2  0  0  3  0  0  0  0  0  0
  162.0780  206.4660  153.2420 C   0  0  0  0  0  2  0  0  0  0  0  0
  160.8920  206.9070  154.0850 C   0  0  0  0  0  2  0  0  0  0  0  0
  157.7270  211.8620  156.4120 C   0  0  0  0  0  2  0  0  0  0  0  0
  161.2410  208.1120  154.9520 C   0  0  2  0  0  3  0  0  0  0  0  0
  158.0910  210.5360  155.7700 C   0  0  0  0  0  2  0  0  0  0  0  0
  157.7460  213.9080  155.2660 O   0  0  0  0  0  0  0  0  0  0  0  0
  159.3130  208.6740  156.4840 C   0  0  0  0  0  2  0  0  0  0  0  0
  160.5760  212.9500  156.7320 O   0  0  0  0  0  1  0  0  0  0  0  0
  159.9020  212.9930  155.5090 C   0  0  2  0  0  3  0  0  0  0  0  0
  158.4130  212.9900  155.7120 C   0  0  0  0  0  0  0  0  0  0  0  0
  160.3300  211.8520  154.5850 C   0  0  0  0  0  2  0  0  0  0  0  0
  160.4870  210.4860  155.2770 C   0  0  2  0  0  3  0  0  0  0  0  0
  160.6670  207.9740  156.3720 C   0  0  0  0  0  2  0  0  0  0  0  0
  160.7680  209.3890  154.2510 C   0  0  0  0  0  2  0  0  0  0  0  0
  159.4090  210.1200  156.2400 N   0  0  1  0  0  0  0  0  0  0  0  0
  162.2540  204.7460  151.4060 C   0  0  0  0  0  2  0  0  0  0  0  0
  161.4410  204.0660  150.4920 O   0  0  0  0  0  0  0  0  0  0  0  0
  159.9370  202.7350  152.4130 O   0  0  0  0  0  1  0  0  0  0  0  0
  161.1190  202.5640  151.2130 P   0  0  2  0  0  0  0  0  0  0  0  0
  162.3860  202.0330  151.8440 O   0  0  0  0  0  0  0  0  0  0  0  0
  160.2720  202.1010  148.7150 N   0  0  0  0  0  1  0  0  0  0  0  0
  160.5350  201.3940  149.9550 C   0  0  0  0  0  2  0  0  0  0  0  0
  1  4  1  1  0  0  0
  1 34  1  0  0  0  0
  2  3  2  0  0  0  0
  4  3  2  0  0  0  0
  5  2  1  0  0  0  0
  6  5  1  6  0  0  0
  6  7  1  0  0  0  0
  8  9  2  0  0  0  0
  9 11  1  0  0  0  0
  9  7  1  0  0  0  0
 11 10  1  6  0  0  0
 11 12  1  0  0  0  0
 12 13  1  0  0  0  0
 13 14  1  0  0  0  0
 14 16  1  0  0  0  0
 15 16  1  0  0  0  0
 17 20  1  6  0  0  0
 17 18  1  0  0  0  0
 17 19  1  0  0  0  0
 18 19  1  0  0  0  0
 18  6  1  1  0  0  0
 21 20  1  0  0  0  0
 22 21  1  1  0  0  0
 23 26  1  0  0  0  0
 23 27  1  0  0  0  0
 24 22  1  0  0  0  0
 25 26  1  0  0  0  0
 26 24  2  0  0  0  0
 27 22  1  0  0  0  0
 29 28  1  0  0  0  0
 29 25  1  0  0  0  0
 30 31  2  0  0  0  0
 30  1  1  0  0  0  0
 32 33  1  0  0  0  0
 33 30  1  0  0  0  0
 34 35  1  0  0  0  0
 35 36  2  0  0  0  0
 35 37  1  0  0  0  0
 37 53  1  6  0  0  0
 37 38  1  0  0  0  0
 38 39  1  0  0  0  0
 41 39  1  6  0  0  0
 41 50  1  0  0  0  0
 42 40  1  0  0  0  0
 43 47  2  0  0  0  0
 46 47  1  0  0  0  0
 46 45  1  1  0  0  0
 47 40  1  0  0  0  0
 48 49  1  0  0  0  0
 48 46  1  0  0  0  0
 49 51  1  6  0  0  0
 49 52  1  0  0  0  0
 50 44  1  0  0  0  0
 51 41  1  0  0  0  0
 52 42  1  6  0  0  0
 52 44  1  0  0  0  0
 54 56  1  0  0  0  0
 54 53  1  0  0  0  0
 56 57  2  1  0  0  0
 56 55  1  0  0  0  0
 58 59  1  0  0  0  0
 59 56  1  0  0  0  0
M  END
>  <MODEL>
2

>  <REMARK>
 VINA RESULT:      -4.3      1.725      2.238
  Name = 
  26 active torsions:
  status: ('A' for Active; 'I' for Inactive)
    1  A    between atoms: C_2  and  O_20
    2  A    between atoms: C_2  and  C_24
    3  A    between atoms: C_4  and  O_6
    4  A    between atoms: O_6  and  C_44
    5  A    between atoms: C_9  and  C_48
    6  A    between atoms: C_10  and  C_40
    7  A    between atoms: C_10  and  O_41
    8  A    between atoms: C_12  and  C_59
    9  A    between atoms: C_15  and  C_30
   10  A    between atoms: C_15  and  C_51
   11  A    between atoms: O_18  and  C_19
   12  A    between atoms: O_18  and  C_40
   13  A    between atoms: C_19  and  C_24
   14  A    between atoms: O_20  and  P_53
   15  A    between atoms: C_21  and  O_31
   16  A    between atoms: C_23  and  C_44
   17  A    between atoms: C_24  and  C_56
   18  A    between atoms: C_30  and  C_46
   19  A    between atoms: O_31  and  C_59
   20  A    between atoms: N_32  and  N_39
   21  A    between atoms: N_34  and  C_59
   22  A    between atoms: C_37  and  C_46
   23  A    between atoms: C_37  and  C_57
   24  A    between atoms: C_40  and  C_47
   25  A    between atoms: C_48  and  C_56
   26  A    between atoms: P_53  and  C_54
                            x       y       z     vdW  Elec       q    Type
                         _______ _______ _______ _____ _____    ______ ____

>  <TORSDO>
F 26

$$$$
=
 OpenBabel11072413393D

 59 62  0  0  1  0  0  0  0  0999 V2000
  161.5380  204.8130  144.0830 C   0  0  2  0  0  3  0  0  0  0  0  0
  162.2730  207.4140  141.6980 C   0  0  0  0  0  3  0  0  0  0  0  0
  161.6310  206.4350  142.2820 C   0  0  0  0  0  0  0  0  0  0  0  0
  160.9870  205.4550  142.8530 C   0  0  0  0  0  3  0  0  0  0  0  0
  162.4960  207.4380  140.3180 O   0  0  0  0  0  0  0  0  0  0  0  0
  162.7140  208.6420  139.5910 C   0  0  2  0  0  3  0  0  0  0  0  0
  162.1560  209.7590  140.3470 N   0  0  0  0  0  2  0  0  0  0  0  0
  163.3100  211.4260  139.1820 O   0  0  0  0  0  0  0  0  0  0  0  0
  162.4730  211.1260  140.0770 C   0  0  0  0  0  0  0  0  0  0  0  0
  161.0240  213.1390  139.8580 C   0  0  0  0  0  1  0  0  0  0  0  0
  161.7330  212.1940  140.8130 C   0  0  1  0  0  3  0  0  0  0  0  0
  160.7360  211.5650  141.7730 C   0  0  0  0  0  2  0  0  0  0  0  0
  159.7790  212.6140  142.3200 C   0  0  0  0  0  2  0  0  0  0  0  0
  160.2130  213.1070  143.6950 C   0  0  0  0  0  2  0  0  0  0  0  0
  158.4150  212.5800  145.3470 C   0  0  0  0  0  1  0  0  0  0  0  0
  159.0350  213.6620  144.4800 C   0  0  0  0  0  2  0  0  0  0  0  0
  160.5320  208.3870  138.3900 C   0  0  2  0  0  3  0  0  0  0  0  0
  162.0360  208.5580  138.2300 C   0  0  2  0  0  3  0  0  0  0  0  0
  161.4060  207.1900  138.0770 C   0  0  0  0  0  2  0  0  0  0  0  0
  159.8960  208.8120  137.2210 O   0  0  0  0  0  0  0  0  0  0  0  0
  158.5280  208.8240  137.5170 C   0  0  0  0  0  2  0  0  0  0  0  0
  158.1860  210.0440  138.3560 C   0  0  2  0  0  3  0  0  0  0  0  0
  156.7730  212.1970  138.2420 C   0  0  0  0  0  2  0  0  0  0  0  0
  156.8480  209.9230  138.9030 N   0  0  0  0  0  0  0  0  0  0  0  0
  154.8310  211.0330  139.4190 N   0  0  0  0  0  2  0  0  0  0  0  0
  156.1560  211.0100  138.8840 C   0  0  0  0  0  0  0  0  0  0  0  0
  158.2340  211.5710  137.3580 S   0  0  0  0  0  0  0  0  0  0  0  0
  153.1990  212.1660  140.5520 C   0  0  0  0  0  1  0  0  0  0  0  0
  154.0490  212.1940  139.3760 N   0  0  0  0  0  2  0  0  0  0  0  0
  160.6170  203.7320  144.5440 C   0  0  0  0  0  0  0  0  0  0  0  0
  158.9960  203.9730  144.4410 S   0  0  0  0  0  0  0  0  0  0  0  0
  160.3620  201.4380  145.4570 C   0  0  0  0  0  1  0  0  0  0  0  0
  161.1560  202.5570  145.0800 O   0  0  0  0  0  0  0  0  0  0  0  0
  161.6950  205.7780  145.1180 O   0  0  0  0  0  0  0  0  0  0  0  0
  162.2680  205.4730  146.3560 C   0  0  0  0  0  0  0  0  0  0  0  0
  163.4240  204.9680  146.4190 O   0  0  0  0  0  0  0  0  0  0  0  0
  161.5130  205.7210  147.6240 C   0  0  2  0  0  3  0  0  0  0  0  0
  161.9850  206.9920  148.3120 C   0  0  0  0  0  2  0  0  0  0  0  0
  161.0630  207.3240  149.4720 C   0  0  0  0  0  2  0  0  0  0  0  0
  160.6170  207.3050  155.7810 C   0  0  0  0  0  2  0  0  0  0  0  0
  161.8230  207.9800  150.6200 C   0  0  2  0  0  3  0  0  0  0  0  0
  160.4510  206.9830  154.3060 C   0  0  0  0  0  2  0  0  0  0  0  0
  159.4360  209.0090  156.8760 O   0  0  0  0  0  0  0  0  0  0  0  0
  161.9430  206.4140  152.5980 C   0  0  0  0  0  2  0  0  0  0  0  0
  162.3310  209.8260  155.4530 O   0  0  0  0  0  1  0  0  0  0  0  0
  160.9450  209.8470  155.2760 C   0  0  2  0  0  3  0  0  0  0  0  0
  160.2850  208.7380  156.0450 C   0  0  0  0  0  0  0  0  0  0  0  0
  160.5620  209.7900  153.7950 C   0  0  0  0  0  2  0  0  0  0  0  0
  161.3840  208.7970  152.9550 C   0  0  2  0  0  3  0  0  0  0  0  0
  162.6890  206.9620  151.3810 C   0  0  0  0  0  2  0  0  0  0  0  0
  160.8300  208.7040  151.5340 C   0  0  0  0  0  2  0  0  0  0  0  0
  161.6210  207.4620  153.5760 N   0  0  1  0  0  0  0  0  0  0  0  0
  161.5280  204.5240  148.5700 C   0  0  0  0  0  2  0  0  0  0  0  0
  160.6730  203.5120  148.1190 O   0  0  0  0  0  0  0  0  0  0  0  0
  159.1230  201.5810  149.3810 O   0  0  0  0  0  0  0  0  0  0  0  0
  160.6140  202.3830  149.3830 P   0  0  2  0  0  0  0  0  0  0  0  0
  160.7830  203.1010  150.7020 O   0  0  0  0  0  1  0  0  0  0  0  0
  161.5820  200.2030  148.1630 N   0  0  0  0  0  1  0  0  0  0  0  0
  161.9490  201.1700  149.1820 C   0  0  0  0  0  2  0  0  0  0  0  0
  1  4  1  6  0  0  0
  1 30  1  0  0  0  0
  1 34  1  0  0  0  0
  2  3  2  0  0  0  0
  3  4  2  0  0  0  0
  5  2  1  0  0  0  0
  6  5  1  1  0  0  0
  6  7  1  0  0  0  0
  8  9  2  0  0  0  0
  9  7  1  0  0  0  0
  9 11  1  0  0  0  0
 11 10  1  6  0  0  0
 11 12  1  0  0  0  0
 12 13  1  0  0  0  0
 13 14  1  0  0  0  0
 14 16  1  0  0  0  0
 16 15  1  0  0  0  0
 17 20  1  6  0  0  0
 18 17  1  0  0  0  0
 18  6  1  1  0  0  0
 19 18  1  0  0  0  0
 19 17  1  0  0  0  0
 20 21  1  0  0  0  0
 22 21  1  6  0  0  0
 22 24  1  0  0  0  0
 23 26  1  0  0  0  0
 26 24  2  0  0  0  0
 26 25  1  0  0  0  0
 27 23  1  0  0  0  0
 27 22  1  0  0  0  0
 29 25  1  0  0  0  0
 29 28  1  0  0  0  0
 30 33  1  0  0  0  0
 31 30  2  0  0  0  0
 33 32  1  0  0  0  0
 34 35  1  0  0  0  0
 35 36  2  0  0  0  0
 35 37  1  0  0  0  0
 37 38  1  1  0  0  0
 37 53  1  0  0  0  0
 38 39  1  0  0  0  0
 40 47  1  0  0  0  0
 41 39  1  6  0  0  0
 41 50  1  0  0  0  0
 41 51  1  0  0  0  0
 42 40  1  0  0  0  0
 46 45  1  6  0  0  0
 46 47  1  0  0  0  0
 47 43  2  0  0  0  0
 48 46  1  0  0  0  0
 49 51  1  6  0  0  0
 49 52  1  0  0  0  0
 49 48  1  0  0  0  0
 50 44  1  0  0  0  0
 52 44  1  6  0  0  0
 52 42  1  0  0  0  0
 54 53  1  0  0  0  0
 54 56  1  0  0  0  0
 56 55  2  6  0  0  0
 56 57  1  0  0  0  0
 58 59  1  0  0  0  0
 59 56  1  0  0  0  0
M  END
>  <MODEL>
3

>  <REMARK>
 VINA RESULT:      -4.1      3.338      6.536
  Name = 
  26 active torsions:
  status: ('A' for Active; 'I' for Inactive)
    1  A    between atoms: C_2  and  O_20
    2  A    between atoms: C_2  and  C_24
    3  A    between atoms: C_4  and  O_6
    4  A    between atoms: O_6  and  C_44
    5  A    between atoms: C_9  and  C_48
    6  A    between atoms: C_10  and  C_40
    7  A    between atoms: C_10  and  O_41
    8  A    between atoms: C_12  and  C_59
    9  A    between atoms: C_15  and  C_30
   10  A    between atoms: C_15  and  C_51
   11  A    between atoms: O_18  and  C_19
   12  A    between atoms: O_18  and  C_40
   13  A    between atoms: C_19  and  C_24
   14  A    between atoms: O_20  and  P_53
   15  A    between atoms: C_21  and  O_31
   16  A    between atoms: C_23  and  C_44
   17  A    between atoms: C_24  and  C_56
   18  A    between atoms: C_30  and  C_46
   19  A    between atoms: O_31  and  C_59
   20  A    between atoms: N_32  and  N_39
   21  A    between atoms: N_34  and  C_59
   22  A    between atoms: C_37  and  C_46
   23  A    between atoms: C_37  and  C_57
   24  A    between atoms: C_40  and  C_47
   25  A    between atoms: C_48  and  C_56
   26  A    between atoms: P_53  and  C_54
                            x       y       z     vdW  Elec       q    Type
                         _______ _______ _______ _____ _____    ______ ____

>  <TORSDO>
F 26

$$$$
=
 OpenBabel11072413393D

 59 62  0  0  1  0  0  0  0  0999 V2000
  162.0760  207.6750  148.5650 C   0  0  2  0  0  3  0  0  0  0  0  0
  161.9650  211.2550  148.1550 C   0  0  0  0  0  3  0  0  0  0  0  0
  161.5420  210.0210  148.2480 C   0  0  0  0  0  0  0  0  0  0  0  0
  161.1120  208.7920  148.3320 C   0  0  0  0  0  3  0  0  0  0  0  0
  161.5510  212.1070  147.1270 O   0  0  0  0  0  0  0  0  0  0  0  0
  161.2810  213.4900  147.3300 C   0  0  2  0  0  3  0  0  0  0  0  0
  159.9830  213.6270  147.9830 N   0  0  0  0  0  2  0  0  0  0  0  0
  160.8100  213.5110  150.1680 O   0  0  0  0  0  0  0  0  0  0  0  0
  159.8170  213.6570  149.4020 C   0  0  0  0  0  0  0  0  0  0  0  0
  157.3630  213.4810  149.0260 C   0  0  0  0  0  1  0  0  0  0  0  0
  158.4640  213.9500  149.9610 C   0  0  1  0  0  3  0  0  0  0  0  0
  158.3150  213.2940  151.3250 C   0  0  0  0  0  2  0  0  0  0  0  0
  157.0490  213.7760  152.0180 C   0  0  0  0  0  2  0  0  0  0  0  0
  157.0050  213.3360  153.4770 C   0  0  0  0  0  2  0  0  0  0  0  0
  157.0080  214.1770  155.8280 C   0  0  0  0  0  1  0  0  0  0  0  0
  157.4580  214.4520  154.4040 C   0  0  0  0  0  2  0  0  0  0  0  0
  161.8610  213.3480  144.8980 C   0  0  2  0  0  3  0  0  0  0  0  0
  161.2580  214.2170  145.9920 C   0  0  2  0  0  3  0  0  0  0  0  0
  162.6810  214.4520  145.5330 C   0  0  0  0  0  2  0  0  0  0  0  0
  161.3880  213.7820  143.6560 O   0  0  0  0  0  0  0  0  0  0  0  0
  162.4940  213.7480  142.7980 C   0  0  0  0  0  2  0  0  0  0  0  0
  162.0650  213.3040  141.4100 C   0  0  2  0  0  3  0  0  0  0  0  0
  162.8720  211.8150  139.4670 C   0  0  0  0  0  2  0  0  0  0  0  0
  161.5750  211.9390  141.4450 N   0  0  0  0  0  0  0  0  0  0  0  0
  161.5080  209.8490  140.3520 N   0  0  0  0  0  2  0  0  0  0  0  0
  161.9440  211.2050  140.4520 C   0  0  0  0  0  0  0  0  0  0  0  0
  163.4610  213.3550  140.2360 S   0  0  0  0  0  0  0  0  0  0  0  0
  160.9250  209.1440  138.2560 C   0  0  0  0  0  1  0  0  0  0  0  0
  161.9260  209.0250  139.3000 N   0  0  0  0  0  2  0  0  0  0  0  0
  161.9210  206.6440  147.4980 C   0  0  0  0  0  0  0  0  0  0  0  0
  160.5160  206.5840  146.6500 S   0  0  0  0  0  0  0  0  0  0  0  0
  163.1230  205.0320  146.0430 C   0  0  0  0  0  1  0  0  0  0  0  0
  162.9600  205.7350  147.2680 O   0  0  0  0  0  0  0  0  0  0  0  0
  161.8460  207.0810  149.8380 O   0  0  0  0  0  0  0  0  0  0  0  0
  162.6820  207.3010  150.9380 C   0  0  0  0  0  0  0  0  0  0  0  0
  163.9230  207.0770  150.8530 O   0  0  0  0  0  0  0  0  0  0  0  0
  162.1180  207.7820  152.2370 C   0  0  2  0  0  3  0  0  0  0  0  0
  161.4510  206.6520  153.0040 C   0  0  0  0  0  2  0  0  0  0  0  0
  161.9170  205.3120  152.4580 C   0  0  0  0  0  2  0  0  0  0  0  0
  161.4510  199.9680  149.1100 C   0  0  0  0  0  2  0  0  0  0  0  0
  160.8430  204.6580  151.5950 C   0  0  2  0  0  3  0  0  0  0  0  0
  161.9100  201.0540  150.0660 C   0  0  0  0  0  2  0  0  0  0  0  0
  161.9140  199.9810  146.8110 O   0  0  0  0  0  0  0  0  0  0  0  0
  160.9070  202.1490  151.8730 C   0  0  0  0  0  2  0  0  0  0  0  0
  159.1390  201.5160  147.8210 O   0  0  0  0  0  1  0  0  0  0  0  0
  160.4690  201.7270  147.4470 C   0  0  2  0  0  3  0  0  0  0  0  0
  161.3090  200.5120  147.7250 C   0  0  0  0  0  0  0  0  0  0  0  0
  161.0580  202.9660  148.1250 C   0  0  0  0  0  2  0  0  0  0  0  0
  160.6900  203.1250  149.6100 C   0  0  2  0  0  3  0  0  0  0  0  0
  160.2140  203.4430  152.2970 C   0  0  0  0  0  2  0  0  0  0  0  0
  161.4420  204.3010  150.2310 C   0  0  0  0  0  2  0  0  0  0  0  0
  160.7670  201.8840  150.4340 N   0  0  1  0  0  0  0  0  0  0  0  0
  161.1910  208.9820  152.0750 C   0  0  0  0  0  2  0  0  0  0  0  0
  160.1560  208.9520  153.0170 O   0  0  0  0  0  0  0  0  0  0  0  0
  159.1830  211.0440  154.5660 O   0  0  0  0  0  1  0  0  0  0  0  0
  160.5560  210.1420  154.1580 P   0  0  2  0  0  0  0  0  0  0  0  0
  161.5940  211.0690  153.5680 O   0  0  0  0  0  0  0  0  0  0  0  0
  161.2330  210.3140  156.7440 N   0  0  0  0  0  1  0  0  0  0  0  0
  161.2260  209.3580  155.6510 C   0  0  0  0  0  2  0  0  0  0  0  0
  1  4  1  6  0  0  0
  1 34  1  0  0  0  0
  2  3  2  0  0  0  0
  3  4  2  0  0  0  0
  5  2  1  0  0  0  0
  6  5  1  6  0  0  0
  6  7  1  0  0  0  0
  7  9  1  0  0  0  0
  9 11  1  0  0  0  0
  9  8  2  0  0  0  0
 11 10  1  6  0  0  0
 11 12  1  0  0  0  0
 12 13  1  0  0  0  0
 13 14  1  0  0  0  0
 14 16  1  0  0  0  0
 16 15  1  0  0  0  0
 17 20  1  6  0  0  0
 17 19  1  0  0  0  0
 17 18  1  0  0  0  0
 18  6  1  1  0  0  0
 19 18  1  0  0  0  0
 21 20  1  0  0  0  0
 22 24  1  0  0  0  0
 22 21  1  1  0  0  0
 23 27  1  0  0  0  0
 23 26  1  0  0  0  0
 25 26  1  0  0  0  0
 26 24  2  0  0  0  0
 27 22  1  0  0  0  0
 28 29  1  0  0  0  0
 29 25  1  0  0  0  0
 30  1  1  0  0  0  0
 31 30  2  0  0  0  0
 32 33  1  0  0  0  0
 33 30  1  0  0  0  0
 34 35  1  0  0  0  0
 35 37  1  0  0  0  0
 36 35  2  0  0  0  0
 37 53  1  6  0  0  0
 37 38  1  0  0  0  0
 39 38  1  0  0  0  0
 40 42  1  0  0  0  0
 41 50  1  0  0  0  0
 41 39  1  1  0  0  0
 43 47  2  0  0  0  0
 44 50  1  0  0  0  0
 46 47  1  0  0  0  0
 46 45  1  1  0  0  0
 46 48  1  0  0  0  0
 47 40  1  0  0  0  0
 49 48  1  6  0  0  0
 49 51  1  0  0  0  0
 49 52  1  0  0  0  0
 51 41  1  0  0  0  0
 52 42  1  6  0  0  0
 52 44  1  0  0  0  0
 53 54  1  0  0  0  0
 54 56  1  0  0  0  0
 56 57  2  6  0  0  0
 56 55  1  0  0  0  0
 56 59  1  0  0  0  0
 59 58  1  0  0  0  0
M  END
>  <MODEL>
4

>  <REMARK>
 VINA RESULT:      -3.3      2.176      6.275
  Name = 
  26 active torsions:
  status: ('A' for Active; 'I' for Inactive)
    1  A    between atoms: C_2  and  O_20
    2  A    between atoms: C_2  and  C_24
    3  A    between atoms: C_4  and  O_6
    4  A    between atoms: O_6  and  C_44
    5  A    between atoms: C_9  and  C_48
    6  A    between atoms: C_10  and  C_40
    7  A    between atoms: C_10  and  O_41
    8  A    between atoms: C_12  and  C_59
    9  A    between atoms: C_15  and  C_30
   10  A    between atoms: C_15  and  C_51
   11  A    between atoms: O_18  and  C_19
   12  A    between atoms: O_18  and  C_40
   13  A    between atoms: C_19  and  C_24
   14  A    between atoms: O_20  and  P_53
   15  A    between atoms: C_21  and  O_31
   16  A    between atoms: C_23  and  C_44
   17  A    between atoms: C_24  and  C_56
   18  A    between atoms: C_30  and  C_46
   19  A    between atoms: O_31  and  C_59
   20  A    between atoms: N_32  and  N_39
   21  A    between atoms: N_34  and  C_59
   22  A    between atoms: C_37  and  C_46
   23  A    between atoms: C_37  and  C_57
   24  A    between atoms: C_40  and  C_47
   25  A    between atoms: C_48  and  C_56
   26  A    between atoms: P_53  and  C_54
                            x       y       z     vdW  Elec       q    Type
                         _______ _______ _______ _____ _____    ______ ____

>  <TORSDO>
F 26

$$$$
=
 OpenBabel11072413393D

 59 62  0  0  1  0  0  0  0  0999 V2000
  162.4540  207.5180  148.1680 C   0  0  2  0  0  3  0  0  0  0  0  0
  161.5430  210.9920  148.4900 C   0  0  0  0  0  3  0  0  0  0  0  0
  161.4900  209.7430  148.1010 C   0  0  0  0  0  0  0  0  0  0  0  0
  161.4320  208.5030  147.7030 C   0  0  0  0  0  3  0  0  0  0  0  0
  161.4220  212.0560  147.5910 O   0  0  0  0  0  0  0  0  0  0  0  0
  160.2390  212.2990  146.8370 C   0  0  2  0  0  3  0  0  0  0  0  0
  160.6130  212.8210  145.5270 N   0  0  0  0  0  2  0  0  0  0  0  0
  162.2020  214.3400  146.3270 O   0  0  0  0  0  0  0  0  0  0  0  0
  161.6180  213.8190  145.3370 C   0  0  0  0  0  0  0  0  0  0  0  0
  162.9470  213.1230  143.3500 C   0  0  0  0  0  1  0  0  0  0  0  0
  162.0250  214.1740  143.9440 C   0  0  1  0  0  3  0  0  0  0  0  0
  160.7910  214.3490  143.0740 C   0  0  0  0  0  2  0  0  0  0  0  0
  161.1460  214.2050  141.6010 C   0  0  0  0  0  2  0  0  0  0  0  0
  159.9030  214.2240  140.7190 C   0  0  0  0  0  2  0  0  0  0  0  0
  158.3240  212.3720  140.1600 C   0  0  0  0  0  1  0  0  0  0  0  0
  159.7320  212.9090  139.9770 C   0  0  0  0  0  2  0  0  0  0  0  0
  157.8980  212.9060  147.4860 C   0  0  2  0  0  3  0  0  0  0  0  0
  159.3620  213.3140  147.5580 C   0  0  2  0  0  3  0  0  0  0  0  0
  158.4390  213.9700  146.5540 C   0  0  0  0  0  2  0  0  0  0  0  0
  157.2000  213.5190  148.5300 O   0  0  0  0  0  0  0  0  0  0  0  0
  158.1330  213.6910  149.5600 C   0  0  0  0  0  2  0  0  0  0  0  0
  157.6770  212.9520  150.8070 C   0  0  2  0  0  3  0  0  0  0  0  0
  158.4520  212.4600  153.2150 C   0  0  0  0  0  2  0  0  0  0  0  0
  157.1980  213.8910  151.8040 N   0  0  0  0  0  0  0  0  0  0  0  0
  157.1220  214.4530  154.0940 N   0  0  0  0  0  2  0  0  0  0  0  0
  157.5510  213.6220  153.0140 C   0  0  0  0  0  0  0  0  0  0  0  0
  159.0460  212.0080  151.5570 S   0  0  0  0  0  0  0  0  0  0  0  0
  156.3320  213.8050  156.1400 C   0  0  0  0  0  1  0  0  0  0  0  0
  157.5240  214.1990  155.4120 N   0  0  0  0  0  2  0  0  0  0  0  0
  162.4880  206.3500  147.2390 C   0  0  0  0  0  0  0  0  0  0  0  0
  161.5610  206.3860  145.8840 S   0  0  0  0  0  0  0  0  0  0  0  0
  163.8970  204.4160  146.5810 C   0  0  0  0  0  1  0  0  0  0  0  0
  163.2830  205.2440  147.5610 O   0  0  0  0  0  0  0  0  0  0  0  0
  162.1470  207.0710  149.4840 O   0  0  0  0  0  0  0  0  0  0  0  0
  160.9360  206.4520  149.8090 C   0  0  0  0  0  0  0  0  0  0  0  0
  159.8710  206.7750  149.2120 O   0  0  0  0  0  0  0  0  0  0  0  0
  160.8800  205.4130  150.8850 C   0  0  2  0  0  3  0  0  0  0  0  0
  161.7270  205.8100  152.0830 C   0  0  0  0  0  2  0  0  0  0  0  0
  160.9040  205.7030  153.3560 C   0  0  0  0  0  2  0  0  0  0  0  0
  159.3120  210.9410  156.5220 C   0  0  0  0  0  2  0  0  0  0  0  0
  161.5170  206.5200  154.4880 C   0  0  2  0  0  3  0  0  0  0  0  0
  159.2910  209.7160  155.6250 C   0  0  0  0  0  2  0  0  0  0  0  0
  160.1770  213.0170  155.8600 O   0  0  0  0  0  0  0  0  0  0  0  0
  159.7030  207.4420  155.9830 C   0  0  0  0  0  2  0  0  0  0  0  0
  162.2890  210.8540  157.2510 O   0  0  0  0  0  1  0  0  0  0  0  0
  161.8430  211.3620  156.0280 C   0  0  2  0  0  3  0  0  0  0  0  0
  160.4270  211.8560  156.1330 C   0  0  0  0  0  0  0  0  0  0  0  0
  161.9820  210.3350  154.9030 C   0  0  0  0  0  2  0  0  0  0  0  0
  161.5730  208.9020  155.2830 C   0  0  2  0  0  3  0  0  0  0  0  0
  160.7420  206.3350  155.8040 C   0  0  0  0  0  2  0  0  0  0  0  0
  161.6040  207.9870  154.0600 C   0  0  0  0  0  2  0  0  0  0  0  0
  160.3140  208.7750  156.0730 N   0  0  1  0  0  0  0  0  0  0  0  0
  161.2270  204.0150  150.3820 C   0  0  0  0  0  2  0  0  0  0  0  0
  160.8580  203.8540  149.0420 O   0  0  0  0  0  0  0  0  0  0  0  0
  158.9580  201.8690  149.4560 O   0  0  0  0  0  0  0  0  0  0  0  0
  160.5110  202.2020  148.8710 P   0  0  2  0  0  0  0  0  0  0  0  0
  161.5170  201.3970  149.6620 O   0  0  0  0  0  1  0  0  0  0  0  0
  161.6050  200.6940  146.9470 N   0  0  0  0  0  1  0  0  0  0  0  0
  160.6070  201.7350  147.1200 C   0  0  0  0  0  2  0  0  0  0  0  0
  1  4  1  6  0  0  0
  1 34  1  0  0  0  0
  3  2  2  0  0  0  0
  4  3  2  0  0  0  0
  5  2  1  0  0  0  0
  6  7  1  6  0  0  0
  6  5  1  0  0  0  0
  9  7  1  0  0  0  0
  9  8  2  0  0  0  0
 11 10  1  6  0  0  0
 11  9  1  0  0  0  0
 12 11  1  0  0  0  0
 13 12  1  0  0  0  0
 14 13  1  0  0  0  0
 16 15  1  0  0  0  0
 16 14  1  0  0  0  0
 17 18  1  0  0  0  0
 17 20  1  1  0  0  0
 18  6  1  6  0  0  0
 19 17  1  0  0  0  0
 19 18  1  0  0  0  0
 20 21  1  0  0  0  0
 22 21  1  6  0  0  0
 22 27  1  0  0  0  0
 22 24  1  0  0  0  0
 24 26  2  0  0  0  0
 25 29  1  0  0  0  0
 26 23  1  0  0  0  0
 26 25  1  0  0  0  0
 27 23  1  0  0  0  0
 29 28  1  0  0  0  0
 30 33  1  0  0  0  0
 30  1  1  0  0  0  0
 31 30  2  0  0  0  0
 32 33  1  0  0  0  0
 34 35  1  0  0  0  0
 35 37  1  0  0  0  0
 36 35  2  0  0  0  0
 37 53  1  6  0  0  0
 37 38  1  0  0  0  0
 38 39  1  0  0  0  0
 41 39  1  6  0  0  0
 41 50  1  0  0  0  0
 42 40  1  0  0  0  0
 43 47  2  0  0  0  0
 44 52  1  0  0  0  0
 46 47  1  0  0  0  0
 46 45  1  1  0  0  0
 47 40  1  0  0  0  0
 48 49  1  0  0  0  0
 48 46  1  0  0  0  0
 49 51  1  6  0  0  0
 49 52  1  0  0  0  0
 50 44  1  0  0  0  0
 51 41  1  0  0  0  0
 52 42  1  6  0  0  0
 54 53  1  0  0  0  0
 56 54  1  0  0  0  0
 56 55  2  1  0  0  0
 56 57  1  0  0  0  0
 58 59  1  0  0  0  0
 59 56  1  0  0  0  0
M  END
>  <MODEL>
5

>  <REMARK>
 VINA RESULT:      -3.2      2.266      6.780
  Name = 
  26 active torsions:
  status: ('A' for Active; 'I' for Inactive)
    1  A    between atoms: C_2  and  O_20
    2  A    between atoms: C_2  and  C_24
    3  A    between atoms: C_4  and  O_6
    4  A    between atoms: O_6  and  C_44
    5  A    between atoms: C_9  and  C_48
    6  A    between atoms: C_10  and  C_40
    7  A    between atoms: C_10  and  O_41
    8  A    between atoms: C_12  and  C_59
    9  A    between atoms: C_15  and  C_30
   10  A    between atoms: C_15  and  C_51
   11  A    between atoms: O_18  and  C_19
   12  A    between atoms: O_18  and  C_40
   13  A    between atoms: C_19  and  C_24
   14  A    between atoms: O_20  and  P_53
   15  A    between atoms: C_21  and  O_31
   16  A    between atoms: C_23  and  C_44
   17  A    between atoms: C_24  and  C_56
   18  A    between atoms: C_30  and  C_46
   19  A    between atoms: O_31  and  C_59
   20  A    between atoms: N_32  and  N_39
   21  A    between atoms: N_34  and  C_59
   22  A    between atoms: C_37  and  C_46
   23  A    between atoms: C_37  and  C_57
   24  A    between atoms: C_40  and  C_47
   25  A    between atoms: C_48  and  C_56
   26  A    between atoms: P_53  and  C_54
                            x       y       z     vdW  Elec       q    Type
                         _______ _______ _______ _____ _____    ______ ____

>  <TORSDO>
F 26

$$$$
=
 OpenBabel11072413393D

 59 62  0  0  1  0  0  0  0  0999 V2000
  161.4600  211.3330  148.6310 C   0  0  2  0  0  3  0  0  0  0  0  0
  161.2680  207.7600  148.1860 C   0  0  0  0  0  3  0  0  0  0  0  0
  161.7230  208.9220  148.5810 C   0  0  0  0  0  0  0  0  0  0  0  0
  162.1890  210.0750  148.9730 C   0  0  0  0  0  3  0  0  0  0  0  0
  162.0900  206.8070  147.5780 O   0  0  0  0  0  0  0  0  0  0  0  0
  161.6210  205.9030  146.5840 C   0  0  2  0  0  3  0  0  0  0  0  0
  161.5270  204.5680  147.1640 N   0  0  0  0  0  2  0  0  0  0  0  0
  160.2290  205.2060  149.0030 O   0  0  0  0  0  0  0  0  0  0  0  0
  160.7950  204.2810  148.3580 C   0  0  0  0  0  0  0  0  0  0  0  0
  160.4030  201.9450  147.5910 C   0  0  0  0  0  1  0  0  0  0  0  0
  160.6420  202.8570  148.7820 C   0  0  1  0  0  3  0  0  0  0  0  0
  161.8750  202.4110  149.5510 C   0  0  0  0  0  2  0  0  0  0  0  0
  161.8980  203.0320  150.9400 C   0  0  0  0  0  2  0  0  0  0  0  0
  160.5810  202.8150  151.6740 C   0  0  0  0  0  2  0  0  0  0  0  0
  161.3300  205.0290  152.5550 C   0  0  0  0  0  1  0  0  0  0  0  0
  160.3660  203.8720  152.7460 C   0  0  0  0  0  2  0  0  0  0  0  0
  161.8320  205.6990  144.0970 C   0  0  2  0  0  3  0  0  0  0  0  0
  162.5860  205.8800  145.4060 C   0  0  2  0  0  3  0  0  0  0  0  0
  162.5260  204.5200  144.7450 C   0  0  0  0  0  2  0  0  0  0  0  0
  162.6190  206.1760  143.0450 O   0  0  0  0  0  0  0  0  0  0  0  0
  161.8500  206.0000  141.8880 C   0  0  0  0  0  2  0  0  0  0  0  0
  162.4710  206.7600  140.7280 C   0  0  2  0  0  3  0  0  0  0  0  0
  161.7890  208.2810  138.7630 C   0  0  0  0  0  2  0  0  0  0  0  0
  162.5100  208.1800  141.0170 N   0  0  0  0  0  0  0  0  0  0  0  0
  162.2370  210.3650  140.1670 N   0  0  0  0  0  2  0  0  0  0  0  0
  162.2100  208.9430  140.0230 C   0  0  0  0  0  0  0  0  0  0  0  0
  161.5040  206.5380  139.1970 S   0  0  0  0  0  0  0  0  0  0  0  0
  163.1150  211.7580  138.5800 C   0  0  0  0  0  1  0  0  0  0  0  0
  161.8800  211.2110  139.1100 N   0  0  0  0  0  2  0  0  0  0  0  0
  162.1740  212.0460  147.5310 C   0  0  0  0  0  0  0  0  0  0  0  0
  163.6910  212.6130  147.8070 S   0  0  0  0  0  0  0  0  0  0  0  0
  161.6900  213.4120  145.5160 C   0  0  0  0  0  1  0  0  0  0  0  0
  161.5250  212.2420  146.3070 O   0  0  0  0  0  0  0  0  0  0  0  0
  161.3740  212.1810  149.7710 O   0  0  0  0  0  0  0  0  0  0  0  0
  160.9450  213.5090  149.6950 C   0  0  0  0  0  0  0  0  0  0  0  0
  161.7380  214.4170  149.3160 O   0  0  0  0  0  0  0  0  0  0  0  0
  159.5480  213.8790  150.0820 C   0  0  2  0  0  3  0  0  0  0  0  0
  158.8320  212.7160  150.7510 C   0  0  0  0  0  2  0  0  0  0  0  0
  158.1260  213.1980  152.0070 C   0  0  0  0  0  2  0  0  0  0  0  0
  161.3150  211.2440  157.1060 C   0  0  0  0  0  2  0  0  0  0  0  0
  157.9680  212.0740  153.0250 C   0  0  2  0  0  3  0  0  0  0  0  0
  160.8030  212.0540  155.9280 C   0  0  0  0  0  2  0  0  0  0  0  0
  162.9010  209.5280  156.9090 O   0  0  0  0  0  0  0  0  0  0  0  0
  158.6950  212.8580  155.3130 C   0  0  0  0  0  2  0  0  0  0  0  0
  159.6970  208.6930  156.5750 O   0  0  0  0  0  1  0  0  0  0  0  0
  160.8620  208.9910  155.8630 C   0  0  2  0  0  3  0  0  0  0  0  0
  161.7660  209.8920  156.6560 C   0  0  0  0  0  0  0  0  0  0  0  0
  160.5490  209.5980  154.4930 C   0  0  0  0  0  2  0  0  0  0  0  0
  159.4160  210.6380  154.4930 C   0  0  2  0  0  3  0  0  0  0  0  0
  157.5020  212.6070  154.3910 C   0  0  0  0  0  2  0  0  0  0  0  0
  159.2810  211.2920  153.1180 C   0  0  0  0  0  2  0  0  0  0  0  0
  159.4430  211.6280  155.6080 N   0  0  1  0  0  0  0  0  0  0  0  0
  158.7400  214.4520  148.9230 C   0  0  0  0  0  2  0  0  0  0  0  0
  158.9780  213.7410  147.7410 O   0  0  0  0  0  0  0  0  0  0  0  0
  157.0410  212.0050  146.7600 O   0  0  0  0  0  1  0  0  0  0  0  0
  157.4670  213.6290  146.9760 P   0  0  2  0  0  0  0  0  0  0  0  0
  157.5420  214.3010  145.6240 O   0  0  0  0  0  0  0  0  0  0  0  0
  155.9870  213.6930  149.2080 N   0  0  0  0  0  1  0  0  0  0  0  0
  156.2060  214.4520  147.9900 C   0  0  0  0  0  2  0  0  0  0  0  0
  1  4  1  1  0  0  0
  1 34  1  0  0  0  0
  2  3  2  0  0  0  0
  3  4  2  0  0  0  0
  5  2  1  0  0  0  0
  6  7  1  1  0  0  0
  6  5  1  0  0  0  0
  7  9  1  0  0  0  0
  9 11  1  0  0  0  0
  9  8  2  0  0  0  0
 11 10  1  6  0  0  0
 11 12  1  0  0  0  0
 12 13  1  0  0  0  0
 13 14  1  0  0  0  0
 14 16  1  0  0  0  0
 15 16  1  0  0  0  0
 17 20  1  6  0  0  0
 17 19  1  0  0  0  0
 17 18  1  0  0  0  0
 18  6  1  1  0  0  0
 19 18  1  0  0  0  0
 21 20  1  0  0  0  0
 22 24  1  0  0  0  0
 22 21  1  1  0  0  0
 23 27  1  0  0  0  0
 23 26  1  0  0  0  0
 26 25  1  0  0  0  0
 26 24  2  0  0  0  0
 27 22  1  0  0  0  0
 28 29  1  0  0  0  0
 29 25  1  0  0  0  0
 30 31  2  0  0  0  0
 30  1  1  0  0  0  0
 32 33  1  0  0  0  0
 33 30  1  0  0  0  0
 35 34  1  0  0  0  0
 35 37  1  0  0  0  0
 36 35  2  0  0  0  0
 37 53  1  6  0  0  0
 37 38  1  0  0  0  0
 38 39  1  0  0  0  0
 41 39  1  6  0  0  0
 41 51  1  0  0  0  0
 41 50  1  0  0  0  0
 42 40  1  0  0  0  0
 46 45  1  1  0  0  0
 46 47  1  0  0  0  0
 47 43  2  0  0  0  0
 47 40  1  0  0  0  0
 48 49  1  0  0  0  0
 48 46  1  0  0  0  0
 49 51  1  6  0  0  0
 49 52  1  0  0  0  0
 50 44  1  0  0  0  0
 52 44  1  6  0  0  0
 52 42  1  0  0  0  0
 54 53  1  0  0  0  0
 55 56  1  0  0  0  0
 56 57  2  6  0  0  0
 56 54  1  0  0  0  0
 56 59  1  0  0  0  0
 59 58  1  0  0  0  0
M  END
>  <MODEL>
6

>  <REMARK>
 VINA RESULT:      -2.8      3.014      7.788
  Name = 
  26 active torsions:
  status: ('A' for Active; 'I' for Inactive)
    1  A    between atoms: C_2  and  O_20
    2  A    between atoms: C_2  and  C_24
    3  A    between atoms: C_4  and  O_6
    4  A    between atoms: O_6  and  C_44
    5  A    between atoms: C_9  and  C_48
    6  A    between atoms: C_10  and  C_40
    7  A    between atoms: C_10  and  O_41
    8  A    between atoms: C_12  and  C_59
    9  A    between atoms: C_15  and  C_30
   10  A    between atoms: C_15  and  C_51
   11  A    between atoms: O_18  and  C_19
   12  A    between atoms: O_18  and  C_40
   13  A    between atoms: C_19  and  C_24
   14  A    between atoms: O_20  and  P_53
   15  A    between atoms: C_21  and  O_31
   16  A    between atoms: C_23  and  C_44
   17  A    between atoms: C_24  and  C_56
   18  A    between atoms: C_30  and  C_46
   19  A    between atoms: O_31  and  C_59
   20  A    between atoms: N_32  and  N_39
   21  A    between atoms: N_34  and  C_59
   22  A    between atoms: C_37  and  C_46
   23  A    between atoms: C_37  and  C_57
   24  A    between atoms: C_40  and  C_47
   25  A    between atoms: C_48  and  C_56
   26  A    between atoms: P_53  and  C_54
                            x       y       z     vdW  Elec       q    Type
                         _______ _______ _______ _____ _____    ______ ____

>  <TORSDO>
F 26

$$$$
