=
 OpenBabel11072413453D

 44 50  0  0  1  0  0  0  0  0999 V2000
  156.1860  214.4520  152.2740 N   0  0  0  0  0  1  0  0  0  0  0  0
  157.6550  211.5330  153.9510 C   0  0  0  0  0  2  0  0  0  0  0  0
  157.2850  212.9050  153.8720 N   0  0  0  0  0  2  0  0  0  0  0  0
  157.2650  213.5130  152.6420 C   0  0  0  0  0  0  0  0  0  0  0  0
  159.0660  211.9360  152.0550 C   0  0  0  0  0  3  0  0  0  0  0  0
  158.1460  213.0630  151.6710 C   0  0  0  0  0  0  0  0  0  0  0  0
  158.8830  211.2520  153.1430 C   0  0  0  0  0  0  0  0  0  0  0  0
  162.4120  213.1530  143.0890 C   0  0  0  0  0  3  0  0  0  0  0  0
  161.3600  214.0300  146.2500 C   0  0  2  0  0  3  0  0  0  0  0  0
  162.0040  211.8550  141.2590 O   0  0  0  0  0  1  0  0  0  0  0  0
  160.2990  211.8830  142.9920 C   0  0  0  0  0  3  0  0  0  0  0  0
  161.5760  212.2900  142.3930 C   0  0  0  0  0  0  0  0  0  0  0  0
  159.8190  214.1520  148.3370 C   0  0  2  0  0  3  0  0  0  0  0  0
  161.7120  213.4790  147.7720 C   0  0  0  0  0  2  0  0  0  0  0  0
  159.4520  213.5760  149.5520 N   0  0  0  0  0  0  0  0  0  0  0  0
  157.0380  213.6180  149.7220 O   0  0  0  0  0  0  0  0  0  0  0  0
  160.1440  212.1220  144.3220 C   0  0  0  0  0  3  0  0  0  0  0  0
  163.2850  214.4250  144.6900 O   0  0  0  0  0  1  0  0  0  0  0  0
  160.0010  213.9070  145.8610 C   0  0  1  0  0  3  0  0  0  0  0  0
  162.3270  213.4560  144.3380 C   0  0  1  0  0  3  0  0  0  0  0  0
  161.1340  212.8640  145.2550 C   0  0  1  0  0  0  0  0  0  0  0  0
  158.1710  213.4750  150.3320 C   0  0  0  0  0  0  0  0  0  0  0  0
  159.1190  213.5710  147.0700 C   0  0  0  0  0  2  0  0  0  0  0  0
  160.5560  213.0220  148.6610 C   0  0  1  0  0  3  0  0  0  0  0  0
  160.3760  208.1830  152.2270 N   0  0  0  0  0  0  0  0  0  0  0  0
  161.7620  208.6990  156.3410 C   0  0  0  0  0  0  0  0  0  0  0  0
  162.0580  209.8970  156.9660 C   0  0  0  0  0  3  0  0  0  0  0  0
  160.6330  209.9720  154.6940 C   0  0  0  0  0  0  0  0  0  0  0  0
  161.0630  211.1490  155.2330 C   0  0  0  0  0  3  0  0  0  0  0  0
  160.4110  209.5800  152.3530 N   0  0  0  0  0  2  0  0  0  0  0  0
  161.5040  207.5710  152.8540 C   0  0  0  0  0  0  0  0  0  0  0  0
  161.3810  207.5570  154.2480 O   0  0  0  0  0  0  0  0  0  0  0  0
  161.2440  208.7340  155.0760 C   0  0  0  0  0  0  0  0  0  0  0  0
  159.6500  210.0010  153.5320 C   0  0  2  0  0  3  0  0  0  0  0  0
  162.0740  207.4890  156.8810 O   0  0  0  0  0  1  0  0  0  0  0  0
  161.7190  211.1190  156.4090 C   0  0  0  0  0  3  0  0  0  0  0  0
  162.1900  206.3310  152.1140 C   0  0  1  0  0  3  0  0  0  0  0  0
  161.7840  205.0610  152.6100 C   0  0  0  0  0  3  0  0  0  0  0  0
  161.4500  204.0830  150.5150 O   0  0  0  0  0  1  0  0  0  0  0  0
  161.5500  203.9830  151.9130 C   0  0  0  0  0  3  0  0  0  0  0  0
  161.8100  206.5580  150.6960 O   0  0  0  0  0  0  0  0  0  0  0  0
  162.5260  207.4720  149.8030 C   0  0  0  0  0  2  0  0  0  0  0  0
  161.1840  207.3060  147.9990 C   0  0  0  0  0  1  0  0  0  0  0  0
  162.4820  206.9980  148.4260 O   0  0  0  0  0  0  0  0  0  0  0  0
  1  4  1  0  0  0  0
  3  2  1  0  0  0  0
  4  3  1  0  0  0  0
  5  7  2  0  0  0  0
  6  5  1  0  0  0  0
  6  4  2  0  0  0  0
  7  2  1  0  0  0  0
  8 20  1  0  0  0  0
  9 14  1  1  0  0  0
 10 12  1  0  0  0  0
 11 17  2  0  0  0  0
 12 11  1  0  0  0  0
 12  8  2  0  0  0  0
 13 23  1  6  0  0  0
 13 24  1  0  0  0  0
 13 15  1  0  0  0  0
 15 22  1  0  0  0  0
 16 22  2  0  0  0  0
 19  9  1  0  0  0  0
 19 23  1  1  0  0  0
 20 18  1  6  0  0  0
 20 21  1  0  0  0  0
 21 17  1  1  0  0  0
 21 19  1  0  0  0  0
 21  9  1  0  0  0  0
 22  6  1  0  0  0  0
 24 14  1  1  0  0  0
 24 15  1  0  0  0  0
 25 30  1  0  0  0  0
 25 31  2  0  0  0  0
 26 35  1  0  0  0  0
 26 27  1  0  0  0  0
 28 33  1  0  0  0  0
 28 29  2  0  0  0  0
 29 36  1  0  0  0  0
 30 34  1  0  0  0  0
 31 32  1  0  0  0  0
 32 33  1  0  0  0  0
 33 26  2  0  0  0  0
 34  7  1  6  0  0  0
 34 28  1  0  0  0  0
 36 27  2  0  0  0  0
 37 38  1  1  0  0  0
 37 31  1  0  0  0  0
 39 40  1  0  0  0  0
 40 38  2  0  0  0  0
 41 37  1  0  0  0  0
 42 41  1  0  0  0  0
 43 44  1  0  0  0  0
 44 42  1  0  0  0  0
M  END
>  <MODEL>
1

>  <REMARK>
 VINA RESULT:      -8.0      0.000      0.000
  Name = 
  7 active torsions:
  status: ('A' for Active; 'I' for Inactive)
    1  A    between atoms: C_1  and  C_43
    2  A    between atoms: C_15  and  O_29
    3  A    between atoms: C_15  and  O_37
    4  A    between atoms: C_22  and  C_43
    5  A    between atoms: O_29  and  C_43
    6  A    between atoms: C_35  and  C_38
    7  A    between atoms: C_36  and  C_39
                            x       y       z     vdW  Elec       q    Type
                         _______ _______ _______ _____ _____    ______ ____

>  <TORSDO>
F 7

$$$$
=
 OpenBabel11072413453D

 44 50  0  0  1  0  0  0  0  0999 V2000
  161.2780  212.0350  147.3470 N   0  0  0  0  0  1  0  0  0  0  0  0
  160.0360  212.6270  150.7520 C   0  0  0  0  0  2  0  0  0  0  0  0
  160.7360  212.9950  149.5700 N   0  0  0  0  0  2  0  0  0  0  0  0
  161.3320  212.0100  148.8230 C   0  0  0  0  0  0  0  0  0  0  0  0
  161.6000  210.8230  150.9660 C   0  0  0  0  0  3  0  0  0  0  0  0
  161.7910  210.8750  149.4750 C   0  0  0  0  0  0  0  0  0  0  0  0
  160.8310  211.6670  151.5820 C   0  0  0  0  0  0  0  0  0  0  0  0
  160.7760  201.6980  146.9050 C   0  0  0  0  0  3  0  0  0  0  0  0
  161.6580  204.5610  148.6080 C   0  0  2  0  0  3  0  0  0  0  0  0
  160.1160  200.8220  144.9060 O   0  0  0  0  0  1  0  0  0  0  0  0
  160.7920  203.1570  144.9160 C   0  0  0  0  0  3  0  0  0  0  0  0
  160.5610  201.8500  145.5410 C   0  0  0  0  0  0  0  0  0  0  0  0
  162.2840  207.0520  148.9830 C   0  0  2  0  0  3  0  0  0  0  0  0
  160.8150  205.6660  149.5090 C   0  0  0  0  0  2  0  0  0  0  0  0
  161.8280  208.3460  149.2310 N   0  0  0  0  0  0  0  0  0  0  0  0
  163.0770  209.8790  147.8360 O   0  0  0  0  0  0  0  0  0  0  0  0
  160.9050  204.2240  145.7520 C   0  0  0  0  0  3  0  0  0  0  0  0
  161.2070  202.1300  149.0430 O   0  0  0  0  0  1  0  0  0  0  0  0
  162.2990  205.0820  147.4540 C   0  0  1  0  0  3  0  0  0  0  0  0
  160.9180  202.6460  147.7650 C   0  0  1  0  0  3  0  0  0  0  0  0
  160.9100  204.1950  147.3010 C   0  0  1  0  0  0  0  0  0  0  0  0
  162.2980  209.7240  148.8580 C   0  0  0  0  0  0  0  0  0  0  0  0
  162.3100  206.6150  147.4870 C   0  0  0  0  0  2  0  0  0  0  0  0
  160.9060  207.1400  149.1140 C   0  0  1  0  0  3  0  0  0  0  0  0
  159.0370  212.9760  154.3300 N   0  0  0  0  0  0  0  0  0  0  0  0
  160.4940  209.1660  155.9020 C   0  0  0  0  0  0  0  0  0  0  0  0
  160.6680  207.9930  155.1890 C   0  0  0  0  0  3  0  0  0  0  0  0
  160.3890  210.2810  153.8160 C   0  0  0  0  0  0  0  0  0  0  0  0
  160.4040  209.1040  153.1260 C   0  0  0  0  0  3  0  0  0  0  0  0
  159.1130  212.1890  153.1720 N   0  0  0  0  0  2  0  0  0  0  0  0
  158.5250  212.2330  155.4370 C   0  0  0  0  0  0  0  0  0  0  0  0
  159.4820  211.3580  155.9630 O   0  0  0  0  0  0  0  0  0  0  0  0
  160.1220  210.2930  155.2240 C   0  0  0  0  0  0  0  0  0  0  0  0
  160.4460  211.5950  153.0490 C   0  0  2  0  0  3  0  0  0  0  0  0
  160.5600  209.2190  157.2610 O   0  0  0  0  0  1  0  0  0  0  0  0
  160.6130  207.9610  153.8050 C   0  0  0  0  0  3  0  0  0  0  0  0
  157.5070  212.9690  156.4260 C   0  0  1  0  0  3  0  0  0  0  0  0
  156.8290  214.0750  155.8440 C   0  0  0  0  0  3  0  0  0  0  0  0
  155.7580  212.8430  154.1720 O   0  0  0  0  0  1  0  0  0  0  0  0
  155.9390  214.0380  154.8900 C   0  0  0  0  0  3  0  0  0  0  0  0
  156.5980  211.8640  156.8230 O   0  0  0  0  0  0  0  0  0  0  0  0
  156.2900  210.7200  155.9620 C   0  0  0  0  0  2  0  0  0  0  0  0
  154.4650  210.9850  157.2570 C   0  0  0  0  0  1  0  0  0  0  0  0
  154.8990  210.3130  156.1090 O   0  0  0  0  0  0  0  0  0  0  0  0
  1  4  1  0  0  0  0
  2  7  1  0  0  0  0
  3  2  1  0  0  0  0
  4  6  2  0  0  0  0
  4  3  1  0  0  0  0
  5  7  2  0  0  0  0
  6  5  1  0  0  0  0
  8 20  1  0  0  0  0
  9 14  1  1  0  0  0
 10 12  1  0  0  0  0
 11 12  1  0  0  0  0
 11 17  2  0  0  0  0
 12  8  2  0  0  0  0
 13 23  1  6  0  0  0
 13 24  1  0  0  0  0
 13 15  1  0  0  0  0
 16 22  2  0  0  0  0
 19 23  1  1  0  0  0
 19  9  1  0  0  0  0
 20 18  1  6  0  0  0
 21 17  1  6  0  0  0
 21 19  1  0  0  0  0
 21 20  1  0  0  0  0
 21  9  1  0  0  0  0
 22 15  1  0  0  0  0
 22  6  1  0  0  0  0
 24 15  1  0  0  0  0
 24 14  1  1  0  0  0
 25 31  2  0  0  0  0
 26 35  1  0  0  0  0
 27 26  2  0  0  0  0
 28 33  2  0  0  0  0
 29 36  2  0  0  0  0
 29 28  1  0  0  0  0
 30 25  1  0  0  0  0
 31 32  1  0  0  0  0
 31 37  1  0  0  0  0
 33 26  1  0  0  0  0
 33 32  1  0  0  0  0
 34  7  1  6  0  0  0
 34 30  1  0  0  0  0
 34 28  1  0  0  0  0
 36 27  1  0  0  0  0
 37 38  1  6  0  0  0
 37 41  1  0  0  0  0
 39 40  1  0  0  0  0
 40 38  2  0  0  0  0
 42 44  1  0  0  0  0
 42 41  1  0  0  0  0
 44 43  1  0  0  0  0
M  END
>  <MODEL>
2

>  <REMARK>
 VINA RESULT:      -6.8      3.367      7.824
  Name = 
  7 active torsions:
  status: ('A' for Active; 'I' for Inactive)
    1  A    between atoms: C_1  and  C_43
    2  A    between atoms: C_15  and  O_29
    3  A    between atoms: C_15  and  O_37
    4  A    between atoms: C_22  and  C_43
    5  A    between atoms: O_29  and  C_43
    6  A    between atoms: C_35  and  C_38
    7  A    between atoms: C_36  and  C_39
                            x       y       z     vdW  Elec       q    Type
                         _______ _______ _______ _____ _____    ______ ____

>  <TORSDO>
F 7

$$$$
=
 OpenBabel11072413453D

 44 50  0  0  1  0  0  0  0  0999 V2000
  161.9900  213.8510  148.7770 N   0  0  0  0  0  1  0  0  0  0  0  0
  161.9270  210.3870  149.9950 C   0  0  0  0  0  2  0  0  0  0  0  0
  162.5800  211.5980  149.6330 N   0  0  0  0  0  2  0  0  0  0  0  0
  162.0230  212.3800  148.6520 C   0  0  0  0  0  0  0  0  0  0  0  0
  161.1760  210.2600  147.7230 C   0  0  0  0  0  3  0  0  0  0  0  0
  161.2910  211.7590  147.6510 C   0  0  0  0  0  0  0  0  0  0  0  0
  161.5220  209.6030  148.7860 C   0  0  0  0  0  0  0  0  0  0  0  0
  159.5310  213.4550  138.3840 C   0  0  0  0  0  3  0  0  0  0  0  0
  160.6830  213.7320  141.6200 C   0  0  2  0  0  3  0  0  0  0  0  0
  157.9780  212.5060  137.0110 O   0  0  0  0  0  1  0  0  0  0  0  0
  157.6690  212.1980  139.4020 C   0  0  0  0  0  3  0  0  0  0  0  0
  158.3630  212.7230  138.2210 C   0  0  0  0  0  0  0  0  0  0  0  0
  160.7260  213.4540  144.2010 C   0  0  2  0  0  3  0  0  0  0  0  0
  161.8210  212.9190  142.5070 C   0  0  0  0  0  2  0  0  0  0  0  0
  161.1070  212.6630  145.2840 N   0  0  0  0  0  0  0  0  0  0  0  0
  159.2980  212.6430  146.8920 O   0  0  0  0  0  0  0  0  0  0  0  0
  158.3690  212.1900  140.5700 C   0  0  0  0  0  3  0  0  0  0  0  0
  161.3130  214.4280  139.2920 O   0  0  0  0  0  1  0  0  0  0  0  0
  159.3590  213.6650  142.1260 C   0  0  1  0  0  3  0  0  0  0  0  0
  160.2440  213.5260  139.4550 C   0  0  1  0  0  3  0  0  0  0  0  0
  159.7880  212.7630  140.8060 C   0  0  1  0  0  0  0  0  0  0  0  0
  160.5490  212.4060  146.6560 C   0  0  0  0  0  0  0  0  0  0  0  0
  159.3520  213.1030  143.5530 C   0  0  0  0  0  2  0  0  0  0  0  0
  161.3920  212.2940  143.8340 C   0  0  1  0  0  3  0  0  0  0  0  0
  161.4180  206.3030  147.5270 N   0  0  0  0  0  0  0  0  0  0  0  0
  161.0670  205.6640  151.8380 C   0  0  0  0  0  0  0  0  0  0  0  0
  161.6610  206.4200  152.8340 C   0  0  0  0  0  3  0  0  0  0  0  0
  161.5460  207.4510  150.3600 C   0  0  0  0  0  0  0  0  0  0  0  0
  162.2640  208.1150  151.3100 C   0  0  0  0  0  3  0  0  0  0  0  0
  162.1190  207.4010  148.0460 N   0  0  0  0  0  2  0  0  0  0  0  0
  161.6940  205.1090  148.2610 C   0  0  0  0  0  0  0  0  0  0  0  0
  161.0310  205.0890  149.4930 O   0  0  0  0  0  0  0  0  0  0  0  0
  161.2060  206.0710  150.5400 C   0  0  0  0  0  0  0  0  0  0  0  0
  161.2900  208.1200  149.0160 C   0  0  2  0  0  3  0  0  0  0  0  0
  160.4540  204.4740  152.0830 O   0  0  0  0  0  1  0  0  0  0  0  0
  162.2680  207.6370  152.5680 C   0  0  0  0  0  3  0  0  0  0  0  0
  161.8640  203.7480  147.4390 C   0  0  1  0  0  3  0  0  0  0  0  0
  160.7930  202.8280  147.6120 C   0  0  0  0  0  3  0  0  0  0  0  0
  161.7000  201.7590  149.4820 O   0  0  0  0  0  1  0  0  0  0  0  0
  160.6320  201.9860  148.5960 C   0  0  0  0  0  3  0  0  0  0  0  0
  162.0010  204.2360  146.0430 O   0  0  0  0  0  0  0  0  0  0  0  0
  161.0850  203.8630  144.9620 C   0  0  0  0  0  2  0  0  0  0  0  0
  161.4600  205.8150  143.9000 C   0  0  0  0  0  1  0  0  0  0  0  0
  160.4170  205.0370  144.4150 O   0  0  0  0  0  0  0  0  0  0  0  0
  3  2  1  0  0  0  0
  4  1  1  0  0  0  0
  4  3  1  0  0  0  0
  5  7  2  0  0  0  0
  6  5  1  0  0  0  0
  6  4  2  0  0  0  0
  7  2  1  0  0  0  0
  8 20  1  0  0  0  0
  9 19  1  0  0  0  0
  9 14  1  1  0  0  0
 10 12  1  0  0  0  0
 11 17  2  0  0  0  0
 12  8  2  0  0  0  0
 12 11  1  0  0  0  0
 13 23  1  6  0  0  0
 13 15  1  0  0  0  0
 15 22  1  0  0  0  0
 19 23  1  1  0  0  0
 20 18  1  1  0  0  0
 20 21  1  0  0  0  0
 21 17  1  1  0  0  0
 21  9  1  0  0  0  0
 21 19  1  0  0  0  0
 22 16  2  0  0  0  0
 22  6  1  0  0  0  0
 24 14  1  1  0  0  0
 24 13  1  0  0  0  0
 24 15  1  0  0  0  0
 25 30  1  0  0  0  0
 25 31  2  0  0  0  0
 26 35  1  0  0  0  0
 26 27  1  0  0  0  0
 28 33  1  0  0  0  0
 28 29  2  0  0  0  0
 29 36  1  0  0  0  0
 30 34  1  0  0  0  0
 31 32  1  0  0  0  0
 32 33  1  0  0  0  0
 33 26  2  0  0  0  0
 34  7  1  1  0  0  0
 34 28  1  0  0  0  0
 36 27  2  0  0  0  0
 37 38  1  6  0  0  0
 37 31  1  0  0  0  0
 38 40  2  0  0  0  0
 40 39  1  0  0  0  0
 41 37  1  0  0  0  0
 42 41  1  0  0  0  0
 43 44  1  0  0  0  0
 44 42  1  0  0  0  0
M  END
>  <MODEL>
3

>  <REMARK>
 VINA RESULT:      -5.9      3.581      5.152
  Name = 
  7 active torsions:
  status: ('A' for Active; 'I' for Inactive)
    1  A    between atoms: C_1  and  C_43
    2  A    between atoms: C_15  and  O_29
    3  A    between atoms: C_15  and  O_37
    4  A    between atoms: C_22  and  C_43
    5  A    between atoms: O_29  and  C_43
    6  A    between atoms: C_35  and  C_38
    7  A    between atoms: C_36  and  C_39
                            x       y       z     vdW  Elec       q    Type
                         _______ _______ _______ _____ _____    ______ ____

>  <TORSDO>
F 7

$$$$
=
 OpenBabel11072413453D

 44 50  0  0  1  0  0  0  0  0999 V2000
  157.6840  214.4530  146.2130 N   0  0  0  0  0  1  0  0  0  0  0  0
  156.9520  213.3060  149.6240 C   0  0  0  0  0  2  0  0  0  0  0  0
  156.9230  214.2570  148.5660 N   0  0  0  0  0  2  0  0  0  0  0  0
  157.9480  214.2600  147.6530 C   0  0  0  0  0  0  0  0  0  0  0  0
  159.3430  213.4480  149.5160 C   0  0  0  0  0  3  0  0  0  0  0  0
  159.2060  213.8540  148.0730 C   0  0  0  0  0  0  0  0  0  0  0  0
  158.3040  213.2450  150.2650 C   0  0  0  0  0  0  0  0  0  0  0  0
  162.9650  212.1570  139.4220 C   0  0  0  0  0  3  0  0  0  0  0  0
  161.7700  211.7520  142.6290 C   0  0  2  0  0  3  0  0  0  0  0  0
  163.7860  213.6320  137.8890 O   0  0  0  0  0  1  0  0  0  0  0  0
  163.4870  214.4530  140.1570 C   0  0  0  0  0  3  0  0  0  0  0  0
  163.4450  213.4230  139.1130 C   0  0  0  0  0  0  0  0  0  0  0  0
  161.1890  212.3600  145.0850 C   0  0  2  0  0  3  0  0  0  0  0  0
  160.2590  211.7950  143.3050 C   0  0  0  0  0  2  0  0  0  0  0  0
  160.2500  212.8960  145.9640 N   0  0  0  0  0  0  0  0  0  0  0  0
  161.4050  214.3190  147.5460 O   0  0  0  0  0  0  0  0  0  0  0  0
  162.7700  214.2090  141.2880 C   0  0  0  0  0  3  0  0  0  0  0  0
  162.0490  210.4440  140.5050 O   0  0  0  0  0  1  0  0  0  0  0  0
  162.6820  212.7230  143.1200 C   0  0  1  0  0  3  0  0  0  0  0  0
  162.2990  211.8290  140.4750 C   0  0  1  0  0  3  0  0  0  0  0  0
  161.9870  212.9170  141.6300 C   0  0  1  0  0  0  0  0  0  0  0  0
  160.3240  213.6690  147.2520 C   0  0  0  0  0  0  0  0  0  0  0  0
  162.1340  213.3870  144.3890 C   0  0  0  0  0  2  0  0  0  0  0  0
  160.0140  212.7580  144.4670 C   0  0  1  0  0  3  0  0  0  0  0  0
  160.1390  211.9180  152.9780 N   0  0  0  0  0  0  0  0  0  0  0  0
  156.1760  212.4960  154.7310 C   0  0  0  0  0  0  0  0  0  0  0  0
  155.2800  213.5060  154.4270 C   0  0  0  0  0  3  0  0  0  0  0  0
  157.3130  213.0650  152.7340 C   0  0  0  0  0  0  0  0  0  0  0  0
  156.5180  214.1530  152.5280 C   0  0  0  0  0  3  0  0  0  0  0  0
  159.6450  213.0040  152.2390 N   0  0  0  0  0  2  0  0  0  0  0  0
  159.8010  212.0280  154.3610 C   0  0  0  0  0  0  0  0  0  0  0  0
  158.4570  211.7160  154.5960 O   0  0  0  0  0  0  0  0  0  0  0  0
  157.3340  212.4130  154.0100 C   0  0  0  0  0  0  0  0  0  0  0  0
  158.3340  212.6770  151.6730 C   0  0  2  0  0  3  0  0  0  0  0  0
  156.0100  211.6590  155.7920 O   0  0  0  0  0  1  0  0  0  0  0  0
  155.4560  214.3390  153.3350 C   0  0  0  0  0  3  0  0  0  0  0  0
  160.9050  211.6020  155.4370 C   0  0  1  0  0  3  0  0  0  0  0  0
  160.5630  211.9260  156.7790 C   0  0  0  0  0  3  0  0  0  0  0  0
  160.5090  214.2400  156.4580 O   0  0  0  0  0  1  0  0  0  0  0  0
  160.2650  213.1050  157.2510 C   0  0  0  0  0  3  0  0  0  0  0  0
  161.0330  210.1420  155.1980 O   0  0  0  0  0  0  0  0  0  0  0  0
  160.4210  209.1250  156.0570 C   0  0  0  0  0  2  0  0  0  0  0  0
  160.0340  206.9300  156.3900 C   0  0  0  0  0  1  0  0  0  0  0  0
  160.9060  207.7940  155.7180 O   0  0  0  0  0  0  0  0  0  0  0  0
  1  4  1  0  0  0  0
  2  7  1  0  0  0  0
  3  2  1  0  0  0  0
  4  6  2  0  0  0  0
  4  3  1  0  0  0  0
  5  7  2  0  0  0  0
  6  5  1  0  0  0  0
  8 20  1  0  0  0  0
  9 19  1  0  0  0  0
  9 14  1  1  0  0  0
 10 12  1  0  0  0  0
 11 17  2  0  0  0  0
 12  8  2  0  0  0  0
 12 11  1  0  0  0  0
 13 23  1  6  0  0  0
 13 15  1  0  0  0  0
 15 22  1  0  0  0  0
 19 23  1  1  0  0  0
 20 18  1  1  0  0  0
 20 21  1  0  0  0  0
 21 17  1  6  0  0  0
 21  9  1  0  0  0  0
 21 19  1  0  0  0  0
 22 16  2  0  0  0  0
 22  6  1  0  0  0  0
 24 14  1  1  0  0  0
 24 13  1  0  0  0  0
 24 15  1  0  0  0  0
 25 31  2  0  0  0  0
 26 35  1  0  0  0  0
 27 26  1  0  0  0  0
 28 33  1  0  0  0  0
 29 28  2  0  0  0  0
 29 36  1  0  0  0  0
 30 25  1  0  0  0  0
 31 32  1  0  0  0  0
 31 37  1  0  0  0  0
 33 32  1  0  0  0  0
 33 26  2  0  0  0  0
 34  7  1  6  0  0  0
 34 30  1  0  0  0  0
 34 28  1  0  0  0  0
 36 27  2  0  0  0  0
 37 38  1  1  0  0  0
 38 40  2  0  0  0  0
 39 40  1  0  0  0  0
 41 37  1  0  0  0  0
 41 42  1  0  0  0  0
 44 42  1  0  0  0  0
 44 43  1  0  0  0  0
M  END
>  <MODEL>
4

>  <REMARK>
 VINA RESULT:      -5.6      3.099      5.744
  Name = 
  7 active torsions:
  status: ('A' for Active; 'I' for Inactive)
    1  A    between atoms: C_1  and  C_43
    2  A    between atoms: C_15  and  O_29
    3  A    between atoms: C_15  and  O_37
    4  A    between atoms: C_22  and  C_43
    5  A    between atoms: O_29  and  C_43
    6  A    between atoms: C_35  and  C_38
    7  A    between atoms: C_36  and  C_39
                            x       y       z     vdW  Elec       q    Type
                         _______ _______ _______ _____ _____    ______ ____

>  <TORSDO>
F 7

$$$$
=
 OpenBabel11072413453D

 44 50  0  0  1  0  0  0  0  0999 V2000
  162.2730  214.4390  148.4120 N   0  0  0  0  0  1  0  0  0  0  0  0
  162.0540  211.0130  149.7150 C   0  0  0  0  0  2  0  0  0  0  0  0
  162.7620  212.1700  149.2880 N   0  0  0  0  0  2  0  0  0  0  0  0
  162.2020  212.9670  148.3210 C   0  0  0  0  0  0  0  0  0  0  0  0
  161.1660  210.8890  147.4920 C   0  0  0  0  0  3  0  0  0  0  0  0
  161.3750  212.3750  147.3780 C   0  0  0  0  0  0  0  0  0  0  0  0
  161.5300  210.2330  148.5500 C   0  0  0  0  0  0  0  0  0  0  0  0
  158.8380  213.6470  138.2240 C   0  0  0  0  0  3  0  0  0  0  0  0
  160.3700  213.9840  141.2920 C   0  0  2  0  0  3  0  0  0  0  0  0
  157.0280  212.8340  137.1000 O   0  0  0  0  0  1  0  0  0  0  0  0
  156.9490  212.7440  139.5270 C   0  0  0  0  0  3  0  0  0  0  0  0
  157.5710  213.0800  138.2410 C   0  0  0  0  0  0  0  0  0  0  0  0
  160.6620  213.8860  143.8700 C   0  0  2  0  0  3  0  0  0  0  0  0
  161.4800  213.0820  142.1270 C   0  0  0  0  0  2  0  0  0  0  0  0
  161.0510  213.1270  144.9730 N   0  0  0  0  0  0  0  0  0  0  0  0
  159.4460  213.4790  146.7500 O   0  0  0  0  0  0  0  0  0  0  0  0
  157.7670  212.7180  140.6150 C   0  0  0  0  0  3  0  0  0  0  0  0
  160.8240  214.4170  138.8620 O   0  0  0  0  0  1  0  0  0  0  0  0
  159.1130  214.1430  141.9320 C   0  0  1  0  0  3  0  0  0  0  0  0
  159.6690  213.6910  139.2070 C   0  0  1  0  0  3  0  0  0  0  0  0
  159.2680  213.0980  140.6570 C   0  0  1  0  0  0  0  0  0  0  0  0
  160.6200  213.0500  146.4100 C   0  0  0  0  0  0  0  0  0  0  0  0
  159.1900  213.6900  143.3950 C   0  0  0  0  0  2  0  0  0  0  0  0
  161.1210  212.6190  143.5390 C   0  0  1  0  0  3  0  0  0  0  0  0
  161.1540  206.9190  147.3820 N   0  0  0  0  0  0  0  0  0  0  0  0
  160.9720  206.4010  151.7190 C   0  0  0  0  0  0  0  0  0  0  0  0
  161.6610  207.1390  152.6670 C   0  0  0  0  0  3  0  0  0  0  0  0
  161.4920  208.1200  150.1750 C   0  0  0  0  0  0  0  0  0  0  0  0
  162.2960  208.7570  151.0730 C   0  0  0  0  0  3  0  0  0  0  0  0
  161.9490  207.9800  147.8390 N   0  0  0  0  0  2  0  0  0  0  0  0
  161.3890  205.7260  148.1320 C   0  0  0  0  0  0  0  0  0  0  0  0
  160.7870  205.7770  149.3940 O   0  0  0  0  0  0  0  0  0  0  0  0
  161.0740  206.7690  150.4070 C   0  0  0  0  0  0  0  0  0  0  0  0
  161.2150  208.7730  148.8280 C   0  0  2  0  0  3  0  0  0  0  0  0
  160.2980  205.2590  152.0240 O   0  0  0  0  0  1  0  0  0  0  0  0
  162.3300  208.3080  152.3420 C   0  0  0  0  0  3  0  0  0  0  0  0
  161.4310  204.3390  147.3380 C   0  0  1  0  0  3  0  0  0  0  0  0
  162.6150  204.1420  146.5760 C   0  0  0  0  0  3  0  0  0  0  0  0
  161.7960  205.1080  144.6130 O   0  0  0  0  0  1  0  0  0  0  0  0
  162.8550  204.5800  145.3700 C   0  0  0  0  0  3  0  0  0  0  0  0
  161.2610  203.3450  148.4290 O   0  0  0  0  0  0  0  0  0  0  0  0
  160.8310  201.9630  148.2040 C   0  0  0  0  0  2  0  0  0  0  0  0
  161.1460  202.0230  150.4350 C   0  0  0  0  0  1  0  0  0  0  0  0
  161.1310  201.1270  149.3590 O   0  0  0  0  0  0  0  0  0  0  0  0
  3  2  1  0  0  0  0
  4  1  1  0  0  0  0
  4  3  1  0  0  0  0
  5  7  2  0  0  0  0
  6  5  1  0  0  0  0
  6  4  2  0  0  0  0
  7  2  1  0  0  0  0
  8 12  2  0  0  0  0
  8 20  1  0  0  0  0
  9 19  1  0  0  0  0
  9 14  1  1  0  0  0
 10 12  1  0  0  0  0
 11 17  2  0  0  0  0
 12 11  1  0  0  0  0
 13 23  1  1  0  0  0
 13 15  1  0  0  0  0
 15 22  1  0  0  0  0
 19 23  1  1  0  0  0
 20 18  1  1  0  0  0
 20 21  1  0  0  0  0
 21 17  1  1  0  0  0
 21  9  1  0  0  0  0
 21 19  1  0  0  0  0
 22 16  2  0  0  0  0
 22  6  1  0  0  0  0
 24 14  1  6  0  0  0
 24 13  1  0  0  0  0
 24 15  1  0  0  0  0
 25 30  1  0  0  0  0
 25 31  2  0  0  0  0
 26 35  1  0  0  0  0
 26 27  1  0  0  0  0
 28 33  1  0  0  0  0
 28 29  2  0  0  0  0
 29 36  1  0  0  0  0
 30 34  1  0  0  0  0
 31 32  1  0  0  0  0
 32 33  1  0  0  0  0
 33 26  2  0  0  0  0
 34  7  1  1  0  0  0
 34 28  1  0  0  0  0
 36 27  2  0  0  0  0
 37 38  1  1  0  0  0
 37 31  1  0  0  0  0
 37 41  1  0  0  0  0
 39 40  1  0  0  0  0
 40 38  2  0  0  0  0
 42 41  1  0  0  0  0
 42 44  1  0  0  0  0
 44 43  1  0  0  0  0
M  END
>  <MODEL>
5

>  <REMARK>
 VINA RESULT:      -5.4      3.594      5.442
  Name = 
  7 active torsions:
  status: ('A' for Active; 'I' for Inactive)
    1  A    between atoms: C_1  and  C_43
    2  A    between atoms: C_15  and  O_29
    3  A    between atoms: C_15  and  O_37
    4  A    between atoms: C_22  and  C_43
    5  A    between atoms: O_29  and  C_43
    6  A    between atoms: C_35  and  C_38
    7  A    between atoms: C_36  and  C_39
                            x       y       z     vdW  Elec       q    Type
                         _______ _______ _______ _____ _____    ______ ____

>  <TORSDO>
F 7

$$$$
