=
 OpenBabel11072412443D

 55 59  0  0  1  0  0  0  0  0999 V2000
  159.3650  212.2810  153.5910 C   0  0  1  0  0  3  0  0  0  0  0  0
  161.4310  207.8940  153.0270 O   0  0  0  0  0  0  0  0  0  0  0  0
  159.9370  213.1930  152.5880 N   0  0  0  0  0  2  0  0  0  0  0  0
  161.0990  212.6150  151.8960 C   0  0  0  0  0  2  0  0  0  0  0  0
  160.1410  207.8170  153.5990 C   0  0  0  0  0  2  0  0  0  0  0  0
  160.7310  209.0920  156.2800 N   0  0  0  0  0  0  0  0  0  0  0  0
  160.4260  207.0050  157.2610 F   0  0  0  0  0  0  0  0  0  0  0  0
  158.3990  209.2300  156.0440 O   0  0  0  0  0  0  0  0  0  0  0  0
  159.5370  211.2660  155.8760 N   0  0  0  0  0  2  0  0  0  0  0  0
  160.2690  212.0390  154.8490 C   0  0  1  0  0  3  0  0  0  0  0  0
  161.2430  210.2580  153.5190 C   0  0  1  0  0  3  0  0  0  0  0  0
  162.2020  207.3040  155.9270 F   0  0  0  0  0  0  0  0  0  0  0  0
  159.5120  209.8290  156.0310 C   0  0  0  0  0  0  0  0  0  0  0  0
  160.0770  207.0430  154.9180 C   0  0  0  0  0  2  0  0  0  0  0  0
  161.4560  210.1350  151.1550 C   0  0  2  0  0  3  0  0  0  0  0  0
  161.7690  209.7580  157.0700 C   0  0  0  0  0  1  0  0  0  0  0  0
  160.7820  211.5430  150.8000 C   0  0  1  0  0  0  0  0  0  0  0  0
  159.3950  211.3440  150.7290 O   0  0  0  0  0  1  0  0  0  0  0  0
  160.8650  207.6300  156.1060 C   0  0  0  0  0  0  0  0  0  0  0  0
  162.2870  210.1520  152.4530 C   0  0  2  0  0  3  0  0  0  0  0  0
  162.1150  209.0360  153.5160 C   0  0  2  0  0  3  0  0  0  0  0  0
  161.5940  211.3520  154.4900 C   0  0  0  0  0  2  0  0  0  0  0  0
  160.1500  213.4020  147.6140 C   0  0  1  0  0  3  0  0  0  0  0  0
  160.7420  213.4130  148.9740 C   0  0  0  0  0  0  0  0  0  0  0  0
  161.2830  212.0900  149.4180 C   0  0  2  0  0  3  0  0  0  0  0  0
  160.4460  212.0100  147.0780 C   0  0  0  0  0  2  0  0  0  0  0  0
  160.9310  214.4490  149.5870 O   0  0  0  0  0  0  0  0  0  0  0  0
  160.9170  211.1510  148.2600 C   0  0  0  0  0  2  0  0  0  0  0  0
  157.8990  212.5420  147.3460 O   0  0  0  0  0  1  0  0  0  0  0  0
  158.6470  213.6890  147.6480 C   0  0  0  0  0  2  0  0  0  0  0  0
  162.2910  209.5160  150.0180 C   0  0  0  0  0  2  0  0  0  0  0  0
  162.2150  208.0260  149.9620 C   0  0  0  0  0  0  0  0  0  0  0  0
  162.9310  207.3520  150.7540 O   0  0  0  0  0  0  0  0  0  0  0  0
  161.3860  207.3950  149.0240 O   0  0  0  0  0  0  0  0  0  0  0  0
  161.7250  206.1440  148.4110 C   0  0  2  0  0  3  0  0  0  0  0  0
  160.4600  206.1880  146.3790 O   0  0  0  0  0  1  0  0  0  0  0  0
  161.7580  206.2870  146.8870 C   0  0  2  0  0  3  0  0  0  0  0  0
  162.6420  205.2320  146.2360 C   0  0  0  0  0  1  0  0  0  0  0  0
  160.7430  205.0370  148.8080 C   0  0  0  0  0  2  0  0  0  0  0  0
  160.0740  204.2680  150.9680 O   0  0  0  0  0  1  0  0  0  0  0  0
  161.1690  204.3300  150.0970 C   0  0  1  0  0  3  0  0  0  0  0  0
  161.6560  202.9130  149.8050 C   0  0  0  0  0  2  0  0  0  0  0  0
  159.6610  201.8550  149.0390 O   0  0  0  0  0  0  0  0  0  0  0  0
  161.3020  202.1820  147.4100 N   0  0  0  0  0  2  0  0  0  0  0  0
  160.8080  202.2890  148.7470 C   0  0  0  0  0  0  0  0  0  0  0  0
  160.5750  201.4720  146.3820 C   0  0  0  0  0  2  0  0  0  0  0  0
  160.4460  202.3430  145.1510 C   0  0  0  0  0  1  0  0  0  0  0  0
  157.9580  212.7370  153.9750 C   0  0  0  0  0  2  0  0  0  0  0  0
  157.0760  211.5740  154.3980 C   0  0  0  0  0  2  0  0  0  0  0  0
  155.7870  212.0400  154.6590 O   0  0  0  0  0  0  0  0  0  0  0  0
  156.6350  212.6220  156.8980 C   0  0  0  0  0  2  0  0  0  0  0  0
  155.5890  211.9220  156.0460 C   0  0  0  0  0  0  0  0  0  0  0  0
  155.2230  213.1960  156.7870 C   0  0  0  0  0  2  0  0  0  0  0  0
  155.0690  210.7240  156.5730 O   0  0  0  0  0  0  0  0  0  0  0  0
  154.7800  209.9030  155.4820 C   0  0  0  0  0  1  0  0  0  0  0  0
  1 48  1  1  0  0  0
  1 10  1  0  0  0  0
  2 21  1  0  0  0  0
  2  5  1  0  0  0  0
  3  1  1  0  0  0  0
  4  3  1  0  0  0  0
  5 14  1  0  0  0  0
  6 16  1  0  0  0  0
  9 13  1  0  0  0  0
 10 22  1  6  0  0  0
 10  9  1  0  0  0  0
 11 22  1  1  0  0  0
 12 19  1  0  0  0  0
 13  8  2  0  0  0  0
 13  6  1  0  0  0  0
 14 19  1  0  0  0  0
 15 31  1  6  0  0  0
 15 20  1  0  0  0  0
 17 18  1  6  0  0  0
 17 15  1  0  0  0  0
 17  4  1  0  0  0  0
 19  6  1  0  0  0  0
 19  7  1  0  0  0  0
 20 21  1  0  0  0  0
 20 11  1  0  0  0  0
 21 11  1  0  0  0  0
 23 30  1  0  0  0  0
 23 24  1  0  0  0  0
 24 25  1  0  0  0  0
 24 27  2  0  0  0  0
 25 17  1  0  0  0  0
 26 23  1  0  0  0  0
 26 28  1  0  0  0  0
 28 25  1  0  0  0  0
 29 30  1  0  0  0  0
 32 31  1  0  0  0  0
 32 33  2  0  0  0  0
 34 32  1  0  0  0  0
 35 39  1  0  0  0  0
 35 34  1  0  0  0  0
 36 37  1  0  0  0  0
 37 35  1  0  0  0  0
 38 37  1  0  0  0  0
 39 41  1  0  0  0  0
 41 40  1  0  0  0  0
 42 41  1  0  0  0  0
 44 45  1  0  0  0  0
 45 43  2  0  0  0  0
 45 42  1  0  0  0  0
 46 44  1  0  0  0  0
 47 46  1  0  0  0  0
 48 49  1  0  0  0  0
 49 50  1  0  0  0  0
 50 52  1  0  0  0  0
 52 54  1  0  0  0  0
 52 53  1  0  0  0  0
 52 51  1  0  0  0  0
 53 51  1  0  0  0  0
 55 54  1  0  0  0  0
M  END
>  <MODEL>
1

>  <REMARK>
 VINA RESULT:      -2.7      0.000      0.000
  Name = 
  17 active torsions:
  status: ('A' for Active; 'I' for Inactive)
    1  A    between atoms: C_3  and  C_35
    2  A    between atoms: C_3  and  C_54
    3  A    between atoms: C_4  and  C_37
    4  A    between atoms: C_5  and  C_43
    5  A    between atoms: O_7  and  C_33
    6  A    between atoms: C_9  and  C_14
    7  A    between atoms: C_9  and  C_29
    8  A    between atoms: C_14  and  O_28
    9  A    between atoms: C_16  and  C_49
   10  A    between atoms: C_27  and  O_32
   11  A    between atoms: C_27  and  C_37
   12  A    between atoms: O_28  and  C_43
   13  A    between atoms: C_31  and  C_39
   14  A    between atoms: O_32  and  C_33
   15  A    between atoms: C_35  and  C_44
   16  A    between atoms: C_36  and  N_51
   17  A    between atoms: C_43  and  C_44
                            x       y       z     vdW  Elec       q    Type
                         _______ _______ _______ _____ _____    ______ ____

>  <TORSDO>
F 17

$$$$
=
 OpenBabel11072412443D

 55 59  0  0  1  0  0  0  0  0999 V2000
  159.2470  212.3630  153.9340 C   0  0  1  0  0  3  0  0  0  0  0  0
  161.3920  208.0750  153.0180 O   0  0  0  0  0  0  0  0  0  0  0  0
  159.7470  213.3470  152.9620 N   0  0  0  0  0  2  0  0  0  0  0  0
  160.8900  212.8430  152.1840 C   0  0  0  0  0  2  0  0  0  0  0  0
  160.1330  207.9300  153.6440 C   0  0  0  0  0  2  0  0  0  0  0  0
  160.8180  209.0640  156.3650 N   0  0  0  0  0  0  0  0  0  0  0  0
  160.6120  206.9160  157.2340 F   0  0  0  0  0  0  0  0  0  0  0  0
  158.4740  209.1510  156.2450 O   0  0  0  0  0  0  0  0  0  0  0  0
  159.5520  211.2230  156.1450 N   0  0  0  0  0  2  0  0  0  0  0  0
  160.2150  212.0740  155.1330 C   0  0  1  0  0  3  0  0  0  0  0  0
  161.1690  210.4010  153.6570 C   0  0  1  0  0  3  0  0  0  0  0  0
  162.3150  207.3400  155.8400 F   0  0  0  0  0  0  0  0  0  0  0  0
  159.5710  209.7800  156.2170 C   0  0  0  0  0  0  0  0  0  0  0  0
  160.1510  207.0800  154.9160 C   0  0  0  0  0  2  0  0  0  0  0  0
  161.2720  210.4210  151.2820 C   0  0  2  0  0  3  0  0  0  0  0  0
  161.8760  209.7110  157.1440 C   0  0  0  0  0  1  0  0  0  0  0  0
  160.5480  211.8270  151.0430 C   0  0  1  0  0  0  0  0  0  0  0  0
  159.1640  211.5960  151.0240 O   0  0  0  0  0  1  0  0  0  0  0  0
  160.9800  207.6180  156.0990 C   0  0  0  0  0  0  0  0  0  0  0  0
  162.1630  210.3860  152.5400 C   0  0  2  0  0  3  0  0  0  0  0  0
  162.0700  209.2060  153.5420 C   0  0  2  0  0  3  0  0  0  0  0  0
  161.5390  211.4460  154.6740 C   0  0  0  0  0  2  0  0  0  0  0  0
  159.6660  213.0730  147.6260 C   0  0  1  0  0  3  0  0  0  0  0  0
  159.9930  213.4060  149.0330 C   0  0  0  0  0  0  0  0  0  0  0  0
  160.9680  212.4670  149.6740 C   0  0  2  0  0  3  0  0  0  0  0  0
  160.5930  211.9200  147.2780 C   0  0  0  0  0  2  0  0  0  0  0  0
  159.6390  214.4510  149.5490 O   0  0  0  0  0  0  0  0  0  0  0  0
  161.2030  211.4060  148.5900 C   0  0  0  0  0  2  0  0  0  0  0  0
  157.3430  213.7310  147.8530 O   0  0  0  0  0  1  0  0  0  0  0  0
  158.1940  212.6870  147.4620 C   0  0  0  0  0  2  0  0  0  0  0  0
  162.0680  209.8920  150.0740 C   0  0  0  0  0  2  0  0  0  0  0  0
  162.0760  208.4020  149.9680 C   0  0  0  0  0  0  0  0  0  0  0  0
  163.1860  207.8040  149.9230 O   0  0  0  0  0  0  0  0  0  0  0  0
  160.8700  207.6920  149.8890 O   0  0  0  0  0  0  0  0  0  0  0  0
  160.8180  206.2820  149.6390 C   0  0  2  0  0  3  0  0  0  0  0  0
  162.3810  204.8710  150.7780 O   0  0  0  0  0  1  0  0  0  0  0  0
  161.1410  205.5010  150.9150 C   0  0  2  0  0  3  0  0  0  0  0  0
  160.0740  204.4620  151.2320 C   0  0  0  0  0  1  0  0  0  0  0  0
  161.7800  205.8710  148.5200 C   0  0  0  0  0  2  0  0  0  0  0  0
  160.7960  206.6030  146.4700 O   0  0  0  0  0  1  0  0  0  0  0  0
  161.0360  205.4620  147.2470 C   0  0  1  0  0  3  0  0  0  0  0  0
  161.8580  204.4670  146.4310 C   0  0  0  0  0  2  0  0  0  0  0  0
  160.7800  202.4780  145.6800 O   0  0  0  0  0  0  0  0  0  0  0  0
  161.4620  202.4560  147.9140 N   0  0  0  0  0  2  0  0  0  0  0  0
  161.3350  203.0850  146.6350 C   0  0  0  0  0  0  0  0  0  0  0  0
  160.8580  201.1750  148.1970 C   0  0  0  0  0  2  0  0  0  0  0  0
  159.8380  201.3220  149.3050 C   0  0  0  0  0  1  0  0  0  0  0  0
  157.8490  212.7580  154.4090 C   0  0  0  0  0  2  0  0  0  0  0  0
  156.9180  211.5610  154.4990 C   0  0  0  0  0  2  0  0  0  0  0  0
  155.6280  211.9970  154.8030 O   0  0  0  0  0  0  0  0  0  0  0  0
  154.6660  211.7000  157.0510 C   0  0  0  0  0  2  0  0  0  0  0  0
  155.6500  212.4190  156.1440 C   0  0  0  0  0  0  0  0  0  0  0  0
  156.1630  211.4150  157.1600 C   0  0  0  0  0  2  0  0  0  0  0  0
  155.8810  213.7770  156.4400 O   0  0  0  0  0  0  0  0  0  0  0  0
  157.0590  213.8260  157.1850 C   0  0  0  0  0  1  0  0  0  0  0  0
  1 48  1  1  0  0  0
  1 10  1  0  0  0  0
  2 21  1  0  0  0  0
  2  5  1  0  0  0  0
  3  1  1  0  0  0  0
  4  3  1  0  0  0  0
  5 14  1  0  0  0  0
  6 16  1  0  0  0  0
  9 13  1  0  0  0  0
 10 22  1  6  0  0  0
 10  9  1  0  0  0  0
 11 22  1  1  0  0  0
 12 19  1  0  0  0  0
 13  8  2  0  0  0  0
 13  6  1  0  0  0  0
 14 19  1  0  0  0  0
 15 31  1  6  0  0  0
 15 20  1  0  0  0  0
 17 18  1  6  0  0  0
 17 15  1  0  0  0  0
 17  4  1  0  0  0  0
 19  6  1  0  0  0  0
 19  7  1  0  0  0  0
 20 21  1  0  0  0  0
 20 11  1  0  0  0  0
 21 11  1  0  0  0  0
 23 24  1  0  0  0  0
 24 27  2  0  0  0  0
 24 25  1  0  0  0  0
 25 17  1  0  0  0  0
 26 23  1  0  0  0  0
 26 28  1  0  0  0  0
 28 25  1  0  0  0  0
 30 23  1  0  0  0  0
 30 29  1  0  0  0  0
 32 31  1  0  0  0  0
 33 32  2  0  0  0  0
 34 32  1  0  0  0  0
 35 34  1  0  0  0  0
 35 37  1  0  0  0  0
 36 37  1  0  0  0  0
 37 38  1  0  0  0  0
 39 35  1  0  0  0  0
 40 41  1  0  0  0  0
 41 39  1  0  0  0  0
 42 45  1  0  0  0  0
 42 41  1  0  0  0  0
 43 45  2  0  0  0  0
 44 46  1  0  0  0  0
 45 44  1  0  0  0  0
 46 47  1  0  0  0  0
 48 49  1  0  0  0  0
 49 50  1  0  0  0  0
 50 52  1  0  0  0  0
 51 53  1  0  0  0  0
 52 54  1  0  0  0  0
 52 51  1  0  0  0  0
 52 53  1  0  0  0  0
 54 55  1  0  0  0  0
M  END
>  <MODEL>
2

>  <REMARK>
 VINA RESULT:      -2.1      1.086      2.010
  Name = 
  17 active torsions:
  status: ('A' for Active; 'I' for Inactive)
    1  A    between atoms: C_3  and  C_35
    2  A    between atoms: C_3  and  C_54
    3  A    between atoms: C_4  and  C_37
    4  A    between atoms: C_5  and  C_43
    5  A    between atoms: O_7  and  C_33
    6  A    between atoms: C_9  and  C_14
    7  A    between atoms: C_9  and  C_29
    8  A    between atoms: C_14  and  O_28
    9  A    between atoms: C_16  and  C_49
   10  A    between atoms: C_27  and  O_32
   11  A    between atoms: C_27  and  C_37
   12  A    between atoms: O_28  and  C_43
   13  A    between atoms: C_31  and  C_39
   14  A    between atoms: O_32  and  C_33
   15  A    between atoms: C_35  and  C_44
   16  A    between atoms: C_36  and  N_51
   17  A    between atoms: C_43  and  C_44
                            x       y       z     vdW  Elec       q    Type
                         _______ _______ _______ _____ _____    ______ ____

>  <TORSDO>
F 17

$$$$
=
 OpenBabel11072412443D

 55 59  0  0  1  0  0  0  0  0999 V2000
  161.0930  206.3460  152.7250 C   0  0  1  0  0  3  0  0  0  0  0  0
  162.6010  210.9860  152.8820 O   0  0  0  0  0  0  0  0  0  0  0  0
  160.6320  206.0560  151.3580 N   0  0  0  0  0  2  0  0  0  0  0  0
  160.5260  207.2660  150.5290 C   0  0  0  0  0  2  0  0  0  0  0  0
  163.2360  210.1750  153.8510 C   0  0  0  0  0  2  0  0  0  0  0  0
  160.8590  209.6190  155.6390 N   0  0  0  0  0  0  0  0  0  0  0  0
  161.8540  210.9590  157.2600 F   0  0  0  0  0  0  0  0  0  0  0  0
  162.4240  207.9520  156.1760 O   0  0  0  0  0  0  0  0  0  0  0  0
  160.5370  207.2070  155.0120 N   0  0  0  0  0  2  0  0  0  0  0  0
  160.0650  207.1280  153.6120 C   0  0  1  0  0  3  0  0  0  0  0  0
  161.0920  209.1060  152.6520 C   0  0  1  0  0  3  0  0  0  0  0  0
  161.1150  211.9330  155.3820 F   0  0  0  0  0  0  0  0  0  0  0  0
  161.3380  208.2550  155.6030 C   0  0  0  0  0  0  0  0  0  0  0  0
  163.1350  210.7030  155.2830 C   0  0  0  0  0  2  0  0  0  0  0  0
  162.1070  209.3460  150.5160 C   0  0  2  0  0  3  0  0  0  0  0  0
  159.4150  209.8200  155.7850 C   0  0  0  0  0  1  0  0  0  0  0  0
  161.8760  207.8510  149.9940 C   0  0  1  0  0  0  0  0  0  0  0  0
  162.9420  207.0670  150.4610 O   0  0  0  0  0  1  0  0  0  0  0  0
  161.7210  210.7930  155.8920 C   0  0  0  0  0  0  0  0  0  0  0  0
  160.9540  209.8880  151.3850 C   0  0  2  0  0  3  0  0  0  0  0  0
  161.2450  210.5970  152.7320 C   0  0  2  0  0  3  0  0  0  0  0  0
  159.7630  208.5280  153.0580 C   0  0  0  0  0  2  0  0  0  0  0  0
  161.6100  205.8810  146.8230 C   0  0  1  0  0  3  0  0  0  0  0  0
  160.9430  206.7740  147.8020 C   0  0  0  0  0  0  0  0  0  0  0  0
  161.8520  207.7850  148.4270 C   0  0  2  0  0  3  0  0  0  0  0  0
  163.0210  206.4340  146.6980 C   0  0  0  0  0  2  0  0  0  0  0  0
  159.7330  206.7940  147.9370 O   0  0  0  0  0  0  0  0  0  0  0  0
  163.2290  207.4330  147.8440 C   0  0  0  0  0  2  0  0  0  0  0  0
  161.9470  203.5490  146.2510 O   0  0  0  0  0  1  0  0  0  0  0  0
  161.6120  204.4240  147.2940 C   0  0  0  0  0  2  0  0  0  0  0  0
  162.4450  210.3690  149.4150 C   0  0  0  0  0  2  0  0  0  0  0  0
  161.4080  211.4290  149.2440 C   0  0  0  0  0  0  0  0  0  0  0  0
  161.2750  212.2990  150.1480 O   0  0  0  0  0  0  0  0  0  0  0  0
  160.5790  211.4310  148.1120 O   0  0  0  0  0  0  0  0  0  0  0  0
  160.2060  212.6340  147.4290 C   0  0  2  0  0  3  0  0  0  0  0  0
  158.2160  213.4080  146.3480 O   0  0  0  0  0  1  0  0  0  0  0  0
  158.6980  212.8680  147.5430 C   0  0  2  0  0  3  0  0  0  0  0  0
  158.3520  213.7970  148.6990 C   0  0  0  0  0  1  0  0  0  0  0  0
  160.6170  212.5960  145.9530 C   0  0  0  0  0  2  0  0  0  0  0  0
  162.2460  214.1350  146.7800 O   0  0  0  0  0  1  0  0  0  0  0  0
  161.6100  213.7080  145.6070 C   0  0  1  0  0  3  0  0  0  0  0  0
  162.6640  213.2090  144.6210 C   0  0  0  0  0  2  0  0  0  0  0  0
  161.3270  214.1280  142.8740 O   0  0  0  0  0  0  0  0  0  0  0  0
  162.4560  212.1560  142.3310 N   0  0  0  0  0  2  0  0  0  0  0  0
  162.1070  213.2060  143.2370 C   0  0  0  0  0  0  0  0  0  0  0  0
  161.8440  212.0380  141.0280 C   0  0  0  0  0  2  0  0  0  0  0  0
  162.5780  210.9990  140.2080 C   0  0  0  0  0  1  0  0  0  0  0  0
  161.5740  205.0620  153.4000 C   0  0  0  0  0  2  0  0  0  0  0  0
  160.8960  203.8280  152.8290 C   0  0  0  0  0  2  0  0  0  0  0  0
  161.8330  203.0620  152.1360 O   0  0  0  0  0  0  0  0  0  0  0  0
  159.7530  203.0240  150.8170 C   0  0  0  0  0  2  0  0  0  0  0  0
  161.1590  202.4950  151.0400 C   0  0  0  0  0  0  0  0  0  0  0  0
  160.8830  203.4160  149.8660 C   0  0  0  0  0  2  0  0  0  0  0  0
  161.3610  201.1350  150.7300 O   0  0  0  0  0  0  0  0  0  0  0  0
  161.0790  200.9920  149.3710 C   0  0  0  0  0  1  0  0  0  0  0  0
  1 48  1  1  0  0  0
  1 10  1  0  0  0  0
  2  5  1  0  0  0  0
  3  1  1  0  0  0  0
  4  3  1  0  0  0  0
  5 14  1  0  0  0  0
  6 16  1  0  0  0  0
  6 19  1  0  0  0  0
  9 13  1  0  0  0  0
 10 22  1  6  0  0  0
 10  9  1  0  0  0  0
 11 21  1  0  0  0  0
 11 22  1  1  0  0  0
 12 19  1  0  0  0  0
 13  6  1  0  0  0  0
 13  8  2  0  0  0  0
 14 19  1  0  0  0  0
 15 31  1  6  0  0  0
 15 20  1  0  0  0  0
 17 18  1  1  0  0  0
 17 15  1  0  0  0  0
 17  4  1  0  0  0  0
 19  7  1  0  0  0  0
 20 11  1  0  0  0  0
 20 21  1  0  0  0  0
 21  2  1  0  0  0  0
 23 30  1  0  0  0  0
 23 24  1  0  0  0  0
 24 27  2  0  0  0  0
 24 25  1  0  0  0  0
 25 17  1  0  0  0  0
 26 23  1  0  0  0  0
 26 28  1  0  0  0  0
 28 25  1  0  0  0  0
 29 30  1  0  0  0  0
 32 31  1  0  0  0  0
 32 33  2  0  0  0  0
 34 32  1  0  0  0  0
 35 37  1  0  0  0  0
 35 34  1  0  0  0  0
 36 37  1  0  0  0  0
 37 38  1  0  0  0  0
 39 35  1  0  0  0  0
 41 39  1  0  0  0  0
 41 40  1  0  0  0  0
 42 41  1  0  0  0  0
 43 45  2  0  0  0  0
 44 45  1  0  0  0  0
 45 42  1  0  0  0  0
 46 44  1  0  0  0  0
 47 46  1  0  0  0  0
 49 48  1  0  0  0  0
 50 49  1  0  0  0  0
 51 52  1  0  0  0  0
 52 50  1  0  0  0  0
 53 51  1  0  0  0  0
 53 52  1  0  0  0  0
 54 52  1  0  0  0  0
 55 54  1  0  0  0  0
M  END
>  <MODEL>
3

>  <REMARK>
 VINA RESULT:      -1.9      2.978      7.765
  Name = 
  17 active torsions:
  status: ('A' for Active; 'I' for Inactive)
    1  A    between atoms: C_3  and  C_35
    2  A    between atoms: C_3  and  C_54
    3  A    between atoms: C_4  and  C_37
    4  A    between atoms: C_5  and  C_43
    5  A    between atoms: O_7  and  C_33
    6  A    between atoms: C_9  and  C_14
    7  A    between atoms: C_9  and  C_29
    8  A    between atoms: C_14  and  O_28
    9  A    between atoms: C_16  and  C_49
   10  A    between atoms: C_27  and  O_32
   11  A    between atoms: C_27  and  C_37
   12  A    between atoms: O_28  and  C_43
   13  A    between atoms: C_31  and  C_39
   14  A    between atoms: O_32  and  C_33
   15  A    between atoms: C_35  and  C_44
   16  A    between atoms: C_36  and  N_51
   17  A    between atoms: C_43  and  C_44
                            x       y       z     vdW  Elec       q    Type
                         _______ _______ _______ _____ _____    ______ ____

>  <TORSDO>
F 17

$$$$
=
 OpenBabel11072412443D

 55 59  0  0  1  0  0  0  0  0999 V2000
  161.0920  206.3950  152.7330 C   0  0  1  0  0  3  0  0  0  0  0  0
  162.6670  211.0120  152.9190 O   0  0  0  0  0  0  0  0  0  0  0  0
  160.6870  206.1000  151.3500 N   0  0  0  0  0  2  0  0  0  0  0  0
  160.6380  207.3050  150.5070 C   0  0  0  0  0  2  0  0  0  0  0  0
  163.2450  210.2000  153.9220 C   0  0  0  0  0  2  0  0  0  0  0  0
  160.7820  209.6970  155.6080 N   0  0  0  0  0  0  0  0  0  0  0  0
  161.7270  211.0350  157.2600 F   0  0  0  0  0  0  0  0  0  0  0  0
  162.2950  208.0100  156.2270 O   0  0  0  0  0  0  0  0  0  0  0  0
  160.4500  207.2850  154.9860 N   0  0  0  0  0  2  0  0  0  0  0  0
  160.0380  207.2010  153.5680 C   0  0  1  0  0  3  0  0  0  0  0  0
  161.1390  209.1540  152.6380 C   0  0  1  0  0  3  0  0  0  0  0  0
  161.0870  212.0040  155.3420 F   0  0  0  0  0  0  0  0  0  0  0  0
  161.2400  208.3260  155.6030 C   0  0  0  0  0  0  0  0  0  0  0  0
  163.0890  210.7410  155.3440 C   0  0  0  0  0  2  0  0  0  0  0  0
  162.2520  209.3590  150.5470 C   0  0  2  0  0  3  0  0  0  0  0  0
  159.3370  209.9220  155.6870 C   0  0  0  0  0  1  0  0  0  0  0  0
  162.0190  207.8630  150.0270 C   0  0  1  0  0  0  0  0  0  0  0  0
  163.0510  207.0670  150.5480 O   0  0  0  0  0  1  0  0  0  0  0  0
  161.6520  210.8600  155.8880 C   0  0  0  0  0  0  0  0  0  0  0  0
  161.0700  209.9260  151.3590 C   0  0  2  0  0  3  0  0  0  0  0  0
  161.3130  210.6430  152.7130 C   0  0  2  0  0  3  0  0  0  0  0  0
  159.7850  208.6010  152.9900 C   0  0  0  0  0  2  0  0  0  0  0  0
  161.6960  205.8990  146.8580 C   0  0  1  0  0  3  0  0  0  0  0  0
  161.0830  206.8690  147.7980 C   0  0  0  0  0  0  0  0  0  0  0  0
  162.0650  207.7840  148.4610 C   0  0  2  0  0  3  0  0  0  0  0  0
  163.1630  206.2970  146.7990 C   0  0  0  0  0  2  0  0  0  0  0  0
  159.8770  207.0200  147.8740 O   0  0  0  0  0  0  0  0  0  0  0  0
  163.4220  207.2800  147.9490 C   0  0  0  0  0  2  0  0  0  0  0  0
  161.6130  203.5480  146.2720 O   0  0  0  0  0  1  0  0  0  0  0  0
  161.5180  204.4560  147.3360 C   0  0  0  0  0  2  0  0  0  0  0  0
  162.6550  210.3660  149.4540 C   0  0  0  0  0  2  0  0  0  0  0  0
  161.5500  211.2850  149.0490 C   0  0  0  0  0  0  0  0  0  0  0  0
  160.7360  210.9020  148.1650 O   0  0  0  0  0  0  0  0  0  0  0  0
  161.4450  212.5610  149.6230 O   0  0  0  0  0  0  0  0  0  0  0  0
  160.3580  213.4490  149.3390 C   0  0  2  0  0  3  0  0  0  0  0  0
  160.0890  213.9090  147.0050 O   0  0  0  0  0  1  0  0  0  0  0  0
  160.7110  214.3700  148.1680 C   0  0  2  0  0  3  0  0  0  0  0  0
  162.2150  214.4530  147.9440 C   0  0  0  0  0  1  0  0  0  0  0  0
  159.9790  214.2870  150.5640 C   0  0  0  0  0  2  0  0  0  0  0  0
  157.9530  213.0820  150.1780 O   0  0  0  0  0  1  0  0  0  0  0  0
  158.5890  213.9300  151.0940 C   0  0  1  0  0  3  0  0  0  0  0  0
  158.6860  213.2210  152.4440 C   0  0  0  0  0  2  0  0  0  0  0  0
  156.4790  214.0630  152.7660 O   0  0  0  0  0  0  0  0  0  0  0  0
  157.0900  212.3050  154.1780 N   0  0  0  0  0  2  0  0  0  0  0  0
  157.3580  213.2320  153.1230 C   0  0  0  0  0  0  0  0  0  0  0  0
  155.8710  212.3620  154.9520 C   0  0  0  0  0  2  0  0  0  0  0  0
  155.6720  213.7610  155.4950 C   0  0  0  0  0  1  0  0  0  0  0  0
  161.5210  205.1100  153.4400 C   0  0  0  0  0  2  0  0  0  0  0  0
  160.9400  203.8720  152.7770 C   0  0  0  0  0  2  0  0  0  0  0  0
  161.8870  203.3190  151.9140 O   0  0  0  0  0  0  0  0  0  0  0  0
  159.8600  203.3140  150.5140 C   0  0  0  0  0  2  0  0  0  0  0  0
  161.1710  202.6520  150.9050 C   0  0  0  0  0  0  0  0  0  0  0  0
  161.0610  203.3660  149.5700 C   0  0  0  0  0  2  0  0  0  0  0  0
  161.1870  201.2440  150.8580 O   0  0  0  0  0  0  0  0  0  0  0  0
  161.1110  200.8910  149.5100 C   0  0  0  0  0  1  0  0  0  0  0  0
  1 48  1  1  0  0  0
  1 10  1  0  0  0  0
  2  5  1  0  0  0  0
  3  1  1  0  0  0  0
  4  3  1  0  0  0  0
  5 14  1  0  0  0  0
  6 16  1  0  0  0  0
  6 19  1  0  0  0  0
  9 13  1  0  0  0  0
 10 22  1  6  0  0  0
 10  9  1  0  0  0  0
 11 21  1  0  0  0  0
 11 22  1  1  0  0  0
 12 19  1  0  0  0  0
 13  6  1  0  0  0  0
 13  8  2  0  0  0  0
 14 19  1  0  0  0  0
 15 31  1  6  0  0  0
 15 20  1  0  0  0  0
 17  4  1  0  0  0  0
 17 15  1  0  0  0  0
 17 18  1  1  0  0  0
 19  7  1  0  0  0  0
 20 11  1  0  0  0  0
 20 21  1  0  0  0  0
 21  2  1  0  0  0  0
 23 30  1  0  0  0  0
 23 24  1  0  0  0  0
 24 27  2  0  0  0  0
 24 25  1  0  0  0  0
 25 17  1  0  0  0  0
 26 23  1  0  0  0  0
 26 28  1  0  0  0  0
 28 25  1  0  0  0  0
 29 30  1  0  0  0  0
 32 31  1  0  0  0  0
 32 34  1  0  0  0  0
 33 32  2  0  0  0  0
 35 34  1  0  0  0  0
 35 39  1  0  0  0  0
 36 37  1  0  0  0  0
 37 35  1  0  0  0  0
 38 37  1  0  0  0  0
 39 41  1  0  0  0  0
 40 41  1  0  0  0  0
 41 42  1  0  0  0  0
 42 45  1  0  0  0  0
 43 45  2  0  0  0  0
 44 46  1  0  0  0  0
 45 44  1  0  0  0  0
 46 47  1  0  0  0  0
 49 48  1  0  0  0  0
 50 49  1  0  0  0  0
 51 52  1  0  0  0  0
 52 50  1  0  0  0  0
 53 51  1  0  0  0  0
 53 52  1  0  0  0  0
 54 52  1  0  0  0  0
 55 54  1  0  0  0  0
M  END
>  <MODEL>
4

>  <REMARK>
 VINA RESULT:      -1.7      2.212      8.029
  Name = 
  17 active torsions:
  status: ('A' for Active; 'I' for Inactive)
    1  A    between atoms: C_3  and  C_35
    2  A    between atoms: C_3  and  C_54
    3  A    between atoms: C_4  and  C_37
    4  A    between atoms: C_5  and  C_43
    5  A    between atoms: O_7  and  C_33
    6  A    between atoms: C_9  and  C_14
    7  A    between atoms: C_9  and  C_29
    8  A    between atoms: C_14  and  O_28
    9  A    between atoms: C_16  and  C_49
   10  A    between atoms: C_27  and  O_32
   11  A    between atoms: C_27  and  C_37
   12  A    between atoms: O_28  and  C_43
   13  A    between atoms: C_31  and  C_39
   14  A    between atoms: O_32  and  C_33
   15  A    between atoms: C_35  and  C_44
   16  A    between atoms: C_36  and  N_51
   17  A    between atoms: C_43  and  C_44
                            x       y       z     vdW  Elec       q    Type
                         _______ _______ _______ _____ _____    ______ ____

>  <TORSDO>
F 17

$$$$
=
 OpenBabel11072412443D

 55 59  0  0  1  0  0  0  0  0999 V2000
  159.0690  212.5000  154.4000 C   0  0  1  0  0  3  0  0  0  0  0  0
  161.1430  208.3670  152.8370 O   0  0  0  0  0  0  0  0  0  0  0  0
  159.4070  213.5740  153.4520 N   0  0  0  0  0  2  0  0  0  0  0  0
  160.4360  213.1680  152.4820 C   0  0  0  0  0  2  0  0  0  0  0  0
  159.9890  208.1340  153.6200 C   0  0  0  0  0  2  0  0  0  0  0  0
  161.0350  209.0680  156.3020 N   0  0  0  0  0  0  0  0  0  0  0  0
  160.9960  206.8520  157.0100 F   0  0  0  0  0  0  0  0  0  0  0  0
  158.6970  209.0920  156.5220 O   0  0  0  0  0  0  0  0  0  0  0  0
  159.7090  211.1980  156.4440 N   0  0  0  0  0  2  0  0  0  0  0  0
  160.2040  212.1470  155.4220 C   0  0  1  0  0  3  0  0  0  0  0  0
  160.9690  210.6260  153.6930 C   0  0  1  0  0  3  0  0  0  0  0  0
  162.4740  207.4380  155.4300 F   0  0  0  0  0  0  0  0  0  0  0  0
  159.7660  209.7540  156.3910 C   0  0  0  0  0  0  0  0  0  0  0  0
  160.2050  207.1860  154.8010 C   0  0  0  0  0  2  0  0  0  0  0  0
  160.7320  210.8390  151.3370 C   0  0  2  0  0  3  0  0  0  0  0  0
  162.1800  209.6830  156.9760 C   0  0  0  0  0  1  0  0  0  0  0  0
  159.9540  212.2370  151.3200 C   0  0  1  0  0  0  0  0  0  0  0  0
  158.5860  211.9650  151.4770 O   0  0  0  0  0  1  0  0  0  0  0  0
  161.1840  207.6530  155.8970 C   0  0  0  0  0  0  0  0  0  0  0  0
  161.7940  210.7310  152.4500 C   0  0  2  0  0  3  0  0  0  0  0  0
  161.8680  209.4720  153.3530 C   0  0  2  0  0  3  0  0  0  0  0  0
  161.4610  211.5980  154.7310 C   0  0  0  0  0  2  0  0  0  0  0  0
  158.7600  213.1770  147.9000 C   0  0  1  0  0  3  0  0  0  0  0  0
  158.9450  213.5780  149.3160 C   0  0  0  0  0  0  0  0  0  0  0  0
  160.1620  212.9960  149.9640 C   0  0  2  0  0  3  0  0  0  0  0  0
  160.0140  212.3890  147.5570 C   0  0  0  0  0  2  0  0  0  0  0  0
  158.2650  214.4460  149.8340 O   0  0  0  0  0  0  0  0  0  0  0  0
  160.7410  212.0820  148.8740 C   0  0  0  0  0  2  0  0  0  0  0  0
  157.2670  212.0520  146.3550 O   0  0  0  0  0  1  0  0  0  0  0  0
  157.4930  212.3380  147.7090 C   0  0  0  0  0  2  0  0  0  0  0  0
  161.3560  210.4320  149.9890 C   0  0  0  0  0  2  0  0  0  0  0  0
  161.9390  209.0570  149.9890 C   0  0  0  0  0  0  0  0  0  0  0  0
  163.0890  208.8850  150.4790 O   0  0  0  0  0  0  0  0  0  0  0  0
  161.2280  207.9880  149.4240 O   0  0  0  0  0  0  0  0  0  0  0  0
  161.7930  206.6800  149.2700 C   0  0  2  0  0  3  0  0  0  0  0  0
  160.9940  207.1290  147.0580 O   0  0  0  0  0  1  0  0  0  0  0  0
  161.8360  206.2880  147.7900 C   0  0  2  0  0  3  0  0  0  0  0  0
  161.4230  204.8380  147.5750 C   0  0  0  0  0  1  0  0  0  0  0  0
  161.0090  205.6300  150.0640 C   0  0  0  0  0  2  0  0  0  0  0  0
  162.5420  205.8480  151.8830 O   0  0  0  0  0  1  0  0  0  0  0  0
  161.8940  204.9020  151.0780 C   0  0  1  0  0  3  0  0  0  0  0  0
  161.0610  203.9790  151.9650 C   0  0  0  0  0  2  0  0  0  0  0  0
  161.3990  201.6220  151.8430 O   0  0  0  0  0  0  0  0  0  0  0  0
  160.1850  202.5460  150.0740 N   0  0  0  0  0  2  0  0  0  0  0  0
  160.9000  202.6500  151.3080 C   0  0  0  0  0  0  0  0  0  0  0  0
  160.1130  201.3070  149.3350 C   0  0  0  0  0  2  0  0  0  0  0  0
  161.3800  201.1160  148.5280 C   0  0  0  0  0  1  0  0  0  0  0  0
  157.7460  212.8130  155.0980 C   0  0  0  0  0  2  0  0  0  0  0  0
  156.5900  212.9030  154.1160 C   0  0  0  0  0  2  0  0  0  0  0  0
  155.3860  212.9550  154.8190 O   0  0  0  0  0  0  0  0  0  0  0  0
  156.1470  212.1020  157.0020 C   0  0  0  0  0  2  0  0  0  0  0  0
  155.3900  211.8640  155.7060 C   0  0  0  0  0  0  0  0  0  0  0  0
  154.6200  212.0430  157.0020 C   0  0  0  0  0  2  0  0  0  0  0  0
  155.4470  210.5530  155.1920 O   0  0  0  0  0  0  0  0  0  0  0  0
  154.6170  209.7740  155.9980 C   0  0  0  0  0  1  0  0  0  0  0  0
  1 48  1  1  0  0  0
  1 10  1  0  0  0  0
  2 21  1  0  0  0  0
  2  5  1  0  0  0  0
  3  1  1  0  0  0  0
  4  3  1  0  0  0  0
  5 14  1  0  0  0  0
  6 13  1  0  0  0  0
  6 16  1  0  0  0  0
 10 22  1  6  0  0  0
 10  9  1  0  0  0  0
 11 22  1  1  0  0  0
 12 19  1  0  0  0  0
 13  9  1  0  0  0  0
 13  8  2  0  0  0  0
 14 19  1  0  0  0  0
 15 31  1  6  0  0  0
 15 20  1  0  0  0  0
 17 15  1  0  0  0  0
 17 18  1  1  0  0  0
 17  4  1  0  0  0  0
 19  6  1  0  0  0  0
 19  7  1  0  0  0  0
 20 21  1  0  0  0  0
 20 11  1  0  0  0  0
 21 11  1  0  0  0  0
 23 24  1  0  0  0  0
 24 27  2  0  0  0  0
 24 25  1  0  0  0  0
 25 17  1  0  0  0  0
 26 23  1  0  0  0  0
 26 28  1  0  0  0  0
 28 25  1  0  0  0  0
 29 30  1  0  0  0  0
 30 23  1  0  0  0  0
 31 32  1  0  0  0  0
 32 33  2  0  0  0  0
 34 32  1  0  0  0  0
 35 34  1  0  0  0  0
 35 39  1  0  0  0  0
 36 37  1  0  0  0  0
 37 35  1  0  0  0  0
 38 37  1  0  0  0  0
 39 41  1  0  0  0  0
 41 40  1  0  0  0  0
 41 42  1  0  0  0  0
 44 45  1  0  0  0  0
 45 43  2  0  0  0  0
 45 42  1  0  0  0  0
 46 44  1  0  0  0  0
 47 46  1  0  0  0  0
 49 50  1  0  0  0  0
 49 48  1  0  0  0  0
 50 52  1  0  0  0  0
 51 53  1  0  0  0  0
 52 51  1  0  0  0  0
 52 53  1  0  0  0  0
 54 52  1  0  0  0  0
 54 55  1  0  0  0  0
M  END
>  <MODEL>
5

>  <REMARK>
 VINA RESULT:      -1.5      1.351      1.496
  Name = 
  17 active torsions:
  status: ('A' for Active; 'I' for Inactive)
    1  A    between atoms: C_3  and  C_35
    2  A    between atoms: C_3  and  C_54
    3  A    between atoms: C_4  and  C_37
    4  A    between atoms: C_5  and  C_43
    5  A    between atoms: O_7  and  C_33
    6  A    between atoms: C_9  and  C_14
    7  A    between atoms: C_9  and  C_29
    8  A    between atoms: C_14  and  O_28
    9  A    between atoms: C_16  and  C_49
   10  A    between atoms: C_27  and  O_32
   11  A    between atoms: C_27  and  C_37
   12  A    between atoms: O_28  and  C_43
   13  A    between atoms: C_31  and  C_39
   14  A    between atoms: O_32  and  C_33
   15  A    between atoms: C_35  and  C_44
   16  A    between atoms: C_36  and  N_51
   17  A    between atoms: C_43  and  C_44
                            x       y       z     vdW  Elec       q    Type
                         _______ _______ _______ _____ _____    ______ ____

>  <TORSDO>
F 17

$$$$
=
 OpenBabel11072412443D

 55 59  0  0  1  0  0  0  0  0999 V2000
  161.6600  206.7500  147.6320 C   0  0  1  0  0  3  0  0  0  0  0  0
  162.1540  206.6430  152.4870 O   0  0  0  0  0  0  0  0  0  0  0  0
  161.3780  208.1360  147.2270 N   0  0  0  0  0  2  0  0  0  0  0  0
  161.0880  209.0120  148.3730 C   0  0  0  0  0  2  0  0  0  0  0  0
  162.8650  205.6030  151.8450 C   0  0  0  0  0  2  0  0  0  0  0  0
  160.5220  203.9750  150.8360 N   0  0  0  0  0  0  0  0  0  0  0  0
  161.0860  202.3330  152.3840 F   0  0  0  0  0  0  0  0  0  0  0  0
  162.3520  203.2680  149.5440 O   0  0  0  0  0  0  0  0  0  0  0  0
  160.7590  204.5410  148.3990 N   0  0  0  0  0  2  0  0  0  0  0  0
  160.4240  205.9680  148.1970 C   0  0  1  0  0  3  0  0  0  0  0  0
  161.0910  206.9180  150.3280 C   0  0  1  0  0  3  0  0  0  0  0  0
  160.3110  204.2930  153.1470 F   0  0  0  0  0  0  0  0  0  0  0  0
  161.2750  203.9290  149.6030 C   0  0  0  0  0  0  0  0  0  0  0  0
  162.5440  204.2000  152.3660 C   0  0  0  0  0  2  0  0  0  0  0  0
  162.1990  208.9810  150.7370 C   0  0  2  0  0  3  0  0  0  0  0  0
  159.0610  203.9420  150.7320 C   0  0  0  0  0  1  0  0  0  0  0  0
  162.3250  209.4670  149.2180 C   0  0  1  0  0  0  0  0  0  0  0  0
  163.4910  208.8960  148.6830 O   0  0  0  0  0  1  0  0  0  0  0  0
  161.0990  203.7000  152.1690 C   0  0  0  0  0  0  0  0  0  0  0  0
  160.8940  208.2180  151.0400 C   0  0  2  0  0  3  0  0  0  0  0  0
  160.9240  206.8780  151.8200 C   0  0  2  0  0  3  0  0  0  0  0  0
  159.8830  206.5900  149.4920 C   0  0  0  0  0  2  0  0  0  0  0  0
  161.3030  212.7140  147.6620 C   0  0  1  0  0  3  0  0  0  0  0  0
  161.1850  211.7850  148.8120 C   0  0  0  0  0  0  0  0  0  0  0  0
  162.4400  211.0280  149.1200 C   0  0  2  0  0  3  0  0  0  0  0  0
  162.7730  212.6630  147.2760 C   0  0  0  0  0  2  0  0  0  0  0  0
  160.2110  211.7830  149.5440 O   0  0  0  0  0  0  0  0  0  0  0  0
  163.4000  211.4660  148.0050 C   0  0  0  0  0  2  0  0  0  0  0  0
  160.9380  212.6790  145.2650 O   0  0  0  0  0  1  0  0  0  0  0  0
  160.3970  212.2960  146.5010 C   0  0  0  0  0  2  0  0  0  0  0  0
  162.4030  210.0890  151.7880 C   0  0  0  0  0  2  0  0  0  0  0  0
  161.1950  210.3500  152.6240 C   0  0  0  0  0  0  0  0  0  0  0  0
  160.4320  211.3050  152.3080 O   0  0  0  0  0  0  0  0  0  0  0  0
  160.9360  209.5660  153.7580 O   0  0  0  0  0  0  0  0  0  0  0  0
  161.5760  209.7950  155.0190 C   0  0  2  0  0  3  0  0  0  0  0  0
  162.2440  208.3850  156.8340 O   0  0  0  0  0  1  0  0  0  0  0  0
  161.1520  208.7320  156.0350 C   0  0  2  0  0  3  0  0  0  0  0  0
  160.6000  207.4850  155.3560 C   0  0  0  0  0  1  0  0  0  0  0  0
  161.2630  211.1920  155.5660 C   0  0  0  0  0  2  0  0  0  0  0  0
  159.5770  211.3380  157.2520 O   0  0  0  0  0  1  0  0  0  0  0  0
  159.7730  211.3670  155.8650 C   0  0  1  0  0  3  0  0  0  0  0  0
  159.2600  212.6970  155.3180 C   0  0  0  0  0  2  0  0  0  0  0  0
  157.0850  213.6670  155.4400 O   0  0  0  0  0  0  0  0  0  0  0  0
  157.1460  211.4480  154.7130 N   0  0  0  0  0  2  0  0  0  0  0  0
  157.7770  212.6490  155.1650 C   0  0  0  0  0  0  0  0  0  0  0  0
  155.7080  211.3090  154.6730 C   0  0  0  0  0  2  0  0  0  0  0  0
  155.2430  210.4560  155.8330 C   0  0  0  0  0  1  0  0  0  0  0  0
  162.3410  205.9980  146.4900 C   0  0  0  0  0  2  0  0  0  0  0  0
  161.3640  205.6260  145.3870 C   0  0  0  0  0  2  0  0  0  0  0  0
  161.7460  204.4110  144.8170 O   0  0  0  0  0  0  0  0  0  0  0  0
  159.3540  203.9300  145.1560 C   0  0  0  0  0  2  0  0  0  0  0  0
  160.7970  203.4580  145.2250 C   0  0  0  0  0  0  0  0  0  0  0  0
  159.8810  202.9110  144.1460 C   0  0  0  0  0  2  0  0  0  0  0  0
  161.1070  202.5810  146.2830 O   0  0  0  0  0  0  0  0  0  0  0  0
  160.8310  201.2920  145.8240 C   0  0  0  0  0  1  0  0  0  0  0  0
  1 48  1  6  0  0  0
  1 10  1  0  0  0  0
  3  1  1  0  0  0  0
  3  4  1  0  0  0  0
  4 17  1  0  0  0  0
  5 14  1  0  0  0  0
  5  2  1  0  0  0  0
  6 19  1  0  0  0  0
  8 13  2  0  0  0  0
  9 13  1  0  0  0  0
 10  9  1  0  0  0  0
 10 22  1  1  0  0  0
 11 22  1  6  0  0  0
 11 20  1  0  0  0  0
 11 21  1  0  0  0  0
 13  6  1  0  0  0  0
 15 20  1  0  0  0  0
 15 31  1  1  0  0  0
 16  6  1  0  0  0  0
 17 18  1  6  0  0  0
 17 15  1  0  0  0  0
 19 14  1  0  0  0  0
 19  7  1  0  0  0  0
 19 12  1  0  0  0  0
 20 21  1  0  0  0  0
 21  2  1  0  0  0  0
 23 24  1  0  0  0  0
 24 25  1  0  0  0  0
 24 27  2  0  0  0  0
 25 17  1  0  0  0  0
 26 23  1  0  0  0  0
 26 28  1  0  0  0  0
 28 25  1  0  0  0  0
 29 30  1  0  0  0  0
 30 23  1  0  0  0  0
 31 32  1  0  0  0  0
 32 34  1  0  0  0  0
 33 32  2  0  0  0  0
 34 35  1  0  0  0  0
 35 39  1  0  0  0  0
 35 37  1  0  0  0  0
 37 36  1  0  0  0  0
 38 37  1  0  0  0  0
 39 41  1  0  0  0  0
 41 40  1  0  0  0  0
 42 41  1  0  0  0  0
 44 45  1  0  0  0  0
 45 42  1  0  0  0  0
 45 43  2  0  0  0  0
 46 44  1  0  0  0  0
 46 47  1  0  0  0  0
 49 48  1  0  0  0  0
 50 52  1  0  0  0  0
 50 49  1  0  0  0  0
 51 52  1  0  0  0  0
 52 54  1  0  0  0  0
 53 51  1  0  0  0  0
 53 52  1  0  0  0  0
 55 54  1  0  0  0  0
M  END
>  <MODEL>
6

>  <REMARK>
 VINA RESULT:      -1.4      2.328      8.793
  Name = 
  17 active torsions:
  status: ('A' for Active; 'I' for Inactive)
    1  A    between atoms: C_3  and  C_35
    2  A    between atoms: C_3  and  C_54
    3  A    between atoms: C_4  and  C_37
    4  A    between atoms: C_5  and  C_43
    5  A    between atoms: O_7  and  C_33
    6  A    between atoms: C_9  and  C_14
    7  A    between atoms: C_9  and  C_29
    8  A    between atoms: C_14  and  O_28
    9  A    between atoms: C_16  and  C_49
   10  A    between atoms: C_27  and  O_32
   11  A    between atoms: C_27  and  C_37
   12  A    between atoms: O_28  and  C_43
   13  A    between atoms: C_31  and  C_39
   14  A    between atoms: O_32  and  C_33
   15  A    between atoms: C_35  and  C_44
   16  A    between atoms: C_36  and  N_51
   17  A    between atoms: C_43  and  C_44
                            x       y       z     vdW  Elec       q    Type
                         _______ _______ _______ _____ _____    ______ ____

>  <TORSDO>
F 17

$$$$
=
 OpenBabel11072412443D

 55 59  0  0  1  0  0  0  0  0999 V2000
  161.7440  206.7470  147.5300 C   0  0  1  0  0  3  0  0  0  0  0  0
  162.0350  206.6140  152.4020 O   0  0  0  0  0  0  0  0  0  0  0  0
  161.4770  208.1350  147.1220 N   0  0  0  0  0  2  0  0  0  0  0  0
  161.1390  209.0040  148.2590 C   0  0  0  0  0  2  0  0  0  0  0  0
  162.7730  205.5780  151.7850 C   0  0  0  0  0  2  0  0  0  0  0  0
  160.4760  203.9530  150.6700 N   0  0  0  0  0  0  0  0  0  0  0  0
  160.9770  202.3040  152.2310 F   0  0  0  0  0  0  0  0  0  0  0  0
  162.3590  203.2550  149.4520 O   0  0  0  0  0  0  0  0  0  0  0  0
  160.8140  204.5320  148.2480 N   0  0  0  0  0  2  0  0  0  0  0  0
  160.4870  205.9600  148.0400 C   0  0  1  0  0  3  0  0  0  0  0  0
  161.0620  206.9000  150.2020 C   0  0  1  0  0  3  0  0  0  0  0  0
  160.1690  204.2590  152.9720 F   0  0  0  0  0  0  0  0  0  0  0  0
  161.2800  203.9150  149.4690 C   0  0  0  0  0  0  0  0  0  0  0  0
  162.4320  204.1730  152.2840 C   0  0  0  0  0  2  0  0  0  0  0  0
  162.1510  208.9610  150.6670 C   0  0  2  0  0  3  0  0  0  0  0  0
  159.0210  203.9200  150.5050 C   0  0  0  0  0  1  0  0  0  0  0  0
  162.3390  209.4550  149.1570 C   0  0  1  0  0  0  0  0  0  0  0  0
  163.5270  208.8890  148.6690 O   0  0  0  0  0  1  0  0  0  0  0  0
  160.9970  203.6720  152.0250 C   0  0  0  0  0  0  0  0  0  0  0  0
  160.8340  208.1960  150.9120 C   0  0  2  0  0  3  0  0  0  0  0  0
  160.8340  206.8510  151.6850 C   0  0  2  0  0  3  0  0  0  0  0  0
  159.8910  206.5750  149.3150 C   0  0  0  0  0  2  0  0  0  0  0  0
  161.4190  212.7050  147.5450 C   0  0  1  0  0  3  0  0  0  0  0  0
  161.2240  211.7720  148.6800 C   0  0  0  0  0  0  0  0  0  0  0  0
  162.4560  211.0170  149.0720 C   0  0  2  0  0  3  0  0  0  0  0  0
  162.9120  212.6590  147.2620 C   0  0  0  0  0  2  0  0  0  0  0  0
  160.2020  211.7660  149.3430 O   0  0  0  0  0  0  0  0  0  0  0  0
  163.4910  211.4620  148.0290 C   0  0  0  0  0  2  0  0  0  0  0  0
  160.0990  213.4050  145.6350 O   0  0  0  0  0  1  0  0  0  0  0  0
  160.5970  212.2890  146.3220 C   0  0  0  0  0  2  0  0  0  0  0  0
  162.3100  210.0640  151.7310 C   0  0  0  0  0  2  0  0  0  0  0  0
  161.0340  210.4170  152.4220 C   0  0  0  0  0  0  0  0  0  0  0  0
  160.4160  209.5170  153.0550 O   0  0  0  0  0  0  0  0  0  0  0  0
  160.5210  211.7200  152.3360 O   0  0  0  0  0  0  0  0  0  0  0  0
  159.3580  212.1420  153.0590 C   0  0  2  0  0  3  0  0  0  0  0  0
  157.7790  212.5830  151.3150 O   0  0  0  0  0  1  0  0  0  0  0  0
  158.5920  213.2040  152.2670 C   0  0  2  0  0  3  0  0  0  0  0  0
  159.5300  214.1840  151.5750 C   0  0  0  0  0  1  0  0  0  0  0  0
  159.7220  212.6880  154.4440 C   0  0  0  0  0  2  0  0  0  0  0  0
  157.4510  213.0070  155.1120 O   0  0  0  0  0  1  0  0  0  0  0  0
  158.6440  212.3740  155.4840 C   0  0  1  0  0  3  0  0  0  0  0  0
  158.4010  210.8690  155.5800 C   0  0  0  0  0  2  0  0  0  0  0  0
  159.7260  208.9290  155.9840 O   0  0  0  0  0  0  0  0  0  0  0  0
  160.7000  210.9510  156.6320 N   0  0  0  0  0  2  0  0  0  0  0  0
  159.6330  210.1840  156.0680 C   0  0  0  0  0  0  0  0  0  0  0  0
  161.8540  210.3250  157.2350 C   0  0  0  0  0  2  0  0  0  0  0  0
  163.0990  210.6820  156.4520 C   0  0  0  0  0  1  0  0  0  0  0  0
  162.4730  206.0010  146.4140 C   0  0  0  0  0  2  0  0  0  0  0  0
  161.5340  205.5930  145.2910 C   0  0  0  0  0  2  0  0  0  0  0  0
  161.8500  204.3030  144.8660 O   0  0  0  0  0  0  0  0  0  0  0  0
  159.3930  204.3710  145.0360 C   0  0  0  0  0  2  0  0  0  0  0  0
  160.6680  203.5480  144.9580 C   0  0  0  0  0  0  0  0  0  0  0  0
  159.7360  203.6010  143.7610 C   0  0  0  0  0  2  0  0  0  0  0  0
  160.6690  202.3450  145.6930 O   0  0  0  0  0  0  0  0  0  0  0  0
  160.0550  201.3870  144.8860 C   0  0  0  0  0  1  0  0  0  0  0  0
  1 48  1  6  0  0  0
  1 10  1  0  0  0  0
  3  1  1  0  0  0  0
  3  4  1  0  0  0  0
  4 17  1  0  0  0  0
  5 14  1  0  0  0  0
  5  2  1  0  0  0  0
  6 19  1  0  0  0  0
  8 13  2  0  0  0  0
  9 13  1  0  0  0  0
 10  9  1  0  0  0  0
 10 22  1  1  0  0  0
 11 22  1  6  0  0  0
 11 20  1  0  0  0  0
 11 21  1  0  0  0  0
 13  6  1  0  0  0  0
 15 20  1  0  0  0  0
 15 31  1  1  0  0  0
 16  6  1  0  0  0  0
 17 18  1  6  0  0  0
 17 15  1  0  0  0  0
 19  7  1  0  0  0  0
 19 14  1  0  0  0  0
 19 12  1  0  0  0  0
 20 21  1  0  0  0  0
 21  2  1  0  0  0  0
 23 24  1  0  0  0  0
 24 25  1  0  0  0  0
 24 27  2  0  0  0  0
 25 17  1  0  0  0  0
 26 23  1  0  0  0  0
 26 28  1  0  0  0  0
 28 25  1  0  0  0  0
 29 30  1  0  0  0  0
 30 23  1  0  0  0  0
 31 32  1  0  0  0  0
 32 33  2  0  0  0  0
 34 32  1  0  0  0  0
 34 35  1  0  0  0  0
 35 39  1  0  0  0  0
 36 37  1  0  0  0  0
 37 35  1  0  0  0  0
 38 37  1  0  0  0  0
 39 41  1  0  0  0  0
 40 41  1  0  0  0  0
 41 42  1  0  0  0  0
 42 45  1  0  0  0  0
 43 45  2  0  0  0  0
 44 46  1  0  0  0  0
 45 44  1  0  0  0  0
 47 46  1  0  0  0  0
 49 48  1  0  0  0  0
 50 52  1  0  0  0  0
 50 49  1  0  0  0  0
 52 51  1  0  0  0  0
 52 54  1  0  0  0  0
 53 52  1  0  0  0  0
 53 51  1  0  0  0  0
 55 54  1  0  0  0  0
M  END
>  <MODEL>
7

>  <REMARK>
 VINA RESULT:      -0.4      2.285      8.706
  Name = 
  17 active torsions:
  status: ('A' for Active; 'I' for Inactive)
    1  A    between atoms: C_3  and  C_35
    2  A    between atoms: C_3  and  C_54
    3  A    between atoms: C_4  and  C_37
    4  A    between atoms: C_5  and  C_43
    5  A    between atoms: O_7  and  C_33
    6  A    between atoms: C_9  and  C_14
    7  A    between atoms: C_9  and  C_29
    8  A    between atoms: C_14  and  O_28
    9  A    between atoms: C_16  and  C_49
   10  A    between atoms: C_27  and  O_32
   11  A    between atoms: C_27  and  C_37
   12  A    between atoms: O_28  and  C_43
   13  A    between atoms: C_31  and  C_39
   14  A    between atoms: O_32  and  C_33
   15  A    between atoms: C_35  and  C_44
   16  A    between atoms: C_36  and  N_51
   17  A    between atoms: C_43  and  C_44
                            x       y       z     vdW  Elec       q    Type
                         _______ _______ _______ _____ _____    ______ ____

>  <TORSDO>
F 17

$$$$
=
 OpenBabel11072412443D

 55 59  0  0  1  0  0  0  0  0999 V2000
  161.5070  206.5820  152.0570 C   0  0  1  0  0  3  0  0  0  0  0  0
  161.0760  208.5290  147.6010 O   0  0  0  0  0  0  0  0  0  0  0  0
  161.9380  207.6410  152.9840 N   0  0  0  0  0  2  0  0  0  0  0  0
  162.3430  208.8720  152.2870 C   0  0  0  0  0  2  0  0  0  0  0  0
  160.2420  207.4030  147.7850 C   0  0  0  0  0  2  0  0  0  0  0  0
  162.3700  205.2570  147.9630 N   0  0  0  0  0  0  0  0  0  0  0  0
  161.6460  204.4670  145.8980 F   0  0  0  0  0  0  0  0  0  0  0  0
  160.4520  204.2890  148.9120 O   0  0  0  0  0  0  0  0  0  0  0  0
  162.1620  204.7970  150.4240 N   0  0  0  0  0  2  0  0  0  0  0  0
  162.6540  205.9700  151.1810 C   0  0  1  0  0  3  0  0  0  0  0  0
  162.1320  207.7770  149.6470 C   0  0  1  0  0  3  0  0  0  0  0  0
  162.6500  206.4690  145.9780 F   0  0  0  0  0  0  0  0  0  0  0  0
  161.5980  204.7940  149.0940 C   0  0  0  0  0  0  0  0  0  0  0  0
  160.4100  206.3110  146.7260 C   0  0  0  0  0  2  0  0  0  0  0  0
  161.2710  209.9340  150.1540 C   0  0  2  0  0  3  0  0  0  0  0  0
  163.8150  205.0250  147.9960 C   0  0  0  0  0  1  0  0  0  0  0  0
  161.1790  209.7650  151.7430 C   0  0  1  0  0  0  0  0  0  0  0  0
  159.9480  209.1580  152.0350 O   0  0  0  0  0  1  0  0  0  0  0  0
  161.7850  205.6190  146.6530 C   0  0  0  0  0  0  0  0  0  0  0  0
  162.4860  209.2240  149.5230 C   0  0  2  0  0  3  0  0  0  0  0  0
  162.3150  208.3330  148.2650 C   0  0  2  0  0  3  0  0  0  0  0  0
  163.2810  207.0050  150.2360 C   0  0  0  0  0  2  0  0  0  0  0  0
  160.1090  212.0270  154.5260 C   0  0  1  0  0  3  0  0  0  0  0  0
  161.1560  211.1370  153.9680 C   0  0  0  0  0  0  0  0  0  0  0  0
  161.2410  211.1520  152.4740 C   0  0  2  0  0  3  0  0  0  0  0  0
  159.5630  212.7790  153.3220 C   0  0  0  0  0  2  0  0  0  0  0  0
  161.9840  210.5920  154.6760 O   0  0  0  0  0  0  0  0  0  0  0  0
  160.0840  212.0730  152.0620 C   0  0  0  0  0  2  0  0  0  0  0  0
  157.7570  211.8340  155.0820 O   0  0  0  0  0  1  0  0  0  0  0  0
  159.0140  211.2350  155.2440 C   0  0  0  0  0  2  0  0  0  0  0  0
  161.2100  211.3900  149.6560 C   0  0  0  0  0  2  0  0  0  0  0  0
  161.6280  211.5530  148.2310 C   0  0  0  0  0  0  0  0  0  0  0  0
  162.8560  211.6750  147.9690 O   0  0  0  0  0  0  0  0  0  0  0  0
  160.6650  211.6020  147.2130 O   0  0  0  0  0  0  0  0  0  0  0  0
  160.4870  212.7490  146.3720 C   0  0  2  0  0  3  0  0  0  0  0  0
  158.7220  213.3070  147.8900 O   0  0  0  0  0  1  0  0  0  0  0  0
  159.0760  213.3200  146.5390 C   0  0  2  0  0  3  0  0  0  0  0  0
  158.0470  212.5380  145.7330 C   0  0  0  0  0  1  0  0  0  0  0  0
  160.7410  212.4130  144.8990 C   0  0  0  0  0  2  0  0  0  0  0  0
  162.6340  213.8170  145.2870 O   0  0  0  0  0  1  0  0  0  0  0  0
  161.7940  213.3310  144.2760 C   0  0  1  0  0  3  0  0  0  0  0  0
  162.6360  212.5770  143.2490 C   0  0  0  0  0  2  0  0  0  0  0  0
  161.6750  213.9540  141.5570 O   0  0  0  0  0  0  0  0  0  0  0  0
  162.0570  211.7350  140.9360 N   0  0  0  0  0  2  0  0  0  0  0  0
  162.0970  212.8100  141.8780 C   0  0  0  0  0  0  0  0  0  0  0  0
  161.4270  211.8760  139.6430 C   0  0  0  0  0  2  0  0  0  0  0  0
  162.4360  211.6020  138.5480 C   0  0  0  0  0  1  0  0  0  0  0  0
  160.7270  205.5080  152.8130 C   0  0  0  0  0  2  0  0  0  0  0  0
  160.0870  206.0520  154.0790 C   0  0  0  0  0  2  0  0  0  0  0  0
  160.9680  205.8940  155.1500 O   0  0  0  0  0  0  0  0  0  0  0  0
  159.6650  207.9430  155.5640 C   0  0  0  0  0  2  0  0  0  0  0  0
  160.7170  206.9550  156.0380 C   0  0  0  0  0  0  0  0  0  0  0  0
  159.3530  206.9720  156.7030 C   0  0  0  0  0  2  0  0  0  0  0  0
  161.7800  207.5000  156.7840 O   0  0  0  0  0  0  0  0  0  0  0  0
  161.3790  208.7790  157.1720 C   0  0  0  0  0  1  0  0  0  0  0  0
  1 48  1  1  0  0  0
  1  3  1  0  0  0  0
  2  5  1  0  0  0  0
  2 21  1  0  0  0  0
  4  3  1  0  0  0  0
  6 16  1  0  0  0  0
  6 13  1  0  0  0  0
  7 19  1  0  0  0  0
  8 13  2  0  0  0  0
  9 10  1  0  0  0  0
 10 22  1  6  0  0  0
 10  1  1  0  0  0  0
 11 22  1  1  0  0  0
 12 19  1  0  0  0  0
 13  9  1  0  0  0  0
 14  5  1  0  0  0  0
 15 31  1  1  0  0  0
 15 17  1  0  0  0  0
 17 18  1  1  0  0  0
 17  4  1  0  0  0  0
 17 25  1  0  0  0  0
 19 14  1  0  0  0  0
 19  6  1  0  0  0  0
 20 11  1  0  0  0  0
 20 15  1  0  0  0  0
 21 20  1  0  0  0  0
 21 11  1  0  0  0  0
 23 30  1  0  0  0  0
 24 23  1  0  0  0  0
 24 27  2  0  0  0  0
 25 24  1  0  0  0  0
 26 23  1  0  0  0  0
 28 25  1  0  0  0  0
 28 26  1  0  0  0  0
 29 30  1  0  0  0  0
 32 31  1  0  0  0  0
 33 32  2  0  0  0  0
 34 32  1  0  0  0  0
 35 37  1  0  0  0  0
 35 34  1  0  0  0  0
 37 36  1  0  0  0  0
 38 37  1  0  0  0  0
 39 35  1  0  0  0  0
 41 39  1  0  0  0  0
 41 40  1  0  0  0  0
 42 41  1  0  0  0  0
 43 45  2  0  0  0  0
 44 45  1  0  0  0  0
 45 42  1  0  0  0  0
 46 44  1  0  0  0  0
 47 46  1  0  0  0  0
 48 49  1  0  0  0  0
 49 50  1  0  0  0  0
 50 52  1  0  0  0  0
 51 52  1  0  0  0  0
 51 53  1  0  0  0  0
 52 53  1  0  0  0  0
 52 54  1  0  0  0  0
 54 55  1  0  0  0  0
M  END
>  <MODEL>
8

>  <REMARK>
 VINA RESULT:      -0.1      3.796      7.883
  Name = 
  17 active torsions:
  status: ('A' for Active; 'I' for Inactive)
    1  A    between atoms: C_3  and  C_35
    2  A    between atoms: C_3  and  C_54
    3  A    between atoms: C_4  and  C_37
    4  A    between atoms: C_5  and  C_43
    5  A    between atoms: O_7  and  C_33
    6  A    between atoms: C_9  and  C_14
    7  A    between atoms: C_9  and  C_29
    8  A    between atoms: C_14  and  O_28
    9  A    between atoms: C_16  and  C_49
   10  A    between atoms: C_27  and  O_32
   11  A    between atoms: C_27  and  C_37
   12  A    between atoms: O_28  and  C_43
   13  A    between atoms: C_31  and  C_39
   14  A    between atoms: O_32  and  C_33
   15  A    between atoms: C_35  and  C_44
   16  A    between atoms: C_36  and  N_51
   17  A    between atoms: C_43  and  C_44
                            x       y       z     vdW  Elec       q    Type
                         _______ _______ _______ _____ _____    ______ ____

>  <TORSDO>
F 17

$$$$
=
 OpenBabel11072412443D

 55 59  0  0  1  0  0  0  0  0999 V2000
  159.2450  211.2220  154.8680 C   0  0  1  0  0  3  0  0  0  0  0  0
  161.2900  207.9360  151.8920 O   0  0  0  0  0  0  0  0  0  0  0  0
  159.5460  212.5650  154.3490 N   0  0  0  0  0  2  0  0  0  0  0  0
  160.5450  212.5440  153.2700 C   0  0  0  0  0  2  0  0  0  0  0  0
  160.1630  207.4240  152.5750 C   0  0  0  0  0  2  0  0  0  0  0  0
  161.2890  207.3730  155.3840 N   0  0  0  0  0  0  0  0  0  0  0  0
  161.2850  205.0490  155.2670 F   0  0  0  0  0  0  0  0  0  0  0  0
  158.9590  207.2790  155.6630 O   0  0  0  0  0  0  0  0  0  0  0  0
  159.9580  209.2940  156.3030 N   0  0  0  0  0  2  0  0  0  0  0  0
  160.4140  210.5500  155.6680 C   0  0  1  0  0  3  0  0  0  0  0  0
  161.1310  209.7480  153.4930 C   0  0  1  0  0  3  0  0  0  0  0  0
  162.7090  206.1780  153.9540 F   0  0  0  0  0  0  0  0  0  0  0  0
  160.0200  207.9630  155.7440 C   0  0  0  0  0  0  0  0  0  0  0  0
  160.4230  206.1250  153.3400 C   0  0  0  0  0  2  0  0  0  0  0  0
  160.8170  210.7710  151.3700 C   0  0  2  0  0  3  0  0  0  0  0  0
  162.4520  207.7300  156.1980 C   0  0  0  0  0  1  0  0  0  0  0  0
  160.0310  212.0730  151.8690 C   0  0  1  0  0  0  0  0  0  0  0  0
  158.6710  211.7400  151.9580 O   0  0  0  0  0  1  0  0  0  0  0  0
  161.4340  206.1940  154.5020 C   0  0  0  0  0  0  0  0  0  0  0  0
  161.9150  210.2960  152.3430 C   0  0  2  0  0  3  0  0  0  0  0  0
  162.0250  208.8020  152.7430 C   0  0  2  0  0  3  0  0  0  0  0  0
  161.6510  210.3000  154.7920 C   0  0  0  0  0  2  0  0  0  0  0  0
  159.2020  213.7110  148.6080 C   0  0  1  0  0  3  0  0  0  0  0  0
  158.9810  213.6570  150.0730 C   0  0  0  0  0  0  0  0  0  0  0  0
  160.1920  213.2640  150.8610 C   0  0  2  0  0  3  0  0  0  0  0  0
  160.6930  213.4710  148.4350 C   0  0  0  0  0  2  0  0  0  0  0  0
  157.9590  214.0740  150.5880 O   0  0  0  0  0  0  0  0  0  0  0  0
  161.2390  212.9660  149.7780 C   0  0  0  0  0  2  0  0  0  0  0  0
  157.0090  213.0000  147.8560 O   0  0  0  0  0  1  0  0  0  0  0  0
  158.3690  212.6600  147.8690 C   0  0  0  0  0  2  0  0  0  0  0  0
  161.4000  210.8750  149.9480 C   0  0  0  0  0  2  0  0  0  0  0  0
  161.9560  209.5880  149.4340 C   0  0  0  0  0  0  0  0  0  0  0  0
  163.2000  209.3910  149.5100 O   0  0  0  0  0  0  0  0  0  0  0  0
  161.1090  208.6360  148.8470 O   0  0  0  0  0  0  0  0  0  0  0  0
  161.5110  207.2800  148.6210 C   0  0  2  0  0  3  0  0  0  0  0  0
  160.2640  206.1060  146.9470 O   0  0  0  0  0  1  0  0  0  0  0  0
  161.3810  206.9240  147.1370 C   0  0  2  0  0  3  0  0  0  0  0  0
  162.6250  206.2200  146.6110 C   0  0  0  0  0  1  0  0  0  0  0  0
  160.6890  206.2990  149.4650 C   0  0  0  0  0  2  0  0  0  0  0  0
  161.9130  204.9470  151.0060 O   0  0  0  0  0  1  0  0  0  0  0  0
  161.4290  204.9800  149.6920 C   0  0  1  0  0  3  0  0  0  0  0  0
  160.4990  203.7890  149.4730 C   0  0  0  0  0  2  0  0  0  0  0  0
  162.1820  203.1330  147.9160 O   0  0  0  0  0  0  0  0  0  0  0  0
  160.2220  201.8630  147.8570 N   0  0  0  0  0  2  0  0  0  0  0  0
  161.0280  202.9230  148.3790 C   0  0  0  0  0  0  0  0  0  0  0  0
  160.6360  201.0820  146.7130 C   0  0  0  0  0  2  0  0  0  0  0  0
  161.5650  199.9730  147.1590 C   0  0  0  0  0  1  0  0  0  0  0  0
  157.9440  211.2470  155.6680 C   0  0  0  0  0  2  0  0  0  0  0  0
  157.2810  212.6140  155.6370 C   0  0  0  0  0  2  0  0  0  0  0  0
  155.9700  212.5060  156.1020 O   0  0  0  0  0  0  0  0  0  0  0  0
  155.8450  214.0030  154.1500 C   0  0  0  0  0  2  0  0  0  0  0  0
  155.2250  213.4980  155.4410 C   0  0  0  0  0  0  0  0  0  0  0  0
  154.6080  213.1070  154.1100 C   0  0  0  0  0  2  0  0  0  0  0  0
  154.5180  214.4530  156.1980 O   0  0  0  0  0  0  0  0  0  0  0  0
  153.5980  213.7440  156.9720 C   0  0  0  0  0  1  0  0  0  0  0  0
  1 10  1  0  0  0  0
  1 48  1  1  0  0  0
  2  5  1  0  0  0  0
  2 21  1  0  0  0  0
  3  1  1  0  0  0  0
  4  3  1  0  0  0  0
  5 14  1  0  0  0  0
  6 13  1  0  0  0  0
  6 16  1  0  0  0  0
  8 13  2  0  0  0  0
 10 22  1  6  0  0  0
 10  9  1  0  0  0  0
 11 22  1  1  0  0  0
 12 19  1  0  0  0  0
 13  9  1  0  0  0  0
 14 19  1  0  0  0  0
 15 31  1  6  0  0  0
 15 17  1  0  0  0  0
 15 20  1  0  0  0  0
 17 18  1  1  0  0  0
 17  4  1  0  0  0  0
 19  7  1  0  0  0  0
 19  6  1  0  0  0  0
 20 21  1  0  0  0  0
 20 11  1  0  0  0  0
 21 11  1  0  0  0  0
 23 24  1  0  0  0  0
 24 27  2  0  0  0  0
 24 25  1  0  0  0  0
 25 17  1  0  0  0  0
 26 23  1  0  0  0  0
 26 28  1  0  0  0  0
 28 25  1  0  0  0  0
 29 30  1  0  0  0  0
 30 23  1  0  0  0  0
 32 33  2  0  0  0  0
 32 31  1  0  0  0  0
 34 32  1  0  0  0  0
 35 34  1  0  0  0  0
 35 39  1  0  0  0  0
 36 37  1  0  0  0  0
 37 35  1  0  0  0  0
 38 37  1  0  0  0  0
 39 41  1  0  0  0  0
 41 40  1  0  0  0  0
 42 41  1  0  0  0  0
 43 45  2  0  0  0  0
 44 45  1  0  0  0  0
 45 42  1  0  0  0  0
 46 47  1  0  0  0  0
 46 44  1  0  0  0  0
 49 48  1  0  0  0  0
 49 50  1  0  0  0  0
 51 52  1  0  0  0  0
 52 50  1  0  0  0  0
 52 54  1  0  0  0  0
 53 51  1  0  0  0  0
 53 52  1  0  0  0  0
 54 55  1  0  0  0  0
M  END
>  <MODEL>
9

>  <REMARK>
 VINA RESULT:      -0.0      1.585      1.952
  Name = 
  17 active torsions:
  status: ('A' for Active; 'I' for Inactive)
    1  A    between atoms: C_3  and  C_35
    2  A    between atoms: C_3  and  C_54
    3  A    between atoms: C_4  and  C_37
    4  A    between atoms: C_5  and  C_43
    5  A    between atoms: O_7  and  C_33
    6  A    between atoms: C_9  and  C_14
    7  A    between atoms: C_9  and  C_29
    8  A    between atoms: C_14  and  O_28
    9  A    between atoms: C_16  and  C_49
   10  A    between atoms: C_27  and  O_32
   11  A    between atoms: C_27  and  C_37
   12  A    between atoms: O_28  and  C_43
   13  A    between atoms: C_31  and  C_39
   14  A    between atoms: O_32  and  C_33
   15  A    between atoms: C_35  and  C_44
   16  A    between atoms: C_36  and  N_51
   17  A    between atoms: C_43  and  C_44
                            x       y       z     vdW  Elec       q    Type
                         _______ _______ _______ _____ _____    ______ ____

>  <TORSDO>
F 17

$$$$
