=
 OpenBabel11072410003D

 54 59  0  0  1  0  0  0  0  0999 V2000
  161.8750  207.6090  151.4980 C   0  0  2  0  0  0  0  0  0  0  0  0
  160.4660  209.6790  155.5260 N   0  0  0  0  0  0  0  0  0  0  0  0
  159.2450  214.4260  156.7580 O   0  0  0  0  0  1  0  0  0  0  0  0
  159.7180  213.3600  153.6920 N   0  0  0  0  0  0  0  0  0  0  0  0
  160.2610  213.8920  156.0000 C   0  0  1  0  0  3  0  0  0  0  0  0
  161.2770  206.3310  150.7790 C   0  0  0  0  0  2  0  0  0  0  0  0
  158.9210  214.4520  150.9000 C   0  0  0  0  0  2  0  0  0  0  0  0
  158.4860  213.2190  150.4090 O   0  0  0  0  0  0  0  0  0  0  0  0
  161.9060  205.7600  149.5090 C   0  0  0  0  0  2  0  0  0  0  0  0
  162.6240  209.2390  154.7280 O   0  0  0  0  0  0  0  0  0  0  0  0
  161.6280  206.4240  148.1170 C   0  0  1  0  0  3  0  0  0  0  0  0
  161.8040  207.2040  153.0200 C   0  0  0  0  0  2  0  0  0  0  0  0
  160.4050  210.6800  149.8000 C   0  0  1  0  0  3  0  0  0  0  0  0
  159.5520  213.1600  151.2620 C   0  0  1  0  0  0  0  0  0  0  0  0
  161.0960  213.0590  156.9980 C   0  0  0  0  0  2  0  0  0  0  0  0
  162.4250  211.0000  157.2600 O   0  0  0  0  0  1  0  0  0  0  0  0
  159.3830  211.6790  155.2760 O   0  0  0  0  0  0  0  0  0  0  0  0
  160.8620  209.1520  149.8540 C   0  0  1  0  0  3  0  0  0  0  0  0
  161.2810  211.6830  150.6650 C   0  0  0  0  0  2  0  0  0  0  0  0
  160.5100  210.9900  155.7030 C   0  0  0  0  0  0  0  0  0  0  0  0
  161.9970  209.0550  148.9180 C   0  0  0  0  0  2  0  0  0  0  0  0
  161.2020  208.8860  151.1760 O   0  0  0  0  0  0  0  0  0  0  0  0
  161.4050  208.9160  154.8130 C   0  0  0  0  0  0  0  0  0  0  0  0
  162.5360  207.7060  148.3060 C   0  0  0  0  0  2  0  0  0  0  0  0
  163.1890  207.8800  151.3450 F   0  0  0  0  0  0  0  0  0  0  0  0
  160.7560  207.8630  153.9270 C   0  0  2  0  0  3  0  0  0  0  0  0
  160.7650  213.0480  150.6470 O   0  0  0  0  0  0  0  0  0  0  0  0
  159.6450  212.9980  154.9240 C   0  0  0  0  0  0  0  0  0  0  0  0
  159.1200  212.5770  152.6140 C   0  0  1  0  0  3  0  0  0  0  0  0
  161.6530  211.7750  156.3340 C   0  0  1  0  0  3  0  0  0  0  0  0
  158.9410  206.1350  145.2130 F   0  0  0  0  0  0  0  0  0  0  0  0
  159.6480  204.8910  145.5350 C   0  0  1  0  0  3  0  0  0  0  0  0
  160.0300  203.9210  144.3670 C   0  0  0  0  0  2  0  0  0  0  0  0
  162.1400  205.5460  146.7820 C   0  0  1  0  0  0  0  0  0  0  0  0
  161.1540  203.1010  144.7220 O   0  0  0  0  0  0  0  0  0  0  0  0
  162.1330  203.9680  144.2500 C   0  0  0  0  0  2  0  0  0  0  0  0
  163.1130  206.0620  144.5800 O   0  0  0  0  0  1  0  0  0  0  0  0
  160.7820  204.7400  146.7110 C   0  0  0  0  0  2  0  0  0  0  0  0
  162.7680  204.9950  145.3140 C   0  0  1  0  0  3  0  0  0  0  0  0
  164.5680  204.5520  146.9690 O   0  0  0  0  0  1  0  0  0  0  0  0
  163.6790  205.6090  147.3820 C   0  0  0  0  0  2  0  0  0  0  0  0
  159.9390  206.9150  154.7850 C   0  0  0  0  0  0  0  0  0  0  0  0
  159.0160  207.3010  155.6030 O   0  0  0  0  0  1  0  0  0  0  0  0
  160.1970  205.5740  154.6940 O   0  0  0  0  0  0  0  0  0  0  0  0
  159.2880  211.0130  152.7190 C   0  0  0  0  0  2  0  0  0  0  0  0
  158.0340  210.3670  152.8940 O   0  0  0  0  0  1  0  0  0  0  0  0
  158.6790  211.9880  148.2820 C   0  0  0  0  0  1  0  0  0  0  0  0
  159.9780  211.2110  148.4480 C   0  0  1  0  0  3  0  0  0  0  0  0
  162.2880  212.0190  148.4070 N   0  0  0  0  0  0  0  0  0  0  0  0
  162.0690  213.0930  145.9090 C   0  0  0  0  0  3  0  0  0  0  0  0
  163.2630  213.2560  146.6350 C   0  0  0  0  0  3  0  0  0  0  0  0
  163.3660  212.7260  147.9290 C   0  0  0  0  0  3  0  0  0  0  0  0
  161.1750  211.8050  147.7770 C   0  0  0  0  0  0  0  0  0  0  0  0
  161.0250  212.3800  146.4710 C   0  0  0  0  0  3  0  0  0  0  0  0
  1 25  1  6  0  0  0
  1 12  1  0  0  0  0
  2 20  2  0  0  0  0
  4 28  2  0  0  0  0
  5  3  1  1  0  0  0
  5 15  1  0  0  0  0
  6  1  1  0  0  0  0
  8  7  1  0  0  0  0
  8 14  1  0  0  0  0
  9  6  1  0  0  0  0
 10 23  2  0  0  0  0
 11 24  1  1  0  0  0
 11  9  1  0  0  0  0
 12 26  1  0  0  0  0
 13 48  1  6  0  0  0
 13 18  1  0  0  0  0
 13 19  1  0  0  0  0
 14  7  1  1  0  0  0
 14 29  1  0  0  0  0
 17 20  1  0  0  0  0
 18 21  1  6  0  0  0
 18 22  1  0  0  0  0
 20 30  1  0  0  0  0
 22  1  1  0  0  0  0
 23  2  1  0  0  0  0
 24 21  1  0  0  0  0
 26 42  1  1  0  0  0
 26 23  1  0  0  0  0
 27 19  1  0  0  0  0
 27 14  1  0  0  0  0
 28 17  1  0  0  0  0
 28  5  1  0  0  0  0
 29 45  1  6  0  0  0
 29  4  1  0  0  0  0
 30 15  1  0  0  0  0
 30 16  1  1  0  0  0
 32 31  1  6  0  0  0
 32 38  1  0  0  0  0
 33 35  1  0  0  0  0
 33 32  1  0  0  0  0
 34 41  1  1  0  0  0
 34 11  1  0  0  0  0
 36 35  1  0  0  0  0
 36 39  1  0  0  0  0
 38 34  1  0  0  0  0
 39 37  1  6  0  0  0
 39 34  1  0  0  0  0
 40 41  1  0  0  0  0
 42 43  1  0  0  0  0
 44 42  2  0  0  0  0
 45 46  1  0  0  0  0
 48 47  1  1  0  0  0
 50 54  2  0  0  0  0
 50 51  1  0  0  0  0
 51 52  2  0  0  0  0
 52 49  1  0  0  0  0
 53 49  2  0  0  0  0
 53 48  1  0  0  0  0
 54 53  1  0  0  0  0
M  END
>  <MODEL>
1

>  <REMARK>
 VINA RESULT:      11.0      0.000      0.000
  Name = 
  6 active torsions:
  status: ('A' for Active; 'I' for Inactive)
    1  A    between atoms: C_4  and  C_45
    2  A    between atoms: C_16  and  C_17
    3  A    between atoms: C_16  and  C_54
    4  A    between atoms: C_19  and  C_53
    5  A    between atoms: C_26  and  CA_49
    6  A    between atoms: C_42  and  C_53
                            x       y       z     vdW  Elec       q    Type
                         _______ _______ _______ _____ _____    ______ ____

>  <TORSDO>
F 6

$$$$
=
 OpenBabel11072410003D

 54 59  0  0  1  0  0  0  0  0999 V2000
  161.4720  207.2600  151.5520 C   0  0  2  0  0  0  0  0  0  0  0  0
  160.4400  209.5610  155.5690 N   0  0  0  0  0  0  0  0  0  0  0  0
  159.9410  214.4490  156.7520 O   0  0  0  0  0  1  0  0  0  0  0  0
  160.2070  213.2890  153.6950 N   0  0  0  0  0  0  0  0  0  0  0  0
  160.8570  213.7640  155.9880 C   0  0  1  0  0  3  0  0  0  0  0  0
  160.6840  206.0750  150.8590 C   0  0  0  0  0  2  0  0  0  0  0  0
  159.5350  214.4530  150.8990 C   0  0  0  0  0  2  0  0  0  0  0  0
  158.9180  213.2910  150.4310 O   0  0  0  0  0  0  0  0  0  0  0  0
  161.2040  205.4030  149.5880 C   0  0  0  0  0  2  0  0  0  0  0  0
  162.4990  208.8020  154.7490 O   0  0  0  0  0  0  0  0  0  0  0  0
  161.0040  206.0840  148.1910 C   0  0  1  0  0  3  0  0  0  0  0  0
  161.3660  206.8890  153.0800 C   0  0  0  0  0  2  0  0  0  0  0  0
  160.4390  210.4930  149.8320 C   0  0  1  0  0  3  0  0  0  0  0  0
  159.9770  213.0880  151.2700 C   0  0  1  0  0  0  0  0  0  0  0  0
  161.5770  212.8300  156.9860 C   0  0  0  0  0  2  0  0  0  0  0  0
  162.5970  210.6040  157.2590 O   0  0  0  0  0  1  0  0  0  0  0  0
  159.6560  211.6950  155.3070 O   0  0  0  0  0  0  0  0  0  0  0  0
  160.6690  208.9150  149.9010 C   0  0  1  0  0  3  0  0  0  0  0  0
  161.4640  211.3680  150.6700 C   0  0  0  0  0  2  0  0  0  0  0  0
  160.6770  210.8540  155.7280 C   0  0  0  0  0  0  0  0  0  0  0  0
  161.7640  208.6430  148.9510 C   0  0  0  0  0  2  0  0  0  0  0  0
  160.9870  208.6190  151.2210 O   0  0  0  0  0  0  0  0  0  0  0  0
  161.2480  208.6610  154.8550 C   0  0  0  0  0  0  0  0  0  0  0  0
  162.0920  207.2230  148.3510 C   0  0  0  0  0  2  0  0  0  0  0  0
  162.8090  207.3360  151.3780 F   0  0  0  0  0  0  0  0  0  0  0  0
  160.4390  207.7030  153.9920 C   0  0  2  0  0  3  0  0  0  0  0  0
  161.1520  212.7930  150.6410 O   0  0  0  0  0  0  0  0  0  0  0  0
  160.1010  212.9560  154.9320 C   0  0  0  0  0  0  0  0  0  0  0  0
  159.4860  212.5900  152.6360 C   0  0  1  0  0  3  0  0  0  0  0  0
  161.9320  211.4710  156.3330 C   0  0  1  0  0  3  0  0  0  0  0  0
  159.3590  202.4750  148.2790 F   0  0  0  0  0  0  0  0  0  0  0  0
  160.7650  202.5110  147.8630 C   0  0  1  0  0  3  0  0  0  0  0  0
  161.2380  201.5350  146.7350 C   0  0  0  0  0  2  0  0  0  0  0  0
  161.3640  205.1260  146.8630 C   0  0  1  0  0  0  0  0  0  0  0  0
  162.3970  202.0470  146.0600 O   0  0  0  0  0  0  0  0  0  0  0  0
  161.7080  202.7560  145.0830 C   0  0  0  0  0  2  0  0  0  0  0  0
  160.2730  204.5640  144.7270 O   0  0  0  0  0  1  0  0  0  0  0  0
  161.6780  203.8710  147.7720 C   0  0  0  0  0  2  0  0  0  0  0  0
  161.4130  204.3080  145.3850 C   0  0  1  0  0  3  0  0  0  0  0  0
  163.1440  206.2740  145.3050 O   0  0  0  0  0  1  0  0  0  0  0  0
  161.9620  206.4680  146.1060 C   0  0  0  0  0  2  0  0  0  0  0  0
  159.5060  206.8950  154.8740 C   0  0  0  0  0  0  0  0  0  0  0  0
  158.5010  207.4000  155.5110 O   0  0  0  0  0  1  0  0  0  0  0  0
  159.7450  205.5540  155.0090 O   0  0  0  0  0  0  0  0  0  0  0  0
  159.4260  211.0190  152.7600 C   0  0  0  0  0  2  0  0  0  0  0  0
  158.1990  210.5900  153.3340 O   0  0  0  0  0  1  0  0  0  0  0  0
  158.7650  211.8140  148.2680 C   0  0  0  0  0  1  0  0  0  0  0  0
  160.0730  211.0640  148.4780 C   0  0  1  0  0  3  0  0  0  0  0  0
  162.4870  211.4220  148.2970 N   0  0  0  0  0  0  0  0  0  0  0  0
  162.2360  213.5840  146.6530 C   0  0  0  0  0  3  0  0  0  0  0  0
  163.5120  213.1900  147.0950 C   0  0  0  0  0  3  0  0  0  0  0  0
  163.6390  212.0950  147.9610 C   0  0  0  0  0  3  0  0  0  0  0  0
  161.2880  211.7140  147.8980 C   0  0  0  0  0  0  0  0  0  0  0  0
  161.1260  212.8610  147.0520 C   0  0  0  0  0  3  0  0  0  0  0  0
  1 25  1  6  0  0  0
  1 12  1  0  0  0  0
  2 20  2  0  0  0  0
  4 28  2  0  0  0  0
  5  3  1  1  0  0  0
  5 15  1  0  0  0  0
  6  1  1  0  0  0  0
  8  7  1  0  0  0  0
  8 14  1  0  0  0  0
  9  6  1  0  0  0  0
 10 23  2  0  0  0  0
 11 24  1  1  0  0  0
 11  9  1  0  0  0  0
 12 26  1  0  0  0  0
 13 48  1  6  0  0  0
 13 18  1  0  0  0  0
 13 19  1  0  0  0  0
 14  7  1  1  0  0  0
 14 29  1  0  0  0  0
 17 20  1  0  0  0  0
 18 21  1  6  0  0  0
 18 22  1  0  0  0  0
 20 30  1  0  0  0  0
 22  1  1  0  0  0  0
 23  2  1  0  0  0  0
 24 21  1  0  0  0  0
 26 23  1  0  0  0  0
 26 42  1  1  0  0  0
 27 19  1  0  0  0  0
 27 14  1  0  0  0  0
 28 17  1  0  0  0  0
 28  5  1  0  0  0  0
 29 45  1  6  0  0  0
 29  4  1  0  0  0  0
 30 15  1  0  0  0  0
 30 16  1  1  0  0  0
 32 31  1  6  0  0  0
 33 32  1  0  0  0  0
 34 41  1  6  0  0  0
 34 38  1  0  0  0  0
 34 11  1  0  0  0  0
 35 33  1  0  0  0  0
 36 39  1  0  0  0  0
 36 35  1  0  0  0  0
 38 32  1  0  0  0  0
 39 37  1  1  0  0  0
 39 34  1  0  0  0  0
 40 41  1  0  0  0  0
 42 44  2  0  0  0  0
 42 43  1  0  0  0  0
 45 46  1  0  0  0  0
 48 47  1  1  0  0  0
 50 54  2  0  0  0  0
 50 51  1  0  0  0  0
 51 52  2  0  0  0  0
 52 49  1  0  0  0  0
 53 49  2  0  0  0  0
 53 48  1  0  0  0  0
 54 53  1  0  0  0  0
M  END
>  <MODEL>
2

>  <REMARK>
 VINA RESULT:      12.6      1.118      1.327
  Name = 
  6 active torsions:
  status: ('A' for Active; 'I' for Inactive)
    1  A    between atoms: C_4  and  C_45
    2  A    between atoms: C_16  and  C_17
    3  A    between atoms: C_16  and  C_54
    4  A    between atoms: C_19  and  C_53
    5  A    between atoms: C_26  and  CA_49
    6  A    between atoms: C_42  and  C_53
                            x       y       z     vdW  Elec       q    Type
                         _______ _______ _______ _____ _____    ______ ____

>  <TORSDO>
F 6

$$$$
