=
 OpenBabel11072414033D

 62 68  0  0  1  0  0  0  0  0999 V2000
  161.2250  212.1340  148.6920 C   0  0  2  0  0  3  0  0  0  0  0  0
  161.5650  214.4500  149.6690 C   0  0  0  0  0  1  0  0  0  0  0  0
  158.4970  214.0190  150.2520 C   0  0  0  0  0  2  0  0  0  0  0  0
  160.6280  213.2440  149.5870 C   0  0  2  0  0  0  0  0  0  0  0  0
  160.4130  212.7350  150.8830 O   0  0  0  0  0  0  0  0  0  0  0  0
  159.2020  213.2770  151.3620 C   0  0  2  0  0  3  0  0  0  0  0  0
  159.2950  213.6950  149.0340 C   0  0  0  0  0  2  0  0  0  0  0  0
  158.8760  211.9690  156.2960 P   0  0  1  0  0  0  0  0  0  0  0  0
  158.6550  211.6730  153.2720 C   0  0  2  0  0  0  0  0  0  0  0  0
  159.8260  212.3580  154.0150 C   0  0  0  0  0  2  0  0  0  0  0  0
  160.4420  210.7210  151.7140 C   0  0  0  0  0  1  0  0  0  0  0  0
  157.4390  211.2420  154.0970 C   0  0  0  0  0  2  0  0  0  0  0  0
  158.9580  210.7750  152.0760 C   0  0  2  0  0  3  0  0  0  0  0  0
  158.2930  212.1540  151.8700 C   0  0  2  0  0  3  0  0  0  0  0  0
  160.1460  211.6710  155.1980 O   0  0  0  0  0  0  0  0  0  0  0  0
  157.3030  212.0850  155.3650 C   0  0  2  0  0  3  0  0  0  0  0  0
  158.7900  210.8070  157.2600 O   0  0  0  0  0  0  0  0  0  0  0  0
  158.2370  214.4470  156.9350 O   0  0  0  0  0  1  0  0  0  0  0  0
  160.4640  213.9880  156.9030 O   0  0  0  0  0  1  0  0  0  0  0  0
  159.2050  213.4900  157.2380 C   0  0  0  0  0  3  0  0  0  0  0  0
  157.0460  213.4160  155.0160 O   0  0  0  0  0  0  0  0  0  0  0  0
  155.7040  213.4440  154.6280 C   0  0  1  0  0  3  0  0  0  0  0  0
  154.8890  214.1650  155.6830 C   0  0  0  0  0  1  0  0  0  0  0  0
  155.5770  214.1160  153.4090 O   0  0  0  0  0  1  0  0  0  0  0  0
  161.3810  209.6670  149.0170 C   0  0  0  0  0  3  0  0  0  0  0  0
  161.6240  210.8980  149.4640 C   0  0  0  0  0  3  0  0  0  0  0  0
  161.8300  208.4900  149.8180 C   0  0  0  0  0  2  0  0  0  0  0  0
  163.2130  208.0810  147.9020 O   0  0  0  0  0  1  0  0  0  0  0  0
  162.4640  207.4510  148.8980 C   0  0  2  0  0  3  0  0  0  0  0  0
  162.0260  205.6400  147.1080 C   0  0  0  0  0  2  0  0  0  0  0  0
  160.9750  206.7140  146.8700 C   0  0  0  0  0  2  0  0  0  0  0  0
  161.4780  206.4400  148.2840 C   0  0  0  0  0  0  0  0  0  0  0  0
  160.6890  204.1800  149.4970 C   0  0  2  0  0  3  0  0  0  0  0  0
  160.5430  205.6910  149.2650 C   0  0  1  0  0  3  0  0  0  0  0  0
  160.6820  206.4810  152.8150 F   0  0  0  0  0  0  0  0  0  0  0  0
  161.0490  205.9400  151.6000 C   0  0  2  0  0  0  0  0  0  0  0  0
  161.9360  203.9210  150.3110 C   0  0  0  0  0  2  0  0  0  0  0  0
  160.3570  206.4370  150.4580 O   0  0  0  0  0  0  0  0  0  0  0  0
  161.8780  204.6910  151.6210 C   0  0  1  0  0  3  0  0  0  0  0  0
  162.4450  205.9760  151.4320 O   0  0  0  0  0  0  0  0  0  0  0  0
  160.6390  203.3510  148.2230 C   0  0  0  0  0  2  0  0  0  0  0  0
  159.3030  201.4550  148.9900 C   0  0  0  0  0  2  0  0  0  0  0  0
  160.4710  201.9020  148.5390 C   0  0  0  0  0  0  0  0  0  0  0  0
  161.8000  200.7540  148.1920 S   0  0  0  0  0  0  0  0  0  0  0  0
  161.4390  198.7400  146.3480 C   0  0  0  0  0  1  0  0  0  0  0  0
  161.0010  200.1620  146.6670 C   0  0  2  0  0  3  0  0  0  0  0  0
  161.2600  201.0430  145.5740 O   0  0  0  0  0  0  0  0  0  0  0  0
  160.3160  201.9320  145.0470 C   0  0  0  0  0  0  0  0  0  0  0  0
  159.1850  201.5070  144.7040 O   0  0  0  0  0  0  0  0  0  0  0  0
  160.6190  203.2800  144.8770 O   0  0  0  0  0  1  0  0  0  0  0  0
  162.3200  212.6530  147.7350 C   0  0  0  0  0  2  0  0  0  0  0  0
  161.8540  213.7670  146.7890 C   0  0  0  0  0  2  0  0  0  0  0  0
  161.4910  213.2650  145.4270 C   0  0  0  0  0  3  0  0  0  0  0  0
  162.3500  213.2690  144.4560 N   0  0  0  0  0  0  0  0  0  0  0  0
  162.7540  213.2080  142.0050 N   0  0  0  0  0  2  0  0  0  0  0  0
  160.9990  212.0390  143.0230 O   0  0  0  0  0  0  0  0  0  0  0  0
  162.0180  211.5510  138.5400 C   0  0  0  0  0  2  0  0  0  0  0  0
  163.2730  213.2330  139.7060 N   0  0  0  0  0  0  0  0  0  0  0  0
  162.6570  212.6630  140.6830 C   0  0  0  0  0  0  0  0  0  0  0  0
  161.9960  212.8000  143.1520 C   0  0  0  0  0  0  0  0  0  0  0  0
  163.1490  212.5620  138.4240 C   0  0  0  0  0  2  0  0  0  0  0  0
  161.8330  211.1270  140.3040 S   0  0  0  0  0  0  0  0  0  0  0  0
  1 51  1  1  0  0  0
  1 26  1  0  0  0  0
  1  4  1  0  0  0  0
  4  2  1  1  0  0  0
  4  5  1  0  0  0  0
  5  6  1  0  0  0  0
  6  3  1  6  0  0  0
  7  4  1  0  0  0  0
  7  3  1  0  0  0  0
  8 20  1  0  0  0  0
  8 17  2  1  0  0  0
  9 10  1  1  0  0  0
  9 12  1  0  0  0  0
 10 15  1  0  0  0  0
 12 16  1  0  0  0  0
 13 11  1  6  0  0  0
 13  9  1  0  0  0  0
 14  6  1  6  0  0  0
 14 13  1  0  0  0  0
 14  9  1  0  0  0  0
 15  8  1  0  0  0  0
 16 21  1  6  0  0  0
 16  8  1  0  0  0  0
 18 20  1  0  0  0  0
 19 20  1  0  0  0  0
 22 21  1  0  0  0  0
 22 23  1  1  0  0  0
 24 22  1  0  0  0  0
 25 26  2  0  0  0  0
 25 27  1  0  0  0  0
 29 28  1  6  0  0  0
 29 27  1  0  0  0  0
 30 32  1  0  0  0  0
 31 30  1  0  0  0  0
 31 32  1  0  0  0  0
 32 29  1  0  0  0  0
 33 41  1  6  0  0  0
 33 37  1  0  0  0  0
 34 32  1  1  0  0  0
 34 33  1  0  0  0  0
 34 38  1  0  0  0  0
 36 39  1  0  0  0  0
 36 35  1  1  0  0  0
 38 36  1  0  0  0  0
 39 37  1  6  0  0  0
 40 36  1  0  0  0  0
 40 39  1  0  0  0  0
 41 43  1  0  0  0  0
 43 42  2  0  0  0  0
 44 43  1  0  0  0  0
 46 45  1  6  0  0  0
 46 44  1  0  0  0  0
 47 46  1  0  0  0  0
 48 47  1  0  0  0  0
 49 48  2  0  0  0  0
 50 48  1  0  0  0  0
 52 51  1  0  0  0  0
 53 52  1  0  0  0  0
 54 53  2  0  0  0  0
 55 60  1  0  0  0  0
 56 60  2  0  0  0  0
 57 62  1  0  0  0  0
 58 59  2  0  0  0  0
 59 55  1  0  0  0  0
 60 54  1  0  0  0  0
 61 57  1  0  0  0  0
 61 58  1  0  0  0  0
 62 59  1  0  0  0  0
M  END
>  <MODEL>
1

>  <REMARK>
 VINA RESULT:      -4.7      0.000      0.000
  Name = 
  20 active torsions:
  status: ('A' for Active; 'I' for Inactive)
    1  A    between atoms: C_1  and  C_39
    2  A    between atoms: C_2  and  C_26
    3  A    between atoms: O_4  and  C_18
    4  A    between atoms: O_4  and  C_24
    5  A    between atoms: P_6  and  C_34
    6  A    between atoms: C_8  and  C_58
    7  A    between atoms: C_22  and  C_35
    8  A    between atoms: O_23  and  C_45
    9  A    between atoms: O_23  and  C_54
   10  A    between atoms: C_24  and  S_25
   11  A    between atoms: S_25  and  C_50
   12  A    between atoms: C_26  and  C_37
   13  A    between atoms: C_28  and  C_35
   14  A    between atoms: C_33  and  C_46
   15  A    between atoms: C_35  and  C_41
   16  A    between atoms: C_36  and  C_59
   17  A    between atoms: C_37  and  C_58
   18  A    between atoms: C_39  and  C_50
   19  A    between atoms: C_41  and  C_59
   20  A    between atoms: C_42  and  N_62
                            x       y       z     vdW  Elec       q    Type
                         _______ _______ _______ _____ _____    ______ ____

>  <TORSDO>
F 20

$$$$
=
 OpenBabel11072414033D

 62 68  0  0  1  0  0  0  0  0999 V2000
  161.5140  210.1690  149.6670 C   0  0  2  0  0  3  0  0  0  0  0  0
  160.8320  208.2590  151.1900 C   0  0  0  0  0  1  0  0  0  0  0  0
  161.8550  210.3550  153.3110 C   0  0  0  0  0  2  0  0  0  0  0  0
  161.2160  209.7370  151.1210 C   0  0  2  0  0  0  0  0  0  0  0  0
  160.1590  210.5160  151.6320 O   0  0  0  0  0  0  0  0  0  0  0  0
  160.4500  210.8010  152.9820 C   0  0  2  0  0  3  0  0  0  0  0  0
  162.4310  209.9710  151.9900 C   0  0  0  0  0  2  0  0  0  0  0  0
  156.4590  212.9230  155.3770 P   0  0  1  0  0  0  0  0  0  0  0  0
  158.9130  212.7510  153.5790 C   0  0  2  0  0  0  0  0  0  0  0  0
  157.7990  211.6810  153.6680 C   0  0  0  0  0  2  0  0  0  0  0  0
  158.9140  212.2760  151.0690 C   0  0  0  0  0  1  0  0  0  0  0  0
  158.8670  213.9150  154.5730 C   0  0  0  0  0  2  0  0  0  0  0  0
  159.4920  213.1080  152.2130 C   0  0  2  0  0  3  0  0  0  0  0  0
  160.3310  212.3070  153.2350 C   0  0  2  0  0  3  0  0  0  0  0  0
  156.5330  212.2770  153.8000 O   0  0  0  0  0  0  0  0  0  0  0  0
  158.1230  213.5240  155.8500 C   0  0  2  0  0  3  0  0  0  0  0  0
  155.4980  214.0910  155.3740 O   0  0  0  0  0  0  0  0  0  0  0  0
  156.9210  211.1360  157.2600 O   0  0  0  0  0  1  0  0  0  0  0  0
  155.2160  210.6410  155.8390 O   0  0  0  0  0  1  0  0  0  0  0  0
  155.8500  211.6650  156.5420 C   0  0  0  0  0  3  0  0  0  0  0  0
  158.8300  212.5140  156.5120 O   0  0  0  0  0  0  0  0  0  0  0  0
  159.8550  213.1710  157.1990 C   0  0  1  0  0  3  0  0  0  0  0  0
  161.1440  212.3870  157.0520 C   0  0  0  0  0  1  0  0  0  0  0  0
  160.0330  214.4530  156.6730 O   0  0  0  0  0  1  0  0  0  0  0  0
  161.1560  208.1990  148.1800 C   0  0  0  0  0  3  0  0  0  0  0  0
  161.9950  209.0300  148.7960 C   0  0  0  0  0  3  0  0  0  0  0  0
  161.7000  207.1150  147.3100 C   0  0  0  0  0  2  0  0  0  0  0  0
  163.2800  205.9240  148.6660 O   0  0  0  0  0  1  0  0  0  0  0  0
  161.9830  205.8720  148.1480 C   0  0  2  0  0  3  0  0  0  0  0  0
  162.1630  204.4990  145.9670 C   0  0  0  0  0  2  0  0  0  0  0  0
  160.6850  204.5080  146.3240 C   0  0  0  0  0  2  0  0  0  0  0  0
  161.7360  204.5330  147.4290 C   0  0  0  0  0  0  0  0  0  0  0  0
  161.0400  202.8780  149.4240 C   0  0  2  0  0  3  0  0  0  0  0  0
  161.9650  203.2430  148.2540 C   0  0  1  0  0  3  0  0  0  0  0  0
  161.5870  200.0020  146.6420 F   0  0  0  0  0  0  0  0  0  0  0  0
  161.2300  201.1950  147.2370 C   0  0  2  0  0  0  0  0  0  0  0  0
  159.7050  202.4250  148.8760 C   0  0  0  0  0  2  0  0  0  0  0  0
  162.2760  202.1480  147.4070 O   0  0  0  0  0  0  0  0  0  0  0  0
  159.8980  201.2560  147.9210 C   0  0  1  0  0  3  0  0  0  0  0  0
  160.1020  201.7550  146.6100 O   0  0  0  0  0  0  0  0  0  0  0  0
  160.9010  203.9740  150.4680 C   0  0  0  0  0  2  0  0  0  0  0  0
  161.7600  202.2560  151.9790 C   0  0  0  0  0  2  0  0  0  0  0  0
  161.1750  203.4410  151.8350 C   0  0  0  0  0  0  0  0  0  0  0  0
  160.8310  204.4540  153.2710 S   0  0  0  0  0  0  0  0  0  0  0  0
  163.0630  205.3750  151.9470 C   0  0  0  0  0  1  0  0  0  0  0  0
  161.7830  205.8580  152.6130 C   0  0  2  0  0  3  0  0  0  0  0  0
  162.0580  206.8180  153.6330 O   0  0  0  0  0  0  0  0  0  0  0  0
  161.1740  207.1280  154.6720 C   0  0  0  0  0  0  0  0  0  0  0  0
  161.6260  207.4520  155.7980 O   0  0  0  0  0  1  0  0  0  0  0  0
  159.7960  207.0630  154.4830 O   0  0  0  0  0  0  0  0  0  0  0  0
  162.3920  211.4360  149.5800 C   0  0  0  0  0  2  0  0  0  0  0  0
  161.6180  212.7170  149.2470 C   0  0  0  0  0  2  0  0  0  0  0  0
  161.0800  212.7300  147.8520 C   0  0  0  0  0  3  0  0  0  0  0  0
  161.8590  212.9000  146.8300 N   0  0  0  0  0  0  0  0  0  0  0  0
  162.2310  212.9320  144.3730 N   0  0  0  0  0  2  0  0  0  0  0  0
  160.0910  212.9590  145.3260 O   0  0  0  0  0  0  0  0  0  0  0  0
  160.7600  212.5520  140.7690 C   0  0  0  0  0  2  0  0  0  0  0  0
  162.7390  212.9400  142.0720 N   0  0  0  0  0  0  0  0  0  0  0  0
  161.8680  212.7420  142.9990 C   0  0  0  0  0  0  0  0  0  0  0  0
  161.3400  212.9240  145.4980 C   0  0  0  0  0  0  0  0  0  0  0  0
  162.2770  212.6640  140.7230 C   0  0  0  0  0  2  0  0  0  0  0  0
  160.2890  212.1000  142.4720 S   0  0  0  0  0  0  0  0  0  0  0  0
  1 26  1  6  0  0  0
  1  4  1  0  0  0  0
  4  2  1  1  0  0  0
  4  5  1  0  0  0  0
  4  7  1  0  0  0  0
  5  6  1  0  0  0  0
  6  3  1  6  0  0  0
  7  3  1  0  0  0  0
  8 17  2  1  0  0  0
  8 16  1  0  0  0  0
  8 20  1  0  0  0  0
  9 10  1  1  0  0  0
  9 12  1  0  0  0  0
 10 15  1  0  0  0  0
 12 16  1  0  0  0  0
 13 11  1  6  0  0  0
 13 14  1  0  0  0  0
 13  9  1  0  0  0  0
 14  6  1  6  0  0  0
 14  9  1  0  0  0  0
 15  8  1  0  0  0  0
 16 21  1  6  0  0  0
 19 20  1  0  0  0  0
 20 18  1  0  0  0  0
 21 22  1  0  0  0  0
 22 23  1  6  0  0  0
 24 22  1  0  0  0  0
 25 26  2  0  0  0  0
 27 29  1  0  0  0  0
 27 25  1  0  0  0  0
 29 28  1  6  0  0  0
 30 31  1  0  0  0  0
 30 32  1  0  0  0  0
 31 32  1  0  0  0  0
 32 29  1  0  0  0  0
 33 41  1  1  0  0  0
 34 32  1  6  0  0  0
 34 33  1  0  0  0  0
 36 35  1  6  0  0  0
 36 38  1  0  0  0  0
 36 39  1  0  0  0  0
 37 33  1  0  0  0  0
 38 34  1  0  0  0  0
 39 37  1  1  0  0  0
 40 36  1  0  0  0  0
 40 39  1  0  0  0  0
 41 43  1  0  0  0  0
 43 42  2  0  0  0  0
 43 44  1  0  0  0  0
 46 45  1  1  0  0  0
 46 44  1  0  0  0  0
 46 47  1  0  0  0  0
 47 48  1  0  0  0  0
 48 49  1  0  0  0  0
 50 48  2  0  0  0  0
 51  1  1  0  0  0  0
 52 51  1  0  0  0  0
 53 52  1  0  0  0  0
 54 53  2  0  0  0  0
 55 60  1  0  0  0  0
 56 60  2  0  0  0  0
 57 62  1  0  0  0  0
 58 59  2  0  0  0  0
 59 55  1  0  0  0  0
 60 54  1  0  0  0  0
 61 57  1  0  0  0  0
 61 58  1  0  0  0  0
 62 59  1  0  0  0  0
M  END
>  <MODEL>
2

>  <REMARK>
 VINA RESULT:      -3.4      2.287      4.878
  Name = 
  20 active torsions:
  status: ('A' for Active; 'I' for Inactive)
    1  A    between atoms: C_1  and  C_39
    2  A    between atoms: C_2  and  C_26
    3  A    between atoms: O_4  and  C_18
    4  A    between atoms: O_4  and  C_24
    5  A    between atoms: P_6  and  C_34
    6  A    between atoms: C_8  and  C_58
    7  A    between atoms: C_22  and  C_35
    8  A    between atoms: O_23  and  C_45
    9  A    between atoms: O_23  and  C_54
   10  A    between atoms: C_24  and  S_25
   11  A    between atoms: S_25  and  C_50
   12  A    between atoms: C_26  and  C_37
   13  A    between atoms: C_28  and  C_35
   14  A    between atoms: C_33  and  C_46
   15  A    between atoms: C_35  and  C_41
   16  A    between atoms: C_36  and  C_59
   17  A    between atoms: C_37  and  C_58
   18  A    between atoms: C_39  and  C_50
   19  A    between atoms: C_41  and  C_59
   20  A    between atoms: C_42  and  N_62
                            x       y       z     vdW  Elec       q    Type
                         _______ _______ _______ _____ _____    ______ ____

>  <TORSDO>
F 20

$$$$
=
 OpenBabel11072414033D

 62 68  0  0  1  0  0  0  0  0999 V2000
  160.4820  212.9000  149.9720 C   0  0  2  0  0  3  0  0  0  0  0  0
  158.0820  213.4850  149.3990 C   0  0  0  0  0  1  0  0  0  0  0  0
  157.7630  212.6190  152.4140 C   0  0  0  0  0  2  0  0  0  0  0  0
  159.0690  213.1910  150.5280 C   0  0  2  0  0  0  0  0  0  0  0  0
  159.1270  214.2990  151.3960 O   0  0  0  0  0  0  0  0  0  0  0  0
  158.2600  214.0450  152.4780 C   0  0  2  0  0  3  0  0  0  0  0  0
  158.5700  212.0030  151.3210 C   0  0  0  0  0  2  0  0  0  0  0  0
  159.1960  210.2630  155.7920 P   0  0  1  0  0  0  0  0  0  0  0  0
  158.8070  213.1140  154.7920 C   0  0  2  0  0  0  0  0  0  0  0  0
  157.9500  211.8980  154.3670 C   0  0  0  0  0  2  0  0  0  0  0  0
  156.6130  214.4260  154.7880 C   0  0  0  0  0  1  0  0  0  0  0  0
  160.0380  212.8520  155.6640 C   0  0  0  0  0  2  0  0  0  0  0  0
  158.1180  214.4510  155.0550 C   0  0  2  0  0  3  0  0  0  0  0  0
  159.0010  214.2580  153.8010 C   0  0  2  0  0  3  0  0  0  0  0  0
  157.7160  211.0390  155.4530 O   0  0  0  0  0  0  0  0  0  0  0  0
  160.5670  211.4320  155.4620 C   0  0  2  0  0  3  0  0  0  0  0  0
  159.2170  209.8840  157.2570 O   0  0  0  0  0  0  0  0  0  0  0  0
  158.5430  207.7510  155.3260 O   0  0  0  0  0  1  0  0  0  0  0  0
  160.6810  208.3190  154.8020 O   0  0  0  0  0  1  0  0  0  0  0  0
  159.3550  208.7510  154.7930 C   0  0  0  0  0  3  0  0  0  0  0  0
  161.0200  211.2840  154.1460 O   0  0  0  0  0  0  0  0  0  0  0  0
  162.3380  210.8340  154.2570 C   0  0  1  0  0  3  0  0  0  0  0  0
  162.7350  210.7900  155.7190 C   0  0  0  0  0  1  0  0  0  0  0  0
  162.4480  209.5520  153.7120 O   0  0  0  0  0  1  0  0  0  0  0  0
  161.5910  210.6680  149.8660 C   0  0  0  0  0  3  0  0  0  0  0  0
  161.1270  211.6820  150.5950 C   0  0  0  0  0  3  0  0  0  0  0  0
  162.2440  209.5110  150.5450 C   0  0  0  0  0  2  0  0  0  0  0  0
  160.2770  208.6170  151.5860 O   0  0  0  0  0  1  0  0  0  0  0  0
  161.2650  208.3450  150.6360 C   0  0  2  0  0  3  0  0  0  0  0  0
  161.4160  206.2550  152.1470 C   0  0  0  0  0  2  0  0  0  0  0  0
  162.8190  206.8410  152.1180 C   0  0  0  0  0  2  0  0  0  0  0  0
  161.9120  206.9720  150.8980 C   0  0  0  0  0  0  0  0  0  0  0  0
  161.1560  205.1310  149.0980 C   0  0  2  0  0  3  0  0  0  0  0  0
  162.2120  206.0930  149.6600 C   0  0  1  0  0  3  0  0  0  0  0  0
  162.8050  207.6880  146.4420 F   0  0  0  0  0  0  0  0  0  0  0  0
  162.1110  207.2010  147.5310 C   0  0  2  0  0  0  0  0  0  0  0  0
  160.0740  205.9320  148.4080 C   0  0  0  0  0  2  0  0  0  0  0  0
  162.8960  206.8380  148.6630 O   0  0  0  0  0  0  0  0  0  0  0  0
  160.6810  206.8050  147.3190 C   0  0  1  0  0  3  0  0  0  0  0  0
  161.0480  208.0550  147.8760 O   0  0  0  0  0  0  0  0  0  0  0  0
  160.5970  204.1580  150.1240 C   0  0  0  0  0  2  0  0  0  0  0  0
  160.2210  201.7510  150.3200 C   0  0  0  0  0  2  0  0  0  0  0  0
  160.8600  202.7470  149.7140 C   0  0  0  0  0  0  0  0  0  0  0  0
  161.9370  202.4090  148.3250 S   0  0  0  0  0  0  0  0  0  0  0  0
  161.4880  199.9140  147.2500 C   0  0  0  0  0  1  0  0  0  0  0  0
  160.7730  201.2090  147.6060 C   0  0  2  0  0  3  0  0  0  0  0  0
  160.0980  201.7590  146.4750 O   0  0  0  0  0  0  0  0  0  0  0  0
  160.0580  201.1480  145.2170 C   0  0  0  0  0  0  0  0  0  0  0  0
  159.6300  201.7900  144.2260 O   0  0  0  0  0  0  0  0  0  0  0  0
  160.4670  199.8270  145.0490 O   0  0  0  0  0  1  0  0  0  0  0  0
  161.3920  214.1470  149.9510 C   0  0  0  0  0  2  0  0  0  0  0  0
  162.2530  214.2770  148.6880 C   0  0  0  0  0  2  0  0  0  0  0  0
  161.5120  213.9310  147.4360 C   0  0  0  0  0  3  0  0  0  0  0  0
  162.1390  213.6360  146.3400 N   0  0  0  0  0  0  0  0  0  0  0  0
  162.1030  213.3200  143.8760 N   0  0  0  0  0  2  0  0  0  0  0  0
  160.1960  213.0550  145.2100 O   0  0  0  0  0  0  0  0  0  0  0  0
  160.2220  212.0160  140.7050 C   0  0  0  0  0  2  0  0  0  0  0  0
  162.2280  213.0360  141.5390 N   0  0  0  0  0  0  0  0  0  0  0  0
  161.5860  212.8220  142.6350 C   0  0  0  0  0  0  0  0  0  0  0  0
  161.4270  213.3180  145.1420 C   0  0  0  0  0  0  0  0  0  0  0  0
  161.6400  212.4390  140.3530 C   0  0  0  0  0  2  0  0  0  0  0  0
  160.1450  211.7760  142.5110 S   0  0  0  0  0  0  0  0  0  0  0  0
  1 51  1  1  0  0  0
  1  4  1  0  0  0  0
  1 26  1  0  0  0  0
  4  2  1  6  0  0  0
  4  7  1  0  0  0  0
  4  5  1  0  0  0  0
  5  6  1  0  0  0  0
  6  3  1  6  0  0  0
  7  3  1  0  0  0  0
  8 17  2  1  0  0  0
  9 10  1  6  0  0  0
  9 13  1  0  0  0  0
  9 12  1  0  0  0  0
 10 15  1  0  0  0  0
 13 11  1  6  0  0  0
 14  6  1  6  0  0  0
 14  9  1  0  0  0  0
 14 13  1  0  0  0  0
 15  8  1  0  0  0  0
 16 21  1  6  0  0  0
 16 12  1  0  0  0  0
 16  8  1  0  0  0  0
 20 19  1  0  0  0  0
 20 18  1  0  0  0  0
 20  8  1  0  0  0  0
 21 22  1  0  0  0  0
 22 23  1  1  0  0  0
 24 22  1  0  0  0  0
 25 27  1  0  0  0  0
 25 26  2  0  0  0  0
 27 29  1  0  0  0  0
 29 32  1  0  0  0  0
 29 28  1  1  0  0  0
 31 30  1  0  0  0  0
 32 31  1  0  0  0  0
 32 30  1  0  0  0  0
 33 34  1  0  0  0  0
 33 41  1  1  0  0  0
 34 32  1  1  0  0  0
 36 35  1  6  0  0  0
 36 40  1  0  0  0  0
 36 38  1  0  0  0  0
 37 33  1  0  0  0  0
 38 34  1  0  0  0  0
 39 36  1  0  0  0  0
 39 40  1  0  0  0  0
 39 37  1  1  0  0  0
 43 41  1  0  0  0  0
 43 42  2  0  0  0  0
 44 43  1  0  0  0  0
 46 45  1  6  0  0  0
 46 44  1  0  0  0  0
 47 46  1  0  0  0  0
 48 47  1  0  0  0  0
 49 48  2  0  0  0  0
 50 48  1  0  0  0  0
 52 51  1  0  0  0  0
 53 52  1  0  0  0  0
 54 53  2  0  0  0  0
 55 60  1  0  0  0  0
 57 62  1  0  0  0  0
 58 59  2  0  0  0  0
 59 55  1  0  0  0  0
 60 56  2  0  0  0  0
 60 54  1  0  0  0  0
 61 57  1  0  0  0  0
 61 58  1  0  0  0  0
 62 59  1  0  0  0  0
M  END
>  <MODEL>
3

>  <REMARK>
 VINA RESULT:      -2.5      1.954      3.616
  Name = 
  20 active torsions:
  status: ('A' for Active; 'I' for Inactive)
    1  A    between atoms: C_1  and  C_39
    2  A    between atoms: C_2  and  C_26
    3  A    between atoms: O_4  and  C_18
    4  A    between atoms: O_4  and  C_24
    5  A    between atoms: P_6  and  C_34
    6  A    between atoms: C_8  and  C_58
    7  A    between atoms: C_22  and  C_35
    8  A    between atoms: O_23  and  C_45
    9  A    between atoms: O_23  and  C_54
   10  A    between atoms: C_24  and  S_25
   11  A    between atoms: S_25  and  C_50
   12  A    between atoms: C_26  and  C_37
   13  A    between atoms: C_28  and  C_35
   14  A    between atoms: C_33  and  C_46
   15  A    between atoms: C_35  and  C_41
   16  A    between atoms: C_36  and  C_59
   17  A    between atoms: C_37  and  C_58
   18  A    between atoms: C_39  and  C_50
   19  A    between atoms: C_41  and  C_59
   20  A    between atoms: C_42  and  N_62
                            x       y       z     vdW  Elec       q    Type
                         _______ _______ _______ _____ _____    ______ ____

>  <TORSDO>
F 20

$$$$
=
 OpenBabel11072414033D

 62 68  0  0  1  0  0  0  0  0999 V2000
  160.0960  212.1650  150.6020 C   0  0  2  0  0  3  0  0  0  0  0  0
  157.6650  212.8870  150.6430 C   0  0  0  0  0  1  0  0  0  0  0  0
  157.9870  211.7650  153.5720 C   0  0  0  0  0  2  0  0  0  0  0  0
  158.8640  212.4560  151.4890 C   0  0  2  0  0  0  0  0  0  0  0  0
  159.1780  213.4790  152.4050 O   0  0  0  0  0  0  0  0  0  0  0  0
  158.5640  213.1590  153.6340 C   0  0  2  0  0  3  0  0  0  0  0  0
  158.4900  211.2210  152.2780 C   0  0  0  0  0  2  0  0  0  0  0  0
  160.4560  208.9990  155.9300 P   0  0  1  0  0  0  0  0  0  0  0  0
  159.7020  211.9270  155.5590 C   0  0  2  0  0  0  0  0  0  0  0  0
  158.8250  210.7230  155.1400 C   0  0  0  0  0  2  0  0  0  0  0  0
  157.5160  213.0280  156.2940 C   0  0  0  0  0  1  0  0  0  0  0  0
  161.1200  211.6390  156.0610 C   0  0  0  0  0  2  0  0  0  0  0  0
  159.0370  213.1400  156.2040 C   0  0  2  0  0  3  0  0  0  0  0  0
  159.5950  213.2250  154.7650 C   0  0  2  0  0  3  0  0  0  0  0  0
  158.9030  209.6870  156.0850 O   0  0  0  0  0  0  0  0  0  0  0  0
  161.6490  210.3190  155.4980 C   0  0  2  0  0  3  0  0  0  0  0  0
  160.8510  208.3970  157.2600 O   0  0  0  0  0  0  0  0  0  0  0  0
  161.6760  207.0460  154.6460 O   0  0  0  0  0  1  0  0  0  0  0  0
  160.1740  208.2330  153.4200 O   0  0  0  0  0  1  0  0  0  0  0  0
  160.4360  207.6830  154.6740 C   0  0  0  0  0  3  0  0  0  0  0  0
  161.7730  210.4210  154.1080 O   0  0  0  0  0  0  0  0  0  0  0  0
  163.0690  210.8940  153.8860 C   0  0  1  0  0  3  0  0  0  0  0  0
  163.8180  210.9520  155.2030 C   0  0  0  0  0  1  0  0  0  0  0  0
  163.7430  210.0380  153.0110 O   0  0  0  0  0  1  0  0  0  0  0  0
  161.4730  210.1410  150.1240 C   0  0  0  0  0  3  0  0  0  0  0  0
  160.8360  210.9100  151.0060 C   0  0  0  0  0  3  0  0  0  0  0  0
  162.2100  208.9320  150.5980 C   0  0  0  0  0  2  0  0  0  0  0  0
  162.6230  208.7660  148.2410 O   0  0  0  0  0  1  0  0  0  0  0  0
  162.5150  208.0180  149.4160 C   0  0  2  0  0  3  0  0  0  0  0  0
  160.2260  207.2070  148.5340 C   0  0  0  0  0  2  0  0  0  0  0  0
  160.2290  206.8860  150.0210 C   0  0  0  0  0  2  0  0  0  0  0  0
  161.5320  206.8470  149.2300 C   0  0  0  0  0  0  0  0  0  0  0  0
  161.2540  204.2370  148.6670 C   0  0  2  0  0  3  0  0  0  0  0  0
  162.1470  205.4660  148.8920 C   0  0  1  0  0  3  0  0  0  0  0  0
  163.9350  205.0280  145.7530 F   0  0  0  0  0  0  0  0  0  0  0  0
  162.8720  205.1610  146.6230 C   0  0  2  0  0  0  0  0  0  0  0  0
  160.5490  204.3750  147.3360 C   0  0  0  0  0  2  0  0  0  0  0  0
  163.1930  205.5950  147.9420 O   0  0  0  0  0  0  0  0  0  0  0  0
  161.5660  204.5480  146.2180 C   0  0  1  0  0  3  0  0  0  0  0  0
  161.8420  205.9270  146.0490 O   0  0  0  0  0  0  0  0  0  0  0  0
  160.2930  203.9530  149.8110 C   0  0  0  0  0  2  0  0  0  0  0  0
  161.0970  203.9020  152.1180 C   0  0  0  0  0  2  0  0  0  0  0  0
  161.0000  203.2860  150.9430 C   0  0  0  0  0  0  0  0  0  0  0  0
  161.6050  201.6120  150.7540 S   0  0  0  0  0  0  0  0  0  0  0  0
  159.1940  200.9140  149.6220 C   0  0  0  0  0  1  0  0  0  0  0  0
  160.6100  201.3330  149.2560 C   0  0  2  0  0  3  0  0  0  0  0  0
  161.2290  200.3760  148.3960 O   0  0  0  0  0  0  0  0  0  0  0  0
  161.1310  200.4020  147.0010 C   0  0  0  0  0  0  0  0  0  0  0  0
  160.5830  201.3790  146.4330 O   0  0  0  0  0  1  0  0  0  0  0  0
  161.6150  199.3490  146.2290 O   0  0  0  0  0  0  0  0  0  0  0  0
  161.0090  213.3950  150.4130 C   0  0  0  0  0  2  0  0  0  0  0  0
  160.4510  214.4530  149.4530 C   0  0  0  0  0  2  0  0  0  0  0  0
  160.8000  214.1870  148.0230 C   0  0  0  0  0  3  0  0  0  0  0  0
  161.5920  213.2150  147.6910 N   0  0  0  0  0  0  0  0  0  0  0  0
  160.9310  212.5410  145.3930 N   0  0  0  0  0  2  0  0  0  0  0  0
  163.1300  213.1210  145.9540 O   0  0  0  0  0  0  0  0  0  0  0  0
  161.8240  212.3200  141.5920 C   0  0  0  0  0  2  0  0  0  0  0  0
  160.1510  211.9020  143.2620 N   0  0  0  0  0  0  0  0  0  0  0  0
  161.0700  212.4640  143.9680 C   0  0  0  0  0  0  0  0  0  0  0  0
  161.9340  212.9710  146.3240 C   0  0  0  0  0  0  0  0  0  0  0  0
  160.3720  211.9310  141.8270 C   0  0  0  0  0  2  0  0  0  0  0  0
  162.3990  213.2360  143.0600 S   0  0  0  0  0  0  0  0  0  0  0  0
  1 51  1  1  0  0  0
  1 26  1  0  0  0  0
  1  4  1  0  0  0  0
  4  2  1  6  0  0  0
  4  7  1  0  0  0  0
  4  5  1  0  0  0  0
  5  6  1  0  0  0  0
  6  3  1  6  0  0  0
  7  3  1  0  0  0  0
  8 15  1  0  0  0  0
  8 17  2  1  0  0  0
  9 10  1  6  0  0  0
  9 12  1  0  0  0  0
  9 13  1  0  0  0  0
 10 15  1  0  0  0  0
 13 11  1  6  0  0  0
 14  6  1  6  0  0  0
 14  9  1  0  0  0  0
 14 13  1  0  0  0  0
 16 21  1  6  0  0  0
 16  8  1  0  0  0  0
 16 12  1  0  0  0  0
 18 20  1  0  0  0  0
 19 20  1  0  0  0  0
 20  8  1  0  0  0  0
 22 21  1  0  0  0  0
 22 23  1  1  0  0  0
 24 22  1  0  0  0  0
 25 27  1  0  0  0  0
 25 26  2  0  0  0  0
 29 28  1  6  0  0  0
 29 27  1  0  0  0  0
 30 32  1  0  0  0  0
 30 31  1  0  0  0  0
 32 29  1  0  0  0  0
 32 31  1  0  0  0  0
 33 34  1  0  0  0  0
 33 41  1  1  0  0  0
 34 32  1  6  0  0  0
 36 35  1  6  0  0  0
 36 38  1  0  0  0  0
 37 33  1  0  0  0  0
 38 34  1  0  0  0  0
 39 36  1  0  0  0  0
 39 37  1  1  0  0  0
 40 39  1  0  0  0  0
 40 36  1  0  0  0  0
 41 43  1  0  0  0  0
 43 42  2  0  0  0  0
 44 43  1  0  0  0  0
 46 45  1  1  0  0  0
 46 44  1  0  0  0  0
 47 46  1  0  0  0  0
 48 47  1  0  0  0  0
 49 48  1  0  0  0  0
 50 48  2  0  0  0  0
 52 51  1  0  0  0  0
 53 52  1  0  0  0  0
 54 53  2  0  0  0  0
 55 60  1  0  0  0  0
 56 60  2  0  0  0  0
 57 61  1  0  0  0  0
 57 62  1  0  0  0  0
 58 59  2  0  0  0  0
 59 55  1  0  0  0  0
 60 54  1  0  0  0  0
 61 58  1  0  0  0  0
 62 59  1  0  0  0  0
M  END
>  <MODEL>
4

>  <REMARK>
 VINA RESULT:      -2.4      2.413      4.242
  Name = 
  20 active torsions:
  status: ('A' for Active; 'I' for Inactive)
    1  A    between atoms: C_1  and  C_39
    2  A    between atoms: C_2  and  C_26
    3  A    between atoms: O_4  and  C_18
    4  A    between atoms: O_4  and  C_24
    5  A    between atoms: P_6  and  C_34
    6  A    between atoms: C_8  and  C_58
    7  A    between atoms: C_22  and  C_35
    8  A    between atoms: O_23  and  C_45
    9  A    between atoms: O_23  and  C_54
   10  A    between atoms: C_24  and  S_25
   11  A    between atoms: S_25  and  C_50
   12  A    between atoms: C_26  and  C_37
   13  A    between atoms: C_28  and  C_35
   14  A    between atoms: C_33  and  C_46
   15  A    between atoms: C_35  and  C_41
   16  A    between atoms: C_36  and  C_59
   17  A    between atoms: C_37  and  C_58
   18  A    between atoms: C_39  and  C_50
   19  A    between atoms: C_41  and  C_59
   20  A    between atoms: C_42  and  N_62
                            x       y       z     vdW  Elec       q    Type
                         _______ _______ _______ _____ _____    ______ ____

>  <TORSDO>
F 20

$$$$
=
 OpenBabel11072414033D

 62 68  0  0  1  0  0  0  0  0999 V2000
  161.0560  208.7640  153.2870 C   0  0  2  0  0  3  0  0  0  0  0  0
  160.1600  206.7610  154.5590 C   0  0  0  0  0  1  0  0  0  0  0  0
  161.5680  208.3460  156.8920 C   0  0  0  0  0  2  0  0  0  0  0  0
  160.7560  208.1630  154.6800 C   0  0  2  0  0  0  0  0  0  0  0  0
  159.8480  208.9960  155.3630 O   0  0  0  0  0  0  0  0  0  0  0  0
  160.2320  209.0300  156.7190 C   0  0  2  0  0  3  0  0  0  0  0  0
  162.0270  208.0890  155.4960 C   0  0  0  0  0  2  0  0  0  0  0  0
  158.8320  213.0230  153.8460 P   0  0  1  0  0  0  0  0  0  0  0  0
  160.2690  211.4960  156.0560 C   0  0  2  0  0  0  0  0  0  0  0  0
  160.0550  210.9800  154.6120 C   0  0  0  0  0  2  0  0  0  0  0  0
  162.5870  210.4330  155.8940 C   0  0  0  0  0  1  0  0  0  0  0  0
  159.5810  212.8040  156.4570 C   0  0  0  0  0  2  0  0  0  0  0  0
  161.6110  211.2500  156.7400 C   0  0  2  0  0  3  0  0  0  0  0  0
  160.3490  210.4820  157.1930 C   0  0  2  0  0  3  0  0  0  0  0  0
  160.2000  212.0180  153.6770 O   0  0  0  0  0  0  0  0  0  0  0  0
  158.3360  213.0580  155.6080 C   0  0  2  0  0  3  0  0  0  0  0  0
  159.2070  214.4240  153.4150 O   0  0  0  0  0  0  0  0  0  0  0  0
  157.7710  212.7110  151.4520 O   0  0  0  0  0  1  0  0  0  0  0  0
  156.2890  213.0580  153.1400 O   0  0  0  0  0  1  0  0  0  0  0  0
  157.4800  212.4260  152.7850 C   0  0  0  0  0  3  0  0  0  0  0  0
  157.3870  212.0610  155.8620 O   0  0  0  0  0  0  0  0  0  0  0  0
  156.5770  212.5710  156.8800 C   0  0  1  0  0  3  0  0  0  0  0  0
  156.1160  213.9660  156.5070 C   0  0  0  0  0  1  0  0  0  0  0  0
  155.4610  211.7490  157.0560 O   0  0  0  0  0  1  0  0  0  0  0  0
  161.1970  207.6120  151.0800 C   0  0  0  0  0  3  0  0  0  0  0  0
  160.4810  207.9480  152.1520 C   0  0  0  0  0  3  0  0  0  0  0  0
  160.5750  206.7770  150.0110 C   0  0  0  0  0  2  0  0  0  0  0  0
  162.9090  206.7040  149.4660 O   0  0  0  0  0  1  0  0  0  0  0  0
  161.6620  206.1730  149.1280 C   0  0  2  0  0  3  0  0  0  0  0  0
  161.1830  207.7110  147.1080 C   0  0  0  0  0  2  0  0  0  0  0  0
  160.0210  206.7300  147.1610 C   0  0  0  0  0  2  0  0  0  0  0  0
  161.4100  206.2920  147.6130 C   0  0  0  0  0  0  0  0  0  0  0  0
  161.8560  203.8550  146.5820 C   0  0  2  0  0  3  0  0  0  0  0  0
  162.2170  205.3430  146.6940 C   0  0  1  0  0  3  0  0  0  0  0  0
  162.1540  205.8680  143.0930 F   0  0  0  0  0  0  0  0  0  0  0  0
  161.7270  205.4800  144.3470 C   0  0  2  0  0  0  0  0  0  0  0  0
  160.5750  203.7140  145.7900 C   0  0  0  0  0  2  0  0  0  0  0  0
  162.4950  205.9600  145.4470 O   0  0  0  0  0  0  0  0  0  0  0  0
  160.7280  204.3650  144.4230 C   0  0  1  0  0  3  0  0  0  0  0  0
  160.3520  205.7280  144.5120 O   0  0  0  0  0  0  0  0  0  0  0  0
  161.8010  203.1290  147.9160 C   0  0  0  0  0  2  0  0  0  0  0  0
  161.2420  200.9920  146.8700 C   0  0  0  0  0  2  0  0  0  0  0  0
  160.9740  201.8910  147.8130 C   0  0  0  0  0  0  0  0  0  0  0  0
  159.7070  201.5610  149.0340 S   0  0  0  0  0  0  0  0  0  0  0  0
  161.1040  200.6670  151.2320 C   0  0  0  0  0  1  0  0  0  0  0  0
  160.8310  201.9240  150.4190 C   0  0  2  0  0  3  0  0  0  0  0  0
  160.3150  202.9720  151.2400 O   0  0  0  0  0  0  0  0  0  0  0  0
  161.1140  203.8350  151.9980 C   0  0  0  0  0  0  0  0  0  0  0  0
  160.6700  204.3140  153.0710 O   0  0  0  0  0  1  0  0  0  0  0  0
  162.3920  204.1880  151.5710 O   0  0  0  0  0  0  0  0  0  0  0  0
  162.5420  209.1390  153.0980 C   0  0  0  0  0  2  0  0  0  0  0  0
  162.7840  210.6240  152.8020 C   0  0  0  0  0  2  0  0  0  0  0  0
  162.8510  210.9270  151.3390 C   0  0  0  0  0  3  0  0  0  0  0  0
  161.7750  211.0790  150.6310 N   0  0  0  0  0  0  0  0  0  0  0  0
  160.6710  211.7810  148.5180 N   0  0  0  0  0  2  0  0  0  0  0  0
  162.9390  211.2020  148.6260 O   0  0  0  0  0  0  0  0  0  0  0  0
  161.0130  212.9440  144.8010 C   0  0  0  0  0  2  0  0  0  0  0  0
  159.4940  212.4810  146.6010 N   0  0  0  0  0  0  0  0  0  0  0  0
  160.6280  212.2930  147.1810 C   0  0  0  0  0  0  0  0  0  0  0  0
  161.8420  211.3550  149.2300 C   0  0  0  0  0  0  0  0  0  0  0  0
  159.5700  213.0550  145.2690 C   0  0  0  0  0  2  0  0  0  0  0  0
  162.0710  212.8380  146.2830 S   0  0  0  0  0  0  0  0  0  0  0  0
  1 26  1  6  0  0  0
  1  4  1  0  0  0  0
  4  2  1  6  0  0  0
  4  5  1  0  0  0  0
  4  7  1  0  0  0  0
  5  6  1  0  0  0  0
  6  3  1  6  0  0  0
  7  3  1  0  0  0  0
  8 17  2  6  0  0  0
  8 16  1  0  0  0  0
  9 10  1  6  0  0  0
  9 12  1  0  0  0  0
  9 13  1  0  0  0  0
  9 14  1  0  0  0  0
 13 11  1  6  0  0  0
 13 14  1  0  0  0  0
 14  6  1  6  0  0  0
 15  8  1  0  0  0  0
 15 10  1  0  0  0  0
 16 21  1  6  0  0  0
 16 12  1  0  0  0  0
 18 20  1  0  0  0  0
 20 19  1  0  0  0  0
 20  8  1  0  0  0  0
 21 22  1  0  0  0  0
 22 23  1  6  0  0  0
 22 24  1  0  0  0  0
 25 26  2  0  0  0  0
 27 25  1  0  0  0  0
 29 28  1  6  0  0  0
 29 27  1  0  0  0  0
 30 31  1  0  0  0  0
 30 32  1  0  0  0  0
 31 32  1  0  0  0  0
 32 29  1  0  0  0  0
 33 34  1  0  0  0  0
 33 41  1  1  0  0  0
 34 32  1  6  0  0  0
 36 35  1  6  0  0  0
 36 39  1  0  0  0  0
 36 40  1  0  0  0  0
 36 38  1  0  0  0  0
 37 33  1  0  0  0  0
 38 34  1  0  0  0  0
 39 40  1  0  0  0  0
 39 37  1  1  0  0  0
 42 43  2  0  0  0  0
 43 41  1  0  0  0  0
 43 44  1  0  0  0  0
 44 46  1  0  0  0  0
 46 45  1  1  0  0  0
 46 47  1  0  0  0  0
 47 48  1  0  0  0  0
 48 49  1  0  0  0  0
 50 48  2  0  0  0  0
 51  1  1  0  0  0  0
 52 51  1  0  0  0  0
 53 52  1  0  0  0  0
 54 53  2  0  0  0  0
 55 60  1  0  0  0  0
 56 60  2  0  0  0  0
 57 61  1  0  0  0  0
 57 62  1  0  0  0  0
 58 59  2  0  0  0  0
 59 55  1  0  0  0  0
 60 54  1  0  0  0  0
 61 58  1  0  0  0  0
 62 59  1  0  0  0  0
M  END
>  <MODEL>
5

>  <REMARK>
 VINA RESULT:      -1.9      3.181      5.517
  Name = 
  20 active torsions:
  status: ('A' for Active; 'I' for Inactive)
    1  A    between atoms: C_1  and  C_39
    2  A    between atoms: C_2  and  C_26
    3  A    between atoms: O_4  and  C_18
    4  A    between atoms: O_4  and  C_24
    5  A    between atoms: P_6  and  C_34
    6  A    between atoms: C_8  and  C_58
    7  A    between atoms: C_22  and  C_35
    8  A    between atoms: O_23  and  C_45
    9  A    between atoms: O_23  and  C_54
   10  A    between atoms: C_24  and  S_25
   11  A    between atoms: S_25  and  C_50
   12  A    between atoms: C_26  and  C_37
   13  A    between atoms: C_28  and  C_35
   14  A    between atoms: C_33  and  C_46
   15  A    between atoms: C_35  and  C_41
   16  A    between atoms: C_36  and  C_59
   17  A    between atoms: C_37  and  C_58
   18  A    between atoms: C_39  and  C_50
   19  A    between atoms: C_41  and  C_59
   20  A    between atoms: C_42  and  N_62
                            x       y       z     vdW  Elec       q    Type
                         _______ _______ _______ _____ _____    ______ ____

>  <TORSDO>
F 20

$$$$
