=
 OpenBabel11072410463D

 38 43  0  0  1  0  0  0  0  0999 V2000
  161.5220  206.2750  153.1930 C   0  0  2  0  0  3  0  0  0  0  0  0
  161.0300  207.2110  150.9120 C   0  0  2  0  0  0  0  0  0  0  0  0
  161.2250  206.8690  149.4340 C   0  0  1  0  0  3  0  0  0  0  0  0
  161.0050  209.8590  154.4940 C   0  0  0  0  0  0  0  0  0  0  0  0
  160.9550  210.6300  152.4200 N   0  0  0  0  0  0  0  0  0  0  0  0
  160.3500  207.0510  155.1340 O   0  0  0  0  0  0  0  0  0  0  0  0
  160.9950  210.9750  153.6960 C   0  0  0  0  0  0  0  0  0  0  0  0
  160.1850  211.6600  151.7400 C   0  0  1  0  0  3  0  0  0  0  0  0
  161.0050  208.7630  153.6390 C   0  0  0  0  0  0  0  0  0  0  0  0
  159.8900  212.6170  152.8180 N   0  0  0  0  0  0  0  0  0  0  0  0
  161.5800  205.0660  153.8890 O   0  0  0  0  0  1  0  0  0  0  0  0
  160.9130  209.2840  152.3420 C   0  0  0  0  0  0  0  0  0  0  0  0
  160.3810  208.5670  151.1370 C   0  0  0  0  0  2  0  0  0  0  0  0
  160.3390  212.2030  153.9390 N   0  0  0  0  0  0  0  0  0  0  0  0
  162.4190  207.2430  150.3170 C   0  0  0  0  0  2  0  0  0  0  0  0
  160.8980  209.8360  155.8800 O   0  0  0  0  0  1  0  0  0  0  0  0
  160.9090  207.3490  154.0440 C   0  0  0  0  0  0  0  0  0  0  0  0
  160.7500  206.0770  151.9000 C   0  0  0  0  0  2  0  0  0  0  0  0
  161.1430  205.3880  149.1370 C   0  0  0  0  0  0  0  0  0  0  0  0
  161.0520  204.4490  150.1910 C   0  0  0  0  0  3  0  0  0  0  0  0
  161.2390  204.9260  147.7990 C   0  0  0  0  0  0  0  0  0  0  0  0
  161.0650  201.3310  148.2330 N   0  0  0  0  0  0  0  0  0  0  0  0
  160.9580  200.2680  149.1010 O   0  0  0  0  0  1  0  0  0  0  0  0
  161.0210  203.0710  149.9410 C   0  0  0  0  0  3  0  0  0  0  0  0
  161.2070  203.5430  147.5780 C   0  0  0  0  0  0  0  0  0  0  0  0
  161.1400  200.0920  146.2970 O   0  0  0  0  0  0  0  0  0  0  0  0
  161.1500  201.2020  146.8900 C   0  0  0  0  0  0  0  0  0  0  0  0
  161.0940  202.6320  148.6210 C   0  0  0  0  0  0  0  0  0  0  0  0
  161.2660  202.6980  146.1150 S   0  0  0  0  0  0  0  0  0  0  0  0
  160.2280  206.3990  146.0400 C   0  0  0  0  0  1  0  0  0  0  0  0
  162.7100  206.1200  146.1620 C   0  0  0  0  0  1  0  0  0  0  0  0
  161.3920  205.8350  146.7020 N   0  0  0  0  0  0  0  0  0  0  0  0
  161.0000  212.3140  150.6260 C   0  0  0  0  0  2  0  0  0  0  0  0
  162.0570  211.3760  150.0490 C   0  0  0  0  0  2  0  0  0  0  0  0
  160.8880  212.0560  148.0900 F   0  0  0  0  0  0  0  0  0  0  0  0
  163.1190  211.7230  147.9460 F   0  0  0  0  0  0  0  0  0  0  0  0
  161.9460  211.2850  148.5350 C   0  0  0  0  0  0  0  0  0  0  0  0
  161.7270  209.9690  148.1780 F   0  0  0  0  0  0  0  0  0  0  0  0
  1 11  1  1  0  0  0
  1 17  1  0  0  0  0
  2 15  1  1  0  0  0
  2 13  1  0  0  0  0
  2 18  1  0  0  0  0
  3 19  1  1  0  0  0
  3 15  1  0  0  0  0
  3  2  1  0  0  0  0
  4 16  1  0  0  0  0
  5  7  1  0  0  0  0
  7 14  1  0  0  0  0
  7  4  2  0  0  0  0
  8 33  1  6  0  0  0
  8  5  1  0  0  0  0
  8 10  1  0  0  0  0
  9 17  1  0  0  0  0
  9  4  1  0  0  0  0
 10 14  2  0  0  0  0
 12  5  1  0  0  0  0
 12  9  2  0  0  0  0
 13 12  1  0  0  0  0
 17  6  2  0  0  0  0
 18  1  1  0  0  0  0
 19 20  1  0  0  0  0
 21 19  2  0  0  0  0
 22 28  1  0  0  0  0
 22 23  1  0  0  0  0
 24 20  2  0  0  0  0
 25 21  1  0  0  0  0
 25 28  2  0  0  0  0
 26 27  2  0  0  0  0
 27 22  1  0  0  0  0
 28 24  1  0  0  0  0
 29 27  1  0  0  0  0
 29 25  1  0  0  0  0
 30 32  1  0  0  0  0
 31 32  1  0  0  0  0
 32 21  1  0  0  0  0
 34 33  1  0  0  0  0
 35 37  1  0  0  0  0
 36 37  1  0  0  0  0
 37 34  1  0  0  0  0
 38 37  1  0  0  0  0
M  END
>  <MODEL>
1

>  <REMARK>
 VINA RESULT:      -7.8      0.000      0.000
  Name = 
  5 active torsions:
  status: ('A' for Active; 'I' for Inactive)
    1  A    between atoms: C_1  and  C_5
    2  A    between atoms: C_6  and  N_36
    3  A    between atoms: C_9  and  C_26
    4  A    between atoms: C_9  and  C_35
    5  A    between atoms: C_15  and  C_35
                            x       y       z     vdW  Elec       q    Type
                         _______ _______ _______ _____ _____    ______ ____

>  <TORSDO>
F 5

$$$$
=
 OpenBabel11072410463D

 38 43  0  0  1  0  0  0  0  0999 V2000
  161.4430  206.6540  153.8850 C   0  0  2  0  0  3  0  0  0  0  0  0
  160.8800  207.5460  151.6030 C   0  0  2  0  0  0  0  0  0  0  0  0
  161.0530  207.1870  150.1250 C   0  0  1  0  0  3  0  0  0  0  0  0
  160.8630  210.2430  155.1480 C   0  0  0  0  0  0  0  0  0  0  0  0
  160.7510  210.9820  153.0650 N   0  0  0  0  0  0  0  0  0  0  0  0
  160.2930  207.4280  155.8390 O   0  0  0  0  0  0  0  0  0  0  0  0
  160.8090  211.3460  154.3350 C   0  0  0  0  0  0  0  0  0  0  0  0
  159.9410  211.9830  152.3880 C   0  0  1  0  0  3  0  0  0  0  0  0
  160.8730  209.1340  154.3080 C   0  0  0  0  0  0  0  0  0  0  0  0
  159.6450  212.9470  153.4580 N   0  0  0  0  0  0  0  0  0  0  0  0
  161.5460  205.4570  154.5960 O   0  0  0  0  0  1  0  0  0  0  0  0
  160.7410  209.6350  153.0060 C   0  0  0  0  0  0  0  0  0  0  0  0
  160.2030  208.8880  151.8230 C   0  0  0  0  0  2  0  0  0  0  0  0
  160.1280  212.5610  154.5750 N   0  0  0  0  0  0  0  0  0  0  0  0
  162.2550  207.6030  150.9780 C   0  0  0  0  0  2  0  0  0  0  0  0
  160.7870  210.2370  156.5350 O   0  0  0  0  0  1  0  0  0  0  0  0
  160.8220  207.7250  154.7340 C   0  0  0  0  0  0  0  0  0  0  0  0
  160.6500  206.4180  152.6110 C   0  0  0  0  0  2  0  0  0  0  0  0
  161.0020  205.7000  149.8500 C   0  0  0  0  0  0  0  0  0  0  0  0
  160.8340  204.7810  150.9120 C   0  0  0  0  0  3  0  0  0  0  0  0
  161.2050  205.2140  148.5330 C   0  0  0  0  0  0  0  0  0  0  0  0
  161.0160  201.6270  149.0190 N   0  0  0  0  0  0  0  0  0  0  0  0
  160.8470  200.5800  149.8950 O   0  0  0  0  0  1  0  0  0  0  0  0
  160.8290  203.3980  150.6860 C   0  0  0  0  0  3  0  0  0  0  0  0
  161.1970  203.8280  148.3360 C   0  0  0  0  0  0  0  0  0  0  0  0
  161.2480  200.3540  147.1180 O   0  0  0  0  0  0  0  0  0  0  0  0
  161.2060  201.4750  147.6900 C   0  0  0  0  0  0  0  0  0  0  0  0
  161.0070  202.9350  149.3830 C   0  0  0  0  0  0  0  0  0  0  0  0
  161.3740  202.9570  146.8980 S   0  0  0  0  0  0  0  0  0  0  0  0
  160.4540  206.2480  146.3760 C   0  0  0  0  0  1  0  0  0  0  0  0
  162.7100  206.7930  147.3050 C   0  0  0  0  0  1  0  0  0  0  0  0
  161.4380  206.1050  147.4340 N   0  0  0  0  0  0  0  0  0  0  0  0
  160.7160  212.6410  151.2470 C   0  0  0  0  0  2  0  0  0  0  0  0
  159.7990  213.3330  150.2430 C   0  0  0  0  0  2  0  0  0  0  0  0
  160.8960  212.2630  148.4200 F   0  0  0  0  0  0  0  0  0  0  0  0
  159.6110  214.0720  147.9860 F   0  0  0  0  0  0  0  0  0  0  0  0
  160.4820  213.4950  148.8940 C   0  0  0  0  0  0  0  0  0  0  0  0
  161.5840  214.3150  149.0430 F   0  0  0  0  0  0  0  0  0  0  0  0
  1 11  1  1  0  0  0
  1 17  1  0  0  0  0
  2 15  1  1  0  0  0
  2 13  1  0  0  0  0
  2 18  1  0  0  0  0
  3 19  1  1  0  0  0
  3 15  1  0  0  0  0
  3  2  1  0  0  0  0
  4 16  1  0  0  0  0
  5  7  1  0  0  0  0
  7 14  1  0  0  0  0
  7  4  2  0  0  0  0
  8 33  1  6  0  0  0
  8  5  1  0  0  0  0
  8 10  1  0  0  0  0
  9 17  1  0  0  0  0
  9  4  1  0  0  0  0
 10 14  2  0  0  0  0
 12  5  1  0  0  0  0
 12  9  2  0  0  0  0
 13 12  1  0  0  0  0
 17  6  2  0  0  0  0
 18  1  1  0  0  0  0
 19 20  1  0  0  0  0
 21 19  2  0  0  0  0
 22 28  1  0  0  0  0
 22 23  1  0  0  0  0
 24 20  2  0  0  0  0
 25 21  1  0  0  0  0
 25 28  2  0  0  0  0
 26 27  2  0  0  0  0
 27 22  1  0  0  0  0
 28 24  1  0  0  0  0
 29 27  1  0  0  0  0
 29 25  1  0  0  0  0
 30 32  1  0  0  0  0
 31 32  1  0  0  0  0
 32 21  1  0  0  0  0
 34 33  1  0  0  0  0
 35 37  1  0  0  0  0
 36 37  1  0  0  0  0
 37 38  1  0  0  0  0
 37 34  1  0  0  0  0
M  END
>  <MODEL>
2

>  <REMARK>
 VINA RESULT:      -7.3      1.083      1.408
  Name = 
  5 active torsions:
  status: ('A' for Active; 'I' for Inactive)
    1  A    between atoms: C_1  and  C_5
    2  A    between atoms: C_6  and  N_36
    3  A    between atoms: C_9  and  C_26
    4  A    between atoms: C_9  and  C_35
    5  A    between atoms: C_15  and  C_35
                            x       y       z     vdW  Elec       q    Type
                         _______ _______ _______ _____ _____    ______ ____

>  <TORSDO>
F 5

$$$$
=
 OpenBabel11072410463D

 38 43  0  0  1  0  0  0  0  0999 V2000
  161.7880  207.7750  148.3670 C   0  0  2  0  0  3  0  0  0  0  0  0
  161.0310  206.3980  150.3290 C   0  0  2  0  0  0  0  0  0  0  0  0
  160.9930  206.4510  151.8580 C   0  0  1  0  0  3  0  0  0  0  0  0
  161.6700  204.4990  146.3500 C   0  0  0  0  0  0  0  0  0  0  0  0
  161.3700  203.3380  148.2110 N   0  0  0  0  0  0  0  0  0  0  0  0
  160.9520  207.3580  146.1600 O   0  0  0  0  0  0  0  0  0  0  0  0
  161.6110  203.2490  146.9140 C   0  0  0  0  0  0  0  0  0  0  0  0
  160.5720  202.1730  148.5600 C   0  0  1  0  0  3  0  0  0  0  0  0
  161.4850  205.4070  147.3870 C   0  0  0  0  0  0  0  0  0  0  0  0
  160.4890  201.4370  147.2890 N   0  0  0  0  0  0  0  0  0  0  0  0
  161.8740  209.0970  147.9280 O   0  0  0  0  0  1  0  0  0  0  0  0
  161.2390  204.6410  148.5340 C   0  0  0  0  0  0  0  0  0  0  0  0
  160.5010  205.0940  149.7580 C   0  0  0  0  0  2  0  0  0  0  0  0
  161.0690  202.0730  146.3470 N   0  0  0  0  0  0  0  0  0  0  0  0
  162.3210  206.2910  151.1100 C   0  0  0  0  0  2  0  0  0  0  0  0
  161.7610  204.7890  144.9940 O   0  0  0  0  0  1  0  0  0  0  0  0
  161.3660  206.8690  147.2460 C   0  0  0  0  0  0  0  0  0  0  0  0
  160.8300  207.6950  149.5420 C   0  0  0  0  0  2  0  0  0  0  0  0
  160.7850  207.8430  152.4130 C   0  0  0  0  0  0  0  0  0  0  0  0
  160.8200  208.9680  151.5570 C   0  0  0  0  0  3  0  0  0  0  0  0
  160.6330  208.0350  153.8100 C   0  0  0  0  0  0  0  0  0  0  0  0
  160.3410  211.6400  154.0450 N   0  0  0  0  0  0  0  0  0  0  0  0
  160.3230  212.8510  153.3900 O   0  0  0  0  0  1  0  0  0  0  0  0
  160.6740  210.2690  152.0560 C   0  0  0  0  0  3  0  0  0  0  0  0
  160.4910  209.3460  154.2820 C   0  0  0  0  0  0  0  0  0  0  0  0
  160.0290  212.4750  156.1650 O   0  0  0  0  0  0  0  0  0  0  0  0
  160.1950  211.5040  155.3820 C   0  0  0  0  0  0  0  0  0  0  0  0
  160.5040  210.4420  153.4280 C   0  0  0  0  0  0  0  0  0  0  0  0
  160.2610  209.8870  155.8660 S   0  0  0  0  0  0  0  0  0  0  0  0
  159.7330  206.8860  155.8490 C   0  0  0  0  0  1  0  0  0  0  0  0
  161.6590  205.8940  154.6030 C   0  0  0  0  0  1  0  0  0  0  0  0
  160.6500  206.9310  154.7240 N   0  0  0  0  0  0  0  0  0  0  0  0
  161.2560  201.3390  149.6410 C   0  0  0  0  0  2  0  0  0  0  0  0
  160.6840  201.6030  151.0310 C   0  0  0  0  0  2  0  0  0  0  0  0
  162.3260  203.3260  151.0960 F   0  0  0  0  0  0  0  0  0  0  0  0
  160.9670  203.0710  152.8850 F   0  0  0  0  0  0  0  0  0  0  0  0
  161.6540  202.4080  151.8820 C   0  0  0  0  0  0  0  0  0  0  0  0
  162.5700  201.5480  152.4560 F   0  0  0  0  0  0  0  0  0  0  0  0
  1 11  1  6  0  0  0
  1 18  1  0  0  0  0
  2 18  1  6  0  0  0
  2 15  1  0  0  0  0
  2  3  1  0  0  0  0
  3 19  1  6  0  0  0
  4  7  2  0  0  0  0
  4  9  1  0  0  0  0
  5 12  1  0  0  0  0
  5  8  1  0  0  0  0
  6 17  2  0  0  0  0
  7  5  1  0  0  0  0
  8 33  1  1  0  0  0
  9 12  2  0  0  0  0
 10  8  1  0  0  0  0
 12 13  1  0  0  0  0
 13  2  1  0  0  0  0
 14  7  1  0  0  0  0
 14 10  2  0  0  0  0
 15  3  1  0  0  0  0
 16  4  1  0  0  0  0
 17  9  1  0  0  0  0
 17  1  1  0  0  0  0
 19 21  1  0  0  0  0
 20 24  1  0  0  0  0
 20 19  2  0  0  0  0
 21 25  2  0  0  0  0
 21 32  1  0  0  0  0
 22 27  1  0  0  0  0
 23 22  1  0  0  0  0
 24 28  2  0  0  0  0
 25 29  1  0  0  0  0
 27 29  1  0  0  0  0
 27 26  2  0  0  0  0
 28 22  1  0  0  0  0
 28 25  1  0  0  0  0
 31 32  1  0  0  0  0
 32 30  1  0  0  0  0
 33 34  1  0  0  0  0
 34 37  1  0  0  0  0
 35 37  1  0  0  0  0
 37 38  1  0  0  0  0
 37 36  1  0  0  0  0
M  END
>  <MODEL>
3

>  <REMARK>
 VINA RESULT:      -6.4      3.949      9.155
  Name = 
  5 active torsions:
  status: ('A' for Active; 'I' for Inactive)
    1  A    between atoms: C_1  and  C_5
    2  A    between atoms: C_6  and  N_36
    3  A    between atoms: C_9  and  C_26
    4  A    between atoms: C_9  and  C_35
    5  A    between atoms: C_15  and  C_35
                            x       y       z     vdW  Elec       q    Type
                         _______ _______ _______ _____ _____    ______ ____

>  <TORSDO>
F 5

$$$$
=
 OpenBabel11072410463D

 38 43  0  0  1  0  0  0  0  0999 V2000
  162.1640  207.8460  150.1150 C   0  0  2  0  0  3  0  0  0  0  0  0
  161.3870  210.0170  151.1160 C   0  0  2  0  0  0  0  0  0  0  0  0
  161.5290  211.5260  150.9060 C   0  0  1  0  0  3  0  0  0  0  0  0
  161.2140  206.2490  153.4850 C   0  0  0  0  0  0  0  0  0  0  0  0
  160.9120  208.2520  154.3760 N   0  0  0  0  0  0  0  0  0  0  0  0
  161.0250  205.7880  150.5740 O   0  0  0  0  0  0  0  0  0  0  0  0
  160.9870  206.9580  154.6370 C   0  0  0  0  0  0  0  0  0  0  0  0
  159.9550  208.8070  155.3200 C   0  0  1  0  0  3  0  0  0  0  0  0
  161.3180  207.1830  152.4610 C   0  0  0  0  0  0  0  0  0  0  0  0
  159.5960  207.6450  156.1470 N   0  0  0  0  0  0  0  0  0  0  0  0
  162.4460  207.2480  148.8850 O   0  0  0  0  0  1  0  0  0  0  0  0
  161.0630  208.4300  153.0470 C   0  0  0  0  0  0  0  0  0  0  0  0
  160.5620  209.6540  152.3390 C   0  0  0  0  0  2  0  0  0  0  0  0
  160.1750  206.5860  155.7330 N   0  0  0  0  0  0  0  0  0  0  0  0
  162.7120  210.6860  151.3970 C   0  0  0  0  0  2  0  0  0  0  0  0
  161.2070  204.8650  153.3540 O   0  0  0  0  0  1  0  0  0  0  0  0
  161.4590  206.8820  151.0250 C   0  0  0  0  0  0  0  0  0  0  0  0
  161.3440  209.1040  149.8880 C   0  0  0  0  0  2  0  0  0  0  0  0
  161.6460  211.9290  149.4530 C   0  0  0  0  0  0  0  0  0  0  0  0
  162.7870  211.5680  148.6980 C   0  0  0  0  0  3  0  0  0  0  0  0
  160.6480  212.7440  148.8590 C   0  0  0  0  0  0  0  0  0  0  0  0
  161.9480  213.2000  145.5060 N   0  0  0  0  0  0  0  0  0  0  0  0
  162.9540  212.9410  144.6030 O   0  0  0  0  0  1  0  0  0  0  0  0
  162.9370  211.9690  147.3640 C   0  0  0  0  0  3  0  0  0  0  0  0
  160.8240  213.1320  147.5250 C   0  0  0  0  0  0  0  0  0  0  0  0
  160.6350  214.4530  144.0940 O   0  0  0  0  0  0  0  0  0  0  0  0
  160.8480  213.9330  145.2200 C   0  0  0  0  0  0  0  0  0  0  0  0
  161.9380  212.7500  146.7870 C   0  0  0  0  0  0  0  0  0  0  0  0
  159.8070  214.0590  146.5440 S   0  0  0  0  0  0  0  0  0  0  0  0
  158.1610  212.9440  149.1020 C   0  0  0  0  0  1  0  0  0  0  0  0
  159.6710  213.9790  150.8050 C   0  0  0  0  0  1  0  0  0  0  0  0
  159.5040  213.1850  149.6000 N   0  0  0  0  0  0  0  0  0  0  0  0
  160.5880  209.9130  156.1630 C   0  0  0  0  0  2  0  0  0  0  0  0
  159.6850  211.1360  156.2910 C   0  0  0  0  0  2  0  0  0  0  0  0
  161.0640  211.8180  154.4740 F   0  0  0  0  0  0  0  0  0  0  0  0
  158.8210  211.9340  154.2200 F   0  0  0  0  0  0  0  0  0  0  0  0
  159.8670  212.0820  155.1140 C   0  0  0  0  0  0  0  0  0  0  0  0
  159.8810  213.3830  155.5790 F   0  0  0  0  0  0  0  0  0  0  0  0
  1 11  1  6  0  0  0
  1 17  1  0  0  0  0
  2 18  1  6  0  0  0
  2 15  1  0  0  0  0
  2 13  1  0  0  0  0
  3 19  1  6  0  0  0
  3  2  1  0  0  0  0
  3 15  1  0  0  0  0
  4  7  2  0  0  0  0
  5  7  1  0  0  0  0
  5  8  1  0  0  0  0
  6 17  2  0  0  0  0
  7 14  1  0  0  0  0
  8 10  1  0  0  0  0
  8 33  1  1  0  0  0
  9 12  2  0  0  0  0
  9  4  1  0  0  0  0
 12  5  1  0  0  0  0
 13 12  1  0  0  0  0
 14 10  2  0  0  0  0
 16  4  1  0  0  0  0
 17  9  1  0  0  0  0
 18  1  1  0  0  0  0
 20 19  2  0  0  0  0
 21 19  1  0  0  0  0
 21 32  1  0  0  0  0
 22 28  1  0  0  0  0
 23 22  1  0  0  0  0
 24 20  1  0  0  0  0
 25 21  2  0  0  0  0
 26 27  2  0  0  0  0
 27 22  1  0  0  0  0
 27 29  1  0  0  0  0
 28 24  2  0  0  0  0
 28 25  1  0  0  0  0
 29 25  1  0  0  0  0
 30 32  1  0  0  0  0
 32 31  1  0  0  0  0
 33 34  1  0  0  0  0
 35 37  1  0  0  0  0
 36 37  1  0  0  0  0
 37 38  1  0  0  0  0
 37 34  1  0  0  0  0
M  END
>  <MODEL>
4

>  <REMARK>
 VINA RESULT:      -5.7      4.668      7.451
  Name = 
  5 active torsions:
  status: ('A' for Active; 'I' for Inactive)
    1  A    between atoms: C_1  and  C_5
    2  A    between atoms: C_6  and  N_36
    3  A    between atoms: C_9  and  C_26
    4  A    between atoms: C_9  and  C_35
    5  A    between atoms: C_15  and  C_35
                            x       y       z     vdW  Elec       q    Type
                         _______ _______ _______ _____ _____    ______ ____

>  <TORSDO>
F 5

$$$$
