=
 OpenBabel11072415243D

 25 27  0  0  1  0  0  0  0  0999 V2000
  160.5050  202.6180  150.1040 C   0  0  0  0  0  3  0  0  0  0  0  0
  161.1980  203.1250  147.8200 C   0  0  0  0  0  0  0  0  0  0  0  0
  161.7590  199.5680  148.5430 F   0  0  0  0  0  0  0  0  0  0  0  0
  160.8690  201.2830  149.9300 C   0  0  0  0  0  3  0  0  0  0  0  0
  160.6680  203.5510  149.0650 C   0  0  0  0  0  0  0  0  0  0  0  0
  161.4020  200.8630  148.7140 C   0  0  0  0  0  0  0  0  0  0  0  0
  161.5640  201.7750  147.6710 C   0  0  0  0  0  3  0  0  0  0  0  0
  161.3870  204.0450  146.6620 C   0  0  0  0  0  0  0  0  0  0  0  0
  160.8610  204.7720  144.4090 C   0  0  0  0  0  3  0  0  0  0  0  0
  161.7920  205.7570  144.5080 N   0  0  0  0  0  0  0  0  0  0  0  0
  162.5320  205.9220  145.6360 C   0  0  0  0  0  3  0  0  0  0  0  0
  160.6470  203.9010  145.4790 C   0  0  0  0  0  3  0  0  0  0  0  0
  162.3440  205.0700  146.7270 C   0  0  0  0  0  3  0  0  0  0  0  0
  160.3180  204.8930  149.2650 O   0  0  0  0  0  0  0  0  0  0  0  0
  161.0110  205.9610  151.3190 C   0  0  2  0  0  3  0  0  0  0  0  0
  161.9620  208.3360  150.9940 C   0  0  0  0  0  2  0  0  0  0  0  0
  161.5110  208.6920  153.7140 O   0  0  0  0  0  0  0  0  0  0  0  0
  161.4300  207.2690  151.8540 N   0  0  0  0  0  0  0  0  0  0  0  0
  160.4810  206.6760  154.0390 O   0  0  0  0  0  1  0  0  0  0  0  0
  162.0880  207.8840  149.5430 C   0  0  2  0  0  3  0  0  0  0  0  0
  161.1530  207.5850  153.2280 C   0  0  0  0  0  0  0  0  0  0  0  0
  162.1720  209.0930  148.6370 C   0  0  0  0  0  1  0  0  0  0  0  0
  161.8030  204.8430  151.9800 C   0  0  0  0  0  1  0  0  0  0  0  0
  160.9780  207.1090  149.1960 O   0  0  0  0  0  0  0  0  0  0  0  0
  161.2080  205.8660  149.8020 C   0  0  2  0  0  3  0  0  0  0  0  0
  2  5  1  0  0  0  0
  3  6  1  0  0  0  0
  4  1  1  0  0  0  0
  5 14  1  0  0  0  0
  5  1  2  0  0  0  0
  6  4  2  0  0  0  0
  7  2  2  0  0  0  0
  7  6  1  0  0  0  0
  8 13  1  0  0  0  0
  8  2  1  0  0  0  0
  9 10  2  0  0  0  0
  9 12  1  0  0  0  0
 10 11  1  0  0  0  0
 11 13  2  0  0  0  0
 12  8  2  0  0  0  0
 15 18  1  0  0  0  0
 15 23  1  1  0  0  0
 16 18  1  0  0  0  0
 18 21  1  0  0  0  0
 20 22  1  6  0  0  0
 20 16  1  0  0  0  0
 21 17  2  0  0  0  0
 21 19  1  0  0  0  0
 24 20  1  0  0  0  0
 24 25  1  0  0  0  0
 25 14  1  6  0  0  0
 25 15  1  0  0  0  0
M  END
>  <MODEL>
1

>  <REMARK>
 VINA RESULT:      -8.9      0.000      0.000
  Name = 
  3 active torsions:
  status: ('A' for Active; 'I' for Inactive)
    1  A    between atoms: C_1  and  C_14
    2  A    between atoms: O_2  and  C_21
    3  A    between atoms: O_2  and  C_24
                            x       y       z     vdW  Elec       q    Type
                         _______ _______ _______ _____ _____    ______ ____

>  <TORSDO>
F 3

$$$$
=
 OpenBabel11072415243D

 25 27  0  0  1  0  0  0  0  0999 V2000
  161.1940  206.6370  147.1800 C   0  0  0  0  0  3  0  0  0  0  0  0
  161.2110  204.2510  147.6900 C   0  0  0  0  0  0  0  0  0  0  0  0
  161.8060  204.7720  144.1040 F   0  0  0  0  0  0  0  0  0  0  0  0
  161.4420  206.3620  145.8360 C   0  0  0  0  0  3  0  0  0  0  0  0
  161.0690  205.5970  148.1180 C   0  0  0  0  0  0  0  0  0  0  0  0
  161.5680  205.0420  145.4090 C   0  0  0  0  0  0  0  0  0  0  0  0
  161.4530  203.9990  146.3280 C   0  0  0  0  0  3  0  0  0  0  0  0
  161.1090  203.0910  148.6220 C   0  0  0  0  0  0  0  0  0  0  0  0
  160.8720  202.1600  150.8490 C   0  0  0  0  0  3  0  0  0  0  0  0
  160.9620  200.9050  150.3350 N   0  0  0  0  0  0  0  0  0  0  0  0
  161.1260  200.6950  149.0020 C   0  0  0  0  0  3  0  0  0  0  0  0
  160.9480  203.2690  150.0040 C   0  0  0  0  0  3  0  0  0  0  0  0
  161.2050  201.7800  148.1280 C   0  0  0  0  0  3  0  0  0  0  0  0
  160.7980  205.8900  149.4610 O   0  0  0  0  0  0  0  0  0  0  0  0
  161.2270  206.6760  151.7050 C   0  0  2  0  0  3  0  0  0  0  0  0
  161.8490  209.1760  151.8360 C   0  0  0  0  0  2  0  0  0  0  0  0
  161.2120  209.0060  154.5370 O   0  0  0  0  0  1  0  0  0  0  0  0
  161.4280  207.9190  152.4720 N   0  0  0  0  0  0  0  0  0  0  0  0
  160.4600  206.8480  154.4570 O   0  0  0  0  0  0  0  0  0  0  0  0
  162.1130  208.9950  150.3450 C   0  0  2  0  0  3  0  0  0  0  0  0
  161.0390  207.9600  153.8550 C   0  0  0  0  0  0  0  0  0  0  0  0
  162.0740  210.3410  149.6540 C   0  0  0  0  0  1  0  0  0  0  0  0
  162.1320  205.5760  152.2350 C   0  0  0  0  0  1  0  0  0  0  0  0
  161.1430  208.1520  149.7970 O   0  0  0  0  0  0  0  0  0  0  0  0
  161.5130  206.8660  150.2110 C   0  0  2  0  0  3  0  0  0  0  0  0
  1  5  1  0  0  0  0
  2  5  2  0  0  0  0
  2  8  1  0  0  0  0
  3  6  1  0  0  0  0
  4  1  2  0  0  0  0
  5 14  1  0  0  0  0
  6  4  1  0  0  0  0
  6  7  2  0  0  0  0
  7  2  1  0  0  0  0
  8 12  1  0  0  0  0
 10  9  1  0  0  0  0
 11 10  2  0  0  0  0
 12  9  2  0  0  0  0
 13  8  2  0  0  0  0
 13 11  1  0  0  0  0
 15 23  1  1  0  0  0
 15 18  1  0  0  0  0
 16 18  1  0  0  0  0
 18 21  1  0  0  0  0
 20 22  1  6  0  0  0
 20 16  1  0  0  0  0
 21 19  2  0  0  0  0
 21 17  1  0  0  0  0
 24 25  1  0  0  0  0
 24 20  1  0  0  0  0
 25 14  1  6  0  0  0
 25 15  1  0  0  0  0
M  END
>  <MODEL>
2

>  <REMARK>
 VINA RESULT:      -8.8      2.266      3.781
  Name = 
  3 active torsions:
  status: ('A' for Active; 'I' for Inactive)
    1  A    between atoms: C_1  and  C_14
    2  A    between atoms: O_2  and  C_21
    3  A    between atoms: O_2  and  C_24
                            x       y       z     vdW  Elec       q    Type
                         _______ _______ _______ _____ _____    ______ ____

>  <TORSDO>
F 3

$$$$
=
 OpenBabel11072415243D

 25 27  0  0  1  0  0  0  0  0999 V2000
  161.1140  204.7060  151.7390 C   0  0  0  0  0  3  0  0  0  0  0  0
  161.4390  207.0930  151.3520 C   0  0  0  0  0  0  0  0  0  0  0  0
  161.0740  206.4430  154.9480 F   0  0  0  0  0  0  0  0  0  0  0  0
  161.0370  204.9290  153.1140 C   0  0  0  0  0  3  0  0  0  0  0  0
  161.3070  205.7740  150.8460 C   0  0  0  0  0  0  0  0  0  0  0  0
  161.1510  206.2230  153.6150 C   0  0  0  0  0  0  0  0  0  0  0  0
  161.3500  207.2930  152.7420 C   0  0  0  0  0  3  0  0  0  0  0  0
  161.6630  208.2780  150.4750 C   0  0  0  0  0  0  0  0  0  0  0  0
  161.9880  209.2830  148.2920 C   0  0  0  0  0  3  0  0  0  0  0  0
  162.1200  210.5050  148.8730 N   0  0  0  0  0  0  0  0  0  0  0  0
  162.0370  210.6620  150.2210 C   0  0  0  0  0  3  0  0  0  0  0  0
  161.7620  208.1540  149.0820 C   0  0  0  0  0  3  0  0  0  0  0  0
  161.8110  209.5550  151.0410 C   0  0  0  0  0  3  0  0  0  0  0  0
  161.3610  205.5350  149.4660 O   0  0  0  0  0  0  0  0  0  0  0  0
  161.4240  204.3250  147.3760 C   0  0  2  0  0  3  0  0  0  0  0  0
  160.8220  201.8270  147.5950 C   0  0  0  0  0  2  0  0  0  0  0  0
  160.3920  201.8760  144.8480 O   0  0  0  0  0  1  0  0  0  0  0  0
  161.0440  203.0310  146.7810 N   0  0  0  0  0  0  0  0  0  0  0  0
  160.7220  204.1260  144.6080 O   0  0  0  0  0  0  0  0  0  0  0  0
  161.1090  202.0810  149.0710 C   0  0  2  0  0  3  0  0  0  0  0  0
  160.7080  202.9730  145.3850 C   0  0  0  0  0  0  0  0  0  0  0  0
  160.4380  201.0160  149.9110 C   0  0  0  0  0  1  0  0  0  0  0  0
  162.7460  204.8040  146.7970 C   0  0  0  0  0  1  0  0  0  0  0  0
  160.6270  203.3420  149.4310 O   0  0  0  0  0  0  0  0  0  0  0  0
  161.5590  204.2440  148.9000 C   0  0  2  0  0  3  0  0  0  0  0  0
  1  4  1  0  0  0  0
  2  7  2  0  0  0  0
  4  6  2  0  0  0  0
  5  2  1  0  0  0  0
  5  1  2  0  0  0  0
  6  3  1  0  0  0  0
  7  6  1  0  0  0  0
  8 13  1  0  0  0  0
  8  2  1  0  0  0  0
  9 10  2  0  0  0  0
  9 12  1  0  0  0  0
 10 11  1  0  0  0  0
 11 13  2  0  0  0  0
 12  8  2  0  0  0  0
 14  5  1  0  0  0  0
 15 23  1  6  0  0  0
 15 25  1  0  0  0  0
 16 20  1  0  0  0  0
 17 21  1  0  0  0  0
 18 15  1  0  0  0  0
 18 16  1  0  0  0  0
 19 21  2  0  0  0  0
 20 24  1  0  0  0  0
 20 22  1  1  0  0  0
 21 18  1  0  0  0  0
 25 24  1  0  0  0  0
 25 14  1  1  0  0  0
M  END
>  <MODEL>
3

>  <REMARK>
 VINA RESULT:      -8.6      2.801      6.529
  Name = 
  3 active torsions:
  status: ('A' for Active; 'I' for Inactive)
    1  A    between atoms: C_1  and  C_14
    2  A    between atoms: O_2  and  C_21
    3  A    between atoms: O_2  and  C_24
                            x       y       z     vdW  Elec       q    Type
                         _______ _______ _______ _____ _____    ______ ____

>  <TORSDO>
F 3

$$$$
=
 OpenBabel11072415243D

 25 27  0  0  1  0  0  0  0  0999 V2000
  160.3970  203.8280  151.2630 C   0  0  0  0  0  3  0  0  0  0  0  0
  161.0950  203.9580  148.9280 C   0  0  0  0  0  0  0  0  0  0  0  0
  161.5100  200.5280  150.1740 F   0  0  0  0  0  0  0  0  0  0  0  0
  160.7020  202.4680  151.2900 C   0  0  0  0  0  3  0  0  0  0  0  0
  160.5920  204.5880  150.0960 C   0  0  0  0  0  0  0  0  0  0  0  0
  161.2090  201.8480  150.1500 C   0  0  0  0  0  0  0  0  0  0  0  0
  161.4020  202.5860  148.9830 C   0  0  0  0  0  3  0  0  0  0  0  0
  161.3150  204.6860  147.6460 C   0  0  0  0  0  0  0  0  0  0  0  0
  160.6570  206.3310  145.9890 C   0  0  0  0  0  3  0  0  0  0  0  0
  161.7350  205.9990  145.2300 N   0  0  0  0  0  0  0  0  0  0  0  0
  162.6100  205.0360  145.6240 C   0  0  0  0  0  3  0  0  0  0  0  0
  160.4290  205.6800  147.2030 C   0  0  0  0  0  3  0  0  0  0  0  0
  162.4130  204.3650  146.8330 C   0  0  0  0  0  3  0  0  0  0  0  0
  160.3000  205.9580  150.0930 O   0  0  0  0  0  0  0  0  0  0  0  0
  161.0940  207.3220  151.9220 C   0  0  2  0  0  3  0  0  0  0  0  0
  162.1390  209.5600  151.1810 C   0  0  0  0  0  2  0  0  0  0  0  0
  161.7770  210.3920  153.8090 O   0  0  0  0  0  0  0  0  0  0  0  0
  161.5840  208.6810  152.2190 N   0  0  0  0  0  0  0  0  0  0  0  0
  160.6680  208.5120  154.4910 O   0  0  0  0  0  1  0  0  0  0  0  0
  162.2070  208.8640  149.8260 C   0  0  2  0  0  3  0  0  0  0  0  0
  161.3580  209.2370  153.5250 C   0  0  0  0  0  0  0  0  0  0  0  0
  162.3210  209.8980  148.7270 C   0  0  0  0  0  1  0  0  0  0  0  0
  161.8520  206.2960  152.7490 C   0  0  0  0  0  1  0  0  0  0  0  0
  161.0550  208.0960  149.6370 O   0  0  0  0  0  0  0  0  0  0  0  0
  161.2460  206.9640  150.4400 C   0  0  2  0  0  3  0  0  0  0  0  0
  1  4  1  0  0  0  0
  2  7  2  0  0  0  0
  2  5  1  0  0  0  0
  5  1  2  0  0  0  0
  6  3  1  0  0  0  0
  6  4  2  0  0  0  0
  7  6  1  0  0  0  0
  8  2  1  0  0  0  0
  9 12  2  0  0  0  0
 10 11  2  0  0  0  0
 10  9  1  0  0  0  0
 11 13  1  0  0  0  0
 12  8  1  0  0  0  0
 13  8  2  0  0  0  0
 14  5  1  0  0  0  0
 15 18  1  0  0  0  0
 15 23  1  1  0  0  0
 16 18  1  0  0  0  0
 18 21  1  0  0  0  0
 20 22  1  6  0  0  0
 20 16  1  0  0  0  0
 21 17  2  0  0  0  0
 21 19  1  0  0  0  0
 24 20  1  0  0  0  0
 24 25  1  0  0  0  0
 25 14  1  6  0  0  0
 25 15  1  0  0  0  0
M  END
>  <MODEL>
4

>  <REMARK>
 VINA RESULT:      -8.5      1.369      1.525
  Name = 
  3 active torsions:
  status: ('A' for Active; 'I' for Inactive)
    1  A    between atoms: C_1  and  C_14
    2  A    between atoms: O_2  and  C_21
    3  A    between atoms: O_2  and  C_24
                            x       y       z     vdW  Elec       q    Type
                         _______ _______ _______ _____ _____    ______ ____

>  <TORSDO>
F 3

$$$$
=
 OpenBabel11072415243D

 25 27  0  0  1  0  0  0  0  0999 V2000
  160.9580  206.7750  153.3470 C   0  0  0  0  0  3  0  0  0  0  0  0
  161.0600  209.1520  152.8020 C   0  0  0  0  0  0  0  0  0  0  0  0
  161.4570  208.6750  156.4230 F   0  0  0  0  0  0  0  0  0  0  0  0
  161.1430  207.0660  154.6990 C   0  0  0  0  0  3  0  0  0  0  0  0
  160.9070  207.8030  152.3890 C   0  0  0  0  0  0  0  0  0  0  0  0
  161.2800  208.3900  155.1110 C   0  0  0  0  0  0  0  0  0  0  0  0
  161.2390  209.4200  154.1720 C   0  0  0  0  0  3  0  0  0  0  0  0
  161.0360  210.2980  151.8490 C   0  0  0  0  0  0  0  0  0  0  0  0
  161.8110  211.4180  149.8430 C   0  0  0  0  0  3  0  0  0  0  0  0
  160.9930  212.4710  150.1130 N   0  0  0  0  0  0  0  0  0  0  0  0
  160.1990  212.4860  151.2160 C   0  0  0  0  0  3  0  0  0  0  0  0
  161.8470  210.3210  150.7060 C   0  0  0  0  0  3  0  0  0  0  0  0
  160.2090  211.4050  152.1000 C   0  0  0  0  0  3  0  0  0  0  0  0
  160.6980  207.4940  151.0380 O   0  0  0  0  0  0  0  0  0  0  0  0
  161.2770  206.5780  148.8790 C   0  0  2  0  0  3  0  0  0  0  0  0
  161.2910  204.0000  148.8050 C   0  0  0  0  0  2  0  0  0  0  0  0
  161.1530  204.2590  146.0400 O   0  0  0  0  0  1  0  0  0  0  0  0
  161.2930  205.3070  148.1320 N   0  0  0  0  0  0  0  0  0  0  0  0
  160.9420  206.5360  146.0360 O   0  0  0  0  0  0  0  0  0  0  0  0
  161.3490  204.1450  150.3220 C   0  0  2  0  0  3  0  0  0  0  0  0
  161.1310  205.3310  146.7040 C   0  0  0  0  0  0  0  0  0  0  0  0
  160.8760  202.8640  150.9750 C   0  0  0  0  0  1  0  0  0  0  0  0
  162.4940  207.4160  148.5190 C   0  0  0  0  0  1  0  0  0  0  0  0
  160.5360  205.2090  150.7220 O   0  0  0  0  0  0  0  0  0  0  0  0
  161.2670  206.3580  150.3950 C   0  0  2  0  0  3  0  0  0  0  0  0
  1  4  1  0  0  0  0
  2  7  2  0  0  0  0
  4  6  2  0  0  0  0
  5  2  1  0  0  0  0
  5  1  2  0  0  0  0
  6  3  1  0  0  0  0
  7  6  1  0  0  0  0
  8 13  1  0  0  0  0
  8  2  1  0  0  0  0
  9 10  2  0  0  0  0
  9 12  1  0  0  0  0
 10 11  1  0  0  0  0
 11 13  2  0  0  0  0
 12  8  2  0  0  0  0
 14  5  1  0  0  0  0
 15 23  1  1  0  0  0
 15 25  1  0  0  0  0
 16 20  1  0  0  0  0
 17 21  1  0  0  0  0
 18 16  1  0  0  0  0
 18 15  1  0  0  0  0
 19 21  2  0  0  0  0
 20 24  1  0  0  0  0
 20 22  1  1  0  0  0
 21 18  1  0  0  0  0
 25 24  1  0  0  0  0
 25 14  1  1  0  0  0
M  END
>  <MODEL>
5

>  <REMARK>
 VINA RESULT:      -7.6      3.413      7.197
  Name = 
  3 active torsions:
  status: ('A' for Active; 'I' for Inactive)
    1  A    between atoms: C_1  and  C_14
    2  A    between atoms: O_2  and  C_21
    3  A    between atoms: O_2  and  C_24
                            x       y       z     vdW  Elec       q    Type
                         _______ _______ _______ _____ _____    ______ ____

>  <TORSDO>
F 3

$$$$
=
 OpenBabel11072415243D

 25 27  0  0  1  0  0  0  0  0999 V2000
  161.3010  203.1060  151.5450 C   0  0  0  0  0  3  0  0  0  0  0  0
  161.2550  203.6370  149.1640 C   0  0  0  0  0  0  0  0  0  0  0  0
  160.0730  200.2020  149.7080 F   0  0  0  0  0  0  0  0  0  0  0  0
  160.8100  201.8280  151.2810 C   0  0  0  0  0  3  0  0  0  0  0  0
  161.5350  204.0190  150.5020 C   0  0  0  0  0  0  0  0  0  0  0  0
  160.5470  201.4440  149.9680 C   0  0  0  0  0  0  0  0  0  0  0  0
  160.7670  202.3400  148.9230 C   0  0  0  0  0  3  0  0  0  0  0  0
  161.4580  204.5490  148.0020 C   0  0  0  0  0  0  0  0  0  0  0  0
  160.8460  206.4910  146.6840 C   0  0  0  0  0  3  0  0  0  0  0  0
  161.8420  206.2080  145.8030 N   0  0  0  0  0  0  0  0  0  0  0  0
  162.6520  205.1290  145.9710 C   0  0  0  0  0  3  0  0  0  0  0  0
  160.6370  205.6660  147.7920 C   0  0  0  0  0  3  0  0  0  0  0  0
  162.4720  204.2840  147.0680 C   0  0  0  0  0  3  0  0  0  0  0  0
  162.0490  205.2910  150.7840 O   0  0  0  0  0  0  0  0  0  0  0  0
  161.7600  207.6590  151.1690 C   0  0  2  0  0  3  0  0  0  0  0  0
  161.1620  208.2560  153.6060 C   0  0  0  0  0  2  0  0  0  0  0  0
  161.9590  210.8440  152.9760 O   0  0  0  0  0  1  0  0  0  0  0  0
  161.6120  208.6400  152.2610 N   0  0  0  0  0  0  0  0  0  0  0  0
  162.6910  210.3490  150.8670 O   0  0  0  0  0  0  0  0  0  0  0  0
  160.8090  206.7750  153.6840 C   0  0  2  0  0  3  0  0  0  0  0  0
  162.0840  209.9830  152.0640 C   0  0  0  0  0  0  0  0  0  0  0  0
  160.8150  206.3250  155.1290 C   0  0  0  0  0  1  0  0  0  0  0  0
  160.8810  208.0450  149.9900 C   0  0  0  0  0  1  0  0  0  0  0  0
  161.7390  206.0320  152.9520 O   0  0  0  0  0  0  0  0  0  0  0  0
  161.3860  206.2400  151.6120 C   0  0  2  0  0  3  0  0  0  0  0  0
  2  5  1  0  0  0  0
  3  6  1  0  0  0  0
  4  1  1  0  0  0  0
  5 14  1  0  0  0  0
  5  1  2  0  0  0  0
  6  4  2  0  0  0  0
  7  2  2  0  0  0  0
  7  6  1  0  0  0  0
  8  2  1  0  0  0  0
  9 12  2  0  0  0  0
 10 11  2  0  0  0  0
 10  9  1  0  0  0  0
 11 13  1  0  0  0  0
 12  8  1  0  0  0  0
 13  8  2  0  0  0  0
 15 23  1  6  0  0  0
 15 25  1  0  0  0  0
 15 18  1  0  0  0  0
 16 20  1  0  0  0  0
 18 16  1  0  0  0  0
 19 21  2  0  0  0  0
 20 22  1  1  0  0  0
 21 18  1  0  0  0  0
 21 17  1  0  0  0  0
 24 20  1  0  0  0  0
 25 14  1  6  0  0  0
 25 24  1  0  0  0  0
M  END
>  <MODEL>
6

>  <REMARK>
 VINA RESULT:      -7.4      1.676      2.886
  Name = 
  3 active torsions:
  status: ('A' for Active; 'I' for Inactive)
    1  A    between atoms: C_1  and  C_14
    2  A    between atoms: O_2  and  C_21
    3  A    between atoms: O_2  and  C_24
                            x       y       z     vdW  Elec       q    Type
                         _______ _______ _______ _____ _____    ______ ____

>  <TORSDO>
F 3

$$$$
=
 OpenBabel11072415243D

 25 27  0  0  1  0  0  0  0  0999 V2000
  161.4650  204.0810  151.3920 C   0  0  0  0  0  3  0  0  0  0  0  0
  161.3830  204.0050  148.9540 C   0  0  0  0  0  0  0  0  0  0  0  0
  160.1160  200.8540  150.3530 F   0  0  0  0  0  0  0  0  0  0  0  0
  160.9330  202.7940  151.4610 C   0  0  0  0  0  3  0  0  0  0  0  0
  161.7020  204.6980  150.1500 C   0  0  0  0  0  0  0  0  0  0  0  0
  160.6310  202.1050  150.2890 C   0  0  0  0  0  0  0  0  0  0  0  0
  160.8540  202.7050  149.0500 C   0  0  0  0  0  3  0  0  0  0  0  0
  161.5870  204.5920  147.5990 C   0  0  0  0  0  0  0  0  0  0  0  0
  162.9630  205.0240  145.6490 C   0  0  0  0  0  3  0  0  0  0  0  0
  161.9470  205.7340  145.0880 N   0  0  0  0  0  0  0  0  0  0  0  0
  160.7610  205.9000  145.7300 C   0  0  0  0  0  3  0  0  0  0  0  0
  162.8000  204.4480  146.9100 C   0  0  0  0  0  3  0  0  0  0  0  0
  160.5630  205.3360  146.9920 C   0  0  0  0  0  3  0  0  0  0  0  0
  162.2580  205.9830  150.0990 O   0  0  0  0  0  0  0  0  0  0  0  0
  161.9170  208.3100  149.5460 C   0  0  2  0  0  3  0  0  0  0  0  0
  161.2440  209.7760  151.5580 C   0  0  0  0  0  2  0  0  0  0  0  0
  162.0100  211.9480  150.0000 O   0  0  0  0  0  1  0  0  0  0  0  0
  161.7220  209.6280  150.1760 N   0  0  0  0  0  0  0  0  0  0  0  0
  162.8060  210.7040  148.2540 O   0  0  0  0  0  0  0  0  0  0  0  0
  160.9150  208.4270  152.1900 C   0  0  2  0  0  3  0  0  0  0  0  0
  162.1750  210.8070  149.4890 C   0  0  0  0  0  0  0  0  0  0  0  0
  160.8920  208.5630  153.6970 C   0  0  0  0  0  1  0  0  0  0  0  0
  161.0620  208.1930  148.2930 C   0  0  0  0  0  1  0  0  0  0  0  0
  161.8780  207.4870  151.8140 O   0  0  0  0  0  0  0  0  0  0  0  0
  161.5570  207.1580  150.4910 C   0  0  2  0  0  3  0  0  0  0  0  0
  1  4  1  0  0  0  0
  2  7  2  0  0  0  0
  2  5  1  0  0  0  0
  5  1  2  0  0  0  0
  6  3  1  0  0  0  0
  6  4  2  0  0  0  0
  7  6  1  0  0  0  0
  8  2  1  0  0  0  0
  9 12  1  0  0  0  0
 10  9  2  0  0  0  0
 10 11  1  0  0  0  0
 11 13  2  0  0  0  0
 12  8  2  0  0  0  0
 13  8  1  0  0  0  0
 14  5  1  0  0  0  0
 15 23  1  6  0  0  0
 15 18  1  0  0  0  0
 15 25  1  0  0  0  0
 16 20  1  0  0  0  0
 18 16  1  0  0  0  0
 19 21  2  0  0  0  0
 20 22  1  1  0  0  0
 21 17  1  0  0  0  0
 21 18  1  0  0  0  0
 24 20  1  0  0  0  0
 25 14  1  6  0  0  0
 25 24  1  0  0  0  0
M  END
>  <MODEL>
7

>  <REMARK>
 VINA RESULT:      -7.3      1.958      3.193
  Name = 
  3 active torsions:
  status: ('A' for Active; 'I' for Inactive)
    1  A    between atoms: C_1  and  C_14
    2  A    between atoms: O_2  and  C_21
    3  A    between atoms: O_2  and  C_24
                            x       y       z     vdW  Elec       q    Type
                         _______ _______ _______ _____ _____    ______ ____

>  <TORSDO>
F 3

$$$$
=
 OpenBabel11072415243D

 25 27  0  0  1  0  0  0  0  0999 V2000
  161.1180  206.6600  153.8290 C   0  0  0  0  0  3  0  0  0  0  0  0
  160.6070  209.0380  153.6360 C   0  0  0  0  0  0  0  0  0  0  0  0
  160.9960  208.1200  157.1710 F   0  0  0  0  0  0  0  0  0  0  0  0
  161.1750  206.7730  155.2170 C   0  0  0  0  0  3  0  0  0  0  0  0
  160.8300  207.7770  153.0250 C   0  0  0  0  0  0  0  0  0  0  0  0
  160.9440  208.0070  155.8220 C   0  0  0  0  0  0  0  0  0  0  0  0
  160.6630  209.1250  155.0380 C   0  0  0  0  0  3  0  0  0  0  0  0
  160.3130  210.2750  152.8560 C   0  0  0  0  0  0  0  0  0  0  0  0
  158.9320  212.2070  152.3670 C   0  0  0  0  0  3  0  0  0  0  0  0
  159.7740  212.5540  151.3570 N   0  0  0  0  0  0  0  0  0  0  0  0
  160.8710  211.8090  151.0610 C   0  0  0  0  0  3  0  0  0  0  0  0
  159.1860  211.0640  153.1270 C   0  0  0  0  0  3  0  0  0  0  0  0
  161.1560  210.6600  151.8020 C   0  0  0  0  0  3  0  0  0  0  0  0
  160.7550  207.6390  151.6320 O   0  0  0  0  0  0  0  0  0  0  0  0
  161.2590  206.8170  149.4170 C   0  0  2  0  0  3  0  0  0  0  0  0
  161.2530  204.2450  149.2300 C   0  0  0  0  0  2  0  0  0  0  0  0
  161.0300  204.6260  146.4850 O   0  0  0  0  0  0  0  0  0  0  0  0
  161.2420  205.5800  148.6150 N   0  0  0  0  0  0  0  0  0  0  0  0
  160.8330  206.9020  146.5880 O   0  0  0  0  0  1  0  0  0  0  0  0
  161.3610  204.3220  150.7490 C   0  0  2  0  0  3  0  0  0  0  0  0
  161.0350  205.6680  147.1960 C   0  0  0  0  0  0  0  0  0  0  0  0
  160.9000  203.0160  151.3600 C   0  0  0  0  0  1  0  0  0  0  0  0
  162.4690  207.6640  149.0560 C   0  0  0  0  0  1  0  0  0  0  0  0
  160.5670  205.3710  151.2220 O   0  0  0  0  0  0  0  0  0  0  0  0
  161.2950  206.5300  150.9220 C   0  0  2  0  0  3  0  0  0  0  0  0
  1  4  1  0  0  0  0
  2  7  2  0  0  0  0
  4  6  2  0  0  0  0
  5  2  1  0  0  0  0
  5  1  2  0  0  0  0
  6  3  1  0  0  0  0
  7  6  1  0  0  0  0
  8 12  1  0  0  0  0
  8  2  1  0  0  0  0
  9 12  2  0  0  0  0
 10  9  1  0  0  0  0
 11 10  2  0  0  0  0
 11 13  1  0  0  0  0
 13  8  2  0  0  0  0
 14  5  1  0  0  0  0
 15 23  1  6  0  0  0
 15 25  1  0  0  0  0
 16 20  1  0  0  0  0
 17 21  2  0  0  0  0
 18 16  1  0  0  0  0
 18 15  1  0  0  0  0
 19 21  1  0  0  0  0
 20 24  1  0  0  0  0
 20 22  1  1  0  0  0
 21 18  1  0  0  0  0
 25 24  1  0  0  0  0
 25 14  1  1  0  0  0
M  END
>  <MODEL>
8

>  <REMARK>
 VINA RESULT:      -7.0      3.568      7.452
  Name = 
  3 active torsions:
  status: ('A' for Active; 'I' for Inactive)
    1  A    between atoms: C_1  and  C_14
    2  A    between atoms: O_2  and  C_21
    3  A    between atoms: O_2  and  C_24
                            x       y       z     vdW  Elec       q    Type
                         _______ _______ _______ _____ _____    ______ ____

>  <TORSDO>
F 3

$$$$
=
 OpenBabel11072415243D

 25 27  0  0  1  0  0  0  0  0999 V2000
  161.3740  205.9000  153.3760 C   0  0  0  0  0  3  0  0  0  0  0  0
  161.3870  207.9980  152.1310 C   0  0  0  0  0  0  0  0  0  0  0  0
  160.0150  208.5410  155.4950 F   0  0  0  0  0  0  0  0  0  0  0  0
  160.8260  206.5470  154.4830 C   0  0  0  0  0  3  0  0  0  0  0  0
  161.6530  206.6060  152.1930 C   0  0  0  0  0  0  0  0  0  0  0  0
  160.5500  207.9110  154.4220 C   0  0  0  0  0  0  0  0  0  0  0  0
  160.8280  208.6270  153.2580 C   0  0  0  0  0  3  0  0  0  0  0  0
  161.6690  208.8240  150.9220 C   0  0  0  0  0  0  0  0  0  0  0  0
  161.9550  209.0670  148.5260 C   0  0  0  0  0  3  0  0  0  0  0  0
  162.2380  210.3860  148.6920 N   0  0  0  0  0  0  0  0  0  0  0  0
  162.2530  210.9580  149.9250 C   0  0  0  0  0  3  0  0  0  0  0  0
  161.6710  208.2670  149.6350 C   0  0  0  0  0  3  0  0  0  0  0  0
  161.9720  210.1890  151.0560 C   0  0  0  0  0  3  0  0  0  0  0  0
  162.1830  205.9350  151.0820 O   0  0  0  0  0  0  0  0  0  0  0  0
  161.2820  203.8200  150.3400 C   0  0  2  0  0  3  0  0  0  0  0  0
  160.8320  203.7080  147.8030 C   0  0  0  0  0  2  0  0  0  0  0  0
  160.7800  200.9460  148.1190 O   0  0  0  0  0  0  0  0  0  0  0  0
  160.9920  203.0580  149.1120 N   0  0  0  0  0  0  0  0  0  0  0  0
  161.3670  200.9590  150.3290 O   0  0  0  0  0  1  0  0  0  0  0  0
  160.9260  205.2260  147.9100 C   0  0  2  0  0  3  0  0  0  0  0  0
  161.0360  201.6220  149.1520 C   0  0  0  0  0  0  0  0  0  0  0  0
  161.2310  205.8140  146.5490 C   0  0  0  0  0  1  0  0  0  0  0  0
  160.1960  203.5820  151.3770 C   0  0  0  0  0  1  0  0  0  0  0  0
  161.9360  205.5700  148.8120 O   0  0  0  0  0  0  0  0  0  0  0  0
  161.3810  205.3260  150.0760 C   0  0  2  0  0  3  0  0  0  0  0  0
  1  4  1  0  0  0  0
  2  5  1  0  0  0  0
  2  7  2  0  0  0  0
  5  1  2  0  0  0  0
  6  4  2  0  0  0  0
  6  3  1  0  0  0  0
  7  6  1  0  0  0  0
  8 13  1  0  0  0  0
  8  2  1  0  0  0  0
  9 10  2  0  0  0  0
  9 12  1  0  0  0  0
 10 11  1  0  0  0  0
 11 13  2  0  0  0  0
 12  8  2  0  0  0  0
 14  5  1  0  0  0  0
 15 23  1  1  0  0  0
 16 20  1  0  0  0  0
 16 18  1  0  0  0  0
 17 21  2  0  0  0  0
 18 21  1  0  0  0  0
 18 15  1  0  0  0  0
 20 22  1  6  0  0  0
 20 24  1  0  0  0  0
 21 19  1  0  0  0  0
 24 25  1  0  0  0  0
 25 15  1  0  0  0  0
 25 14  1  1  0  0  0
M  END
>  <MODEL>
9

>  <REMARK>
 VINA RESULT:      -6.9      3.191      6.224
  Name = 
  3 active torsions:
  status: ('A' for Active; 'I' for Inactive)
    1  A    between atoms: C_1  and  C_14
    2  A    between atoms: O_2  and  C_21
    3  A    between atoms: O_2  and  C_24
                            x       y       z     vdW  Elec       q    Type
                         _______ _______ _______ _____ _____    ______ ____

>  <TORSDO>
F 3

$$$$
