=
 OpenBabel11072411173D

 28 29  0  0  1  0  0  0  0  0999 V2000
  161.7640  206.8960  150.8510 C   0  0  0  0  0  0  0  0  0  0  0  0
  161.0500  204.6270  150.3260 C   0  0  0  0  0  0  0  0  0  0  0  0
  161.4890  205.5870  151.2520 C   0  0  0  0  0  3  0  0  0  0  0  0
  161.5800  207.2690  149.5180 C   0  0  0  0  0  3  0  0  0  0  0  0
  161.1360  206.3300  148.5840 C   0  0  0  0  0  0  0  0  0  0  0  0
  160.8670  205.0170  148.9890 C   0  0  0  0  0  3  0  0  0  0  0  0
  160.7430  203.2790  150.7390 N   0  0  0  0  0  0  0  0  0  0  0  0
  160.9250  202.8970  152.1310 C   0  0  0  0  0  1  0  0  0  0  0  0
  160.2990  202.2810  149.8480 N   0  0  0  0  0  2  0  0  0  0  0  0
  161.0230  201.0830  149.5710 C   0  0  0  0  0  3  0  0  0  0  0  0
  161.3210  200.7630  148.3220 C   0  0  0  0  0  2  0  0  0  0  0  0
  160.9350  206.7360  147.1620 C   0  0  0  0  0  2  0  0  0  0  0  0
  161.6210  205.7730  146.1940 C   0  0  0  0  0  2  0  0  0  0  0  0
  161.4150  205.8690  143.8220 O   0  0  0  0  0  1  0  0  0  0  0  0
  159.5270  206.0690  145.0430 F   0  0  0  0  0  0  0  0  0  0  0  0
  160.7590  205.4280  144.9710 C   0  0  2  0  0  0  0  0  0  0  0  0
  160.5950  204.0280  144.8680 O   0  0  0  0  0  0  0  0  0  0  0  0
  161.5530  203.3940  145.6750 C   0  0  0  0  0  1  0  0  0  0  0  0
  162.2110  207.9020  151.8550 C   0  0  0  0  0  2  0  0  0  0  0  0
  160.8150  209.4840  153.2360 C   0  0  0  0  0  0  0  0  0  0  0  0
  160.4000  211.6830  154.1960 O   0  0  0  0  0  1  0  0  0  0  0  0
  160.6210  208.8010  154.3280 N   0  0  0  0  0  0  0  0  0  0  0  0
  161.2060  210.1070  151.0780 C   0  0  0  0  0  3  0  0  0  0  0  0
  161.2170  208.9590  151.9900 N   0  0  0  0  0  0  0  0  0  0  0  0
  160.9080  211.3300  151.8570 N   0  0  0  0  0  0  0  0  0  0  0  0
  160.6010  210.8610  153.1410 N   0  0  0  0  0  0  0  0  0  0  0  0
  160.3520  206.9120  155.7510 N   0  0  0  0  0  1  0  0  0  0  0  0
  160.7660  207.3560  154.4300 C   0  0  0  0  0  2  0  0  0  0  0  0
  1  3  1  0  0  0  0
  1 19  1  0  0  0  0
  2  7  1  0  0  0  0
  2  3  2  0  0  0  0
  4  1  2  0  0  0  0
  5  6  2  0  0  0  0
  5  4  1  0  0  0  0
  6  2  1  0  0  0  0
  7  8  1  0  0  0  0
  9  7  1  0  0  0  0
 10  9  1  0  0  0  0
 11 10  2  0  0  0  0
 12  5  1  0  0  0  0
 13 12  1  0  0  0  0
 16 14  1  6  0  0  0
 16 15  1  0  0  0  0
 16 13  1  0  0  0  0
 17 16  1  0  0  0  0
 17 18  1  0  0  0  0
 19 24  1  0  0  0  0
 20 22  2  0  0  0  0
 22 28  1  0  0  0  0
 23 25  2  0  0  0  0
 23 24  1  0  0  0  0
 24 20  1  0  0  0  0
 25 26  1  0  0  0  0
 26 20  1  0  0  0  0
 26 21  1  0  0  0  0
 28 27  1  0  0  0  0
M  END
>  <MODEL>
1

>  <REMARK>
 VINA RESULT:      -7.4      0.000      0.000
  Name = 
  10 active torsions:
  status: ('A' for Active; 'I' for Inactive)
    1  A    between atoms: C_4  and  C_25
    2  A    between atoms: C_4  and  C_26
    3  A    between atoms: C_5  and  C_19
    4  A    between atoms: C_7  and  N_8
    5  A    between atoms: N_8  and  N_23
    6  A    between atoms: O_9  and  C_20
    7  A    between atoms: N_10  and  C_11
    8  A    between atoms: N_13  and  C_19
    9  A    between atoms: C_14  and  N_23
   10  A    between atoms: C_20  and  C_26
                            x       y       z     vdW  Elec       q    Type
                         _______ _______ _______ _____ _____    ______ ____

>  <TORSDO>
F 10

$$$$
=
 OpenBabel11072411173D

 28 29  0  0  1  0  0  0  0  0999 V2000
  161.2270  206.9360  150.0590 C   0  0  0  0  0  0  0  0  0  0  0  0
  161.0440  204.5250  149.7590 C   0  0  0  0  0  0  0  0  0  0  0  0
  160.9160  205.6690  150.5620 C   0  0  0  0  0  3  0  0  0  0  0  0
  161.6460  207.0750  148.7350 C   0  0  0  0  0  3  0  0  0  0  0  0
  161.7700  205.9480  147.9180 C   0  0  0  0  0  0  0  0  0  0  0  0
  161.4650  204.6810  148.4270 C   0  0  0  0  0  3  0  0  0  0  0  0
  160.7040  203.2170  150.2650 N   0  0  0  0  0  0  0  0  0  0  0  0
  161.0370  202.8730  151.6390 C   0  0  0  0  0  1  0  0  0  0  0  0
  160.0870  202.2220  149.4810 N   0  0  0  0  0  2  0  0  0  0  0  0
  160.6500  200.9310  149.2460 C   0  0  0  0  0  3  0  0  0  0  0  0
  161.4260  200.7290  148.1940 C   0  0  0  0  0  2  0  0  0  0  0  0
  162.2130  206.1050  146.5010 C   0  0  0  0  0  2  0  0  0  0  0  0
  161.9570  204.8410  145.6830 C   0  0  0  0  0  2  0  0  0  0  0  0
  161.3940  205.4430  143.4470 O   0  0  0  0  0  1  0  0  0  0  0  0
  159.9140  205.9600  145.0710 F   0  0  0  0  0  0  0  0  0  0  0  0
  160.8350  205.0070  144.6480 C   0  0  2  0  0  0  0  0  0  0  0  0
  160.2030  203.7660  144.4090 O   0  0  0  0  0  0  0  0  0  0  0  0
  160.7650  202.7950  145.2540 C   0  0  0  0  0  1  0  0  0  0  0  0
  161.0660  208.1380  150.9250 C   0  0  0  0  0  2  0  0  0  0  0  0
  160.9400  208.3160  153.4360 C   0  0  0  0  0  0  0  0  0  0  0  0
  160.3730  207.3920  155.6170 O   0  0  0  0  0  1  0  0  0  0  0  0
  160.3610  209.4700  153.6030 N   0  0  0  0  0  0  0  0  0  0  0  0
  162.1400  206.5630  152.6090 C   0  0  0  0  0  3  0  0  0  0  0  0
  161.5820  207.8730  152.2610 N   0  0  0  0  0  0  0  0  0  0  0  0
  161.6980  206.2060  153.9770 N   0  0  0  0  0  0  0  0  0  0  0  0
  161.0450  207.3540  154.4440 N   0  0  0  0  0  0  0  0  0  0  0  0
  159.1440  211.3610  152.8200 N   0  0  0  0  0  1  0  0  0  0  0  0
  160.3050  210.5170  152.5920 C   0  0  0  0  0  2  0  0  0  0  0  0
  1  3  1  0  0  0  0
  1 19  1  0  0  0  0
  2  7  1  0  0  0  0
  2  3  2  0  0  0  0
  4  1  2  0  0  0  0
  5  6  2  0  0  0  0
  5  4  1  0  0  0  0
  6  2  1  0  0  0  0
  7  8  1  0  0  0  0
  9  7  1  0  0  0  0
 10  9  1  0  0  0  0
 11 10  2  0  0  0  0
 12  5  1  0  0  0  0
 13 12  1  0  0  0  0
 16 14  1  6  0  0  0
 16 15  1  0  0  0  0
 16 13  1  0  0  0  0
 17 16  1  0  0  0  0
 17 18  1  0  0  0  0
 19 24  1  0  0  0  0
 20 22  2  0  0  0  0
 20 26  1  0  0  0  0
 23 25  2  0  0  0  0
 24 23  1  0  0  0  0
 24 20  1  0  0  0  0
 25 26  1  0  0  0  0
 26 21  1  0  0  0  0
 28 27  1  0  0  0  0
 28 22  1  0  0  0  0
M  END
>  <MODEL>
2

>  <REMARK>
 VINA RESULT:      -7.4      1.341      2.258
  Name = 
  10 active torsions:
  status: ('A' for Active; 'I' for Inactive)
    1  A    between atoms: C_4  and  C_25
    2  A    between atoms: C_4  and  C_26
    3  A    between atoms: C_5  and  C_19
    4  A    between atoms: C_7  and  N_8
    5  A    between atoms: N_8  and  N_23
    6  A    between atoms: O_9  and  C_20
    7  A    between atoms: N_10  and  C_11
    8  A    between atoms: N_13  and  C_19
    9  A    between atoms: C_14  and  N_23
   10  A    between atoms: C_20  and  C_26
                            x       y       z     vdW  Elec       q    Type
                         _______ _______ _______ _____ _____    ______ ____

>  <TORSDO>
F 10

$$$$
=
 OpenBabel11072411173D

 28 29  0  0  1  0  0  0  0  0999 V2000
  161.3020  206.3370  152.3100 C   0  0  0  0  0  0  0  0  0  0  0  0
  161.3010  206.3890  149.8750 C   0  0  0  0  0  0  0  0  0  0  0  0
  161.4200  207.0440  151.1110 C   0  0  0  0  0  3  0  0  0  0  0  0
  161.0860  204.9580  152.2880 C   0  0  0  0  0  3  0  0  0  0  0  0
  160.9730  204.2880  151.0670 C   0  0  0  0  0  0  0  0  0  0  0  0
  161.0860  205.0000  149.8670 C   0  0  0  0  0  3  0  0  0  0  0  0
  161.4450  207.1080  148.6330 N   0  0  0  0  0  0  0  0  0  0  0  0
  161.8970  208.4910  148.6550 C   0  0  0  0  0  1  0  0  0  0  0  0
  161.1340  206.5500  147.3760 N   0  0  0  0  0  2  0  0  0  0  0  0
  162.1140  206.1810  146.4060 C   0  0  0  0  0  3  0  0  0  0  0  0
  162.4270  204.9070  146.2330 C   0  0  0  0  0  2  0  0  0  0  0  0
  160.7480  202.8120  151.0500 C   0  0  0  0  0  2  0  0  0  0  0  0
  161.5430  202.1300  149.9380 C   0  0  0  0  0  2  0  0  0  0  0  0
  159.3590  201.3760  149.3540 O   0  0  0  0  0  1  0  0  0  0  0  0
  161.1160  200.2440  148.5030 F   0  0  0  0  0  0  0  0  0  0  0  0
  160.6530  201.5080  148.8520 C   0  0  2  0  0  0  0  0  0  0  0  0
  160.5980  202.3540  147.7220 O   0  0  0  0  0  0  0  0  0  0  0  0
  160.7940  201.5850  146.5630 C   0  0  0  0  0  1  0  0  0  0  0  0
  161.4510  207.0510  153.6100 C   0  0  0  0  0  2  0  0  0  0  0  0
  160.5580  209.1560  154.6710 C   0  0  0  0  0  0  0  0  0  0  0  0
  160.8190  211.4780  155.3570 O   0  0  0  0  0  1  0  0  0  0  0  0
  160.0790  208.7160  155.7990 N   0  0  0  0  0  0  0  0  0  0  0  0
  161.2750  209.3400  152.5140 C   0  0  0  0  0  3  0  0  0  0  0  0
  160.8490  208.3750  153.5330 N   0  0  0  0  0  0  0  0  0  0  0  0
  161.3400  210.6850  153.1320 N   0  0  0  0  0  0  0  0  0  0  0  0
  160.8110  210.5060  154.4160 N   0  0  0  0  0  0  0  0  0  0  0  0
  160.4180  206.8670  157.2600 N   0  0  0  0  0  1  0  0  0  0  0  0
  159.7370  207.3250  156.0600 C   0  0  0  0  0  2  0  0  0  0  0  0
  1 19  1  0  0  0  0
  2  3  1  0  0  0  0
  3  1  2  0  0  0  0
  4  1  1  0  0  0  0
  5  4  2  0  0  0  0
  6  2  2  0  0  0  0
  6  5  1  0  0  0  0
  7  8  1  0  0  0  0
  7  2  1  0  0  0  0
  9  7  1  0  0  0  0
 10  9  1  0  0  0  0
 11 10  2  0  0  0  0
 12  5  1  0  0  0  0
 13 12  1  0  0  0  0
 16 15  1  6  0  0  0
 16 14  1  0  0  0  0
 16 13  1  0  0  0  0
 17 16  1  0  0  0  0
 18 17  1  0  0  0  0
 20 22  2  0  0  0  0
 22 28  1  0  0  0  0
 23 25  2  0  0  0  0
 23 24  1  0  0  0  0
 24 19  1  0  0  0  0
 24 20  1  0  0  0  0
 25 26  1  0  0  0  0
 26 20  1  0  0  0  0
 26 21  1  0  0  0  0
 28 27  1  0  0  0  0
M  END
>  <MODEL>
3

>  <REMARK>
 VINA RESULT:      -7.3      2.455      3.850
  Name = 
  10 active torsions:
  status: ('A' for Active; 'I' for Inactive)
    1  A    between atoms: C_4  and  C_25
    2  A    between atoms: C_4  and  C_26
    3  A    between atoms: C_5  and  C_19
    4  A    between atoms: C_7  and  N_8
    5  A    between atoms: N_8  and  N_23
    6  A    between atoms: O_9  and  C_20
    7  A    between atoms: N_10  and  C_11
    8  A    between atoms: N_13  and  C_19
    9  A    between atoms: C_14  and  N_23
   10  A    between atoms: C_20  and  C_26
                            x       y       z     vdW  Elec       q    Type
                         _______ _______ _______ _____ _____    ______ ____

>  <TORSDO>
F 10

$$$$
=
 OpenBabel11072411173D

 28 29  0  0  1  0  0  0  0  0999 V2000
  161.3830  208.7330  152.8050 C   0  0  0  0  0  0  0  0  0  0  0  0
  161.8230  208.0820  150.4990 C   0  0  0  0  0  0  0  0  0  0  0  0
  161.6980  209.0720  151.4860 C   0  0  0  0  0  3  0  0  0  0  0  0
  161.2150  207.3930  153.1580 C   0  0  0  0  0  3  0  0  0  0  0  0
  161.3450  206.3930  152.1900 C   0  0  0  0  0  0  0  0  0  0  0  0
  161.6520  206.7370  150.8690 C   0  0  0  0  0  3  0  0  0  0  0  0
  162.1690  208.4230  149.1400 N   0  0  0  0  0  0  0  0  0  0  0  0
  161.9910  209.7910  148.6780 C   0  0  0  0  0  1  0  0  0  0  0  0
  162.6470  207.4830  148.2050 N   0  0  0  0  0  2  0  0  0  0  0  0
  161.8060  206.7470  147.3170 C   0  0  0  0  0  3  0  0  0  0  0  0
  162.2800  205.6850  146.6850 C   0  0  0  0  0  2  0  0  0  0  0  0
  161.1690  204.9620  152.5760 C   0  0  0  0  0  2  0  0  0  0  0  0
  161.8510  204.0200  151.5850 C   0  0  0  0  0  2  0  0  0  0  0  0
  161.2850  203.5960  149.3100 O   0  0  0  0  0  1  0  0  0  0  0  0
  159.5890  203.8650  150.7750 F   0  0  0  0  0  0  0  0  0  0  0  0
  160.8690  203.3450  150.6170 C   0  0  2  0  0  0  0  0  0  0  0  0
  160.8720  201.9460  150.8140 O   0  0  0  0  0  0  0  0  0  0  0  0
  160.8740  201.3070  149.5620 C   0  0  0  0  0  1  0  0  0  0  0  0
  161.2740  209.8000  153.8390 C   0  0  0  0  0  2  0  0  0  0  0  0
  159.3570  210.3670  155.3750 C   0  0  0  0  0  0  0  0  0  0  0  0
  157.8700  211.9830  156.4260 O   0  0  0  0  0  1  0  0  0  0  0  0
  159.6700  209.7190  156.4600 N   0  0  0  0  0  0  0  0  0  0  0  0
  159.1500  211.0490  153.2100 C   0  0  0  0  0  3  0  0  0  0  0  0
  159.8760  210.1250  154.0860 N   0  0  0  0  0  0  0  0  0  0  0  0
  158.2880  211.9170  154.0440 N   0  0  0  0  0  0  0  0  0  0  0  0
  158.4040  211.3880  155.3360 N   0  0  0  0  0  0  0  0  0  0  0  0
  159.8720  207.3470  156.5240 N   0  0  0  0  0  1  0  0  0  0  0  0
  160.6050  208.6030  156.5110 C   0  0  0  0  0  2  0  0  0  0  0  0
  1  4  1  0  0  0  0
  1 19  1  0  0  0  0
  2  6  2  0  0  0  0
  2  3  1  0  0  0  0
  3  1  2  0  0  0  0
  5 12  1  0  0  0  0
  5  4  2  0  0  0  0
  6  5  1  0  0  0  0
  7  2  1  0  0  0  0
  8  7  1  0  0  0  0
  9  7  1  0  0  0  0
 10  9  1  0  0  0  0
 11 10  2  0  0  0  0
 13 12  1  0  0  0  0
 16 14  1  6  0  0  0
 16 15  1  0  0  0  0
 16 17  1  0  0  0  0
 16 13  1  0  0  0  0
 18 17  1  0  0  0  0
 19 24  1  0  0  0  0
 20 22  2  0  0  0  0
 22 28  1  0  0  0  0
 23 25  2  0  0  0  0
 23 24  1  0  0  0  0
 24 20  1  0  0  0  0
 25 26  1  0  0  0  0
 26 20  1  0  0  0  0
 26 21  1  0  0  0  0
 28 27  1  0  0  0  0
M  END
>  <MODEL>
4

>  <REMARK>
 VINA RESULT:      -7.1      2.833      4.518
  Name = 
  10 active torsions:
  status: ('A' for Active; 'I' for Inactive)
    1  A    between atoms: C_4  and  C_25
    2  A    between atoms: C_4  and  C_26
    3  A    between atoms: C_5  and  C_19
    4  A    between atoms: C_7  and  N_8
    5  A    between atoms: N_8  and  N_23
    6  A    between atoms: O_9  and  C_20
    7  A    between atoms: N_10  and  C_11
    8  A    between atoms: N_13  and  C_19
    9  A    between atoms: C_14  and  N_23
   10  A    between atoms: C_20  and  C_26
                            x       y       z     vdW  Elec       q    Type
                         _______ _______ _______ _____ _____    ______ ____

>  <TORSDO>
F 10

$$$$
=
 OpenBabel11072411173D

 28 29  0  0  1  0  0  0  0  0999 V2000
  161.6320  209.3390  151.9270 C   0  0  0  0  0  0  0  0  0  0  0  0
  161.5580  206.9040  151.9650 C   0  0  0  0  0  0  0  0  0  0  0  0
  161.5610  208.1370  152.6360 C   0  0  0  0  0  3  0  0  0  0  0  0
  161.6750  209.3220  150.5310 C   0  0  0  0  0  3  0  0  0  0  0  0
  161.6630  208.1040  149.8460 C   0  0  0  0  0  0  0  0  0  0  0  0
  161.6000  206.9020  150.5610 C   0  0  0  0  0  3  0  0  0  0  0  0
  161.4640  205.6610  152.6910 N   0  0  0  0  0  0  0  0  0  0  0  0
  160.9410  205.6620  154.0490 C   0  0  0  0  0  1  0  0  0  0  0  0
  161.8870  204.4240  152.1630 N   0  0  0  0  0  2  0  0  0  0  0  0
  160.9950  203.4040  151.7130 C   0  0  0  0  0  3  0  0  0  0  0  0
  160.5700  203.4030  150.4600 C   0  0  0  0  0  2  0  0  0  0  0  0
  161.7040  208.0930  148.3540 C   0  0  0  0  0  2  0  0  0  0  0  0
  162.5530  206.9410  147.8180 C   0  0  0  0  0  2  0  0  0  0  0  0
  160.4390  206.4040  146.8570 O   0  0  0  0  0  1  0  0  0  0  0  0
  161.7340  204.6920  147.5540 F   0  0  0  0  0  0  0  0  0  0  0  0
  161.7540  205.9490  146.9600 C   0  0  2  0  0  0  0  0  0  0  0  0
  162.2960  205.8830  145.6570 O   0  0  0  0  0  0  0  0  0  0  0  0
  161.2890  205.4830  144.7620 C   0  0  0  0  0  1  0  0  0  0  0  0
  161.6150  210.6360  152.6600 C   0  0  0  0  0  2  0  0  0  0  0  0
  160.2690  211.4570  154.6280 C   0  0  0  0  0  0  0  0  0  0  0  0
  158.7890  213.0840  155.6720 O   0  0  0  0  0  1  0  0  0  0  0  0
  161.1310  211.3870  155.6010 N   0  0  0  0  0  0  0  0  0  0  0  0
  159.1180  211.1220  152.6880 C   0  0  0  0  0  3  0  0  0  0  0  0
  160.3620  210.7900  153.3880 N   0  0  0  0  0  0  0  0  0  0  0  0
  158.3600  212.0980  153.5040 N   0  0  0  0  0  0  0  0  0  0  0  0
  159.0810  212.1870  154.7020 N   0  0  0  0  0  0  0  0  0  0  0  0
  162.0890  209.2990  156.2260 N   0  0  0  0  0  1  0  0  0  0  0  0
  162.3390  210.5730  155.5740 C   0  0  0  0  0  2  0  0  0  0  0  0
  1  3  1  0  0  0  0
  1 19  1  0  0  0  0
  2  3  2  0  0  0  0
  2  7  1  0  0  0  0
  4  1  2  0  0  0  0
  5  4  1  0  0  0  0
  5  6  2  0  0  0  0
  6  2  1  0  0  0  0
  7  8  1  0  0  0  0
  9  7  1  0  0  0  0
 10  9  1  0  0  0  0
 11 10  2  0  0  0  0
 12  5  1  0  0  0  0
 13 12  1  0  0  0  0
 16 14  1  6  0  0  0
 16 15  1  0  0  0  0
 16 13  1  0  0  0  0
 17 16  1  0  0  0  0
 18 17  1  0  0  0  0
 19 24  1  0  0  0  0
 20 26  1  0  0  0  0
 20 22  2  0  0  0  0
 23 24  1  0  0  0  0
 23 25  2  0  0  0  0
 24 20  1  0  0  0  0
 25 26  1  0  0  0  0
 26 21  1  0  0  0  0
 28 22  1  0  0  0  0
 28 27  1  0  0  0  0
M  END
>  <MODEL>
5

>  <REMARK>
 VINA RESULT:      -6.5      2.051      2.862
  Name = 
  10 active torsions:
  status: ('A' for Active; 'I' for Inactive)
    1  A    between atoms: C_4  and  C_25
    2  A    between atoms: C_4  and  C_26
    3  A    between atoms: C_5  and  C_19
    4  A    between atoms: C_7  and  N_8
    5  A    between atoms: N_8  and  N_23
    6  A    between atoms: O_9  and  C_20
    7  A    between atoms: N_10  and  C_11
    8  A    between atoms: N_13  and  C_19
    9  A    between atoms: C_14  and  N_23
   10  A    between atoms: C_20  and  C_26
                            x       y       z     vdW  Elec       q    Type
                         _______ _______ _______ _____ _____    ______ ____

>  <TORSDO>
F 10

$$$$
=
 OpenBabel11072411173D

 28 29  0  0  1  0  0  0  0  0999 V2000
  160.8240  206.9400  149.8080 C   0  0  0  0  0  0  0  0  0  0  0  0
  161.2940  207.3130  152.1680 C   0  0  0  0  0  0  0  0  0  0  0  0
  160.8230  206.4930  151.1310 C   0  0  0  0  0  3  0  0  0  0  0  0
  161.3210  208.2090  149.5020 C   0  0  0  0  0  3  0  0  0  0  0  0
  161.8020  209.0360  150.5200 C   0  0  0  0  0  0  0  0  0  0  0  0
  161.7920  208.5870  151.8460 C   0  0  0  0  0  3  0  0  0  0  0  0
  161.3150  206.8490  153.5350 N   0  0  0  0  0  0  0  0  0  0  0  0
  161.2080  205.4240  153.8080 C   0  0  0  0  0  1  0  0  0  0  0  0
  161.4030  207.7150  154.6430 N   0  0  0  0  0  2  0  0  0  0  0  0
  160.2760  208.1480  155.4050 C   0  0  0  0  0  3  0  0  0  0  0  0
  160.1690  207.8080  156.6800 C   0  0  0  0  0  2  0  0  0  0  0  0
  162.3370  210.3880  150.1860 C   0  0  0  0  0  2  0  0  0  0  0  0
  162.3700  210.6280  148.6780 C   0  0  0  0  0  2  0  0  0  0  0  0
  163.2140  212.6990  147.8530 O   0  0  0  0  0  1  0  0  0  0  0  0
  161.5580  212.7830  149.3840 F   0  0  0  0  0  0  0  0  0  0  0  0
  162.0440  212.0770  148.2880 C   0  0  2  0  0  0  0  0  0  0  0  0
  161.1170  212.1000  147.2220 O   0  0  0  0  0  0  0  0  0  0  0  0
  161.1340  213.3720  146.6270 C   0  0  0  0  0  1  0  0  0  0  0  0
  160.3370  206.0450  148.7210 C   0  0  0  0  0  2  0  0  0  0  0  0
  161.5690  204.2960  147.3870 C   0  0  0  0  0  0  0  0  0  0  0  0
  162.1430  203.2380  145.2700 O   0  0  0  0  0  1  0  0  0  0  0  0
  161.2830  203.2020  148.0320 N   0  0  0  0  0  0  0  0  0  0  0  0
  161.9720  206.4670  146.8180 C   0  0  0  0  0  3  0  0  0  0  0  0
  161.4490  205.6100  147.8860 N   0  0  0  0  0  0  0  0  0  0  0  0
  162.2810  205.6240  145.6410 N   0  0  0  0  0  0  0  0  0  0  0  0
  162.0900  204.3110  146.0910 N   0  0  0  0  0  0  0  0  0  0  0  0
  160.5250  201.7870  149.7900 N   0  0  0  0  0  1  0  0  0  0  0  0
  160.8100  203.1600  149.4090 C   0  0  0  0  0  2  0  0  0  0  0  0
  1  3  1  0  0  0  0
  2  7  1  0  0  0  0
  3  2  2  0  0  0  0
  4  1  2  0  0  0  0
  4  5  1  0  0  0  0
  5  6  2  0  0  0  0
  6  2  1  0  0  0  0
  7  8  1  0  0  0  0
  7  9  1  0  0  0  0
  9 10  1  0  0  0  0
 10 11  2  0  0  0  0
 12  5  1  0  0  0  0
 13 12  1  0  0  0  0
 16 14  1  6  0  0  0
 16 13  1  0  0  0  0
 16 15  1  0  0  0  0
 17 16  1  0  0  0  0
 18 17  1  0  0  0  0
 19  1  1  0  0  0  0
 20 24  1  0  0  0  0
 20 22  2  0  0  0  0
 21 26  1  0  0  0  0
 22 28  1  0  0  0  0
 23 24  1  0  0  0  0
 24 19  1  0  0  0  0
 25 26  1  0  0  0  0
 25 23  2  0  0  0  0
 26 20  1  0  0  0  0
 28 27  1  0  0  0  0
M  END
>  <MODEL>
6

>  <REMARK>
 VINA RESULT:      -6.5      3.430      7.049
  Name = 
  10 active torsions:
  status: ('A' for Active; 'I' for Inactive)
    1  A    between atoms: C_4  and  C_25
    2  A    between atoms: C_4  and  C_26
    3  A    between atoms: C_5  and  C_19
    4  A    between atoms: C_7  and  N_8
    5  A    between atoms: N_8  and  N_23
    6  A    between atoms: O_9  and  C_20
    7  A    between atoms: N_10  and  C_11
    8  A    between atoms: N_13  and  C_19
    9  A    between atoms: C_14  and  N_23
   10  A    between atoms: C_20  and  C_26
                            x       y       z     vdW  Elec       q    Type
                         _______ _______ _______ _____ _____    ______ ____

>  <TORSDO>
F 10

$$$$
=
 OpenBabel11072411173D

 28 29  0  0  1  0  0  0  0  0999 V2000
  161.8880  208.8830  151.1690 C   0  0  0  0  0  0  0  0  0  0  0  0
  161.3880  206.7260  150.1540 C   0  0  0  0  0  0  0  0  0  0  0  0
  161.7950  208.0650  150.0410 C   0  0  0  0  0  3  0  0  0  0  0  0
  161.5980  208.3620  152.4320 C   0  0  0  0  0  3  0  0  0  0  0  0
  161.2000  207.0300  152.5650 C   0  0  0  0  0  0  0  0  0  0  0  0
  161.1010  206.2160  151.4310 C   0  0  0  0  0  3  0  0  0  0  0  0
  161.3110  205.8700  148.9950 N   0  0  0  0  0  0  0  0  0  0  0  0
  161.5600  206.4280  147.6740 C   0  0  0  0  0  1  0  0  0  0  0  0
  160.9690  204.5040  149.0650 N   0  0  0  0  0  2  0  0  0  0  0  0
  161.3010  203.5490  148.0580 C   0  0  0  0  0  3  0  0  0  0  0  0
  161.0350  202.2670  148.2480 C   0  0  0  0  0  2  0  0  0  0  0  0
  160.8960  206.4780  153.9180 C   0  0  0  0  0  2  0  0  0  0  0  0
  161.2040  207.4870  155.0240 C   0  0  0  0  0  2  0  0  0  0  0  0
  160.5490  206.9300  157.2470 O   0  0  0  0  0  1  0  0  0  0  0  0
  158.9480  206.9270  155.6550 F   0  0  0  0  0  0  0  0  0  0  0  0
  160.1020  207.5700  156.0900 C   0  0  2  0  0  0  0  0  0  0  0  0
  159.8360  208.9190  156.4150 O   0  0  0  0  0  0  0  0  0  0  0  0
  161.0290  209.6560  156.3220 C   0  0  0  0  0  1  0  0  0  0  0  0
  162.3410  210.2950  151.0270 C   0  0  0  0  0  2  0  0  0  0  0  0
  160.9300  212.1860  150.1400 C   0  0  0  0  0  0  0  0  0  0  0  0
  160.6890  214.2830  148.9250 O   0  0  0  0  0  1  0  0  0  0  0  0
  160.2470  212.5400  151.1910 N   0  0  0  0  0  0  0  0  0  0  0  0
  162.1340  211.0170  148.5970 C   0  0  0  0  0  3  0  0  0  0  0  0
  161.6020  210.9590  149.9620 N   0  0  0  0  0  0  0  0  0  0  0  0
  161.8570  212.3600  148.0360 N   0  0  0  0  0  0  0  0  0  0  0  0
  161.0520  212.9820  148.9980 N   0  0  0  0  0  0  0  0  0  0  0  0
  158.6380  211.6900  152.7270 N   0  0  0  0  0  1  0  0  0  0  0  0
  160.0450  211.6970  152.3620 C   0  0  0  0  0  2  0  0  0  0  0  0
  1  4  1  0  0  0  0
  2  6  2  0  0  0  0
  3  2  1  0  0  0  0
  3  1  2  0  0  0  0
  4  5  2  0  0  0  0
  5 12  1  0  0  0  0
  6  5  1  0  0  0  0
  7  9  1  0  0  0  0
  7  2  1  0  0  0  0
  8  7  1  0  0  0  0
 10 11  2  0  0  0  0
 10  9  1  0  0  0  0
 12 13  1  0  0  0  0
 13 16  1  0  0  0  0
 16 15  1  6  0  0  0
 16 17  1  0  0  0  0
 16 14  1  0  0  0  0
 18 17  1  0  0  0  0
 19  1  1  0  0  0  0
 20 22  2  0  0  0  0
 21 26  1  0  0  0  0
 22 28  1  0  0  0  0
 23 24  1  0  0  0  0
 24 20  1  0  0  0  0
 24 19  1  0  0  0  0
 25 23  2  0  0  0  0
 25 26  1  0  0  0  0
 26 20  1  0  0  0  0
 28 27  1  0  0  0  0
M  END
>  <MODEL>
7

>  <REMARK>
 VINA RESULT:      -6.4      4.103      6.454
  Name = 
  10 active torsions:
  status: ('A' for Active; 'I' for Inactive)
    1  A    between atoms: C_4  and  C_25
    2  A    between atoms: C_4  and  C_26
    3  A    between atoms: C_5  and  C_19
    4  A    between atoms: C_7  and  N_8
    5  A    between atoms: N_8  and  N_23
    6  A    between atoms: O_9  and  C_20
    7  A    between atoms: N_10  and  C_11
    8  A    between atoms: N_13  and  C_19
    9  A    between atoms: C_14  and  N_23
   10  A    between atoms: C_20  and  C_26
                            x       y       z     vdW  Elec       q    Type
                         _______ _______ _______ _____ _____    ______ ____

>  <TORSDO>
F 10

$$$$
=
 OpenBabel11072411173D

 28 29  0  0  1  0  0  0  0  0999 V2000
  161.8730  208.6350  150.5430 C   0  0  0  0  0  0  0  0  0  0  0  0
  161.2830  206.3490  151.1440 C   0  0  0  0  0  0  0  0  0  0  0  0
  161.6140  207.6620  151.5130 C   0  0  0  0  0  3  0  0  0  0  0  0
  161.7800  208.3090  149.1880 C   0  0  0  0  0  3  0  0  0  0  0  0
  161.4430  207.0090  148.8030 C   0  0  0  0  0  0  0  0  0  0  0  0
  161.1910  206.0360  149.7770 C   0  0  0  0  0  3  0  0  0  0  0  0
  160.9930  205.3460  152.1390 N   0  0  0  0  0  0  0  0  0  0  0  0
  161.3200  205.6040  153.5330 C   0  0  0  0  0  1  0  0  0  0  0  0
  160.4290  204.0910  151.8310 N   0  0  0  0  0  2  0  0  0  0  0  0
  161.1940  202.9470  151.4540 C   0  0  0  0  0  3  0  0  0  0  0  0
  160.8610  202.2520  150.3780 C   0  0  0  0  0  2  0  0  0  0  0  0
  161.3400  206.6700  147.3530 C   0  0  0  0  0  2  0  0  0  0  0  0
  161.2010  205.1650  147.1310 C   0  0  0  0  0  2  0  0  0  0  0  0
  161.6750  203.4100  145.5900 O   0  0  0  0  0  1  0  0  0  0  0  0
  163.4220  204.3700  146.6480 F   0  0  0  0  0  0  0  0  0  0  0  0
  162.1770  204.6150  146.0800 C   0  0  2  0  0  0  0  0  0  0  0  0
  162.2850  205.5150  144.9960 O   0  0  0  0  0  0  0  0  0  0  0  0
  161.1340  205.4090  144.1960 C   0  0  0  0  0  1  0  0  0  0  0  0
  162.2040  210.0270  150.9580 C   0  0  0  0  0  2  0  0  0  0  0  0
  160.7520  212.0830  150.8170 C   0  0  0  0  0  0  0  0  0  0  0  0
  160.4470  214.4520  150.3440 O   0  0  0  0  0  1  0  0  0  0  0  0
  160.1530  212.0790  151.9730 N   0  0  0  0  0  0  0  0  0  0  0  0
  161.8270  211.4740  148.9000 C   0  0  0  0  0  3  0  0  0  0  0  0
  161.3960  210.9830  150.2130 N   0  0  0  0  0  0  0  0  0  0  0  0
  161.5250  212.9210  148.8120 N   0  0  0  0  0  0  0  0  0  0  0  0
  160.7990  213.1990  149.9780 N   0  0  0  0  0  0  0  0  0  0  0  0
  160.8530  211.0750  154.0140 N   0  0  0  0  0  1  0  0  0  0  0  0
  160.0270  210.9090  152.8300 C   0  0  0  0  0  2  0  0  0  0  0  0
  1 19  1  0  0  0  0
  1  3  1  0  0  0  0
  2  3  2  0  0  0  0
  2  7  1  0  0  0  0
  4  1  2  0  0  0  0
  5  4  1  0  0  0  0
  5  6  2  0  0  0  0
  6  2  1  0  0  0  0
  7  8  1  0  0  0  0
  9  7  1  0  0  0  0
 10  9  1  0  0  0  0
 11 10  2  0  0  0  0
 12  5  1  0  0  0  0
 13 12  1  0  0  0  0
 16 14  1  6  0  0  0
 16 15  1  0  0  0  0
 16 13  1  0  0  0  0
 17 16  1  0  0  0  0
 18 17  1  0  0  0  0
 20 22  2  0  0  0  0
 22 28  1  0  0  0  0
 23 24  1  0  0  0  0
 24 20  1  0  0  0  0
 24 19  1  0  0  0  0
 25 23  2  0  0  0  0
 25 26  1  0  0  0  0
 26 21  1  0  0  0  0
 26 20  1  0  0  0  0
 28 27  1  0  0  0  0
M  END
>  <MODEL>
8

>  <REMARK>
 VINA RESULT:      -6.3      2.035      2.889
  Name = 
  10 active torsions:
  status: ('A' for Active; 'I' for Inactive)
    1  A    between atoms: C_4  and  C_25
    2  A    between atoms: C_4  and  C_26
    3  A    between atoms: C_5  and  C_19
    4  A    between atoms: C_7  and  N_8
    5  A    between atoms: N_8  and  N_23
    6  A    between atoms: O_9  and  C_20
    7  A    between atoms: N_10  and  C_11
    8  A    between atoms: N_13  and  C_19
    9  A    between atoms: C_14  and  N_23
   10  A    between atoms: C_20  and  C_26
                            x       y       z     vdW  Elec       q    Type
                         _______ _______ _______ _____ _____    ______ ____

>  <TORSDO>
F 10

$$$$
=
 OpenBabel11072411173D

 28 29  0  0  1  0  0  0  0  0999 V2000
  161.8820  207.4000  151.6350 C   0  0  0  0  0  0  0  0  0  0  0  0
  160.9410  208.5700  153.5530 C   0  0  0  0  0  0  0  0  0  0  0  0
  161.3950  207.3890  152.9450 C   0  0  0  0  0  3  0  0  0  0  0  0
  161.9440  208.6010  150.9250 C   0  0  0  0  0  3  0  0  0  0  0  0
  161.5040  209.7870  151.5180 C   0  0  0  0  0  0  0  0  0  0  0  0
  161.0100  209.7710  152.8270 C   0  0  0  0  0  3  0  0  0  0  0  0
  160.4570  208.5690  154.9120 N   0  0  0  0  0  0  0  0  0  0  0  0
  160.1470  207.3040  155.5610 C   0  0  0  0  0  1  0  0  0  0  0  0
  160.2310  209.7470  155.6520 N   0  0  0  0  0  2  0  0  0  0  0  0
  161.1440  210.2670  156.6190 C   0  0  0  0  0  3  0  0  0  0  0  0
  162.3800  210.5750  156.2640 C   0  0  0  0  0  2  0  0  0  0  0  0
  161.5770  211.0680  150.7550 C   0  0  0  0  0  2  0  0  0  0  0  0
  162.1170  210.8570  149.3410 C   0  0  0  0  0  2  0  0  0  0  0  0
  163.1800  212.3760  147.8450 O   0  0  0  0  0  1  0  0  0  0  0  0
  161.5620  213.1950  149.1880 F   0  0  0  0  0  0  0  0  0  0  0  0
  161.9520  212.0890  148.4400 C   0  0  2  0  0  0  0  0  0  0  0  0
  161.0210  211.8210  147.4120 O   0  0  0  0  0  0  0  0  0  0  0  0
  160.8230  212.9900  146.6580 C   0  0  0  0  0  1  0  0  0  0  0  0
  162.3770  206.1380  151.0170 C   0  0  0  0  0  2  0  0  0  0  0  0
  160.9350  204.4500  149.8220 C   0  0  0  0  0  0  0  0  0  0  0  0
  160.4100  202.1580  149.1870 O   0  0  0  0  0  1  0  0  0  0  0  0
  160.8340  204.9660  148.6310 N   0  0  0  0  0  0  0  0  0  0  0  0
  161.1920  204.1470  152.0670 C   0  0  0  0  0  3  0  0  0  0  0  0
  161.3190  205.1360  150.9930 N   0  0  0  0  0  0  0  0  0  0  0  0
  160.8440  202.8380  151.4680 N   0  0  0  0  0  0  0  0  0  0  0  0
  160.6230  203.1200  150.1140 N   0  0  0  0  0  0  0  0  0  0  0  0
  162.2690  206.4830  147.4870 N   0  0  0  0  0  1  0  0  0  0  0  0
  161.0820  206.3660  148.3170 C   0  0  0  0  0  2  0  0  0  0  0  0
  1  3  1  0  0  0  0
  2  7  1  0  0  0  0
  3  2  2  0  0  0  0
  4  5  1  0  0  0  0
  4  1  2  0  0  0  0
  5  6  2  0  0  0  0
  6  2  1  0  0  0  0
  7  8  1  0  0  0  0
  7  9  1  0  0  0  0
  9 10  1  0  0  0  0
 11 10  2  0  0  0  0
 12  5  1  0  0  0  0
 13 12  1  0  0  0  0
 16 14  1  6  0  0  0
 16 15  1  0  0  0  0
 16 13  1  0  0  0  0
 17 16  1  0  0  0  0
 18 17  1  0  0  0  0
 19  1  1  0  0  0  0
 20 26  1  0  0  0  0
 20 24  1  0  0  0  0
 21 26  1  0  0  0  0
 22 20  2  0  0  0  0
 24 19  1  0  0  0  0
 24 23  1  0  0  0  0
 25 23  2  0  0  0  0
 26 25  1  0  0  0  0
 27 28  1  0  0  0  0
 28 22  1  0  0  0  0
M  END
>  <MODEL>
9

>  <REMARK>
 VINA RESULT:      -6.3      3.318      7.282
  Name = 
  10 active torsions:
  status: ('A' for Active; 'I' for Inactive)
    1  A    between atoms: C_4  and  C_25
    2  A    between atoms: C_4  and  C_26
    3  A    between atoms: C_5  and  C_19
    4  A    between atoms: C_7  and  N_8
    5  A    between atoms: N_8  and  N_23
    6  A    between atoms: O_9  and  C_20
    7  A    between atoms: N_10  and  C_11
    8  A    between atoms: N_13  and  C_19
    9  A    between atoms: C_14  and  N_23
   10  A    between atoms: C_20  and  C_26
                            x       y       z     vdW  Elec       q    Type
                         _______ _______ _______ _____ _____    ______ ____

>  <TORSDO>
F 10

$$$$
