=
 OpenBabel11072411443D

 49 51  0  0  1  0  0  0  0  0999 V2000
  161.5200  209.8940  154.2620 S   0  0  0  0  0  0  0  0  0  0  0  0
  161.3910  208.6940  151.7610 C   0  0  0  0  0  0  0  0  0  0  0  0
  161.2080  206.1470  152.8530 C   0  0  0  0  0  3  0  0  0  0  0  0
  161.3950  208.4950  153.1530 C   0  0  0  0  0  0  0  0  0  0  0  0
  161.1840  206.3010  151.4680 C   0  0  0  0  0  3  0  0  0  0  0  0
  161.3220  207.2350  153.6590 N   0  0  0  0  0  0  0  0  0  0  0  0
  161.2860  207.5810  150.9030 C   0  0  0  0  0  0  0  0  0  0  0  0
  161.5010  209.9560  151.2610 F   0  0  0  0  0  0  0  0  0  0  0  0
  161.0520  206.5860  148.6040 N   0  0  0  0  0  2  0  0  0  0  0  0
  161.7390  208.7990  148.9150 O   0  0  0  0  0  0  0  0  0  0  0  0
  161.3550  207.7180  149.4350 C   0  0  0  0  0  0  0  0  0  0  0  0
  161.2150  206.5390  147.1520 C   0  0  1  0  0  3  0  0  0  0  0  0
  162.6740  206.3580  146.7760 C   0  0  0  0  0  1  0  0  0  0  0  0
  160.3660  205.4350  146.5200 C   0  0  0  0  0  2  0  0  0  0  0  0
  161.0910  204.7530  145.3990 C   0  0  0  0  0  0  0  0  0  0  0  0
  161.0860  205.2610  144.2460 O   0  0  0  0  0  0  0  0  0  0  0  0
  161.8670  203.5810  145.6420 N   0  0  0  0  0  2  0  0  0  0  0  0
  162.0710  203.0490  146.9800 C   0  0  0  0  0  2  0  0  0  0  0  0
  160.9640  201.6350  147.2660 P   0  0  1  0  0  0  0  0  0  0  0  0
  159.8020  201.7100  146.2980 O   0  0  0  0  0  0  0  0  0  0  0  0
  161.8060  200.1860  147.0270 O   0  0  0  0  0  1  0  0  0  0  0  0
  160.3400  203.2590  149.8670 O   0  0  0  0  0  1  0  0  0  0  0  0
  161.0110  200.7410  150.1130 O   0  0  0  0  0  1  0  0  0  0  0  0
  160.2140  201.6880  149.2450 P   0  0  0  0  0  0  0  0  0  0  0  0
  158.5870  201.2090  149.2410 O   0  0  0  0  0  0  0  0  0  0  0  0
  159.7580  210.3110  154.0800 C   0  0  0  0  0  2  0  0  0  0  0  0
  159.3880  211.6170  154.7910 C   0  0  2  0  0  3  0  0  0  0  0  0
  159.3120  210.2090  156.7620 O   0  0  0  0  0  1  0  0  0  0  0  0
  160.8100  212.0780  156.8300 C   0  0  0  0  0  1  0  0  0  0  0  0
  159.4970  211.5170  156.3090 C   0  0  1  0  0  3  0  0  0  0  0  0
  157.9570  212.0030  154.4460 C   0  0  0  0  0  2  0  0  0  0  0  0
  157.5730  213.3610  155.0330 C   0  0  1  0  0  3  0  0  0  0  0  0
  155.9520  214.2510  153.3270 C   0  0  0  0  0  2  0  0  0  0  0  0
  157.3440  214.3430  153.8720 C   0  0  2  0  0  3  0  0  0  0  0  0
  158.2050  214.0770  152.8120 O   0  0  0  0  0  0  0  0  0  0  0  0
  157.4380  214.3720  151.6790 C   0  0  2  0  0  3  0  0  0  0  0  0
  156.0690  214.1610  151.9390 O   0  0  0  0  0  0  0  0  0  0  0  0
  157.8640  213.4980  150.5110 C   0  0  0  0  0  2  0  0  0  0  0  0
  159.0500  214.0960  149.7670 C   0  0  0  0  0  2  0  0  0  0  0  0
  159.3260  213.2650  148.5200 C   0  0  0  0  0  2  0  0  0  0  0  0
  160.5140  213.8010  147.7330 C   0  0  1  0  0  3  0  0  0  0  0  0
  162.8620  213.0280  147.9600 C   0  0  0  0  0  2  0  0  0  0  0  0
  161.7840  213.5880  148.5140 C   0  0  0  0  0  3  0  0  0  0  0  0
  160.5960  213.1720  146.4820 O   0  0  0  0  0  0  0  0  0  0  0  0
  159.2850  213.1410  145.9860 C   0  0  0  0  0  1  0  0  0  0  0  0
  156.3730  213.2900  156.0050 C   0  0  0  0  0  0  0  0  0  0  0  0
  156.5540  212.4690  157.2600 C   0  0  0  0  0  2  0  0  0  0  0  0
  155.6220  214.4530  156.2260 O   0  0  0  0  0  1  0  0  0  0  0  0
  155.5990  211.9980  156.1660 C   0  0  0  0  0  2  0  0  0  0  0  0
  2  4  1  0  0  0  0
  3  6  1  0  0  0  0
  4  6  2  0  0  0  0
  4  1  1  0  0  0  0
  5  3  2  0  0  0  0
  7  5  1  0  0  0  0
  7  2  2  0  0  0  0
  8  2  1  0  0  0  0
  9 11  1  0  0  0  0
 10 11  2  0  0  0  0
 11  7  1  0  0  0  0
 12 13  1  1  0  0  0
 12  9  1  0  0  0  0
 14 12  1  0  0  0  0
 15 17  1  0  0  0  0
 15 14  1  0  0  0  0
 16 15  2  0  0  0  0
 17 18  1  0  0  0  0
 18 19  1  0  0  0  0
 19 20  2  6  0  0  0
 19 24  1  0  0  0  0
 21 19  1  0  0  0  0
 24 22  1  0  0  0  0
 24 23  1  0  0  0  0
 25 24  2  0  0  0  0
 26  1  1  0  0  0  0
 27 26  1  6  0  0  0
 27 30  1  0  0  0  0
 30 28  1  0  0  0  0
 30 29  1  6  0  0  0
 31 27  1  0  0  0  0
 32 31  1  6  0  0  0
 32 46  1  0  0  0  0
 33 34  1  0  0  0  0
 34 32  1  1  0  0  0
 35 34  1  0  0  0  0
 36 38  1  6  0  0  0
 36 37  1  0  0  0  0
 36 35  1  0  0  0  0
 37 33  1  0  0  0  0
 39 38  1  0  0  0  0
 40 39  1  0  0  0  0
 41 43  1  1  0  0  0
 41 40  1  0  0  0  0
 42 43  2  0  0  0  0
 44 41  1  0  0  0  0
 45 44  1  0  0  0  0
 46 49  1  0  0  0  0
 46 48  1  0  0  0  0
 46 47  1  0  0  0  0
 49 47  1  0  0  0  0
M  END
>  <MODEL>
1

>  <REMARK>
 VINA RESULT:      -5.4      0.000      0.000
  Name = 
  21 active torsions:
  status: ('A' for Active; 'I' for Inactive)
    1  A    between atoms: N_2  and  C_35
    2  A    between atoms: P_3  and  C_14
    3  A    between atoms: P_3  and  P_41
    4  A    between atoms: C_4  and  C_31
    5  A    between atoms: C_4  and  C_34
    6  A    between atoms: C_4  and  C_45
    7  A    between atoms: O_5  and  C_22
    8  A    between atoms: C_9  and  C_17
    9  A    between atoms: C_11  and  C_17
   10  A    between atoms: C_12  and  C_26
   11  A    between atoms: C_12  and  C_42
   12  A    between atoms: C_14  and  N_33
   13  A    between atoms: C_15  and  S_29
   14  A    between atoms: C_17  and  C_45
   15  A    between atoms: C_22  and  C_32
   16  A    between atoms: C_22  and  C_39
   17  A    between atoms: C_25  and  C_44
   18  A    between atoms: C_26  and  C_32
   19  A    between atoms: S_29  and  C_31
   20  A    between atoms: C_35  and  C_44
   21  A    between atoms: C_40  and  C_46
                            x       y       z     vdW  Elec       q    Type
                         _______ _______ _______ _____ _____    ______ ____

>  <TORSDO>
F 21

$$$$
=
 OpenBabel11072411443D

 49 51  0  0  1  0  0  0  0  0999 V2000
  159.7110  212.3710  151.4450 S   0  0  0  0  0  0  0  0  0  0  0  0
  161.0210  212.8910  149.0520 C   0  0  0  0  0  0  0  0  0  0  0  0
  162.5840  210.6050  149.2650 C   0  0  0  0  0  3  0  0  0  0  0  0
  160.8940  212.0200  150.1480 C   0  0  0  0  0  0  0  0  0  0  0  0
  162.7290  211.4320  148.1530 C   0  0  0  0  0  3  0  0  0  0  0  0
  161.6860  210.9170  150.2350 N   0  0  0  0  0  0  0  0  0  0  0  0
  161.9540  212.5950  148.0380 C   0  0  0  0  0  0  0  0  0  0  0  0
  160.2500  214.0120  148.9890 F   0  0  0  0  0  0  0  0  0  0  0  0
  161.5220  213.2680  145.6520 N   0  0  0  0  0  2  0  0  0  0  0  0
  163.0150  214.4530  147.0060 O   0  0  0  0  0  0  0  0  0  0  0  0
  162.1880  213.5080  146.9020 C   0  0  0  0  0  0  0  0  0  0  0  0
  161.7670  214.0020  144.4120 C   0  0  1  0  0  3  0  0  0  0  0  0
  162.8610  213.3380  143.5960 C   0  0  0  0  0  1  0  0  0  0  0  0
  160.4960  214.1430  143.5740 C   0  0  0  0  0  2  0  0  0  0  0  0
  159.8010  212.8260  143.3980 C   0  0  0  0  0  0  0  0  0  0  0  0
  159.3600  212.2070  144.4020 O   0  0  0  0  0  0  0  0  0  0  0  0
  159.5480  212.3080  142.0920 N   0  0  0  0  0  2  0  0  0  0  0  0
  159.8580  213.0570  140.8860 C   0  0  0  0  0  2  0  0  0  0  0  0
  159.8610  211.9480  139.4450 P   0  0  1  0  0  0  0  0  0  0  0  0
  158.7000  210.9820  139.5590 O   0  0  0  0  0  1  0  0  0  0  0  0
  159.7070  212.8520  138.0210 O   0  0  0  0  0  0  0  0  0  0  0  0
  162.5410  211.2550  137.9850 O   0  0  0  0  0  0  0  0  0  0  0  0
  161.3580  209.3670  139.3580 O   0  0  0  0  0  1  0  0  0  0  0  0
  161.6680  210.8460  139.3790 P   0  0  0  0  0  0  0  0  0  0  0  0
  162.5940  211.2050  140.7530 O   0  0  0  0  0  1  0  0  0  0  0  0
  159.9580  210.7490  152.2330 C   0  0  0  0  0  2  0  0  0  0  0  0
  159.5760  210.7540  153.7170 C   0  0  2  0  0  3  0  0  0  0  0  0
  157.9940  212.4150  154.5000 O   0  0  0  0  0  1  0  0  0  0  0  0
  160.1630  212.4260  155.5200 C   0  0  0  0  0  1  0  0  0  0  0  0
  159.3470  212.1580  154.2650 C   0  0  1  0  0  3  0  0  0  0  0  0
  160.6830  210.1040  154.5340 C   0  0  0  0  0  2  0  0  0  0  0  0
  160.3660  208.6460  154.8700 C   0  0  1  0  0  3  0  0  0  0  0  0
  161.9850  208.4510  152.9540 C   0  0  0  0  0  2  0  0  0  0  0  0
  161.3660  207.7490  154.1240 C   0  0  2  0  0  3  0  0  0  0  0  0
  160.7430  206.6110  153.6210 O   0  0  0  0  0  0  0  0  0  0  0  0
  161.4090  206.3750  152.4120 C   0  0  2  0  0  3  0  0  0  0  0  0
  161.8900  207.5820  151.8670 O   0  0  0  0  0  0  0  0  0  0  0  0
  160.4720  205.7140  151.4130 C   0  0  0  0  0  2  0  0  0  0  0  0
  161.2300  204.8210  150.4410 C   0  0  0  0  0  2  0  0  0  0  0  0
  161.0970  205.3920  149.0340 C   0  0  0  0  0  2  0  0  0  0  0  0
  161.8530  204.5560  148.0100 C   0  0  1  0  0  3  0  0  0  0  0  0
  160.5850  202.4850  147.5030 C   0  0  0  0  0  2  0  0  0  0  0  0
  161.5390  203.0970  148.2070 C   0  0  0  0  0  3  0  0  0  0  0  0
  161.5190  204.9590  146.7090 O   0  0  0  0  0  0  0  0  0  0  0  0
  160.8210  206.1670  146.8520 C   0  0  0  0  0  1  0  0  0  0  0  0
  160.3210  208.3640  156.3890 C   0  0  0  0  0  0  0  0  0  0  0  0
  161.4860  207.6050  156.9800 C   0  0  0  0  0  2  0  0  0  0  0  0
  159.8440  209.3680  157.2420 O   0  0  0  0  0  1  0  0  0  0  0  0
  160.1080  206.9520  156.8940 C   0  0  0  0  0  2  0  0  0  0  0  0
  1 26  1  0  0  0  0
  2  4  1  0  0  0  0
  3  6  1  0  0  0  0
  4  6  2  0  0  0  0
  4  1  1  0  0  0  0
  5  3  2  0  0  0  0
  7  5  1  0  0  0  0
  7  2  2  0  0  0  0
  8  2  1  0  0  0  0
  9 11  1  0  0  0  0
 11 10  2  0  0  0  0
 11  7  1  0  0  0  0
 12 13  1  6  0  0  0
 12  9  1  0  0  0  0
 14 12  1  0  0  0  0
 15 14  1  0  0  0  0
 15 16  2  0  0  0  0
 17 15  1  0  0  0  0
 18 17  1  0  0  0  0
 19 21  2  6  0  0  0
 19 20  1  0  0  0  0
 19 18  1  0  0  0  0
 22 24  2  0  0  0  0
 23 24  1  0  0  0  0
 24 19  1  0  0  0  0
 24 25  1  0  0  0  0
 27 26  1  6  0  0  0
 27 30  1  0  0  0  0
 27 31  1  0  0  0  0
 30 28  1  0  0  0  0
 30 29  1  1  0  0  0
 32 31  1  1  0  0  0
 32 46  1  0  0  0  0
 33 34  1  0  0  0  0
 34 32  1  6  0  0  0
 35 34  1  0  0  0  0
 36 38  1  6  0  0  0
 36 35  1  0  0  0  0
 37 36  1  0  0  0  0
 37 33  1  0  0  0  0
 39 38  1  0  0  0  0
 40 39  1  0  0  0  0
 41 43  1  6  0  0  0
 41 40  1  0  0  0  0
 42 43  2  0  0  0  0
 44 45  1  0  0  0  0
 44 41  1  0  0  0  0
 46 49  1  0  0  0  0
 46 47  1  0  0  0  0
 46 48  1  0  0  0  0
 49 47  1  0  0  0  0
M  END
>  <MODEL>
2

>  <REMARK>
 VINA RESULT:      -5.4      4.571      8.439
  Name = 
  21 active torsions:
  status: ('A' for Active; 'I' for Inactive)
    1  A    between atoms: N_2  and  C_35
    2  A    between atoms: P_3  and  C_14
    3  A    between atoms: P_3  and  P_41
    4  A    between atoms: C_4  and  C_31
    5  A    between atoms: C_4  and  C_34
    6  A    between atoms: C_4  and  C_45
    7  A    between atoms: O_5  and  C_22
    8  A    between atoms: C_9  and  C_17
    9  A    between atoms: C_11  and  C_17
   10  A    between atoms: C_12  and  C_26
   11  A    between atoms: C_12  and  C_42
   12  A    between atoms: C_14  and  N_33
   13  A    between atoms: C_15  and  S_29
   14  A    between atoms: C_17  and  C_45
   15  A    between atoms: C_22  and  C_32
   16  A    between atoms: C_22  and  C_39
   17  A    between atoms: C_25  and  C_44
   18  A    between atoms: C_26  and  C_32
   19  A    between atoms: S_29  and  C_31
   20  A    between atoms: C_35  and  C_44
   21  A    between atoms: C_40  and  C_46
                            x       y       z     vdW  Elec       q    Type
                         _______ _______ _______ _____ _____    ______ ____

>  <TORSDO>
F 21

$$$$
=
 OpenBabel11072411443D

 49 51  0  0  1  0  0  0  0  0999 V2000
  162.3180  210.9300  148.6230 S   0  0  0  0  0  0  0  0  0  0  0  0
  161.6000  208.5500  149.8620 C   0  0  0  0  0  0  0  0  0  0  0  0
  162.1430  209.5560  152.3930 C   0  0  0  0  0  3  0  0  0  0  0  0
  162.0640  209.8660  150.0390 C   0  0  0  0  0  0  0  0  0  0  0  0
  161.6690  208.2520  152.2620 C   0  0  0  0  0  3  0  0  0  0  0  0
  162.3390  210.3250  151.2900 N   0  0  0  0  0  0  0  0  0  0  0  0
  161.4000  207.7290  150.9890 C   0  0  0  0  0  0  0  0  0  0  0  0
  161.3610  208.0850  148.6040 F   0  0  0  0  0  0  0  0  0  0  0  0
  161.4250  205.3620  151.8440 N   0  0  0  0  0  2  0  0  0  0  0  0
  160.3160  205.9370  149.8670 O   0  0  0  0  0  0  0  0  0  0  0  0
  160.9890  206.3170  150.8630 C   0  0  0  0  0  0  0  0  0  0  0  0
  161.2120  203.9170  151.7670 C   0  0  1  0  0  3  0  0  0  0  0  0
  159.7360  203.5940  151.6210 C   0  0  0  0  0  1  0  0  0  0  0  0
  162.0060  203.2870  150.6240 C   0  0  0  0  0  2  0  0  0  0  0  0
  161.1280  202.4720  149.7230 C   0  0  0  0  0  0  0  0  0  0  0  0
  160.4430  201.5270  150.1980 O   0  0  0  0  0  0  0  0  0  0  0  0
  160.9850  202.8130  148.3450 N   0  0  0  0  0  2  0  0  0  0  0  0
  161.5950  204.0020  147.7720 C   0  0  0  0  0  2  0  0  0  0  0  0
  161.7490  203.8180  145.9690 P   0  0  1  0  0  0  0  0  0  0  0  0
  163.2120  203.8910  145.5860 O   0  0  0  0  0  1  0  0  0  0  0  0
  161.1110  202.3260  145.4850 O   0  0  0  0  0  0  0  0  0  0  0  0
  159.1270  204.8680  144.6210 O   0  0  0  0  0  1  0  0  0  0  0  0
  161.4210  205.7390  143.7080 O   0  0  0  0  0  0  0  0  0  0  0  0
  160.7030  205.3750  144.9870 P   0  0  0  0  0  0  0  0  0  0  0  0
  160.6390  206.7330  146.0000 O   0  0  0  0  0  1  0  0  0  0  0  0
  161.5260  212.3520  149.4380 C   0  0  0  0  0  2  0  0  0  0  0  0
  160.5870  213.1170  148.4980 C   0  0  2  0  0  3  0  0  0  0  0  0
  162.7000  214.0150  147.7220 O   0  0  0  0  0  1  0  0  0  0  0  0
  161.1080  213.3950  146.0400 C   0  0  0  0  0  1  0  0  0  0  0  0
  161.3330  213.9290  147.4460 C   0  0  1  0  0  3  0  0  0  0  0  0
  159.7210  214.0740  149.3050 C   0  0  0  0  0  2  0  0  0  0  0  0
  158.4150  213.4200  149.7570 C   0  0  1  0  0  3  0  0  0  0  0  0
  159.3340  214.2640  151.9420 C   0  0  0  0  0  2  0  0  0  0  0  0
  158.0940  213.9090  151.1780 C   0  0  2  0  0  3  0  0  0  0  0  0
  157.4430  212.9250  151.9140 O   0  0  0  0  0  0  0  0  0  0  0  0
  157.9300  213.1040  153.2140 C   0  0  2  0  0  3  0  0  0  0  0  0
  159.2330  213.6400  153.1850 O   0  0  0  0  0  0  0  0  0  0  0  0
  157.9520  211.7770  153.9570 C   0  0  0  0  0  2  0  0  0  0  0  0
  159.3360  211.1430  153.9290 C   0  0  0  0  0  2  0  0  0  0  0  0
  160.0770  211.5110  155.2080 C   0  0  0  0  0  2  0  0  0  0  0  0
  160.0410  210.3820  156.2290 C   0  0  1  0  0  3  0  0  0  0  0  0
  159.7250  207.9420  155.9050 C   0  0  0  0  0  2  0  0  0  0  0  0
  160.3440  209.0710  155.5530 C   0  0  0  0  0  3  0  0  0  0  0  0
  160.9600  210.6260  157.2600 O   0  0  0  0  0  0  0  0  0  0  0  0
  162.1920  210.8460  156.6280 C   0  0  0  0  0  1  0  0  0  0  0  0
  157.2470  213.6400  148.7680 C   0  0  0  0  0  0  0  0  0  0  0  0
  157.2990  212.8800  147.4630 C   0  0  0  0  0  2  0  0  0  0  0  0
  155.9460  213.7410  149.2810 O   0  0  0  0  0  1  0  0  0  0  0  0
  157.4770  214.3960  147.4750 C   0  0  0  0  0  2  0  0  0  0  0  0
  1 26  1  0  0  0  0
  1  4  1  0  0  0  0
  2  4  2  0  0  0  0
  2  7  1  0  0  0  0
  4  6  1  0  0  0  0
  5  3  1  0  0  0  0
  6  3  2  0  0  0  0
  7  5  2  0  0  0  0
  8  2  1  0  0  0  0
 10 11  2  0  0  0  0
 11  7  1  0  0  0  0
 11  9  1  0  0  0  0
 12 13  1  6  0  0  0
 12  9  1  0  0  0  0
 14 12  1  0  0  0  0
 15 16  2  0  0  0  0
 15 14  1  0  0  0  0
 17 15  1  0  0  0  0
 18 17  1  0  0  0  0
 19 21  2  6  0  0  0
 19 18  1  0  0  0  0
 20 19  1  0  0  0  0
 22 24  1  0  0  0  0
 23 24  2  0  0  0  0
 24 19  1  0  0  0  0
 24 25  1  0  0  0  0
 27 31  1  1  0  0  0
 27 26  1  0  0  0  0
 30 29  1  6  0  0  0
 30 28  1  0  0  0  0
 30 27  1  0  0  0  0
 32 31  1  6  0  0  0
 33 37  1  0  0  0  0
 34 32  1  6  0  0  0
 34 35  1  0  0  0  0
 34 33  1  0  0  0  0
 35 36  1  0  0  0  0
 36 38  1  6  0  0  0
 37 36  1  0  0  0  0
 39 38  1  0  0  0  0
 39 40  1  0  0  0  0
 41 40  1  6  0  0  0
 41 44  1  0  0  0  0
 43 42  2  0  0  0  0
 43 41  1  0  0  0  0
 45 44  1  0  0  0  0
 46 48  1  0  0  0  0
 46 32  1  0  0  0  0
 47 49  1  0  0  0  0
 47 46  1  0  0  0  0
 49 46  1  0  0  0  0
M  END
>  <MODEL>
3

>  <REMARK>
 VINA RESULT:      -5.2      2.315      6.177
  Name = 
  21 active torsions:
  status: ('A' for Active; 'I' for Inactive)
    1  A    between atoms: N_2  and  C_35
    2  A    between atoms: P_3  and  C_14
    3  A    between atoms: P_3  and  P_41
    4  A    between atoms: C_4  and  C_31
    5  A    between atoms: C_4  and  C_34
    6  A    between atoms: C_4  and  C_45
    7  A    between atoms: O_5  and  C_22
    8  A    between atoms: C_9  and  C_17
    9  A    between atoms: C_11  and  C_17
   10  A    between atoms: C_12  and  C_26
   11  A    between atoms: C_12  and  C_42
   12  A    between atoms: C_14  and  N_33
   13  A    between atoms: C_15  and  S_29
   14  A    between atoms: C_17  and  C_45
   15  A    between atoms: C_22  and  C_32
   16  A    between atoms: C_22  and  C_39
   17  A    between atoms: C_25  and  C_44
   18  A    between atoms: C_26  and  C_32
   19  A    between atoms: S_29  and  C_31
   20  A    between atoms: C_35  and  C_44
   21  A    between atoms: C_40  and  C_46
                            x       y       z     vdW  Elec       q    Type
                         _______ _______ _______ _____ _____    ______ ____

>  <TORSDO>
F 21

$$$$
=
 OpenBabel11072411443D

 49 51  0  0  1  0  0  0  0  0999 V2000
  160.8710  207.0430  147.8500 S   0  0  0  0  0  0  0  0  0  0  0  0
  161.3420  209.7640  148.1460 C   0  0  0  0  0  0  0  0  0  0  0  0
  162.4150  209.4300  150.6860 C   0  0  0  0  0  3  0  0  0  0  0  0
  161.4410  208.4900  148.7340 C   0  0  0  0  0  0  0  0  0  0  0  0
  162.3500  210.7080  150.1320 C   0  0  0  0  0  3  0  0  0  0  0  0
  161.9540  208.3600  149.9870 N   0  0  0  0  0  0  0  0  0  0  0  0
  161.8010  210.8910  148.8550 C   0  0  0  0  0  0  0  0  0  0  0  0
  160.7940  209.8910  146.9050 F   0  0  0  0  0  0  0  0  0  0  0  0
  161.5990  212.4660  146.9030 N   0  0  0  0  0  2  0  0  0  0  0  0
  161.6430  213.2480  149.1060 O   0  0  0  0  0  0  0  0  0  0  0  0
  161.6540  212.2600  148.3240 C   0  0  0  0  0  0  0  0  0  0  0  0
  161.5970  213.7690  146.2390 C   0  0  1  0  0  3  0  0  0  0  0  0
  162.9450  214.4520  146.3820 C   0  0  0  0  0  1  0  0  0  0  0  0
  161.2180  213.6530  144.7630 C   0  0  0  0  0  2  0  0  0  0  0  0
  159.8770  213.0050  144.5840 C   0  0  0  0  0  0  0  0  0  0  0  0
  159.2350  212.6020  145.5900 O   0  0  0  0  0  0  0  0  0  0  0  0
  159.2760  212.9250  143.2930 N   0  0  0  0  0  2  0  0  0  0  0  0
  159.8740  213.5380  142.1190 C   0  0  0  0  0  2  0  0  0  0  0  0
  160.3990  212.2540  140.9420 P   0  0  1  0  0  0  0  0  0  0  0  0
  160.7890  211.0070  141.7080 O   0  0  0  0  0  1  0  0  0  0  0  0
  159.1310  211.8910  139.8800 O   0  0  0  0  0  0  0  0  0  0  0  0
  161.5460  213.8310  138.4950 O   0  0  0  0  0  0  0  0  0  0  0  0
  162.8670  211.7380  139.3450 O   0  0  0  0  0  1  0  0  0  0  0  0
  162.0700  212.9270  139.8290 P   0  0  0  0  0  0  0  0  0  0  0  0
  163.0500  213.8940  140.8180 O   0  0  0  0  0  1  0  0  0  0  0  0
  162.4040  206.1210  148.1900 C   0  0  0  0  0  2  0  0  0  0  0  0
  162.4030  204.7280  147.5500 C   0  0  2  0  0  3  0  0  0  0  0  0
  163.6210  204.1330  145.5410 O   0  0  0  0  0  1  0  0  0  0  0  0
  161.2310  204.2060  145.3720 C   0  0  0  0  0  1  0  0  0  0  0  0
  162.4790  204.7740  146.0280 C   0  0  1  0  0  3  0  0  0  0  0  0
  161.1310  203.9860  147.9360 C   0  0  0  0  0  2  0  0  0  0  0  0
  161.3820  202.9520  149.0330 C   0  0  1  0  0  3  0  0  0  0  0  0
  159.9530  204.7130  150.1210 C   0  0  0  0  0  2  0  0  0  0  0  0
  160.7580  203.4690  150.3390 C   0  0  2  0  0  3  0  0  0  0  0  0
  161.7380  203.7870  151.2730 O   0  0  0  0  0  0  0  0  0  0  0  0
  161.2090  204.8970  151.9440 C   0  0  2  0  0  3  0  0  0  0  0  0
  160.3540  205.6280  151.0960 O   0  0  0  0  0  0  0  0  0  0  0  0
  162.3290  205.8040  152.4270 C   0  0  0  0  0  2  0  0  0  0  0  0
  161.9610  206.5060  153.7270 C   0  0  0  0  0  2  0  0  0  0  0  0
  161.2140  207.7940  153.4030 C   0  0  0  0  0  2  0  0  0  0  0  0
  161.0410  208.6730  154.6350 C   0  0  1  0  0  3  0  0  0  0  0  0
  160.0170  210.3680  153.1390 C   0  0  0  0  0  2  0  0  0  0  0  0
  160.0690  209.7840  154.3380 C   0  0  0  0  0  3  0  0  0  0  0  0
  160.5950  207.9080  155.7220 O   0  0  0  0  0  0  0  0  0  0  0  0
  160.3990  208.8170  156.7720 C   0  0  0  0  0  1  0  0  0  0  0  0
  160.9000  201.5320  148.6560 C   0  0  0  0  0  0  0  0  0  0  0  0
  161.8590  200.6660  147.8740 C   0  0  0  0  0  2  0  0  0  0  0  0
  160.1640  200.8040  149.6010 O   0  0  0  0  0  1  0  0  0  0  0  0
  160.5870  201.1930  147.2140 C   0  0  0  0  0  2  0  0  0  0  0  0
  1 26  1  0  0  0  0
  1  4  1  0  0  0  0
  2  4  2  0  0  0  0
  2  7  1  0  0  0  0
  4  6  1  0  0  0  0
  5  3  1  0  0  0  0
  6  3  2  0  0  0  0
  7  5  2  0  0  0  0
  8  2  1  0  0  0  0
  9 11  1  0  0  0  0
 11  7  1  0  0  0  0
 11 10  2  0  0  0  0
 12 13  1  6  0  0  0
 12  9  1  0  0  0  0
 14 12  1  0  0  0  0
 15 14  1  0  0  0  0
 15 16  2  0  0  0  0
 17 15  1  0  0  0  0
 18 17  1  0  0  0  0
 19 21  2  6  0  0  0
 19 20  1  0  0  0  0
 19 18  1  0  0  0  0
 22 24  2  0  0  0  0
 23 24  1  0  0  0  0
 24 25  1  0  0  0  0
 24 19  1  0  0  0  0
 27 31  1  6  0  0  0
 27 26  1  0  0  0  0
 28 30  1  0  0  0  0
 30 29  1  6  0  0  0
 30 27  1  0  0  0  0
 32 31  1  6  0  0  0
 33 34  1  0  0  0  0
 33 37  1  0  0  0  0
 34 32  1  6  0  0  0
 34 35  1  0  0  0  0
 35 36  1  0  0  0  0
 36 38  1  6  0  0  0
 37 36  1  0  0  0  0
 38 39  1  0  0  0  0
 40 39  1  0  0  0  0
 41 40  1  6  0  0  0
 41 44  1  0  0  0  0
 42 43  2  0  0  0  0
 43 41  1  0  0  0  0
 44 45  1  0  0  0  0
 46 32  1  0  0  0  0
 46 48  1  0  0  0  0
 47 46  1  0  0  0  0
 49 47  1  0  0  0  0
 49 46  1  0  0  0  0
M  END
>  <MODEL>
4

>  <REMARK>
 VINA RESULT:      -4.8      4.413     10.454
  Name = 
  21 active torsions:
  status: ('A' for Active; 'I' for Inactive)
    1  A    between atoms: N_2  and  C_35
    2  A    between atoms: P_3  and  C_14
    3  A    between atoms: P_3  and  P_41
    4  A    between atoms: C_4  and  C_31
    5  A    between atoms: C_4  and  C_34
    6  A    between atoms: C_4  and  C_45
    7  A    between atoms: O_5  and  C_22
    8  A    between atoms: C_9  and  C_17
    9  A    between atoms: C_11  and  C_17
   10  A    between atoms: C_12  and  C_26
   11  A    between atoms: C_12  and  C_42
   12  A    between atoms: C_14  and  N_33
   13  A    between atoms: C_15  and  S_29
   14  A    between atoms: C_17  and  C_45
   15  A    between atoms: C_22  and  C_32
   16  A    between atoms: C_22  and  C_39
   17  A    between atoms: C_25  and  C_44
   18  A    between atoms: C_26  and  C_32
   19  A    between atoms: S_29  and  C_31
   20  A    between atoms: C_35  and  C_44
   21  A    between atoms: C_40  and  C_46
                            x       y       z     vdW  Elec       q    Type
                         _______ _______ _______ _____ _____    ______ ____

>  <TORSDO>
F 21

$$$$
=
 OpenBabel11072411443D

 49 51  0  0  1  0  0  0  0  0999 V2000
  159.9420  211.1190  156.8690 S   0  0  0  0  0  0  0  0  0  0  0  0
  160.5320  209.2910  154.8630 C   0  0  0  0  0  0  0  0  0  0  0  0
  159.7990  207.1290  156.4440 C   0  0  0  0  0  3  0  0  0  0  0  0
  160.0680  209.4730  156.1780 C   0  0  0  0  0  0  0  0  0  0  0  0
  160.2370  206.9060  155.1400 C   0  0  0  0  0  3  0  0  0  0  0  0
  159.7340  208.3940  156.9350 N   0  0  0  0  0  0  0  0  0  0  0  0
  160.6200  207.9880  154.3350 C   0  0  0  0  0  0  0  0  0  0  0  0
  160.8990  210.3740  154.1230 F   0  0  0  0  0  0  0  0  0  0  0  0
  161.1410  206.3910  152.4610 N   0  0  0  0  0  2  0  0  0  0  0  0
  161.7210  208.6540  152.3380 O   0  0  0  0  0  0  0  0  0  0  0  0
  161.1700  207.7260  152.9900 C   0  0  0  0  0  0  0  0  0  0  0  0
  161.7720  205.9660  151.2120 C   0  0  1  0  0  3  0  0  0  0  0  0
  163.1110  206.6540  151.0200 C   0  0  0  0  0  1  0  0  0  0  0  0
  161.9460  204.4480  151.1530 C   0  0  0  0  0  2  0  0  0  0  0  0
  160.7810  203.7830  150.4840 C   0  0  0  0  0  0  0  0  0  0  0  0
  159.7450  203.5130  151.1480 O   0  0  0  0  0  0  0  0  0  0  0  0
  160.7940  203.5370  149.0790 N   0  0  0  0  0  2  0  0  0  0  0  0
  161.8750  203.9930  148.2210 C   0  0  0  0  0  2  0  0  0  0  0  0
  161.4030  205.5420  147.3920 P   0  0  1  0  0  0  0  0  0  0  0  0
  160.0420  205.9790  147.8930 O   0  0  0  0  0  1  0  0  0  0  0  0
  162.5430  206.7470  147.7300 O   0  0  0  0  0  0  0  0  0  0  0  0
  161.8850  203.7030  144.9060 O   0  0  0  0  0  1  0  0  0  0  0  0
  162.1400  206.2900  144.5980 O   0  0  0  0  0  0  0  0  0  0  0  0
  161.3010  205.2450  145.2980 P   0  0  0  0  0  0  0  0  0  0  0  0
  159.6900  205.3870  144.7890 O   0  0  0  0  0  1  0  0  0  0  0  0
  158.6350  211.6060  155.6980 C   0  0  0  0  0  2  0  0  0  0  0  0
  157.8010  212.7860  156.2090 C   0  0  2  0  0  3  0  0  0  0  0  0
  155.5170  213.4430  156.6830 O   0  0  0  0  0  1  0  0  0  0  0  0
  155.8500  211.2150  155.8640 C   0  0  0  0  0  1  0  0  0  0  0  0
  156.4110  212.3700  156.6790 C   0  0  1  0  0  3  0  0  0  0  0  0
  157.6350  213.8160  155.1010 C   0  0  0  0  0  2  0  0  0  0  0  0
  157.2300  213.1710  153.7760 C   0  0  1  0  0  3  0  0  0  0  0  0
  154.8490  213.5920  153.0820 C   0  0  0  0  0  2  0  0  0  0  0  0
  156.2520  214.1150  153.0570 C   0  0  2  0  0  3  0  0  0  0  0  0
  156.5950  214.2680  151.7170 O   0  0  0  0  0  0  0  0  0  0  0  0
  155.3590  214.3790  151.0680 C   0  0  2  0  0  3  0  0  0  0  0  0
  154.3630  213.6790  151.7770 O   0  0  0  0  0  0  0  0  0  0  0  0
  155.4530  213.8230  149.6560 C   0  0  0  0  0  2  0  0  0  0  0  0
  156.6100  214.4430  148.8850 C   0  0  0  0  0  2  0  0  0  0  0  0
  157.8490  213.5740  149.0650 C   0  0  0  0  0  2  0  0  0  0  0  0
  158.6640  213.4770  147.7820 C   0  0  1  0  0  3  0  0  0  0  0  0
  160.6090  213.7720  149.2940 C   0  0  0  0  0  2  0  0  0  0  0  0
  160.1290  213.3790  148.1120 C   0  0  0  0  0  3  0  0  0  0  0  0
  158.2550  212.3690  147.0260 O   0  0  0  0  0  0  0  0  0  0  0  0
  158.9670  212.4480  145.8210 C   0  0  0  0  0  1  0  0  0  0  0  0
  158.4370  212.7720  152.8960 C   0  0  0  0  0  0  0  0  0  0  0  0
  159.8140  213.0280  153.4620 C   0  0  0  0  0  2  0  0  0  0  0  0
  158.3680  211.5760  152.1690 O   0  0  0  0  0  1  0  0  0  0  0  0
  159.3100  213.8410  152.2720 C   0  0  0  0  0  2  0  0  0  0  0  0
  2  4  1  0  0  0  0
  3  6  1  0  0  0  0
  4  1  1  0  0  0  0
  4  6  2  0  0  0  0
  5  3  2  0  0  0  0
  7  2  2  0  0  0  0
  7  5  1  0  0  0  0
  8  2  1  0  0  0  0
  9 11  1  0  0  0  0
 10 11  2  0  0  0  0
 11  7  1  0  0  0  0
 12 13  1  1  0  0  0
 12  9  1  0  0  0  0
 14 12  1  0  0  0  0
 15 16  2  0  0  0  0
 15 14  1  0  0  0  0
 17 15  1  0  0  0  0
 18 17  1  0  0  0  0
 19 21  2  1  0  0  0
 19 20  1  0  0  0  0
 19 18  1  0  0  0  0
 22 24  1  0  0  0  0
 23 24  2  0  0  0  0
 24 19  1  0  0  0  0
 25 24  1  0  0  0  0
 26 27  1  0  0  0  0
 26  1  1  0  0  0  0
 27 31  1  6  0  0  0
 27 30  1  0  0  0  0
 30 29  1  6  0  0  0
 30 28  1  0  0  0  0
 32 31  1  1  0  0  0
 34 33  1  0  0  0  0
 34 32  1  6  0  0  0
 35 34  1  0  0  0  0
 36 38  1  6  0  0  0
 36 35  1  0  0  0  0
 36 37  1  0  0  0  0
 37 33  1  0  0  0  0
 39 40  1  0  0  0  0
 39 38  1  0  0  0  0
 41 43  1  1  0  0  0
 41 40  1  0  0  0  0
 43 42  2  0  0  0  0
 44 41  1  0  0  0  0
 45 44  1  0  0  0  0
 46 47  1  0  0  0  0
 46 32  1  0  0  0  0
 48 46  1  0  0  0  0
 49 46  1  0  0  0  0
 49 47  1  0  0  0  0
M  END
>  <MODEL>
5

>  <REMARK>
 VINA RESULT:      -3.9      2.306      3.957
  Name = 
  21 active torsions:
  status: ('A' for Active; 'I' for Inactive)
    1  A    between atoms: N_2  and  C_35
    2  A    between atoms: P_3  and  C_14
    3  A    between atoms: P_3  and  P_41
    4  A    between atoms: C_4  and  C_31
    5  A    between atoms: C_4  and  C_34
    6  A    between atoms: C_4  and  C_45
    7  A    between atoms: O_5  and  C_22
    8  A    between atoms: C_9  and  C_17
    9  A    between atoms: C_11  and  C_17
   10  A    between atoms: C_12  and  C_26
   11  A    between atoms: C_12  and  C_42
   12  A    between atoms: C_14  and  N_33
   13  A    between atoms: C_15  and  S_29
   14  A    between atoms: C_17  and  C_45
   15  A    between atoms: C_22  and  C_32
   16  A    between atoms: C_22  and  C_39
   17  A    between atoms: C_25  and  C_44
   18  A    between atoms: C_26  and  C_32
   19  A    between atoms: S_29  and  C_31
   20  A    between atoms: C_35  and  C_44
   21  A    between atoms: C_40  and  C_46
                            x       y       z     vdW  Elec       q    Type
                         _______ _______ _______ _____ _____    ______ ____

>  <TORSDO>
F 21

$$$$
=
 OpenBabel11072411443D

 49 51  0  0  1  0  0  0  0  0999 V2000
  161.4600  207.3420  154.5040 S   0  0  0  0  0  0  0  0  0  0  0  0
  161.1830  205.2350  152.7160 C   0  0  0  0  0  0  0  0  0  0  0  0
  160.8290  206.9470  150.5580 C   0  0  0  0  0  3  0  0  0  0  0  0
  161.2040  206.6310  152.8820 C   0  0  0  0  0  0  0  0  0  0  0  0
  160.8180  205.5690  150.3480 C   0  0  0  0  0  3  0  0  0  0  0  0
  161.0090  207.4450  151.8090 N   0  0  0  0  0  0  0  0  0  0  0  0
  160.9850  204.6940  151.4300 C   0  0  0  0  0  0  0  0  0  0  0  0
  161.3420  204.4260  153.8010 F   0  0  0  0  0  0  0  0  0  0  0  0
  160.7590  202.7380  149.8640 N   0  0  0  0  0  2  0  0  0  0  0  0
  160.8190  202.4460  152.1830 O   0  0  0  0  0  0  0  0  0  0  0  0
  160.8760  203.2390  151.2050 C   0  0  0  0  0  0  0  0  0  0  0  0
  160.5030  201.3430  149.5040 C   0  0  1  0  0  3  0  0  0  0  0  0
  159.0710  201.1580  149.0380 C   0  0  0  0  0  1  0  0  0  0  0  0
  161.4750  200.8450  148.4350 C   0  0  0  0  0  2  0  0  0  0  0  0
  161.0280  201.2340  147.0570 C   0  0  0  0  0  0  0  0  0  0  0  0
  160.3630  200.4230  146.3590 O   0  0  0  0  0  0  0  0  0  0  0  0
  161.2670  202.5500  146.5600 N   0  0  0  0  0  2  0  0  0  0  0  0
  161.8590  203.5940  147.3810 C   0  0  0  0  0  2  0  0  0  0  0  0
  162.3800  204.9890  146.3370 P   0  0  1  0  0  0  0  0  0  0  0  0
  162.4390  206.2450  147.1790 O   0  0  0  0  0  1  0  0  0  0  0  0
  163.9090  204.6770  145.6790 O   0  0  0  0  0  0  0  0  0  0  0  0
  160.1900  203.8250  144.4280 O   0  0  0  0  0  1  0  0  0  0  0  0
  161.7210  205.7470  143.5260 O   0  0  0  0  0  0  0  0  0  0  0  0
  160.9920  205.2800  144.7650 P   0  0  0  0  0  0  0  0  0  0  0  0
  159.8610  206.4560  145.2270 O   0  0  0  0  0  1  0  0  0  0  0  0
  160.3700  208.7570  154.1540 C   0  0  0  0  0  2  0  0  0  0  0  0
  160.2520  209.7140  155.3450 C   0  0  2  0  0  3  0  0  0  0  0  0
  159.8030  207.7040  156.6210 O   0  0  0  0  0  1  0  0  0  0  0  0
  161.7290  208.9790  157.2610 C   0  0  0  0  0  1  0  0  0  0  0  0
  160.3200  209.0000  156.6900 C   0  0  1  0  0  3  0  0  0  0  0  0
  158.9280  210.4620  155.2750 C   0  0  0  0  0  2  0  0  0  0  0  0
  159.1090  211.9670  155.4700 C   0  0  1  0  0  3  0  0  0  0  0  0
  158.1160  212.0800  153.1610 C   0  0  0  0  0  2  0  0  0  0  0  0
  159.1570  212.6330  154.0860 C   0  0  2  0  0  3  0  0  0  0  0  0
  160.3870  212.4240  153.4700 O   0  0  0  0  0  0  0  0  0  0  0  0
  160.0630  212.3000  152.1130 C   0  0  2  0  0  3  0  0  0  0  0  0
  158.7620  211.7820  151.9610 O   0  0  0  0  0  0  0  0  0  0  0  0
  161.0520  211.3800  151.4160 C   0  0  0  0  0  2  0  0  0  0  0  0
  161.0640  211.6070  149.9110 C   0  0  0  0  0  2  0  0  0  0  0  0
  160.7800  213.0780  149.6280 C   0  0  0  0  0  2  0  0  0  0  0  0
  160.2290  213.2880  148.2250 C   0  0  1  0  0  3  0  0  0  0  0  0
  157.8990  213.8490  148.8690 C   0  0  0  0  0  2  0  0  0  0  0  0
  159.0390  214.2090  148.2750 C   0  0  0  0  0  3  0  0  0  0  0  0
  161.2210  213.8130  147.3830 O   0  0  0  0  0  0  0  0  0  0  0  0
  162.1560  214.4220  148.2320 C   0  0  0  0  0  1  0  0  0  0  0  0
  158.0470  212.5950  156.4030 C   0  0  0  0  0  0  0  0  0  0  0  0
  157.3390  213.8320  155.9010 C   0  0  0  0  0  2  0  0  0  0  0  0
  157.1980  211.7410  157.1190 O   0  0  0  0  0  1  0  0  0  0  0  0
  158.3150  213.9270  157.0720 C   0  0  0  0  0  2  0  0  0  0  0  0
  2  4  1  0  0  0  0
  2  8  1  0  0  0  0
  3  6  1  0  0  0  0
  4  1  1  0  0  0  0
  5  3  2  0  0  0  0
  5  7  1  0  0  0  0
  6  4  2  0  0  0  0
  7  2  2  0  0  0  0
  9 11  1  0  0  0  0
 11  7  1  0  0  0  0
 11 10  2  0  0  0  0
 12 13  1  6  0  0  0
 12  9  1  0  0  0  0
 14 12  1  0  0  0  0
 15 14  1  0  0  0  0
 16 15  2  0  0  0  0
 17 15  1  0  0  0  0
 17 18  1  0  0  0  0
 19 21  2  6  0  0  0
 19 20  1  0  0  0  0
 19 18  1  0  0  0  0
 22 24  1  0  0  0  0
 23 24  2  0  0  0  0
 24 25  1  0  0  0  0
 24 19  1  0  0  0  0
 26  1  1  0  0  0  0
 27 26  1  6  0  0  0
 27 30  1  0  0  0  0
 28 30  1  0  0  0  0
 30 29  1  6  0  0  0
 31 27  1  0  0  0  0
 32 31  1  6  0  0  0
 32 46  1  0  0  0  0
 33 34  1  0  0  0  0
 34 32  1  1  0  0  0
 35 34  1  0  0  0  0
 36 38  1  6  0  0  0
 36 35  1  0  0  0  0
 37 36  1  0  0  0  0
 37 33  1  0  0  0  0
 39 38  1  0  0  0  0
 40 39  1  0  0  0  0
 41 43  1  1  0  0  0
 41 40  1  0  0  0  0
 43 42  2  0  0  0  0
 44 41  1  0  0  0  0
 44 45  1  0  0  0  0
 46 49  1  0  0  0  0
 46 48  1  0  0  0  0
 47 46  1  0  0  0  0
 47 49  1  0  0  0  0
M  END
>  <MODEL>
6

>  <REMARK>
 VINA RESULT:      -3.6      2.423      3.959
  Name = 
  21 active torsions:
  status: ('A' for Active; 'I' for Inactive)
    1  A    between atoms: N_2  and  C_35
    2  A    between atoms: P_3  and  C_14
    3  A    between atoms: P_3  and  P_41
    4  A    between atoms: C_4  and  C_31
    5  A    between atoms: C_4  and  C_34
    6  A    between atoms: C_4  and  C_45
    7  A    between atoms: O_5  and  C_22
    8  A    between atoms: C_9  and  C_17
    9  A    between atoms: C_11  and  C_17
   10  A    between atoms: C_12  and  C_26
   11  A    between atoms: C_12  and  C_42
   12  A    between atoms: C_14  and  N_33
   13  A    between atoms: C_15  and  S_29
   14  A    between atoms: C_17  and  C_45
   15  A    between atoms: C_22  and  C_32
   16  A    between atoms: C_22  and  C_39
   17  A    between atoms: C_25  and  C_44
   18  A    between atoms: C_26  and  C_32
   19  A    between atoms: S_29  and  C_31
   20  A    between atoms: C_35  and  C_44
   21  A    between atoms: C_40  and  C_46
                            x       y       z     vdW  Elec       q    Type
                         _______ _______ _______ _____ _____    ______ ____

>  <TORSDO>
F 21

$$$$
=
 OpenBabel11072411443D

 49 51  0  0  1  0  0  0  0  0999 V2000
  160.6510  211.2440  156.1930 S   0  0  0  0  0  0  0  0  0  0  0  0
  160.9590  209.1200  154.4310 C   0  0  0  0  0  0  0  0  0  0  0  0
  160.4880  207.2380  156.4200 C   0  0  0  0  0  3  0  0  0  0  0  0
  160.6920  209.5090  155.7560 C   0  0  0  0  0  0  0  0  0  0  0  0
  160.7320  206.8100  155.1160 C   0  0  0  0  0  3  0  0  0  0  0  0
  160.4830  208.5650  156.7120 N   0  0  0  0  0  0  0  0  0  0  0  0
  160.9820  207.7490  154.1050 C   0  0  0  0  0  0  0  0  0  0  0  0
  161.2030  210.0700  153.4860 F   0  0  0  0  0  0  0  0  0  0  0  0
  161.0100  205.9280  152.3680 N   0  0  0  0  0  2  0  0  0  0  0  0
  161.9650  208.0240  151.9600 O   0  0  0  0  0  0  0  0  0  0  0  0
  161.3310  207.2750  152.7510 C   0  0  0  0  0  0  0  0  0  0  0  0
  161.4210  205.2870  151.1200 C   0  0  1  0  0  3  0  0  0  0  0  0
  161.1980  203.7860  151.1830 C   0  0  0  0  0  1  0  0  0  0  0  0
  160.6940  205.8770  149.9120 C   0  0  0  0  0  2  0  0  0  0  0  0
  161.6340  206.6160  149.0070 C   0  0  0  0  0  0  0  0  0  0  0  0
  162.5440  207.3360  149.4970 O   0  0  0  0  0  0  0  0  0  0  0  0
  161.5710  206.4380  147.5920 N   0  0  0  0  0  2  0  0  0  0  0  0
  160.6730  205.4790  146.9700 C   0  0  0  0  0  2  0  0  0  0  0  0
  161.6080  204.0280  146.3980 P   0  0  1  0  0  0  0  0  0  0  0  0
  161.4290  203.8800  144.9020 O   0  0  0  0  0  0  0  0  0  0  0  0
  163.2520  204.2240  146.7540 O   0  0  0  0  0  1  0  0  0  0  0  0
  159.6330  201.6010  146.4430 O   0  0  0  0  0  0  0  0  0  0  0  0
  160.3820  202.6270  148.7310 O   0  0  0  0  0  1  0  0  0  0  0  0
  160.8930  202.2780  147.3520 P   0  0  0  0  0  0  0  0  0  0  0  0
  162.1580  201.1580  147.4900 O   0  0  0  0  0  1  0  0  0  0  0  0
  159.2700  211.5890  155.0580 C   0  0  0  0  0  2  0  0  0  0  0  0
  158.5290  212.8830  155.4150 C   0  0  2  0  0  3  0  0  0  0  0  0
  156.2420  213.6830  155.4830 O   0  0  0  0  0  1  0  0  0  0  0  0
  156.5500  211.3090  155.3570 C   0  0  0  0  0  1  0  0  0  0  0  0
  157.0910  212.6390  155.8590 C   0  0  1  0  0  3  0  0  0  0  0  0
  158.4980  213.8070  154.2060 C   0  0  0  0  0  2  0  0  0  0  0  0
  157.8870  213.1260  152.9810 C   0  0  1  0  0  3  0  0  0  0  0  0
  155.5470  213.7660  152.3140 C   0  0  0  0  0  2  0  0  0  0  0  0
  156.9950  214.1460  152.2550 C   0  0  2  0  0  3  0  0  0  0  0  0
  157.3270  214.2340  150.9070 O   0  0  0  0  0  0  0  0  0  0  0  0
  156.0970  214.4530  150.2740 C   0  0  2  0  0  3  0  0  0  0  0  0
  155.0490  213.8710  151.0150 O   0  0  0  0  0  0  0  0  0  0  0  0
  156.1100  213.8590  148.8750 C   0  0  0  0  0  2  0  0  0  0  0  0
  157.3820  214.2250  148.1230 C   0  0  0  0  0  2  0  0  0  0  0  0
  157.8460  213.0200  147.3140 C   0  0  0  0  0  2  0  0  0  0  0  0
  159.1630  213.2890  146.6000 C   0  0  1  0  0  3  0  0  0  0  0  0
  161.3360  213.5430  147.7720 C   0  0  0  0  0  2  0  0  0  0  0  0
  160.3090  212.7650  147.4240 C   0  0  0  0  0  3  0  0  0  0  0  0
  159.1610  212.6970  145.3290 O   0  0  0  0  0  0  0  0  0  0  0  0
  160.4590  212.2030  145.1360 C   0  0  0  0  0  1  0  0  0  0  0  0
  158.9410  212.4800  152.0510 C   0  0  0  0  0  0  0  0  0  0  0  0
  160.3900  212.8070  152.3250 C   0  0  0  0  0  2  0  0  0  0  0  0
  158.7540  211.1490  151.6530 O   0  0  0  0  0  1  0  0  0  0  0  0
  159.7090  213.3340  151.0630 C   0  0  0  0  0  2  0  0  0  0  0  0
  2  4  1  0  0  0  0
  3  6  1  0  0  0  0
  4  1  1  0  0  0  0
  4  6  2  0  0  0  0
  5  3  2  0  0  0  0
  7  2  2  0  0  0  0
  7  5  1  0  0  0  0
  8  2  1  0  0  0  0
  9 11  1  0  0  0  0
 10 11  2  0  0  0  0
 11  7  1  0  0  0  0
 12 13  1  1  0  0  0
 12  9  1  0  0  0  0
 14 12  1  0  0  0  0
 15 16  2  0  0  0  0
 15 14  1  0  0  0  0
 17 15  1  0  0  0  0
 18 17  1  0  0  0  0
 19 20  2  6  0  0  0
 19 21  1  0  0  0  0
 19 18  1  0  0  0  0
 19 24  1  0  0  0  0
 22 24  2  0  0  0  0
 24 25  1  0  0  0  0
 24 23  1  0  0  0  0
 26 27  1  0  0  0  0
 26  1  1  0  0  0  0
 27 31  1  6  0  0  0
 27 30  1  0  0  0  0
 28 30  1  0  0  0  0
 30 29  1  6  0  0  0
 32 31  1  1  0  0  0
 34 33  1  0  0  0  0
 34 32  1  6  0  0  0
 35 34  1  0  0  0  0
 36 38  1  6  0  0  0
 36 35  1  0  0  0  0
 36 37  1  0  0  0  0
 37 33  1  0  0  0  0
 39 38  1  0  0  0  0
 40 39  1  0  0  0  0
 41 40  1  1  0  0  0
 41 43  1  0  0  0  0
 43 42  2  0  0  0  0
 44 41  1  0  0  0  0
 45 44  1  0  0  0  0
 46 47  1  0  0  0  0
 46 32  1  0  0  0  0
 48 46  1  0  0  0  0
 49 46  1  0  0  0  0
 49 47  1  0  0  0  0
M  END
>  <MODEL>
7

>  <REMARK>
 VINA RESULT:      -3.5      1.898      3.430
  Name = 
  21 active torsions:
  status: ('A' for Active; 'I' for Inactive)
    1  A    between atoms: N_2  and  C_35
    2  A    between atoms: P_3  and  C_14
    3  A    between atoms: P_3  and  P_41
    4  A    between atoms: C_4  and  C_31
    5  A    between atoms: C_4  and  C_34
    6  A    between atoms: C_4  and  C_45
    7  A    between atoms: O_5  and  C_22
    8  A    between atoms: C_9  and  C_17
    9  A    between atoms: C_11  and  C_17
   10  A    between atoms: C_12  and  C_26
   11  A    between atoms: C_12  and  C_42
   12  A    between atoms: C_14  and  N_33
   13  A    between atoms: C_15  and  S_29
   14  A    between atoms: C_17  and  C_45
   15  A    between atoms: C_22  and  C_32
   16  A    between atoms: C_22  and  C_39
   17  A    between atoms: C_25  and  C_44
   18  A    between atoms: C_26  and  C_32
   19  A    between atoms: S_29  and  C_31
   20  A    between atoms: C_35  and  C_44
   21  A    between atoms: C_40  and  C_46
                            x       y       z     vdW  Elec       q    Type
                         _______ _______ _______ _____ _____    ______ ____

>  <TORSDO>
F 21

$$$$
=
 OpenBabel11072411443D

 49 51  0  0  1  0  0  0  0  0999 V2000
  161.5430  200.6480  149.9730 S   0  0  0  0  0  0  0  0  0  0  0  0
  161.4930  203.0590  151.3510 C   0  0  0  0  0  0  0  0  0  0  0  0
  158.9090  203.6310  150.5110 C   0  0  0  0  0  3  0  0  0  0  0  0
  160.7850  202.1750  150.5180 C   0  0  0  0  0  0  0  0  0  0  0  0
  159.5690  204.5260  151.3510 C   0  0  0  0  0  3  0  0  0  0  0  0
  159.5270  202.4910  150.1070 N   0  0  0  0  0  0  0  0  0  0  0  0
  160.8780  204.2540  151.7740 C   0  0  0  0  0  0  0  0  0  0  0  0
  162.7660  202.7540  151.7290 F   0  0  0  0  0  0  0  0  0  0  0  0
  160.8870  205.9860  153.5990 N   0  0  0  0  0  2  0  0  0  0  0  0
  162.8060  205.5190  152.3460 O   0  0  0  0  0  0  0  0  0  0  0  0
  161.5960  205.2570  152.5850 C   0  0  0  0  0  0  0  0  0  0  0  0
  161.4330  207.0990  154.3750 C   0  0  1  0  0  3  0  0  0  0  0  0
  161.5360  208.3530  153.5250 C   0  0  0  0  0  1  0  0  0  0  0  0
  160.6040  207.3780  155.6280 C   0  0  0  0  0  2  0  0  0  0  0  0
  161.1300  208.5600  156.3880 C   0  0  0  0  0  0  0  0  0  0  0  0
  162.2830  208.5200  156.8940 O   0  0  0  0  0  0  0  0  0  0  0  0
  160.3750  209.7680  156.4640 N   0  0  0  0  0  2  0  0  0  0  0  0
  159.1240  209.9490  155.7460 C   0  0  0  0  0  2  0  0  0  0  0  0
  159.1910  211.4680  154.7480 P   0  0  1  0  0  0  0  0  0  0  0  0
  160.4250  212.2590  155.1300 O   0  0  0  0  0  1  0  0  0  0  0  0
  159.2590  211.0750  153.1030 O   0  0  0  0  0  0  0  0  0  0  0  0
  156.9360  213.3450  153.6620 O   0  0  0  0  0  0  0  0  0  0  0  0
  157.8170  213.7510  156.0930 O   0  0  0  0  0  1  0  0  0  0  0  0
  157.4750  212.6530  155.1120 P   0  0  0  0  0  0  0  0  0  0  0  0
  156.2500  211.6800  155.7650 O   0  0  0  0  0  1  0  0  0  0  0  0
  162.2920  201.4370  148.5130 C   0  0  0  0  0  2  0  0  0  0  0  0
  161.2740  202.2370  147.6930 C   0  0  2  0  0  3  0  0  0  0  0  0
  160.6050  202.0500  145.3710 O   0  0  0  0  0  1  0  0  0  0  0  0
  161.2070  200.0150  146.4870 C   0  0  0  0  0  1  0  0  0  0  0  0
  160.5980  201.4040  146.6100 C   0  0  1  0  0  3  0  0  0  0  0  0
  161.9680  203.4120  147.0190 C   0  0  0  0  0  2  0  0  0  0  0  0
  161.1340  204.6910  147.1000 C   0  0  1  0  0  3  0  0  0  0  0  0
  160.4190  206.1800  148.9980 C   0  0  0  0  0  2  0  0  0  0  0  0
  161.5710  205.4760  148.3480 C   0  0  2  0  0  3  0  0  0  0  0  0
  162.5030  206.4560  148.0240 O   0  0  0  0  0  0  0  0  0  0  0  0
  162.1970  207.5080  148.8960 C   0  0  2  0  0  3  0  0  0  0  0  0
  160.8270  207.4940  149.2270 O   0  0  0  0  0  0  0  0  0  0  0  0
  162.5430  208.8430  148.2560 C   0  0  0  0  0  2  0  0  0  0  0  0
  161.9590  210.0090  149.0420 C   0  0  0  0  0  2  0  0  0  0  0  0
  162.6080  211.3030  148.5660 C   0  0  0  0  0  2  0  0  0  0  0  0
  161.5740  212.3850  148.2850 C   0  0  1  0  0  3  0  0  0  0  0  0
  160.4280  212.7920  146.1220 C   0  0  0  0  0  2  0  0  0  0  0  0
  160.6950  211.9670  147.1370 C   0  0  0  0  0  3  0  0  0  0  0  0
  160.8030  212.6330  149.4300 O   0  0  0  0  0  0  0  0  0  0  0  0
  160.3250  213.9440  149.2890 C   0  0  0  0  0  1  0  0  0  0  0  0
  161.1880  205.5390  145.8080 C   0  0  0  0  0  0  0  0  0  0  0  0
  161.2010  204.7890  144.4960 C   0  0  0  0  0  2  0  0  0  0  0  0
  160.4290  206.7160  145.7490 O   0  0  0  0  0  1  0  0  0  0  0  0
  162.4410  205.5510  144.9580 C   0  0  0  0  0  2  0  0  0  0  0  0
  1  4  1  0  0  0  0
  2  8  1  0  0  0  0
  2  7  1  0  0  0  0
  3  5  1  0  0  0  0
  4  2  2  0  0  0  0
  5  7  2  0  0  0  0
  6  3  2  0  0  0  0
  6  4  1  0  0  0  0
  7 11  1  0  0  0  0
  9 12  1  0  0  0  0
 10 11  2  0  0  0  0
 11  9  1  0  0  0  0
 12 13  1  6  0  0  0
 12 14  1  0  0  0  0
 14 15  1  0  0  0  0
 15 17  1  0  0  0  0
 15 16  2  0  0  0  0
 18 17  1  0  0  0  0
 19 21  2  6  0  0  0
 19 24  1  0  0  0  0
 19 20  1  0  0  0  0
 19 18  1  0  0  0  0
 22 24  2  0  0  0  0
 24 25  1  0  0  0  0
 24 23  1  0  0  0  0
 26  1  1  0  0  0  0
 27 31  1  6  0  0  0
 27 26  1  0  0  0  0
 28 30  1  0  0  0  0
 30 29  1  6  0  0  0
 30 27  1  0  0  0  0
 32 31  1  6  0  0  0
 33 37  1  0  0  0  0
 34 32  1  6  0  0  0
 34 33  1  0  0  0  0
 35 34  1  0  0  0  0
 35 36  1  0  0  0  0
 36 38  1  6  0  0  0
 36 37  1  0  0  0  0
 38 39  1  0  0  0  0
 40 39  1  0  0  0  0
 41 43  1  6  0  0  0
 41 40  1  0  0  0  0
 41 44  1  0  0  0  0
 42 43  2  0  0  0  0
 45 44  1  0  0  0  0
 46 32  1  0  0  0  0
 47 49  1  0  0  0  0
 47 46  1  0  0  0  0
 48 46  1  0  0  0  0
 49 46  1  0  0  0  0
M  END
>  <MODEL>
8

>  <REMARK>
 VINA RESULT:      -3.0      4.052     10.086
  Name = 
  21 active torsions:
  status: ('A' for Active; 'I' for Inactive)
    1  A    between atoms: N_2  and  C_35
    2  A    between atoms: P_3  and  C_14
    3  A    between atoms: P_3  and  P_41
    4  A    between atoms: C_4  and  C_31
    5  A    between atoms: C_4  and  C_34
    6  A    between atoms: C_4  and  C_45
    7  A    between atoms: O_5  and  C_22
    8  A    between atoms: C_9  and  C_17
    9  A    between atoms: C_11  and  C_17
   10  A    between atoms: C_12  and  C_26
   11  A    between atoms: C_12  and  C_42
   12  A    between atoms: C_14  and  N_33
   13  A    between atoms: C_15  and  S_29
   14  A    between atoms: C_17  and  C_45
   15  A    between atoms: C_22  and  C_32
   16  A    between atoms: C_22  and  C_39
   17  A    between atoms: C_25  and  C_44
   18  A    between atoms: C_26  and  C_32
   19  A    between atoms: S_29  and  C_31
   20  A    between atoms: C_35  and  C_44
   21  A    between atoms: C_40  and  C_46
                            x       y       z     vdW  Elec       q    Type
                         _______ _______ _______ _____ _____    ______ ____

>  <TORSDO>
F 21

$$$$
=
 OpenBabel11072411443D

 49 51  0  0  1  0  0  0  0  0999 V2000
  162.4000  204.1790  151.1810 S   0  0  0  0  0  0  0  0  0  0  0  0
  161.7490  206.6240  152.3250 C   0  0  0  0  0  0  0  0  0  0  0  0
  160.3610  205.4220  154.4090 C   0  0  0  0  0  3  0  0  0  0  0  0
  161.6400  205.2250  152.4180 C   0  0  0  0  0  0  0  0  0  0  0  0
  160.4590  206.8120  154.3640 C   0  0  0  0  0  3  0  0  0  0  0  0
  160.9380  204.6650  153.4400 N   0  0  0  0  0  0  0  0  0  0  0  0
  161.1480  207.4310  153.3120 C   0  0  0  0  0  0  0  0  0  0  0  0
  162.4220  207.1790  151.2790 F   0  0  0  0  0  0  0  0  0  0  0  0
  161.2600  209.6810  154.4330 N   0  0  0  0  0  2  0  0  0  0  0  0
  161.0230  209.4800  152.1150 O   0  0  0  0  0  0  0  0  0  0  0  0
  161.1620  208.9050  153.2280 C   0  0  0  0  0  0  0  0  0  0  0  0
  161.1430  211.1370  154.5100 C   0  0  1  0  0  3  0  0  0  0  0  0
  160.0310  211.6400  153.6070 C   0  0  0  0  0  1  0  0  0  0  0  0
  160.9150  211.6140  155.9440 C   0  0  0  0  0  2  0  0  0  0  0  0
  159.7760  210.8860  156.5950 C   0  0  0  0  0  0  0  0  0  0  0  0
  159.9230  209.6900  156.9640 O   0  0  0  0  0  0  0  0  0  0  0  0
  158.5550  211.5620  156.8870 N   0  0  0  0  0  2  0  0  0  0  0  0
  158.3830  212.9880  156.6620 C   0  0  0  0  0  2  0  0  0  0  0  0
  156.9150  213.2850  155.6320 P   0  0  1  0  0  0  0  0  0  0  0  0
  155.8940  214.0640  156.4340 O   0  0  0  0  0  1  0  0  0  0  0  0
  157.3460  214.1710  154.2550 O   0  0  0  0  0  0  0  0  0  0  0  0
  155.3240  210.6920  156.3650 O   0  0  0  0  0  1  0  0  0  0  0  0
  157.1380  210.5390  154.4840 O   0  0  0  0  0  1  0  0  0  0  0  0
  156.0590  211.4430  155.0350 P   0  0  0  0  0  0  0  0  0  0  0  0
  154.8980  211.7270  153.8320 O   0  0  0  0  0  0  0  0  0  0  0  0
  160.9320  203.1090  151.0560 C   0  0  0  0  0  2  0  0  0  0  0  0
  160.5140  202.8550  149.6040 C   0  0  2  0  0  3  0  0  0  0  0  0
  160.8170  200.5240  150.1940 O   0  0  0  0  0  1  0  0  0  0  0  0
  158.6430  201.1650  149.4110 C   0  0  0  0  0  1  0  0  0  0  0  0
  160.1440  201.4000  149.3380 C   0  0  1  0  0  3  0  0  0  0  0  0
  161.6560  203.2280  148.6680 C   0  0  0  0  0  2  0  0  0  0  0  0
  161.2060  204.1970  147.5750 C   0  0  1  0  0  3  0  0  0  0  0  0
  159.9540  206.3560  147.2560 C   0  0  0  0  0  2  0  0  0  0  0  0
  160.6080  205.4430  148.2470 C   0  0  2  0  0  3  0  0  0  0  0  0
  161.5920  206.1900  148.8870 O   0  0  0  0  0  0  0  0  0  0  0  0
  161.1740  207.5150  148.7080 C   0  0  2  0  0  3  0  0  0  0  0  0
  160.4290  207.6420  147.5180 O   0  0  0  0  0  0  0  0  0  0  0  0
  162.3750  208.4440  148.6470 C   0  0  0  0  0  2  0  0  0  0  0  0
  161.9670  209.8640  148.2790 C   0  0  0  0  0  2  0  0  0  0  0  0
  162.3390  210.8000  149.4220 C   0  0  0  0  0  2  0  0  0  0  0  0
  161.8620  212.2240  149.1670 C   0  0  1  0  0  3  0  0  0  0  0  0
  162.7760  213.3100  147.1310 C   0  0  0  0  0  2  0  0  0  0  0  0
  161.8660  212.5080  147.6890 C   0  0  0  0  0  3  0  0  0  0  0  0
  160.5780  212.4120  149.6990 O   0  0  0  0  0  0  0  0  0  0  0  0
  159.9940  213.4310  148.9330 C   0  0  0  0  0  1  0  0  0  0  0  0
  162.3230  204.5380  146.5620 C   0  0  0  0  0  0  0  0  0  0  0  0
  161.9300  205.3610  145.3580 C   0  0  0  0  0  2  0  0  0  0  0  0
  163.5910  204.8760  147.0550 O   0  0  0  0  0  1  0  0  0  0  0  0
  162.3290  203.8960  145.1900 C   0  0  0  0  0  2  0  0  0  0  0  0
  1  4  1  0  0  0  0
  2  4  2  0  0  0  0
  2  7  1  0  0  0  0
  4  6  1  0  0  0  0
  5  3  1  0  0  0  0
  6  3  2  0  0  0  0
  7  5  2  0  0  0  0
  8  2  1  0  0  0  0
  9 12  1  0  0  0  0
 10 11  2  0  0  0  0
 11  7  1  0  0  0  0
 11  9  1  0  0  0  0
 12 13  1  6  0  0  0
 12 14  1  0  0  0  0
 14 15  1  0  0  0  0
 15 17  1  0  0  0  0
 15 16  2  0  0  0  0
 18 17  1  0  0  0  0
 19 21  2  6  0  0  0
 19 20  1  0  0  0  0
 19 18  1  0  0  0  0
 23 24  1  0  0  0  0
 24 19  1  0  0  0  0
 24 22  1  0  0  0  0
 25 24  2  0  0  0  0
 26  1  1  0  0  0  0
 27 31  1  6  0  0  0
 27 26  1  0  0  0  0
 30 29  1  1  0  0  0
 30 27  1  0  0  0  0
 30 28  1  0  0  0  0
 32 31  1  1  0  0  0
 33 37  1  0  0  0  0
 33 34  1  0  0  0  0
 34 32  1  6  0  0  0
 34 35  1  0  0  0  0
 36 38  1  6  0  0  0
 36 35  1  0  0  0  0
 37 36  1  0  0  0  0
 39 38  1  0  0  0  0
 39 40  1  0  0  0  0
 41 43  1  6  0  0  0
 41 40  1  0  0  0  0
 41 44  1  0  0  0  0
 42 43  2  0  0  0  0
 45 44  1  0  0  0  0
 46 48  1  0  0  0  0
 46 32  1  0  0  0  0
 47 46  1  0  0  0  0
 49 47  1  0  0  0  0
 49 46  1  0  0  0  0
M  END
>  <MODEL>
9

>  <REMARK>
 VINA RESULT:      -2.9      3.715     10.014
  Name = 
  21 active torsions:
  status: ('A' for Active; 'I' for Inactive)
    1  A    between atoms: N_2  and  C_35
    2  A    between atoms: P_3  and  C_14
    3  A    between atoms: P_3  and  P_41
    4  A    between atoms: C_4  and  C_31
    5  A    between atoms: C_4  and  C_34
    6  A    between atoms: C_4  and  C_45
    7  A    between atoms: O_5  and  C_22
    8  A    between atoms: C_9  and  C_17
    9  A    between atoms: C_11  and  C_17
   10  A    between atoms: C_12  and  C_26
   11  A    between atoms: C_12  and  C_42
   12  A    between atoms: C_14  and  N_33
   13  A    between atoms: C_15  and  S_29
   14  A    between atoms: C_17  and  C_45
   15  A    between atoms: C_22  and  C_32
   16  A    between atoms: C_22  and  C_39
   17  A    between atoms: C_25  and  C_44
   18  A    between atoms: C_26  and  C_32
   19  A    between atoms: S_29  and  C_31
   20  A    between atoms: C_35  and  C_44
   21  A    between atoms: C_40  and  C_46
                            x       y       z     vdW  Elec       q    Type
                         _______ _______ _______ _____ _____    ______ ____

>  <TORSDO>
F 21

$$$$
