=
 OpenBabel11072410303D

 32 34  0  0  1  0  0  0  0  0999 V2000
  161.4790  206.5690  150.5940 C   0  0  1  0  0  3  0  0  0  0  0  0
  162.1220  209.6100  151.1260 O   0  0  0  0  0  0  0  0  0  0  0  0
  161.7880  209.1970  149.4490 S   0  0  0  0  0  0  0  0  0  0  0  0
  162.0450  207.7010  152.6020 O   0  0  0  0  0  0  0  0  0  0  0  0
  162.2060  206.6240  151.7820 O   0  0  0  0  0  0  0  0  0  0  0  0
  162.6760  206.6940  148.4500 O   0  0  0  0  0  0  0  0  0  0  0  0
  160.7420  208.2490  152.6330 C   0  0  2  0  0  3  0  0  0  0  0  0
  162.1160  207.3470  149.3720 C   0  0  0  0  0  0  0  0  0  0  0  0
  160.8970  209.5880  151.8450 C   0  0  1  0  0  3  0  0  0  0  0  0
  159.6240  214.0490  151.2780 C   0  0  0  0  0  2  0  0  0  0  0  0
  159.8120  211.7730  152.3480 N   0  0  0  0  0  0  0  0  0  0  0  0
  160.8470  210.8540  152.6150 C   0  0  0  0  0  0  0  0  0  0  0  0
  157.9480  213.3730  153.0670 C   0  0  1  0  0  3  0  0  0  0  0  0
  161.6590  211.1500  153.6260 O   0  0  0  0  0  0  0  0  0  0  0  0
  160.1820  212.6220  151.3000 C   0  0  0  0  0  2  0  0  0  0  0  0
  157.1990  213.6420  150.5370 C   0  0  0  0  0  1  0  0  0  0  0  0
  158.1640  213.9300  151.6980 C   0  0  2  0  0  3  0  0  0  0  0  0
  158.8700  212.0840  153.4920 C   0  0  0  0  0  2  0  0  0  0  0  0
  157.6400  214.4440  154.2070 C   0  0  0  0  0  1  0  0  0  0  0  0
  160.7470  207.0260  156.1460 C   0  0  0  0  0  2  0  0  0  0  0  0
  160.1230  208.1700  154.0290 N   0  0  0  0  0  0  0  0  0  0  0  0
  160.5510  209.0780  155.0310 C   0  0  0  0  0  2  0  0  0  0  0  0
  160.3470  208.4780  156.4210 C   0  0  0  0  0  2  0  0  0  0  0  0
  160.3250  206.7820  154.6970 C   0  0  0  0  0  2  0  0  0  0  0  0
  161.6290  203.7970  151.1700 C   0  0  0  0  0  1  0  0  0  0  0  0
  161.2160  205.0170  150.3520 C   0  0  2  0  0  3  0  0  0  0  0  0
  160.7800  204.5130  148.9920 N   0  0  0  0  0  2  0  0  0  0  0  0
  161.8230  203.9140  147.0830 O   0  0  0  0  0  1  0  0  0  0  0  0
  161.5470  203.4860  148.3530 C   0  0  2  0  0  3  0  0  0  0  0  0
  160.6640  202.2890  148.1520 C   0  0  0  0  0  0  0  0  0  0  0  0
  160.7020  201.6650  147.0690 O   0  0  0  0  0  0  0  0  0  0  0  0
  159.7980  201.7120  149.2030 O   0  0  0  0  0  1  0  0  0  0  0  0
  1 26  1  6  0  0  0
  1  5  1  0  0  0  0
  2  9  1  0  0  0  0
  3  2  1  0  0  0  0
  4  7  1  0  0  0  0
  5  4  1  0  0  0  0
  6  8  2  0  0  0  0
  7 21  1  1  0  0  0
  8  3  1  0  0  0  0
  8  1  1  0  0  0  0
  9 12  1  1  0  0  0
  9  7  1  0  0  0  0
 10 15  1  0  0  0  0
 10 17  1  0  0  0  0
 11 12  1  0  0  0  0
 11 18  1  0  0  0  0
 12 14  2  0  0  0  0
 13 18  1  0  0  0  0
 13 19  1  1  0  0  0
 15 11  1  0  0  0  0
 17 16  1  6  0  0  0
 17 13  1  0  0  0  0
 20 23  1  0  0  0  0
 21 24  1  0  0  0  0
 21 22  1  0  0  0  0
 22 23  1  0  0  0  0
 24 20  1  0  0  0  0
 26 25  1  6  0  0  0
 27 26  1  0  0  0  0
 29 28  1  6  0  0  0
 29 27  1  0  0  0  0
 30 29  1  0  0  0  0
 30 32  1  0  0  0  0
 31 30  2  0  0  0  0
M  END
>  <MODEL>
1

>  <REMARK>
 VINA RESULT:      -6.7      0.000      0.000
  Name = 
  6 active torsions:
  status: ('A' for Active; 'I' for Inactive)
    1  A    between atoms: C_4  and  C_27
    2  A    between atoms: C_5  and  C_29
    3  A    between atoms: C_10  and  C_25
    4  A    between atoms: N_11  and  C_18
    5  A    between atoms: N_21  and  C_27
    6  A    between atoms: N_21  and  C_29
                            x       y       z     vdW  Elec       q    Type
                         _______ _______ _______ _____ _____    ______ ____

>  <TORSDO>
F 6

$$$$
=
 OpenBabel11072410303D

 32 34  0  0  1  0  0  0  0  0999 V2000
  161.5980  207.3790  150.1960 C   0  0  1  0  0  3  0  0  0  0  0  0
  161.9720  210.3350  151.2270 O   0  0  0  0  0  0  0  0  0  0  0  0
  161.6790  210.1770  149.5010 S   0  0  0  0  0  0  0  0  0  0  0  0
  162.0580  208.2110  152.3710 O   0  0  0  0  0  0  0  0  0  0  0  0
  162.3150  207.3010  151.3880 O   0  0  0  0  0  0  0  0  0  0  0  0
  162.7840  207.9570  148.1210 O   0  0  0  0  0  0  0  0  0  0  0  0
  160.7120  208.6320  152.4690 C   0  0  2  0  0  3  0  0  0  0  0  0
  162.1680  208.3990  149.1270 C   0  0  0  0  0  0  0  0  0  0  0  0
  160.7510  210.0910  151.9120 C   0  0  1  0  0  3  0  0  0  0  0  0
  159.0750  214.4510  152.0670 C   0  0  0  0  0  2  0  0  0  0  0  0
  159.4740  212.0570  152.7530 N   0  0  0  0  0  0  0  0  0  0  0  0
  160.5900  211.2050  152.8780 C   0  0  0  0  0  0  0  0  0  0  0  0
  157.4740  213.3430  153.7020 C   0  0  1  0  0  3  0  0  0  0  0  0
  161.3740  211.4030  153.9330 O   0  0  0  0  0  0  0  0  0  0  0  0
  159.7620  213.0960  151.8620 C   0  0  0  0  0  2  0  0  0  0  0  0
  156.6950  213.9530  151.2410 C   0  0  0  0  0  1  0  0  0  0  0  0
  157.6340  214.1340  152.4450 C   0  0  2  0  0  3  0  0  0  0  0  0
  158.5110  212.0900  153.9220 C   0  0  0  0  0  2  0  0  0  0  0  0
  157.0750  214.1810  154.9980 C   0  0  0  0  0  1  0  0  0  0  0  0
  160.8370  206.8910  155.7530 C   0  0  0  0  0  2  0  0  0  0  0  0
  160.1000  208.2720  153.8230 N   0  0  0  0  0  0  0  0  0  0  0  0
  160.4200  209.0560  154.9610 C   0  0  0  0  0  2  0  0  0  0  0  0
  160.2770  208.2310  156.2380 C   0  0  0  0  0  2  0  0  0  0  0  0
  160.4510  206.8280  154.2750 C   0  0  0  0  0  2  0  0  0  0  0  0
  160.8430  205.2870  148.4390 C   0  0  0  0  0  1  0  0  0  0  0  0
  161.4730  205.8720  149.6990 C   0  0  2  0  0  3  0  0  0  0  0  0
  161.6840  204.7230  150.6640 N   0  0  0  0  0  2  0  0  0  0  0  0
  160.6300  203.7560  152.4090 O   0  0  0  0  0  1  0  0  0  0  0  0
  160.5590  203.9260  151.0540 C   0  0  2  0  0  3  0  0  0  0  0  0
  160.7430  202.5430  150.5000 C   0  0  0  0  0  0  0  0  0  0  0  0
  161.4540  201.7190  151.1150 O   0  0  0  0  0  1  0  0  0  0  0  0
  160.0460  202.0310  149.3010 O   0  0  0  0  0  0  0  0  0  0  0  0
  1 26  1  6  0  0  0
  1  5  1  0  0  0  0
  2  9  1  0  0  0  0
  3  2  1  0  0  0  0
  4  7  1  0  0  0  0
  5  4  1  0  0  0  0
  6  8  2  0  0  0  0
  7 21  1  1  0  0  0
  8  3  1  0  0  0  0
  8  1  1  0  0  0  0
  9  7  1  0  0  0  0
  9 12  1  1  0  0  0
 10 17  1  0  0  0  0
 11 12  1  0  0  0  0
 11 18  1  0  0  0  0
 12 14  2  0  0  0  0
 13 18  1  0  0  0  0
 13 19  1  1  0  0  0
 15 10  1  0  0  0  0
 15 11  1  0  0  0  0
 17 16  1  6  0  0  0
 17 13  1  0  0  0  0
 20 23  1  0  0  0  0
 21 24  1  0  0  0  0
 21 22  1  0  0  0  0
 22 23  1  0  0  0  0
 24 20  1  0  0  0  0
 26 25  1  1  0  0  0
 26 27  1  0  0  0  0
 27 29  1  0  0  0  0
 29 28  1  1  0  0  0
 30 29  1  0  0  0  0
 30 31  1  0  0  0  0
 32 30  2  0  0  0  0
M  END
>  <MODEL>
2

>  <REMARK>
 VINA RESULT:      -6.4      1.199      1.674
  Name = 
  6 active torsions:
  status: ('A' for Active; 'I' for Inactive)
    1  A    between atoms: C_4  and  C_27
    2  A    between atoms: C_5  and  C_29
    3  A    between atoms: C_10  and  C_25
    4  A    between atoms: N_11  and  C_18
    5  A    between atoms: N_21  and  C_27
    6  A    between atoms: N_21  and  C_29
                            x       y       z     vdW  Elec       q    Type
                         _______ _______ _______ _____ _____    ______ ____

>  <TORSDO>
F 6

$$$$
=
 OpenBabel11072410303D

 32 34  0  0  1  0  0  0  0  0999 V2000
  161.2420  205.8520  150.2140 C   0  0  1  0  0  3  0  0  0  0  0  0
  160.8140  207.5870  152.8110 O   0  0  0  0  0  0  0  0  0  0  0  0
  161.3010  205.9220  153.0960 S   0  0  0  0  0  0  0  0  0  0  0  0
  160.5520  208.1080  150.4680 O   0  0  0  0  0  0  0  0  0  0  0  0
  160.3910  206.8970  149.8620 O   0  0  0  0  0  0  0  0  0  0  0  0
  160.3160  203.8920  151.3740 O   0  0  0  0  0  0  0  0  0  0  0  0
  161.8860  208.4570  150.7800 C   0  0  2  0  0  3  0  0  0  0  0  0
  160.8210  205.0390  151.5050 C   0  0  0  0  0  0  0  0  0  0  0  0
  161.9420  208.3080  152.3340 C   0  0  1  0  0  3  0  0  0  0  0  0
  159.1610  211.7630  153.8100 C   0  0  0  0  0  2  0  0  0  0  0  0
  160.8900  209.9280  153.9060 N   0  0  0  0  0  0  0  0  0  0  0  0
  162.0140  209.5460  153.1460 C   0  0  0  0  0  0  0  0  0  0  0  0
  159.7670  210.7410  156.0580 C   0  0  1  0  0  3  0  0  0  0  0  0
  163.1120  210.2820  153.2960 O   0  0  0  0  0  0  0  0  0  0  0  0
  160.0200  210.6940  153.1230 C   0  0  0  0  0  2  0  0  0  0  0  0
  157.3820  210.3230  154.9750 C   0  0  0  0  0  1  0  0  0  0  0  0
  158.6800  211.1350  155.1120 C   0  0  2  0  0  3  0  0  0  0  0  0
  161.0780  210.0000  155.4070 C   0  0  0  0  0  2  0  0  0  0  0  0
  160.0360  211.7530  157.2600 C   0  0  0  0  0  1  0  0  0  0  0  0
  161.5780  210.8960  147.9890 C   0  0  0  0  0  2  0  0  0  0  0  0
  162.3300  209.7230  150.0480 N   0  0  0  0  0  0  0  0  0  0  0  0
  161.6820  210.9530  150.3290 C   0  0  0  0  0  2  0  0  0  0  0  0
  161.7760  211.8960  149.1320 C   0  0  0  0  0  2  0  0  0  0  0  0
  162.2030  209.5990  148.5050 C   0  0  0  0  0  2  0  0  0  0  0  0
  161.3260  203.4800  148.6630 C   0  0  0  0  0  1  0  0  0  0  0  0
  161.3930  204.9880  148.8840 C   0  0  0  0  0  0  0  0  0  0  0  0
  162.0050  205.5930  147.6380 N   0  0  0  0  0  0  0  0  0  0  0  0
  163.3950  204.8490  146.0230 O   0  0  0  0  0  1  0  0  0  0  0  0
  162.0960  204.7960  146.4510 C   0  0  2  0  0  3  0  0  0  0  0  0
  161.3230  205.4790  145.3610 C   0  0  0  0  0  0  0  0  0  0  0  0
  161.6200  205.2680  144.1650 O   0  0  0  0  0  0  0  0  0  0  0  0
  160.1340  206.3280  145.5940 O   0  0  0  0  0  1  0  0  0  0  0  0
  1 26  1  6  0  0  0
  1  8  1  0  0  0  0
  2  3  1  0  0  0  0
  4  7  1  0  0  0  0
  5  1  1  0  0  0  0
  5  4  1  0  0  0  0
  6  8  2  0  0  0  0
  7 21  1  1  0  0  0
  7  9  1  0  0  0  0
  8  3  1  0  0  0  0
  9  2  1  0  0  0  0
  9 12  1  1  0  0  0
 10 17  1  0  0  0  0
 11 18  1  0  0  0  0
 12 14  2  0  0  0  0
 12 11  1  0  0  0  0
 13 19  1  6  0  0  0
 15 10  1  0  0  0  0
 15 11  1  0  0  0  0
 17 16  1  6  0  0  0
 17 13  1  0  0  0  0
 18 13  1  0  0  0  0
 20 24  1  0  0  0  0
 20 23  1  0  0  0  0
 21 22  1  0  0  0  0
 23 22  1  0  0  0  0
 24 21  1  0  0  0  0
 25 26  1  0  0  0  0
 27 26  2  0  0  0  0
 29 28  1  6  0  0  0
 29 27  1  0  0  0  0
 30 32  1  0  0  0  0
 30 29  1  0  0  0  0
 31 30  2  0  0  0  0
M  END
>  <MODEL>
3

>  <REMARK>
 VINA RESULT:      -6.2      2.463      4.233
  Name = 
  6 active torsions:
  status: ('A' for Active; 'I' for Inactive)
    1  A    between atoms: C_4  and  C_27
    2  A    between atoms: C_5  and  C_29
    3  A    between atoms: C_10  and  C_25
    4  A    between atoms: N_11  and  C_18
    5  A    between atoms: N_21  and  C_27
    6  A    between atoms: N_21  and  C_29
                            x       y       z     vdW  Elec       q    Type
                         _______ _______ _______ _____ _____    ______ ____

>  <TORSDO>
F 6

$$$$
=
 OpenBabel11072410303D

 32 34  0  0  1  0  0  0  0  0999 V2000
  161.4840  206.9220  150.1090 C   0  0  1  0  0  3  0  0  0  0  0  0
  162.2130  209.5700  151.6580 O   0  0  0  0  0  0  0  0  0  0  0  0
  161.6360  209.8000  150.0130 S   0  0  0  0  0  0  0  0  0  0  0  0
  162.3420  207.2450  152.2980 O   0  0  0  0  0  0  0  0  0  0  0  0
  162.3760  206.5640  151.1170 O   0  0  0  0  0  0  0  0  0  0  0  0
  162.3560  207.9030  148.0290 O   0  0  0  0  0  0  0  0  0  0  0  0
  161.0600  207.6750  152.7110 C   0  0  2  0  0  3  0  0  0  0  0  0
  161.9400  208.1330  149.1970 C   0  0  0  0  0  0  0  0  0  0  0  0
  161.1060  209.2180  152.4750 C   0  0  1  0  0  3  0  0  0  0  0  0
  159.3280  213.2530  154.0260 C   0  0  0  0  0  2  0  0  0  0  0  0
  160.0300  210.8300  154.0390 N   0  0  0  0  0  0  0  0  0  0  0  0
  161.1750  210.0990  153.6660 C   0  0  0  0  0  0  0  0  0  0  0  0
  158.3300  211.6790  155.7560 C   0  0  1  0  0  3  0  0  0  0  0  0
  162.2220  210.1750  154.4840 O   0  0  0  0  0  0  0  0  0  0  0  0
  159.9930  212.0470  153.3520 C   0  0  0  0  0  2  0  0  0  0  0  0
  156.8390  212.6640  153.7950 C   0  0  0  0  0  1  0  0  0  0  0  0
  158.0770  212.7110  154.7050 C   0  0  2  0  0  3  0  0  0  0  0  0
  159.4480  210.5300  155.4050 C   0  0  0  0  0  2  0  0  0  0  0  0
  158.2820  212.2010  157.2610 C   0  0  0  0  0  1  0  0  0  0  0  0
  161.2170  207.4930  156.4230 C   0  0  0  0  0  2  0  0  0  0  0  0
  160.6510  207.0470  154.0440 N   0  0  0  0  0  0  0  0  0  0  0  0
  159.5630  207.5980  154.7670 C   0  0  0  0  0  2  0  0  0  0  0  0
  159.7060  207.3060  156.2590 C   0  0  0  0  0  2  0  0  0  0  0  0
  161.8040  207.0440  155.0840 C   0  0  0  0  0  2  0  0  0  0  0  0
  161.1870  204.1170  149.8220 C   0  0  0  0  0  1  0  0  0  0  0  0
  161.1800  205.5630  149.3360 C   0  0  2  0  0  3  0  0  0  0  0  0
  161.1790  205.5220  147.8210 N   0  0  0  0  0  2  0  0  0  0  0  0
  163.1010  204.9060  146.8120 O   0  0  0  0  0  1  0  0  0  0  0  0
  161.8570  204.4510  147.1540 C   0  0  2  0  0  3  0  0  0  0  0  0
  161.1800  204.2090  145.8370 C   0  0  0  0  0  0  0  0  0  0  0  0
  160.8660  205.1790  145.1130 O   0  0  0  0  0  0  0  0  0  0  0  0
  160.9400  202.8670  145.2630 O   0  0  0  0  0  1  0  0  0  0  0  0
  1 26  1  6  0  0  0
  1  5  1  0  0  0  0
  2  9  1  0  0  0  0
  3  2  1  0  0  0  0
  4  7  1  0  0  0  0
  5  4  1  0  0  0  0
  6  8  2  0  0  0  0
  7 21  1  1  0  0  0
  8  3  1  0  0  0  0
  8  1  1  0  0  0  0
  9  7  1  0  0  0  0
  9 12  1  1  0  0  0
 10 17  1  0  0  0  0
 11 18  1  0  0  0  0
 12 11  1  0  0  0  0
 12 14  2  0  0  0  0
 13 19  1  1  0  0  0
 15 10  1  0  0  0  0
 15 11  1  0  0  0  0
 17 16  1  6  0  0  0
 17 13  1  0  0  0  0
 18 13  1  0  0  0  0
 21 22  1  0  0  0  0
 21 24  1  0  0  0  0
 22 23  1  0  0  0  0
 23 20  1  0  0  0  0
 24 20  1  0  0  0  0
 26 25  1  1  0  0  0
 27 26  1  0  0  0  0
 29 28  1  6  0  0  0
 29 27  1  0  0  0  0
 30 29  1  0  0  0  0
 31 30  2  0  0  0  0
 32 30  1  0  0  0  0
M  END
>  <MODEL>
4

>  <REMARK>
 VINA RESULT:      -6.0      1.772      2.122
  Name = 
  6 active torsions:
  status: ('A' for Active; 'I' for Inactive)
    1  A    between atoms: C_4  and  C_27
    2  A    between atoms: C_5  and  C_29
    3  A    between atoms: C_10  and  C_25
    4  A    between atoms: N_11  and  C_18
    5  A    between atoms: N_21  and  C_27
    6  A    between atoms: N_21  and  C_29
                            x       y       z     vdW  Elec       q    Type
                         _______ _______ _______ _____ _____    ______ ____

>  <TORSDO>
F 6

$$$$
=
 OpenBabel11072410303D

 32 34  0  0  1  0  0  0  0  0999 V2000
  159.5730  211.2450  155.0240 C   0  0  1  0  0  3  0  0  0  0  0  0
  161.5480  209.1090  153.8090 O   0  0  0  0  0  0  0  0  0  0  0  0
  160.5300  208.5270  155.1190 S   0  0  0  0  0  0  0  0  0  0  0  0
  161.1960  211.4430  153.3030 O   0  0  0  0  0  0  0  0  0  0  0  0
  160.6120  211.9540  154.4240 O   0  0  0  0  0  0  0  0  0  0  0  0
  159.9140  210.2830  157.2610 O   0  0  0  0  0  0  0  0  0  0  0  0
  160.3280  210.7390  152.4360 C   0  0  2  0  0  3  0  0  0  0  0  0
  160.0200  210.0980  156.0180 C   0  0  0  0  0  0  0  0  0  0  0  0
  160.7450  209.2480  152.6450 C   0  0  1  0  0  3  0  0  0  0  0  0
  162.5850  205.0730  151.6340 C   0  0  0  0  0  2  0  0  0  0  0  0
  161.2670  207.2010  151.3260 N   0  0  0  0  0  0  0  0  0  0  0  0
  161.4840  208.5760  151.5490 C   0  0  0  0  0  0  0  0  0  0  0  0
  160.8100  205.1850  149.8160 C   0  0  1  0  0  3  0  0  0  0  0  0
  162.2720  209.2030  150.6810 O   0  0  0  0  0  0  0  0  0  0  0  0
  162.1180  206.4440  152.1370 C   0  0  0  0  0  2  0  0  0  0  0  0
  160.4680  203.6570  151.9570 C   0  0  0  0  0  1  0  0  0  0  0  0
  161.3660  204.4330  150.9810 C   0  0  2  0  0  3  0  0  0  0  0  0
  160.7010  206.8140  149.9760 C   0  0  0  0  0  2  0  0  0  0  0  0
  161.2160  204.6280  148.3790 C   0  0  0  0  0  1  0  0  0  0  0  0
  160.0340  213.7400  150.2580 C   0  0  0  0  0  2  0  0  0  0  0  0
  160.2440  211.3960  151.0580 N   0  0  0  0  0  0  0  0  0  0  0  0
  161.4290  211.8660  150.4380 C   0  0  0  0  0  2  0  0  0  0  0  0
  161.1120  212.9980  149.4630 C   0  0  0  0  0  2  0  0  0  0  0  0
  159.3160  212.6420  151.0440 C   0  0  0  0  0  2  0  0  0  0  0  0
  158.9660  213.7180  156.2700 C   0  0  0  0  0  1  0  0  0  0  0  0
  158.6310  212.3640  155.6530 C   0  0  2  0  0  3  0  0  0  0  0  0
  157.2050  212.0370  156.0490 N   0  0  0  0  0  2  0  0  0  0  0  0
  155.5900  212.5860  154.5710 O   0  0  0  0  0  1  0  0  0  0  0  0
  156.3080  211.5270  155.0550 C   0  0  2  0  0  3  0  0  0  0  0  0
  155.2820  210.6700  155.7380 C   0  0  0  0  0  0  0  0  0  0  0  0
  154.8480  209.6470  155.1650 O   0  0  0  0  0  0  0  0  0  0  0  0
  154.8030  210.8930  157.1200 O   0  0  0  0  0  1  0  0  0  0  0  0
  1 26  1  1  0  0  0
  1  8  1  0  0  0  0
  2  3  1  0  0  0  0
  3  8  1  0  0  0  0
  4  5  1  0  0  0  0
  5  1  1  0  0  0  0
  7 21  1  6  0  0  0
  7  9  1  0  0  0  0
  7  4  1  0  0  0  0
  8  6  2  0  0  0  0
  9 12  1  6  0  0  0
  9  2  1  0  0  0  0
 10 15  1  0  0  0  0
 11 12  1  0  0  0  0
 11 15  1  0  0  0  0
 13 19  1  6  0  0  0
 13 18  1  0  0  0  0
 13 17  1  0  0  0  0
 14 12  2  0  0  0  0
 17 10  1  0  0  0  0
 17 16  1  1  0  0  0
 18 11  1  0  0  0  0
 20 24  1  0  0  0  0
 22 21  1  0  0  0  0
 23 20  1  0  0  0  0
 23 22  1  0  0  0  0
 24 21  1  0  0  0  0
 26 27  1  0  0  0  0
 26 25  1  1  0  0  0
 29 28  1  1  0  0  0
 29 30  1  0  0  0  0
 29 27  1  0  0  0  0
 30 32  1  0  0  0  0
 31 30  2  0  0  0  0
M  END
>  <MODEL>
5

>  <REMARK>
 VINA RESULT:      -5.9      3.198      8.568
  Name = 
  6 active torsions:
  status: ('A' for Active; 'I' for Inactive)
    1  A    between atoms: C_4  and  C_27
    2  A    between atoms: C_5  and  C_29
    3  A    between atoms: C_10  and  C_25
    4  A    between atoms: N_11  and  C_18
    5  A    between atoms: N_21  and  C_27
    6  A    between atoms: N_21  and  C_29
                            x       y       z     vdW  Elec       q    Type
                         _______ _______ _______ _____ _____    ______ ____

>  <TORSDO>
F 6

$$$$
=
 OpenBabel11072410303D

 32 34  0  0  1  0  0  0  0  0999 V2000
  159.3280  211.2580  155.0430 C   0  0  1  0  0  3  0  0  0  0  0  0
  161.5000  209.3390  153.8000 O   0  0  0  0  0  0  0  0  0  0  0  0
  160.5220  208.6330  155.0800 S   0  0  0  0  0  0  0  0  0  0  0  0
  160.9470  211.6460  153.3510 O   0  0  0  0  0  0  0  0  0  0  0  0
  160.3070  212.0730  154.4770 O   0  0  0  0  0  0  0  0  0  0  0  0
  159.7270  210.2690  157.2580 O   0  0  0  0  0  0  0  0  0  0  0  0
  160.1570  210.8920  152.4540 C   0  0  2  0  0  3  0  0  0  0  0  0
  159.8640  210.1280  156.0130 C   0  0  0  0  0  0  0  0  0  0  0  0
  160.7020  209.4380  152.6300 C   0  0  1  0  0  3  0  0  0  0  0  0
  162.5410  205.3450  151.3250 C   0  0  0  0  0  2  0  0  0  0  0  0
  161.2870  207.5260  151.1460 N   0  0  0  0  0  0  0  0  0  0  0  0
  161.5110  208.8640  151.5280 C   0  0  0  0  0  0  0  0  0  0  0  0
  160.9130  205.6890  149.4020 C   0  0  1  0  0  3  0  0  0  0  0  0
  162.3740  209.5570  150.7910 O   0  0  0  0  0  0  0  0  0  0  0  0
  162.0600  206.6670  151.9330 C   0  0  0  0  0  2  0  0  0  0  0  0
  160.3810  203.9570  151.3390 C   0  0  0  0  0  1  0  0  0  0  0  0
  161.3640  204.8070  150.5200 C   0  0  2  0  0  3  0  0  0  0  0  0
  160.8200  207.2950  149.7240 C   0  0  0  0  0  2  0  0  0  0  0  0
  161.4180  205.2740  147.9490 C   0  0  0  0  0  1  0  0  0  0  0  0
  159.4480  213.8740  150.3480 C   0  0  0  0  0  2  0  0  0  0  0  0
  160.0300  211.5750  151.0920 N   0  0  0  0  0  0  0  0  0  0  0  0
  161.1440  212.2710  150.5580 C   0  0  0  0  0  2  0  0  0  0  0  0
  160.6830  213.3670  149.5980 C   0  0  0  0  0  2  0  0  0  0  0  0
  158.8970  212.6370  151.0580 C   0  0  0  0  0  2  0  0  0  0  0  0
  158.4210  213.2310  156.8650 C   0  0  0  0  0  1  0  0  0  0  0  0
  158.2820  212.2710  155.6870 C   0  0  2  0  0  3  0  0  0  0  0  0
  156.8020  212.1410  155.3920 N   0  0  0  0  0  2  0  0  0  0  0  0
  157.2240  213.7230  153.8380 O   0  0  0  0  0  1  0  0  0  0  0  0
  156.2390  212.9040  154.3180 C   0  0  2  0  0  3  0  0  0  0  0  0
  155.2220  213.8480  154.8900 C   0  0  0  0  0  0  0  0  0  0  0  0
  154.4310  214.4440  154.1270 O   0  0  0  0  0  0  0  0  0  0  0  0
  155.0100  214.0600  156.3380 O   0  0  0  0  0  1  0  0  0  0  0  0
  1 26  1  1  0  0  0
  1  8  1  0  0  0  0
  2  3  1  0  0  0  0
  3  8  1  0  0  0  0
  4  5  1  0  0  0  0
  5  1  1  0  0  0  0
  7 21  1  6  0  0  0
  7  9  1  0  0  0  0
  7  4  1  0  0  0  0
  8  6  2  0  0  0  0
  9 12  1  6  0  0  0
  9  2  1  0  0  0  0
 10 15  1  0  0  0  0
 11 12  1  0  0  0  0
 11 15  1  0  0  0  0
 13 19  1  6  0  0  0
 13 18  1  0  0  0  0
 13 17  1  0  0  0  0
 14 12  2  0  0  0  0
 17 10  1  0  0  0  0
 17 16  1  1  0  0  0
 18 11  1  0  0  0  0
 20 24  1  0  0  0  0
 22 21  1  0  0  0  0
 23 20  1  0  0  0  0
 23 22  1  0  0  0  0
 24 21  1  0  0  0  0
 26 25  1  1  0  0  0
 27 26  1  0  0  0  0
 29 28  1  1  0  0  0
 29 30  1  0  0  0  0
 29 27  1  0  0  0  0
 30 32  1  0  0  0  0
 31 30  2  0  0  0  0
M  END
>  <MODEL>
6

>  <REMARK>
 VINA RESULT:      -5.8      3.320      8.879
  Name = 
  6 active torsions:
  status: ('A' for Active; 'I' for Inactive)
    1  A    between atoms: C_4  and  C_27
    2  A    between atoms: C_5  and  C_29
    3  A    between atoms: C_10  and  C_25
    4  A    between atoms: N_11  and  C_18
    5  A    between atoms: N_21  and  C_27
    6  A    between atoms: N_21  and  C_29
                            x       y       z     vdW  Elec       q    Type
                         _______ _______ _______ _____ _____    ______ ____

>  <TORSDO>
F 6

$$$$
=
 OpenBabel11072410303D

 32 34  0  0  1  0  0  0  0  0999 V2000
  161.2960  205.6490  150.6790 C   0  0  1  0  0  3  0  0  0  0  0  0
  160.8140  207.5740  153.1290 O   0  0  0  0  0  0  0  0  0  0  0  0
  161.3200  205.9430  153.5480 S   0  0  0  0  0  0  0  0  0  0  0  0
  160.5720  207.9090  150.7500 O   0  0  0  0  0  0  0  0  0  0  0  0
  160.4350  206.6520  150.2380 O   0  0  0  0  0  0  0  0  0  0  0  0
  160.3820  203.7720  151.9780 O   0  0  0  0  0  0  0  0  0  0  0  0
  161.8970  208.2990  151.0480 C   0  0  2  0  0  3  0  0  0  0  0  0
  160.8710  204.9340  152.0250 C   0  0  0  0  0  0  0  0  0  0  0  0
  161.9370  208.2720  152.6100 C   0  0  1  0  0  3  0  0  0  0  0  0
  159.0970  211.8000  153.7660 C   0  0  0  0  0  2  0  0  0  0  0  0
  160.8420  209.9980  154.0330 N   0  0  0  0  0  0  0  0  0  0  0  0
  161.9830  209.5710  153.3240 C   0  0  0  0  0  0  0  0  0  0  0  0
  159.6740  210.9630  156.0970 C   0  0  1  0  0  3  0  0  0  0  0  0
  163.0700  210.3280  153.4340 O   0  0  0  0  0  0  0  0  0  0  0  0
  159.9780  210.6910  153.1790 C   0  0  0  0  0  2  0  0  0  0  0  0
  157.3130  210.4350  155.0100 C   0  0  0  0  0  1  0  0  0  0  0  0
  158.6000  211.2690  155.1050 C   0  0  2  0  0  3  0  0  0  0  0  0
  161.0040  210.1890  155.5270 C   0  0  0  0  0  2  0  0  0  0  0  0
  159.9120  212.0690  157.2200 C   0  0  0  0  0  1  0  0  0  0  0  0
  161.5820  210.5180  148.0800 C   0  0  0  0  0  2  0  0  0  0  0  0
  162.3330  209.5120  150.2250 N   0  0  0  0  0  0  0  0  0  0  0  0
  161.6710  210.7520  150.4090 C   0  0  0  0  0  2  0  0  0  0  0  0
  161.7630  211.6030  149.1440 C   0  0  0  0  0  2  0  0  0  0  0  0
  162.2160  209.2700  148.6950 C   0  0  0  0  0  2  0  0  0  0  0  0
  161.4040  204.9790  147.9260 C   0  0  0  0  0  1  0  0  0  0  0  0
  161.4740  204.6880  149.4220 C   0  0  2  0  0  3  0  0  0  0  0  0
  161.3920  203.1840  149.5860 N   0  0  0  0  0  2  0  0  0  0  0  0
  159.7950  201.5990  149.7610 O   0  0  0  0  0  1  0  0  0  0  0  0
  160.3800  202.4610  148.8750 C   0  0  2  0  0  3  0  0  0  0  0  0
  161.0520  201.5620  147.8770 C   0  0  0  0  0  0  0  0  0  0  0  0
  161.5810  200.4970  148.2610 O   0  0  0  0  0  1  0  0  0  0  0  0
  161.0480  201.7960  146.4170 O   0  0  0  0  0  0  0  0  0  0  0  0
  1 26  1  6  0  0  0
  1  8  1  0  0  0  0
  2  3  1  0  0  0  0
  4  7  1  0  0  0  0
  5  1  1  0  0  0  0
  5  4  1  0  0  0  0
  6  8  2  0  0  0  0
  7 21  1  1  0  0  0
  7  9  1  0  0  0  0
  8  3  1  0  0  0  0
  9  2  1  0  0  0  0
  9 12  1  1  0  0  0
 10 17  1  0  0  0  0
 11 18  1  0  0  0  0
 12 14  2  0  0  0  0
 12 11  1  0  0  0  0
 13 19  1  6  0  0  0
 15 10  1  0  0  0  0
 15 11  1  0  0  0  0
 17 16  1  6  0  0  0
 17 13  1  0  0  0  0
 18 13  1  0  0  0  0
 20 24  1  0  0  0  0
 20 23  1  0  0  0  0
 21 22  1  0  0  0  0
 23 22  1  0  0  0  0
 24 21  1  0  0  0  0
 26 25  1  6  0  0  0
 26 27  1  0  0  0  0
 29 27  1  0  0  0  0
 29 28  1  1  0  0  0
 30 31  1  0  0  0  0
 30 29  1  0  0  0  0
 32 30  2  0  0  0  0
M  END
>  <MODEL>
7

>  <REMARK>
 VINA RESULT:      -5.7      2.314      4.001
  Name = 
  6 active torsions:
  status: ('A' for Active; 'I' for Inactive)
    1  A    between atoms: C_4  and  C_27
    2  A    between atoms: C_5  and  C_29
    3  A    between atoms: C_10  and  C_25
    4  A    between atoms: N_11  and  C_18
    5  A    between atoms: N_21  and  C_27
    6  A    between atoms: N_21  and  C_29
                            x       y       z     vdW  Elec       q    Type
                         _______ _______ _______ _____ _____    ______ ____

>  <TORSDO>
F 6

$$$$
=
 OpenBabel11072410303D

 32 34  0  0  1  0  0  0  0  0999 V2000
  161.5320  207.0140  149.7000 C   0  0  1  0  0  3  0  0  0  0  0  0
  162.1320  209.9060  150.8030 O   0  0  0  0  0  0  0  0  0  0  0  0
  161.7750  209.8210  149.0840 S   0  0  0  0  0  0  0  0  0  0  0  0
  162.1150  207.7460  151.8810 O   0  0  0  0  0  0  0  0  0  0  0  0
  162.2800  206.8520  150.8650 O   0  0  0  0  0  0  0  0  0  0  0  0
  162.6880  207.5780  147.6040 O   0  0  0  0  0  0  0  0  0  0  0  0
  160.8040  208.2500  152.0370 C   0  0  2  0  0  3  0  0  0  0  0  0
  162.1340  208.0270  148.6430 C   0  0  0  0  0  0  0  0  0  0  0  0
  160.9210  209.7200  151.5220 C   0  0  1  0  0  3  0  0  0  0  0  0
  159.4400  214.1380  151.8910 C   0  0  0  0  0  2  0  0  0  0  0  0
  159.7790  211.7110  152.4890 N   0  0  0  0  0  0  0  0  0  0  0  0
  160.8640  210.8120  152.5240 C   0  0  0  0  0  0  0  0  0  0  0  0
  157.8950  213.0480  153.5920 C   0  0  1  0  0  3  0  0  0  0  0  0
  161.7170  210.9480  153.5350 O   0  0  0  0  0  0  0  0  0  0  0  0
  160.0560  212.7620  151.6100 C   0  0  0  0  0  2  0  0  0  0  0  0
  156.9970  213.7590  151.1990 C   0  0  0  0  0  1  0  0  0  0  0  0
  158.0120  213.8670  152.3480 C   0  0  2  0  0  3  0  0  0  0  0  0
  158.8900  211.7500  153.7150 C   0  0  0  0  0  2  0  0  0  0  0  0
  157.6090  213.8650  154.9300 C   0  0  0  0  0  1  0  0  0  0  0  0
  161.1280  206.8910  155.4840 C   0  0  0  0  0  2  0  0  0  0  0  0
  160.2120  207.8890  153.4000 N   0  0  0  0  0  0  0  0  0  0  0  0
  160.2900  208.8260  154.4620 C   0  0  0  0  0  2  0  0  0  0  0  0
  160.2620  208.1110  155.8110 C   0  0  0  0  0  2  0  0  0  0  0  0
  160.8460  206.6080  154.0080 C   0  0  0  0  0  2  0  0  0  0  0  0
  161.3330  204.9670  147.7490 C   0  0  0  0  0  1  0  0  0  0  0  0
  161.2920  205.5340  149.1650 C   0  0  2  0  0  3  0  0  0  0  0  0
  160.6080  204.5010  150.0360 N   0  0  0  0  0  2  0  0  0  0  0  0
  160.2480  202.3300  149.5340 O   0  0  0  0  0  1  0  0  0  0  0  0
  161.1550  203.1790  150.1080 C   0  0  2  0  0  3  0  0  0  0  0  0
  161.1910  202.7580  151.5480 C   0  0  0  0  0  0  0  0  0  0  0  0
  161.6700  201.6450  151.8560 O   0  0  0  0  0  0  0  0  0  0  0  0
  160.7850  203.6250  152.6750 O   0  0  0  0  0  1  0  0  0  0  0  0
  1 26  1  6  0  0  0
  1  5  1  0  0  0  0
  2  9  1  0  0  0  0
  3  2  1  0  0  0  0
  4  7  1  0  0  0  0
  5  4  1  0  0  0  0
  6  8  2  0  0  0  0
  7 21  1  1  0  0  0
  8  3  1  0  0  0  0
  8  1  1  0  0  0  0
  9  7  1  0  0  0  0
  9 12  1  1  0  0  0
 10 17  1  0  0  0  0
 11 12  1  0  0  0  0
 11 18  1  0  0  0  0
 12 14  2  0  0  0  0
 13 18  1  0  0  0  0
 13 19  1  1  0  0  0
 15 10  1  0  0  0  0
 15 11  1  0  0  0  0
 17 16  1  6  0  0  0
 17 13  1  0  0  0  0
 20 23  1  0  0  0  0
 21 24  1  0  0  0  0
 21 22  1  0  0  0  0
 22 23  1  0  0  0  0
 24 20  1  0  0  0  0
 26 25  1  6  0  0  0
 26 27  1  0  0  0  0
 27 29  1  0  0  0  0
 29 28  1  6  0  0  0
 29 30  1  0  0  0  0
 30 31  2  0  0  0  0
 30 32  1  0  0  0  0
M  END
>  <MODEL>
8

>  <REMARK>
 VINA RESULT:      -5.7      1.160      1.721
  Name = 
  6 active torsions:
  status: ('A' for Active; 'I' for Inactive)
    1  A    between atoms: C_4  and  C_27
    2  A    between atoms: C_5  and  C_29
    3  A    between atoms: C_10  and  C_25
    4  A    between atoms: N_11  and  C_18
    5  A    between atoms: N_21  and  C_27
    6  A    between atoms: N_21  and  C_29
                            x       y       z     vdW  Elec       q    Type
                         _______ _______ _______ _____ _____    ______ ____

>  <TORSDO>
F 6

$$$$
=
 OpenBabel11072410303D

 32 34  0  0  1  0  0  0  0  0999 V2000
  158.7240  212.1620  154.5010 C   0  0  1  0  0  3  0  0  0  0  0  0
  160.0030  210.9260  151.8970 O   0  0  0  0  0  0  0  0  0  0  0  0
  159.4160  212.5750  151.7320 S   0  0  0  0  0  0  0  0  0  0  0  0
  159.6300  210.0050  154.0980 O   0  0  0  0  0  0  0  0  0  0  0  0
  158.6400  210.7770  154.6310 O   0  0  0  0  0  0  0  0  0  0  0  0
  157.0620  213.3380  153.1220 O   0  0  0  0  0  0  0  0  0  0  0  0
  160.9260  210.5670  154.1440 C   0  0  2  0  0  3  0  0  0  0  0  0
  158.1770  212.7490  153.1360 C   0  0  0  0  0  0  0  0  0  0  0  0
  161.2040  210.9520  152.6560 C   0  0  1  0  0  3  0  0  0  0  0  0
  161.9030  206.5160  151.3630 C   0  0  0  0  0  2  0  0  0  0  0  0
  161.7290  209.0250  151.1690 N   0  0  0  0  0  0  0  0  0  0  0  0
  162.1870  210.1380  151.9020 C   0  0  0  0  0  0  0  0  0  0  0  0
  161.6280  207.5690  149.0650 C   0  0  1  0  0  3  0  0  0  0  0  0
  163.4760  210.4420  151.7780 O   0  0  0  0  0  0  0  0  0  0  0  0
  161.6790  207.8960  151.9930 C   0  0  0  0  0  2  0  0  0  0  0  0
  159.6730  206.1380  150.1460 C   0  0  0  0  0  1  0  0  0  0  0  0
  161.1530  206.5390  150.0360 C   0  0  2  0  0  3  0  0  0  0  0  0
  161.9530  209.0590  149.6710 C   0  0  0  0  0  2  0  0  0  0  0  0
  162.5890  207.0380  147.9100 C   0  0  0  0  0  1  0  0  0  0  0  0
  162.8590  209.9240  157.2560 C   0  0  0  0  0  2  0  0  0  0  0  0
  161.8860  209.7180  154.9780 N   0  0  0  0  0  0  0  0  0  0  0  0
  161.3610  208.7600  155.8810 C   0  0  0  0  0  2  0  0  0  0  0  0
  162.3430  208.5020  157.0220 C   0  0  0  0  0  2  0  0  0  0  0  0
  162.8220  210.5760  155.8730 C   0  0  0  0  0  2  0  0  0  0  0  0
  158.4790  213.8260  156.7830 C   0  0  0  0  0  1  0  0  0  0  0  0
  158.0320  212.7340  155.8160 C   0  0  2  0  0  3  0  0  0  0  0  0
  156.9210  211.9630  156.4990 N   0  0  0  0  0  2  0  0  0  0  0  0
  154.8500  212.7560  156.9160 O   0  0  0  0  0  1  0  0  0  0  0  0
  155.5860  212.0680  155.9910 C   0  0  2  0  0  3  0  0  0  0  0  0
  154.9740  210.6980  155.9790 C   0  0  0  0  0  0  0  0  0  0  0  0
  155.1880  209.9310  155.0150 O   0  0  0  0  0  0  0  0  0  0  0  0
  154.1950  210.1290  157.1000 O   0  0  0  0  0  1  0  0  0  0  0  0
  1  5  1  0  0  0  0
  1 26  1  1  0  0  0
  2  9  1  0  0  0  0
  3  2  1  0  0  0  0
  3  8  1  0  0  0  0
  4  7  1  0  0  0  0
  4  5  1  0  0  0  0
  6  8  2  0  0  0  0
  7 21  1  6  0  0  0
  8  1  1  0  0  0  0
  9 12  1  6  0  0  0
  9  7  1  0  0  0  0
 10 15  1  0  0  0  0
 11 12  1  0  0  0  0
 11 15  1  0  0  0  0
 13 19  1  1  0  0  0
 13 18  1  0  0  0  0
 13 17  1  0  0  0  0
 14 12  2  0  0  0  0
 17 16  1  1  0  0  0
 17 10  1  0  0  0  0
 18 11  1  0  0  0  0
 21 24  1  0  0  0  0
 21 22  1  0  0  0  0
 22 23  1  0  0  0  0
 23 20  1  0  0  0  0
 24 20  1  0  0  0  0
 26 27  1  0  0  0  0
 26 25  1  1  0  0  0
 29 27  1  0  0  0  0
 29 28  1  1  0  0  0
 30 29  1  0  0  0  0
 30 32  1  0  0  0  0
 31 30  2  0  0  0  0
M  END
>  <MODEL>
9

>  <REMARK>
 VINA RESULT:      -5.3      3.890      8.011
  Name = 
  6 active torsions:
  status: ('A' for Active; 'I' for Inactive)
    1  A    between atoms: C_4  and  C_27
    2  A    between atoms: C_5  and  C_29
    3  A    between atoms: C_10  and  C_25
    4  A    between atoms: N_11  and  C_18
    5  A    between atoms: N_21  and  C_27
    6  A    between atoms: N_21  and  C_29
                            x       y       z     vdW  Elec       q    Type
                         _______ _______ _______ _____ _____    ______ ____

>  <TORSDO>
F 6

$$$$
