=
 OpenBabel11072413303D

 36 39  0  0  1  0  0  0  0  0999 V2000
  160.9290  209.0560  152.1210 N   0  0  0  0  0  2  0  0  0  0  0  0
  160.8020  209.5020  153.4750 C   0  0  0  0  0  0  0  0  0  0  0  0
  160.7650  208.6590  154.4130 O   0  0  0  0  0  0  0  0  0  0  0  0
  160.7030  210.9050  153.7610 N   0  0  0  0  0  0  0  0  0  0  0  0
  160.9030  205.0940  153.1740 O   0  0  0  0  0  1  0  0  0  0  0  0
  161.9740  205.4380  152.3470 C   0  0  2  0  0  3  0  0  0  0  0  0
  161.0830  207.2040  148.1540 O   0  0  0  0  0  0  0  0  0  0  0  0
  162.0340  207.3430  150.8160 C   0  0  2  0  0  3  0  0  0  0  0  0
  162.1390  206.9600  152.2820 C   0  0  1  0  0  3  0  0  0  0  0  0
  160.8860  207.6500  151.7600 C   0  0  1  0  0  3  0  0  0  0  0  0
  161.4060  206.1130  148.7000 C   0  0  0  0  0  0  0  0  0  0  0  0
  161.7710  206.1130  150.0910 N   0  0  0  0  0  0  0  0  0  0  0  0
  161.7260  204.9350  150.9370 C   0  0  0  0  0  2  0  0  0  0  0  0
  160.3740  201.8000  145.5620 O   0  0  0  0  0  0  0  0  0  0  0  0
  161.8130  203.6670  145.6020 C   0  0  0  0  0  2  0  0  0  0  0  0
  161.4160  204.8740  147.8820 C   0  0  0  0  0  0  0  0  0  0  0  0
  161.8290  204.9060  146.4510 C   0  0  0  0  0  0  0  0  0  0  0  0
  161.0820  202.3940  147.7300 C   0  0  0  0  0  2  0  0  0  0  0  0
  162.2030  205.9860  145.9200 O   0  0  0  0  0  0  0  0  0  0  0  0
  161.0130  202.5800  146.2480 C   0  0  0  0  0  0  0  0  0  0  0  0
  161.0480  203.7130  148.4440 C   0  0  0  0  0  3  0  0  0  0  0  0
  160.6010  211.8780  152.6780 C   0  0  0  0  0  2  0  0  0  0  0  0
  159.1710  212.0940  152.3150 C   0  0  0  0  0  0  0  0  0  0  0  0
  158.7900  213.3230  151.6810 N   0  0  0  0  0  2  0  0  0  0  0  0
  158.3310  211.1830  152.5370 O   0  0  0  0  0  0  0  0  0  0  0  0
  156.5020  214.0530  152.0960 C   0  0  0  0  0  3  0  0  0  0  0  0
  155.9150  213.9990  149.3640 C   0  0  0  0  0  3  0  0  0  0  0  0
  154.9320  214.3810  150.2820 C   0  0  0  0  0  3  0  0  0  0  0  0
  157.1900  213.6450  149.8130 C   0  0  0  0  0  3  0  0  0  0  0  0
  157.4910  213.6680  151.1830 C   0  0  0  0  0  0  0  0  0  0  0  0
  155.2270  214.4090  151.6470 C   0  0  0  0  0  3  0  0  0  0  0  0
  160.6020  211.3730  155.1380 C   0  0  0  0  0  2  0  0  0  0  0  0
  159.7480  210.2040  157.1610 C   0  0  0  0  0  1  0  0  0  0  0  0
  159.3690  210.7890  155.8150 C   0  0  1  0  0  3  0  0  0  0  0  0
  157.0420  211.3370  155.5150 O   0  0  0  0  0  1  0  0  0  0  0  0
  158.2670  211.8310  155.9720 C   0  0  0  0  0  2  0  0  0  0  0  0
  1  2  1  0  0  0  0
  2  4  1  0  0  0  0
  2  3  2  0  0  0  0
  4 32  1  0  0  0  0
  6  5  1  1  0  0  0
  7 11  2  0  0  0  0
  8 12  1  6  0  0  0
  8 10  1  0  0  0  0
  8  9  1  0  0  0  0
  9  6  1  0  0  0  0
 10  1  1  0  0  0  0
 10  9  1  0  0  0  0
 11 12  1  0  0  0  0
 12 13  1  0  0  0  0
 13  6  1  0  0  0  0
 14 20  2  0  0  0  0
 15 20  1  0  0  0  0
 15 17  1  0  0  0  0
 16 21  2  0  0  0  0
 16 11  1  0  0  0  0
 17 16  1  0  0  0  0
 18 21  1  0  0  0  0
 19 17  2  0  0  0  0
 20 18  1  0  0  0  0
 22  4  1  0  0  0  0
 23 25  2  0  0  0  0
 23 22  1  0  0  0  0
 24 23  1  0  0  0  0
 27 29  2  0  0  0  0
 27 28  1  0  0  0  0
 28 31  2  0  0  0  0
 29 30  1  0  0  0  0
 30 24  1  0  0  0  0
 30 26  2  0  0  0  0
 31 26  1  0  0  0  0
 32 34  1  0  0  0  0
 34 36  1  0  0  0  0
 34 33  1  0  0  0  0
 35 36  1  0  0  0  0
M  END
>  <MODEL>
1

>  <REMARK>
 VINA RESULT:      -8.3      0.000      0.000
  Name = 
  8 active torsions:
  status: ('A' for Active; 'I' for Inactive)
    1  A    between atoms: C_4  and  C_17
    2  A    between atoms: C_4  and  N_36
    3  A    between atoms: N_5  and  C_14
    4  A    between atoms: C_15  and  C_20
    5  A    between atoms: C_23  and  N_28
    6  A    between atoms: C_29  and  C_31
    7  A    between atoms: C_29  and  C_32
    8  A    between atoms: C_31  and  N_36
                            x       y       z     vdW  Elec       q    Type
                         _______ _______ _______ _____ _____    ______ ____

>  <TORSDO>
F 8

$$$$
=
 OpenBabel11072413303D

 36 39  0  0  1  0  0  0  0  0999 V2000
  161.9600  208.6990  151.7810 N   0  0  0  0  0  2  0  0  0  0  0  0
  161.3810  208.3460  153.0410 C   0  0  0  0  0  0  0  0  0  0  0  0
  161.1140  207.1390  153.2940 O   0  0  0  0  0  0  0  0  0  0  0  0
  161.0930  209.3660  154.0080 N   0  0  0  0  0  0  0  0  0  0  0  0
  163.0500  207.7830  147.9370 O   0  0  0  0  0  1  0  0  0  0  0  0
  161.7230  207.4570  148.2260 C   0  0  2  0  0  3  0  0  0  0  0  0
  160.8570  204.4610  151.6570 O   0  0  0  0  0  0  0  0  0  0  0  0
  160.8200  207.0230  150.4560 C   0  0  2  0  0  3  0  0  0  0  0  0
  161.2720  208.1350  149.5250 C   0  0  1  0  0  3  0  0  0  0  0  0
  162.1370  207.7340  150.7110 C   0  0  1  0  0  3  0  0  0  0  0  0
  160.9340  204.5000  150.3980 C   0  0  0  0  0  0  0  0  0  0  0  0
  161.0510  205.7780  149.7480 N   0  0  0  0  0  0  0  0  0  0  0  0
  161.5840  205.9580  148.4100 C   0  0  0  0  0  2  0  0  0  0  0  0
  161.8380  199.9810  147.5220 O   0  0  0  0  0  0  0  0  0  0  0  0
  160.8730  200.6190  149.5760 C   0  0  0  0  0  2  0  0  0  0  0  0
  160.8840  203.2290  149.6340 C   0  0  0  0  0  0  0  0  0  0  0  0
  160.8910  201.9140  150.3360 C   0  0  0  0  0  0  0  0  0  0  0  0
  160.7110  202.0490  147.4280 C   0  0  0  0  0  2  0  0  0  0  0  0
  160.9130  201.8650  151.5940 O   0  0  0  0  0  0  0  0  0  0  0  0
  161.2180  200.8330  148.1360 C   0  0  0  0  0  0  0  0  0  0  0  0
  160.8300  203.2690  148.2940 C   0  0  0  0  0  3  0  0  0  0  0  0
  161.2640  210.7760  153.6740 C   0  0  0  0  0  2  0  0  0  0  0  0
  160.2280  211.5970  154.3640 C   0  0  0  0  0  0  0  0  0  0  0  0
  158.8900  211.6120  153.8480 N   0  0  0  0  0  2  0  0  0  0  0  0
  160.5350  212.2340  155.4060 O   0  0  0  0  0  0  0  0  0  0  0  0
  157.4150  213.5470  153.9760 C   0  0  0  0  0  3  0  0  0  0  0  0
  155.8530  212.3150  155.9390 C   0  0  0  0  0  3  0  0  0  0  0  0
  155.5240  213.5960  155.4880 C   0  0  0  0  0  3  0  0  0  0  0  0
  156.9630  211.6500  155.4090 C   0  0  0  0  0  3  0  0  0  0  0  0
  157.7520  212.2640  154.4250 C   0  0  0  0  0  0  0  0  0  0  0  0
  156.3040  214.2110  154.5060 C   0  0  0  0  0  3  0  0  0  0  0  0
  160.5310  209.0160  155.3070 C   0  0  0  0  0  2  0  0  0  0  0  0
  162.3770  209.5550  156.8870 C   0  0  0  0  0  1  0  0  0  0  0  0
  161.6050  208.4350  156.2180 C   0  0  1  0  0  3  0  0  0  0  0  0
  159.8010  206.9540  156.8150 O   0  0  0  0  0  1  0  0  0  0  0  0
  161.0100  207.4940  157.2600 C   0  0  0  0  0  2  0  0  0  0  0  0
  1  2  1  0  0  0  0
  2  3  2  0  0  0  0
  2  4  1  0  0  0  0
  4 32  1  0  0  0  0
  6  5  1  1  0  0  0
  6 13  1  0  0  0  0
  6  9  1  0  0  0  0
  8 12  1  6  0  0  0
  8 10  1  0  0  0  0
  9  8  1  0  0  0  0
  9 10  1  0  0  0  0
 10  1  1  0  0  0  0
 11  7  2  0  0  0  0
 12 11  1  0  0  0  0
 13 12  1  0  0  0  0
 14 20  2  0  0  0  0
 15 17  1  0  0  0  0
 16 17  1  0  0  0  0
 16 11  1  0  0  0  0
 17 19  2  0  0  0  0
 18 20  1  0  0  0  0
 18 21  1  0  0  0  0
 20 15  1  0  0  0  0
 21 16  2  0  0  0  0
 22  4  1  0  0  0  0
 22 23  1  0  0  0  0
 23 25  2  0  0  0  0
 24 23  1  0  0  0  0
 24 30  1  0  0  0  0
 26 30  2  0  0  0  0
 26 31  1  0  0  0  0
 28 27  1  0  0  0  0
 29 27  2  0  0  0  0
 30 29  1  0  0  0  0
 31 28  2  0  0  0  0
 32 34  1  0  0  0  0
 34 33  1  0  0  0  0
 34 36  1  0  0  0  0
 35 36  1  0  0  0  0
M  END
>  <MODEL>
2

>  <REMARK>
 VINA RESULT:      -8.1      2.359      3.683
  Name = 
  8 active torsions:
  status: ('A' for Active; 'I' for Inactive)
    1  A    between atoms: C_4  and  C_17
    2  A    between atoms: C_4  and  N_36
    3  A    between atoms: N_5  and  C_14
    4  A    between atoms: C_15  and  C_20
    5  A    between atoms: C_23  and  N_28
    6  A    between atoms: C_29  and  C_31
    7  A    between atoms: C_29  and  C_32
    8  A    between atoms: C_31  and  N_36
                            x       y       z     vdW  Elec       q    Type
                         _______ _______ _______ _____ _____    ______ ____

>  <TORSDO>
F 8

$$$$
=
 OpenBabel11072413303D

 36 39  0  0  1  0  0  0  0  0999 V2000
  161.8530  209.0390  151.8100 N   0  0  0  0  0  2  0  0  0  0  0  0
  161.3440  208.7320  153.1110 C   0  0  0  0  0  0  0  0  0  0  0  0
  161.1990  207.5290  153.4610 O   0  0  0  0  0  0  0  0  0  0  0  0
  160.9850  209.7930  154.0090 N   0  0  0  0  0  0  0  0  0  0  0  0
  163.1940  207.9050  148.1060 O   0  0  0  0  0  1  0  0  0  0  0  0
  161.8480  207.6040  148.3210 C   0  0  2  0  0  3  0  0  0  0  0  0
  160.7200  204.8080  151.8430 O   0  0  0  0  0  0  0  0  0  0  0  0
  160.7900  207.3000  150.5040 C   0  0  2  0  0  3  0  0  0  0  0  0
  161.3160  208.3550  149.5460 C   0  0  1  0  0  3  0  0  0  0  0  0
  162.0940  208.0150  150.8090 C   0  0  1  0  0  3  0  0  0  0  0  0
  160.8830  204.7770  150.5920 C   0  0  0  0  0  0  0  0  0  0  0  0
  161.0560  206.0160  149.8830 N   0  0  0  0  0  0  0  0  0  0  0  0
  161.6810  206.1180  148.5770 C   0  0  0  0  0  2  0  0  0  0  0  0
  161.9200  200.1600  147.9230 O   0  0  0  0  0  0  0  0  0  0  0  0
  160.9920  200.8590  149.9750 C   0  0  0  0  0  2  0  0  0  0  0  0
  160.8720  203.4650  149.8970 C   0  0  0  0  0  0  0  0  0  0  0  0
  160.9700  202.1920  150.6650 C   0  0  0  0  0  0  0  0  0  0  0  0
  160.6870  202.1620  147.7630 C   0  0  0  0  0  2  0  0  0  0  0  0
  161.0360  202.2120  151.9230 O   0  0  0  0  0  0  0  0  0  0  0  0
  161.2790  201.0120  148.5140 C   0  0  0  0  0  0  0  0  0  0  0  0
  160.7720  203.4320  148.5600 C   0  0  0  0  0  3  0  0  0  0  0  0
  161.0130  211.1820  153.5660 C   0  0  0  0  0  2  0  0  0  0  0  0
  159.6760  211.5800  153.0370 C   0  0  0  0  0  0  0  0  0  0  0  0
  159.5550  212.7970  152.2880 N   0  0  0  0  0  2  0  0  0  0  0  0
  158.6860  210.8250  153.2250 O   0  0  0  0  0  0  0  0  0  0  0  0
  157.4090  213.9470  152.3980 C   0  0  0  0  0  3  0  0  0  0  0  0
  157.0320  213.6540  149.6440 C   0  0  0  0  0  3  0  0  0  0  0  0
  156.0660  214.3060  150.4160 C   0  0  0  0  0  3  0  0  0  0  0  0
  158.1860  213.1490  150.2500 C   0  0  0  0  0  3  0  0  0  0  0  0
  158.3800  213.2910  151.6320 C   0  0  0  0  0  0  0  0  0  0  0  0
  156.2560  214.4530  151.7920 C   0  0  0  0  0  3  0  0  0  0  0  0
  160.4930  209.4930  155.3480 C   0  0  0  0  0  2  0  0  0  0  0  0
  162.0430  210.1440  157.1830 C   0  0  0  0  0  1  0  0  0  0  0  0
  161.6300  209.0250  156.2460 C   0  0  1  0  0  3  0  0  0  0  0  0
  159.9440  207.3750  156.7340 O   0  0  0  0  0  1  0  0  0  0  0  0
  161.2480  207.7770  157.0350 C   0  0  0  0  0  2  0  0  0  0  0  0
  1  2  1  0  0  0  0
  2  3  2  0  0  0  0
  2  4  1  0  0  0  0
  4 32  1  0  0  0  0
  6  5  1  1  0  0  0
  6 13  1  0  0  0  0
  6  9  1  0  0  0  0
  8 12  1  6  0  0  0
  8 10  1  0  0  0  0
  9  8  1  0  0  0  0
  9 10  1  0  0  0  0
 10  1  1  0  0  0  0
 11  7  2  0  0  0  0
 12 11  1  0  0  0  0
 13 12  1  0  0  0  0
 14 20  2  0  0  0  0
 15 17  1  0  0  0  0
 16 11  1  0  0  0  0
 16 17  1  0  0  0  0
 17 19  2  0  0  0  0
 18 20  1  0  0  0  0
 18 21  1  0  0  0  0
 20 15  1  0  0  0  0
 21 16  2  0  0  0  0
 22  4  1  0  0  0  0
 23 25  2  0  0  0  0
 23 22  1  0  0  0  0
 24 23  1  0  0  0  0
 27 29  2  0  0  0  0
 27 28  1  0  0  0  0
 28 31  2  0  0  0  0
 29 30  1  0  0  0  0
 30 24  1  0  0  0  0
 30 26  2  0  0  0  0
 31 26  1  0  0  0  0
 32 34  1  0  0  0  0
 34 36  1  0  0  0  0
 34 33  1  0  0  0  0
 35 36  1  0  0  0  0
M  END
>  <MODEL>
3

>  <REMARK>
 VINA RESULT:      -8.0      1.682      2.999
  Name = 
  8 active torsions:
  status: ('A' for Active; 'I' for Inactive)
    1  A    between atoms: C_4  and  C_17
    2  A    between atoms: C_4  and  N_36
    3  A    between atoms: N_5  and  C_14
    4  A    between atoms: C_15  and  C_20
    5  A    between atoms: C_23  and  N_28
    6  A    between atoms: C_29  and  C_31
    7  A    between atoms: C_29  and  C_32
    8  A    between atoms: C_31  and  N_36
                            x       y       z     vdW  Elec       q    Type
                         _______ _______ _______ _____ _____    ______ ____

>  <TORSDO>
F 8

$$$$
=
 OpenBabel11072413303D

 36 39  0  0  1  0  0  0  0  0999 V2000
  160.8650  208.1860  152.4670 N   0  0  0  0  0  2  0  0  0  0  0  0
  160.6860  208.4550  153.8600 C   0  0  0  0  0  0  0  0  0  0  0  0
  160.5930  207.4990  154.6790 O   0  0  0  0  0  0  0  0  0  0  0  0
  160.5980  209.8110  154.3230 N   0  0  0  0  0  0  0  0  0  0  0  0
  160.8140  204.1200  152.9900 O   0  0  0  0  0  1  0  0  0  0  0  0
  161.8890  204.5630  152.2160 C   0  0  2  0  0  3  0  0  0  0  0  0
  161.0120  206.8700  148.2900 O   0  0  0  0  0  0  0  0  0  0  0  0
  161.9620  206.6520  150.9480 C   0  0  2  0  0  3  0  0  0  0  0  0
  162.0620  206.0800  152.3510 C   0  0  1  0  0  3  0  0  0  0  0  0
  160.8140  206.8400  151.9240 C   0  0  1  0  0  3  0  0  0  0  0  0
  161.3280  205.7150  148.6890 C   0  0  0  0  0  0  0  0  0  0  0  0
  161.6920  205.5300  150.0670 N   0  0  0  0  0  0  0  0  0  0  0  0
  161.6390  204.2520  150.7520 C   0  0  0  0  0  2  0  0  0  0  0  0
  160.2700  201.8450  145.0260 O   0  0  0  0  0  0  0  0  0  0  0  0
  161.7010  203.7000  145.2910 C   0  0  0  0  0  2  0  0  0  0  0  0
  161.3310  204.5940  147.7150 C   0  0  0  0  0  0  0  0  0  0  0  0
  161.7240  204.8160  146.2950 C   0  0  0  0  0  0  0  0  0  0  0  0
  161.0060  202.1530  147.2430 C   0  0  0  0  0  2  0  0  0  0  0  0
  162.0860  205.9580  145.9060 O   0  0  0  0  0  0  0  0  0  0  0  0
  160.9150  202.5320  145.7990 C   0  0  0  0  0  0  0  0  0  0  0  0
  160.9760  203.3680  148.1250 C   0  0  0  0  0  3  0  0  0  0  0  0
  160.5600  210.9180  153.3730 C   0  0  0  0  0  2  0  0  0  0  0  0
  159.5750  211.9440  153.8190 C   0  0  0  0  0  0  0  0  0  0  0  0
  158.1910  211.5840  153.9280 N   0  0  0  0  0  2  0  0  0  0  0  0
  159.9770  213.0980  154.1260 O   0  0  0  0  0  0  0  0  0  0  0  0
  156.7300  212.2600  155.7570 C   0  0  0  0  0  3  0  0  0  0  0  0
  155.4450  214.1350  154.1310 C   0  0  0  0  0  3  0  0  0  0  0  0
  155.0570  213.9860  155.4650 C   0  0  0  0  0  3  0  0  0  0  0  0
  156.4760  213.3470  153.6100 C   0  0  0  0  0  3  0  0  0  0  0  0
  157.1240  212.4030  154.4210 C   0  0  0  0  0  0  0  0  0  0  0  0
  155.7010  213.0490  156.2780 C   0  0  0  0  0  3  0  0  0  0  0  0
  160.4450  210.0990  155.7430 C   0  0  0  0  0  2  0  0  0  0  0  0
  161.1170  211.9550  157.2600 C   0  0  0  0  0  1  0  0  0  0  0  0
  161.6120  210.9380  156.2500 C   0  0  1  0  0  3  0  0  0  0  0  0
  163.8150  210.8410  157.2200 O   0  0  0  0  0  1  0  0  0  0  0  0
  162.7090  210.0690  156.8560 C   0  0  0  0  0  2  0  0  0  0  0  0
  1  2  1  0  0  0  0
  2  4  1  0  0  0  0
  2  3  2  0  0  0  0
  4 32  1  0  0  0  0
  6  9  1  0  0  0  0
  6  5  1  1  0  0  0
  7 11  2  0  0  0  0
  8 12  1  6  0  0  0
  8 10  1  0  0  0  0
  8  9  1  0  0  0  0
 10  9  1  0  0  0  0
 10  1  1  0  0  0  0
 11 12  1  0  0  0  0
 12 13  1  0  0  0  0
 13  6  1  0  0  0  0
 14 20  2  0  0  0  0
 15 20  1  0  0  0  0
 15 17  1  0  0  0  0
 16 21  2  0  0  0  0
 16 11  1  0  0  0  0
 17 16  1  0  0  0  0
 18 21  1  0  0  0  0
 19 17  2  0  0  0  0
 20 18  1  0  0  0  0
 22 23  1  0  0  0  0
 22  4  1  0  0  0  0
 23 24  1  0  0  0  0
 23 25  2  0  0  0  0
 24 30  1  0  0  0  0
 26 31  1  0  0  0  0
 27 28  1  0  0  0  0
 28 31  2  0  0  0  0
 29 27  2  0  0  0  0
 29 30  1  0  0  0  0
 30 26  2  0  0  0  0
 32 34  1  0  0  0  0
 34 36  1  0  0  0  0
 34 33  1  0  0  0  0
 36 35  1  0  0  0  0
M  END
>  <MODEL>
4

>  <REMARK>
 VINA RESULT:      -7.9      1.818      2.554
  Name = 
  8 active torsions:
  status: ('A' for Active; 'I' for Inactive)
    1  A    between atoms: C_4  and  C_17
    2  A    between atoms: C_4  and  N_36
    3  A    between atoms: N_5  and  C_14
    4  A    between atoms: C_15  and  C_20
    5  A    between atoms: C_23  and  N_28
    6  A    between atoms: C_29  and  C_31
    7  A    between atoms: C_29  and  C_32
    8  A    between atoms: C_31  and  N_36
                            x       y       z     vdW  Elec       q    Type
                         _______ _______ _______ _____ _____    ______ ____

>  <TORSDO>
F 8

$$$$
=
 OpenBabel11072413303D

 36 39  0  0  1  0  0  0  0  0999 V2000
  161.9460  209.2710  152.4910 N   0  0  0  0  0  2  0  0  0  0  0  0
  161.6290  209.8790  151.2350 C   0  0  0  0  0  0  0  0  0  0  0  0
  160.9880  210.9650  151.2060 O   0  0  0  0  0  0  0  0  0  0  0  0
  162.0280  209.2440  150.0100 N   0  0  0  0  0  0  0  0  0  0  0  0
  162.1150  209.5040  156.5800 O   0  0  0  0  0  1  0  0  0  0  0  0
  160.8920  209.0280  156.1050 C   0  0  2  0  0  3  0  0  0  0  0  0
  158.3980  211.7200  153.2700 O   0  0  0  0  0  0  0  0  0  0  0  0
  159.9710  209.4470  153.8790 C   0  0  2  0  0  3  0  0  0  0  0  0
  161.0050  208.6260  154.6300 C   0  0  1  0  0  3  0  0  0  0  0  0
  161.4450  209.7880  153.7510 C   0  0  1  0  0  3  0  0  0  0  0  0
  158.4540  211.3750  154.4820 C   0  0  0  0  0  0  0  0  0  0  0  0
  159.3410  210.3090  154.8620 N   0  0  0  0  0  0  0  0  0  0  0  0
  159.8350  210.1110  156.2120 C   0  0  0  0  0  2  0  0  0  0  0  0
  154.9050  214.4530  157.2120 O   0  0  0  0  0  0  0  0  0  0  0  0
  155.4000  212.1710  156.8870 C   0  0  0  0  0  2  0  0  0  0  0  0
  157.5890  212.0700  155.4690 C   0  0  0  0  0  0  0  0  0  0  0  0
  156.3010  211.4660  155.9150 C   0  0  0  0  0  0  0  0  0  0  0  0
  157.2120  214.0110  157.0100 C   0  0  0  0  0  2  0  0  0  0  0  0
  155.9410  210.3400  155.4790 O   0  0  0  0  0  0  0  0  0  0  0  0
  155.7690  213.6150  157.0170 C   0  0  0  0  0  0  0  0  0  0  0  0
  157.9760  213.2550  155.9620 C   0  0  0  0  0  3  0  0  0  0  0  0
  162.6420  207.9210  150.0260 C   0  0  0  0  0  2  0  0  0  0  0  0
  161.8900  206.9950  149.1310 C   0  0  0  0  0  0  0  0  0  0  0  0
  162.3420  206.8040  147.7840 N   0  0  0  0  0  2  0  0  0  0  0  0
  160.8940  206.3700  149.5820 O   0  0  0  0  0  0  0  0  0  0  0  0
  160.9950  206.4030  145.7930 C   0  0  0  0  0  3  0  0  0  0  0  0
  161.5450  203.6650  145.8860 C   0  0  0  0  0  3  0  0  0  0  0  0
  160.7360  204.1800  144.8690 C   0  0  0  0  0  3  0  0  0  0  0  0
  162.0790  204.5190  146.8550 C   0  0  0  0  0  3  0  0  0  0  0  0
  161.8050  205.8950  146.8150 C   0  0  0  0  0  0  0  0  0  0  0  0
  160.4630  205.5490  144.8230 C   0  0  0  0  0  3  0  0  0  0  0  0
  161.7360  209.8680  148.7260 C   0  0  0  0  0  2  0  0  0  0  0  0
  163.4900  211.5760  148.2810 C   0  0  0  0  0  1  0  0  0  0  0  0
  162.0700  211.3540  148.7620 C   0  0  1  0  0  3  0  0  0  0  0  0
  161.0920  213.5120  148.3280 O   0  0  0  0  0  1  0  0  0  0  0  0
  161.0870  212.1720  147.9320 C   0  0  0  0  0  2  0  0  0  0  0  0
  1 10  1  0  0  0  0
  2  1  1  0  0  0  0
  3  2  2  0  0  0  0
  4 22  1  0  0  0  0
  4  2  1  0  0  0  0
  6 13  1  0  0  0  0
  6  5  1  6  0  0  0
  7 11  2  0  0  0  0
  8  9  1  0  0  0  0
  8 12  1  1  0  0  0
  9  6  1  0  0  0  0
 10  8  1  0  0  0  0
 10  9  1  0  0  0  0
 11 12  1  0  0  0  0
 11 16  1  0  0  0  0
 12 13  1  0  0  0  0
 15 20  1  0  0  0  0
 16 17  1  0  0  0  0
 16 21  2  0  0  0  0
 17 15  1  0  0  0  0
 18 20  1  0  0  0  0
 19 17  2  0  0  0  0
 20 14  2  0  0  0  0
 21 18  1  0  0  0  0
 23 25  2  0  0  0  0
 23 22  1  0  0  0  0
 24 23  1  0  0  0  0
 26 30  1  0  0  0  0
 27 29  1  0  0  0  0
 28 27  2  0  0  0  0
 30 29  2  0  0  0  0
 30 24  1  0  0  0  0
 31 28  1  0  0  0  0
 31 26  2  0  0  0  0
 32 34  1  0  0  0  0
 32  4  1  0  0  0  0
 33 34  1  0  0  0  0
 36 35  1  0  0  0  0
 36 34  1  0  0  0  0
M  END
>  <MODEL>
5

>  <REMARK>
 VINA RESULT:      -7.5      3.016      9.650
  Name = 
  8 active torsions:
  status: ('A' for Active; 'I' for Inactive)
    1  A    between atoms: C_4  and  C_17
    2  A    between atoms: C_4  and  N_36
    3  A    between atoms: N_5  and  C_14
    4  A    between atoms: C_15  and  C_20
    5  A    between atoms: C_23  and  N_28
    6  A    between atoms: C_29  and  C_31
    7  A    between atoms: C_29  and  C_32
    8  A    between atoms: C_31  and  N_36
                            x       y       z     vdW  Elec       q    Type
                         _______ _______ _______ _____ _____    ______ ____

>  <TORSDO>
F 8

$$$$
=
 OpenBabel11072413303D

 36 39  0  0  1  0  0  0  0  0999 V2000
  160.1890  209.2420  152.0950 N   0  0  0  0  0  2  0  0  0  0  0  0
  160.5360  209.9710  153.2760 C   0  0  0  0  0  0  0  0  0  0  0  0
  161.2500  209.4290  154.1630 O   0  0  0  0  0  0  0  0  0  0  0  0
  160.0570  211.3130  153.4560 N   0  0  0  0  0  0  0  0  0  0  0  0
  161.5940  205.6940  153.5920 O   0  0  0  0  0  1  0  0  0  0  0  0
  162.3310  206.1630  152.5030 C   0  0  2  0  0  3  0  0  0  0  0  0
  160.1680  206.8080  148.4530 O   0  0  0  0  0  0  0  0  0  0  0  0
  161.5090  207.6930  150.7830 C   0  0  2  0  0  3  0  0  0  0  0  0
  161.9980  207.6320  152.2190 C   0  0  1  0  0  3  0  0  0  0  0  0
  160.5190  207.8390  151.9250 C   0  0  1  0  0  3  0  0  0  0  0  0
  160.9110  205.9700  149.0350 C   0  0  0  0  0  0  0  0  0  0  0  0
  161.5110  206.3270  150.2920 N   0  0  0  0  0  0  0  0  0  0  0  0
  161.9930  205.3610  151.2610 C   0  0  0  0  0  2  0  0  0  0  0  0
  160.7440  201.2350  146.3770 O   0  0  0  0  0  0  0  0  0  0  0  0
  161.9770  203.2440  146.3560 C   0  0  0  0  0  2  0  0  0  0  0  0
  161.1530  204.6530  148.3920 C   0  0  0  0  0  0  0  0  0  0  0  0
  161.7550  204.5660  147.0320 C   0  0  0  0  0  0  0  0  0  0  0  0
  161.0850  202.1510  148.5220 C   0  0  0  0  0  2  0  0  0  0  0  0
  162.0930  205.6130  146.4170 O   0  0  0  0  0  0  0  0  0  0  0  0
  161.2030  202.1560  147.0310 C   0  0  0  0  0  0  0  0  0  0  0  0
  160.8250  203.5320  149.0500 C   0  0  0  0  0  3  0  0  0  0  0  0
  159.1160  211.8990  152.5080 C   0  0  0  0  0  2  0  0  0  0  0  0
  159.8460  212.7210  151.5010 C   0  0  0  0  0  0  0  0  0  0  0  0
  160.2140  212.1270  150.2490 N   0  0  0  0  0  2  0  0  0  0  0  0
  160.0960  213.9290  151.7510 O   0  0  0  0  0  0  0  0  0  0  0  0
  160.1150  213.7700  148.4520 C   0  0  0  0  0  3  0  0  0  0  0  0
  162.7120  213.1370  147.6340 C   0  0  0  0  0  3  0  0  0  0  0  0
  161.9870  214.1220  146.9570 C   0  0  0  0  0  3  0  0  0  0  0  0
  162.1370  212.4690  148.7200 C   0  0  0  0  0  3  0  0  0  0  0  0
  160.8340  212.7810  149.1340 C   0  0  0  0  0  0  0  0  0  0  0  0
  160.6900  214.4390  147.3670 C   0  0  0  0  0  3  0  0  0  0  0  0
  160.4280  212.0760  154.6420 C   0  0  0  0  0  2  0  0  0  0  0  0
  160.1690  211.3840  157.0180 C   0  0  0  0  0  1  0  0  0  0  0  0
  159.4340  211.8320  155.7700 C   0  0  1  0  0  3  0  0  0  0  0  0
  159.3900  214.2170  156.1050 O   0  0  0  0  0  1  0  0  0  0  0  0
  158.5920  213.0710  156.0570 C   0  0  0  0  0  2  0  0  0  0  0  0
  1  2  1  0  0  0  0
  2  4  1  0  0  0  0
  2  3  2  0  0  0  0
  4 32  1  0  0  0  0
  6  5  1  1  0  0  0
  7 11  2  0  0  0  0
  8 12  1  1  0  0  0
  8 10  1  0  0  0  0
  8  9  1  0  0  0  0
  9  6  1  0  0  0  0
 10  1  1  0  0  0  0
 10  9  1  0  0  0  0
 11 12  1  0  0  0  0
 12 13  1  0  0  0  0
 13  6  1  0  0  0  0
 14 20  2  0  0  0  0
 15 20  1  0  0  0  0
 15 17  1  0  0  0  0
 16 11  1  0  0  0  0
 16 21  2  0  0  0  0
 17 16  1  0  0  0  0
 18 21  1  0  0  0  0
 19 17  2  0  0  0  0
 20 18  1  0  0  0  0
 22  4  1  0  0  0  0
 23 25  2  0  0  0  0
 23 22  1  0  0  0  0
 24 23  1  0  0  0  0
 26 30  1  0  0  0  0
 27 29  1  0  0  0  0
 28 31  1  0  0  0  0
 28 27  2  0  0  0  0
 29 30  2  0  0  0  0
 30 24  1  0  0  0  0
 31 26  2  0  0  0  0
 32 34  1  0  0  0  0
 34 36  1  0  0  0  0
 34 33  1  0  0  0  0
 36 35  1  0  0  0  0
M  END
>  <MODEL>
6

>  <REMARK>
 VINA RESULT:      -7.0      2.196      2.792
  Name = 
  8 active torsions:
  status: ('A' for Active; 'I' for Inactive)
    1  A    between atoms: C_4  and  C_17
    2  A    between atoms: C_4  and  N_36
    3  A    between atoms: N_5  and  C_14
    4  A    between atoms: C_15  and  C_20
    5  A    between atoms: C_23  and  N_28
    6  A    between atoms: C_29  and  C_31
    7  A    between atoms: C_29  and  C_32
    8  A    between atoms: C_31  and  N_36
                            x       y       z     vdW  Elec       q    Type
                         _______ _______ _______ _____ _____    ______ ____

>  <TORSDO>
F 8

$$$$
=
 OpenBabel11072413303D

 36 39  0  0  1  0  0  0  0  0999 V2000
  161.1830  206.5780  150.5560 N   0  0  0  0  0  2  0  0  0  0  0  0
  161.0630  206.3420  149.1500 C   0  0  0  0  0  0  0  0  0  0  0  0
  160.9940  207.3160  148.3510 O   0  0  0  0  0  0  0  0  0  0  0  0
  161.0070  204.9960  148.6520 N   0  0  0  0  0  0  0  0  0  0  0  0
  161.6410  210.6400  150.2430 O   0  0  0  0  0  1  0  0  0  0  0  0
  162.4050  210.0760  151.2660 C   0  0  2  0  0  3  0  0  0  0  0  0
  160.2420  207.7780  154.6630 O   0  0  0  0  0  0  0  0  0  0  0  0
  161.9290  207.9620  152.3970 C   0  0  2  0  0  3  0  0  0  0  0  0
  162.4770  208.5530  151.1100 C   0  0  1  0  0  3  0  0  0  0  0  0
  161.0970  207.9100  151.1280 C   0  0  1  0  0  3  0  0  0  0  0  0
  160.7590  208.9050  154.4280 C   0  0  0  0  0  0  0  0  0  0  0  0
  161.5170  209.0850  153.2200 N   0  0  0  0  0  0  0  0  0  0  0  0
  161.7750  210.3770  152.6130 C   0  0  0  0  0  2  0  0  0  0  0  0
  160.5250  213.5400  157.2520 O   0  0  0  0  0  0  0  0  0  0  0  0
  159.0830  211.8180  156.5380 C   0  0  0  0  0  2  0  0  0  0  0  0
  160.5810  209.9980  155.4170 C   0  0  0  0  0  0  0  0  0  0  0  0
  159.2690  210.6890  155.5640 C   0  0  0  0  0  0  0  0  0  0  0  0
  161.5310  211.4090  157.2600 C   0  0  0  0  0  2  0  0  0  0  0  0
  158.2820  210.3350  154.8670 O   0  0  0  0  0  0  0  0  0  0  0  0
  160.4000  212.3530  157.0030 C   0  0  0  0  0  0  0  0  0  0  0  0
  161.6180  210.3630  156.1860 C   0  0  0  0  0  3  0  0  0  0  0  0
  160.9420  203.8660  149.5720 C   0  0  0  0  0  2  0  0  0  0  0  0
  160.5730  202.6240  148.8350 C   0  0  0  0  0  0  0  0  0  0  0  0
  161.2520  202.3090  147.6120 N   0  0  0  0  0  2  0  0  0  0  0  0
  159.6980  201.8550  149.3150 O   0  0  0  0  0  0  0  0  0  0  0  0
  160.2680  201.1740  145.6930 C   0  0  0  0  0  3  0  0  0  0  0  0
  161.5910  198.7960  146.3300 C   0  0  0  0  0  3  0  0  0  0  0  0
  160.7600  198.8540  145.2080 C   0  0  0  0  0  3  0  0  0  0  0  0
  161.7590  199.9280  147.1340 C   0  0  0  0  0  3  0  0  0  0  0  0
  161.0970  201.1240  146.8200 C   0  0  0  0  0  0  0  0  0  0  0  0
  160.1000  200.0430  144.8890 C   0  0  0  0  0  3  0  0  0  0  0  0
  160.9140  204.7420  147.2190 C   0  0  0  0  0  2  0  0  0  0  0  0
  163.2960  204.6990  146.4990 C   0  0  0  0  0  1  0  0  0  0  0  0
  162.0050  205.4940  146.4690 C   0  0  1  0  0  3  0  0  0  0  0  0
  160.2580  206.2020  144.9690 O   0  0  0  0  0  1  0  0  0  0  0  0
  161.5940  205.7970  145.0320 C   0  0  0  0  0  2  0  0  0  0  0  0
  1 10  1  0  0  0  0
  2  1  1  0  0  0  0
  3  2  2  0  0  0  0
  4  2  1  0  0  0  0
  4 22  1  0  0  0  0
  6  5  1  6  0  0  0
  6 13  1  0  0  0  0
  8 12  1  1  0  0  0
  9 10  1  0  0  0  0
  9  6  1  0  0  0  0
  9  8  1  0  0  0  0
 10  8  1  0  0  0  0
 11  7  2  0  0  0  0
 11 16  1  0  0  0  0
 12 11  1  0  0  0  0
 13 12  1  0  0  0  0
 15 20  1  0  0  0  0
 16 17  1  0  0  0  0
 16 21  2  0  0  0  0
 17 15  1  0  0  0  0
 19 17  2  0  0  0  0
 20 14  2  0  0  0  0
 20 18  1  0  0  0  0
 21 18  1  0  0  0  0
 23 25  2  0  0  0  0
 23 22  1  0  0  0  0
 24 23  1  0  0  0  0
 26 30  1  0  0  0  0
 27 29  1  0  0  0  0
 28 27  2  0  0  0  0
 30 29  2  0  0  0  0
 30 24  1  0  0  0  0
 31 28  1  0  0  0  0
 31 26  2  0  0  0  0
 32  4  1  0  0  0  0
 34 33  1  0  0  0  0
 34 32  1  0  0  0  0
 35 36  1  0  0  0  0
 36 34  1  0  0  0  0
M  END
>  <MODEL>
7

>  <REMARK>
 VINA RESULT:      -7.0      3.265     10.824
  Name = 
  8 active torsions:
  status: ('A' for Active; 'I' for Inactive)
    1  A    between atoms: C_4  and  C_17
    2  A    between atoms: C_4  and  N_36
    3  A    between atoms: N_5  and  C_14
    4  A    between atoms: C_15  and  C_20
    5  A    between atoms: C_23  and  N_28
    6  A    between atoms: C_29  and  C_31
    7  A    between atoms: C_29  and  C_32
    8  A    between atoms: C_31  and  N_36
                            x       y       z     vdW  Elec       q    Type
                         _______ _______ _______ _____ _____    ______ ____

>  <TORSDO>
F 8

$$$$
=
 OpenBabel11072413303D

 36 39  0  0  1  0  0  0  0  0999 V2000
  160.9390  207.5490  152.3280 N   0  0  0  0  0  2  0  0  0  0  0  0
  161.4330  208.6540  151.5660 C   0  0  0  0  0  0  0  0  0  0  0  0
  161.6200  208.5290  150.3250 O   0  0  0  0  0  0  0  0  0  0  0  0
  161.7280  209.8990  152.2180 N   0  0  0  0  0  0  0  0  0  0  0  0
  160.4510  203.5010  152.7530 O   0  0  0  0  0  1  0  0  0  0  0  0
  161.5850  203.8450  152.0160 C   0  0  2  0  0  3  0  0  0  0  0  0
  161.0570  206.3140  148.1260 O   0  0  0  0  0  0  0  0  0  0  0  0
  161.9090  205.9410  150.8000 C   0  0  2  0  0  3  0  0  0  0  0  0
  161.9130  205.3320  152.1910 C   0  0  1  0  0  3  0  0  0  0  0  0
  160.7630  206.2280  151.7530 C   0  0  1  0  0  3  0  0  0  0  0  0
  161.2410  205.1240  148.5050 C   0  0  0  0  0  0  0  0  0  0  0  0
  161.5470  204.8730  149.8870 N   0  0  0  0  0  0  0  0  0  0  0  0
  161.3430  203.5920  150.5400 C   0  0  0  0  0  2  0  0  0  0  0  0
  159.8380  201.3210  144.8870 O   0  0  0  0  0  0  0  0  0  0  0  0
  161.2400  203.2110  145.0280 C   0  0  0  0  0  2  0  0  0  0  0  0
  161.1530  204.0290  147.5050 C   0  0  0  0  0  0  0  0  0  0  0  0
  161.3580  204.3010  146.0540 C   0  0  0  0  0  0  0  0  0  0  0  0
  160.8380  201.5930  147.0040 C   0  0  0  0  0  2  0  0  0  0  0  0
  161.6370  205.4640  145.6580 O   0  0  0  0  0  0  0  0  0  0  0  0
  160.5550  202.0070  145.5950 C   0  0  0  0  0  0  0  0  0  0  0  0
  160.8850  202.7820  147.9190 C   0  0  0  0  0  3  0  0  0  0  0  0
  161.6530  210.0130  153.6700 C   0  0  0  0  0  2  0  0  0  0  0  0
  160.5910  210.9870  154.0540 C   0  0  0  0  0  0  0  0  0  0  0  0
  159.3040  210.9010  153.4290 N   0  0  0  0  0  2  0  0  0  0  0  0
  160.8310  211.8450  154.9450 O   0  0  0  0  0  0  0  0  0  0  0  0
  157.2460  211.2120  154.6960 C   0  0  0  0  0  3  0  0  0  0  0  0
  156.7570  213.6590  153.4370 C   0  0  0  0  0  3  0  0  0  0  0  0
  155.8640  213.1780  154.3980 C   0  0  0  0  0  3  0  0  0  0  0  0
  157.8940  212.9160  153.1060 C   0  0  0  0  0  3  0  0  0  0  0  0
  158.1440  211.6860  153.7330 C   0  0  0  0  0  0  0  0  0  0  0  0
  156.1090  211.9550  155.0280 C   0  0  0  0  0  3  0  0  0  0  0  0
  162.2040  211.0420  151.4470 C   0  0  0  0  0  2  0  0  0  0  0  0
  160.4580  212.6280  150.6540 C   0  0  0  0  0  1  0  0  0  0  0  0
  161.2350  211.3700  150.3190 C   0  0  1  0  0  3  0  0  0  0  0  0
  162.0120  212.8630  148.5960 O   0  0  0  0  0  1  0  0  0  0  0  0
  161.9560  211.5220  148.9840 C   0  0  0  0  0  2  0  0  0  0  0  0
  2  4  1  0  0  0  0
  2  1  1  0  0  0  0
  3  2  2  0  0  0  0
  4 22  1  0  0  0  0
  6  9  1  0  0  0  0
  6  5  1  1  0  0  0
  7 11  2  0  0  0  0
  8 12  1  6  0  0  0
  8 10  1  0  0  0  0
  8  9  1  0  0  0  0
 10  9  1  0  0  0  0
 10  1  1  0  0  0  0
 11 12  1  0  0  0  0
 12 13  1  0  0  0  0
 13  6  1  0  0  0  0
 14 20  2  0  0  0  0
 15 20  1  0  0  0  0
 15 17  1  0  0  0  0
 16 21  2  0  0  0  0
 16 11  1  0  0  0  0
 17 16  1  0  0  0  0
 18 21  1  0  0  0  0
 19 17  2  0  0  0  0
 20 18  1  0  0  0  0
 22 23  1  0  0  0  0
 23 25  2  0  0  0  0
 24 30  1  0  0  0  0
 24 23  1  0  0  0  0
 26 31  1  0  0  0  0
 27 28  1  0  0  0  0
 28 31  2  0  0  0  0
 29 27  2  0  0  0  0
 29 30  1  0  0  0  0
 30 26  2  0  0  0  0
 32  4  1  0  0  0  0
 34 33  1  0  0  0  0
 34 32  1  0  0  0  0
 35 36  1  0  0  0  0
 36 34  1  0  0  0  0
M  END
>  <MODEL>
8

>  <REMARK>
 VINA RESULT:      -6.7      2.056      3.406
  Name = 
  8 active torsions:
  status: ('A' for Active; 'I' for Inactive)
    1  A    between atoms: C_4  and  C_17
    2  A    between atoms: C_4  and  N_36
    3  A    between atoms: N_5  and  C_14
    4  A    between atoms: C_15  and  C_20
    5  A    between atoms: C_23  and  N_28
    6  A    between atoms: C_29  and  C_31
    7  A    between atoms: C_29  and  C_32
    8  A    between atoms: C_31  and  N_36
                            x       y       z     vdW  Elec       q    Type
                         _______ _______ _______ _____ _____    ______ ____

>  <TORSDO>
F 8

$$$$
=
 OpenBabel11072413303D

 36 39  0  0  1  0  0  0  0  0999 V2000
  161.6210  206.1410  152.7280 N   0  0  0  0  0  2  0  0  0  0  0  0
  161.2120  206.4360  151.3890 C   0  0  0  0  0  0  0  0  0  0  0  0
  160.8270  207.6000  151.0910 O   0  0  0  0  0  0  0  0  0  0  0  0
  161.2250  205.4030  150.3910 N   0  0  0  0  0  0  0  0  0  0  0  0
  161.8680  207.1050  156.7040 O   0  0  0  0  0  1  0  0  0  0  0  0
  160.5920  207.2910  156.1700 C   0  0  2  0  0  3  0  0  0  0  0  0
  160.0610  210.2340  152.6270 O   0  0  0  0  0  0  0  0  0  0  0  0
  160.0790  207.6620  153.8090 C   0  0  2  0  0  3  0  0  0  0  0  0
  160.4670  206.5910  154.8130 C   0  0  1  0  0  3  0  0  0  0  0  0
  161.4900  207.1020  153.8080 C   0  0  1  0  0  3  0  0  0  0  0  0
  159.9060  210.1820  153.8780 C   0  0  0  0  0  0  0  0  0  0  0  0
  160.0370  208.9140  154.5430 N   0  0  0  0  0  0  0  0  0  0  0  0
  160.3270  208.7690  155.9580 C   0  0  0  0  0  2  0  0  0  0  0  0
  158.1720  214.0630  157.2610 O   0  0  0  0  0  0  0  0  0  0  0  0
  160.2000  213.2530  156.3730 C   0  0  0  0  0  2  0  0  0  0  0  0
  159.5750  211.4280  154.6150 C   0  0  0  0  0  0  0  0  0  0  0  0
  160.5320  212.0110  155.5970 C   0  0  0  0  0  0  0  0  0  0  0  0
  157.9930  213.3280  155.0290 C   0  0  0  0  0  2  0  0  0  0  0  0
  161.6510  211.4670  155.7960 O   0  0  0  0  0  0  0  0  0  0  0  0
  158.7360  213.5560  156.3070 C   0  0  0  0  0  0  0  0  0  0  0  0
  158.4000  212.0320  154.3890 C   0  0  0  0  0  3  0  0  0  0  0  0
  161.5310  204.0240  150.7550 C   0  0  0  0  0  2  0  0  0  0  0  0
  160.9440  203.0870  149.7550 C   0  0  0  0  0  0  0  0  0  0  0  0
  161.6110  202.8970  148.5000 N   0  0  0  0  0  2  0  0  0  0  0  0
  159.8940  202.4530  150.0410 O   0  0  0  0  0  0  0  0  0  0  0  0
  161.5690  200.6250  147.6200 C   0  0  0  0  0  3  0  0  0  0  0  0
  160.2250  201.4650  145.3190 C   0  0  0  0  0  3  0  0  0  0  0  0
  160.5500  200.1160  145.4830 C   0  0  0  0  0  3  0  0  0  0  0  0
  160.5710  202.3930  146.3050 C   0  0  0  0  0  3  0  0  0  0  0  0
  161.2480  201.9780  147.4610 C   0  0  0  0  0  0  0  0  0  0  0  0
  161.2210  199.6970  146.6350 C   0  0  0  0  0  3  0  0  0  0  0  0
  160.8390  205.6980  149.0170 C   0  0  0  0  0  2  0  0  0  0  0  0
  162.3290  205.6860  147.0240 C   0  0  0  0  0  1  0  0  0  0  0  0
  161.9570  206.4330  148.2900 C   0  0  1  0  0  3  0  0  0  0  0  0
  162.3720  208.7750  148.6750 O   0  0  0  0  0  1  0  0  0  0  0  0
  161.5700  207.8730  147.9710 C   0  0  0  0  0  2  0  0  0  0  0  0
  1 10  1  0  0  0  0
  2  1  1  0  0  0  0
  3  2  2  0  0  0  0
  4 22  1  0  0  0  0
  4  2  1  0  0  0  0
  6  5  1  6  0  0  0
  7 11  2  0  0  0  0
  8 12  1  1  0  0  0
  8  9  1  0  0  0  0
  9  6  1  0  0  0  0
 10  8  1  0  0  0  0
 10  9  1  0  0  0  0
 11 12  1  0  0  0  0
 11 16  1  0  0  0  0
 12 13  1  0  0  0  0
 13  6  1  0  0  0  0
 16 17  1  0  0  0  0
 17 19  2  0  0  0  0
 17 15  1  0  0  0  0
 18 20  1  0  0  0  0
 20 15  1  0  0  0  0
 20 14  2  0  0  0  0
 21 16  2  0  0  0  0
 21 18  1  0  0  0  0
 23 25  2  0  0  0  0
 23 22  1  0  0  0  0
 24 23  1  0  0  0  0
 27 28  2  0  0  0  0
 27 29  1  0  0  0  0
 28 31  1  0  0  0  0
 29 30  2  0  0  0  0
 30 26  1  0  0  0  0
 30 24  1  0  0  0  0
 31 26  2  0  0  0  0
 32  4  1  0  0  0  0
 33 34  1  0  0  0  0
 34 32  1  0  0  0  0
 36 34  1  0  0  0  0
 36 35  1  0  0  0  0
M  END
>  <MODEL>
9

>  <REMARK>
 VINA RESULT:      -6.4      2.851     10.220
  Name = 
  8 active torsions:
  status: ('A' for Active; 'I' for Inactive)
    1  A    between atoms: C_4  and  C_17
    2  A    between atoms: C_4  and  N_36
    3  A    between atoms: N_5  and  C_14
    4  A    between atoms: C_15  and  C_20
    5  A    between atoms: C_23  and  N_28
    6  A    between atoms: C_29  and  C_31
    7  A    between atoms: C_29  and  C_32
    8  A    between atoms: C_31  and  N_36
                            x       y       z     vdW  Elec       q    Type
                         _______ _______ _______ _____ _____    ______ ____

>  <TORSDO>
F 8

$$$$
