=
 OpenBabel11072413413D

 67 73  0  0  1  0  0  0  0  0999 V2000
  159.7570  206.4460  149.8580 C   0  0  0  0  0  2  0  0  0  0  0  0
  161.5290  206.0180  151.8210 C   0  0  1  0  0  0  0  0  0  0  0  0
  160.0640  205.8060  151.2520 C   0  0  0  0  0  0  0  0  0  0  0  0
  162.0160  210.0220  152.2660 C   0  0  0  0  0  3  0  0  0  0  0  0
  161.2090  208.1950  150.7980 C   0  0  1  0  0  3  0  0  0  0  0  0
  161.9870  209.2570  153.6130 C   0  0  2  0  0  3  0  0  0  0  0  0
  160.8340  207.4790  149.4910 C   0  0  1  0  0  0  0  0  0  0  0  0
  162.2700  206.8330  149.5330 C   0  0  0  0  0  2  0  0  0  0  0  0
  159.1520  204.9660  151.8200 C   0  0  0  0  0  2  0  0  0  0  0  0
  162.2710  207.1430  151.0330 C   0  0  2  0  0  3  0  0  0  0  0  0
  161.4500  206.5190  153.2850 C   0  0  0  0  0  3  0  0  0  0  0  0
  161.6780  207.7220  153.8770 C   0  0  0  0  0  3  0  0  0  0  0  0
  160.5660  208.3200  148.4110 O   0  0  0  0  0  1  0  0  0  0  0  0
  161.7570  209.6110  150.9930 C   0  0  0  0  0  0  0  0  0  0  0  0
  162.0420  210.5880  149.8860 C   0  0  0  0  0  0  0  0  0  0  0  0
  163.1250  210.3660  148.9740 C   0  0  0  0  0  3  0  0  0  0  0  0
  163.5700  211.3740  148.0970 C   0  0  0  0  0  3  0  0  0  0  0  0
  161.3110  211.8180  149.7540 C   0  0  0  0  0  0  0  0  0  0  0  0
  161.8610  212.8230  148.9760 C   0  0  0  0  0  3  0  0  0  0  0  0
  163.0040  212.6600  148.1850 C   0  0  0  0  0  0  0  0  0  0  0  0
  157.4600  212.4500  153.3040 C   0  0  0  0  0  3  0  0  0  0  0  0
  159.3380  213.1430  149.9850 O   0  0  0  0  0  0  0  0  0  0  0  0
  160.5540  211.1770  152.9860 C   0  0  0  0  0  2  0  0  0  0  0  0
  156.2850  213.3200  149.7250 C   0  0  0  0  0  2  0  0  0  0  0  0
  155.5550  214.1140  151.8470 O   0  0  0  0  0  1  0  0  0  0  0  0
  158.6060  212.6510  148.8470 C   0  0  1  0  0  3  0  0  0  0  0  0
  157.4060  213.5800  148.7160 C   0  0  0  0  0  2  0  0  0  0  0  0
  157.1650  212.2810  151.8060 C   0  0  0  0  0  2  0  0  0  0  0  0
  160.4790  212.3430  152.0040 C   0  0  0  0  0  0  0  0  0  0  0  0
  160.4200  213.5030  152.4280 O   0  0  0  0  0  0  0  0  0  0  0  0
  159.1480  210.6460  153.2640 C   0  0  0  0  0  2  0  0  0  0  0  0
  158.3660  211.7110  153.9670 C   0  0  0  0  0  3  0  0  0  0  0  0
  160.0620  212.0630  150.5720 C   0  0  2  0  0  3  0  0  0  0  0  0
  156.6740  213.5910  151.1630 C   0  0  1  0  0  3  0  0  0  0  0  0
  159.3980  212.7630  147.5540 C   0  0  0  0  0  3  0  0  0  0  0  0
  159.6280  213.8520  147.0390 O   0  0  0  0  0  0  0  0  0  0  0  0
  163.5170  213.7930  147.3900 C   0  0  0  0  0  0  0  0  0  0  0  0
  164.5040  214.4530  147.8750 O   0  0  0  0  0  1  0  0  0  0  0  0
  162.9820  214.1580  146.1740 O   0  0  0  0  0  0  0  0  0  0  0  0
  162.3650  204.7730  151.7260 N   0  0  0  0  0  2  0  0  0  0  0  0
  161.6080  203.4620  151.6750 C   0  0  1  0  0  3  0  0  0  0  0  0
  161.6790  201.0760  149.7370 O   0  0  0  0  0  1  0  0  0  0  0  0
  160.5080  201.7900  150.0860 C   0  0  1  0  0  3  0  0  0  0  0  0
  160.8150  203.2770  150.3400 C   0  0  2  0  0  3  0  0  0  0  0  0
  159.5360  201.7280  149.0790 O   0  0  0  0  0  0  0  0  0  0  0  0
  161.5220  203.8420  149.0610 C   0  0  0  0  0  2  0  0  0  0  0  0
  160.1300  201.9230  147.8060 C   0  0  1  0  0  3  0  0  0  0  0  0
  161.1480  203.1310  147.7010 C   0  0  2  0  0  3  0  0  0  0  0  0
  160.4790  200.5450  147.1790 C   0  0  0  0  0  2  0  0  0  0  0  0
  160.3880  200.6690  145.6190 C   0  0  0  0  0  2  0  0  0  0  0  0
  160.7170  198.2720  145.7610 C   0  0  1  0  0  3  0  0  0  0  0  0
  160.3000  197.1450  145.0750 O   0  0  0  0  0  1  0  0  0  0  0  0
  162.0760  198.7120  145.2400 C   0  0  0  0  0  2  0  0  0  0  0  0
  160.8070  199.4500  144.7730 C   0  0  2  0  0  3  0  0  0  0  0  0
  162.3880  202.8690  146.7910 C   0  0  0  0  0  2  0  0  0  0  0  0
  162.3620  203.7030  145.5780 N   0  0  0  0  0  2  0  0  0  0  0  0
  163.9390  205.4440  145.8650 O   0  0  0  0  0  1  0  0  0  0  0  0
  162.5850  205.1020  146.0040 C   0  0  1  0  0  3  0  0  0  0  0  0
  161.7500  206.1130  145.2120 C   0  0  0  0  0  2  0  0  0  0  0  0
  161.0350  205.3960  144.1020 C   0  0  0  0  0  0  0  0  0  0  0  0
  161.4240  205.6340  142.7850 O   0  0  0  0  0  0  0  0  0  0  0  0
  160.2390  204.4350  144.3840 O   0  0  0  0  0  1  0  0  0  0  0  0
  162.5270  202.3160  152.0030 C   0  0  0  0  0  3  0  0  0  0  0  0
  163.7380  202.3710  151.8340 O   0  0  0  0  0  0  0  0  0  0  0  0
  161.1470  210.0230  154.6810 C   0  0  0  0  0  2  0  0  0  0  0  0
  162.8520  210.3480  156.1200 C   0  0  0  0  0  1  0  0  0  0  0  0
  161.8690  211.0300  155.3890 O   0  0  0  0  0  0  0  0  0  0  0  0
  1  3  1  0  0  0  0
  2 40  1  6  0  0  0
  2 11  1  0  0  0  0
  3  9  2  0  0  0  0
  3  2  1  0  0  0  0
  4  6  1  0  0  0  0
  5 14  1  6  0  0  0
  5 10  1  0  0  0  0
  6 12  1  0  0  0  0
  6 65  1  1  0  0  0
  7 13  1  6  0  0  0
  7  8  1  0  0  0  0
  7  1  1  0  0  0  0
  7  5  1  0  0  0  0
 10  8  1  6  0  0  0
 10  2  1  0  0  0  0
 11 12  2  0  0  0  0
 14  4  2  0  0  0  0
 15 14  1  0  0  0  0
 16 15  2  0  0  0  0
 17 20  2  0  0  0  0
 17 16  1  0  0  0  0
 18 15  1  0  0  0  0
 19 18  2  0  0  0  0
 20 19  1  0  0  0  0
 21 32  2  0  0  0  0
 22 33  1  0  0  0  0
 23 31  1  0  0  0  0
 24 34  1  0  0  0  0
 26 35  1  6  0  0  0
 26 22  1  0  0  0  0
 27 26  1  0  0  0  0
 27 24  1  0  0  0  0
 28 21  1  0  0  0  0
 29 30  2  0  0  0  0
 29 23  1  0  0  0  0
 31 32  1  0  0  0  0
 33 18  1  6  0  0  0
 33 29  1  0  0  0  0
 34 28  1  0  0  0  0
 34 25  1  1  0  0  0
 36 35  2  0  0  0  0
 37 38  1  0  0  0  0
 37 20  1  0  0  0  0
 39 37  2  0  0  0  0
 41 40  1  0  0  0  0
 41 63  1  6  0  0  0
 43 42  1  6  0  0  0
 43 44  1  0  0  0  0
 44 41  1  1  0  0  0
 45 43  1  0  0  0  0
 46 44  1  0  0  0  0
 47 49  1  1  0  0  0
 47 45  1  0  0  0  0
 48 55  1  1  0  0  0
 48 47  1  0  0  0  0
 48 46  1  0  0  0  0
 50 49  1  0  0  0  0
 51 52  1  6  0  0  0
 53 51  1  0  0  0  0
 54 53  1  0  0  0  0
 54 50  1  1  0  0  0
 54 51  1  0  0  0  0
 56 58  1  0  0  0  0
 56 55  1  0  0  0  0
 58 57  1  6  0  0  0
 59 58  1  0  0  0  0
 60 62  1  0  0  0  0
 60 59  1  0  0  0  0
 61 60  2  0  0  0  0
 64 63  2  0  0  0  0
 65 67  1  0  0  0  0
 67 66  1  0  0  0  0
M  END
>  <MODEL>
1

>  <REMARK>
 VINA RESULT:       6.5      0.000      0.000
  Name = 
  18 active torsions:
  status: ('A' for Active; 'I' for Inactive)
    1  A    between atoms: C_2  and  C_65
    2  A    between atoms: C_4  and  N_43
    3  A    between atoms: C_13  and  N_47
    4  A    between atoms: C_13  and  C_55
    5  A    between atoms: C_14  and  C_29
    6  A    between atoms: C_15  and  C_18
    7  A    between atoms: C_15  and  O_63
    8  A    between atoms: C_20  and  CA_46
    9  A    between atoms: C_22  and  C_36
   10  A    between atoms: C_22  and  C_66
   11  A    between atoms: C_23  and  C_59
   12  A    between atoms: C_28  and  C_33
   13  A    between atoms: C_33  and  C_67
   14  A    between atoms: C_36  and  C_52
   15  A    between atoms: C_39  and  C_62
   16  A    between atoms: C_41  and  CA_46
   17  A    between atoms: N_43  and  CA_46
   18  A    between atoms: N_47  and  C_67
                            x       y       z     vdW  Elec       q    Type
                         _______ _______ _______ _____ _____    ______ ____

>  <TORSDO>
F 18

$$$$
=
 OpenBabel11072413413D

 67 75  0  0  1  0  0  0  0  0999 V2000
  162.0620  206.9740  152.6900 C   0  0  0  0  0  2  0  0  0  0  0  0
  161.2180  207.5590  150.2160 C   0  0  1  0  0  0  0  0  0  0  0  0
  162.2040  206.7410  151.1500 C   0  0  0  0  0  0  0  0  0  0  0  0
  162.0270  211.4850  150.8580 C   0  0  1  0  0  0  0  0  0  0  0  0
  161.6440  209.2630  151.8900 C   0  0  1  0  0  3  0  0  0  0  0  0
  162.4090  211.0070  149.4350 C   0  0  2  0  0  3  0  0  0  0  0  0
  161.2430  208.2440  152.9680 C   0  0  1  0  0  0  0  0  0  0  0  0
  159.8390  208.1740  152.2580 C   0  0  0  0  0  2  0  0  0  0  0  0
  163.0150  205.7430  150.6940 C   0  0  0  0  0  2  0  0  0  0  0  0
  160.5400  208.7200  151.0110 C   0  0  2  0  0  3  0  0  0  0  0  0
  162.0250  208.2460  149.0840 C   0  0  0  0  0  3  0  0  0  0  0  0
  162.3860  209.5340  148.8410 C   0  0  0  0  0  3  0  0  0  0  0  0
  161.2500  208.7310  154.2760 O   0  0  0  0  0  1  0  0  0  0  0  0
  161.6190  210.7920  151.9590 C   0  0  2  0  0  3  0  0  0  0  0  0
  161.1680  211.5970  153.1460 C   0  0  0  0  0  0  0  0  0  0  0  0
  161.7250  211.3630  154.4460 C   0  0  0  0  0  3  0  0  0  0  0  0
  161.1500  211.9160  155.6060 C   0  0  0  0  0  3  0  0  0  0  0  0
  160.1050  212.5590  153.0490 C   0  0  0  0  0  0  0  0  0  0  0  0
  159.4910  212.9730  154.2200 C   0  0  0  0  0  3  0  0  0  0  0  0
  159.9450  212.6350  155.5000 C   0  0  0  0  0  0  0  0  0  0  0  0
  159.0540  213.8720  148.0490 C   0  0  0  0  0  3  0  0  0  0  0  0
  158.2190  212.5230  151.5850 O   0  0  0  0  0  0  0  0  0  0  0  0
  161.6320  213.2560  150.1140 C   0  0  2  0  0  3  0  0  0  0  0  0
  155.9100  214.0740  150.2890 C   0  0  0  0  0  2  0  0  0  0  0  0
  156.1450  213.6490  147.9580 O   0  0  0  0  0  1  0  0  0  0  0  0
  157.3590  213.4230  152.3080 C   0  0  1  0  0  3  0  0  0  0  0  0
  156.0060  213.3210  151.6170 C   0  0  0  0  0  2  0  0  0  0  0  0
  158.1390  214.2930  149.2090 C   0  0  0  0  0  2  0  0  0  0  0  0
  160.4740  212.4040  150.6260 C   0  0  1  0  0  0  0  0  0  0  0  0
  160.0780  211.4380  149.9620 O   0  0  0  0  0  1  0  0  0  0  0  0
  161.0870  214.4480  149.3290 C   0  0  0  0  0  2  0  0  0  0  0  0
  160.3950  213.9380  148.1040 C   0  0  0  0  0  3  0  0  0  0  0  0
  159.5660  212.9780  151.6990 C   0  0  2  0  0  3  0  0  0  0  0  0
  156.8060  213.5220  149.1990 C   0  0  1  0  0  3  0  0  0  0  0  0
  157.1550  212.9960  153.7530 C   0  0  0  0  0  3  0  0  0  0  0  0
  156.4450  212.0370  154.0400 O   0  0  0  0  0  0  0  0  0  0  0  0
  159.2210  213.1250  156.6900 C   0  0  0  0  0  0  0  0  0  0  0  0
  158.4020  212.3150  157.2540 O   0  0  0  0  0  1  0  0  0  0  0  0
  159.3920  214.3920  157.2010 O   0  0  0  0  0  0  0  0  0  0  0  0
  160.1230  206.7010  149.6470 N   0  0  0  0  0  2  0  0  0  0  0  0
  160.5320  205.3180  149.1830 C   0  0  1  0  0  3  0  0  0  0  0  0
  159.7880  205.4580  146.2030 O   0  0  0  0  0  1  0  0  0  0  0  0
  160.8650  206.1610  146.7940 C   0  0  1  0  0  3  0  0  0  0  0  0
  161.4910  205.3570  147.9480 C   0  0  2  0  0  3  0  0  0  0  0  0
  161.8830  206.4320  145.8700 O   0  0  0  0  0  0  0  0  0  0  0  0
  161.9070  203.9580  147.3820 C   0  0  0  0  0  2  0  0  0  0  0  0
  162.1400  205.2930  145.0680 C   0  0  1  0  0  3  0  0  0  0  0  0
  162.2700  203.9200  145.8450 C   0  0  2  0  0  3  0  0  0  0  0  0
  161.3030  205.3790  143.7610 C   0  0  0  0  0  2  0  0  0  0  0  0
  162.0790  206.2670  142.7280 C   0  0  0  0  0  2  0  0  0  0  0  0
  162.9190  206.7170  140.5000 C   0  0  1  0  0  3  0  0  0  0  0  0
  163.0880  206.0200  139.3170 O   0  0  0  0  0  1  0  0  0  0  0  0
  161.6000  207.4740  140.4630 C   0  0  0  0  0  2  0  0  0  0  0  0
  161.6940  206.1480  141.2410 C   0  0  2  0  0  3  0  0  0  0  0  0
  161.6620  202.6860  145.1080 C   0  0  0  0  0  2  0  0  0  0  0  0
  160.2660  202.4420  145.5110 N   0  0  0  0  0  2  0  0  0  0  0  0
  159.8990  200.4260  144.3270 O   0  0  0  0  0  1  0  0  0  0  0  0
  160.0880  200.9760  145.6040 C   0  0  1  0  0  3  0  0  0  0  0  0
  161.2760  200.2660  146.2620 C   0  0  0  0  0  2  0  0  0  0  0  0
  161.2010  200.4610  147.7490 C   0  0  0  0  0  0  0  0  0  0  0  0
  162.1970  199.9090  148.5540 O   0  0  0  0  0  1  0  0  0  0  0  0
  160.3590  201.2940  148.2330 O   0  0  0  0  0  0  0  0  0  0  0  0
  161.0600  204.5150  150.3410 C   0  0  0  0  0  3  0  0  0  0  0  0
  160.8130  203.3240  150.4860 O   0  0  0  0  0  0  0  0  0  0  0  0
  163.7840  211.5950  148.9920 C   0  0  0  0  0  2  0  0  0  0  0  0
  163.1660  212.4320  146.9920 C   0  0  0  0  0  1  0  0  0  0  0  0
  163.6950  212.8010  148.2360 O   0  0  0  0  0  0  0  0  0  0  0  0
  1  7  1  0  0  0  0
  2 40  1  6  0  0  0
  2 10  1  0  0  0  0
  2  3  1  0  0  0  0
  3  1  1  0  0  0  0
  4 14  1  0  0  0  0
  5 14  1  0  0  0  0
  5  7  1  0  0  0  0
  6  4  1  0  0  0  0
  7 13  1  0  0  0  0
  8  7  1  0  0  0  0
  9  3  2  0  0  0  0
 10  5  1  0  0  0  0
 10  8  1  0  0  0  0
 11  2  1  0  0  0  0
 12 11  2  0  0  0  0
 12  6  1  0  0  0  0
 14 15  1  0  0  0  0
 15 16  1  0  0  0  0
 16 17  2  0  0  0  0
 18 15  2  0  0  0  0
 18 19  1  0  0  0  0
 19 20  2  0  0  0  0
 20 17  1  0  0  0  0
 20 37  1  0  0  0  0
 21 32  2  0  0  0  0
 21 28  1  0  0  0  0
 22 33  1  0  0  0  0
 22 26  1  0  0  0  0
 23 29  1  0  0  0  0
 23  4  1  0  0  0  0
 24 27  1  0  0  0  0
 25 34  1  0  0  0  0
 26 35  1  0  0  0  0
 27 26  1  0  0  0  0
 29  4  1  0  0  0  0
 29 33  1  0  0  0  0
 30 29  1  0  0  0  0
 31 23  1  0  0  0  0
 32 31  1  0  0  0  0
 33 18  1  0  0  0  0
 34 28  1  0  0  0  0
 34 24  1  0  0  0  0
 35 36  2  0  0  0  0
 37 39  2  0  0  0  0
 37 38  1  0  0  0  0
 41 40  1  0  0  0  0
 41 63  1  0  0  0  0
 42 43  1  0  0  0  0
 43 44  1  0  0  0  0
 44 41  1  0  0  0  0
 45 43  1  0  0  0  0
 46 44  1  0  0  0  0
 47 48  1  0  0  0  0
 47 45  1  0  0  0  0
 48 46  1  0  0  0  0
 49 47  1  0  0  0  0
 50 49  1  0  0  0  0
 51 54  1  0  0  0  0
 52 51  1  0  0  0  0
 53 51  1  0  0  0  0
 53 54  1  0  0  0  0
 54 50  1  0  0  0  0
 55 56  1  0  0  0  0
 55 48  1  0  0  0  0
 56 58  1  0  0  0  0
 57 58  1  0  0  0  0
 58 59  1  0  0  0  0
 59 60  1  0  0  0  0
 60 62  2  0  0  0  0
 60 61  1  0  0  0  0
 63 64  2  0  0  0  0
 65  6  1  0  0  0  0
 66 67  1  0  0  0  0
 67 65  1  0  0  0  0
M  END
>  <MODEL>
2

>  <REMARK>
 VINA RESULT:       6.6      2.039      5.676
  Name = 
  18 active torsions:
  status: ('A' for Active; 'I' for Inactive)
    1  A    between atoms: C_2  and  C_65
    2  A    between atoms: C_4  and  N_43
    3  A    between atoms: C_13  and  N_47
    4  A    between atoms: C_13  and  C_55
    5  A    between atoms: C_14  and  C_29
    6  A    between atoms: C_15  and  C_18
    7  A    between atoms: C_15  and  O_63
    8  A    between atoms: C_20  and  CA_46
    9  A    between atoms: C_22  and  C_36
   10  A    between atoms: C_22  and  C_66
   11  A    between atoms: C_23  and  C_59
   12  A    between atoms: C_28  and  C_33
   13  A    between atoms: C_33  and  C_67
   14  A    between atoms: C_36  and  C_52
   15  A    between atoms: C_39  and  C_62
   16  A    between atoms: C_41  and  CA_46
   17  A    between atoms: N_43  and  CA_46
   18  A    between atoms: N_47  and  C_67
                            x       y       z     vdW  Elec       q    Type
                         _______ _______ _______ _____ _____    ______ ____

>  <TORSDO>
F 18

$$$$
=
 OpenBabel11072413413D

 67 73  0  0  1  0  0  0  0  0999 V2000
  161.2370  207.6960  149.7610 C   0  0  0  0  0  2  0  0  0  0  0  0
  161.2040  205.6020  151.4320 C   0  0  1  0  0  0  0  0  0  0  0  0
  160.5220  206.3880  150.2350 C   0  0  0  0  0  0  0  0  0  0  0  0
  161.1980  208.1260  154.6100 C   0  0  0  0  0  3  0  0  0  0  0  0
  161.6340  207.8690  152.1830 C   0  0  1  0  0  3  0  0  0  0  0  0
  160.2710  206.9000  154.8020 C   0  0  2  0  0  3  0  0  0  0  0  0
  162.2600  208.1600  150.8100 C   0  0  1  0  0  0  0  0  0  0  0  0
  163.2920  207.0150  151.1330 C   0  0  0  0  0  2  0  0  0  0  0  0
  159.4790  205.8920  149.5090 C   0  0  0  0  0  2  0  0  0  0  0  0
  162.2670  206.4950  152.1450 C   0  0  2  0  0  3  0  0  0  0  0  0
  160.1410  205.2770  152.5120 C   0  0  0  0  0  3  0  0  0  0  0  0
  159.8880  205.7700  153.7540 C   0  0  0  0  0  3  0  0  0  0  0  0
  162.7870  209.4430  150.6590 O   0  0  0  0  0  1  0  0  0  0  0  0
  161.8810  208.5750  153.5190 C   0  0  0  0  0  0  0  0  0  0  0  0
  162.8300  209.7220  153.7280 C   0  0  0  0  0  0  0  0  0  0  0  0
  164.2100  209.6100  153.3580 C   0  0  0  0  0  3  0  0  0  0  0  0
  165.1640  210.5610  153.7680 C   0  0  0  0  0  3  0  0  0  0  0  0
  162.4210  210.9330  154.3860 C   0  0  0  0  0  0  0  0  0  0  0  0
  163.4070  211.7700  154.8810 C   0  0  0  0  0  3  0  0  0  0  0  0
  164.7740  211.5920  154.6420 C   0  0  0  0  0  0  0  0  0  0  0  0
  157.5460  211.7370  156.2350 C   0  0  0  0  0  3  0  0  0  0  0  0
  160.4810  212.1670  153.7410 O   0  0  0  0  0  0  0  0  0  0  0  0
  160.5630  210.6050  157.1910 C   0  0  0  0  0  2  0  0  0  0  0  0
  157.7240  212.1510  152.3960 C   0  0  0  0  0  2  0  0  0  0  0  0
  156.2720  213.1290  154.0090 O   0  0  0  0  0  1  0  0  0  0  0  0
  160.2120  211.5170  152.4850 C   0  0  1  0  0  3  0  0  0  0  0  0
  159.1280  212.3600  151.8260 C   0  0  0  0  0  2  0  0  0  0  0  0
  157.8100  211.3920  154.7620 C   0  0  0  0  0  2  0  0  0  0  0  0
  160.8320  211.6530  156.1140 C   0  0  0  0  0  0  0  0  0  0  0  0
  160.6110  212.8470  156.3460 O   0  0  0  0  0  0  0  0  0  0  0  0
  159.1570  210.0330  157.0140 C   0  0  0  0  0  2  0  0  0  0  0  0
  158.1620  211.1240  157.2610 C   0  0  0  0  0  3  0  0  0  0  0  0
  160.9590  211.1970  154.6720 C   0  0  2  0  0  3  0  0  0  0  0  0
  157.5670  212.5970  153.8350 C   0  0  1  0  0  3  0  0  0  0  0  0
  161.4140  211.5300  151.5540 C   0  0  0  0  0  3  0  0  0  0  0  0
  161.3230  211.9390  150.4010 O   0  0  0  0  0  0  0  0  0  0  0  0
  165.7510  212.5390  155.2160 C   0  0  0  0  0  0  0  0  0  0  0  0
  165.9280  212.5040  156.4860 O   0  0  0  0  0  1  0  0  0  0  0  0
  166.4600  213.4380  154.4500 O   0  0  0  0  0  0  0  0  0  0  0  0
  161.8990  204.3510  150.9730 N   0  0  0  0  0  2  0  0  0  0  0  0
  161.1970  203.0450  151.2820 C   0  0  1  0  0  3  0  0  0  0  0  0
  162.6270  201.2340  149.2510 O   0  0  0  0  0  1  0  0  0  0  0  0
  161.3070  201.0280  149.7170 C   0  0  1  0  0  3  0  0  0  0  0  0
  160.6010  202.3660  150.0050 C   0  0  2  0  0  3  0  0  0  0  0  0
  160.5250  200.3330  148.7860 O   0  0  0  0  0  0  0  0  0  0  0  0
  160.6660  203.2280  148.7000 C   0  0  0  0  0  2  0  0  0  0  0  0
  160.7420  200.8410  147.4800 C   0  0  1  0  0  3  0  0  0  0  0  0
  160.7260  202.4170  147.3450 C   0  0  2  0  0  3  0  0  0  0  0  0
  161.8440  200.0030  146.7740 C   0  0  0  0  0  2  0  0  0  0  0  0
  161.1530  199.0000  145.7870 C   0  0  0  0  0  2  0  0  0  0  0  0
  159.7780  200.8800  145.1180 C   0  0  1  0  0  3  0  0  0  0  0  0
  159.7740  201.8300  144.1130 O   0  0  0  0  0  1  0  0  0  0  0  0
  158.8770  199.7190  144.7280 C   0  0  0  0  0  2  0  0  0  0  0  0
  160.4040  199.5820  144.5720 C   0  0  2  0  0  3  0  0  0  0  0  0
  161.7610  203.0020  146.3330 C   0  0  0  0  0  2  0  0  0  0  0  0
  162.7140  203.9120  146.9910 N   0  0  0  0  0  2  0  0  0  0  0  0
  163.0630  205.5910  145.3610 O   0  0  0  0  0  1  0  0  0  0  0  0
  162.3840  205.2850  146.5500 C   0  0  1  0  0  3  0  0  0  0  0  0
  160.8850  205.4970  146.3150 C   0  0  0  0  0  2  0  0  0  0  0  0
  160.6630  205.8830  144.8800 C   0  0  0  0  0  0  0  0  0  0  0  0
  160.5100  207.2310  144.5600 O   0  0  0  0  0  1  0  0  0  0  0  0
  160.8280  205.0090  143.9610 O   0  0  0  0  0  0  0  0  0  0  0  0
  162.0960  202.1480  152.0880 C   0  0  0  0  0  3  0  0  0  0  0  0
  163.3160  202.2590  152.0850 O   0  0  0  0  0  0  0  0  0  0  0  0
  158.9180  207.3120  155.4590 C   0  0  0  0  0  2  0  0  0  0  0  0
  160.1550  206.7550  157.2590 C   0  0  0  0  0  1  0  0  0  0  0  0
  158.9370  207.3380  156.8850 O   0  0  0  0  0  0  0  0  0  0  0  0
  1  3  1  0  0  0  0
  1  7  1  0  0  0  0
  2 40  1  6  0  0  0
  2 10  1  0  0  0  0
  2 11  1  0  0  0  0
  3  2  1  0  0  0  0
  4  6  1  0  0  0  0
  5 14  1  1  0  0  0
  6 65  1  6  0  0  0
  7 13  1  6  0  0  0
  7  8  1  0  0  0  0
  7  5  1  0  0  0  0
  9  3  2  0  0  0  0
 10  8  1  6  0  0  0
 10  5  1  0  0  0  0
 11 12  2  0  0  0  0
 12  6  1  0  0  0  0
 14 15  1  0  0  0  0
 14  4  2  0  0  0  0
 15 18  1  0  0  0  0
 16 15  2  0  0  0  0
 16 17  1  0  0  0  0
 17 20  2  0  0  0  0
 18 19  2  0  0  0  0
 20 19  1  0  0  0  0
 20 37  1  0  0  0  0
 21 32  2  0  0  0  0
 22 33  1  0  0  0  0
 24 34  1  0  0  0  0
 26 35  1  6  0  0  0
 26 22  1  0  0  0  0
 27 24  1  0  0  0  0
 27 26  1  0  0  0  0
 28 21  1  0  0  0  0
 29 30  2  0  0  0  0
 29 23  1  0  0  0  0
 31 23  1  0  0  0  0
 31 32  1  0  0  0  0
 33 18  1  6  0  0  0
 33 29  1  0  0  0  0
 34 25  1  6  0  0  0
 34 28  1  0  0  0  0
 36 35  2  0  0  0  0
 37 38  1  0  0  0  0
 39 37  2  0  0  0  0
 40 41  1  0  0  0  0
 41 63  1  6  0  0  0
 43 42  1  6  0  0  0
 43 44  1  0  0  0  0
 44 41  1  1  0  0  0
 45 43  1  0  0  0  0
 46 44  1  0  0  0  0
 47 49  1  1  0  0  0
 47 45  1  0  0  0  0
 48 55  1  1  0  0  0
 48 47  1  0  0  0  0
 48 46  1  0  0  0  0
 50 49  1  0  0  0  0
 51 52  1  6  0  0  0
 53 51  1  0  0  0  0
 54 53  1  0  0  0  0
 54 51  1  0  0  0  0
 54 50  1  1  0  0  0
 55 56  1  0  0  0  0
 58 57  1  6  0  0  0
 58 56  1  0  0  0  0
 59 58  1  0  0  0  0
 60 59  1  0  0  0  0
 61 60  1  0  0  0  0
 62 60  2  0  0  0  0
 64 63  2  0  0  0  0
 65 67  1  0  0  0  0
 67 66  1  0  0  0  0
M  END
>  <MODEL>
3

>  <REMARK>
 VINA RESULT:       7.0      2.170      3.549
  Name = 
  18 active torsions:
  status: ('A' for Active; 'I' for Inactive)
    1  A    between atoms: C_2  and  C_65
    2  A    between atoms: C_4  and  N_43
    3  A    between atoms: C_13  and  N_47
    4  A    between atoms: C_13  and  C_55
    5  A    between atoms: C_14  and  C_29
    6  A    between atoms: C_15  and  C_18
    7  A    between atoms: C_15  and  O_63
    8  A    between atoms: C_20  and  CA_46
    9  A    between atoms: C_22  and  C_36
   10  A    between atoms: C_22  and  C_66
   11  A    between atoms: C_23  and  C_59
   12  A    between atoms: C_28  and  C_33
   13  A    between atoms: C_33  and  C_67
   14  A    between atoms: C_36  and  C_52
   15  A    between atoms: C_39  and  C_62
   16  A    between atoms: C_41  and  CA_46
   17  A    between atoms: N_43  and  CA_46
   18  A    between atoms: N_47  and  C_67
                            x       y       z     vdW  Elec       q    Type
                         _______ _______ _______ _____ _____    ______ ____

>  <TORSDO>
F 18

$$$$
=
 OpenBabel11072413413D

 67 73  0  0  1  0  0  0  0  0999 V2000
  159.7720  206.6730  148.8930 C   0  0  0  0  0  2  0  0  0  0  0  0
  161.2570  206.1140  151.0510 C   0  0  1  0  0  0  0  0  0  0  0  0
  159.8720  205.9790  150.2910 C   0  0  0  0  0  0  0  0  0  0  0  0
  161.8260  210.0810  151.6980 C   0  0  0  0  0  3  0  0  0  0  0  0
  161.1510  208.3330  150.0740 C   0  0  1  0  0  3  0  0  0  0  0  0
  161.5950  209.2760  153.0020 C   0  0  2  0  0  3  0  0  0  0  0  0
  160.9230  207.6730  148.7050 C   0  0  1  0  0  0  0  0  0  0  0  0
  162.3170  206.9690  148.9080 C   0  0  0  0  0  2  0  0  0  0  0  0
  158.8640  205.1600  150.7080 C   0  0  0  0  0  2  0  0  0  0  0  0
  162.1350  207.2320  150.4050 C   0  0  2  0  0  3  0  0  0  0  0  0
  161.0070  206.5730  152.5100 C   0  0  0  0  0  3  0  0  0  0  0  0
  161.2000  207.7470  153.1690 C   0  0  0  0  0  3  0  0  0  0  0  0
  160.8270  208.5580  147.6300 O   0  0  0  0  0  1  0  0  0  0  0  0
  161.7190  209.7200  150.3880 C   0  0  0  0  0  0  0  0  0  0  0  0
  162.1800  210.7180  149.3620 C   0  0  0  0  0  0  0  0  0  0  0  0
  163.3570  210.4750  148.5810 C   0  0  0  0  0  3  0  0  0  0  0  0
  163.9490  211.4890  147.8040 C   0  0  0  0  0  3  0  0  0  0  0  0
  161.5240  211.9840  149.1890 C   0  0  0  0  0  0  0  0  0  0  0  0
  162.2090  212.9870  148.5240 C   0  0  0  0  0  3  0  0  0  0  0  0
  163.4320  212.7970  147.8720 C   0  0  0  0  0  0  0  0  0  0  0  0
  157.3600  212.9670  152.2760 C   0  0  0  0  0  3  0  0  0  0  0  0
  159.4060  213.0670  148.9860 O   0  0  0  0  0  0  0  0  0  0  0  0
  160.5900  212.0530  152.4380 C   0  0  0  0  0  2  0  0  0  0  0  0
  156.3820  212.7910  148.5400 C   0  0  0  0  0  2  0  0  0  0  0  0
  155.4040  213.9760  150.3590 O   0  0  0  0  0  1  0  0  0  0  0  0
  158.8240  212.2280  147.9720 C   0  0  1  0  0  3  0  0  0  0  0  0
  157.5430  212.9390  147.5540 C   0  0  0  0  0  2  0  0  0  0  0  0
  157.2030  212.4050  150.8550 C   0  0  0  0  0  2  0  0  0  0  0  0
  160.4650  212.9290  151.1940 C   0  0  0  0  0  0  0  0  0  0  0  0
  160.2460  214.1400  151.3120 O   0  0  0  0  0  0  0  0  0  0  0  0
  159.2330  211.4340  152.7700 C   0  0  0  0  0  2  0  0  0  0  0  0
  158.2860  212.5290  153.1470 C   0  0  0  0  0  3  0  0  0  0  0  0
  160.1960  212.2610  149.8580 C   0  0  2  0  0  3  0  0  0  0  0  0
  156.6240  213.4490  149.8830 C   0  0  1  0  0  3  0  0  0  0  0  0
  159.6980  212.1220  146.7320 C   0  0  0  0  0  3  0  0  0  0  0  0
  160.1140  213.1230  146.1570 O   0  0  0  0  0  0  0  0  0  0  0  0
  164.0870  213.9300  147.1890 C   0  0  0  0  0  0  0  0  0  0  0  0
  163.4840  214.4360  146.1770 O   0  0  0  0  0  0  0  0  0  0  0  0
  165.2980  214.4490  147.5940 O   0  0  0  0  0  1  0  0  0  0  0  0
  162.0540  204.8400  151.0200 N   0  0  0  0  0  2  0  0  0  0  0  0
  161.2560  203.5560  150.9330 C   0  0  1  0  0  3  0  0  0  0  0  0
  160.4360  204.0740  148.0150 O   0  0  0  0  0  1  0  0  0  0  0  0
  161.7110  203.6120  148.4190 C   0  0  1  0  0  3  0  0  0  0  0  0
  161.6110  202.7130  149.6650 C   0  0  2  0  0  3  0  0  0  0  0  0
  162.3420  202.8680  147.4130 O   0  0  0  0  0  0  0  0  0  0  0  0
  160.6130  201.5520  149.3340 C   0  0  0  0  0  2  0  0  0  0  0  0
  161.4240  201.9710  146.8120 C   0  0  1  0  0  3  0  0  0  0  0  0
  160.5190  201.1410  147.8110 C   0  0  2  0  0  3  0  0  0  0  0  0
  160.7990  202.6340  145.5530 C   0  0  0  0  0  2  0  0  0  0  0  0
  161.8410  203.6350  144.9450 C   0  0  0  0  0  2  0  0  0  0  0  0
  162.4040  205.6490  143.7200 C   0  0  1  0  0  3  0  0  0  0  0  0
  161.7510  206.5690  142.9210 O   0  0  0  0  0  1  0  0  0  0  0  0
  162.4610  206.1630  145.1500 C   0  0  0  0  0  2  0  0  0  0  0  0
  161.4110  205.1040  144.7640 C   0  0  2  0  0  3  0  0  0  0  0  0
  159.0520  200.9100  147.3340 C   0  0  0  0  0  2  0  0  0  0  0  0
  158.9450  200.9330  145.8640 N   0  0  0  0  0  2  0  0  0  0  0  0
  158.2160  199.0760  144.5910 O   0  0  0  0  0  1  0  0  0  0  0  0
  159.2640  199.5700  145.3820 C   0  0  1  0  0  3  0  0  0  0  0  0
  160.5570  199.5100  144.5620 C   0  0  0  0  0  2  0  0  0  0  0  0
  161.4880  198.5100  145.1870 C   0  0  0  0  0  0  0  0  0  0  0  0
  161.8550  198.6720  146.5220 O   0  0  0  0  0  1  0  0  0  0  0  0
  161.7580  197.4260  144.5630 O   0  0  0  0  0  0  0  0  0  0  0  0
  161.3580  202.7900  152.2240 C   0  0  0  0  0  3  0  0  0  0  0  0
  160.8680  201.6770  152.3730 O   0  0  0  0  0  0  0  0  0  0  0  0
  160.6510  210.0420  153.9790 C   0  0  0  0  0  2  0  0  0  0  0  0
  160.3260  209.5850  156.1630 C   0  0  0  0  0  1  0  0  0  0  0  0
  161.1930  210.2480  155.2830 O   0  0  0  0  0  0  0  0  0  0  0  0
  1  3  1  0  0  0  0
  2 40  1  6  0  0  0
  2 11  1  0  0  0  0
  3  9  2  0  0  0  0
  3  2  1  0  0  0  0
  4  6  1  0  0  0  0
  5 14  1  6  0  0  0
  5 10  1  0  0  0  0
  6 12  1  0  0  0  0
  6 65  1  6  0  0  0
  7 13  1  6  0  0  0
  7  1  1  0  0  0  0
  7  8  1  0  0  0  0
  7  5  1  0  0  0  0
 10  8  1  6  0  0  0
 10  2  1  0  0  0  0
 11 12  2  0  0  0  0
 14  4  2  0  0  0  0
 15 14  1  0  0  0  0
 16 15  2  0  0  0  0
 17 20  2  0  0  0  0
 17 16  1  0  0  0  0
 18 15  1  0  0  0  0
 19 18  2  0  0  0  0
 20 19  1  0  0  0  0
 21 32  2  0  0  0  0
 22 33  1  0  0  0  0
 23 31  1  0  0  0  0
 24 34  1  0  0  0  0
 26 35  1  6  0  0  0
 26 22  1  0  0  0  0
 27 26  1  0  0  0  0
 27 24  1  0  0  0  0
 28 21  1  0  0  0  0
 29 30  2  0  0  0  0
 29 23  1  0  0  0  0
 31 32  1  0  0  0  0
 33 18  1  6  0  0  0
 33 29  1  0  0  0  0
 34 25  1  1  0  0  0
 34 28  1  0  0  0  0
 36 35  2  0  0  0  0
 37 39  1  0  0  0  0
 37 20  1  0  0  0  0
 38 37  2  0  0  0  0
 41 40  1  0  0  0  0
 41 63  1  1  0  0  0
 43 42  1  6  0  0  0
 43 44  1  0  0  0  0
 44 41  1  1  0  0  0
 45 43  1  0  0  0  0
 46 44  1  0  0  0  0
 47 49  1  6  0  0  0
 47 45  1  0  0  0  0
 47 48  1  0  0  0  0
 48 55  1  6  0  0  0
 48 46  1  0  0  0  0
 50 49  1  0  0  0  0
 51 52  1  6  0  0  0
 51 54  1  0  0  0  0
 51 53  1  0  0  0  0
 54 50  1  1  0  0  0
 54 53  1  0  0  0  0
 56 55  1  0  0  0  0
 58 57  1  6  0  0  0
 58 56  1  0  0  0  0
 59 60  1  0  0  0  0
 59 58  1  0  0  0  0
 60 61  1  0  0  0  0
 62 60  2  0  0  0  0
 63 64  2  0  0  0  0
 65 67  1  0  0  0  0
 67 66  1  0  0  0  0
M  END
>  <MODEL>
4

>  <REMARK>
 VINA RESULT:       8.7      1.351      3.314
  Name = 
  18 active torsions:
  status: ('A' for Active; 'I' for Inactive)
    1  A    between atoms: C_2  and  C_65
    2  A    between atoms: C_4  and  N_43
    3  A    between atoms: C_13  and  N_47
    4  A    between atoms: C_13  and  C_55
    5  A    between atoms: C_14  and  C_29
    6  A    between atoms: C_15  and  C_18
    7  A    between atoms: C_15  and  O_63
    8  A    between atoms: C_20  and  CA_46
    9  A    between atoms: C_22  and  C_36
   10  A    between atoms: C_22  and  C_66
   11  A    between atoms: C_23  and  C_59
   12  A    between atoms: C_28  and  C_33
   13  A    between atoms: C_33  and  C_67
   14  A    between atoms: C_36  and  C_52
   15  A    between atoms: C_39  and  C_62
   16  A    between atoms: C_41  and  CA_46
   17  A    between atoms: N_43  and  CA_46
   18  A    between atoms: N_47  and  C_67
                            x       y       z     vdW  Elec       q    Type
                         _______ _______ _______ _____ _____    ______ ____

>  <TORSDO>
F 18

$$$$
