=
 OpenBabel11072412503D

 52 57  0  0  1  0  0  0  0  0999 V2000
  161.9820  204.9220  147.7070 C   0  0  1  0  0  3  0  0  0  0  0  0
  162.5330  207.1310  152.4740 C   0  0  0  0  0  2  0  0  0  0  0  0
  159.9910  206.2450  148.2430 N   0  0  0  0  0  0  0  0  0  0  0  0
  161.9190  207.4100  147.7720 C   0  0  0  0  0  3  0  0  0  0  0  0
  160.0560  207.2350  149.0320 N   0  0  0  0  0  0  0  0  0  0  0  0
  161.6930  209.1220  149.5400 C   0  0  0  0  0  0  0  0  0  0  0  0
  161.2390  207.9640  148.7590 C   0  0  0  0  0  0  0  0  0  0  0  0
  161.2410  207.8610  152.8480 C   0  0  1  0  0  3  0  0  0  0  0  0
  161.0690  204.5700  150.9790 C   0  0  0  0  0  2  0  0  0  0  0  0
  162.6530  205.7880  153.1710 C   0  0  0  0  0  2  0  0  0  0  0  0
  162.6810  202.7000  151.0870 C   0  0  0  0  0  2  0  0  0  0  0  0
  161.1100  209.1610  152.0930 C   0  0  0  0  0  0  0  0  0  0  0  0
  161.2250  203.0050  149.0360 C   0  0  2  0  0  3  0  0  0  0  0  0
  162.0570  203.8370  151.7920 N   0  0  1  0  0  0  0  0  0  0  0  0
  161.1600  206.1800  147.3730 C   0  0  1  0  0  3  0  0  0  0  0  0
  160.2830  203.6380  150.0630 C   0  0  0  0  0  2  0  0  0  0  0  0
  163.1300  204.7580  152.1560 C   0  0  0  0  0  2  0  0  0  0  0  0
  162.6650  202.8430  149.5590 C   0  0  0  0  0  2  0  0  0  0  0  0
  161.3780  209.1800  150.8090 C   0  0  0  0  0  0  0  0  0  0  0  0
  161.1220  203.7080  147.7360 N   0  0  2  0  0  0  0  0  0  0  0  0
  159.3670  211.6170  154.3420 C   0  0  2  0  0  3  0  0  0  0  0  0
  159.5540  212.4450  153.0740 C   0  0  0  0  0  3  0  0  0  0  0  0
  160.5020  210.2980  152.7290 N   0  0  0  0  0  0  0  0  0  0  0  0
  159.9600  210.2460  154.0720 C   0  0  0  0  0  2  0  0  0  0  0  0
  160.3200  211.5840  152.0850 C   0  0  0  0  0  3  0  0  0  0  0  0
  158.0030  211.4890  154.6190 O   0  0  0  0  0  0  0  0  0  0  0  0
  158.0460  213.6170  156.1710 O   0  0  0  0  0  0  0  0  0  0  0  0
  157.7830  212.1270  156.1770 P   0  0  0  0  0  0  0  0  0  0  0  0
  158.8690  211.3800  157.2360 O   0  0  0  0  0  1  0  0  0  0  0  0
  156.2030  211.8330  156.7040 O   0  0  0  0  0  1  0  0  0  0  0  0
  164.3270  205.5080  147.5210 F   0  0  0  0  0  0  0  0  0  0  0  0
  163.1250  205.3380  145.6440 F   0  0  0  0  0  0  0  0  0  0  0  0
  163.3060  204.8060  146.9070 C   0  0  0  0  0  0  0  0  0  0  0  0
  163.6860  203.4820  146.7760 F   0  0  0  0  0  0  0  0  0  0  0  0
  161.2190  202.8340  146.5390 C   0  0  2  0  0  0  0  0  0  0  0  0
  160.3900  203.4860  145.4680 C   0  0  0  0  0  2  0  0  0  0  0  0
  159.8220  202.2430  146.0960 C   0  0  2  0  0  0  0  0  0  0  0  0
  160.8060  201.4270  146.8890 C   0  0  0  0  0  2  0  0  0  0  0  0
  159.6180  201.3690  144.8880 C   0  0  0  0  0  0  0  0  0  0  0  0
  160.0250  200.0430  144.9440 O   0  0  0  0  0  1  0  0  0  0  0  0
  159.0900  201.8070  143.8260 O   0  0  0  0  0  0  0  0  0  0  0  0
  162.6870  209.9950  148.9860 N   0  0  0  0  0  2  0  0  0  0  0  0
  161.2790  211.4810  147.3020 O   0  0  0  0  0  0  0  0  0  0  0  0
  163.7950  212.1990  147.6210 N   0  0  0  0  0  1  0  0  0  0  0  0
  161.9200  212.4930  149.4490 O   0  0  0  0  0  0  0  0  0  0  0  0
  162.3570  211.5720  148.3440 S   0  0  0  0  0  0  0  0  0  0  0  0
  160.1290  207.0570  152.5800 O   0  0  0  0  0  0  0  0  0  0  0  0
  159.8150  206.4540  153.8000 C   0  0  0  0  0  2  0  0  0  0  0  0
  160.5450  207.1730  154.9210 C   0  0  0  0  0  2  0  0  0  0  0  0
  159.7360  207.1090  156.2060 C   0  0  0  0  0  2  0  0  0  0  0  0
  161.6600  208.2220  157.0550 O   0  0  0  0  0  1  0  0  0  0  0  0
  160.2830  208.0910  157.2260 C   0  0  0  0  0  2  0  0  0  0  0  0
  1 33  1  6  0  0  0
  1 20  1  0  0  0  0
  2  8  1  0  0  0  0
  2 10  1  0  0  0  0
  3  5  2  0  0  0  0
  4  7  2  0  0  0  0
  6 19  2  0  0  0  0
  7  5  1  0  0  0  0
  7  6  1  0  0  0  0
  8 47  1  6  0  0  0
 11 14  1  0  0  0  0
 12 23  1  0  0  0  0
 12  8  1  0  0  0  0
 13 18  1  1  0  0  0
 13 16  1  0  0  0  0
 14  9  1  6  0  0  0
 14 17  1  0  0  0  0
 15  1  1  0  0  0  0
 15  4  1  1  0  0  0
 15  3  1  0  0  0  0
 16  9  1  0  0  0  0
 17 10  1  0  0  0  0
 18 11  1  0  0  0  0
 19 12  2  0  0  0  0
 20 35  1  6  0  0  0
 20 13  1  0  0  0  0
 21 26  1  6  0  0  0
 22 21  1  0  0  0  0
 23 24  1  0  0  0  0
 24 21  1  0  0  0  0
 25 23  1  0  0  0  0
 25 22  2  0  0  0  0
 26 28  1  0  0  0  0
 27 28  2  0  0  0  0
 28 30  1  0  0  0  0
 28 29  1  0  0  0  0
 32 33  1  0  0  0  0
 33 31  1  0  0  0  0
 34 33  1  0  0  0  0
 35 36  1  6  0  0  0
 35 38  1  0  0  0  0
 36 37  1  0  0  0  0
 37 39  1  6  0  0  0
 37 35  1  0  0  0  0
 37 38  1  0  0  0  0
 39 40  1  0  0  0  0
 41 39  2  0  0  0  0
 42  6  1  0  0  0  0
 43 46  2  0  0  0  0
 44 46  1  0  0  0  0
 46 42  1  0  0  0  0
 46 45  2  0  0  0  0
 47 48  1  0  0  0  0
 48 49  1  0  0  0  0
 49 50  1  0  0  0  0
 50 52  1  0  0  0  0
 51 52  1  0  0  0  0
M  END
>  <MODEL>
1

>  <REMARK>
 VINA RESULT:       2.9      0.000      0.000
  Name = 
  13 active torsions:
  status: ('A' for Active; 'I' for Inactive)
    1  A    between atoms: C_1  and  C_29
    2  A    between atoms: C_4  and  N_51
    3  A    between atoms: C_6  and  C_37
    4  A    between atoms: C_6  and  C_39
    5  A    between atoms: C_8  and  C_28
    6  A    between atoms: C_10  and  N_13
    7  A    between atoms: C_12  and  O_30
    8  A    between atoms: N_13  and  S_52
    9  A    between atoms: C_16  and  O_38
   10  A    between atoms: C_22  and  N_25
   11  A    between atoms: P_27  and  O_38
   12  A    between atoms: O_30  and  C_47
   13  A    between atoms: C_39  and  C_47
                            x       y       z     vdW  Elec       q    Type
                         _______ _______ _______ _____ _____    ______ ____

>  <TORSDO>
F 13

$$$$
