=
 OpenBabel11072411433D

 49 52  0  0  1  0  0  0  0  0999 V2000
  161.5240  208.9300  153.6180 C   0  0  0  0  0  0  0  0  0  0  0  0
  161.6810  209.5460  154.8110 C   0  0  1  0  0  3  0  0  0  0  0  0
  161.6470  206.9530  151.1890 C   0  0  0  0  0  3  0  0  0  0  0  0
  161.5430  208.7900  156.1150 C   0  0  0  0  0  2  0  0  0  0  0  0
  161.7510  209.4580  151.1340 C   0  0  0  0  0  0  0  0  0  0  0  0
  160.5720  206.9120  154.8320 C   0  0  0  0  0  3  0  0  0  0  0  0
  161.1390  206.6990  152.5400 C   0  0  0  0  0  3  0  0  0  0  0  0
  161.9460  208.1000  150.5860 C   0  0  0  0  0  0  0  0  0  0  0  0
  160.2060  206.9460  157.1520 O   0  0  0  0  0  1  0  0  0  0  0  0
  161.6050  209.7760  152.4180 C   0  0  0  0  0  3  0  0  0  0  0  0
  161.0840  207.5090  153.5910 C   0  0  0  0  0  0  0  0  0  0  0  0
  161.7660  210.5170  150.2370 O   0  0  0  0  0  1  0  0  0  0  0  0
  160.7370  207.5210  156.0030 C   0  0  1  0  0  3  0  0  0  0  0  0
  162.4720  207.9820  149.1910 C   0  0  0  0  0  2  0  0  0  0  0  0
  161.3300  207.8730  148.1880 C   0  0  0  0  0  2  0  0  0  0  0  0
  161.6960  204.1320  147.8550 C   0  0  0  0  0  0  0  0  0  0  0  0
  161.2030  205.3250  148.1970 C   0  0  0  0  0  3  0  0  0  0  0  0
  161.4660  205.5250  145.1400 C   0  0  0  0  0  0  0  0  0  0  0  0
  162.6380  203.9800  146.7050 C   0  0  0  0  0  2  0  0  0  0  0  0
  161.9790  204.3230  145.4100 C   0  0  0  0  0  3  0  0  0  0  0  0
  161.4640  206.6530  146.0980 C   0  0  0  0  0  3  0  0  0  0  0  0
  161.3910  206.5820  147.4360 C   0  0  0  0  0  0  0  0  0  0  0  0
  161.3890  202.9860  148.6530 N   0  0  0  0  0  0  0  0  0  0  0  0
  160.8230  201.2020  149.8510 C   0  0  1  0  0  3  0  0  0  0  0  0
  160.9200  201.6050  148.4120 C   0  0  0  0  0  2  0  0  0  0  0  0
  161.3610  202.5960  150.0770 C   0  0  2  0  0  3  0  0  0  0  0  0
  160.4670  203.5370  150.8820 C   0  0  0  0  0  1  0  0  0  0  0  0
  158.4920  200.8280  149.3950 O   0  0  0  0  0  0  0  0  0  0  0  0
  159.3760  200.9570  150.2370 C   0  0  0  0  0  3  0  0  0  0  0  0
  160.9740  205.7860  143.7570 C   0  0  0  0  0  2  0  0  0  0  0  0
  162.0590  205.8320  142.8700 O   0  0  0  0  0  0  0  0  0  0  0  0
  162.3470  206.0720  140.7430 C   0  0  0  0  0  1  0  0  0  0  0  0
  161.6360  206.5550  141.8520 O   0  0  0  0  0  0  0  0  0  0  0  0
  162.0180  210.9070  154.8400 O   0  0  0  0  0  0  0  0  0  0  0  0
  161.2650  211.8880  155.5480 C   0  0  0  0  0  2  0  0  0  0  0  0
  159.9470  212.7050  153.5620 N   0  0  0  0  0  2  0  0  0  0  0  0
  159.9550  212.1410  154.8750 C   0  0  0  0  0  0  0  0  0  0  0  0
  158.8740  211.8250  155.4520 O   0  0  0  0  0  0  0  0  0  0  0  0
  157.7680  211.9360  152.2220 O   0  0  0  0  0  0  0  0  0  0  0  0
  158.4710  213.1710  152.7450 P   0  0  1  0  0  0  0  0  0  0  0  0
  157.4580  213.9790  153.8390 O   0  0  0  0  0  1  0  0  0  0  0  0
  158.8870  214.2740  151.3530 C   0  0  2  0  0  3  0  0  0  0  0  0
  157.7570  214.4530  150.5530 O   0  0  0  0  0  1  0  0  0  0  0  0
  160.0140  213.6920  150.5030 C   0  0  0  0  0  2  0  0  0  0  0  0
  159.9940  214.2360  149.0760 C   0  0  0  0  0  2  0  0  0  0  0  0
  160.2550  213.1310  148.0660 C   0  0  0  0  0  2  0  0  0  0  0  0
  161.6440  212.8970  146.0720 O   0  0  0  0  0  0  0  0  0  0  0  0
  162.4600  213.8990  147.9370 O   0  0  0  0  0  0  0  0  0  0  0  0
  161.4750  213.4240  147.3290 N   0  0  0  0  0  0  0  0  0  0  0  0
  1  2  1  0  0  0  0
  2 34  1  6  0  0  0
  2  4  1  0  0  0  0
  3  7  2  0  0  0  0
  5 10  1  0  0  0  0
  6 13  1  0  0  0  0
  7 11  1  0  0  0  0
  8  5  2  0  0  0  0
  8  3  1  0  0  0  0
 10  1  2  0  0  0  0
 11  1  1  0  0  0  0
 11  6  2  0  0  0  0
 12  5  1  0  0  0  0
 13  4  1  0  0  0  0
 13  9  1  1  0  0  0
 14  8  1  0  0  0  0
 15 14  1  0  0  0  0
 16 17  2  0  0  0  0
 16 23  1  0  0  0  0
 18 20  2  0  0  0  0
 18 21  1  0  0  0  0
 19 16  1  0  0  0  0
 20 19  1  0  0  0  0
 21 22  2  0  0  0  0
 22 15  1  0  0  0  0
 22 17  1  0  0  0  0
 23 26  1  0  0  0  0
 24 26  1  0  0  0  0
 24 29  1  1  0  0  0
 25 23  1  0  0  0  0
 25 24  1  0  0  0  0
 26 27  1  1  0  0  0
 28 29  2  0  0  0  0
 30 18  1  0  0  0  0
 31 30  1  0  0  0  0
 32 33  1  0  0  0  0
 33 31  1  0  0  0  0
 34 35  1  0  0  0  0
 36 37  1  0  0  0  0
 37 38  2  0  0  0  0
 37 35  1  0  0  0  0
 40 39  2  6  0  0  0
 40 36  1  0  0  0  0
 40 41  1  0  0  0  0
 42 43  1  6  0  0  0
 42 40  1  0  0  0  0
 44 42  1  0  0  0  0
 45 44  1  0  0  0  0
 46 45  1  0  0  0  0
 47 49  2  0  0  0  0
 49 48  2  0  0  0  0
 49 46  1  0  0  0  0
M  END
>  <MODEL>
1

>  <REMARK>
 VINA RESULT:      -6.2      0.000      0.000
  Name = 
  17 active torsions:
  status: ('A' for Active; 'I' for Inactive)
    1  A    between atoms: C_1  and  C_32
    2  A    between atoms: C_1  and  C_47
    3  A    between atoms: N_2  and  C_3
    4  A    between atoms: N_4  and  P_28
    5  A    between atoms: C_6  and  C_31
    6  A    between atoms: C_8  and  C_18
    7  A    between atoms: C_8  and  P_28
    8  A    between atoms: C_9  and  C_48
    9  A    between atoms: C_10  and  O_42
   10  A    between atoms: O_15  and  O_20
   11  A    between atoms: O_15  and  C_37
   12  A    between atoms: C_18  and  C_25
   13  A    between atoms: C_19  and  C_37
   14  A    between atoms: C_25  and  C_35
   15  A    between atoms: N_30  and  C_35
   16  A    between atoms: C_31  and  O_42
   17  A    between atoms: C_32  and  C_36
                            x       y       z     vdW  Elec       q    Type
                         _______ _______ _______ _____ _____    ______ ____

>  <TORSDO>
F 17

$$$$
=
 OpenBabel11072411433D

 49 52  0  0  1  0  0  0  0  0999 V2000
  161.5150  206.6160  151.7040 C   0  0  0  0  0  0  0  0  0  0  0  0
  161.4910  205.8310  150.6050 C   0  0  1  0  0  3  0  0  0  0  0  0
  160.8290  208.1390  154.3560 C   0  0  0  0  0  3  0  0  0  0  0  0
  161.0190  204.3940  150.6700 C   0  0  0  0  0  2  0  0  0  0  0  0
  161.9920  209.0430  152.3260 C   0  0  0  0  0  0  0  0  0  0  0  0
  161.1260  204.5540  153.1360 C   0  0  0  0  0  3  0  0  0  0  0  0
  160.9130  206.6930  154.1370 C   0  0  0  0  0  3  0  0  0  0  0  0
  161.2410  209.1480  153.5950 C   0  0  0  0  0  0  0  0  0  0  0  0
  161.0730  202.4050  152.1900 O   0  0  0  0  0  1  0  0  0  0  0  0
  162.0630  207.9710  151.5400 C   0  0  0  0  0  3  0  0  0  0  0  0
  161.1890  206.0180  153.0270 C   0  0  0  0  0  0  0  0  0  0  0  0
  162.6520  210.1780  151.8780 O   0  0  0  0  0  1  0  0  0  0  0  0
  161.0940  203.7890  152.0490 C   0  0  1  0  0  3  0  0  0  0  0  0
  160.9650  210.5190  154.1260 C   0  0  0  0  0  2  0  0  0  0  0  0
  159.9410  210.4670  155.2540 C   0  0  0  0  0  2  0  0  0  0  0  0
  158.3020  213.4060  153.5430 C   0  0  0  0  0  0  0  0  0  0  0  0
  158.7380  212.1650  153.7760 C   0  0  0  0  0  3  0  0  0  0  0  0
  157.0400  212.7890  156.2620 C   0  0  0  0  0  0  0  0  0  0  0  0
  158.0930  214.3790  154.6570 C   0  0  0  0  0  2  0  0  0  0  0  0
  157.0030  213.9330  155.5750 C   0  0  0  0  0  3  0  0  0  0  0  0
  158.1490  211.8140  156.1770 C   0  0  0  0  0  3  0  0  0  0  0  0
  158.9280  211.5580  155.1140 C   0  0  0  0  0  0  0  0  0  0  0  0
  158.1110  213.8450  152.1970 N   0  0  0  0  0  0  0  0  0  0  0  0
  157.7540  214.4520  150.0890 C   0  0  1  0  0  3  0  0  0  0  0  0
  156.9620  214.1780  151.3290 C   0  0  0  0  0  2  0  0  0  0  0  0
  158.9220  214.1700  151.0060 C   0  0  2  0  0  3  0  0  0  0  0  0
  159.8110  212.9910  150.6140 C   0  0  0  0  0  1  0  0  0  0  0  0
  158.1060  213.3380  147.9880 O   0  0  0  0  0  0  0  0  0  0  0  0
  157.4530  213.4140  149.0250 C   0  0  0  0  0  3  0  0  0  0  0  0
  155.9620  212.5320  157.2600 C   0  0  0  0  0  2  0  0  0  0  0  0
  154.8820  211.8930  156.6340 O   0  0  0  0  0  0  0  0  0  0  0  0
  155.1610  210.2550  155.2550 C   0  0  0  0  0  1  0  0  0  0  0  0
  155.2090  210.6170  156.6090 O   0  0  0  0  0  0  0  0  0  0  0  0
  161.8740  206.3700  149.3680 O   0  0  0  0  0  0  0  0  0  0  0  0
  160.9510  206.6890  148.3300 C   0  0  0  0  0  2  0  0  0  0  0  0
  160.7500  205.1820  146.3190 N   0  0  0  0  0  2  0  0  0  0  0  0
  161.4580  206.2180  147.0050 C   0  0  0  0  0  0  0  0  0  0  0  0
  162.4800  206.7570  146.4880 O   0  0  0  0  0  0  0  0  0  0  0  0
  161.2050  205.4570  143.7010 O   0  0  0  0  0  0  0  0  0  0  0  0
  161.3370  204.4620  144.8350 P   0  0  1  0  0  0  0  0  0  0  0  0
  162.9670  204.0360  145.0280 O   0  0  0  0  0  1  0  0  0  0  0  0
  160.3460  202.9770  144.4660 C   0  0  2  0  0  3  0  0  0  0  0  0
  159.0010  203.3370  144.3510 O   0  0  0  0  0  1  0  0  0  0  0  0
  160.4890  201.9270  145.5650 C   0  0  0  0  0  2  0  0  0  0  0  0
  161.2620  202.4600  146.7690 C   0  0  0  0  0  2  0  0  0  0  0  0
  160.4290  202.3730  148.0360 C   0  0  0  0  0  2  0  0  0  0  0  0
  159.9330  200.7550  149.7950 O   0  0  0  0  0  0  0  0  0  0  0  0
  161.7580  200.4990  148.4720 O   0  0  0  0  0  0  0  0  0  0  0  0
  160.6900  201.1070  148.7050 N   0  0  0  0  0  0  0  0  0  0  0  0
  1 11  1  0  0  0  0
  2 34  1  6  0  0  0
  2  4  1  0  0  0  0
  2  1  1  0  0  0  0
  4 13  1  0  0  0  0
  5  8  2  0  0  0  0
  7  3  2  0  0  0  0
  8 14  1  0  0  0  0
  8  3  1  0  0  0  0
 10  1  2  0  0  0  0
 10  5  1  0  0  0  0
 11  6  2  0  0  0  0
 11  7  1  0  0  0  0
 12  5  1  0  0  0  0
 13  9  1  1  0  0  0
 13  6  1  0  0  0  0
 14 15  1  0  0  0  0
 16 17  2  0  0  0  0
 16 19  1  0  0  0  0
 17 22  1  0  0  0  0
 18 30  1  0  0  0  0
 19 20  1  0  0  0  0
 20 18  2  0  0  0  0
 21 18  1  0  0  0  0
 22 15  1  0  0  0  0
 22 21  2  0  0  0  0
 23 16  1  0  0  0  0
 24 29  1  6  0  0  0
 24 26  1  0  0  0  0
 24 25  1  0  0  0  0
 25 23  1  0  0  0  0
 26 27  1  6  0  0  0
 26 23  1  0  0  0  0
 28 29  2  0  0  0  0
 31 30  1  0  0  0  0
 32 33  1  0  0  0  0
 33 31  1  0  0  0  0
 35 34  1  0  0  0  0
 36 37  1  0  0  0  0
 37 35  1  0  0  0  0
 38 37  2  0  0  0  0
 40 39  2  6  0  0  0
 40 41  1  0  0  0  0
 40 36  1  0  0  0  0
 42 43  1  1  0  0  0
 42 40  1  0  0  0  0
 42 44  1  0  0  0  0
 44 45  1  0  0  0  0
 45 46  1  0  0  0  0
 46 49  1  0  0  0  0
 48 49  2  0  0  0  0
 49 47  2  0  0  0  0
M  END
>  <MODEL>
2

>  <REMARK>
 VINA RESULT:      -6.0      3.082     10.786
  Name = 
  17 active torsions:
  status: ('A' for Active; 'I' for Inactive)
    1  A    between atoms: C_1  and  C_32
    2  A    between atoms: C_1  and  C_47
    3  A    between atoms: N_2  and  C_3
    4  A    between atoms: N_4  and  P_28
    5  A    between atoms: C_6  and  C_31
    6  A    between atoms: C_8  and  C_18
    7  A    between atoms: C_8  and  P_28
    8  A    between atoms: C_9  and  C_48
    9  A    between atoms: C_10  and  O_42
   10  A    between atoms: O_15  and  O_20
   11  A    between atoms: O_15  and  C_37
   12  A    between atoms: C_18  and  C_25
   13  A    between atoms: C_19  and  C_37
   14  A    between atoms: C_25  and  C_35
   15  A    between atoms: N_30  and  C_35
   16  A    between atoms: C_31  and  O_42
   17  A    between atoms: C_32  and  C_36
                            x       y       z     vdW  Elec       q    Type
                         _______ _______ _______ _____ _____    ______ ____

>  <TORSDO>
F 17

$$$$
=
 OpenBabel11072411433D

 49 52  0  0  1  0  0  0  0  0999 V2000
  161.1230  206.6390  150.8690 C   0  0  0  0  0  0  0  0  0  0  0  0
  161.0850  205.5320  151.6440 C   0  0  1  0  0  3  0  0  0  0  0  0
  161.8650  208.8430  148.7690 C   0  0  0  0  0  3  0  0  0  0  0  0
  161.2400  204.1480  151.0510 C   0  0  0  0  0  2  0  0  0  0  0  0
  161.1050  209.1750  151.1360 C   0  0  0  0  0  0  0  0  0  0  0  0
  160.9430  205.1590  148.8140 C   0  0  0  0  0  3  0  0  0  0  0  0
  161.5020  207.4450  148.5250 C   0  0  0  0  0  3  0  0  0  0  0  0
  161.7420  209.5840  149.8660 C   0  0  0  0  0  0  0  0  0  0  0  0
  160.6350  202.8380  149.0050 O   0  0  0  0  0  1  0  0  0  0  0  0
  160.8860  207.9270  151.5410 C   0  0  0  0  0  2  0  0  0  0  0  0
  161.1950  206.4860  149.3920 C   0  0  0  0  0  0  0  0  0  0  0  0
  160.7390  210.1810  152.0190 O   0  0  0  0  0  1  0  0  0  0  0  0
  160.9150  204.0730  149.5810 C   0  0  0  0  0  0  0  0  0  0  0  0
  162.2470  210.9880  149.7630 C   0  0  0  0  0  2  0  0  0  0  0  0
  162.6010  211.3330  148.3220 C   0  0  0  0  0  2  0  0  0  0  0  0
  160.8700  213.0740  145.4540 C   0  0  0  0  0  0  0  0  0  0  0  0
  161.3470  212.1020  146.2360 C   0  0  0  0  0  3  0  0  0  0  0  0
  159.6200  213.7640  148.1610 C   0  0  0  0  0  0  0  0  0  0  0  0
  160.6250  214.4490  145.9850 C   0  0  0  0  0  2  0  0  0  0  0  0
  159.5460  214.4510  147.0190 C   0  0  0  0  0  3  0  0  0  0  0  0
  160.7610  212.8980  148.5290 C   0  0  0  0  0  3  0  0  0  0  0  0
  161.5520  212.1990  147.7000 C   0  0  0  0  0  0  0  0  0  0  0  0
  160.6700  212.8250  144.0610 N   0  0  0  0  0  0  0  0  0  0  0  0
  160.3890  212.3460  141.9100 C   0  0  1  0  0  3  0  0  0  0  0  0
  159.9190  211.8510  143.2420 C   0  0  0  0  0  2  0  0  0  0  0  0
  161.1010  213.3730  142.7590 C   0  0  2  0  0  3  0  0  0  0  0  0
  162.6240  213.3900  142.6530 C   0  0  0  0  0  1  0  0  0  0  0  0
  160.9610  210.8280  140.1360 O   0  0  0  0  0  0  0  0  0  0  0  0
  161.2540  211.3020  141.2300 C   0  0  0  0  0  3  0  0  0  0  0  0
  158.5470  213.9700  149.1760 C   0  0  0  0  0  2  0  0  0  0  0  0
  158.9660  213.4650  150.4150 O   0  0  0  0  0  0  0  0  0  0  0  0
  157.4090  213.8920  151.8490 C   0  0  0  0  0  1  0  0  0  0  0  0
  158.6030  214.3760  151.2950 O   0  0  0  0  0  0  0  0  0  0  0  0
  160.9370  205.6700  153.0320 O   0  0  0  0  0  0  0  0  0  0  0  0
  161.9370  206.2320  153.8770 C   0  0  0  0  0  2  0  0  0  0  0  0
  161.1590  208.4010  154.8970 N   0  0  0  0  0  2  0  0  0  0  0  0
  161.3160  206.9840  155.0090 C   0  0  0  0  0  0  0  0  0  0  0  0
  160.9050  206.3650  156.0330 O   0  0  0  0  0  0  0  0  0  0  0  0
  159.5800  208.6040  157.0430 O   0  0  0  0  0  0  0  0  0  0  0  0
  160.5770  209.3920  156.2180 P   0  0  1  0  0  0  0  0  0  0  0  0
  161.8860  209.8470  157.1950 O   0  0  0  0  0  1  0  0  0  0  0  0
  159.7680  210.8760  155.5320 C   0  0  2  0  0  3  0  0  0  0  0  0
  160.7300  211.8620  155.3060 O   0  0  0  0  0  1  0  0  0  0  0  0
  158.7090  211.4210  156.4880 C   0  0  0  0  0  2  0  0  0  0  0  0
  158.2440  212.8190  156.0880 C   0  0  0  0  0  2  0  0  0  0  0  0
  156.9690  212.7570  155.2640 C   0  0  0  0  0  2  0  0  0  0  0  0
  155.8100  210.6080  155.2490 O   0  0  0  0  0  0  0  0  0  0  0  0
  155.2690  212.2010  156.7700 O   0  0  0  0  0  0  0  0  0  0  0  0
  156.0440  211.8110  155.8700 N   0  0  0  0  0  0  0  0  0  0  0  0
  1 10  1  0  0  0  0
  1  2  1  0  0  0  0
  2 34  1  1  0  0  0
  3  8  1  0  0  0  0
  4  2  1  0  0  0  0
  5 10  1  0  0  0  0
  5 12  1  0  0  0  0
  6 11  1  0  0  0  0
  6 13  2  0  0  0  0
  7  3  2  0  0  0  0
  7 11  1  0  0  0  0
  8  5  2  0  0  0  0
  9 13  1  0  0  0  0
 11  1  2  0  0  0  0
 13  4  1  0  0  0  0
 14  8  1  0  0  0  0
 15 14  1  0  0  0  0
 16 19  1  0  0  0  0
 16 17  2  0  0  0  0
 17 22  1  0  0  0  0
 18 21  1  0  0  0  0
 18 30  1  0  0  0  0
 19 20  1  0  0  0  0
 20 18  2  0  0  0  0
 22 15  1  0  0  0  0
 22 21  2  0  0  0  0
 23 16  1  0  0  0  0
 24 29  1  1  0  0  0
 24 26  1  0  0  0  0
 24 25  1  0  0  0  0
 25 23  1  0  0  0  0
 26 27  1  1  0  0  0
 26 23  1  0  0  0  0
 28 29  2  0  0  0  0
 30 31  1  0  0  0  0
 31 33  1  0  0  0  0
 33 32  1  0  0  0  0
 34 35  1  0  0  0  0
 35 37  1  0  0  0  0
 36 37  1  0  0  0  0
 36 40  1  0  0  0  0
 37 38  2  0  0  0  0
 40 39  2  1  0  0  0
 40 41  1  0  0  0  0
 42 43  1  1  0  0  0
 42 40  1  0  0  0  0
 42 44  1  0  0  0  0
 45 44  1  0  0  0  0
 46 49  1  0  0  0  0
 46 45  1  0  0  0  0
 47 49  2  0  0  0  0
 49 48  2  0  0  0  0
M  END
>  <MODEL>
3

>  <REMARK>
 VINA RESULT:      -5.9      3.022      8.422
  Name = 
  17 active torsions:
  status: ('A' for Active; 'I' for Inactive)
    1  A    between atoms: C_1  and  C_32
    2  A    between atoms: C_1  and  C_47
    3  A    between atoms: N_2  and  C_3
    4  A    between atoms: N_4  and  P_28
    5  A    between atoms: C_6  and  C_31
    6  A    between atoms: C_8  and  C_18
    7  A    between atoms: C_8  and  P_28
    8  A    between atoms: C_9  and  C_48
    9  A    between atoms: C_10  and  O_42
   10  A    between atoms: O_15  and  O_20
   11  A    between atoms: O_15  and  C_37
   12  A    between atoms: C_18  and  C_25
   13  A    between atoms: C_19  and  C_37
   14  A    between atoms: C_25  and  C_35
   15  A    between atoms: N_30  and  C_35
   16  A    between atoms: C_31  and  O_42
   17  A    between atoms: C_32  and  C_36
                            x       y       z     vdW  Elec       q    Type
                         _______ _______ _______ _____ _____    ______ ____

>  <TORSDO>
F 17

$$$$
=
 OpenBabel11072411433D

 49 52  0  0  1  0  0  0  0  0999 V2000
  161.3290  207.6170  153.0300 C   0  0  0  0  0  0  0  0  0  0  0  0
  160.7170  206.5500  153.5900 C   0  0  1  0  0  3  0  0  0  0  0  0
  162.0820  210.4720  151.9800 C   0  0  0  0  0  3  0  0  0  0  0  0
  160.0990  206.6290  154.9700 C   0  0  0  0  0  2  0  0  0  0  0  0
  162.3990  208.2760  150.8110 C   0  0  0  0  0  0  0  0  0  0  0  0
  161.2670  208.7860  155.2840 C   0  0  0  0  0  3  0  0  0  0  0  0
  161.8380  210.0500  153.3620 C   0  0  0  0  0  3  0  0  0  0  0  0
  162.2850  209.7480  150.8830 C   0  0  0  0  0  0  0  0  0  0  0  0
  160.4810  207.6880  157.2060 O   0  0  0  0  0  1  0  0  0  0  0  0
  161.9600  207.4060  151.7180 C   0  0  0  0  0  3  0  0  0  0  0  0
  161.5070  208.8550  153.8360 C   0  0  0  0  0  0  0  0  0  0  0  0
  162.9750  207.7350  149.6700 O   0  0  0  0  0  1  0  0  0  0  0  0
  160.6570  207.7360  155.8270 C   0  0  1  0  0  3  0  0  0  0  0  0
  162.4790  210.5220  149.6190 C   0  0  0  0  0  2  0  0  0  0  0  0
  161.3420  210.2550  148.6390 C   0  0  0  0  0  2  0  0  0  0  0  0
  160.9850  212.7450  145.8260 C   0  0  0  0  0  0  0  0  0  0  0  0
  160.8820  211.6150  146.5300 C   0  0  0  0  0  3  0  0  0  0  0  0
  159.7000  213.7300  148.4230 C   0  0  0  0  0  0  0  0  0  0  0  0
  161.2430  214.0570  146.4930 C   0  0  0  0  0  2  0  0  0  0  0  0
  160.1070  214.4530  147.3770 C   0  0  0  0  0  3  0  0  0  0  0  0
  160.3050  212.4390  148.8150 C   0  0  0  0  0  3  0  0  0  0  0  0
  160.8630  211.5230  148.0080 C   0  0  0  0  0  0  0  0  0  0  0  0
  160.9340  212.6940  144.3980 N   0  0  0  0  0  0  0  0  0  0  0  0
  160.8970  212.7040  142.1760 C   0  0  1  0  0  3  0  0  0  0  0  0
  161.8960  212.8260  143.2840 C   0  0  0  0  0  2  0  0  0  0  0  0
  159.9350  212.5100  143.3260 C   0  0  2  0  0  3  0  0  0  0  0  0
  158.8140  213.5400  143.4420 C   0  0  0  0  0  1  0  0  0  0  0  0
  160.1460  214.1000  140.3690 O   0  0  0  0  0  0  0  0  0  0  0  0
  160.7920  214.0090  141.4100 C   0  0  0  0  0  3  0  0  0  0  0  0
  158.6560  214.3100  149.3160 C   0  0  0  0  0  2  0  0  0  0  0  0
  157.7870  213.2970  149.7460 O   0  0  0  0  0  0  0  0  0  0  0  0
  156.0180  214.2760  148.9870 C   0  0  0  0  0  1  0  0  0  0  0  0
  156.7060  213.9280  150.1590 O   0  0  0  0  0  0  0  0  0  0  0  0
  160.6170  205.3560  152.8620 O   0  0  0  0  0  0  0  0  0  0  0  0
  161.5180  204.9930  151.8200 C   0  0  0  0  0  2  0  0  0  0  0  0
  161.4670  202.8960  150.4240 N   0  0  0  0  0  2  0  0  0  0  0  0
  160.8410  204.1220  150.8120 C   0  0  0  0  0  0  0  0  0  0  0  0
  159.7160  204.4540  150.3390 O   0  0  0  0  0  0  0  0  0  0  0  0
  161.7420  200.6810  148.9550 O   0  0  0  0  0  0  0  0  0  0  0  0
  160.8320  201.8760  149.1500 P   0  0  1  0  0  0  0  0  0  0  0  0
  159.2810  201.3430  149.5810 O   0  0  0  0  0  1  0  0  0  0  0  0
  160.7500  202.8410  147.6050 C   0  0  2  0  0  3  0  0  0  0  0  0
  160.6110  201.9690  146.5230 O   0  0  0  0  0  1  0  0  0  0  0  0
  162.0090  203.6830  147.4090 C   0  0  0  0  0  2  0  0  0  0  0  0
  161.7140  205.1790  147.4820 C   0  0  0  0  0  2  0  0  0  0  0  0
  162.2310  205.9000  146.2490 C   0  0  0  0  0  2  0  0  0  0  0  0
  160.0880  206.3980  145.1910 O   0  0  0  0  0  0  0  0  0  0  0  0
  161.4430  204.7820  144.3530 O   0  0  0  0  0  0  0  0  0  0  0  0
  161.2880  205.7290  145.1540 N   0  0  0  0  0  0  0  0  0  0  0  0
  1  2  1  0  0  0  0
  1 11  1  0  0  0  0
  2 34  1  6  0  0  0
  2  4  1  0  0  0  0
  3  7  2  0  0  0  0
  4 13  1  0  0  0  0
  5  8  2  0  0  0  0
  5 10  1  0  0  0  0
  6 13  1  0  0  0  0
  7 11  1  0  0  0  0
  8  3  1  0  0  0  0
 10  1  2  0  0  0  0
 11  6  2  0  0  0  0
 12  5  1  0  0  0  0
 13  9  1  6  0  0  0
 14  8  1  0  0  0  0
 15 14  1  0  0  0  0
 16 19  1  0  0  0  0
 16 17  2  0  0  0  0
 17 22  1  0  0  0  0
 18 21  1  0  0  0  0
 18 30  1  0  0  0  0
 19 20  1  0  0  0  0
 20 18  2  0  0  0  0
 22 15  1  0  0  0  0
 22 21  2  0  0  0  0
 23 16  1  0  0  0  0
 24 29  1  1  0  0  0
 24 25  1  0  0  0  0
 24 26  1  0  0  0  0
 25 23  1  0  0  0  0
 26 27  1  1  0  0  0
 26 23  1  0  0  0  0
 28 29  2  0  0  0  0
 30 31  1  0  0  0  0
 31 33  1  0  0  0  0
 32 33  1  0  0  0  0
 35 34  1  0  0  0  0
 36 37  1  0  0  0  0
 37 35  1  0  0  0  0
 38 37  2  0  0  0  0
 40 39  2  6  0  0  0
 40 41  1  0  0  0  0
 40 36  1  0  0  0  0
 42 43  1  6  0  0  0
 42 40  1  0  0  0  0
 44 45  1  0  0  0  0
 44 42  1  0  0  0  0
 46 45  1  0  0  0  0
 48 49  2  0  0  0  0
 49 47  2  0  0  0  0
 49 46  1  0  0  0  0
M  END
>  <MODEL>
4

>  <REMARK>
 VINA RESULT:      -4.9      3.255      9.081
  Name = 
  17 active torsions:
  status: ('A' for Active; 'I' for Inactive)
    1  A    between atoms: C_1  and  C_32
    2  A    between atoms: C_1  and  C_47
    3  A    between atoms: N_2  and  C_3
    4  A    between atoms: N_4  and  P_28
    5  A    between atoms: C_6  and  C_31
    6  A    between atoms: C_8  and  C_18
    7  A    between atoms: C_8  and  P_28
    8  A    between atoms: C_9  and  C_48
    9  A    between atoms: C_10  and  O_42
   10  A    between atoms: O_15  and  O_20
   11  A    between atoms: O_15  and  C_37
   12  A    between atoms: C_18  and  C_25
   13  A    between atoms: C_19  and  C_37
   14  A    between atoms: C_25  and  C_35
   15  A    between atoms: N_30  and  C_35
   16  A    between atoms: C_31  and  O_42
   17  A    between atoms: C_32  and  C_36
                            x       y       z     vdW  Elec       q    Type
                         _______ _______ _______ _____ _____    ______ ____

>  <TORSDO>
F 17

$$$$
=
 OpenBabel11072411433D

 49 52  0  0  1  0  0  0  0  0999 V2000
  161.5440  204.8320  147.1380 C   0  0  0  0  0  0  0  0  0  0  0  0
  161.5060  204.3580  145.8730 C   0  0  1  0  0  3  0  0  0  0  0  0
  160.8810  205.6330  150.0940 C   0  0  0  0  0  3  0  0  0  0  0  0
  161.0050  202.9630  145.5660 C   0  0  0  0  0  2  0  0  0  0  0  0
  162.0690  207.0050  148.3640 C   0  0  0  0  0  0  0  0  0  0  0  0
  161.1080  202.4790  147.9890 C   0  0  0  0  0  3  0  0  0  0  0  0
  160.9360  204.2900  149.5090 C   0  0  0  0  0  3  0  0  0  0  0  0
  161.3170  206.7950  149.6190 C   0  0  0  0  0  0  0  0  0  0  0  0
  161.0130  200.6490  146.5210 O   0  0  0  0  0  1  0  0  0  0  0  0
  162.1200  206.1720  147.3280 C   0  0  0  0  0  3  0  0  0  0  0  0
  161.2020  203.9200  148.2620 C   0  0  0  0  0  0  0  0  0  0  0  0
  162.7540  208.2040  148.2230 O   0  0  0  0  0  1  0  0  0  0  0  0
  161.0640  202.0210  146.7420 C   0  0  1  0  0  3  0  0  0  0  0  0
  161.0670  207.9880  150.4860 C   0  0  0  0  0  2  0  0  0  0  0  0
  161.4820  207.7090  151.9260 C   0  0  0  0  0  2  0  0  0  0  0  0
  160.2330  211.1680  152.7730 C   0  0  0  0  0  0  0  0  0  0  0  0
  160.2870  209.9390  152.2520 C   0  0  0  0  0  3  0  0  0  0  0  0
  160.6600  209.4420  155.2630 C   0  0  0  0  0  0  0  0  0  0  0  0
  161.0400  211.5400  153.9740 C   0  0  0  0  0  2  0  0  0  0  0  0
  160.6100  210.7730  155.1810 C   0  0  0  0  0  3  0  0  0  0  0  0
  161.1200  208.5650  154.1640 C   0  0  0  0  0  3  0  0  0  0  0  0
  161.0030  208.7850  152.8450 C   0  0  0  0  0  0  0  0  0  0  0  0
  159.4560  212.1760  152.1230 N   0  0  0  0  0  0  0  0  0  0  0  0
  158.1960  213.6730  151.0690 C   0  0  1  0  0  3  0  0  0  0  0  0
  158.0240  212.5210  152.0100 C   0  0  0  0  0  2  0  0  0  0  0  0
  159.6610  213.3450  151.2440 C   0  0  2  0  0  3  0  0  0  0  0  0
  160.4140  212.9480  149.9760 C   0  0  0  0  0  1  0  0  0  0  0  0
  157.1720  214.2330  148.9680 O   0  0  0  0  0  0  0  0  0  0  0  0
  157.5800  213.3530  149.7200 C   0  0  0  0  0  3  0  0  0  0  0  0
  160.3470  208.8060  156.5760 C   0  0  0  0  0  2  0  0  0  0  0  0
  161.5200  208.2880  157.1420 O   0  0  0  0  0  0  0  0  0  0  0  0
  159.9100  206.8490  157.1330 C   0  0  0  0  0  1  0  0  0  0  0  0
  161.2990  206.9940  157.2610 O   0  0  0  0  0  0  0  0  0  0  0  0
  161.9050  205.1900  144.8160 O   0  0  0  0  0  0  0  0  0  0  0  0
  161.0380  205.5810  143.7540 C   0  0  0  0  0  2  0  0  0  0  0  0
  161.2690  206.8740  141.6040 N   0  0  0  0  0  2  0  0  0  0  0  0
  161.8220  205.9400  142.5330 C   0  0  0  0  0  0  0  0  0  0  0  0
  162.9730  205.4460  142.3500 O   0  0  0  0  0  0  0  0  0  0  0  0
  163.3370  207.9880  140.3310 O   0  0  0  0  0  1  0  0  0  0  0  0
  162.0370  207.2520  140.0770 P   0  0  1  0  0  0  0  0  0  0  0  0
  162.3570  205.8130  139.2400 O   0  0  0  0  0  0  0  0  0  0  0  0
  160.9180  208.3070  139.0960 C   0  0  2  0  0  3  0  0  0  0  0  0
  161.0730  208.0080  137.7410 O   0  0  0  0  0  1  0  0  0  0  0  0
  161.2160  209.7880  139.3180 C   0  0  0  0  0  2  0  0  0  0  0  0
  161.4330  210.5310  138.0020 C   0  0  0  0  0  2  0  0  0  0  0  0
  162.7710  211.2520  137.9950 C   0  0  0  0  0  2  0  0  0  0  0  0
  161.5530  213.2190  138.7730 O   0  0  0  0  0  0  0  0  0  0  0  0
  163.7260  212.9030  139.3470 O   0  0  0  0  0  0  0  0  0  0  0  0
  162.6870  212.4440  138.8250 N   0  0  0  0  0  0  0  0  0  0  0  0
  1 10  2  0  0  0  0
  1 11  1  0  0  0  0
  2 34  1  6  0  0  0
  2  1  1  0  0  0  0
  4  2  1  0  0  0  0
  4 13  1  0  0  0  0
  5  8  2  0  0  0  0
  6 11  2  0  0  0  0
  7  3  2  0  0  0  0
  8  3  1  0  0  0  0
  8 14  1  0  0  0  0
 10  5  1  0  0  0  0
 11  7  1  0  0  0  0
 12  5  1  0  0  0  0
 13  9  1  1  0  0  0
 13  6  1  0  0  0  0
 14 15  1  0  0  0  0
 15 22  1  0  0  0  0
 16 19  1  0  0  0  0
 17 16  2  0  0  0  0
 17 22  1  0  0  0  0
 18 30  1  0  0  0  0
 19 20  1  0  0  0  0
 20 18  2  0  0  0  0
 21 18  1  0  0  0  0
 22 21  2  0  0  0  0
 23 16  1  0  0  0  0
 24 29  1  6  0  0  0
 24 26  1  0  0  0  0
 24 25  1  0  0  0  0
 25 23  1  0  0  0  0
 26 27  1  6  0  0  0
 26 23  1  0  0  0  0
 28 29  2  0  0  0  0
 30 31  1  0  0  0  0
 31 33  1  0  0  0  0
 32 33  1  0  0  0  0
 35 34  1  0  0  0  0
 36 37  1  0  0  0  0
 37 35  1  0  0  0  0
 38 37  2  0  0  0  0
 40 41  2  6  0  0  0
 40 39  1  0  0  0  0
 40 36  1  0  0  0  0
 42 43  1  6  0  0  0
 42 44  1  0  0  0  0
 42 40  1  0  0  0  0
 45 44  1  0  0  0  0
 46 45  1  0  0  0  0
 46 49  1  0  0  0  0
 47 49  2  0  0  0  0
 49 48  2  0  0  0  0
M  END
>  <MODEL>
5

>  <REMARK>
 VINA RESULT:      -4.9      3.693     10.922
  Name = 
  17 active torsions:
  status: ('A' for Active; 'I' for Inactive)
    1  A    between atoms: C_1  and  C_32
    2  A    between atoms: C_1  and  C_47
    3  A    between atoms: N_2  and  C_3
    4  A    between atoms: N_4  and  P_28
    5  A    between atoms: C_6  and  C_31
    6  A    between atoms: C_8  and  C_18
    7  A    between atoms: C_8  and  P_28
    8  A    between atoms: C_9  and  C_48
    9  A    between atoms: C_10  and  O_42
   10  A    between atoms: O_15  and  O_20
   11  A    between atoms: O_15  and  C_37
   12  A    between atoms: C_18  and  C_25
   13  A    between atoms: C_19  and  C_37
   14  A    between atoms: C_25  and  C_35
   15  A    between atoms: N_30  and  C_35
   16  A    between atoms: C_31  and  O_42
   17  A    between atoms: C_32  and  C_36
                            x       y       z     vdW  Elec       q    Type
                         _______ _______ _______ _____ _____    ______ ____

>  <TORSDO>
F 17

$$$$
=
 OpenBabel11072411433D

 49 52  0  0  1  0  0  0  0  0999 V2000
  161.3330  208.4820  152.9350 C   0  0  0  0  0  0  0  0  0  0  0  0
  161.1160  209.2010  154.0580 C   0  0  1  0  0  3  0  0  0  0  0  0
  162.3840  206.4490  150.7940 C   0  0  0  0  0  3  0  0  0  0  0  0
  160.9590  208.5310  155.4070 C   0  0  0  0  0  2  0  0  0  0  0  0
  161.8360  208.8740  150.4660 C   0  0  0  0  0  0  0  0  0  0  0  0
  160.7480  206.3710  154.2210 C   0  0  0  0  0  3  0  0  0  0  0  0
  161.7360  206.1610  152.0760 C   0  0  0  0  0  3  0  0  0  0  0  0
  162.4710  207.5880  150.1130 C   0  0  0  0  0  0  0  0  0  0  0  0
  159.9940  206.4670  156.4430 O   0  0  0  0  0  1  0  0  0  0  0  0
  161.3940  209.2300  151.6700 C   0  0  0  0  0  3  0  0  0  0  0  0
  161.2910  206.9970  153.0080 C   0  0  0  0  0  0  0  0  0  0  0  0
  161.7270  209.8290  149.4650 O   0  0  0  0  0  1  0  0  0  0  0  0
  160.5450  207.0840  155.3260 C   0  0  1  0  0  3  0  0  0  0  0  0
  163.2410  207.5220  148.8320 C   0  0  0  0  0  2  0  0  0  0  0  0
  162.3170  207.7040  147.6340 C   0  0  0  0  0  2  0  0  0  0  0  0
  161.5450  204.0110  147.7000 C   0  0  0  0  0  0  0  0  0  0  0  0
  161.4450  205.3240  147.9230 C   0  0  0  0  0  3  0  0  0  0  0  0
  161.5830  205.1410  144.8570 C   0  0  0  0  0  0  0  0  0  0  0  0
  162.3340  203.4740  146.5510 C   0  0  0  0  0  2  0  0  0  0  0  0
  161.7330  203.8720  145.2430 C   0  0  0  0  0  3  0  0  0  0  0  0
  161.9670  206.3040  145.6860 C   0  0  0  0  0  3  0  0  0  0  0  0
  161.9530  206.3880  147.0260 C   0  0  0  0  0  0  0  0  0  0  0  0
  160.9590  203.0920  148.6260 N   0  0  0  0  0  0  0  0  0  0  0  0
  160.1230  201.6810  150.1250 C   0  0  1  0  0  3  0  0  0  0  0  0
  160.5290  203.1190  150.0390 C   0  0  0  0  0  2  0  0  0  0  0  0
  160.5100  201.6860  148.6640 C   0  0  2  0  0  3  0  0  0  0  0  0
  161.6420  200.7400  148.2680 C   0  0  0  0  0  1  0  0  0  0  0  0
  162.0480  201.4390  151.5440 O   0  0  0  0  0  0  0  0  0  0  0  0
  161.0380  200.9270  151.0720 C   0  0  0  0  0  3  0  0  0  0  0  0
  161.1120  205.4030  143.4660 C   0  0  0  0  0  2  0  0  0  0  0  0
  162.1510  205.9710  142.7150 O   0  0  0  0  0  0  0  0  0  0  0  0
  162.6120  206.9300  140.8360 C   0  0  0  0  0  1  0  0  0  0  0  0
  161.5620  206.4780  141.6490 O   0  0  0  0  0  0  0  0  0  0  0  0
  161.0750  210.6010  153.9800 O   0  0  0  0  0  0  0  0  0  0  0  0
  161.3430  211.4580  155.0860 C   0  0  0  0  0  2  0  0  0  0  0  0
  159.0390  212.4690  154.9340 N   0  0  0  0  0  2  0  0  0  0  0  0
  160.0720  211.8960  155.7400 C   0  0  0  0  0  0  0  0  0  0  0  0
  159.9060  211.7260  156.9830 O   0  0  0  0  0  0  0  0  0  0  0  0
  156.8240  212.0650  156.3730 O   0  0  0  0  0  0  0  0  0  0  0  0
  157.5750  213.1430  155.6180 P   0  0  1  0  0  0  0  0  0  0  0  0
  157.9810  214.4000  156.6800 O   0  0  0  0  0  1  0  0  0  0  0  0
  156.5320  213.7830  154.2660 C   0  0  2  0  0  3  0  0  0  0  0  0
  155.2140  213.3650  154.4630 O   0  0  0  0  0  1  0  0  0  0  0  0
  157.0160  213.2830  152.9070 C   0  0  0  0  0  2  0  0  0  0  0  0
  157.5290  214.4210  152.0280 C   0  0  0  0  0  2  0  0  0  0  0  0
  157.4550  214.0510  150.5560 C   0  0  0  0  0  2  0  0  0  0  0  0
  155.7640  213.9850  148.7970 O   0  0  0  0  0  0  0  0  0  0  0  0
  155.1620  214.2380  150.9690 O   0  0  0  0  0  0  0  0  0  0  0  0
  156.0630  213.9940  150.1380 N   0  0  0  0  0  0  0  0  0  0  0  0
  1 11  1  0  0  0  0
  1  2  1  0  0  0  0
  2 34  1  1  0  0  0
  2  4  1  0  0  0  0
  3  7  2  0  0  0  0
  5 10  1  0  0  0  0
  6 13  1  0  0  0  0
  7 11  1  0  0  0  0
  8  5  2  0  0  0  0
  8  3  1  0  0  0  0
 10  1  2  0  0  0  0
 11  6  2  0  0  0  0
 12  5  1  0  0  0  0
 13  4  1  0  0  0  0
 13  9  1  1  0  0  0
 14  8  1  0  0  0  0
 15 14  1  0  0  0  0
 16 17  2  0  0  0  0
 16 23  1  0  0  0  0
 18 20  2  0  0  0  0
 18 21  1  0  0  0  0
 19 16  1  0  0  0  0
 20 19  1  0  0  0  0
 21 22  2  0  0  0  0
 22 15  1  0  0  0  0
 22 17  1  0  0  0  0
 23 26  1  0  0  0  0
 23 25  1  0  0  0  0
 24 29  1  1  0  0  0
 25 24  1  0  0  0  0
 26 27  1  1  0  0  0
 26 24  1  0  0  0  0
 29 28  2  0  0  0  0
 30 18  1  0  0  0  0
 31 30  1  0  0  0  0
 32 33  1  0  0  0  0
 33 31  1  0  0  0  0
 34 35  1  0  0  0  0
 35 37  1  0  0  0  0
 36 40  1  0  0  0  0
 36 37  1  0  0  0  0
 37 38  2  0  0  0  0
 40 39  2  1  0  0  0
 40 41  1  0  0  0  0
 42 43  1  1  0  0  0
 42 40  1  0  0  0  0
 44 42  1  0  0  0  0
 45 44  1  0  0  0  0
 46 45  1  0  0  0  0
 47 49  2  0  0  0  0
 49 46  1  0  0  0  0
 49 48  2  0  0  0  0
M  END
>  <MODEL>
6

>  <REMARK>
 VINA RESULT:      -4.7      1.977      2.607
  Name = 
  17 active torsions:
  status: ('A' for Active; 'I' for Inactive)
    1  A    between atoms: C_1  and  C_32
    2  A    between atoms: C_1  and  C_47
    3  A    between atoms: N_2  and  C_3
    4  A    between atoms: N_4  and  P_28
    5  A    between atoms: C_6  and  C_31
    6  A    between atoms: C_8  and  C_18
    7  A    between atoms: C_8  and  P_28
    8  A    between atoms: C_9  and  C_48
    9  A    between atoms: C_10  and  O_42
   10  A    between atoms: O_15  and  O_20
   11  A    between atoms: O_15  and  C_37
   12  A    between atoms: C_18  and  C_25
   13  A    between atoms: C_19  and  C_37
   14  A    between atoms: C_25  and  C_35
   15  A    between atoms: N_30  and  C_35
   16  A    between atoms: C_31  and  O_42
   17  A    between atoms: C_32  and  C_36
                            x       y       z     vdW  Elec       q    Type
                         _______ _______ _______ _____ _____    ______ ____

>  <TORSDO>
F 17

$$$$
=
 OpenBabel11072411433D

 49 52  0  0  1  0  0  0  0  0999 V2000
  161.6520  205.0090  146.9440 C   0  0  0  0  0  0  0  0  0  0  0  0
  161.6140  204.3730  145.7520 C   0  0  1  0  0  3  0  0  0  0  0  0
  160.9870  206.2010  149.7650 C   0  0  0  0  0  3  0  0  0  0  0  0
  161.0930  202.9580  145.6280 C   0  0  0  0  0  2  0  0  0  0  0  0
  162.2050  207.3170  147.8780 C   0  0  0  0  0  0  0  0  0  0  0  0
  161.1750  202.7950  148.0950 C   0  0  0  0  0  3  0  0  0  0  0  0
  161.0240  204.7930  149.3620 C   0  0  0  0  0  3  0  0  0  0  0  0
  161.4430  207.2850  149.1440 C   0  0  0  0  0  0  0  0  0  0  0  0
  161.0600  200.7890  146.8780 O   0  0  0  0  0  1  0  0  0  0  0  0
  162.2490  206.3540  146.9610 C   0  0  0  0  0  3  0  0  0  0  0  0
  161.2910  204.2580  148.1760 C   0  0  0  0  0  0  0  0  0  0  0  0
  162.9090  208.4760  147.5860 O   0  0  0  0  0  1  0  0  0  0  0  0
  161.1310  202.1770  146.9180 C   0  0  1  0  0  3  0  0  0  0  0  0
  161.2070  208.5840  149.8450 C   0  0  0  0  0  2  0  0  0  0  0  0
  162.1940  208.7690  150.9920 C   0  0  0  0  0  2  0  0  0  0  0  0
  160.4880  209.6290  154.2470 C   0  0  0  0  0  0  0  0  0  0  0  0
  160.7120  209.4990  152.9370 C   0  0  0  0  0  3  0  0  0  0  0  0
  161.0780  206.6360  153.9960 C   0  0  0  0  0  0  0  0  0  0  0  0
  161.2130  208.7880  155.2470 C   0  0  0  0  0  2  0  0  0  0  0  0
  160.8580  207.3440  155.1060 C   0  0  0  0  0  3  0  0  0  0  0  0
  161.6720  207.2010  152.7650 C   0  0  0  0  0  3  0  0  0  0  0  0
  161.5580  208.4580  152.3090 C   0  0  0  0  0  0  0  0  0  0  0  0
  159.6020  210.6490  154.7140 N   0  0  0  0  0  0  0  0  0  0  0  0
  158.1510  212.1860  155.3990 C   0  0  1  0  0  3  0  0  0  0  0  0
  158.3650  210.7090  155.5200 C   0  0  0  0  0  2  0  0  0  0  0  0
  159.4490  212.1150  154.6290 C   0  0  2  0  0  3  0  0  0  0  0  0
  159.3910  212.5730  153.1740 C   0  0  0  0  0  1  0  0  0  0  0  0
  156.2580  213.5150  154.7430 O   0  0  0  0  0  0  0  0  0  0  0  0
  156.8960  212.4760  154.5970 C   0  0  0  0  0  3  0  0  0  0  0  0
  160.8200  205.1680  154.0350 C   0  0  0  0  0  2  0  0  0  0  0  0
  161.2290  204.5850  152.8270 O   0  0  0  0  0  0  0  0  0  0  0  0
  161.2270  202.6230  151.9240 C   0  0  0  0  0  1  0  0  0  0  0  0
  160.4650  203.5200  152.6870 O   0  0  0  0  0  0  0  0  0  0  0  0
  162.0310  205.0530  144.5980 O   0  0  0  0  0  0  0  0  0  0  0  0
  161.1390  205.4760  143.5710 C   0  0  0  0  0  2  0  0  0  0  0  0
  161.2050  206.8870  141.4840 N   0  0  0  0  0  2  0  0  0  0  0  0
  161.8940  206.0480  142.4140 C   0  0  0  0  0  0  0  0  0  0  0  0
  163.1310  205.8150  142.2860 O   0  0  0  0  0  0  0  0  0  0  0  0
  163.2300  208.2330  140.3740 O   0  0  0  0  0  1  0  0  0  0  0  0
  161.9580  207.4890  140.0220 P   0  0  1  0  0  0  0  0  0  0  0  0
  162.3290  206.1830  139.0060 O   0  0  0  0  0  0  0  0  0  0  0  0
  160.7990  208.6200  139.1830 C   0  0  2  0  0  3  0  0  0  0  0  0
  160.4880  208.1090  137.9210 O   0  0  0  0  0  1  0  0  0  0  0  0
  161.4040  210.0130  139.0210 C   0  0  0  0  0  2  0  0  0  0  0  0
  161.6600  210.6860  140.3670 C   0  0  0  0  0  2  0  0  0  0  0  0
  161.6550  212.1990  140.2330 C   0  0  0  0  0  2  0  0  0  0  0  0
  159.4710  211.9480  141.2950 O   0  0  0  0  0  0  0  0  0  0  0  0
  160.4390  213.9920  141.1120 O   0  0  0  0  0  0  0  0  0  0  0  0
  160.5440  212.7520  140.9920 N   0  0  0  0  0  0  0  0  0  0  0  0
  1 10  2  0  0  0  0
  1 11  1  0  0  0  0
  2 34  1  6  0  0  0
  2  1  1  0  0  0  0
  4  2  1  0  0  0  0
  4 13  1  0  0  0  0
  5  8  2  0  0  0  0
  6 11  2  0  0  0  0
  7  3  2  0  0  0  0
  8  3  1  0  0  0  0
  8 14  1  0  0  0  0
 10  5  1  0  0  0  0
 11  7  1  0  0  0  0
 12  5  1  0  0  0  0
 13  9  1  1  0  0  0
 13  6  1  0  0  0  0
 14 15  1  0  0  0  0
 15 22  1  0  0  0  0
 16 23  1  0  0  0  0
 16 19  1  0  0  0  0
 17 16  2  0  0  0  0
 18 30  1  0  0  0  0
 18 20  2  0  0  0  0
 20 19  1  0  0  0  0
 21 18  1  0  0  0  0
 22 21  2  0  0  0  0
 22 17  1  0  0  0  0
 23 25  1  0  0  0  0
 24 29  1  6  0  0  0
 24 25  1  0  0  0  0
 26 27  1  6  0  0  0
 26 23  1  0  0  0  0
 26 24  1  0  0  0  0
 29 28  2  0  0  0  0
 31 30  1  0  0  0  0
 32 33  1  0  0  0  0
 33 31  1  0  0  0  0
 35 34  1  0  0  0  0
 36 37  1  0  0  0  0
 37 35  1  0  0  0  0
 38 37  2  0  0  0  0
 40 41  2  6  0  0  0
 40 39  1  0  0  0  0
 40 36  1  0  0  0  0
 42 43  1  6  0  0  0
 42 40  1  0  0  0  0
 44 42  1  0  0  0  0
 44 45  1  0  0  0  0
 46 45  1  0  0  0  0
 46 49  1  0  0  0  0
 49 48  2  0  0  0  0
 49 47  2  0  0  0  0
M  END
>  <MODEL>
7

>  <REMARK>
 VINA RESULT:      -4.0      3.614     10.206
  Name = 
  17 active torsions:
  status: ('A' for Active; 'I' for Inactive)
    1  A    between atoms: C_1  and  C_32
    2  A    between atoms: C_1  and  C_47
    3  A    between atoms: N_2  and  C_3
    4  A    between atoms: N_4  and  P_28
    5  A    between atoms: C_6  and  C_31
    6  A    between atoms: C_8  and  C_18
    7  A    between atoms: C_8  and  P_28
    8  A    between atoms: C_9  and  C_48
    9  A    between atoms: C_10  and  O_42
   10  A    between atoms: O_15  and  O_20
   11  A    between atoms: O_15  and  C_37
   12  A    between atoms: C_18  and  C_25
   13  A    between atoms: C_19  and  C_37
   14  A    between atoms: C_25  and  C_35
   15  A    between atoms: N_30  and  C_35
   16  A    between atoms: C_31  and  O_42
   17  A    between atoms: C_32  and  C_36
                            x       y       z     vdW  Elec       q    Type
                         _______ _______ _______ _____ _____    ______ ____

>  <TORSDO>
F 17

$$$$
=
 OpenBabel11072411433D

 49 52  0  0  1  0  0  0  0  0999 V2000
  161.5130  204.5520  147.0580 C   0  0  0  0  0  0  0  0  0  0  0  0
  161.4890  204.0940  145.7870 C   0  0  1  0  0  3  0  0  0  0  0  0
  160.8190  205.3180  150.0170 C   0  0  0  0  0  3  0  0  0  0  0  0
  160.9880  202.7040  145.4580 C   0  0  0  0  0  2  0  0  0  0  0  0
  162.0290  206.7090  148.3170 C   0  0  0  0  0  0  0  0  0  0  0  0
  161.0630  202.1900  147.8750 C   0  0  0  0  0  3  0  0  0  0  0  0
  160.8780  203.9830  149.4160 C   0  0  0  0  0  3  0  0  0  0  0  0
  161.2630  206.4850  149.5600 C   0  0  0  0  0  0  0  0  0  0  0  0
  160.9810  200.3780  146.3830 O   0  0  0  0  0  1  0  0  0  0  0  0
  162.0900  205.8890  147.2710 C   0  0  0  0  0  3  0  0  0  0  0  0
  161.1570  203.6270  148.1670 C   0  0  0  0  0  0  0  0  0  0  0  0
  162.7180  207.9080  148.1980 O   0  0  0  0  0  1  0  0  0  0  0  0
  161.0320  201.7470  146.6220 C   0  0  1  0  0  3  0  0  0  0  0  0
  161.0060  207.6670  150.4400 C   0  0  0  0  0  2  0  0  0  0  0  0
  162.1660  208.6530  150.3770 C   0  0  0  0  0  2  0  0  0  0  0  0
  160.5080  211.4350  152.3160 C   0  0  0  0  0  0  0  0  0  0  0  0
  161.3720  210.4740  151.9800 C   0  0  0  0  0  3  0  0  0  0  0  0
  161.3980  212.3290  149.5280 C   0  0  0  0  0  0  0  0  0  0  0  0
  159.6510  212.1050  151.2920 C   0  0  0  0  0  2  0  0  0  0  0  0
  160.4730  212.8810  150.3160 C   0  0  0  0  0  3  0  0  0  0  0  0
  161.7410  210.8900  149.5450 C   0  0  0  0  0  3  0  0  0  0  0  0
  161.6960  210.0560  150.5950 C   0  0  0  0  0  0  0  0  0  0  0  0
  160.3320  211.7750  153.6930 N   0  0  0  0  0  0  0  0  0  0  0  0
  160.0560  212.2070  155.8550 C   0  0  1  0  0  3  0  0  0  0  0  0
  161.0020  211.4560  154.9720 C   0  0  0  0  0  2  0  0  0  0  0  0
  159.4190  212.5740  154.5350 C   0  0  2  0  0  3  0  0  0  0  0  0
  157.9710  212.1280  154.3430 C   0  0  0  0  0  1  0  0  0  0  0  0
  158.2030  211.5520  157.2400 O   0  0  0  0  0  0  0  0  0  0  0  0
  159.2850  211.2490  156.7440 C   0  0  0  0  0  3  0  0  0  0  0  0
  162.0410  213.1860  148.4900 C   0  0  0  0  0  2  0  0  0  0  0  0
  161.8600  212.6110  147.2250 O   0  0  0  0  0  0  0  0  0  0  0  0
  160.0020  212.5460  146.1260 C   0  0  0  0  0  1  0  0  0  0  0  0
  161.0020  213.4020  146.6110 O   0  0  0  0  0  0  0  0  0  0  0  0
  161.9000  204.9380  144.7450 O   0  0  0  0  0  0  0  0  0  0  0  0
  161.0210  205.4280  143.7370 C   0  0  0  0  0  2  0  0  0  0  0  0
  161.3020  206.9450  141.7440 N   0  0  0  0  0  2  0  0  0  0  0  0
  161.7850  205.8470  142.5230 C   0  0  0  0  0  0  0  0  0  0  0  0
  162.8610  205.2570  142.2150 O   0  0  0  0  0  0  0  0  0  0  0  0
  163.4850  207.8090  140.4690 O   0  0  0  0  0  1  0  0  0  0  0  0
  162.0400  207.4230  140.2300 P   0  0  1  0  0  0  0  0  0  0  0  0
  161.9740  206.1240  139.1410 O   0  0  0  0  0  0  0  0  0  0  0  0
  161.1290  208.8490  139.5520 C   0  0  2  0  0  3  0  0  0  0  0  0
  160.2930  208.4150  138.5210 O   0  0  0  0  0  1  0  0  0  0  0  0
  162.0830  209.9090  139.0060 C   0  0  0  0  0  2  0  0  0  0  0  0
  161.7730  211.2980  139.5590 C   0  0  0  0  0  2  0  0  0  0  0  0
  161.3650  211.2260  141.0210 C   0  0  0  0  0  2  0  0  0  0  0  0
  162.6860  213.2790  141.0630 O   0  0  0  0  0  0  0  0  0  0  0  0
  162.1160  212.2330  142.9940 O   0  0  0  0  0  0  0  0  0  0  0  0
  161.9830  212.3210  141.7530 N   0  0  0  0  0  0  0  0  0  0  0  0
  1 10  2  0  0  0  0
  1 11  1  0  0  0  0
  2 34  1  6  0  0  0
  2  1  1  0  0  0  0
  4  2  1  0  0  0  0
  4 13  1  0  0  0  0
  5  8  2  0  0  0  0
  6 11  2  0  0  0  0
  7  3  2  0  0  0  0
  8  3  1  0  0  0  0
  8 14  1  0  0  0  0
 10  5  1  0  0  0  0
 11  7  1  0  0  0  0
 12  5  1  0  0  0  0
 13  9  1  1  0  0  0
 13  6  1  0  0  0  0
 15 14  1  0  0  0  0
 15 22  1  0  0  0  0
 16 23  1  0  0  0  0
 17 16  2  0  0  0  0
 18 21  1  0  0  0  0
 18 20  2  0  0  0  0
 19 16  1  0  0  0  0
 20 19  1  0  0  0  0
 21 22  2  0  0  0  0
 22 17  1  0  0  0  0
 23 26  1  0  0  0  0
 23 25  1  0  0  0  0
 24 29  1  1  0  0  0
 25 24  1  0  0  0  0
 26 27  1  1  0  0  0
 26 24  1  0  0  0  0
 29 28  2  0  0  0  0
 30 18  1  0  0  0  0
 31 30  1  0  0  0  0
 32 33  1  0  0  0  0
 33 31  1  0  0  0  0
 35 34  1  0  0  0  0
 36 37  1  0  0  0  0
 37 35  1  0  0  0  0
 38 37  2  0  0  0  0
 40 41  2  6  0  0  0
 40 39  1  0  0  0  0
 40 36  1  0  0  0  0
 42 43  1  6  0  0  0
 42 40  1  0  0  0  0
 44 42  1  0  0  0  0
 44 45  1  0  0  0  0
 45 46  1  0  0  0  0
 46 49  1  0  0  0  0
 47 49  2  0  0  0  0
 49 48  2  0  0  0  0
M  END
>  <MODEL>
8

>  <REMARK>
 VINA RESULT:      -3.8      3.444      9.952
  Name = 
  17 active torsions:
  status: ('A' for Active; 'I' for Inactive)
    1  A    between atoms: C_1  and  C_32
    2  A    between atoms: C_1  and  C_47
    3  A    between atoms: N_2  and  C_3
    4  A    between atoms: N_4  and  P_28
    5  A    between atoms: C_6  and  C_31
    6  A    between atoms: C_8  and  C_18
    7  A    between atoms: C_8  and  P_28
    8  A    between atoms: C_9  and  C_48
    9  A    between atoms: C_10  and  O_42
   10  A    between atoms: O_15  and  O_20
   11  A    between atoms: O_15  and  C_37
   12  A    between atoms: C_18  and  C_25
   13  A    between atoms: C_19  and  C_37
   14  A    between atoms: C_25  and  C_35
   15  A    between atoms: N_30  and  C_35
   16  A    between atoms: C_31  and  O_42
   17  A    between atoms: C_32  and  C_36
                            x       y       z     vdW  Elec       q    Type
                         _______ _______ _______ _____ _____    ______ ____

>  <TORSDO>
F 17

$$$$
=
 OpenBabel11072411433D

 49 52  0  0  1  0  0  0  0  0999 V2000
  161.3700  208.1730  151.4840 C   0  0  0  0  0  0  0  0  0  0  0  0
  161.3200  209.3740  152.1020 C   0  0  1  0  0  3  0  0  0  0  0  0
  160.9130  205.7170  149.5920 C   0  0  0  0  0  3  0  0  0  0  0  0
  161.3240  210.6670  151.3150 C   0  0  0  0  0  2  0  0  0  0  0  0
  161.2420  205.6960  152.0780 C   0  0  0  0  0  0  0  0  0  0  0  0
  161.9590  209.3580  149.3160 C   0  0  0  0  0  3  0  0  0  0  0  0
  161.3670  207.0640  149.2350 C   0  0  0  0  0  3  0  0  0  0  0  0
  160.8160  205.1300  150.7810 C   0  0  0  0  0  0  0  0  0  0  0  0
  162.3220  211.6770  149.2540 O   0  0  0  0  0  1  0  0  0  0  0  0
  161.4380  206.9850  152.3490 C   0  0  0  0  0  2  0  0  0  0  0  0
  161.5590  208.1260  150.0090 C   0  0  0  0  0  0  0  0  0  0  0  0
  161.4100  204.8140  153.1360 O   0  0  0  0  0  1  0  0  0  0  0  0
  161.8990  210.5370  149.9280 C   0  0  0  0  0  0  0  0  0  0  0  0
  160.2800  203.7340  150.7760 C   0  0  0  0  0  2  0  0  0  0  0  0
  161.3560  202.7410  150.3500 C   0  0  0  0  0  2  0  0  0  0  0  0
  160.7590  203.4520  146.6920 C   0  0  0  0  0  0  0  0  0  0  0  0
  161.3250  203.4580  147.9010 C   0  0  0  0  0  3  0  0  0  0  0  0
  161.0730  200.4620  147.2610 C   0  0  0  0  0  0  0  0  0  0  0  0
  159.8080  202.3740  146.2830 C   0  0  0  0  0  2  0  0  0  0  0  0
  160.4870  201.0450  146.2130 C   0  0  0  0  0  3  0  0  0  0  0  0
  161.1460  201.0700  148.6070 C   0  0  0  0  0  3  0  0  0  0  0  0
  161.2140  202.3760  148.9070 C   0  0  0  0  0  0  0  0  0  0  0  0
  160.9950  204.5410  145.7970 N   0  0  0  0  0  0  0  0  0  0  0  0
  161.3570  206.1710  144.3300 C   0  0  1  0  0  3  0  0  0  0  0  0
  160.3310  205.1160  144.6080 C   0  0  0  0  0  2  0  0  0  0  0  0
  161.9900  205.6110  145.5830 C   0  0  2  0  0  3  0  0  0  0  0  0
  163.3910  205.0270  145.4220 C   0  0  0  0  0  1  0  0  0  0  0  0
  161.5830  206.2030  141.9370 O   0  0  0  0  0  0  0  0  0  0  0  0
  162.0680  205.8890  143.0200 C   0  0  0  0  0  3  0  0  0  0  0  0
  161.5810  199.0690  147.0970 C   0  0  0  0  0  2  0  0  0  0  0  0
  161.9610  198.8580  145.7640 O   0  0  0  0  0  0  0  0  0  0  0  0
  160.4830  197.8980  144.5170 C   0  0  0  0  0  1  0  0  0  0  0  0
  161.4940  197.6640  145.4610 O   0  0  0  0  0  0  0  0  0  0  0  0
  161.2220  209.4230  153.5000 O   0  0  0  0  0  0  0  0  0  0  0  0
  159.9870  209.3300  154.2050 C   0  0  0  0  0  2  0  0  0  0  0  0
  158.6550  211.4070  154.7190 N   0  0  0  0  0  2  0  0  0  0  0  0
  159.7560  210.5520  155.0350 C   0  0  0  0  0  0  0  0  0  0  0  0
  160.5080  210.7990  156.0230 O   0  0  0  0  0  0  0  0  0  0  0  0
  157.4040  212.7290  156.6750 O   0  0  0  0  0  1  0  0  0  0  0  0
  158.3810  212.9310  155.5360 P   0  0  1  0  0  0  0  0  0  0  0  0
  159.8530  213.5100  156.1480 O   0  0  0  0  0  0  0  0  0  0  0  0
  157.6910  214.1260  154.3420 C   0  0  2  0  0  3  0  0  0  0  0  0
  156.3890  213.7460  154.0110 O   0  0  0  0  0  1  0  0  0  0  0  0
  158.5320  214.1860  153.0690 C   0  0  0  0  0  2  0  0  0  0  0  0
  157.6660  214.2130  151.8120 C   0  0  0  0  0  2  0  0  0  0  0  0
  158.2350  213.3050  150.7350 C   0  0  0  0  0  2  0  0  0  0  0  0
  156.1940  213.4080  149.4000 O   0  0  0  0  0  0  0  0  0  0  0  0
  158.2270  213.6360  148.4210 O   0  0  0  0  0  0  0  0  0  0  0  0
  157.5570  213.5610  149.4740 N   0  0  0  0  0  0  0  0  0  0  0  0
  1  2  1  0  0  0  0
  1 10  1  0  0  0  0
  2 34  1  6  0  0  0
  3  8  1  0  0  0  0
  4  2  1  0  0  0  0
  5 10  1  0  0  0  0
  5 12  1  0  0  0  0
  6 13  2  0  0  0  0
  6 11  1  0  0  0  0
  7  3  2  0  0  0  0
  7 11  1  0  0  0  0
  8  5  2  0  0  0  0
  9 13  1  0  0  0  0
 11  1  2  0  0  0  0
 13  4  1  0  0  0  0
 14  8  1  0  0  0  0
 15 14  1  0  0  0  0
 16 17  2  0  0  0  0
 17 22  1  0  0  0  0
 18 21  1  0  0  0  0
 19 16  1  0  0  0  0
 20 19  1  0  0  0  0
 20 18  2  0  0  0  0
 21 22  2  0  0  0  0
 22 15  1  0  0  0  0
 23 16  1  0  0  0  0
 24 29  1  6  0  0  0
 24 25  1  0  0  0  0
 24 26  1  0  0  0  0
 25 23  1  0  0  0  0
 26 27  1  6  0  0  0
 26 23  1  0  0  0  0
 28 29  2  0  0  0  0
 30 18  1  0  0  0  0
 31 30  1  0  0  0  0
 32 33  1  0  0  0  0
 33 31  1  0  0  0  0
 34 35  1  0  0  0  0
 35 37  1  0  0  0  0
 36 37  1  0  0  0  0
 36 40  1  0  0  0  0
 37 38  2  0  0  0  0
 40 41  2  1  0  0  0
 40 39  1  0  0  0  0
 42 43  1  6  0  0  0
 42 40  1  0  0  0  0
 44 42  1  0  0  0  0
 45 44  1  0  0  0  0
 46 45  1  0  0  0  0
 47 49  2  0  0  0  0
 48 49  2  0  0  0  0
 49 46  1  0  0  0  0
M  END
>  <MODEL>
9

>  <REMARK>
 VINA RESULT:      -3.7      2.312      5.204
  Name = 
  17 active torsions:
  status: ('A' for Active; 'I' for Inactive)
    1  A    between atoms: C_1  and  C_32
    2  A    between atoms: C_1  and  C_47
    3  A    between atoms: N_2  and  C_3
    4  A    between atoms: N_4  and  P_28
    5  A    between atoms: C_6  and  C_31
    6  A    between atoms: C_8  and  C_18
    7  A    between atoms: C_8  and  P_28
    8  A    between atoms: C_9  and  C_48
    9  A    between atoms: C_10  and  O_42
   10  A    between atoms: O_15  and  O_20
   11  A    between atoms: O_15  and  C_37
   12  A    between atoms: C_18  and  C_25
   13  A    between atoms: C_19  and  C_37
   14  A    between atoms: C_25  and  C_35
   15  A    between atoms: N_30  and  C_35
   16  A    between atoms: C_31  and  O_42
   17  A    between atoms: C_32  and  C_36
                            x       y       z     vdW  Elec       q    Type
                         _______ _______ _______ _____ _____    ______ ____

>  <TORSDO>
F 17

$$$$
