=
 OpenBabel11072411303D

 35 37  0  0  1  0  0  0  0  0999 V2000
  161.0300  207.4520  156.1730 N   0  0  0  0  0  1  0  0  0  0  0  0
  160.8330  207.4430  152.5960 C   0  0  0  0  0  3  0  0  0  0  0  0
  160.9220  207.7900  153.8490 C   0  0  0  0  0  0  0  0  0  0  0  0
  160.8420  210.4950  152.9060 C   0  0  2  0  0  3  0  0  0  0  0  0
  161.4410  209.6860  155.1970 N   0  0  0  0  0  0  0  0  0  0  0  0
  161.0550  208.3080  155.0360 C   0  0  0  0  0  0  0  0  0  0  0  0
  161.3850  210.6440  154.3090 C   0  0  0  0  0  3  0  0  0  0  0  0
  161.8390  209.7190  152.0410 C   0  0  0  0  0  2  0  0  0  0  0  0
  161.2160  208.4140  151.5010 C   0  0  1  0  0  3  0  0  0  0  0  0
  161.9730  206.3320  150.5280 O   0  0  0  0  0  0  0  0  0  0  0  0
  162.1650  207.7330  150.5070 C   0  0  1  0  0  3  0  0  0  0  0  0
  161.8890  208.1270  149.1250 C   0  0  0  0  0  0  0  0  0  0  0  0
  161.1480  206.0020  149.4760 N   0  0  0  0  0  0  0  0  0  0  0  0
  162.1630  209.2040  148.6230 O   0  0  0  0  0  0  0  0  0  0  0  0
  161.3300  206.9960  148.4180 C   0  0  0  0  0  2  0  0  0  0  0  0
  161.5340  204.6870  148.9370 C   0  0  1  0  0  3  0  0  0  0  0  0
  161.2170  201.7070  150.6250 O   0  0  0  0  0  0  0  0  0  0  0  0
  160.5150  203.5770  149.3170 C   0  0  2  0  0  3  0  0  0  0  0  0
  160.7520  203.6780  151.7320 O   0  0  0  0  0  0  0  0  0  0  0  0
  160.8370  203.0290  150.6570 C   0  0  0  0  0  0  0  0  0  0  0  0
  160.6060  202.3160  148.4400 C   0  0  0  0  0  3  0  0  0  0  0  0
  161.2070  201.2030  149.3050 C   0  0  0  0  0  3  0  0  0  0  0  0
  161.7510  204.7960  147.4510 C   0  0  0  0  0  0  0  0  0  0  0  0
  160.7740  204.9370  146.6700 O   0  0  0  0  0  0  0  0  0  0  0  0
  163.0400  204.7240  146.9380 O   0  0  0  0  0  1  0  0  0  0  0  0
  160.5270  211.8600  152.2810 C   0  0  2  0  0  3  0  0  0  0  0  0
  156.8250  213.2320  153.5280 C   0  0  0  0  0  1  0  0  0  0  0  0
  158.1330  212.7470  153.0880 C   0  0  0  0  0  0  0  0  0  0  0  0
  159.2110  212.3480  152.7260 C   0  0  0  0  0  0  0  0  0  0  0  0
  160.5250  211.7650  150.7590 C   0  0  0  0  0  2  0  0  0  0  0  0
  160.4060  213.0900  150.1690 N   0  0  0  0  0  2  0  0  0  0  0  0
  161.1930  213.0420  148.6040 P   0  0  0  0  0  0  0  0  0  0  0  0
  160.1980  212.2500  147.4890 O   0  0  0  0  0  0  0  0  0  0  0  0
  161.4490  214.4530  148.1310 O   0  0  0  0  0  1  0  0  0  0  0  0
  162.6670  212.2210  148.7310 O   0  0  0  0  0  1  0  0  0  0  0  0
  2  3  2  0  0  0  0
  3  6  2  0  0  0  0
  4 26  1  6  0  0  0
  4  7  1  0  0  0  0
  6  5  1  0  0  0  0
  6  1  1  0  0  0  0
  7  5  2  0  0  0  0
  8  4  1  0  0  0  0
  9  8  1  1  0  0  0
  9  2  1  0  0  0  0
 11 12  1  6  0  0  0
 11 10  1  0  0  0  0
 11  9  1  0  0  0  0
 13 10  1  0  0  0  0
 14 12  2  0  0  0  0
 15 12  1  0  0  0  0
 15 13  1  0  0  0  0
 16 23  1  6  0  0  0
 16 13  1  0  0  0  0
 17 20  1  0  0  0  0
 18 16  1  6  0  0  0
 18 20  1  0  0  0  0
 20 19  2  0  0  0  0
 21 22  2  0  0  0  0
 21 18  1  0  0  0  0
 22 17  1  0  0  0  0
 24 23  2  0  0  0  0
 25 23  1  0  0  0  0
 26 30  1  6  0  0  0
 26 29  1  0  0  0  0
 28 27  1  0  0  0  0
 29 28  3  0  0  0  0
 31 30  1  0  0  0  0
 32 35  1  0  0  0  0
 32 31  1  0  0  0  0
 33 32  2  0  0  0  0
 34 32  1  0  0  0  0
M  END
>  <MODEL>
1

>  <REMARK>
 VINA RESULT:      -7.6      0.000      0.000
  Name = 
  9 active torsions:
  status: ('A' for Active; 'I' for Inactive)
    1  A    between atoms: C_3  and  C_5
    2  A    between atoms: C_3  and  C_6
    3  A    between atoms: C_3  and  N_23
    4  A    between atoms: P_7  and  N_25
    5  A    between atoms: C_11  and  C_12
    6  A    between atoms: C_11  and  C_24
    7  A    between atoms: C_11  and  C_26
    8  A    between atoms: C_15  and  C_31
    9  A    between atoms: C_24  and  N_25
                            x       y       z     vdW  Elec       q    Type
                         _______ _______ _______ _____ _____    ______ ____

>  <TORSDO>
F 9

$$$$
=
 OpenBabel11072411303D

 35 37  0  0  1  0  0  0  0  0999 V2000
  162.1090  210.5620  148.2880 N   0  0  0  0  0  1  0  0  0  0  0  0
  162.1140  207.4200  150.0090 C   0  0  0  0  0  3  0  0  0  0  0  0
  162.0610  208.6860  149.7040 C   0  0  0  0  0  0  0  0  0  0  0  0
  161.8420  209.1580  152.5220 C   0  0  2  0  0  3  0  0  0  0  0  0
  161.4430  210.7800  150.6590 N   0  0  0  0  0  0  0  0  0  0  0  0
  161.9450  209.9760  149.5740 C   0  0  0  0  0  0  0  0  0  0  0  0
  161.3640  210.4610  151.9240 C   0  0  0  0  0  3  0  0  0  0  0  0
  160.8740  208.0290  152.1520 C   0  0  0  0  0  2  0  0  0  0  0  0
  161.5850  206.9270  151.3380 C   0  0  1  0  0  3  0  0  0  0  0  0
  160.5510  205.4350  149.7380 O   0  0  0  0  0  0  0  0  0  0  0  0
  160.6500  205.7310  151.1170 C   0  0  1  0  0  3  0  0  0  0  0  0
  161.1720  204.5060  151.7250 C   0  0  0  0  0  0  0  0  0  0  0  0
  161.4170  204.4000  149.4640 N   0  0  0  0  0  0  0  0  0  0  0  0
  161.1870  204.2530  152.9190 O   0  0  0  0  0  0  0  0  0  0  0  0
  161.5750  203.5970  150.6760 C   0  0  0  0  0  2  0  0  0  0  0  0
  160.8440  203.5390  148.4150 C   0  0  1  0  0  3  0  0  0  0  0  0
  161.1830  204.8840  145.2690 O   0  0  0  0  0  0  0  0  0  0  0  0
  161.7290  203.5040  147.1390 C   0  0  2  0  0  3  0  0  0  0  0  0
  162.3080  205.8600  147.0340 O   0  0  0  0  0  0  0  0  0  0  0  0
  161.7700  204.8470  146.5130 C   0  0  0  0  0  0  0  0  0  0  0  0
  161.1460  202.6520  145.9960 C   0  0  0  0  0  3  0  0  0  0  0  0
  160.6790  203.6170  144.9020 C   0  0  0  0  0  3  0  0  0  0  0  0
  160.5790  202.1680  148.9810 C   0  0  0  0  0  0  0  0  0  0  0  0
  159.4420  201.8720  149.4350 O   0  0  0  0  0  1  0  0  0  0  0  0
  161.6020  201.2290  149.0160 O   0  0  0  0  0  0  0  0  0  0  0  0
  161.9950  209.2640  154.0450 C   0  0  2  0  0  3  0  0  0  0  0  0
  159.1690  206.9340  155.9750 C   0  0  0  0  0  1  0  0  0  0  0  0
  160.1670  207.7570  155.2920 C   0  0  0  0  0  0  0  0  0  0  0  0
  160.9900  208.4340  154.7300 C   0  0  0  0  0  0  0  0  0  0  0  0
  161.8290  210.7100  154.5010 C   0  0  0  0  0  2  0  0  0  0  0  0
  161.5170  210.7610  155.9200 N   0  0  0  0  0  2  0  0  0  0  0  0
  160.1380  211.8250  156.1180 P   0  0  0  0  0  0  0  0  0  0  0  0
  159.7620  212.5520  154.6380 O   0  0  0  0  0  0  0  0  0  0  0  0
  158.9520  211.0210  156.5960 O   0  0  0  0  0  1  0  0  0  0  0  0
  160.4990  213.0200  157.2610 O   0  0  0  0  0  1  0  0  0  0  0  0
  1  6  1  0  0  0  0
  3  2  2  0  0  0  0
  4 26  1  1  0  0  0
  5  7  2  0  0  0  0
  6  3  2  0  0  0  0
  6  5  1  0  0  0  0
  7  4  1  0  0  0  0
  8  4  1  0  0  0  0
  9  2  1  6  0  0  0
  9  8  1  0  0  0  0
 11 10  1  6  0  0  0
 11  9  1  0  0  0  0
 11 12  1  0  0  0  0
 12 14  2  0  0  0  0
 13 10  1  0  0  0  0
 13 15  1  0  0  0  0
 15 12  1  0  0  0  0
 16 23  1  1  0  0  0
 16 13  1  0  0  0  0
 17 20  1  0  0  0  0
 18 16  1  1  0  0  0
 20 19  2  0  0  0  0
 20 18  1  0  0  0  0
 21 18  1  0  0  0  0
 22 17  1  0  0  0  0
 22 21  2  0  0  0  0
 23 25  2  0  0  0  0
 23 24  1  0  0  0  0
 26 30  1  1  0  0  0
 26 29  1  0  0  0  0
 28 27  1  0  0  0  0
 29 28  3  0  0  0  0
 30 31  1  0  0  0  0
 31 32  1  0  0  0  0
 32 34  1  0  0  0  0
 32 35  1  0  0  0  0
 33 32  2  0  0  0  0
M  END
>  <MODEL>
2

>  <REMARK>
 VINA RESULT:      -7.1      3.100      5.061
  Name = 
  9 active torsions:
  status: ('A' for Active; 'I' for Inactive)
    1  A    between atoms: C_3  and  C_5
    2  A    between atoms: C_3  and  C_6
    3  A    between atoms: C_3  and  N_23
    4  A    between atoms: P_7  and  N_25
    5  A    between atoms: C_11  and  C_12
    6  A    between atoms: C_11  and  C_24
    7  A    between atoms: C_11  and  C_26
    8  A    between atoms: C_15  and  C_31
    9  A    between atoms: C_24  and  N_25
                            x       y       z     vdW  Elec       q    Type
                         _______ _______ _______ _____ _____    ______ ____

>  <TORSDO>
F 9

$$$$
=
 OpenBabel11072411303D

 35 37  0  0  1  0  0  0  0  0999 V2000
  162.2640  211.0280  148.4640 N   0  0  0  0  0  1  0  0  0  0  0  0
  161.0570  209.0090  151.1650 C   0  0  0  0  0  3  0  0  0  0  0  0
  161.5290  209.4340  150.0270 C   0  0  0  0  0  0  0  0  0  0  0  0
  161.4230  206.6980  149.1810 C   0  0  2  0  0  3  0  0  0  0  0  0
  162.5760  208.6110  148.0510 N   0  0  0  0  0  0  0  0  0  0  0  0
  162.0400  209.6790  148.8550 C   0  0  0  0  0  0  0  0  0  0  0  0
  162.3540  207.3280  148.1700 C   0  0  0  0  0  3  0  0  0  0  0  0
  162.0610  206.7420  150.5730 C   0  0  0  0  0  2  0  0  0  0  0  0
  161.1960  207.5560  151.5600 C   0  0  1  0  0  3  0  0  0  0  0  0
  161.6900  208.7080  153.6290 O   0  0  0  0  0  0  0  0  0  0  0  0
  161.7590  207.4520  152.9830 C   0  0  1  0  0  3  0  0  0  0  0  0
  160.9650  206.5560  153.8240 C   0  0  0  0  0  0  0  0  0  0  0  0
  160.5620  208.7170  154.4190 N   0  0  0  0  0  0  0  0  0  0  0  0
  160.9560  205.3370  153.7570 O   0  0  0  0  0  0  0  0  0  0  0  0
  160.2690  207.3410  154.8180 C   0  0  0  0  0  2  0  0  0  0  0  0
  160.8170  209.5030  155.6380 C   0  0  1  0  0  3  0  0  0  0  0  0
  159.6180  212.7150  155.3760 O   0  0  0  0  0  0  0  0  0  0  0  0
  159.6140  210.4130  156.0090 C   0  0  2  0  0  3  0  0  0  0  0  0
  159.0230  211.1620  153.7750 O   0  0  0  0  0  0  0  0  0  0  0  0
  159.3980  211.4270  154.9480 C   0  0  0  0  0  0  0  0  0  0  0  0
  159.8590  211.3050  157.2390 C   0  0  0  0  0  3  0  0  0  0  0  0
  160.0030  212.7450  156.7350 C   0  0  0  0  0  3  0  0  0  0  0  0
  161.2170  208.5780  156.7570 C   0  0  0  0  0  0  0  0  0  0  0  0
  160.3800  207.7820  157.2600 O   0  0  0  0  0  1  0  0  0  0  0  0
  162.5150  208.6160  157.2490 O   0  0  0  0  0  0  0  0  0  0  0  0
  161.0660  205.2580  148.7910 C   0  0  2  0  0  3  0  0  0  0  0  0
  161.2410  202.7560  152.0850 C   0  0  0  0  0  1  0  0  0  0  0  0
  161.1800  203.6400  150.9220 C   0  0  0  0  0  0  0  0  0  0  0  0
  161.1290  204.3690  149.9630 C   0  0  0  0  0  0  0  0  0  0  0  0
  162.0280  204.7360  147.7290 C   0  0  0  0  0  2  0  0  0  0  0  0
  161.2970  204.0310  146.6870 N   0  0  0  0  0  2  0  0  0  0  0  0
  161.1570  205.1150  145.3170 P   0  0  0  0  0  0  0  0  0  0  0  0
  162.6660  205.7960  144.9720 O   0  0  0  0  0  1  0  0  0  0  0  0
  160.6720  204.3390  144.1150 O   0  0  0  0  0  0  0  0  0  0  0  0
  160.0490  206.3430  145.6720 O   0  0  0  0  0  1  0  0  0  0  0  0
  1  6  1  0  0  0  0
  2  9  1  0  0  0  0
  3  2  2  0  0  0  0
  4 26  1  6  0  0  0
  4  8  1  0  0  0  0
  5  7  2  0  0  0  0
  5  6  1  0  0  0  0
  6  3  2  0  0  0  0
  7  4  1  0  0  0  0
  9  8  1  6  0  0  0
  9 11  1  0  0  0  0
 10 13  1  0  0  0  0
 11 10  1  1  0  0  0
 11 12  1  0  0  0  0
 12 15  1  0  0  0  0
 13 15  1  0  0  0  0
 13 16  1  0  0  0  0
 14 12  2  0  0  0  0
 16 23  1  1  0  0  0
 17 22  1  0  0  0  0
 18 16  1  6  0  0  0
 18 21  1  0  0  0  0
 19 20  2  0  0  0  0
 20 17  1  0  0  0  0
 20 18  1  0  0  0  0
 22 21  2  0  0  0  0
 23 25  2  0  0  0  0
 23 24  1  0  0  0  0
 26 30  1  6  0  0  0
 26 29  1  0  0  0  0
 28 27  1  0  0  0  0
 29 28  3  0  0  0  0
 31 30  1  0  0  0  0
 32 35  1  0  0  0  0
 32 31  1  0  0  0  0
 33 32  1  0  0  0  0
 34 32  2  0  0  0  0
M  END
>  <MODEL>
3

>  <REMARK>
 VINA RESULT:      -7.0      3.366      8.300
  Name = 
  9 active torsions:
  status: ('A' for Active; 'I' for Inactive)
    1  A    between atoms: C_3  and  C_5
    2  A    between atoms: C_3  and  C_6
    3  A    between atoms: C_3  and  N_23
    4  A    between atoms: P_7  and  N_25
    5  A    between atoms: C_11  and  C_12
    6  A    between atoms: C_11  and  C_24
    7  A    between atoms: C_11  and  C_26
    8  A    between atoms: C_15  and  C_31
    9  A    between atoms: C_24  and  N_25
                            x       y       z     vdW  Elec       q    Type
                         _______ _______ _______ _____ _____    ______ ____

>  <TORSDO>
F 9

$$$$
=
 OpenBabel11072411303D

 35 37  0  0  1  0  0  0  0  0999 V2000
  160.9420  206.7930  157.2610 N   0  0  0  0  0  1  0  0  0  0  0  0
  160.6770  207.1400  153.7050 C   0  0  0  0  0  3  0  0  0  0  0  0
  160.7540  207.3600  154.9870 C   0  0  0  0  0  0  0  0  0  0  0  0
  160.3740  210.1260  154.3390 C   0  0  2  0  0  3  0  0  0  0  0  0
  161.0990  209.1480  156.5260 N   0  0  0  0  0  0  0  0  0  0  0  0
  160.8560  207.7610  156.2220 C   0  0  0  0  0  0  0  0  0  0  0  0
  160.9260  210.1820  155.7450 C   0  0  0  0  0  3  0  0  0  0  0  0
  161.4310  209.5550  153.3880 C   0  0  0  0  0  2  0  0  0  0  0  0
  160.9360  208.2550  152.7170 C   0  0  1  0  0  3  0  0  0  0  0  0
  161.7430  206.4120  151.3730 O   0  0  0  0  0  0  0  0  0  0  0  0
  161.9310  207.7870  151.6480 C   0  0  1  0  0  3  0  0  0  0  0  0
  161.7160  208.4570  150.3650 C   0  0  0  0  0  0  0  0  0  0  0  0
  160.9680  206.3100  150.2400 N   0  0  0  0  0  0  0  0  0  0  0  0
  162.0090  209.6130  150.1070 O   0  0  0  0  0  0  0  0  0  0  0  0
  161.1940  207.4980  149.4180 C   0  0  0  0  0  2  0  0  0  0  0  0
  161.3820  205.1300  149.4610 C   0  0  1  0  0  3  0  0  0  0  0  0
  161.3870  201.9930  150.8690 O   0  0  0  0  0  0  0  0  0  0  0  0
  160.4830  203.8960  149.7460 C   0  0  2  0  0  3  0  0  0  0  0  0
  160.7520  203.8000  152.1580 O   0  0  0  0  0  0  0  0  0  0  0  0
  160.8810  203.2620  151.0260 C   0  0  0  0  0  0  0  0  0  0  0  0
  160.6810  202.7340  148.7560 C   0  0  0  0  0  3  0  0  0  0  0  0
  161.4030  201.6120  149.5090 C   0  0  0  0  0  3  0  0  0  0  0  0
  161.4390  205.4870  147.9990 C   0  0  0  0  0  0  0  0  0  0  0  0
  160.4730  206.0770  147.4470 O   0  0  0  0  0  1  0  0  0  0  0  0
  162.5590  205.1490  147.2510 O   0  0  0  0  0  0  0  0  0  0  0  0
  159.9070  211.5080  153.8660 C   0  0  2  0  0  3  0  0  0  0  0  0
  159.9860  214.2290  156.9860 C   0  0  0  0  0  1  0  0  0  0  0  0
  159.9590  213.2680  155.8840 C   0  0  0  0  0  0  0  0  0  0  0  0
  159.9360  212.4770  154.9750 C   0  0  0  0  0  0  0  0  0  0  0  0
  158.4860  211.4360  153.3170 C   0  0  0  0  0  2  0  0  0  0  0  0
  157.8470  212.7400  153.3930 N   0  0  0  0  0  2  0  0  0  0  0  0
  156.4630  212.5860  154.4570 P   0  0  0  0  0  0  0  0  0  0  0  0
  156.4350  211.0370  155.1360 O   0  0  0  0  0  1  0  0  0  0  0  0
  156.5650  213.6130  155.5600 O   0  0  0  0  0  1  0  0  0  0  0  0
  155.0380  212.8460  153.5820 O   0  0  0  0  0  0  0  0  0  0  0  0
  2  3  2  0  0  0  0
  3  6  2  0  0  0  0
  4 26  1  6  0  0  0
  4  7  1  0  0  0  0
  6  5  1  0  0  0  0
  6  1  1  0  0  0  0
  7  5  2  0  0  0  0
  8  4  1  0  0  0  0
  9  8  1  1  0  0  0
  9  2  1  0  0  0  0
 10 11  1  0  0  0  0
 11 12  1  6  0  0  0
 11  9  1  0  0  0  0
 13 10  1  0  0  0  0
 14 12  2  0  0  0  0
 15 13  1  0  0  0  0
 15 12  1  0  0  0  0
 16 23  1  6  0  0  0
 16 13  1  0  0  0  0
 17 20  1  0  0  0  0
 18 16  1  6  0  0  0
 18 20  1  0  0  0  0
 20 19  2  0  0  0  0
 21 22  2  0  0  0  0
 21 18  1  0  0  0  0
 22 17  1  0  0  0  0
 24 23  1  0  0  0  0
 25 23  2  0  0  0  0
 26 30  1  1  0  0  0
 26 29  1  0  0  0  0
 28 27  1  0  0  0  0
 29 28  3  0  0  0  0
 30 31  1  0  0  0  0
 31 32  1  0  0  0  0
 32 33  1  0  0  0  0
 32 34  1  0  0  0  0
 35 32  2  0  0  0  0
M  END
>  <MODEL>
4

>  <REMARK>
 VINA RESULT:      -6.9      3.201      3.355
  Name = 
  9 active torsions:
  status: ('A' for Active; 'I' for Inactive)
    1  A    between atoms: C_3  and  C_5
    2  A    between atoms: C_3  and  C_6
    3  A    between atoms: C_3  and  N_23
    4  A    between atoms: P_7  and  N_25
    5  A    between atoms: C_11  and  C_12
    6  A    between atoms: C_11  and  C_24
    7  A    between atoms: C_11  and  C_26
    8  A    between atoms: C_15  and  C_31
    9  A    between atoms: C_24  and  N_25
                            x       y       z     vdW  Elec       q    Type
                         _______ _______ _______ _____ _____    ______ ____

>  <TORSDO>
F 9

$$$$
=
 OpenBabel11072411303D

 35 37  0  0  1  0  0  0  0  0999 V2000
  161.4920  207.2760  156.3700 N   0  0  0  0  0  1  0  0  0  0  0  0
  160.9290  206.9070  152.8520 C   0  0  0  0  0  3  0  0  0  0  0  0
  161.0570  207.3720  154.0620 C   0  0  0  0  0  0  0  0  0  0  0  0
  160.1830  209.8790  152.9820 C   0  0  2  0  0  3  0  0  0  0  0  0
  161.2070  209.4480  155.2240 N   0  0  0  0  0  0  0  0  0  0  0  0
  161.1760  208.0080  155.1920 C   0  0  0  0  0  0  0  0  0  0  0  0
  160.8130  210.2800  154.2960 C   0  0  0  0  0  3  0  0  0  0  0  0
  161.2510  209.3040  152.0460 C   0  0  0  0  0  2  0  0  0  0  0  0
  160.9320  207.8430  151.6640 C   0  0  1  0  0  3  0  0  0  0  0  0
  161.8340  205.9290  150.4900 O   0  0  0  0  0  0  0  0  0  0  0  0
  161.9150  207.3360  150.6000 C   0  0  1  0  0  3  0  0  0  0  0  0
  161.5860  207.8350  149.2650 C   0  0  0  0  0  0  0  0  0  0  0  0
  161.0200  205.6350  149.4180 N   0  0  0  0  0  0  0  0  0  0  0  0
  161.7660  208.9740  148.8650 O   0  0  0  0  0  0  0  0  0  0  0  0
  161.1060  206.7350  148.4590 C   0  0  0  0  0  2  0  0  0  0  0  0
  161.4990  204.4110  148.7540 C   0  0  1  0  0  3  0  0  0  0  0  0
  161.2950  201.2940  150.1920 O   0  0  0  0  0  0  0  0  0  0  0  0
  160.5410  203.2090  148.9810 C   0  0  2  0  0  3  0  0  0  0  0  0
  160.6200  203.1370  151.4080 O   0  0  0  0  0  0  0  0  0  0  0  0
  160.8190  202.5800  150.2960 C   0  0  0  0  0  0  0  0  0  0  0  0
  160.7780  202.0280  148.0220 C   0  0  0  0  0  3  0  0  0  0  0  0
  161.4040  200.8950  148.8410 C   0  0  0  0  0  3  0  0  0  0  0  0
  161.7450  204.6940  147.2950 C   0  0  0  0  0  0  0  0  0  0  0  0
  160.7910  204.6870  146.4720 O   0  0  0  0  0  0  0  0  0  0  0  0
  163.0360  204.9490  146.8520 O   0  0  0  0  0  1  0  0  0  0  0  0
  159.4630  211.0630  152.3230 C   0  0  2  0  0  3  0  0  0  0  0  0
  161.7300  212.6230  149.2290 C   0  0  0  0  0  1  0  0  0  0  0  0
  160.9290  212.0710  150.3220 C   0  0  0  0  0  0  0  0  0  0  0  0
  160.2690  211.6160  151.2220 C   0  0  0  0  0  0  0  0  0  0  0  0
  159.2030  212.1670  153.3420 C   0  0  0  0  0  2  0  0  0  0  0  0
  158.0490  211.8370  154.1630 N   0  0  0  0  0  2  0  0  0  0  0  0
  158.1420  212.8100  155.6180 P   0  0  0  0  0  0  0  0  0  0  0  0
  158.0480  214.4500  155.2130 O   0  0  0  0  0  0  0  0  0  0  0  0
  156.9910  212.4550  156.5300 O   0  0  0  0  0  1  0  0  0  0  0  0
  159.6010  212.5060  156.4160 O   0  0  0  0  0  1  0  0  0  0  0  0
  2  3  2  0  0  0  0
  3  6  2  0  0  0  0
  4 26  1  6  0  0  0
  4  7  1  0  0  0  0
  6  5  1  0  0  0  0
  6  1  1  0  0  0  0
  7  5  2  0  0  0  0
  8  4  1  0  0  0  0
  9  8  1  1  0  0  0
  9  2  1  0  0  0  0
 10 11  1  0  0  0  0
 11 12  1  6  0  0  0
 11  9  1  0  0  0  0
 13 10  1  0  0  0  0
 14 12  2  0  0  0  0
 15 12  1  0  0  0  0
 15 13  1  0  0  0  0
 16 23  1  6  0  0  0
 16 13  1  0  0  0  0
 17 20  1  0  0  0  0
 18 16  1  6  0  0  0
 18 20  1  0  0  0  0
 20 19  2  0  0  0  0
 21 22  2  0  0  0  0
 21 18  1  0  0  0  0
 22 17  1  0  0  0  0
 24 23  2  0  0  0  0
 25 23  1  0  0  0  0
 26 29  1  6  0  0  0
 26 30  1  0  0  0  0
 27 28  1  0  0  0  0
 28 29  3  0  0  0  0
 30 31  1  0  0  0  0
 31 32  1  0  0  0  0
 32 35  1  0  0  0  0
 32 34  1  0  0  0  0
 33 32  2  0  0  0  0
M  END
>  <MODEL>
5

>  <REMARK>
 VINA RESULT:      -6.5      2.987      3.354
  Name = 
  9 active torsions:
  status: ('A' for Active; 'I' for Inactive)
    1  A    between atoms: C_3  and  C_5
    2  A    between atoms: C_3  and  C_6
    3  A    between atoms: C_3  and  N_23
    4  A    between atoms: P_7  and  N_25
    5  A    between atoms: C_11  and  C_12
    6  A    between atoms: C_11  and  C_24
    7  A    between atoms: C_11  and  C_26
    8  A    between atoms: C_15  and  C_31
    9  A    between atoms: C_24  and  N_25
                            x       y       z     vdW  Elec       q    Type
                         _______ _______ _______ _____ _____    ______ ____

>  <TORSDO>
F 9

$$$$
=
 OpenBabel11072411303D

 35 37  0  0  1  0  0  0  0  0999 V2000
  162.0700  211.7580  148.7340 N   0  0  0  0  0  1  0  0  0  0  0  0
  162.1750  209.1830  151.2220 C   0  0  0  0  0  3  0  0  0  0  0  0
  161.9520  210.2840  150.5610 C   0  0  0  0  0  0  0  0  0  0  0  0
  160.6740  211.2290  152.9460 C   0  0  2  0  0  3  0  0  0  0  0  0
  160.5950  212.2410  150.6580 N   0  0  0  0  0  0  0  0  0  0  0  0
  161.6050  211.4230  150.0360 C   0  0  0  0  0  0  0  0  0  0  0  0
  160.1560  212.1760  151.8880 C   0  0  0  0  0  3  0  0  0  0  0  0
  160.1690  209.8100  152.6650 C   0  0  0  0  0  2  0  0  0  0  0  0
  161.3430  208.8330  152.4360 C   0  0  1  0  0  3  0  0  0  0  0  0
  160.5460  207.0790  150.9720 O   0  0  0  0  0  0  0  0  0  0  0  0
  160.8310  207.3910  152.3210 C   0  0  1  0  0  3  0  0  0  0  0  0
  161.8440  206.4150  152.7250 C   0  0  0  0  0  0  0  0  0  0  0  0
  161.6260  206.3980  150.4580 N   0  0  0  0  0  0  0  0  0  0  0  0
  162.1930  206.1830  153.8700 O   0  0  0  0  0  0  0  0  0  0  0  0
  162.2930  205.6950  151.5540 C   0  0  0  0  0  2  0  0  0  0  0  0
  161.1610  205.3930  149.4870 C   0  0  1  0  0  3  0  0  0  0  0  0
  161.6560  206.5780  146.2970 O   0  0  0  0  0  0  0  0  0  0  0  0
  162.1040  205.2890  148.2560 C   0  0  2  0  0  3  0  0  0  0  0  0
  162.7060  207.6340  148.0620 O   0  0  0  0  0  0  0  0  0  0  0  0
  162.1850  206.6000  147.5670 C   0  0  0  0  0  0  0  0  0  0  0  0
  161.5680  204.3850  147.1310 C   0  0  0  0  0  3  0  0  0  0  0  0
  161.1600  205.2970  145.9700 C   0  0  0  0  0  3  0  0  0  0  0  0
  160.9640  204.0730  150.1850 C   0  0  0  0  0  0  0  0  0  0  0  0
  161.5800  203.0450  149.7960 O   0  0  0  0  0  0  0  0  0  0  0  0
  160.0830  203.9850  151.2550 O   0  0  0  0  0  1  0  0  0  0  0  0
  160.2650  211.6830  154.3520 C   0  0  2  0  0  3  0  0  0  0  0  0
  162.7110  209.9710  157.2210 C   0  0  0  0  0  1  0  0  0  0  0  0
  161.8470  210.5760  156.2070 C   0  0  0  0  0  0  0  0  0  0  0  0
  161.1360  211.0750  155.3720 C   0  0  0  0  0  0  0  0  0  0  0  0
  158.8210  211.2890  154.6450 C   0  0  0  0  0  2  0  0  0  0  0  0
  158.2190  212.2280  155.5780 N   0  0  0  0  0  2  0  0  0  0  0  0
  156.5010  212.2860  155.2310 P   0  0  0  0  0  0  0  0  0  0  0  0
  155.6840  213.0160  156.5200 O   0  0  0  0  0  1  0  0  0  0  0  0
  156.2740  213.0930  153.9750 O   0  0  0  0  0  0  0  0  0  0  0  0
  155.9110  210.7180  155.0020 O   0  0  0  0  0  1  0  0  0  0  0  0
  1  6  1  0  0  0  0
  3  2  2  0  0  0  0
  4 26  1  1  0  0  0
  5  7  2  0  0  0  0
  6  3  2  0  0  0  0
  6  5  1  0  0  0  0
  7  4  1  0  0  0  0
  8  4  1  0  0  0  0
  9  2  1  6  0  0  0
  9  8  1  0  0  0  0
 11 10  1  6  0  0  0
 11  9  1  0  0  0  0
 11 12  1  0  0  0  0
 12 14  2  0  0  0  0
 13 10  1  0  0  0  0
 13 15  1  0  0  0  0
 15 12  1  0  0  0  0
 16 23  1  1  0  0  0
 16 13  1  0  0  0  0
 17 20  1  0  0  0  0
 18 16  1  1  0  0  0
 20 19  2  0  0  0  0
 20 18  1  0  0  0  0
 21 18  1  0  0  0  0
 22 17  1  0  0  0  0
 22 21  2  0  0  0  0
 23 25  1  0  0  0  0
 24 23  2  0  0  0  0
 26 30  1  1  0  0  0
 26 29  1  0  0  0  0
 28 27  1  0  0  0  0
 29 28  3  0  0  0  0
 30 31  1  0  0  0  0
 32 31  1  0  0  0  0
 32 33  1  0  0  0  0
 34 32  2  0  0  0  0
 35 32  1  0  0  0  0
M  END
>  <MODEL>
6

>  <REMARK>
 VINA RESULT:      -6.1      3.379      5.127
  Name = 
  9 active torsions:
  status: ('A' for Active; 'I' for Inactive)
    1  A    between atoms: C_3  and  C_5
    2  A    between atoms: C_3  and  C_6
    3  A    between atoms: C_3  and  N_23
    4  A    between atoms: P_7  and  N_25
    5  A    between atoms: C_11  and  C_12
    6  A    between atoms: C_11  and  C_24
    7  A    between atoms: C_11  and  C_26
    8  A    between atoms: C_15  and  C_31
    9  A    between atoms: C_24  and  N_25
                            x       y       z     vdW  Elec       q    Type
                         _______ _______ _______ _____ _____    ______ ____

>  <TORSDO>
F 9

$$$$
=
 OpenBabel11072411303D

 35 37  0  0  1  0  0  0  0  0999 V2000
  160.8320  206.2490  156.0680 N   0  0  0  0  0  1  0  0  0  0  0  0
  160.5960  207.1030  152.5970 C   0  0  0  0  0  3  0  0  0  0  0  0
  160.7300  207.1350  153.8930 C   0  0  0  0  0  0  0  0  0  0  0  0
  160.8850  209.9830  153.6130 C   0  0  2  0  0  3  0  0  0  0  0  0
  161.4330  208.6070  155.6300 N   0  0  0  0  0  0  0  0  0  0  0  0
  160.9220  207.3430  155.1630 C   0  0  0  0  0  0  0  0  0  0  0  0
  161.4540  209.7480  154.9940 C   0  0  0  0  0  3  0  0  0  0  0  0
  161.7990  209.3500  152.5590 C   0  0  0  0  0  2  0  0  0  0  0  0
  161.0540  208.2680  151.7480 C   0  0  1  0  0  3  0  0  0  0  0  0
  161.4720  206.4980  150.1530 O   0  0  0  0  0  0  0  0  0  0  0  0
  161.9260  207.7630  150.5920 C   0  0  1  0  0  3  0  0  0  0  0  0
  161.8300  208.6240  149.4130 C   0  0  0  0  0  0  0  0  0  0  0  0
  160.6780  206.6940  149.0450 N   0  0  0  0  0  0  0  0  0  0  0  0
  162.3370  209.7270  149.2920 O   0  0  0  0  0  0  0  0  0  0  0  0
  161.1200  207.9150  148.3720 C   0  0  0  0  0  2  0  0  0  0  0  0
  160.8470  205.5690  148.1090 C   0  0  1  0  0  3  0  0  0  0  0  0
  161.7590  204.7070  144.9080 O   0  0  0  0  0  0  0  0  0  0  0  0
  161.8550  205.8990  146.9740 C   0  0  2  0  0  3  0  0  0  0  0  0
  160.2630  206.4370  145.2210 O   0  0  0  0  0  0  0  0  0  0  0  0
  161.2060  205.7230  145.6520 C   0  0  0  0  0  0  0  0  0  0  0  0
  163.0290  204.9090  146.8720 C   0  0  0  0  0  3  0  0  0  0  0  0
  162.8150  204.0780  145.6040 C   0  0  0  0  0  3  0  0  0  0  0  0
  161.2160  204.3270  148.8770 C   0  0  0  0  0  0  0  0  0  0  0  0
  161.8540  204.4110  149.9600 O   0  0  0  0  0  1  0  0  0  0  0  0
  160.8650  203.0800  148.3780 O   0  0  0  0  0  0  0  0  0  0  0  0
  160.6890  211.4780  153.3360 C   0  0  2  0  0  3  0  0  0  0  0  0
  159.1300  213.3970  156.6580 C   0  0  0  0  0  1  0  0  0  0  0  0
  159.6810  212.7190  155.4840 C   0  0  0  0  0  0  0  0  0  0  0  0
  160.1330  212.1600  154.5170 C   0  0  0  0  0  0  0  0  0  0  0  0
  159.7390  211.6860  152.1600 C   0  0  0  0  0  2  0  0  0  0  0  0
  160.4800  212.0950  150.9770 N   0  0  0  0  0  2  0  0  0  0  0  0
  159.7950  213.6110  150.4250 P   0  0  0  0  0  0  0  0  0  0  0  0
  159.1240  214.4440  151.7350 O   0  0  0  0  0  1  0  0  0  0  0  0
  160.8840  214.4530  149.8040 O   0  0  0  0  0  1  0  0  0  0  0  0
  158.5960  213.3090  149.2710 O   0  0  0  0  0  0  0  0  0  0  0  0
  2  3  2  0  0  0  0
  3  6  2  0  0  0  0
  4 26  1  6  0  0  0
  4  7  1  0  0  0  0
  6  5  1  0  0  0  0
  6  1  1  0  0  0  0
  7  5  2  0  0  0  0
  8  4  1  0  0  0  0
  9  8  1  1  0  0  0
  9  2  1  0  0  0  0
 10 11  1  0  0  0  0
 11 12  1  6  0  0  0
 11  9  1  0  0  0  0
 13 10  1  0  0  0  0
 14 12  2  0  0  0  0
 15 13  1  0  0  0  0
 15 12  1  0  0  0  0
 16 23  1  1  0  0  0
 16 13  1  0  0  0  0
 17 22  1  0  0  0  0
 17 20  1  0  0  0  0
 18 16  1  1  0  0  0
 19 20  2  0  0  0  0
 20 18  1  0  0  0  0
 21 18  1  0  0  0  0
 22 21  2  0  0  0  0
 23 24  1  0  0  0  0
 25 23  2  0  0  0  0
 26 30  1  6  0  0  0
 26 29  1  0  0  0  0
 28 27  1  0  0  0  0
 29 28  3  0  0  0  0
 31 30  1  0  0  0  0
 32 31  1  0  0  0  0
 32 33  1  0  0  0  0
 34 32  1  0  0  0  0
 35 32  2  0  0  0  0
M  END
>  <MODEL>
7

>  <REMARK>
 VINA RESULT:      -6.1      1.756      2.914
  Name = 
  9 active torsions:
  status: ('A' for Active; 'I' for Inactive)
    1  A    between atoms: C_3  and  C_5
    2  A    between atoms: C_3  and  C_6
    3  A    between atoms: C_3  and  N_23
    4  A    between atoms: P_7  and  N_25
    5  A    between atoms: C_11  and  C_12
    6  A    between atoms: C_11  and  C_24
    7  A    between atoms: C_11  and  C_26
    8  A    between atoms: C_15  and  C_31
    9  A    between atoms: C_24  and  N_25
                            x       y       z     vdW  Elec       q    Type
                         _______ _______ _______ _____ _____    ______ ____

>  <TORSDO>
F 9

$$$$
=
 OpenBabel11072411303D

 35 37  0  0  1  0  0  0  0  0999 V2000
  159.9040  213.8650  149.8970 N   0  0  0  0  0  1  0  0  0  0  0  0
  161.1120  210.9290  151.5540 C   0  0  0  0  0  3  0  0  0  0  0  0
  160.5430  212.0650  151.2660 C   0  0  0  0  0  0  0  0  0  0  0  0
  159.8720  212.2130  154.0490 C   0  0  2  0  0  3  0  0  0  0  0  0
  158.9860  213.6220  152.1800 N   0  0  0  0  0  0  0  0  0  0  0  0
  159.8890  213.1840  151.1460 C   0  0  0  0  0  0  0  0  0  0  0  0
  158.9330  213.2190  153.4220 C   0  0  0  0  0  3  0  0  0  0  0  0
  159.5320  210.8040  153.5510 C   0  0  0  0  0  2  0  0  0  0  0  0
  160.7260  210.1710  152.8060 C   0  0  1  0  0  3  0  0  0  0  0  0
  160.8340  208.4250  151.1340 O   0  0  0  0  0  0  0  0  0  0  0  0
  160.4320  208.7060  152.4600 C   0  0  1  0  0  3  0  0  0  0  0  0
  161.2050  207.7790  153.2880 C   0  0  0  0  0  0  0  0  0  0  0  0
  162.0750  207.8310  151.1840 N   0  0  0  0  0  0  0  0  0  0  0  0
  160.9940  207.5270  154.4630 O   0  0  0  0  0  0  0  0  0  0  0  0
  162.1990  207.1310  152.4620 C   0  0  0  0  0  2  0  0  0  0  0  0
  162.1910  206.8350  150.1050 C   0  0  1  0  0  3  0  0  0  0  0  0
  161.2580  203.5790  149.5110 O   0  0  0  0  0  0  0  0  0  0  0  0
  160.9620  205.8860  150.0490 C   0  0  2  0  0  3  0  0  0  0  0  0
  161.7000  204.2420  151.6780 O   0  0  0  0  0  0  0  0  0  0  0  0
  161.3480  204.5280  150.5030 C   0  0  0  0  0  0  0  0  0  0  0  0
  160.4560  205.6000  148.6240 C   0  0  0  0  0  3  0  0  0  0  0  0
  160.8180  204.1480  148.2950 C   0  0  0  0  0  3  0  0  0  0  0  0
  162.4460  207.5380  148.7980 C   0  0  0  0  0  0  0  0  0  0  0  0
  163.0870  206.9650  147.8770 O   0  0  0  0  0  0  0  0  0  0  0  0
  161.9850  208.8350  148.6130 O   0  0  0  0  0  1  0  0  0  0  0  0
  159.8170  212.2770  155.5800 C   0  0  2  0  0  3  0  0  0  0  0  0
  162.3470  209.4600  157.2580 C   0  0  0  0  0  1  0  0  0  0  0  0
  161.4530  210.4550  156.6650 C   0  0  0  0  0  0  0  0  0  0  0  0
  160.7160  211.2740  156.1770 C   0  0  0  0  0  0  0  0  0  0  0  0
  158.3980  212.0200  156.0780 C   0  0  0  0  0  2  0  0  0  0  0  0
  157.8000  213.2540  156.5600 N   0  0  0  0  0  2  0  0  0  0  0  0
  156.0630  213.1030  156.3770 P   0  0  0  0  0  0  0  0  0  0  0  0
  155.5750  211.5480  156.8310 O   0  0  0  0  0  1  0  0  0  0  0  0
  155.3780  214.1190  157.2610 O   0  0  0  0  0  1  0  0  0  0  0  0
  155.6310  213.3840  154.7660 O   0  0  0  0  0  0  0  0  0  0  0  0
  1  6  1  0  0  0  0
  3  2  2  0  0  0  0
  4 26  1  1  0  0  0
  5  7  2  0  0  0  0
  6  3  2  0  0  0  0
  6  5  1  0  0  0  0
  7  4  1  0  0  0  0
  8  4  1  0  0  0  0
  9  2  1  6  0  0  0
  9  8  1  0  0  0  0
 10 13  1  0  0  0  0
 11 10  1  6  0  0  0
 11  9  1  0  0  0  0
 11 12  1  0  0  0  0
 12 14  2  0  0  0  0
 13 15  1  0  0  0  0
 15 12  1  0  0  0  0
 16 23  1  6  0  0  0
 16 13  1  0  0  0  0
 17 20  1  0  0  0  0
 18 16  1  6  0  0  0
 18 20  1  0  0  0  0
 20 19  2  0  0  0  0
 21 18  1  0  0  0  0
 22 21  2  0  0  0  0
 22 17  1  0  0  0  0
 24 23  2  0  0  0  0
 25 23  1  0  0  0  0
 26 30  1  1  0  0  0
 26 29  1  0  0  0  0
 28 27  1  0  0  0  0
 29 28  3  0  0  0  0
 30 31  1  0  0  0  0
 32 31  1  0  0  0  0
 32 33  1  0  0  0  0
 32 34  1  0  0  0  0
 35 32  2  0  0  0  0
M  END
>  <MODEL>
8

>  <REMARK>
 VINA RESULT:      -6.0      3.880      5.344
  Name = 
  9 active torsions:
  status: ('A' for Active; 'I' for Inactive)
    1  A    between atoms: C_3  and  C_5
    2  A    between atoms: C_3  and  C_6
    3  A    between atoms: C_3  and  N_23
    4  A    between atoms: P_7  and  N_25
    5  A    between atoms: C_11  and  C_12
    6  A    between atoms: C_11  and  C_24
    7  A    between atoms: C_11  and  C_26
    8  A    between atoms: C_15  and  C_31
    9  A    between atoms: C_24  and  N_25
                            x       y       z     vdW  Elec       q    Type
                         _______ _______ _______ _____ _____    ______ ____

>  <TORSDO>
F 9

$$$$
=
 OpenBabel11072411303D

 35 37  0  0  1  0  0  0  0  0999 V2000
  162.2590  210.5430  148.1440 N   0  0  0  0  0  1  0  0  0  0  0  0
  161.0840  208.7990  151.0430 C   0  0  0  0  0  3  0  0  0  0  0  0
  161.5220  209.1120  149.8570 C   0  0  0  0  0  0  0  0  0  0  0  0
  161.2430  206.3300  149.2310 C   0  0  2  0  0  3  0  0  0  0  0  0
  162.4330  208.0890  147.9070 N   0  0  0  0  0  0  0  0  0  0  0  0
  161.9880  209.2410  148.6490 C   0  0  0  0  0  0  0  0  0  0  0  0
  162.1550  206.8320  148.1340 C   0  0  0  0  0  3  0  0  0  0  0  0
  161.9470  206.4440  150.5860 C   0  0  0  0  0  2  0  0  0  0  0  0
  161.1710  207.3740  151.5430 C   0  0  1  0  0  3  0  0  0  0  0  0
  161.7090  208.6280  153.5420 O   0  0  0  0  0  0  0  0  0  0  0  0
  161.7940  207.3490  152.9450 C   0  0  1  0  0  3  0  0  0  0  0  0
  161.0660  206.4630  153.8550 C   0  0  0  0  0  0  0  0  0  0  0  0
  160.6150  208.6340  154.3770 N   0  0  0  0  0  0  0  0  0  0  0  0
  161.0950  205.2440  153.8380 O   0  0  0  0  0  0  0  0  0  0  0  0
  160.3840  207.2670  154.8440 C   0  0  0  0  0  2  0  0  0  0  0  0
  160.8920  209.4780  155.5510 C   0  0  1  0  0  3  0  0  0  0  0  0
  159.5800  212.6400  155.2320 O   0  0  0  0  0  0  0  0  0  0  0  0
  159.6740  210.3610  155.9380 C   0  0  2  0  0  3  0  0  0  0  0  0
  158.9790  211.0170  153.7050 O   0  0  0  0  0  0  0  0  0  0  0  0
  159.3870  211.3320  154.8540 C   0  0  0  0  0  0  0  0  0  0  0  0
  159.9350  211.3010  157.1290 C   0  0  0  0  0  3  0  0  0  0  0  0
  160.0130  212.7270  156.5740 C   0  0  0  0  0  3  0  0  0  0  0  0
  161.3720  208.6150  156.6880 C   0  0  0  0  0  0  0  0  0  0  0  0
  160.5930  207.7960  157.2440 O   0  0  0  0  0  1  0  0  0  0  0  0
  162.6810  208.7350  157.1380 O   0  0  0  0  0  0  0  0  0  0  0  0
  160.7980  204.8850  148.9690 C   0  0  2  0  0  3  0  0  0  0  0  0
  161.1610  202.5900  152.3970 C   0  0  0  0  0  1  0  0  0  0  0  0
  161.0330  203.4010  151.1860 C   0  0  0  0  0  0  0  0  0  0  0  0
  160.9280  204.0700  150.1890 C   0  0  0  0  0  0  0  0  0  0  0  0
  161.6430  204.2550  147.8670 C   0  0  0  0  0  2  0  0  0  0  0  0
  162.0560  202.9140  148.2510 N   0  0  0  0  0  2  0  0  0  0  0  0
  160.9440  201.7860  147.5010 P   0  0  0  0  0  0  0  0  0  0  0  0
  159.4890  201.7610  148.3630 O   0  0  0  0  0  1  0  0  0  0  0  0
  160.6740  202.2220  146.0800 O   0  0  0  0  0  0  0  0  0  0  0  0
  161.6220  200.2360  147.4900 O   0  0  0  0  0  1  0  0  0  0  0  0
  1  6  1  0  0  0  0
  2  9  1  0  0  0  0
  3  2  2  0  0  0  0
  4 26  1  6  0  0  0
  4  8  1  0  0  0  0
  5  7  2  0  0  0  0
  5  6  1  0  0  0  0
  6  3  2  0  0  0  0
  7  4  1  0  0  0  0
  9  8  1  6  0  0  0
  9 11  1  0  0  0  0
 10 13  1  0  0  0  0
 11 10  1  1  0  0  0
 11 12  1  0  0  0  0
 12 15  1  0  0  0  0
 13 15  1  0  0  0  0
 13 16  1  0  0  0  0
 14 12  2  0  0  0  0
 16 23  1  1  0  0  0
 17 22  1  0  0  0  0
 18 16  1  6  0  0  0
 18 21  1  0  0  0  0
 19 20  2  0  0  0  0
 20 17  1  0  0  0  0
 20 18  1  0  0  0  0
 22 21  2  0  0  0  0
 23 25  2  0  0  0  0
 23 24  1  0  0  0  0
 26 30  1  6  0  0  0
 26 29  1  0  0  0  0
 28 27  1  0  0  0  0
 29 28  3  0  0  0  0
 30 31  1  0  0  0  0
 32 31  1  0  0  0  0
 32 33  1  0  0  0  0
 34 32  2  0  0  0  0
 35 32  1  0  0  0  0
M  END
>  <MODEL>
9

>  <REMARK>
 VINA RESULT:      -5.8      3.618      8.751
  Name = 
  9 active torsions:
  status: ('A' for Active; 'I' for Inactive)
    1  A    between atoms: C_3  and  C_5
    2  A    between atoms: C_3  and  C_6
    3  A    between atoms: C_3  and  N_23
    4  A    between atoms: P_7  and  N_25
    5  A    between atoms: C_11  and  C_12
    6  A    between atoms: C_11  and  C_24
    7  A    between atoms: C_11  and  C_26
    8  A    between atoms: C_15  and  C_31
    9  A    between atoms: C_24  and  N_25
                            x       y       z     vdW  Elec       q    Type
                         _______ _______ _______ _____ _____    ______ ____

>  <TORSDO>
F 9

$$$$
