=
 OpenBabel11072414383D

 26 28  0  0  0  0  0  0  0  0999 V2000
  161.0470  206.7870  151.5280 C   0  0  0  0  0  0  0  0  0  0  0  0
  161.0720  206.2310  150.2400 C   0  0  0  0  0  0  0  0  0  0  0  0
  161.1130  204.8340  150.0960 C   0  0  0  0  0  3  0  0  0  0  0  0
  161.0060  208.1360  151.6980 N   0  0  0  0  0  0  0  0  0  0  0  0
  160.9970  207.9010  154.0880 C   0  0  0  0  0  0  0  0  0  0  0  0
  161.1100  204.5560  152.5010 C   0  0  0  0  0  3  0  0  0  0  0  0
  160.9810  208.7010  152.9360 C   0  0  0  0  0  3  0  0  0  0  0  0
  161.1320  204.0030  151.2190 C   0  0  0  0  0  3  0  0  0  0  0  0
  161.0670  205.9420  152.6590 C   0  0  0  0  0  0  0  0  0  0  0  0
  161.0440  206.5080  153.9330 C   0  0  0  0  0  3  0  0  0  0  0  0
  161.0530  207.0760  149.1220 O   0  0  0  0  0  0  0  0  0  0  0  0
  161.0110  206.5960  147.7830 C   0  0  0  0  0  2  0  0  0  0  0  0
  162.2920  206.6260  147.2310 O   0  0  0  0  0  0  0  0  0  0  0  0
  162.2120  205.7920  146.1150 C   0  0  0  0  0  2  0  0  0  0  0  0
  161.4630  203.5730  145.4640 N   0  0  0  0  0  1  0  0  0  0  0  0
  162.0110  204.3550  146.5570 C   0  0  0  0  0  2  0  0  0  0  0  0
  160.9730  208.5000  155.4010 N   0  0  0  0  0  0  0  0  0  0  0  0
  161.2250  210.9280  155.8400 C   0  0  0  0  0  0  0  0  0  0  0  0
  158.4370  211.2120  155.8320 C   0  0  0  0  0  3  0  0  0  0  0  0
  160.4040  209.8020  155.6210 C   0  0  0  0  0  0  0  0  0  0  0  0
  159.2530  212.3260  156.0390 C   0  0  0  0  0  3  0  0  0  0  0  0
  160.6420  212.1820  156.0460 C   0  0  0  0  0  3  0  0  0  0  0  0
  159.0110  209.9540  155.6260 C   0  0  0  0  0  3  0  0  0  0  0  0
  162.9740  210.7940  155.9140 Cl  0  0  0  0  0  0  0  0  0  0  0  0
  161.4000  207.7320  156.5660 C   0  0  0  0  0  2  0  0  0  0  0  0
  160.2830  207.2630  157.2580 O   0  0  0  0  0  1  0  0  0  0  0  0
  1  4  2  0  0  0  0
  1  9  1  0  0  0  0
  2  1  1  0  0  0  0
  3  2  2  0  0  0  0
  3  8  1  0  0  0  0
  4  7  1  0  0  0  0
  5 17  1  0  0  0  0
  6  9  1  0  0  0  0
  7  5  2  0  0  0  0
  8  6  2  0  0  0  0
  9 10  2  0  0  0  0
 10  5  1  0  0  0  0
 11  2  1  0  0  0  0
 12 11  1  0  0  0  0
 13 12  1  0  0  0  0
 14 16  1  0  0  0  0
 14 13  1  0  0  0  0
 15 16  1  0  0  0  0
 17 20  1  0  0  0  0
 17 25  1  0  0  0  0
 18 24  1  0  0  0  0
 18 22  1  0  0  0  0
 19 21  1  0  0  0  0
 20 23  1  0  0  0  0
 20 18  2  0  0  0  0
 21 22  2  0  0  0  0
 23 19  2  0  0  0  0
 25 26  1  0  0  0  0
M  END
>  <MODEL>
1

>  <REMARK>
 VINA RESULT:      -7.2      0.000      0.000
  Name = 
  8 active torsions:
  status: ('A' for Active; 'I' for Inactive)
    1  A    between atoms: C_4  and  C_13
    2  A    between atoms: C_6  and  N_23
    3  A    between atoms: C_7  and  O_8
    4  A    between atoms: O_8  and  C_25
    5  A    between atoms: C_10  and  N_23
    6  A    between atoms: C_13  and  O_15
    7  A    between atoms: O_15  and  C_25
    8  A    between atoms: C_16  and  N_23
                            x       y       z     vdW  Elec       q    Type
                         _______ _______ _______ _____ _____    ______ ____

>  <TORSDO>
F 8

$$$$
=
 OpenBabel11072414383D

 26 28  0  0  0  0  0  0  0  0999 V2000
  161.0770  205.4060  150.3620 C   0  0  0  0  0  0  0  0  0  0  0  0
  160.9320  204.1910  149.6750 C   0  0  0  0  0  0  0  0  0  0  0  0
  160.8650  202.9930  150.4060 C   0  0  0  0  0  3  0  0  0  0  0  0
  161.1440  206.5810  149.6800 N   0  0  0  0  0  0  0  0  0  0  0  0
  161.3660  207.8280  151.7210 C   0  0  0  0  0  0  0  0  0  0  0  0
  161.0910  204.2150  152.4840 C   0  0  0  0  0  3  0  0  0  0  0  0
  161.2860  207.7730  150.3210 C   0  0  0  0  0  3  0  0  0  0  0  0
  160.9430  203.0060  151.8020 C   0  0  0  0  0  3  0  0  0  0  0  0
  161.1570  205.4120  151.7710 C   0  0  0  0  0  0  0  0  0  0  0  0
  161.3030  206.6260  152.4400 C   0  0  0  0  0  3  0  0  0  0  0  0
  160.8550  204.1930  148.2750 O   0  0  0  0  0  0  0  0  0  0  0  0
  161.9480  203.8400  147.4350 C   0  0  0  0  0  2  0  0  0  0  0  0
  162.1940  204.8680  146.5240 O   0  0  0  0  0  0  0  0  0  0  0  0
  161.7930  204.3480  145.2920 C   0  0  0  0  0  2  0  0  0  0  0  0
  160.2370  206.2150  145.3220 N   0  0  0  0  0  1  0  0  0  0  0  0
  161.1120  205.4280  144.4720 C   0  0  0  0  0  2  0  0  0  0  0  0
  161.5170  209.0930  152.4000 N   0  0  0  0  0  0  0  0  0  0  0  0
  159.8420  210.3150  153.7600 C   0  0  0  0  0  0  0  0  0  0  0  0
  160.6400  208.8740  156.0270 C   0  0  0  0  0  3  0  0  0  0  0  0
  160.8670  209.3510  153.6560 C   0  0  0  0  0  0  0  0  0  0  0  0
  159.6190  209.8220  156.1240 C   0  0  0  0  0  3  0  0  0  0  0  0
  159.2240  210.5410  154.9940 C   0  0  0  0  0  3  0  0  0  0  0  0
  161.2630  208.6430  154.7980 C   0  0  0  0  0  3  0  0  0  0  0  0
  159.3450  211.2860  152.3840 Cl  0  0  0  0  0  0  0  0  0  0  0  0
  162.4550  210.0900  151.8940 C   0  0  0  0  0  2  0  0  0  0  0  0
  161.9990  210.5900  150.6740 O   0  0  0  0  0  1  0  0  0  0  0  0
  1  9  1  0  0  0  0
  2  1  2  0  0  0  0
  2  3  1  0  0  0  0
  3  8  2  0  0  0  0
  4  7  2  0  0  0  0
  4  1  1  0  0  0  0
  5 17  1  0  0  0  0
  5 10  2  0  0  0  0
  7  5  1  0  0  0  0
  8  6  1  0  0  0  0
  9 10  1  0  0  0  0
  9  6  2  0  0  0  0
 11  2  1  0  0  0  0
 12 11  1  0  0  0  0
 13 12  1  0  0  0  0
 14 13  1  0  0  0  0
 16 14  1  0  0  0  0
 16 15  1  0  0  0  0
 17 20  1  0  0  0  0
 18 22  1  0  0  0  0
 19 21  1  0  0  0  0
 20 18  2  0  0  0  0
 20 23  1  0  0  0  0
 22 21  2  0  0  0  0
 23 19  2  0  0  0  0
 24 18  1  0  0  0  0
 25 17  1  0  0  0  0
 26 25  1  0  0  0  0
M  END
>  <MODEL>
2

>  <REMARK>
 VINA RESULT:      -7.2      2.445      3.023
  Name = 
  8 active torsions:
  status: ('A' for Active; 'I' for Inactive)
    1  A    between atoms: C_4  and  C_13
    2  A    between atoms: C_6  and  N_23
    3  A    between atoms: C_7  and  O_8
    4  A    between atoms: O_8  and  C_25
    5  A    between atoms: C_10  and  N_23
    6  A    between atoms: C_13  and  O_15
    7  A    between atoms: O_15  and  C_25
    8  A    between atoms: C_16  and  N_23
                            x       y       z     vdW  Elec       q    Type
                         _______ _______ _______ _____ _____    ______ ____

>  <TORSDO>
F 8

$$$$
=
 OpenBabel11072414383D

 26 28  0  0  0  0  0  0  0  0999 V2000
  161.1240  206.4740  151.0590 C   0  0  0  0  0  0  0  0  0  0  0  0
  161.1210  205.3520  150.2160 C   0  0  0  0  0  0  0  0  0  0  0  0
  161.1100  204.0670  150.7830 C   0  0  0  0  0  3  0  0  0  0  0  0
  161.1330  207.7310  150.5380 N   0  0  0  0  0  0  0  0  0  0  0  0
  161.1320  208.7110  152.7300 C   0  0  0  0  0  0  0  0  0  0  0  0
  161.1130  205.0180  153.0090 C   0  0  0  0  0  3  0  0  0  0  0  0
  161.1380  208.8350  151.3320 C   0  0  0  0  0  3  0  0  0  0  0  0
  161.1060  203.9020  152.1710 C   0  0  0  0  0  3  0  0  0  0  0  0
  161.1210  206.3010  152.4600 C   0  0  0  0  0  0  0  0  0  0  0  0
  161.1270  207.4240  153.2860 C   0  0  0  0  0  3  0  0  0  0  0  0
  161.1250  205.5330  148.8250 O   0  0  0  0  0  0  0  0  0  0  0  0
  161.4780  204.5040  147.9080 C   0  0  0  0  0  2  0  0  0  0  0  0
  161.9510  205.0710  146.7230 O   0  0  0  0  0  0  0  0  0  0  0  0
  161.1470  206.1960  146.5280 C   0  0  0  0  0  2  0  0  0  0  0  0
  161.1860  205.3320  144.2570 N   0  0  0  0  0  1  0  0  0  0  0  0
  160.3880  206.0670  145.2210 C   0  0  0  0  0  2  0  0  0  0  0  0
  161.1380  209.8830  153.5730 N   0  0  0  0  0  0  0  0  0  0  0  0
  159.2690  210.1020  155.1870 C   0  0  0  0  0  0  0  0  0  0  0  0
  158.1650  212.1470  153.6220 C   0  0  0  0  0  3  0  0  0  0  0  0
  159.9150  210.5050  154.0010 C   0  0  0  0  0  0  0  0  0  0  0  0
  157.5330  211.7510  154.8030 C   0  0  0  0  0  3  0  0  0  0  0  0
  158.0830  210.7300  155.5800 C   0  0  0  0  0  3  0  0  0  0  0  0
  159.3500  211.5240  153.2220 C   0  0  0  0  0  3  0  0  0  0  0  0
  159.8860  208.7860  156.1730 Cl  0  0  0  0  0  0  0  0  0  0  0  0
  162.3930  210.3790  154.1300 C   0  0  0  0  0  2  0  0  0  0  0  0
  162.1540  210.9870  155.3630 O   0  0  0  0  0  1  0  0  0  0  0  0
  1  9  1  0  0  0  0
  2  3  2  0  0  0  0
  2  1  1  0  0  0  0
  3  8  1  0  0  0  0
  4  1  2  0  0  0  0
  4  7  1  0  0  0  0
  5 10  1  0  0  0  0
  5 17  1  0  0  0  0
  7  5  2  0  0  0  0
  8  6  2  0  0  0  0
  9  6  1  0  0  0  0
  9 10  2  0  0  0  0
 11  2  1  0  0  0  0
 12 11  1  0  0  0  0
 13 12  1  0  0  0  0
 14 13  1  0  0  0  0
 15 16  1  0  0  0  0
 16 14  1  0  0  0  0
 17 20  1  0  0  0  0
 17 25  1  0  0  0  0
 18 22  1  0  0  0  0
 18 24  1  0  0  0  0
 19 21  1  0  0  0  0
 20 18  2  0  0  0  0
 21 22  2  0  0  0  0
 23 19  2  0  0  0  0
 23 20  1  0  0  0  0
 25 26  1  0  0  0  0
M  END
>  <MODEL>
3

>  <REMARK>
 VINA RESULT:      -6.9      1.860      2.192
  Name = 
  8 active torsions:
  status: ('A' for Active; 'I' for Inactive)
    1  A    between atoms: C_4  and  C_13
    2  A    between atoms: C_6  and  N_23
    3  A    between atoms: C_7  and  O_8
    4  A    between atoms: O_8  and  C_25
    5  A    between atoms: C_10  and  N_23
    6  A    between atoms: C_13  and  O_15
    7  A    between atoms: O_15  and  C_25
    8  A    between atoms: C_16  and  N_23
                            x       y       z     vdW  Elec       q    Type
                         _______ _______ _______ _____ _____    ______ ____

>  <TORSDO>
F 8

$$$$
=
 OpenBabel11072414383D

 26 28  0  0  0  0  0  0  0  0999 V2000
  161.2000  206.2990  150.0090 C   0  0  0  0  0  0  0  0  0  0  0  0
  161.1730  205.4260  148.9100 C   0  0  0  0  0  0  0  0  0  0  0  0
  161.1540  204.0400  149.1340 C   0  0  0  0  0  3  0  0  0  0  0  0
  161.2180  207.6460  149.8210 N   0  0  0  0  0  0  0  0  0  0  0  0
  161.2550  208.0410  152.1900 C   0  0  0  0  0  0  0  0  0  0  0  0
  161.1950  204.3980  151.5280 C   0  0  0  0  0  3  0  0  0  0  0  0
  161.2460  208.5140  150.8690 C   0  0  0  0  0  3  0  0  0  0  0  0
  161.1650  203.5290  150.4350 C   0  0  0  0  0  3  0  0  0  0  0  0
  161.2130  205.7770  151.3200 C   0  0  0  0  0  0  0  0  0  0  0  0
  161.2420  206.6550  152.4030 C   0  0  0  0  0  3  0  0  0  0  0  0
  161.1630  205.9530  147.6100 O   0  0  0  0  0  0  0  0  0  0  0  0
  161.9870  205.4540  146.5620 C   0  0  0  0  0  2  0  0  0  0  0  0
  161.4600  205.8360  145.3270 O   0  0  0  0  0  0  0  0  0  0  0  0
  161.2850  204.6350  144.6350 C   0  0  0  0  0  2  0  0  0  0  0  0
  160.5340  202.4160  145.2840 N   0  0  0  0  0  1  0  0  0  0  0  0
  161.4970  203.4630  145.5750 C   0  0  0  0  0  2  0  0  0  0  0  0
  161.2860  208.9620  153.3020 N   0  0  0  0  0  0  0  0  0  0  0  0
  161.6580  209.1570  155.7450 C   0  0  0  0  0  0  0  0  0  0  0  0
  159.9320  206.9920  156.1750 C   0  0  0  0  0  3  0  0  0  0  0  0
  161.0420  208.5200  154.6480 C   0  0  0  0  0  0  0  0  0  0  0  0
  160.5360  207.6320  157.2600 C   0  0  0  0  0  3  0  0  0  0  0  0
  161.3980  208.7090  157.0440 C   0  0  0  0  0  3  0  0  0  0  0  0
  160.1870  207.4330  154.8740 C   0  0  0  0  0  3  0  0  0  0  0  0
  162.7930  210.4790  155.5270 Cl  0  0  0  0  0  0  0  0  0  0  0  0
  161.7070  210.3440  153.0980 C   0  0  0  0  0  2  0  0  0  0  0  0
  160.5920  211.1480  152.8610 O   0  0  0  0  0  1  0  0  0  0  0  0
  1  9  1  0  0  0  0
  2  3  2  0  0  0  0
  2  1  1  0  0  0  0
  3  8  1  0  0  0  0
  4  1  2  0  0  0  0
  4  7  1  0  0  0  0
  5 10  1  0  0  0  0
  5 17  1  0  0  0  0
  7  5  2  0  0  0  0
  8  6  2  0  0  0  0
  9  6  1  0  0  0  0
  9 10  2  0  0  0  0
 11  2  1  0  0  0  0
 12 11  1  0  0  0  0
 13 12  1  0  0  0  0
 14 13  1  0  0  0  0
 14 16  1  0  0  0  0
 15 16  1  0  0  0  0
 17 20  1  0  0  0  0
 18 22  1  0  0  0  0
 19 21  1  0  0  0  0
 20 23  1  0  0  0  0
 20 18  2  0  0  0  0
 22 21  2  0  0  0  0
 23 19  2  0  0  0  0
 24 18  1  0  0  0  0
 25 17  1  0  0  0  0
 26 25  1  0  0  0  0
M  END
>  <MODEL>
4

>  <REMARK>
 VINA RESULT:      -6.7      2.127      2.612
  Name = 
  8 active torsions:
  status: ('A' for Active; 'I' for Inactive)
    1  A    between atoms: C_4  and  C_13
    2  A    between atoms: C_6  and  N_23
    3  A    between atoms: C_7  and  O_8
    4  A    between atoms: O_8  and  C_25
    5  A    between atoms: C_10  and  N_23
    6  A    between atoms: C_13  and  O_15
    7  A    between atoms: O_15  and  C_25
    8  A    between atoms: C_16  and  N_23
                            x       y       z     vdW  Elec       q    Type
                         _______ _______ _______ _____ _____    ______ ____

>  <TORSDO>
F 8

$$$$
=
 OpenBabel11072414383D

 26 28  0  0  0  0  0  0  0  0999 V2000
  161.0920  206.4450  152.1350 C   0  0  0  0  0  0  0  0  0  0  0  0
  161.1620  205.2240  151.4460 C   0  0  0  0  0  0  0  0  0  0  0  0
  161.2550  205.2300  150.0440 C   0  0  0  0  0  3  0  0  0  0  0  0
  161.0030  206.4690  153.4920 N   0  0  0  0  0  0  0  0  0  0  0  0
  160.9540  208.8700  153.5120 C   0  0  0  0  0  0  0  0  0  0  0  0
  161.2040  207.6500  150.0230 C   0  0  0  0  0  3  0  0  0  0  0  0
  160.9330  207.6380  154.1840 C   0  0  0  0  0  3  0  0  0  0  0  0
  161.2760  206.4360  149.3380 C   0  0  0  0  0  3  0  0  0  0  0  0
  161.1130  207.6590  151.4160 C   0  0  0  0  0  0  0  0  0  0  0  0
  161.0420  208.8650  152.1120 C   0  0  0  0  0  3  0  0  0  0  0  0
  161.1390  204.0220  152.1680 O   0  0  0  0  0  0  0  0  0  0  0  0
  161.5130  202.7690  151.6050 C   0  0  0  0  0  2  0  0  0  0  0  0
  160.4250  202.2090  150.9340 O   0  0  0  0  0  0  0  0  0  0  0  0
  160.9950  201.3170  150.0250 C   0  0  0  0  0  2  0  0  0  0  0  0
  161.1890  202.4550  147.8860 N   0  0  0  0  0  1  0  0  0  0  0  0
  160.3850  201.5200  148.6510 C   0  0  0  0  0  2  0  0  0  0  0  0
  160.8790  210.1110  154.2460 N   0  0  0  0  0  0  0  0  0  0  0  0
  159.1520  211.7560  153.5670 C   0  0  0  0  0  0  0  0  0  0  0  0
  157.6360  211.0880  155.8270 C   0  0  0  0  0  3  0  0  0  0  0  0
  159.6250  210.7770  154.4660 C   0  0  0  0  0  0  0  0  0  0  0  0
  157.1670  212.0490  154.9290 C   0  0  0  0  0  3  0  0  0  0  0  0
  157.9250  212.3830  153.8050 C   0  0  0  0  0  3  0  0  0  0  0  0
  158.8620  210.4560  155.5970 C   0  0  0  0  0  3  0  0  0  0  0  0
  160.0900  212.2530  152.1680 Cl  0  0  0  0  0  0  0  0  0  0  0  0
  162.0650  210.6450  154.9070 C   0  0  0  0  0  2  0  0  0  0  0  0
  162.2740  209.9770  156.1130 O   0  0  0  0  0  1  0  0  0  0  0  0
  1  4  1  0  0  0  0
  2  1  1  0  0  0  0
  2 11  1  0  0  0  0
  3  2  2  0  0  0  0
  4  7  2  0  0  0  0
  5  7  1  0  0  0  0
  5 17  1  0  0  0  0
  6  9  1  0  0  0  0
  8  6  2  0  0  0  0
  8  3  1  0  0  0  0
  9 10  1  0  0  0  0
  9  1  2  0  0  0  0
 10  5  2  0  0  0  0
 12 11  1  0  0  0  0
 13 12  1  0  0  0  0
 14 13  1  0  0  0  0
 15 16  1  0  0  0  0
 16 14  1  0  0  0  0
 17 20  1  0  0  0  0
 17 25  1  0  0  0  0
 18 22  2  0  0  0  0
 18 20  1  0  0  0  0
 20 23  2  0  0  0  0
 21 19  2  0  0  0  0
 22 21  1  0  0  0  0
 23 19  1  0  0  0  0
 24 18  1  0  0  0  0
 25 26  1  0  0  0  0
M  END
>  <MODEL>
5

>  <REMARK>
 VINA RESULT:      -6.7      2.479      3.284
  Name = 
  8 active torsions:
  status: ('A' for Active; 'I' for Inactive)
    1  A    between atoms: C_4  and  C_13
    2  A    between atoms: C_6  and  N_23
    3  A    between atoms: C_7  and  O_8
    4  A    between atoms: O_8  and  C_25
    5  A    between atoms: C_10  and  N_23
    6  A    between atoms: C_13  and  O_15
    7  A    between atoms: O_15  and  C_25
    8  A    between atoms: C_16  and  N_23
                            x       y       z     vdW  Elec       q    Type
                         _______ _______ _______ _____ _____    ______ ____

>  <TORSDO>
F 8

$$$$
=
 OpenBabel11072414383D

 26 28  0  0  0  0  0  0  0  0999 V2000
  161.0990  207.1020  151.1250 C   0  0  0  0  0  0  0  0  0  0  0  0
  161.0340  207.8670  152.2990 C   0  0  0  0  0  0  0  0  0  0  0  0
  161.0790  207.2180  153.5450 C   0  0  0  0  0  3  0  0  0  0  0  0
  161.0590  207.7030  149.9050 N   0  0  0  0  0  0  0  0  0  0  0  0
  161.2250  205.5860  148.7830 C   0  0  0  0  0  0  0  0  0  0  0  0
  161.2440  205.0660  152.4500 C   0  0  0  0  0  3  0  0  0  0  0  0
  161.1190  206.9850  148.7510 C   0  0  0  0  0  3  0  0  0  0  0  0
  161.1830  205.8270  153.6190 C   0  0  0  0  0  3  0  0  0  0  0  0
  161.2030  205.6960  151.2060 C   0  0  0  0  0  0  0  0  0  0  0  0
  161.2640  204.9480  150.0310 C   0  0  0  0  0  3  0  0  0  0  0  0
  160.9300  209.2620  152.2100 O   0  0  0  0  0  0  0  0  0  0  0  0
  160.4850  210.0800  153.2860 C   0  0  0  0  0  2  0  0  0  0  0  0
  161.5560  210.8160  153.7930 O   0  0  0  0  0  0  0  0  0  0  0  0
  161.2580  210.9810  155.1470 C   0  0  0  0  0  2  0  0  0  0  0  0
  163.3070  210.7950  156.4410 N   0  0  0  0  0  1  0  0  0  0  0  0
  162.1370  210.0690  155.9830 C   0  0  0  0  0  2  0  0  0  0  0  0
  161.2870  204.8240  147.5590 N   0  0  0  0  0  0  0  0  0  0  0  0
  160.9710  202.6690  146.3740 C   0  0  0  0  0  0  0  0  0  0  0  0
  161.2740  201.2980  148.7980 C   0  0  0  0  0  3  0  0  0  0  0  0
  161.2040  203.3890  147.5640 C   0  0  0  0  0  0  0  0  0  0  0  0
  161.0540  200.5880  147.6160 C   0  0  0  0  0  3  0  0  0  0  0  0
  160.9000  201.2730  146.4090 C   0  0  0  0  0  3  0  0  0  0  0  0
  161.3460  202.6930  148.7720 C   0  0  0  0  0  3  0  0  0  0  0  0
  160.7160  203.4820  144.8380 Cl  0  0  0  0  0  0  0  0  0  0  0  0
  161.2930  205.5070  146.2690 C   0  0  0  0  0  2  0  0  0  0  0  0
  162.5990  205.8530  145.9240 O   0  0  0  0  0  1  0  0  0  0  0  0
  1  9  1  0  0  0  0
  1  2  2  0  0  0  0
  2  3  1  0  0  0  0
  3  8  2  0  0  0  0
  4  1  1  0  0  0  0
  5 10  2  0  0  0  0
  6  8  1  0  0  0  0
  7  5  1  0  0  0  0
  7  4  2  0  0  0  0
  9  6  2  0  0  0  0
 10  9  1  0  0  0  0
 11  2  1  0  0  0  0
 11 12  1  0  0  0  0
 12 13  1  0  0  0  0
 13 14  1  0  0  0  0
 14 16  1  0  0  0  0
 16 15  1  0  0  0  0
 17 20  1  0  0  0  0
 17  5  1  0  0  0  0
 18 22  2  0  0  0  0
 18 20  1  0  0  0  0
 20 23  2  0  0  0  0
 21 19  2  0  0  0  0
 22 21  1  0  0  0  0
 23 19  1  0  0  0  0
 24 18  1  0  0  0  0
 25 17  1  0  0  0  0
 26 25  1  0  0  0  0
M  END
>  <MODEL>
6

>  <REMARK>
 VINA RESULT:      -6.6      3.459      8.964
  Name = 
  8 active torsions:
  status: ('A' for Active; 'I' for Inactive)
    1  A    between atoms: C_4  and  C_13
    2  A    between atoms: C_6  and  N_23
    3  A    between atoms: C_7  and  O_8
    4  A    between atoms: O_8  and  C_25
    5  A    between atoms: C_10  and  N_23
    6  A    between atoms: C_13  and  O_15
    7  A    between atoms: O_15  and  C_25
    8  A    between atoms: C_16  and  N_23
                            x       y       z     vdW  Elec       q    Type
                         _______ _______ _______ _____ _____    ______ ____

>  <TORSDO>
F 8

$$$$
=
 OpenBabel11072414383D

 26 28  0  0  0  0  0  0  0  0999 V2000
  161.2150  207.6610  151.6760 C   0  0  0  0  0  0  0  0  0  0  0  0
  161.1800  208.5020  152.8000 C   0  0  0  0  0  0  0  0  0  0  0  0
  161.1630  207.9310  154.0830 C   0  0  0  0  0  3  0  0  0  0  0  0
  161.2330  208.1860  150.4210 N   0  0  0  0  0  0  0  0  0  0  0  0
  161.2830  205.9970  149.4350 C   0  0  0  0  0  0  0  0  0  0  0  0
  161.2090  205.7070  153.1270 C   0  0  0  0  0  3  0  0  0  0  0  0
  161.2650  207.3950  149.3150 C   0  0  0  0  0  3  0  0  0  0  0  0
  161.1780  206.5420  154.2450 C   0  0  0  0  0  3  0  0  0  0  0  0
  161.2280  206.2600  151.8460 C   0  0  0  0  0  0  0  0  0  0  0  0
  161.2600  205.4370  150.7210 C   0  0  0  0  0  3  0  0  0  0  0  0
  161.1660  209.8920  152.6220 O   0  0  0  0  0  0  0  0  0  0  0  0
  160.0880  210.7200  153.0470 C   0  0  0  0  0  2  0  0  0  0  0  0
  160.5550  211.6740  153.9520 O   0  0  0  0  0  0  0  0  0  0  0  0
  160.1860  211.1780  155.2040 C   0  0  0  0  0  2  0  0  0  0  0  0
  162.5200  210.7340  155.7180 N   0  0  0  0  0  1  0  0  0  0  0  0
  161.3150  211.3880  156.1960 C   0  0  0  0  0  2  0  0  0  0  0  0
  161.3160  205.1570  148.2610 N   0  0  0  0  0  0  0  0  0  0  0  0
  161.3500  202.9030  147.2300 C   0  0  0  0  0  0  0  0  0  0  0  0
  160.6460  201.7710  149.6950 C   0  0  0  0  0  3  0  0  0  0  0  0
  161.1580  203.7320  148.3550 C   0  0  0  0  0  0  0  0  0  0  0  0
  160.8470  200.9530  148.5810 C   0  0  0  0  0  3  0  0  0  0  0  0
  161.1940  201.5180  147.3520 C   0  0  0  0  0  3  0  0  0  0  0  0
  160.7990  203.1550  149.5800 C   0  0  0  0  0  3  0  0  0  0  0  0
  161.7330  203.5660  145.6490 Cl  0  0  0  0  0  0  0  0  0  0  0  0
  161.3680  205.7570  146.9320 C   0  0  0  0  0  2  0  0  0  0  0  0
  160.0980  206.2040  146.5660 O   0  0  0  0  0  1  0  0  0  0  0  0
  1  9  1  0  0  0  0
  1  2  2  0  0  0  0
  2  3  1  0  0  0  0
  3  8  2  0  0  0  0
  4  1  1  0  0  0  0
  5 10  2  0  0  0  0
  6  8  1  0  0  0  0
  7  5  1  0  0  0  0
  7  4  2  0  0  0  0
  9  6  2  0  0  0  0
 10  9  1  0  0  0  0
 11  2  1  0  0  0  0
 11 12  1  0  0  0  0
 12 13  1  0  0  0  0
 13 14  1  0  0  0  0
 14 16  1  0  0  0  0
 15 16  1  0  0  0  0
 17 20  1  0  0  0  0
 17  5  1  0  0  0  0
 18 22  2  0  0  0  0
 18 20  1  0  0  0  0
 20 23  2  0  0  0  0
 21 19  2  0  0  0  0
 22 21  1  0  0  0  0
 23 19  1  0  0  0  0
 24 18  1  0  0  0  0
 25 17  1  0  0  0  0
 26 25  1  0  0  0  0
M  END
>  <MODEL>
7

>  <REMARK>
 VINA RESULT:      -6.6      3.352      8.599
  Name = 
  8 active torsions:
  status: ('A' for Active; 'I' for Inactive)
    1  A    between atoms: C_4  and  C_13
    2  A    between atoms: C_6  and  N_23
    3  A    between atoms: C_7  and  O_8
    4  A    between atoms: O_8  and  C_25
    5  A    between atoms: C_10  and  N_23
    6  A    between atoms: C_13  and  O_15
    7  A    between atoms: O_15  and  C_25
    8  A    between atoms: C_16  and  N_23
                            x       y       z     vdW  Elec       q    Type
                         _______ _______ _______ _____ _____    ______ ____

>  <TORSDO>
F 8

$$$$
=
 OpenBabel11072414383D

 26 28  0  0  0  0  0  0  0  0999 V2000
  161.2060  207.8010  151.7210 C   0  0  0  0  0  0  0  0  0  0  0  0
  161.2050  208.7000  152.7980 C   0  0  0  0  0  0  0  0  0  0  0  0
  161.2060  208.1990  154.1110 C   0  0  0  0  0  3  0  0  0  0  0  0
  161.2060  208.2570  150.4390 N   0  0  0  0  0  0  0  0  0  0  0  0
  161.2090  206.0170  149.5720 C   0  0  0  0  0  0  0  0  0  0  0  0
  161.2040  205.9280  153.2750 C   0  0  0  0  0  3  0  0  0  0  0  0
  161.2070  207.4070  149.3770 C   0  0  0  0  0  3  0  0  0  0  0  0
  161.2060  206.8220  154.3470 C   0  0  0  0  0  3  0  0  0  0  0  0
  161.2050  206.4110  151.9660 C   0  0  0  0  0  0  0  0  0  0  0  0
  161.2050  205.5280  150.8860 C   0  0  0  0  0  3  0  0  0  0  0  0
  161.2040  210.0800  152.5460 O   0  0  0  0  0  0  0  0  0  0  0  0
  160.0690  210.9100  152.7630 C   0  0  0  0  0  2  0  0  0  0  0  0
  160.4200  211.9820  153.5860 O   0  0  0  0  0  0  0  0  0  0  0  0
  159.2670  212.2460  154.3270 C   0  0  0  0  0  2  0  0  0  0  0  0
  157.4230  211.0770  155.3950 N   0  0  0  0  0  1  0  0  0  0  0  0
  158.8370  210.9990  155.0760 C   0  0  0  0  0  2  0  0  0  0  0  0
  161.2080  205.1150  148.4450 N   0  0  0  0  0  0  0  0  0  0  0  0
  161.2060  202.8110  147.5290 C   0  0  0  0  0  0  0  0  0  0  0  0
  160.7080  201.7990  150.0940 C   0  0  0  0  0  3  0  0  0  0  0  0
  161.0840  203.6940  148.6220 C   0  0  0  0  0  0  0  0  0  0  0  0
  160.8400  200.9270  149.0110 C   0  0  0  0  0  3  0  0  0  0  0  0
  161.0850  201.4330  147.7330 C   0  0  0  0  0  3  0  0  0  0  0  0
  160.8260  203.1770  149.8990 C   0  0  0  0  0  3  0  0  0  0  0  0
  161.4590  203.3970  145.8930 Cl  0  0  0  0  0  0  0  0  0  0  0  0
  161.1910  205.6420  147.0840 C   0  0  0  0  0  2  0  0  0  0  0  0
  162.4310  206.2030  146.7790 O   0  0  0  0  0  1  0  0  0  0  0  0
  1  9  1  0  0  0  0
  1  2  2  0  0  0  0
  2  3  1  0  0  0  0
  3  8  2  0  0  0  0
  4  1  1  0  0  0  0
  5 10  2  0  0  0  0
  6  8  1  0  0  0  0
  7  5  1  0  0  0  0
  7  4  2  0  0  0  0
  9  6  2  0  0  0  0
 10  9  1  0  0  0  0
 11 12  1  0  0  0  0
 11  2  1  0  0  0  0
 12 13  1  0  0  0  0
 13 14  1  0  0  0  0
 14 16  1  0  0  0  0
 16 15  1  0  0  0  0
 17 20  1  0  0  0  0
 17  5  1  0  0  0  0
 18 22  2  0  0  0  0
 18 20  1  0  0  0  0
 20 23  2  0  0  0  0
 21 19  2  0  0  0  0
 22 21  1  0  0  0  0
 23 19  1  0  0  0  0
 24 18  1  0  0  0  0
 25 17  1  0  0  0  0
 26 25  1  0  0  0  0
M  END
>  <MODEL>
8

>  <REMARK>
 VINA RESULT:      -6.6      3.424      8.526
  Name = 
  8 active torsions:
  status: ('A' for Active; 'I' for Inactive)
    1  A    between atoms: C_4  and  C_13
    2  A    between atoms: C_6  and  N_23
    3  A    between atoms: C_7  and  O_8
    4  A    between atoms: O_8  and  C_25
    5  A    between atoms: C_10  and  N_23
    6  A    between atoms: C_13  and  O_15
    7  A    between atoms: O_15  and  C_25
    8  A    between atoms: C_16  and  N_23
                            x       y       z     vdW  Elec       q    Type
                         _______ _______ _______ _____ _____    ______ ____

>  <TORSDO>
F 8

$$$$
=
 OpenBabel11072414383D

 26 28  0  0  0  0  0  0  0  0999 V2000
  161.8310  208.5970  149.7910 C   0  0  0  0  0  0  0  0  0  0  0  0
  161.8970  209.8530  150.4140 C   0  0  0  0  0  0  0  0  0  0  0  0
  161.4860  209.9780  151.7520 C   0  0  0  0  0  3  0  0  0  0  0  0
  162.2230  208.4470  148.4970 N   0  0  0  0  0  0  0  0  0  0  0  0
  161.7020  206.1020  148.5440 C   0  0  0  0  0  0  0  0  0  0  0  0
  160.9450  207.6200  151.8370 C   0  0  0  0  0  3  0  0  0  0  0  0
  162.1680  207.2410  147.8690 C   0  0  0  0  0  3  0  0  0  0  0  0
  161.0140  208.8680  152.4580 C   0  0  0  0  0  3  0  0  0  0  0  0
  161.3520  207.4810  150.5090 C   0  0  0  0  0  0  0  0  0  0  0  0
  161.2900  206.2390  149.8770 C   0  0  0  0  0  3  0  0  0  0  0  0
  162.3730  210.9580  149.6940 O   0  0  0  0  0  0  0  0  0  0  0  0
  161.5210  211.9680  149.1650 C   0  0  0  0  0  2  0  0  0  0  0  0
  161.4780  211.8680  147.7740 O   0  0  0  0  0  0  0  0  0  0  0  0
  160.8420  213.0390  147.3580 C   0  0  0  0  0  2  0  0  0  0  0  0
  159.7700  212.0990  145.3900 N   0  0  0  0  0  1  0  0  0  0  0  0
  159.5240  212.7010  146.6870 C   0  0  0  0  0  2  0  0  0  0  0  0
  161.6430  204.8240  147.8770 N   0  0  0  0  0  0  0  0  0  0  0  0
  161.0070  202.4270  147.8940 C   0  0  0  0  0  0  0  0  0  0  0  0
  160.8630  202.4910  150.6920 C   0  0  0  0  0  3  0  0  0  0  0  0
  161.2850  203.6250  148.5850 C   0  0  0  0  0  0  0  0  0  0  0  0
  160.5980  201.3050  150.0050 C   0  0  0  0  0  3  0  0  0  0  0  0
  160.6670  201.2750  148.6100 C   0  0  0  0  0  3  0  0  0  0  0  0
  161.2020  203.6470  149.9840 C   0  0  0  0  0  3  0  0  0  0  0  0
  161.0260  202.3480  146.1400 Cl  0  0  0  0  0  0  0  0  0  0  0  0
  161.8070  204.7430  146.4290 C   0  0  0  0  0  2  0  0  0  0  0  0
  163.1650  204.7370  146.1080 O   0  0  0  0  0  1  0  0  0  0  0  0
  1  2  2  0  0  0  0
  1  9  1  0  0  0  0
  2  3  1  0  0  0  0
  3  8  2  0  0  0  0
  4  1  1  0  0  0  0
  5 10  2  0  0  0  0
  6  8  1  0  0  0  0
  7  4  2  0  0  0  0
  7  5  1  0  0  0  0
  9  6  2  0  0  0  0
 10  9  1  0  0  0  0
 11  2  1  0  0  0  0
 12 11  1  0  0  0  0
 13 12  1  0  0  0  0
 14 13  1  0  0  0  0
 15 16  1  0  0  0  0
 16 14  1  0  0  0  0
 17  5  1  0  0  0  0
 17 20  1  0  0  0  0
 18 20  2  0  0  0  0
 18 22  1  0  0  0  0
 20 23  1  0  0  0  0
 21 19  1  0  0  0  0
 22 21  2  0  0  0  0
 23 19  2  0  0  0  0
 24 18  1  0  0  0  0
 25 17  1  0  0  0  0
 26 25  1  0  0  0  0
M  END
>  <MODEL>
9

>  <REMARK>
 VINA RESULT:      -6.6      4.386      8.093
  Name = 
  8 active torsions:
  status: ('A' for Active; 'I' for Inactive)
    1  A    between atoms: C_4  and  C_13
    2  A    between atoms: C_6  and  N_23
    3  A    between atoms: C_7  and  O_8
    4  A    between atoms: O_8  and  C_25
    5  A    between atoms: C_10  and  N_23
    6  A    between atoms: C_13  and  O_15
    7  A    between atoms: O_15  and  C_25
    8  A    between atoms: C_16  and  N_23
                            x       y       z     vdW  Elec       q    Type
                         _______ _______ _______ _____ _____    ______ ____

>  <TORSDO>
F 8

$$$$
