=
 OpenBabel11072412363D

 51 58  0  0  1  0  0  0  0  0999 V2000
  161.6500  209.9280  153.7170 C   0  0  2  0  0  3  0  0  0  0  0  0
  157.1430  214.4520  152.8350 C   0  0  0  0  0  2  0  0  0  0  0  0
  158.5400  211.8060  154.9510 C   0  0  1  0  0  3  0  0  0  0  0  0
  157.8090  213.5720  150.6280 N   0  0  0  0  0  0  0  0  0  0  0  0
  157.5240  212.5300  149.6450 C   0  0  0  0  0  1  0  0  0  0  0  0
  161.4720  211.3180  155.6710 O   0  0  0  0  0  1  0  0  0  0  0  0
  161.0400  209.5970  152.3360 C   0  0  1  0  0  3  0  0  0  0  0  0
  161.1980  210.7370  151.3690 C   0  0  0  0  0  0  0  0  0  0  0  0
  160.8780  211.0350  154.4400 C   0  0  2  0  0  3  0  0  0  0  0  0
  162.2860  210.9040  150.7540 O   0  0  0  0  0  0  0  0  0  0  0  0
  159.4370  210.6020  154.6720 C   0  0  0  0  0  2  0  0  0  0  0  0
  157.1190  213.2650  151.8930 C   0  0  1  0  0  3  0  0  0  0  0  0
  158.4780  212.7030  153.7820 N   0  0  2  0  0  0  0  0  0  0  0  0
  157.7720  213.9350  154.1150 C   0  0  0  0  0  2  0  0  0  0  0  0
  159.2550  213.8590  150.7960 C   0  0  0  0  0  2  0  0  0  0  0  0
  157.7410  212.1160  152.6680 C   0  0  0  0  0  2  0  0  0  0  0  0
  163.1400  210.2450  153.6340 C   0  0  0  0  0  1  0  0  0  0  0  0
  160.2220  212.7550  150.3480 C   0  0  0  0  0  2  0  0  0  0  0  0
  160.1580  211.6520  151.2360 O   0  0  0  0  0  0  0  0  0  0  0  0
  154.7520  210.5560  156.5950 C   0  0  0  0  0  0  0  0  0  0  0  0
  157.1980  211.3760  155.4930 C   0  0  0  0  0  0  0  0  0  0  0  0
  155.5360  211.5020  157.2600 C   0  0  0  0  0  3  0  0  0  0  0  0
  153.5130  210.1390  157.1510 N   0  0  0  0  0  1  0  0  0  0  0  0
  155.1920  210.0120  155.3850 C   0  0  0  0  0  3  0  0  0  0  0  0
  156.4110  210.4170  154.8360 C   0  0  0  0  0  3  0  0  0  0  0  0
  156.7580  211.9080  156.7120 C   0  0  0  0  0  3  0  0  0  0  0  0
  161.5350  208.2500  151.7700 C   0  0  1  0  0  3  0  0  0  0  0  0
  162.1110  204.8260  153.0360 O   0  0  0  0  0  0  0  0  0  0  0  0
  163.6180  205.9240  151.6470 O   0  0  0  0  0  0  0  0  0  0  0  0
  162.1010  207.3440  152.8880 C   0  0  1  0  0  3  0  0  0  0  0  0
  160.2350  206.1410  153.6770 C   0  0  2  0  0  3  0  0  0  0  0  0
  161.3050  207.0900  154.1800 C   0  0  2  0  0  3  0  0  0  0  0  0
  159.9550  207.3150  154.4100 O   0  0  0  0  0  0  0  0  0  0  0  0
  161.0530  204.9060  154.0200 C   0  0  0  0  0  2  0  0  0  0  0  0
  162.6580  206.0020  152.4600 C   0  0  0  0  0  0  0  0  0  0  0  0
  160.4650  207.5410  150.9330 C   0  0  0  0  0  2  0  0  0  0  0  0
  162.7990  205.7750  147.3970 C   0  0  0  0  0  0  0  0  0  0  0  0
  161.2550  204.5450  149.8980 C   0  0  0  0  0  2  0  0  0  0  0  0
  161.5360  205.1980  147.9740 C   0  0  1  0  0  3  0  0  0  0  0  0
  161.1500  208.2330  148.5620 C   0  0  0  0  0  3  0  0  0  0  0  0
  161.7120  203.8680  148.6440 C   0  0  2  0  0  3  0  0  0  0  0  0
  160.9540  207.1750  149.5700 C   0  0  0  0  0  0  0  0  0  0  0  0
  163.8220  204.9200  147.0010 O   0  0  0  0  0  1  0  0  0  0  0  0
  162.9420  207.0900  147.1620 C   0  0  0  0  0  3  0  0  0  0  0  0
  161.1760  205.9090  149.2490 C   0  0  0  0  0  0  0  0  0  0  0  0
  162.0040  208.1860  147.5240 C   0  0  0  0  0  3  0  0  0  0  0  0
  160.5640  202.8810  146.6560 C   0  0  0  0  0  2  0  0  0  0  0  0
  160.6460  202.8860  148.1630 C   0  0  1  0  0  3  0  0  0  0  0  0
  160.6340  200.6430  147.4770 C   0  0  0  0  0  2  0  0  0  0  0  0
  160.9670  201.5290  148.5930 N   0  0  0  0  0  2  0  0  0  0  0  0
  160.1230  201.4840  146.3280 C   0  0  0  0  0  2  0  0  0  0  0  0
  1 17  1  6  0  0  0
  1  9  1  0  0  0  0
  2 14  1  0  0  0  0
  3 21  1  6  0  0  0
  4 15  1  0  0  0  0
  4 12  1  0  0  0  0
  5  4  1  0  0  0  0
  7 27  1  6  0  0  0
  7  1  1  0  0  0  0
  8  7  1  0  0  0  0
  9 11  1  0  0  0  0
  9  6  1  1  0  0  0
 10  8  2  0  0  0  0
 11  3  1  0  0  0  0
 12 16  1  1  0  0  0
 12  2  1  0  0  0  0
 13 16  1  6  0  0  0
 13 14  1  0  0  0  0
 13  3  1  0  0  0  0
 18 15  1  0  0  0  0
 18 19  1  0  0  0  0
 19  8  1  0  0  0  0
 20 23  1  0  0  0  0
 20 22  1  0  0  0  0
 21 26  1  0  0  0  0
 24 20  2  0  0  0  0
 25 24  1  0  0  0  0
 25 21  2  0  0  0  0
 26 22  2  0  0  0  0
 27 36  1  1  0  0  0
 28 34  1  0  0  0  0
 29 35  2  0  0  0  0
 30 27  1  6  0  0  0
 30 32  1  0  0  0  0
 31 34  1  1  0  0  0
 31 32  1  0  0  0  0
 31 33  1  0  0  0  0
 32 33  1  6  0  0  0
 35 30  1  0  0  0  0
 35 28  1  0  0  0  0
 39 37  1  1  0  0  0
 39 41  1  0  0  0  0
 39 45  1  0  0  0  0
 40 42  1  0  0  0  0
 41 38  1  1  0  0  0
 42 36  1  0  0  0  0
 43 37  1  0  0  0  0
 44 37  2  0  0  0  0
 44 46  1  0  0  0  0
 45 42  2  0  0  0  0
 45 38  1  0  0  0  0
 46 40  2  0  0  0  0
 48 47  1  6  0  0  0
 48 50  1  0  0  0  0
 48 41  1  0  0  0  0
 49 50  1  0  0  0  0
 51 47  1  0  0  0  0
 51 49  1  0  0  0  0
M  END
>  <MODEL>
1

>  <REMARK>
 VINA RESULT:      -0.1      0.000      0.000
  Name = 
  6 active torsions:
  status: ('A' for Active; 'I' for Inactive)
    1  A    between atoms: C_6  and  C_16
    2  A    between atoms: C_7  and  C_17
    3  A    between atoms: C_7  and  C_18
    4  A    between atoms: C_7  and  C_21
    5  A    between atoms: C_21  and  C_33
    6  A    between atoms: C_24  and  C_32
                            x       y       z     vdW  Elec       q    Type
                         _______ _______ _______ _____ _____    ______ ____

>  <TORSDO>
F 6

$$$$
=
 OpenBabel11072412363D

 51 58  0  0  1  0  0  0  0  0999 V2000
  161.2450  210.2510  155.1700 C   0  0  2  0  0  3  0  0  0  0  0  0
  156.7380  214.4530  153.2730 C   0  0  0  0  0  2  0  0  0  0  0  0
  157.9460  212.1040  155.8130 C   0  0  1  0  0  3  0  0  0  0  0  0
  157.7010  213.3820  151.2700 N   0  0  0  0  0  0  0  0  0  0  0  0
  157.5740  212.2330  150.3770 C   0  0  0  0  0  1  0  0  0  0  0  0
  160.7820  211.8250  156.9270 O   0  0  0  0  0  1  0  0  0  0  0  0
  160.8220  209.7530  153.7690 C   0  0  1  0  0  3  0  0  0  0  0  0
  161.0620  210.7930  152.7120 C   0  0  0  0  0  0  0  0  0  0  0  0
  160.3540  211.3900  155.6720 C   0  0  2  0  0  3  0  0  0  0  0  0
  162.2110  210.9460  152.2160 O   0  0  0  0  0  0  0  0  0  0  0  0
  158.9100  210.9190  155.7750 C   0  0  0  0  0  2  0  0  0  0  0  0
  156.8700  213.1750  152.4680 C   0  0  1  0  0  3  0  0  0  0  0  0
  158.0020  212.8730  154.5560 N   0  0  2  0  0  0  0  0  0  0  0  0
  157.2200  214.0990  154.6670 C   0  0  0  0  0  2  0  0  0  0  0  0
  159.1050  213.7490  151.5780 C   0  0  0  0  0  2  0  0  0  0  0  0
  157.4280  212.1410  153.4310 C   0  0  0  0  0  2  0  0  0  0  0  0
  162.7230  210.6250  155.2330 C   0  0  0  0  0  1  0  0  0  0  0  0
  160.1550  212.6500  151.3700 C   0  0  0  0  0  2  0  0  0  0  0  0
  160.0170  211.6420  152.3580 O   0  0  0  0  0  0  0  0  0  0  0  0
  153.9730  210.8350  156.9140 C   0  0  0  0  0  0  0  0  0  0  0  0
  156.5620  211.6710  156.2340 C   0  0  0  0  0  0  0  0  0  0  0  0
  154.8290  209.9710  156.2250 C   0  0  0  0  0  3  0  0  0  0  0  0
  152.6610  210.4130  157.2590 N   0  0  0  0  0  1  0  0  0  0  0  0
  154.4050  212.1190  157.2550 C   0  0  0  0  0  3  0  0  0  0  0  0
  155.6940  212.5390  156.9150 C   0  0  0  0  0  3  0  0  0  0  0  0
  156.1190  210.3900  155.8830 C   0  0  0  0  0  3  0  0  0  0  0  0
  161.4260  208.3790  153.4150 C   0  0  1  0  0  3  0  0  0  0  0  0
  159.3220  207.4720  156.3150 O   0  0  0  0  0  0  0  0  0  0  0  0
  158.4910  207.5910  154.1470 O   0  0  0  0  0  0  0  0  0  0  0  0
  160.8810  207.2680  154.3430 C   0  0  1  0  0  3  0  0  0  0  0  0
  161.6640  207.8540  156.4880 C   0  0  2  0  0  3  0  0  0  0  0  0
  161.7370  206.7110  155.4940 C   0  0  2  0  0  3  0  0  0  0  0  0
  162.8750  207.2670  156.0600 O   0  0  0  0  0  0  0  0  0  0  0  0
  160.4520  207.2700  157.1960 C   0  0  0  0  0  2  0  0  0  0  0  0
  159.4900  207.4720  154.9060 C   0  0  0  0  0  0  0  0  0  0  0  0
  161.2560  208.0320  151.9310 C   0  0  0  0  0  2  0  0  0  0  0  0
  160.7160  203.6660  150.6240 C   0  0  0  0  0  0  0  0  0  0  0  0
  160.5890  206.4800  149.1360 C   0  0  0  0  0  2  0  0  0  0  0  0
  161.4100  204.7300  149.8190 C   0  0  1  0  0  3  0  0  0  0  0  0
  161.9600  205.7000  152.7290 C   0  0  0  0  0  3  0  0  0  0  0  0
  160.7050  205.1070  148.5510 C   0  0  2  0  0  3  0  0  0  0  0  0
  161.4510  206.5760  151.6580 C   0  0  0  0  0  0  0  0  0  0  0  0
  159.8950  202.7470  149.9770 O   0  0  0  0  0  1  0  0  0  0  0  0
  160.9320  203.5090  151.9400 C   0  0  0  0  0  3  0  0  0  0  0  0
  161.2070  206.0770  150.4560 C   0  0  0  0  0  0  0  0  0  0  0  0
  161.7370  204.3780  152.8390 C   0  0  0  0  0  3  0  0  0  0  0  0
  161.8860  203.7270  146.8350 C   0  0  0  0  0  2  0  0  0  0  0  0
  161.6870  205.1190  147.3820 C   0  0  1  0  0  3  0  0  0  0  0  0
  161.4970  205.2560  145.0480 C   0  0  0  0  0  2  0  0  0  0  0  0
  161.1800  205.9520  146.2950 N   0  0  0  0  0  2  0  0  0  0  0  0
  162.1890  203.9540  145.3830 C   0  0  0  0  0  2  0  0  0  0  0  0
  1 17  1  6  0  0  0
  1  9  1  0  0  0  0
  2 14  1  0  0  0  0
  3 21  1  6  0  0  0
  4 15  1  0  0  0  0
  4 12  1  0  0  0  0
  5  4  1  0  0  0  0
  7 27  1  6  0  0  0
  7  1  1  0  0  0  0
  8  7  1  0  0  0  0
  9 11  1  0  0  0  0
  9  6  1  1  0  0  0
 10  8  2  0  0  0  0
 11  3  1  0  0  0  0
 12  2  1  1  0  0  0
 12 16  1  0  0  0  0
 13 16  1  6  0  0  0
 13 14  1  0  0  0  0
 13  3  1  0  0  0  0
 18 15  1  0  0  0  0
 18 19  1  0  0  0  0
 19  8  1  0  0  0  0
 20 24  1  0  0  0  0
 20 23  1  0  0  0  0
 21 25  1  0  0  0  0
 22 20  2  0  0  0  0
 25 24  2  0  0  0  0
 26 22  1  0  0  0  0
 26 21  2  0  0  0  0
 27 36  1  6  0  0  0
 28 34  1  0  0  0  0
 29 35  2  0  0  0  0
 30 27  1  1  0  0  0
 30 35  1  0  0  0  0
 30 32  1  0  0  0  0
 31 34  1  1  0  0  0
 32 33  1  6  0  0  0
 32 31  1  0  0  0  0
 33 31  1  0  0  0  0
 35 28  1  0  0  0  0
 37 44  2  0  0  0  0
 38 45  1  0  0  0  0
 39 45  1  1  0  0  0
 39 37  1  0  0  0  0
 40 46  2  0  0  0  0
 41 38  1  1  0  0  0
 41 39  1  0  0  0  0
 42 36  1  0  0  0  0
 42 40  1  0  0  0  0
 43 37  1  0  0  0  0
 44 46  1  0  0  0  0
 45 42  2  0  0  0  0
 48 47  1  6  0  0  0
 48 41  1  0  0  0  0
 49 51  1  0  0  0  0
 49 50  1  0  0  0  0
 50 48  1  0  0  0  0
 51 47  1  0  0  0  0
M  END
>  <MODEL>
2

>  <REMARK>
 VINA RESULT:       2.2      1.879      2.899
  Name = 
  6 active torsions:
  status: ('A' for Active; 'I' for Inactive)
    1  A    between atoms: C_6  and  C_16
    2  A    between atoms: C_7  and  C_17
    3  A    between atoms: C_7  and  C_18
    4  A    between atoms: C_7  and  C_21
    5  A    between atoms: C_21  and  C_33
    6  A    between atoms: C_24  and  C_32
                            x       y       z     vdW  Elec       q    Type
                         _______ _______ _______ _____ _____    ______ ____

>  <TORSDO>
F 6

$$$$
