=
 OpenBabel11072412123D

 31 34  0  0  1  0  0  0  0  0999 V2000
  160.3720  210.8230  153.3950 N   0  0  0  0  0  0  0  0  0  0  0  0
  159.5270  214.1730  150.2160 C   0  0  0  0  0  2  0  0  0  0  0  0
  160.3630  212.1600  152.7760 C   0  0  2  0  0  3  0  0  0  0  0  0
  160.3780  212.9460  150.4160 C   0  0  0  0  0  2  0  0  0  0  0  0
  159.2990  213.1150  153.3510 C   0  0  1  0  0  3  0  0  0  0  0  0
  159.6170  212.1630  151.4430 C   0  0  2  0  0  3  0  0  0  0  0  0
  158.6070  213.1510  151.9950 C   0  0  2  0  0  3  0  0  0  0  0  0
  158.8100  214.4100  151.3990 O   0  0  0  0  0  0  0  0  0  0  0  0
  158.5070  212.7930  155.6700 N   0  0  0  0  0  0  0  0  0  0  0  0
  157.4590  212.0560  156.3590 C   0  0  2  0  0  3  0  0  0  0  0  0
  158.0590  211.0640  157.2350 N   0  0  0  0  0  1  0  0  0  0  0  0
  156.7760  211.3810  155.2200 C   0  0  0  0  0  0  0  0  0  0  0  0
  158.3910  212.5380  154.4060 C   0  0  0  0  0  0  0  0  0  0  0  0
  155.5880  210.4930  155.3430 C   0  0  0  0  0  1  0  0  0  0  0  0
  157.3190  211.6660  154.0870 N   0  0  0  0  0  0  0  0  0  0  0  0
  161.5610  210.7200  154.2410 C   0  0  0  0  0  2  0  0  0  0  0  0
  161.5780  211.0670  156.7410 N   0  0  0  0  0  1  0  0  0  0  0  0
  161.1940  210.2810  155.6190 C   0  0  0  0  0  0  0  0  0  0  0  0
  160.5590  209.2080  155.7950 O   0  0  0  0  0  0  0  0  0  0  0  0
  160.4150  209.7680  152.3640 C   0  0  0  0  0  2  0  0  0  0  0  0
  161.8320  209.2830  152.0250 C   0  0  2  0  0  3  0  0  0  0  0  0
  162.2850  209.9260  150.8720 O   0  0  0  0  0  1  0  0  0  0  0  0
  161.8800  207.7670  151.8530 C   0  0  1  0  0  3  0  0  0  0  0  0
  161.1220  207.0270  152.9610 C   0  0  0  0  0  2  0  0  0  0  0  0
  161.5280  205.0270  151.4020 C   0  0  2  0  0  3  0  0  0  0  0  0
  161.3120  205.5090  152.8440 C   0  0  0  0  0  2  0  0  0  0  0  0
  160.8320  205.9370  150.3910 C   0  0  0  0  0  2  0  0  0  0  0  0
  161.3790  207.3680  150.4570 C   0  0  0  0  0  2  0  0  0  0  0  0
  160.8390  203.0820  149.9890 O   0  0  0  0  0  0  0  0  0  0  0  0
  160.8630  202.9140  152.2750 O   0  0  0  0  0  1  0  0  0  0  0  0
  161.0620  203.6200  151.2510 C   0  0  0  0  0  0  0  0  0  0  0  0
  1 16  1  0  0  0  0
  2  4  1  0  0  0  0
  2  8  1  0  0  0  0
  3  5  1  0  0  0  0
  3  1  1  1  0  0  0
  5 13  1  1  0  0  0
  6  4  1  6  0  0  0
  6  7  1  0  0  0  0
  6  3  1  0  0  0  0
  7  8  1  6  0  0  0
  7  5  1  0  0  0  0
  9 10  1  0  0  0  0
 10 11  1  1  0  0  0
 12 14  1  0  0  0  0
 12 10  1  0  0  0  0
 13  9  2  0  0  0  0
 15 13  1  0  0  0  0
 15 12  2  0  0  0  0
 16 18  1  0  0  0  0
 18 19  2  0  0  0  0
 18 17  1  0  0  0  0
 20  1  1  0  0  0  0
 21 22  1  6  0  0  0
 21 20  1  0  0  0  0
 23 21  1  1  0  0  0
 23 24  1  0  0  0  0
 25 31  1  1  0  0  0
 25 26  1  0  0  0  0
 26 24  1  0  0  0  0
 27 28  1  0  0  0  0
 27 25  1  0  0  0  0
 28 23  1  0  0  0  0
 29 31  2  0  0  0  0
 31 30  1  0  0  0  0
M  END
>  <MODEL>
1

>  <REMARK>
 VINA RESULT:      -6.2      0.000      0.000
  Name = 
  8 active torsions:
  status: ('A' for Active; 'I' for Inactive)
    1  A    between atoms: C_1  and  C_11
    2  A    between atoms: C_6  and  N_22
    3  A    between atoms: C_8  and  C_17
    4  A    between atoms: C_9  and  N_22
    5  A    between atoms: C_9  and  C_23
    6  A    between atoms: C_11  and  C_29
    7  A    between atoms: C_14  and  C_27
    8  A    between atoms: N_22  and  C_29
                            x       y       z     vdW  Elec       q    Type
                         _______ _______ _______ _____ _____    ______ ____

>  <TORSDO>
F 8

$$$$
=
 OpenBabel11072412123D

 31 34  0  0  1  0  0  0  0  0999 V2000
  161.0040  207.7340  153.0680 N   0  0  0  0  0  0  0  0  0  0  0  0
  162.3390  209.6530  148.9970 C   0  0  0  0  0  2  0  0  0  0  0  0
  161.8590  208.4320  152.0930 C   0  0  2  0  0  3  0  0  0  0  0  0
  162.0770  208.3050  149.6180 C   0  0  0  0  0  2  0  0  0  0  0  0
  161.8960  209.9630  152.2690 C   0  0  1  0  0  3  0  0  0  0  0  0
  161.1510  208.6240  150.7530 C   0  0  2  0  0  3  0  0  0  0  0  0
  161.2460  210.1300  150.9030 C   0  0  2  0  0  3  0  0  0  0  0  0
  162.1940  210.6330  149.9910 O   0  0  0  0  0  0  0  0  0  0  0  0
  159.7380  210.6640  153.2480 N   0  0  0  0  0  0  0  0  0  0  0  0
  159.2560  211.2390  154.4950 C   0  0  2  0  0  3  0  0  0  0  0  0
  158.6980  212.5550  154.2390 N   0  0  0  0  0  1  0  0  0  0  0  0
  160.5220  211.3650  155.2700 C   0  0  0  0  0  0  0  0  0  0  0  0
  161.0210  210.5270  153.3570 C   0  0  0  0  0  0  0  0  0  0  0  0
  160.6220  211.8870  156.6600 C   0  0  0  0  0  1  0  0  0  0  0  0
  161.5440  210.9480  154.6070 N   0  0  0  0  0  0  0  0  0  0  0  0
  161.8360  207.3450  154.2070 C   0  0  0  0  0  2  0  0  0  0  0  0
  161.8970  208.1260  156.6070 N   0  0  0  0  0  1  0  0  0  0  0  0
  161.1460  207.6520  155.4950 C   0  0  0  0  0  0  0  0  0  0  0  0
  159.9050  207.4780  155.6070 O   0  0  0  0  0  0  0  0  0  0  0  0
  160.4040  206.5260  152.4690 C   0  0  0  0  0  2  0  0  0  0  0  0
  161.3560  205.3230  152.4010 C   0  0  2  0  0  3  0  0  0  0  0  0
  162.6690  205.7700  152.2430 O   0  0  0  0  0  1  0  0  0  0  0  0
  160.9710  204.3660  151.2740 C   0  0  1  0  0  3  0  0  0  0  0  0
  161.6130  204.7480  149.9360 C   0  0  0  0  0  2  0  0  0  0  0  0
  160.6940  202.4480  149.2550 C   0  0  2  0  0  3  0  0  0  0  0  0
  161.0920  203.8600  148.7990 C   0  0  0  0  0  2  0  0  0  0  0  0
  161.5120  201.9930  150.4620 C   0  0  0  0  0  2  0  0  0  0  0  0
  161.2930  202.9170  151.6670 C   0  0  0  0  0  2  0  0  0  0  0  0
  161.4250  200.2400  148.3360 O   0  0  0  0  0  1  0  0  0  0  0  0
  160.4210  201.7940  146.9820 O   0  0  0  0  0  0  0  0  0  0  0  0
  160.8350  201.4820  148.1290 C   0  0  0  0  0  0  0  0  0  0  0  0
  1 16  1  0  0  0  0
  2  4  1  0  0  0  0
  2  8  1  0  0  0  0
  3  5  1  0  0  0  0
  3  1  1  1  0  0  0
  5 13  1  1  0  0  0
  6  4  1  6  0  0  0
  6  7  1  0  0  0  0
  6  3  1  0  0  0  0
  7  8  1  6  0  0  0
  7  5  1  0  0  0  0
  9 13  2  0  0  0  0
  9 10  1  0  0  0  0
 10 11  1  6  0  0  0
 10 12  1  0  0  0  0
 12 14  1  0  0  0  0
 13 15  1  0  0  0  0
 15 12  2  0  0  0  0
 16 18  1  0  0  0  0
 18 19  2  0  0  0  0
 18 17  1  0  0  0  0
 20  1  1  0  0  0  0
 21 22  1  6  0  0  0
 21 20  1  0  0  0  0
 23 28  1  0  0  0  0
 23 21  1  1  0  0  0
 24 23  1  0  0  0  0
 25 31  1  6  0  0  0
 25 27  1  0  0  0  0
 26 25  1  0  0  0  0
 26 24  1  0  0  0  0
 27 28  1  0  0  0  0
 30 31  2  0  0  0  0
 31 29  1  0  0  0  0
M  END
>  <MODEL>
2

>  <REMARK>
 VINA RESULT:      -5.4      2.370      3.982
  Name = 
  8 active torsions:
  status: ('A' for Active; 'I' for Inactive)
    1  A    between atoms: C_1  and  C_11
    2  A    between atoms: C_6  and  N_22
    3  A    between atoms: C_8  and  C_17
    4  A    between atoms: C_9  and  N_22
    5  A    between atoms: C_9  and  C_23
    6  A    between atoms: C_11  and  C_29
    7  A    between atoms: C_14  and  C_27
    8  A    between atoms: N_22  and  C_29
                            x       y       z     vdW  Elec       q    Type
                         _______ _______ _______ _____ _____    ______ ____

>  <TORSDO>
F 8

$$$$
=
 OpenBabel11072412123D

 31 34  0  0  1  0  0  0  0  0999 V2000
  160.1640  211.4070  154.0430 N   0  0  0  0  0  0  0  0  0  0  0  0
  159.4530  213.7480  150.0360 C   0  0  0  0  0  2  0  0  0  0  0  0
  160.0390  212.5500  153.1230 C   0  0  2  0  0  3  0  0  0  0  0  0
  160.4570  212.8320  150.6860 C   0  0  0  0  0  2  0  0  0  0  0  0
  158.7020  213.3080  153.2370 C   0  0  1  0  0  3  0  0  0  0  0  0
  159.6450  212.1060  151.7160 C   0  0  2  0  0  3  0  0  0  0  0  0
  158.3580  212.9040  151.8100 C   0  0  2  0  0  3  0  0  0  0  0  0
  158.4440  214.0310  150.9700 O   0  0  0  0  0  0  0  0  0  0  0  0
  157.3450  213.3520  155.3010 N   0  0  0  0  0  0  0  0  0  0  0  0
  156.3750  212.4990  155.9720 C   0  0  2  0  0  3  0  0  0  0  0  0
  156.9160  212.0570  157.2460 N   0  0  0  0  0  1  0  0  0  0  0  0
  156.2920  211.3490  155.0290 C   0  0  0  0  0  0  0  0  0  0  0  0
  157.7030  212.7470  154.2140 C   0  0  0  0  0  0  0  0  0  0  0  0
  155.4130  210.1620  155.2080 C   0  0  0  0  0  1  0  0  0  0  0  0
  157.0630  211.4980  154.0080 N   0  0  0  0  0  0  0  0  0  0  0  0
  160.5440  211.9200  155.3590 C   0  0  0  0  0  2  0  0  0  0  0  0
  161.7120  210.4670  157.0610 N   0  0  0  0  0  1  0  0  0  0  0  0
  160.5170  210.8310  156.3790 C   0  0  0  0  0  0  0  0  0  0  0  0
  159.4450  210.2210  156.6290 O   0  0  0  0  0  0  0  0  0  0  0  0
  161.1980  210.4650  153.5720 C   0  0  0  0  0  2  0  0  0  0  0  0
  160.7430  208.9980  153.5440 C   0  0  2  0  0  3  0  0  0  0  0  0
  161.5430  208.2420  154.4020 O   0  0  0  0  0  1  0  0  0  0  0  0
  160.7770  208.4270  152.1280 C   0  0  1  0  0  3  0  0  0  0  0  0
  161.9140  209.0160  151.2850 C   0  0  0  0  0  2  0  0  0  0  0  0
  161.2060  207.1410  149.6800 C   0  0  2  0  0  3  0  0  0  0  0  0
  161.8320  208.5350  149.8310 C   0  0  0  0  0  2  0  0  0  0  0  0
  161.4560  206.2720  150.9110 C   0  0  0  0  0  2  0  0  0  0  0  0
  160.8350  206.8930  152.1690 C   0  0  0  0  0  2  0  0  0  0  0  0
  161.3150  205.1840  148.1270 O   0  0  0  0  0  1  0  0  0  0  0  0
  162.5340  207.0780  147.7050 O   0  0  0  0  0  0  0  0  0  0  0  0
  161.7210  206.4730  148.4510 C   0  0  0  0  0  0  0  0  0  0  0  0
  1 16  1  0  0  0  0
  2  4  1  0  0  0  0
  2  8  1  0  0  0  0
  3  5  1  0  0  0  0
  3  1  1  1  0  0  0
  5 13  1  1  0  0  0
  6  4  1  6  0  0  0
  6  7  1  0  0  0  0
  6  3  1  0  0  0  0
  7  8  1  6  0  0  0
  7  5  1  0  0  0  0
  9 10  1  0  0  0  0
 10 11  1  1  0  0  0
 12 14  1  0  0  0  0
 12 10  1  0  0  0  0
 13  9  2  0  0  0  0
 15 13  1  0  0  0  0
 15 12  2  0  0  0  0
 16 18  1  0  0  0  0
 18 19  2  0  0  0  0
 18 17  1  0  0  0  0
 20  1  1  0  0  0  0
 21 20  1  0  0  0  0
 21 22  1  1  0  0  0
 23 28  1  0  0  0  0
 23 21  1  1  0  0  0
 24 23  1  0  0  0  0
 25 31  1  6  0  0  0
 25 26  1  0  0  0  0
 25 27  1  0  0  0  0
 26 24  1  0  0  0  0
 27 28  1  0  0  0  0
 29 31  1  0  0  0  0
 30 31  2  0  0  0  0
M  END
>  <MODEL>
3

>  <REMARK>
 VINA RESULT:      -5.4      1.601      2.160
  Name = 
  8 active torsions:
  status: ('A' for Active; 'I' for Inactive)
    1  A    between atoms: C_1  and  C_11
    2  A    between atoms: C_6  and  N_22
    3  A    between atoms: C_8  and  C_17
    4  A    between atoms: C_9  and  N_22
    5  A    between atoms: C_9  and  C_23
    6  A    between atoms: C_11  and  C_29
    7  A    between atoms: C_14  and  C_27
    8  A    between atoms: N_22  and  C_29
                            x       y       z     vdW  Elec       q    Type
                         _______ _______ _______ _____ _____    ______ ____

>  <TORSDO>
F 8

$$$$
=
 OpenBabel11072412123D

 31 34  0  0  1  0  0  0  0  0999 V2000
  161.5310  207.8950  150.6630 N   0  0  0  0  0  0  0  0  0  0  0  0
  162.3080  211.8680  148.2850 C   0  0  0  0  0  2  0  0  0  0  0  0
  162.2340  209.1030  150.1960 C   0  0  2  0  0  3  0  0  0  0  0  0
  162.1930  210.3820  148.0630 C   0  0  0  0  0  2  0  0  0  0  0  0
  162.2010  210.2770  151.1930 C   0  0  1  0  0  3  0  0  0  0  0  0
  161.3770  209.9210  149.2330 C   0  0  2  0  0  3  0  0  0  0  0  0
  161.3990  211.0970  150.1920 C   0  0  2  0  0  3  0  0  0  0  0  0
  162.2130  212.1170  149.6630 O   0  0  0  0  0  0  0  0  0  0  0  0
  160.1230  210.0950  152.5190 N   0  0  0  0  0  0  0  0  0  0  0  0
  159.7450  209.8290  153.8990 C   0  0  2  0  0  3  0  0  0  0  0  0
  159.0960  211.0020  154.4590 N   0  0  0  0  0  1  0  0  0  0  0  0
  161.0760  209.6320  154.5370 C   0  0  0  0  0  0  0  0  0  0  0  0
  161.4160  210.0510  152.4580 C   0  0  0  0  0  0  0  0  0  0  0  0
  161.2940  209.3030  155.9710 C   0  0  0  0  0  1  0  0  0  0  0  0
  162.0440  209.7590  153.6960 N   0  0  0  0  0  0  0  0  0  0  0  0
  162.4850  207.0710  151.4060 C   0  0  0  0  0  2  0  0  0  0  0  0
  160.9010  206.4690  153.2760 N   0  0  0  0  0  1  0  0  0  0  0  0
  161.7730  206.0520  152.2320 C   0  0  0  0  0  0  0  0  0  0  0  0
  161.9510  204.8240  152.0180 O   0  0  0  0  0  0  0  0  0  0  0  0
  161.0060  207.1210  149.5220 C   0  0  0  0  0  2  0  0  0  0  0  0
  162.0840  206.3730  148.7240 C   0  0  2  0  0  3  0  0  0  0  0  0
  162.7280  207.2590  147.8600 O   0  0  0  0  0  1  0  0  0  0  0  0
  161.4930  205.1960  147.9510 C   0  0  1  0  0  3  0  0  0  0  0  0
  162.3570  204.7880  146.7520 C   0  0  0  0  0  2  0  0  0  0  0  0
  160.7460  202.7890  146.7330 C   0  0  2  0  0  3  0  0  0  0  0  0
  161.6670  203.7050  145.9140 C   0  0  0  0  0  2  0  0  0  0  0  0
  161.2210  202.6540  148.1780 C   0  0  0  0  0  2  0  0  0  0  0  0
  161.2320  204.0110  148.8920 C   0  0  0  0  0  2  0  0  0  0  0  0
  161.2140  200.3330  146.6810 O   0  0  0  0  0  1  0  0  0  0  0  0
  160.0280  201.3310  144.9930 O   0  0  0  0  0  0  0  0  0  0  0  0
  160.6390  201.4500  146.0870 C   0  0  0  0  0  0  0  0  0  0  0  0
  1 16  1  0  0  0  0
  2  8  1  0  0  0  0
  3  1  1  1  0  0  0
  3  5  1  0  0  0  0
  4  2  1  0  0  0  0
  5 13  1  1  0  0  0
  6  4  1  6  0  0  0
  6  7  1  0  0  0  0
  6  3  1  0  0  0  0
  7  8  1  6  0  0  0
  7  5  1  0  0  0  0
  9 10  1  0  0  0  0
 10 11  1  1  0  0  0
 10 12  1  0  0  0  0
 12 14  1  0  0  0  0
 13  9  2  0  0  0  0
 13 15  1  0  0  0  0
 15 12  2  0  0  0  0
 16 18  1  0  0  0  0
 18 17  1  0  0  0  0
 19 18  2  0  0  0  0
 20  1  1  0  0  0  0
 21 22  1  6  0  0  0
 21 20  1  0  0  0  0
 23 21  1  1  0  0  0
 23 28  1  0  0  0  0
 24 23  1  0  0  0  0
 25 31  1  6  0  0  0
 25 27  1  0  0  0  0
 26 25  1  0  0  0  0
 26 24  1  0  0  0  0
 27 28  1  0  0  0  0
 30 31  2  0  0  0  0
 31 29  1  0  0  0  0
M  END
>  <MODEL>
4

>  <REMARK>
 VINA RESULT:      -5.2      3.083      4.882
  Name = 
  8 active torsions:
  status: ('A' for Active; 'I' for Inactive)
    1  A    between atoms: C_1  and  C_11
    2  A    between atoms: C_6  and  N_22
    3  A    between atoms: C_8  and  C_17
    4  A    between atoms: C_9  and  N_22
    5  A    between atoms: C_9  and  C_23
    6  A    between atoms: C_11  and  C_29
    7  A    between atoms: C_14  and  C_27
    8  A    between atoms: N_22  and  C_29
                            x       y       z     vdW  Elec       q    Type
                         _______ _______ _______ _____ _____    ______ ____

>  <TORSDO>
F 8

$$$$
=
 OpenBabel11072412123D

 31 34  0  0  1  0  0  0  0  0999 V2000
  161.3190  206.7440  150.3740 N   0  0  0  0  0  0  0  0  0  0  0  0
  160.8350  202.2440  151.6210 C   0  0  0  0  0  2  0  0  0  0  0  0
  161.6960  205.3500  150.6620 C   0  0  2  0  0  3  0  0  0  0  0  0
  160.8000  203.6270  152.2170 C   0  0  0  0  0  2  0  0  0  0  0  0
  161.8880  204.4770  149.4060 C   0  0  1  0  0  3  0  0  0  0  0  0
  160.4840  204.5010  151.0410 C   0  0  2  0  0  3  0  0  0  0  0  0
  160.7150  203.6080  149.8370 C   0  0  2  0  0  3  0  0  0  0  0  0
  161.1920  202.3550  150.2680 O   0  0  0  0  0  0  0  0  0  0  0  0
  160.5840  205.9020  147.8660 N   0  0  0  0  0  0  0  0  0  0  0  0
  160.6650  206.3530  146.4850 C   0  0  2  0  0  3  0  0  0  0  0  0
  159.5360  205.8270  145.7350 N   0  0  0  0  0  1  0  0  0  0  0  0
  161.9240  205.6970  146.0340 C   0  0  0  0  0  0  0  0  0  0  0  0
  161.6100  205.1450  148.0850 C   0  0  0  0  0  0  0  0  0  0  0  0
  162.5170  205.8330  144.6770 C   0  0  0  0  0  1  0  0  0  0  0  0
  162.4710  204.9980  146.9670 N   0  0  0  0  0  0  0  0  0  0  0  0
  162.5460  207.5290  150.2380 C   0  0  0  0  0  2  0  0  0  0  0  0
  162.3350  210.0440  150.1700 N   0  0  0  0  0  1  0  0  0  0  0  0
  162.2850  208.7940  149.4910 C   0  0  0  0  0  0  0  0  0  0  0  0
  162.0030  208.7610  148.2640 O   0  0  0  0  0  0  0  0  0  0  0  0
  160.5040  207.3040  151.4700 C   0  0  0  0  0  2  0  0  0  0  0  0
  161.2800  207.5290  152.7750 C   0  0  2  0  0  3  0  0  0  0  0  0
  160.8750  206.5970  153.7310 O   0  0  0  0  0  1  0  0  0  0  0  0
  161.0980  208.9530  153.2970 C   0  0  1  0  0  3  0  0  0  0  0  0
  160.0790  209.7520  152.4770 C   0  0  0  0  0  2  0  0  0  0  0  0
  160.3610  211.4090  154.4190 C   0  0  2  0  0  3  0  0  0  0  0  0
  160.0280  211.2160  152.9320 C   0  0  0  0  0  2  0  0  0  0  0  0
  159.9760  210.1850  155.2480 C   0  0  0  0  0  2  0  0  0  0  0  0
  160.7390  208.9360  154.7900 C   0  0  0  0  0  2  0  0  0  0  0  0
  159.9120  213.0490  156.2520 O   0  0  0  0  0  1  0  0  0  0  0  0
  158.9200  213.2910  154.2010 O   0  0  0  0  0  0  0  0  0  0  0  0
  159.6930  212.6330  154.9450 C   0  0  0  0  0  0  0  0  0  0  0  0
  1 20  1  0  0  0  0
  2  4  1  0  0  0  0
  3  1  1  6  0  0  0
  3  6  1  0  0  0  0
  5 13  1  6  0  0  0
  5  7  1  0  0  0  0
  5  3  1  0  0  0  0
  6  4  1  1  0  0  0
  7  8  1  1  0  0  0
  7  6  1  0  0  0  0
  8  2  1  0  0  0  0
  9 13  2  0  0  0  0
 10 11  1  6  0  0  0
 10  9  1  0  0  0  0
 12 10  1  0  0  0  0
 12 15  2  0  0  0  0
 14 12  1  0  0  0  0
 15 13  1  0  0  0  0
 16  1  1  0  0  0  0
 18 17  1  0  0  0  0
 18 16  1  0  0  0  0
 19 18  2  0  0  0  0
 20 21  1  0  0  0  0
 21 22  1  1  0  0  0
 23 21  1  6  0  0  0
 23 28  1  0  0  0  0
 24 26  1  0  0  0  0
 24 23  1  0  0  0  0
 25 31  1  1  0  0  0
 25 27  1  0  0  0  0
 26 25  1  0  0  0  0
 28 27  1  0  0  0  0
 30 31  2  0  0  0  0
 31 29  1  0  0  0  0
M  END
>  <MODEL>
5

>  <REMARK>
 VINA RESULT:      -5.1      3.649      8.818
  Name = 
  8 active torsions:
  status: ('A' for Active; 'I' for Inactive)
    1  A    between atoms: C_1  and  C_11
    2  A    between atoms: C_6  and  N_22
    3  A    between atoms: C_8  and  C_17
    4  A    between atoms: C_9  and  N_22
    5  A    between atoms: C_9  and  C_23
    6  A    between atoms: C_11  and  C_29
    7  A    between atoms: C_14  and  C_27
    8  A    between atoms: N_22  and  C_29
                            x       y       z     vdW  Elec       q    Type
                         _______ _______ _______ _____ _____    ______ ____

>  <TORSDO>
F 8

$$$$
=
 OpenBabel11072412123D

 31 34  0  0  1  0  0  0  0  0999 V2000
  161.3330  205.8610  149.8990 N   0  0  0  0  0  0  0  0  0  0  0  0
  160.8190  201.2210  150.3930 C   0  0  0  0  0  2  0  0  0  0  0  0
  161.6960  204.4340  149.9330 C   0  0  2  0  0  3  0  0  0  0  0  0
  160.8320  202.4840  151.2140 C   0  0  0  0  0  2  0  0  0  0  0  0
  161.8230  203.7830  148.5420 C   0  0  1  0  0  3  0  0  0  0  0  0
  160.4850  203.5470  150.2150 C   0  0  2  0  0  3  0  0  0  0  0  0
  160.6530  202.8670  148.8700 C   0  0  2  0  0  3  0  0  0  0  0  0
  161.1250  201.5540  149.0640 O   0  0  0  0  0  0  0  0  0  0  0  0
  160.5230  205.5090  147.3440 N   0  0  0  0  0  0  0  0  0  0  0  0
  160.5420  206.1670  146.0460 C   0  0  2  0  0  3  0  0  0  0  0  0
  159.3320  205.8340  145.3150 N   0  0  0  0  0  1  0  0  0  0  0  0
  161.7180  205.5170  145.4040 C   0  0  0  0  0  0  0  0  0  0  0  0
  161.5050  204.6660  147.3640 C   0  0  0  0  0  0  0  0  0  0  0  0
  162.2280  205.8290  144.0410 C   0  0  0  0  0  1  0  0  0  0  0  0
  162.2760  204.6470  146.1740 N   0  0  0  0  0  0  0  0  0  0  0  0
  162.5670  206.6470  149.9310 C   0  0  0  0  0  2  0  0  0  0  0  0
  161.9580  209.0860  149.7080 N   0  0  0  0  0  1  0  0  0  0  0  0
  162.4280  207.8840  149.1080 C   0  0  0  0  0  0  0  0  0  0  0  0
  162.7100  207.8660  147.8820 O   0  0  0  0  0  0  0  0  0  0  0  0
  160.5000  206.2180  151.0640 C   0  0  0  0  0  2  0  0  0  0  0  0
  161.2950  206.4250  152.3620 C   0  0  2  0  0  3  0  0  0  0  0  0
  161.2990  205.2430  153.1040 O   0  0  0  0  0  1  0  0  0  0  0  0
  160.7300  207.5800  153.1860 C   0  0  1  0  0  3  0  0  0  0  0  0
  160.8290  207.3270  154.6950 C   0  0  0  0  0  2  0  0  0  0  0  0
  160.1380  209.7980  154.7870 C   0  0  2  0  0  3  0  0  0  0  0  0
  160.1250  208.4330  155.4900 C   0  0  0  0  0  2  0  0  0  0  0  0
  161.3670  209.9630  153.8940 C   0  0  0  0  0  2  0  0  0  0  0  0
  161.4000  208.9030  152.7860 C   0  0  0  0  0  2  0  0  0  0  0  0
  160.4060  212.1980  155.4360 O   0  0  0  0  0  0  0  0  0  0  0  0
  159.6970  210.6460  156.9670 O   0  0  0  0  0  1  0  0  0  0  0  0
  160.0650  210.8980  155.7900 C   0  0  0  0  0  0  0  0  0  0  0  0
  1 16  1  0  0  0  0
  1 20  1  0  0  0  0
  2  4  1  0  0  0  0
  3  1  1  6  0  0  0
  3  6  1  0  0  0  0
  5 13  1  6  0  0  0
  5  7  1  0  0  0  0
  5  3  1  0  0  0  0
  6  4  1  1  0  0  0
  7  8  1  1  0  0  0
  7  6  1  0  0  0  0
  8  2  1  0  0  0  0
  9 13  2  0  0  0  0
 10 11  1  6  0  0  0
 10  9  1  0  0  0  0
 12 10  1  0  0  0  0
 12 15  2  0  0  0  0
 14 12  1  0  0  0  0
 15 13  1  0  0  0  0
 18 17  1  0  0  0  0
 18 16  1  0  0  0  0
 19 18  2  0  0  0  0
 20 21  1  0  0  0  0
 21 22  1  1  0  0  0
 23 21  1  6  0  0  0
 23 24  1  0  0  0  0
 24 26  1  0  0  0  0
 25 26  1  0  0  0  0
 25 31  1  1  0  0  0
 27 25  1  0  0  0  0
 28 23  1  0  0  0  0
 28 27  1  0  0  0  0
 29 31  2  0  0  0  0
 31 30  1  0  0  0  0
M  END
>  <MODEL>
6

>  <REMARK>
 VINA RESULT:      -5.1      3.968      9.081
  Name = 
  8 active torsions:
  status: ('A' for Active; 'I' for Inactive)
    1  A    between atoms: C_1  and  C_11
    2  A    between atoms: C_6  and  N_22
    3  A    between atoms: C_8  and  C_17
    4  A    between atoms: C_9  and  N_22
    5  A    between atoms: C_9  and  C_23
    6  A    between atoms: C_11  and  C_29
    7  A    between atoms: C_14  and  C_27
    8  A    between atoms: N_22  and  C_29
                            x       y       z     vdW  Elec       q    Type
                         _______ _______ _______ _____ _____    ______ ____

>  <TORSDO>
F 8

$$$$
=
 OpenBabel11072412123D

 31 34  0  0  1  0  0  0  0  0999 V2000
  161.1240  209.5760  153.8940 N   0  0  0  0  0  0  0  0  0  0  0  0
  161.3260  211.9660  149.8580 C   0  0  0  0  0  2  0  0  0  0  0  0
  161.4280  210.6740  152.9610 C   0  0  2  0  0  3  0  0  0  0  0  0
  161.9240  210.7540  150.5240 C   0  0  0  0  0  2  0  0  0  0  0  0
  160.4620  211.8710  153.0590 C   0  0  1  0  0  3  0  0  0  0  0  0
  160.9000  210.3880  151.5560 C   0  0  2  0  0  3  0  0  0  0  0  0
  159.9950  211.6040  151.6340 C   0  0  2  0  0  3  0  0  0  0  0  0
  160.4900  212.6100  150.7830 O   0  0  0  0  0  0  0  0  0  0  0  0
  158.2410  211.0640  153.7850 N   0  0  0  0  0  0  0  0  0  0  0  0
  157.3920  211.1580  154.9620 C   0  0  2  0  0  3  0  0  0  0  0  0
  156.1760  211.8790  154.6280 N   0  0  0  0  0  1  0  0  0  0  0  0
  158.2380  211.9820  155.8710 C   0  0  0  0  0  0  0  0  0  0  0  0
  159.3250  211.7270  154.0360 C   0  0  0  0  0  0  0  0  0  0  0  0
  157.8660  212.3800  157.2550 C   0  0  0  0  0  1  0  0  0  0  0  0
  159.3610  212.3080  155.3290 N   0  0  0  0  0  0  0  0  0  0  0  0
  161.6160  209.9540  155.2190 C   0  0  0  0  0  2  0  0  0  0  0  0
  161.8700  208.3630  157.1620 N   0  0  0  0  0  1  0  0  0  0  0  0
  161.0220  209.0800  156.2730 C   0  0  0  0  0  0  0  0  0  0  0  0
  159.7720  208.9600  156.3690 O   0  0  0  0  0  0  0  0  0  0  0  0
  161.7860  208.3280  153.4680 C   0  0  0  0  0  2  0  0  0  0  0  0
  160.8270  207.1430  153.2800 C   0  0  2  0  0  3  0  0  0  0  0  0
  160.7880  206.3790  154.4470 O   0  0  0  0  0  1  0  0  0  0  0  0
  161.2260  206.2840  152.0820 C   0  0  1  0  0  3  0  0  0  0  0  0
  160.8210  204.8150  152.2530 C   0  0  0  0  0  2  0  0  0  0  0  0
  161.5070  204.7160  149.7810 C   0  0  2  0  0  3  0  0  0  0  0  0
  161.3630  203.9540  151.1060 C   0  0  0  0  0  2  0  0  0  0  0  0
  160.4860  205.8460  149.6640 C   0  0  0  0  0  2  0  0  0  0  0  0
  160.6660  206.8800  150.7830 C   0  0  0  0  0  2  0  0  0  0  0  0
  160.5170  202.6970  148.6860 O   0  0  0  0  0  1  0  0  0  0  0  0
  162.0870  203.9640  147.5970 O   0  0  0  0  0  0  0  0  0  0  0  0
  161.3890  203.7780  148.6280 C   0  0  0  0  0  0  0  0  0  0  0  0
  1 16  1  0  0  0  0
  2  4  1  0  0  0  0
  2  8  1  0  0  0  0
  3  5  1  0  0  0  0
  3  1  1  1  0  0  0
  5 13  1  1  0  0  0
  6  4  1  6  0  0  0
  6  7  1  0  0  0  0
  6  3  1  0  0  0  0
  7  8  1  6  0  0  0
  7  5  1  0  0  0  0
  9 13  2  0  0  0  0
  9 10  1  0  0  0  0
 10 11  1  6  0  0  0
 10 12  1  0  0  0  0
 12 14  1  0  0  0  0
 13 15  1  0  0  0  0
 15 12  2  0  0  0  0
 16 18  1  0  0  0  0
 18 19  2  0  0  0  0
 18 17  1  0  0  0  0
 20  1  1  0  0  0  0
 21 20  1  0  0  0  0
 21 22  1  1  0  0  0
 23 24  1  0  0  0  0
 23 21  1  1  0  0  0
 25 31  1  6  0  0  0
 25 26  1  0  0  0  0
 26 24  1  0  0  0  0
 27 25  1  0  0  0  0
 27 28  1  0  0  0  0
 28 23  1  0  0  0  0
 30 31  2  0  0  0  0
 31 29  1  0  0  0  0
M  END
>  <MODEL>
7

>  <REMARK>
 VINA RESULT:      -5.0      1.698      2.454
  Name = 
  8 active torsions:
  status: ('A' for Active; 'I' for Inactive)
    1  A    between atoms: C_1  and  C_11
    2  A    between atoms: C_6  and  N_22
    3  A    between atoms: C_8  and  C_17
    4  A    between atoms: C_9  and  N_22
    5  A    between atoms: C_9  and  C_23
    6  A    between atoms: C_11  and  C_29
    7  A    between atoms: C_14  and  C_27
    8  A    between atoms: N_22  and  C_29
                            x       y       z     vdW  Elec       q    Type
                         _______ _______ _______ _____ _____    ______ ____

>  <TORSDO>
F 8

$$$$
=
 OpenBabel11072412123D

 31 34  0  0  1  0  0  0  0  0999 V2000
  161.0940  205.2970  149.3520 N   0  0  0  0  0  0  0  0  0  0  0  0
  160.9970  200.6710  150.1430 C   0  0  0  0  0  2  0  0  0  0  0  0
  161.5910  203.9210  149.5200 C   0  0  2  0  0  3  0  0  0  0  0  0
  160.8120  201.9800  150.8660 C   0  0  0  0  0  2  0  0  0  0  0  0
  161.9050  203.1980  148.1960 C   0  0  1  0  0  3  0  0  0  0  0  0
  160.4530  202.9330  149.7670 C   0  0  2  0  0  3  0  0  0  0  0  0
  160.8050  202.1880  148.4940 C   0  0  2  0  0  3  0  0  0  0  0  0
  161.3850  200.9470  148.8230 O   0  0  0  0  0  0  0  0  0  0  0  0
  160.4100  204.1730  146.4860 N   0  0  0  0  0  0  0  0  0  0  0  0
  160.5350  204.9420  145.2570 C   0  0  2  0  0  3  0  0  0  0  0  0
  160.0450  204.1550  144.1390 N   0  0  0  0  0  1  0  0  0  0  0  0
  162.0130  205.1010  145.1580 C   0  0  0  0  0  0  0  0  0  0  0  0
  161.6070  203.9650  146.9350 C   0  0  0  0  0  0  0  0  0  0  0  0
  162.7200  205.8420  144.0790 C   0  0  0  0  0  1  0  0  0  0  0  0
  162.6310  204.5340  146.1350 N   0  0  0  0  0  0  0  0  0  0  0  0
  162.2280  206.1520  149.0000 C   0  0  0  0  0  2  0  0  0  0  0  0
  162.3450  208.6510  148.6650 N   0  0  0  0  0  1  0  0  0  0  0  0
  161.7610  207.3990  148.3250 C   0  0  0  0  0  0  0  0  0  0  0  0
  160.8410  207.3510  147.4670 O   0  0  0  0  0  0  0  0  0  0  0  0
  160.4830  205.7910  150.6010 C   0  0  0  0  0  2  0  0  0  0  0  0
  161.4110  205.7180  151.8230 C   0  0  2  0  0  3  0  0  0  0  0  0
  160.9090  204.7940  152.7400 O   0  0  0  0  0  1  0  0  0  0  0  0
  161.5890  207.0870  152.4750 C   0  0  1  0  0  3  0  0  0  0  0  0
  160.8250  208.1920  151.7370 C   0  0  0  0  0  2  0  0  0  0  0  0
  161.4820  209.5380  153.8220 C   0  0  2  0  0  3  0  0  0  0  0  0
  161.1400  209.5720  152.3260 C   0  0  0  0  0  2  0  0  0  0  0  0
  160.7810  208.3840  154.5370 C   0  0  0  0  0  2  0  0  0  0  0  0
  161.2080  207.0280  153.9610 C   0  0  0  0  0  2  0  0  0  0  0  0
  160.4500  211.8150  153.7510 O   0  0  0  0  0  0  0  0  0  0  0  0
  161.4800  211.0590  155.6540 O   0  0  0  0  0  1  0  0  0  0  0  0
  161.1390  210.8390  154.4620 C   0  0  0  0  0  0  0  0  0  0  0  0
  1 20  1  0  0  0  0
  2  4  1  0  0  0  0
  3  1  1  6  0  0  0
  3  6  1  0  0  0  0
  5 13  1  6  0  0  0
  5  7  1  0  0  0  0
  5  3  1  0  0  0  0
  6  4  1  1  0  0  0
  7  8  1  1  0  0  0
  7  6  1  0  0  0  0
  8  2  1  0  0  0  0
  9 13  2  0  0  0  0
 10 11  1  6  0  0  0
 10  9  1  0  0  0  0
 12 10  1  0  0  0  0
 12 15  2  0  0  0  0
 14 12  1  0  0  0  0
 15 13  1  0  0  0  0
 16  1  1  0  0  0  0
 18 17  1  0  0  0  0
 18 16  1  0  0  0  0
 19 18  2  0  0  0  0
 20 21  1  0  0  0  0
 21 22  1  1  0  0  0
 23 21  1  6  0  0  0
 23 28  1  0  0  0  0
 24 26  1  0  0  0  0
 24 23  1  0  0  0  0
 25 31  1  1  0  0  0
 25 27  1  0  0  0  0
 26 25  1  0  0  0  0
 28 27  1  0  0  0  0
 29 31  2  0  0  0  0
 31 30  1  0  0  0  0
M  END
>  <MODEL>
8

>  <REMARK>
 VINA RESULT:      -4.8      4.467      9.564
  Name = 
  8 active torsions:
  status: ('A' for Active; 'I' for Inactive)
    1  A    between atoms: C_1  and  C_11
    2  A    between atoms: C_6  and  N_22
    3  A    between atoms: C_8  and  C_17
    4  A    between atoms: C_9  and  N_22
    5  A    between atoms: C_9  and  C_23
    6  A    between atoms: C_11  and  C_29
    7  A    between atoms: C_14  and  C_27
    8  A    between atoms: N_22  and  C_29
                            x       y       z     vdW  Elec       q    Type
                         _______ _______ _______ _____ _____    ______ ____

>  <TORSDO>
F 8

$$$$
=
 OpenBabel11072412123D

 31 34  0  0  1  0  0  0  0  0999 V2000
  161.2480  209.8770  153.5420 N   0  0  0  0  0  0  0  0  0  0  0  0
  161.1040  212.3920  149.5800 C   0  0  0  0  0  2  0  0  0  0  0  0
  161.4740  211.0040  152.6200 C   0  0  2  0  0  3  0  0  0  0  0  0
  161.7530  211.1580  150.1530 C   0  0  0  0  0  2  0  0  0  0  0  0
  160.5250  212.1980  152.8400 C   0  0  1  0  0  3  0  0  0  0  0  0
  160.8230  210.7630  151.2590 C   0  0  2  0  0  3  0  0  0  0  0  0
  159.9340  211.9770  151.4550 C   0  0  2  0  0  3  0  0  0  0  0  0
  160.3560  213.0090  150.5940 O   0  0  0  0  0  0  0  0  0  0  0  0
  159.5440  212.5850  155.0750 N   0  0  0  0  0  0  0  0  0  0  0  0
  158.3600  212.1800  155.8170 C   0  0  2  0  0  3  0  0  0  0  0  0
  158.7570  211.3870  156.9680 N   0  0  0  0  0  1  0  0  0  0  0  0
  157.6680  211.3170  154.8200 C   0  0  0  0  0  0  0  0  0  0  0  0
  159.4790  212.0260  153.9090 C   0  0  0  0  0  0  0  0  0  0  0  0
  156.3630  210.6370  155.0400 C   0  0  0  0  0  1  0  0  0  0  0  0
  158.3190  211.2330  153.7120 N   0  0  0  0  0  0  0  0  0  0  0  0
  161.8750  210.2040  154.8230 C   0  0  0  0  0  2  0  0  0  0  0  0
  160.1300  208.7730  155.9540 N   0  0  0  0  0  1  0  0  0  0  0  0
  161.4790  209.2190  155.8720 C   0  0  0  0  0  0  0  0  0  0  0  0
  162.3300  208.7920  156.6960 O   0  0  0  0  0  0  0  0  0  0  0  0
  161.8460  208.6370  153.0110 C   0  0  0  0  0  2  0  0  0  0  0  0
  160.8260  207.5250  152.7220 C   0  0  2  0  0  3  0  0  0  0  0  0
  161.0740  206.4330  153.5560 O   0  0  0  0  0  1  0  0  0  0  0  0
  160.8560  207.1040  151.2550 C   0  0  1  0  0  3  0  0  0  0  0  0
  162.1500  207.5250  150.5500 C   0  0  0  0  0  2  0  0  0  0  0  0
  161.2100  206.0080  148.7040 C   0  0  2  0  0  3  0  0  0  0  0  0
  162.0880  207.2190  149.0480 C   0  0  0  0  0  2  0  0  0  0  0  0
  161.1820  204.9870  149.8400 C   0  0  0  0  0  2  0  0  0  0  0  0
  160.6020  205.5950  151.1240 C   0  0  0  0  0  2  0  0  0  0  0  0
  161.9410  204.0100  147.3890 O   0  0  0  0  0  1  0  0  0  0  0  0
  161.8340  206.0780  146.4080 O   0  0  0  0  0  0  0  0  0  0  0  0
  161.6750  205.3730  147.4380 C   0  0  0  0  0  0  0  0  0  0  0  0
  1 16  1  0  0  0  0
  2  4  1  0  0  0  0
  2  8  1  0  0  0  0
  3  5  1  0  0  0  0
  3  1  1  1  0  0  0
  5 13  1  1  0  0  0
  6  4  1  6  0  0  0
  6  7  1  0  0  0  0
  6  3  1  0  0  0  0
  7  8  1  6  0  0  0
  7  5  1  0  0  0  0
  9 10  1  0  0  0  0
 10 11  1  1  0  0  0
 12 14  1  0  0  0  0
 12 10  1  0  0  0  0
 13  9  2  0  0  0  0
 15 13  1  0  0  0  0
 15 12  2  0  0  0  0
 16 18  1  0  0  0  0
 18 17  1  0  0  0  0
 18 19  2  0  0  0  0
 20  1  1  0  0  0  0
 21 20  1  0  0  0  0
 21 22  1  1  0  0  0
 23 21  1  1  0  0  0
 24 23  1  0  0  0  0
 25 31  1  6  0  0  0
 25 26  1  0  0  0  0
 25 27  1  0  0  0  0
 26 24  1  0  0  0  0
 27 28  1  0  0  0  0
 28 23  1  0  0  0  0
 29 31  1  0  0  0  0
 30 31  2  0  0  0  0
M  END
>  <MODEL>
9

>  <REMARK>
 VINA RESULT:      -4.5      1.846      2.503
  Name = 
  8 active torsions:
  status: ('A' for Active; 'I' for Inactive)
    1  A    between atoms: C_1  and  C_11
    2  A    between atoms: C_6  and  N_22
    3  A    between atoms: C_8  and  C_17
    4  A    between atoms: C_9  and  N_22
    5  A    between atoms: C_9  and  C_23
    6  A    between atoms: C_11  and  C_29
    7  A    between atoms: C_14  and  C_27
    8  A    between atoms: N_22  and  C_29
                            x       y       z     vdW  Elec       q    Type
                         _______ _______ _______ _____ _____    ______ ____

>  <TORSDO>
F 8

$$$$
