=
 OpenBabel11072412123D

 31 36  0  0  1  0  0  0  0  0999 V2000
  161.9370  208.0040  150.2710 C   0  0  0  0  0  3  0  0  0  0  0  0
  161.6780  206.8250  147.7390 C   0  0  0  0  0  0  0  0  0  0  0  0
  161.3360  206.0890  148.9000 C   0  0  0  0  0  0  0  0  0  0  0  0
  161.1640  203.5480  152.3370 C   0  0  0  0  0  3  0  0  0  0  0  0
  160.6620  204.7500  148.7740 C   0  0  0  0  0  2  0  0  0  0  0  0
  161.0800  204.4230  151.2420 C   0  0  0  0  0  0  0  0  0  0  0  0
  160.8110  202.4880  149.8020 C   0  0  0  0  0  3  0  0  0  0  0  0
  162.1330  208.1440  147.8730 C   0  0  0  0  0  3  0  0  0  0  0  0
  161.4950  206.6760  150.1790 C   0  0  0  0  0  0  0  0  0  0  0  0
  161.1080  205.9240  151.4410 C   0  0  2  0  0  3  0  0  0  0  0  0
  161.0970  202.2030  152.1530 N   0  0  0  0  0  0  0  0  0  0  0  0
  162.2580  208.7320  149.1290 C   0  0  0  0  0  3  0  0  0  0  0  0
  160.8880  203.8730  149.9620 C   0  0  0  0  0  0  0  0  0  0  0  0
  160.9280  201.6610  150.9190 C   0  0  0  0  0  3  0  0  0  0  0  0
  162.1690  204.3540  145.0190 C   0  0  0  0  0  2  0  0  0  0  0  0
  160.3520  206.4390  145.6190 C   0  0  0  0  0  2  0  0  0  0  0  0
  161.5660  206.2650  146.4180 N   0  0  0  0  0  0  0  0  0  0  0  0
  162.6940  205.5300  145.8420 C   0  0  0  0  0  2  0  0  0  0  0  0
  160.0800  205.1650  144.8190 C   0  0  0  0  0  2  0  0  0  0  0  0
  161.2250  204.8110  144.0830 O   0  0  0  0  0  0  0  0  0  0  0  0
  162.0130  206.3070  152.6160 C   0  0  0  0  0  2  0  0  0  0  0  0
  160.5340  210.8590  153.7860 C   0  0  0  0  0  3  0  0  0  0  0  0
  159.8410  211.7200  154.6420 C   0  0  0  0  0  3  0  0  0  0  0  0
  160.6450  206.7620  154.6620 C   0  0  0  0  0  3  0  0  0  0  0  0
  159.9570  207.6380  155.5070 C   0  0  0  0  0  3  0  0  0  0  0  0
  161.2660  208.6160  153.2250 C   0  0  0  0  0  3  0  0  0  0  0  0
  159.9210  209.0040  155.2160 C   0  0  0  0  0  0  0  0  0  0  0  0
  159.2020  211.1970  155.7700 C   0  0  0  0  0  3  0  0  0  0  0  0
  161.3030  207.2490  153.5250 C   0  0  0  0  0  0  0  0  0  0  0  0
  159.2540  209.8620  156.0330 N   0  0  0  0  0  0  0  0  0  0  0  0
  160.5790  209.4940  154.0670 C   0  0  0  0  0  0  0  0  0  0  0  0
  2  8  2  0  0  0  0
  2  3  1  0  0  0  0
  3  9  2  0  0  0  0
  5  3  1  0  0  0  0
  5 13  1  0  0  0  0
  6 10  1  0  0  0  0
  6  4  2  0  0  0  0
  7 13  2  0  0  0  0
  7 14  1  0  0  0  0
  8 12  1  0  0  0  0
  9  1  1  0  0  0  0
  9 10  1  0  0  0  0
 10 21  1  1  0  0  0
 11  4  1  0  0  0  0
 12  1  2  0  0  0  0
 13  6  1  0  0  0  0
 14 11  2  0  0  0  0
 15 18  1  0  0  0  0
 16 17  1  0  0  0  0
 17  2  1  0  0  0  0
 18 17  1  0  0  0  0
 19 16  1  0  0  0  0
 20 19  1  0  0  0  0
 20 15  1  0  0  0  0
 21 29  1  0  0  0  0
 22 31  2  0  0  0  0
 22 23  1  0  0  0  0
 23 28  2  0  0  0  0
 24 25  2  0  0  0  0
 26 29  2  0  0  0  0
 26 31  1  0  0  0  0
 27 25  1  0  0  0  0
 27 30  2  0  0  0  0
 28 30  1  0  0  0  0
 29 24  1  0  0  0  0
 31 27  1  0  0  0  0
M  END
>  <MODEL>
1

>  <REMARK>
 VINA RESULT:     -10.3      0.000      0.000
  Name = 
  3 active torsions:
  status: ('A' for Active; 'I' for Inactive)
    1  A    between atoms: C_2  and  N_12
    2  A    between atoms: C_20  and  C_26
    3  A    between atoms: C_23  and  C_26
                            x       y       z     vdW  Elec       q    Type
                         _______ _______ _______ _____ _____    ______ ____

>  <TORSDO>
F 3

$$$$
=
 OpenBabel11072412123D

 31 36  0  0  1  0  0  0  0  0999 V2000
  160.7570  206.9040  154.8100 C   0  0  0  0  0  3  0  0  0  0  0  0
  159.9070  209.4690  155.5660 C   0  0  0  0  0  0  0  0  0  0  0  0
  160.2310  209.2010  154.2130 C   0  0  0  0  0  0  0  0  0  0  0  0
  162.0350  208.7270  150.3640 C   0  0  0  0  0  3  0  0  0  0  0  0
  159.9460  210.2290  153.1520 C   0  0  0  0  0  2  0  0  0  0  0  0
  161.3190  208.8220  151.5680 C   0  0  0  0  0  0  0  0  0  0  0  0
  161.0690  211.2000  151.1540 C   0  0  0  0  0  3  0  0  0  0  0  0
  160.0050  208.4380  156.5110 C   0  0  0  0  0  3  0  0  0  0  0  0
  160.6870  207.9140  153.8390 C   0  0  0  0  0  0  0  0  0  0  0  0
  161.0140  207.5880  152.3920 C   0  0  2  0  0  3  0  0  0  0  0  0
  162.2700  209.8340  149.6110 N   0  0  0  0  0  0  0  0  0  0  0  0
  160.4230  207.1630  156.1370 C   0  0  0  0  0  3  0  0  0  0  0  0
  160.8230  210.0800  151.9510 C   0  0  0  0  0  0  0  0  0  0  0  0
  161.8090  211.0570  149.9810 C   0  0  0  0  0  3  0  0  0  0  0  0
  160.0070  213.1510  155.9850 C   0  0  0  0  0  2  0  0  0  0  0  0
  158.0480  211.1110  156.0640 C   0  0  0  0  0  2  0  0  0  0  0  0
  159.4690  210.7670  156.0060 N   0  0  0  0  0  0  0  0  0  0  0  0
  160.4570  211.7610  156.4330 C   0  0  0  0  0  2  0  0  0  0  0  0
  157.8590  212.5720  155.6560 C   0  0  0  0  0  2  0  0  0  0  0  0
  158.6960  213.3950  156.4290 O   0  0  0  0  0  0  0  0  0  0  0  0
  162.1500  206.5660  152.2950 C   0  0  0  0  0  2  0  0  0  0  0  0
  161.3500  203.8110  148.2880 C   0  0  0  0  0  3  0  0  0  0  0  0
  160.9060  202.6160  147.7150 C   0  0  0  0  0  3  0  0  0  0  0  0
  161.1580  204.2730  152.4500 C   0  0  0  0  0  3  0  0  0  0  0  0
  160.7160  203.0850  151.8580 C   0  0  0  0  0  3  0  0  0  0  0  0
  161.7290  205.1630  150.2660 C   0  0  0  0  0  3  0  0  0  0  0  0
  160.7800  202.9310  150.4710 C   0  0  0  0  0  0  0  0  0  0  0  0
  160.4060  201.6040  148.5390 C   0  0  0  0  0  3  0  0  0  0  0  0
  161.6590  205.3120  151.6560 C   0  0  0  0  0  0  0  0  0  0  0  0
  160.3530  201.7790  149.8880 N   0  0  0  0  0  0  0  0  0  0  0  0
  161.2900  203.9770  149.6710 C   0  0  0  0  0  0  0  0  0  0  0  0
  1 12  1  0  0  0  0
  2 17  1  0  0  0  0
  2  8  1  0  0  0  0
  3  2  2  0  0  0  0
  4  6  1  0  0  0  0
  5  3  1  0  0  0  0
  6 13  2  0  0  0  0
  6 10  1  0  0  0  0
  7 13  1  0  0  0  0
  9  3  1  0  0  0  0
  9  1  2  0  0  0  0
 10 21  1  1  0  0  0
 10  9  1  0  0  0  0
 11 14  1  0  0  0  0
 11  4  2  0  0  0  0
 12  8  2  0  0  0  0
 13  5  1  0  0  0  0
 14  7  2  0  0  0  0
 15 20  1  0  0  0  0
 15 18  1  0  0  0  0
 17 16  1  0  0  0  0
 17 18  1  0  0  0  0
 19 16  1  0  0  0  0
 19 20  1  0  0  0  0
 22 31  1  0  0  0  0
 23 22  2  0  0  0  0
 23 28  1  0  0  0  0
 25 24  1  0  0  0  0
 26 29  1  0  0  0  0
 27 25  2  0  0  0  0
 28 30  2  0  0  0  0
 29 21  1  0  0  0  0
 29 24  2  0  0  0  0
 30 27  1  0  0  0  0
 31 26  2  0  0  0  0
 31 27  1  0  0  0  0
M  END
>  <MODEL>
2

>  <REMARK>
 VINA RESULT:     -10.0      3.386      8.674
  Name = 
  3 active torsions:
  status: ('A' for Active; 'I' for Inactive)
    1  A    between atoms: C_2  and  N_12
    2  A    between atoms: C_20  and  C_26
    3  A    between atoms: C_23  and  C_26
                            x       y       z     vdW  Elec       q    Type
                         _______ _______ _______ _____ _____    ______ ____

>  <TORSDO>
F 3

$$$$
=
 OpenBabel11072412123D

 31 36  0  0  1  0  0  0  0  0999 V2000
  160.8030  206.9540  154.6280 C   0  0  0  0  0  3  0  0  0  0  0  0
  159.9460  209.4480  155.5860 C   0  0  0  0  0  0  0  0  0  0  0  0
  160.2400  209.2810  154.2100 C   0  0  0  0  0  0  0  0  0  0  0  0
  161.9560  209.1040  150.2960 C   0  0  0  0  0  3  0  0  0  0  0  0
  159.9200  210.3790  153.2320 C   0  0  0  0  0  2  0  0  0  0  0  0
  161.2690  209.1050  151.5200 C   0  0  0  0  0  0  0  0  0  0  0  0
  160.9850  211.5030  151.2830 C   0  0  0  0  0  3  0  0  0  0  0  0
  160.0770  208.3530  156.4520 C   0  0  0  0  0  3  0  0  0  0  0  0
  160.7000  208.0300  153.7350 C   0  0  0  0  0  0  0  0  0  0  0  0
  160.9950  207.8120  152.2600 C   0  0  2  0  0  3  0  0  0  0  0  0
  162.1630  210.2650  149.6190 N   0  0  0  0  0  0  0  0  0  0  0  0
  160.4990  207.1140  155.9780 C   0  0  0  0  0  3  0  0  0  0  0  0
  160.7690  210.3270  152.0040 C   0  0  0  0  0  0  0  0  0  0  0  0
  161.6980  211.4530  150.0870 C   0  0  0  0  0  3  0  0  0  0  0  0
  160.0810  213.0700  156.3660 C   0  0  0  0  0  2  0  0  0  0  0  0
  158.0890  211.0720  156.1480 C   0  0  0  0  0  2  0  0  0  0  0  0
  159.5060  210.7060  156.1280 N   0  0  0  0  0  0  0  0  0  0  0  0
  160.4850  211.6340  156.6990 C   0  0  0  0  0  2  0  0  0  0  0  0
  157.9440  212.5690  155.8750 C   0  0  0  0  0  2  0  0  0  0  0  0
  158.7530  213.2970  156.7650 O   0  0  0  0  0  0  0  0  0  0  0  0
  162.1390  206.8120  152.0640 C   0  0  0  0  0  2  0  0  0  0  0  0
  161.2060  202.0540  151.1870 C   0  0  0  0  0  3  0  0  0  0  0  0
  160.7800  201.0490  150.3150 C   0  0  0  0  0  3  0  0  0  0  0  0
  161.3230  206.0190  149.8340 C   0  0  0  0  0  3  0  0  0  0  0  0
  160.9010  205.0000  148.9740 C   0  0  0  0  0  3  0  0  0  0  0  0
  161.6730  204.3970  151.6050 C   0  0  0  0  0  3  0  0  0  0  0  0
  160.8630  203.6780  149.4250 C   0  0  0  0  0  0  0  0  0  0  0  0
  160.4050  201.3860  149.0110 C   0  0  0  0  0  3  0  0  0  0  0  0
  161.7130  205.7190  151.1460 C   0  0  0  0  0  0  0  0  0  0  0  0
  160.4540  202.6820  148.5950 N   0  0  0  0  0  0  0  0  0  0  0  0
  161.2510  203.3760  150.7490 C   0  0  0  0  0  0  0  0  0  0  0  0
  1 12  1  0  0  0  0
  2 17  1  0  0  0  0
  2  8  1  0  0  0  0
  3  2  2  0  0  0  0
  4  6  1  0  0  0  0
  5  3  1  0  0  0  0
  6 13  2  0  0  0  0
  6 10  1  0  0  0  0
  7 13  1  0  0  0  0
  9  3  1  0  0  0  0
  9  1  2  0  0  0  0
 10 21  1  1  0  0  0
 10  9  1  0  0  0  0
 11 14  1  0  0  0  0
 11  4  2  0  0  0  0
 12  8  2  0  0  0  0
 13  5  1  0  0  0  0
 14  7  2  0  0  0  0
 15 18  1  0  0  0  0
 15 20  1  0  0  0  0
 17 16  1  0  0  0  0
 17 18  1  0  0  0  0
 19 16  1  0  0  0  0
 19 20  1  0  0  0  0
 23 22  2  0  0  0  0
 24 29  1  0  0  0  0
 25 27  1  0  0  0  0
 25 24  2  0  0  0  0
 27 31  2  0  0  0  0
 28 23  1  0  0  0  0
 29 26  2  0  0  0  0
 29 21  1  0  0  0  0
 30 28  2  0  0  0  0
 30 27  1  0  0  0  0
 31 22  1  0  0  0  0
 31 26  1  0  0  0  0
M  END
>  <MODEL>
3

>  <REMARK>
 VINA RESULT:      -9.3      3.434      8.840
  Name = 
  3 active torsions:
  status: ('A' for Active; 'I' for Inactive)
    1  A    between atoms: C_2  and  N_12
    2  A    between atoms: C_20  and  C_26
    3  A    between atoms: C_23  and  C_26
                            x       y       z     vdW  Elec       q    Type
                         _______ _______ _______ _____ _____    ______ ____

>  <TORSDO>
F 3

$$$$
=
 OpenBabel11072412123D

 31 36  0  0  1  0  0  0  0  0999 V2000
  161.9420  208.3790  149.9000 C   0  0  0  0  0  3  0  0  0  0  0  0
  161.7680  206.8450  147.5580 C   0  0  0  0  0  0  0  0  0  0  0  0
  161.3790  206.2850  148.8010 C   0  0  0  0  0  0  0  0  0  0  0  0
  161.0670  204.2720  152.5610 C   0  0  0  0  0  3  0  0  0  0  0  0
  160.7020  204.9430  148.8450 C   0  0  0  0  0  2  0  0  0  0  0  0
  161.0280  204.9780  151.3480 C   0  0  0  0  0  0  0  0  0  0  0  0
  160.7990  202.8550  150.1960 C   0  0  0  0  0  3  0  0  0  0  0  0
  162.2260  208.1680  147.5160 C   0  0  0  0  0  3  0  0  0  0  0  0
  161.4950  207.0530  149.9850 C   0  0  0  0  0  0  0  0  0  0  0  0
  161.0590  206.4920  151.3280 C   0  0  2  0  0  3  0  0  0  0  0  0
  160.9990  202.9140  152.5730 N   0  0  0  0  0  0  0  0  0  0  0  0
  162.3090  208.9330  148.6760 C   0  0  0  0  0  3  0  0  0  0  0  0
  160.8790  204.2480  150.1560 C   0  0  0  0  0  0  0  0  0  0  0  0
  160.8710  202.1980  151.4240 C   0  0  0  0  0  3  0  0  0  0  0  0
  162.2730  203.9730  145.2680 C   0  0  0  0  0  2  0  0  0  0  0  0
  160.5460  206.2080  145.4350 C   0  0  0  0  0  2  0  0  0  0  0  0
  161.7000  206.0980  146.3290 N   0  0  0  0  0  0  0  0  0  0  0  0
  162.8160  205.2320  145.9420 C   0  0  0  0  0  2  0  0  0  0  0  0
  160.2480  204.8430  144.8160 C   0  0  0  0  0  2  0  0  0  0  0  0
  161.4110  204.3280  144.2160 O   0  0  0  0  0  0  0  0  0  0  0  0
  161.9230  207.0410  152.4670 C   0  0  0  0  0  2  0  0  0  0  0  0
  160.3620  209.1900  156.6170 C   0  0  0  0  0  3  0  0  0  0  0  0
  159.7060  210.2450  157.2560 C   0  0  0  0  0  3  0  0  0  0  0  0
  160.6520  209.1970  152.4360 C   0  0  0  0  0  3  0  0  0  0  0  0
  159.9980  210.2450  153.0920 C   0  0  0  0  0  3  0  0  0  0  0  0
  161.1160  208.1350  154.5670 C   0  0  0  0  0  3  0  0  0  0  0  0
  159.9010  210.2410  154.4850 C   0  0  0  0  0  0  0  0  0  0  0  0
  159.1590  211.2780  156.4880 C   0  0  0  0  0  3  0  0  0  0  0  0
  161.2070  208.1410  153.1700 C   0  0  0  0  0  0  0  0  0  0  0  0
  159.2660  211.2560  155.1310 N   0  0  0  0  0  0  0  0  0  0  0  0
  160.4640  209.1800  155.2270 C   0  0  0  0  0  0  0  0  0  0  0  0
  1  9  1  0  0  0  0
  2  3  1  0  0  0  0
  3  5  1  0  0  0  0
  3  9  2  0  0  0  0
  4 11  1  0  0  0  0
  5 13  1  0  0  0  0
  6  4  2  0  0  0  0
  7 14  1  0  0  0  0
  8  2  2  0  0  0  0
  8 12  1  0  0  0  0
  9 10  1  0  0  0  0
 10  6  1  0  0  0  0
 10 21  1  1  0  0  0
 12  1  2  0  0  0  0
 13  7  2  0  0  0  0
 13  6  1  0  0  0  0
 14 11  2  0  0  0  0
 15 18  1  0  0  0  0
 16 17  1  0  0  0  0
 17  2  1  0  0  0  0
 18 17  1  0  0  0  0
 19 16  1  0  0  0  0
 20 19  1  0  0  0  0
 20 15  1  0  0  0  0
 21 29  1  0  0  0  0
 22 23  1  0  0  0  0
 24 25  2  0  0  0  0
 24 29  1  0  0  0  0
 25 27  1  0  0  0  0
 26 31  1  0  0  0  0
 27 30  2  0  0  0  0
 27 31  1  0  0  0  0
 28 23  2  0  0  0  0
 29 26  2  0  0  0  0
 30 28  1  0  0  0  0
 31 22  2  0  0  0  0
M  END
>  <MODEL>
4

>  <REMARK>
 VINA RESULT:      -9.1      0.811      1.375
  Name = 
  3 active torsions:
  status: ('A' for Active; 'I' for Inactive)
    1  A    between atoms: C_2  and  N_12
    2  A    between atoms: C_20  and  C_26
    3  A    between atoms: C_23  and  C_26
                            x       y       z     vdW  Elec       q    Type
                         _______ _______ _______ _____ _____    ______ ____

>  <TORSDO>
F 3

$$$$
=
 OpenBabel11072412123D

 31 36  0  0  1  0  0  0  0  0999 V2000
  161.6740  205.2670  151.1920 C   0  0  0  0  0  3  0  0  0  0  0  0
  161.0140  206.7900  153.4540 C   0  0  0  0  0  0  0  0  0  0  0  0
  161.0960  207.4110  152.1820 C   0  0  0  0  0  0  0  0  0  0  0  0
  162.2040  209.4810  148.6070 C   0  0  0  0  0  3  0  0  0  0  0  0
  160.6530  208.8370  152.0090 C   0  0  0  0  0  2  0  0  0  0  0  0
  161.7080  208.7770  149.7160 C   0  0  0  0  0  0  0  0  0  0  0  0
  161.4340  210.9010  150.8570 C   0  0  0  0  0  3  0  0  0  0  0  0
  161.2540  205.4140  153.5610 C   0  0  0  0  0  3  0  0  0  0  0  0
  161.4580  206.6450  151.0470 C   0  0  0  0  0  0  0  0  0  0  0  0
  161.5250  207.2750  149.6660 C   0  0  2  0  0  3  0  0  0  0  0  0
  162.3280  210.8350  148.6470 N   0  0  0  0  0  0  0  0  0  0  0  0
  161.5780  204.6550  152.4390 C   0  0  0  0  0  3  0  0  0  0  0  0
  161.3080  209.5110  150.8470 C   0  0  0  0  0  0  0  0  0  0  0  0
  161.9600  211.5510  149.7410 C   0  0  0  0  0  3  0  0  0  0  0  0
  160.2020  207.3240  157.0320 C   0  0  0  0  0  2  0  0  0  0  0  0
  161.2360  208.8600  154.8920 C   0  0  0  0  0  2  0  0  0  0  0  0
  160.6830  207.5280  154.6440 N   0  0  0  0  0  0  0  0  0  0  0  0
  159.7520  206.9550  155.6180 C   0  0  0  0  0  2  0  0  0  0  0  0
  161.5260  209.0230  156.3840 C   0  0  0  0  0  2  0  0  0  0  0  0
  160.3740  208.7150  157.1300 O   0  0  0  0  0  0  0  0  0  0  0  0
  162.6080  206.6160  148.8070 C   0  0  0  0  0  2  0  0  0  0  0  0
  161.2060  202.2440  147.0190 C   0  0  0  0  0  3  0  0  0  0  0  0
  160.5940  201.4930  146.0120 C   0  0  0  0  0  3  0  0  0  0  0  0
  161.4490  206.4070  146.5980 C   0  0  0  0  0  3  0  0  0  0  0  0
  160.8400  205.6400  145.6000 C   0  0  0  0  0  3  0  0  0  0  0  0
  161.9020  204.4010  147.8850 C   0  0  0  0  0  3  0  0  0  0  0  0
  160.7610  204.2520  145.7400 C   0  0  0  0  0  0  0  0  0  0  0  0
  160.0780  202.1440  144.8880 C   0  0  0  0  0  3  0  0  0  0  0  0
  161.9830  205.7900  147.7370 C   0  0  0  0  0  0  0  0  0  0  0  0
  160.1700  203.4980  144.7750 N   0  0  0  0  0  0  0  0  0  0  0  0
  161.2940  203.6300  146.8900 C   0  0  0  0  0  0  0  0  0  0  0  0
  1 12  1  0  0  0  0
  2  8  1  0  0  0  0
  2 17  1  0  0  0  0
  3  2  2  0  0  0  0
  4 11  2  0  0  0  0
  4  6  1  0  0  0  0
  5  3  1  0  0  0  0
  6 13  2  0  0  0  0
  9  1  2  0  0  0  0
  9  3  1  0  0  0  0
 10 21  1  6  0  0  0
 10  6  1  0  0  0  0
 10  9  1  0  0  0  0
 11 14  1  0  0  0  0
 12  8  2  0  0  0  0
 13  7  1  0  0  0  0
 13  5  1  0  0  0  0
 14  7  2  0  0  0  0
 15 20  1  0  0  0  0
 16 19  1  0  0  0  0
 17 16  1  0  0  0  0
 17 18  1  0  0  0  0
 18 15  1  0  0  0  0
 19 20  1  0  0  0  0
 23 22  2  0  0  0  0
 24 29  1  0  0  0  0
 25 27  1  0  0  0  0
 25 24  2  0  0  0  0
 27 31  2  0  0  0  0
 28 23  1  0  0  0  0
 29 26  2  0  0  0  0
 29 21  1  0  0  0  0
 30 28  2  0  0  0  0
 30 27  1  0  0  0  0
 31 22  1  0  0  0  0
 31 26  1  0  0  0  0
M  END
>  <MODEL>
5

>  <REMARK>
 VINA RESULT:      -8.7      3.229      8.834
  Name = 
  3 active torsions:
  status: ('A' for Active; 'I' for Inactive)
    1  A    between atoms: C_2  and  N_12
    2  A    between atoms: C_20  and  C_26
    3  A    between atoms: C_23  and  C_26
                            x       y       z     vdW  Elec       q    Type
                         _______ _______ _______ _____ _____    ______ ____

>  <TORSDO>
F 3

$$$$
=
 OpenBabel11072412123D

 31 36  0  0  1  0  0  0  0  0999 V2000
  161.8070  208.9880  149.8910 C   0  0  0  0  0  3  0  0  0  0  0  0
  161.6450  207.0830  147.8380 C   0  0  0  0  0  0  0  0  0  0  0  0
  161.2760  206.7310  149.1610 C   0  0  0  0  0  0  0  0  0  0  0  0
  161.0320  205.3650  153.2070 C   0  0  0  0  0  3  0  0  0  0  0  0
  160.6260  205.4030  149.4350 C   0  0  0  0  0  2  0  0  0  0  0  0
  160.9700  205.8590  151.8940 C   0  0  0  0  0  0  0  0  0  0  0  0
  160.7740  203.5700  151.1130 C   0  0  0  0  0  3  0  0  0  0  0  0
  162.0760  208.3890  147.5720 C   0  0  0  0  0  3  0  0  0  0  0  0
  161.3860  207.6860  150.2000 C   0  0  0  0  0  0  0  0  0  0  0  0
  160.9710  207.3490  151.6220 C   0  0  2  0  0  3  0  0  0  0  0  0
  160.9900  204.0270  153.4440 N   0  0  0  0  0  0  0  0  0  0  0  0
  162.1540  209.3380  148.5890 C   0  0  0  0  0  3  0  0  0  0  0  0
  160.8260  204.9390  150.8410 C   0  0  0  0  0  0  0  0  0  0  0  0
  160.8680  203.1290  152.4320 C   0  0  0  0  0  3  0  0  0  0  0  0
  161.0100  205.8770  144.3900 C   0  0  0  0  0  2  0  0  0  0  0  0
  162.5810  205.0810  146.6060 C   0  0  0  0  0  2  0  0  0  0  0  0
  161.5820  206.1420  146.7520 N   0  0  0  0  0  0  0  0  0  0  0  0
  160.4860  206.2200  145.7840 C   0  0  0  0  0  2  0  0  0  0  0  0
  162.8790  204.8610  145.1230 C   0  0  0  0  0  2  0  0  0  0  0  0
  161.6800  204.6410  144.4230 O   0  0  0  0  0  0  0  0  0  0  0  0
  161.8330  208.0950  152.6450 C   0  0  0  0  0  2  0  0  0  0  0  0
  158.6270  211.8230  152.9710 C   0  0  0  0  0  3  0  0  0  0  0  0
  157.8220  212.6570  153.7520 C   0  0  0  0  0  3  0  0  0  0  0  0
  160.9410  208.8760  154.8500 C   0  0  0  0  0  3  0  0  0  0  0  0
  160.1310  209.7210  155.6150 C   0  0  0  0  0  3  0  0  0  0  0  0
  160.2130  209.9930  152.8230 C   0  0  0  0  0  3  0  0  0  0  0  0
  159.3610  210.7030  154.9890 C   0  0  0  0  0  0  0  0  0  0  0  0
  157.8080  212.4930  155.1400 C   0  0  0  0  0  3  0  0  0  0  0  0
  160.9870  209.0140  153.4560 C   0  0  0  0  0  0  0  0  0  0  0  0
  158.5700  211.5290  155.7260 N   0  0  0  0  0  0  0  0  0  0  0  0
  159.4020  210.8390  153.5840 C   0  0  0  0  0  0  0  0  0  0  0  0
  1  9  1  0  0  0  0
  2  3  1  0  0  0  0
  3  5  1  0  0  0  0
  3  9  2  0  0  0  0
  4 11  1  0  0  0  0
  5 13  1  0  0  0  0
  6  4  2  0  0  0  0
  7 14  1  0  0  0  0
  8  2  2  0  0  0  0
  8 12  1  0  0  0  0
  9 10  1  0  0  0  0
 10  6  1  0  0  0  0
 10 21  1  1  0  0  0
 12  1  2  0  0  0  0
 13  7  2  0  0  0  0
 13  6  1  0  0  0  0
 14 11  2  0  0  0  0
 15 20  1  0  0  0  0
 15 18  1  0  0  0  0
 16 17  1  0  0  0  0
 17  2  1  0  0  0  0
 18 17  1  0  0  0  0
 19 16  1  0  0  0  0
 20 19  1  0  0  0  0
 21 29  1  0  0  0  0
 22 31  2  0  0  0  0
 22 23  1  0  0  0  0
 23 28  2  0  0  0  0
 24 25  2  0  0  0  0
 26 29  2  0  0  0  0
 26 31  1  0  0  0  0
 27 25  1  0  0  0  0
 27 30  2  0  0  0  0
 28 30  1  0  0  0  0
 29 24  1  0  0  0  0
 31 27  1  0  0  0  0
M  END
>  <MODEL>
6

>  <REMARK>
 VINA RESULT:      -8.5      1.174      1.765
  Name = 
  3 active torsions:
  status: ('A' for Active; 'I' for Inactive)
    1  A    between atoms: C_2  and  N_12
    2  A    between atoms: C_20  and  C_26
    3  A    between atoms: C_23  and  C_26
                            x       y       z     vdW  Elec       q    Type
                         _______ _______ _______ _____ _____    ______ ____

>  <TORSDO>
F 3

$$$$
=
 OpenBabel11072412123D

 31 36  0  0  1  0  0  0  0  0999 V2000
  161.1920  207.1230  153.4630 C   0  0  0  0  0  3  0  0  0  0  0  0
  160.1830  209.3940  154.7660 C   0  0  0  0  0  0  0  0  0  0  0  0
  160.4460  209.4350  153.3740 C   0  0  0  0  0  0  0  0  0  0  0  0
  162.0480  209.9110  149.4370 C   0  0  0  0  0  3  0  0  0  0  0  0
  160.0150  210.6240  152.5590 C   0  0  0  0  0  2  0  0  0  0  0  0
  161.4010  209.6970  150.6640 C   0  0  0  0  0  0  0  0  0  0  0  0
  160.9330  212.0760  150.7580 C   0  0  0  0  0  3  0  0  0  0  0  0
  160.4220  208.2080  155.4730 C   0  0  0  0  0  3  0  0  0  0  0  0
  160.9820  208.2970  152.7250 C   0  0  0  0  0  0  0  0  0  0  0  0
  161.2460  208.3000  151.2280 C   0  0  2  0  0  3  0  0  0  0  0  0
  162.1470  211.1640  148.9180 N   0  0  0  0  0  0  0  0  0  0  0  0
  160.9180  207.0780  154.8270 C   0  0  0  0  0  3  0  0  0  0  0  0
  160.8280  210.8010  151.3180 C   0  0  0  0  0  0  0  0  0  0  0  0
  161.6120  212.2410  149.5510 C   0  0  0  0  0  3  0  0  0  0  0  0
  160.0040  212.9120  155.9210 C   0  0  0  0  0  2  0  0  0  0  0  0
  158.2300  210.7210  155.6750 C   0  0  0  0  0  2  0  0  0  0  0  0
  159.6690  210.5320  155.4810 N   0  0  0  0  0  0  0  0  0  0  0  0
  160.5960  211.5100  156.0540 C   0  0  0  0  0  2  0  0  0  0  0  0
  157.8940  212.2090  155.5820 C   0  0  0  0  0  2  0  0  0  0  0  0
  158.7090  212.9380  156.4660 O   0  0  0  0  0  0  0  0  0  0  0  0
  162.4540  207.4260  150.8750 C   0  0  0  0  0  2  0  0  0  0  0  0
  162.2950  205.7490  146.2450 C   0  0  0  0  0  3  0  0  0  0  0  0
  161.9390  204.7480  145.3360 C   0  0  0  0  0  3  0  0  0  0  0  0
  161.4280  205.2130  150.3110 C   0  0  0  0  0  3  0  0  0  0  0  0
  161.0790  204.2240  149.3870 C   0  0  0  0  0  3  0  0  0  0  0  0
  162.3580  206.5700  148.5270 C   0  0  0  0  0  3  0  0  0  0  0  0
  161.3670  204.4030  148.0310 C   0  0  0  0  0  0  0  0  0  0  0  0
  161.3020  203.5940  145.8000 C   0  0  0  0  0  3  0  0  0  0  0  0
  162.0630  206.3870  149.8830 C   0  0  0  0  0  0  0  0  0  0  0  0
  161.0310  203.4450  147.1260 N   0  0  0  0  0  0  0  0  0  0  0  0
  162.0110  205.5830  147.6000 C   0  0  0  0  0  0  0  0  0  0  0  0
  1 12  1  0  0  0  0
  2  8  1  0  0  0  0
  2 17  1  0  0  0  0
  3  2  2  0  0  0  0
  4  6  1  0  0  0  0
  5  3  1  0  0  0  0
  6 10  1  0  0  0  0
  6 13  2  0  0  0  0
  7 13  1  0  0  0  0
  9  3  1  0  0  0  0
  9  1  2  0  0  0  0
 10 21  1  1  0  0  0
 10  9  1  0  0  0  0
 11  4  2  0  0  0  0
 11 14  1  0  0  0  0
 12  8  2  0  0  0  0
 13  5  1  0  0  0  0
 14  7  2  0  0  0  0
 15 18  1  0  0  0  0
 15 20  1  0  0  0  0
 17 16  1  0  0  0  0
 17 18  1  0  0  0  0
 19 16  1  0  0  0  0
 19 20  1  0  0  0  0
 22 31  1  0  0  0  0
 23 28  1  0  0  0  0
 23 22  2  0  0  0  0
 25 24  2  0  0  0  0
 26 29  2  0  0  0  0
 27 25  1  0  0  0  0
 28 30  2  0  0  0  0
 29 24  1  0  0  0  0
 29 21  1  0  0  0  0
 30 27  1  0  0  0  0
 31 27  2  0  0  0  0
 31 26  1  0  0  0  0
M  END
>  <MODEL>
7

>  <REMARK>
 VINA RESULT:      -8.3      3.240      8.835
  Name = 
  3 active torsions:
  status: ('A' for Active; 'I' for Inactive)
    1  A    between atoms: C_2  and  N_12
    2  A    between atoms: C_20  and  C_26
    3  A    between atoms: C_23  and  C_26
                            x       y       z     vdW  Elec       q    Type
                         _______ _______ _______ _____ _____    ______ ____

>  <TORSDO>
F 3

$$$$
=
 OpenBabel11072412123D

 31 36  0  0  1  0  0  0  0  0999 V2000
  162.0240  207.3420  148.1890 C   0  0  0  0  0  3  0  0  0  0  0  0
  161.3210  204.6810  148.7330 C   0  0  0  0  0  0  0  0  0  0  0  0
  161.1670  205.6730  149.7340 C   0  0  0  0  0  0  0  0  0  0  0  0
  161.5330  208.3780  153.0260 C   0  0  0  0  0  3  0  0  0  0  0  0
  160.4580  205.3440  151.0190 C   0  0  0  0  0  2  0  0  0  0  0  0
  161.2810  207.5540  151.9170 C   0  0  0  0  0  0  0  0  0  0  0  0
  160.7390  205.7590  153.4570 C   0  0  0  0  0  3  0  0  0  0  0  0
  161.8140  205.0490  147.4740 C   0  0  0  0  0  3  0  0  0  0  0  0
  161.5490  207.0090  149.4660 C   0  0  0  0  0  0  0  0  0  0  0  0
  161.3690  208.1000  150.5080 C   0  0  2  0  0  3  0  0  0  0  0  0
  161.4130  207.8910  154.2900 N   0  0  0  0  0  0  0  0  0  0  0  0
  162.1600  206.3700  147.2010 C   0  0  0  0  0  3  0  0  0  0  0  0
  160.8660  206.2310  152.1500 C   0  0  0  0  0  0  0  0  0  0  0  0
  161.0290  206.6080  154.5250 C   0  0  0  0  0  3  0  0  0  0  0  0
  161.3750  201.0100  148.2160 C   0  0  0  0  0  2  0  0  0  0  0  0
  160.7310  202.7960  150.3150 C   0  0  0  0  0  2  0  0  0  0  0  0
  160.9770  203.3030  148.9640 N   0  0  0  0  0  0  0  0  0  0  0  0
  160.8400  202.3880  147.8280 C   0  0  0  0  0  2  0  0  0  0  0  0
  161.2780  201.3740  150.4340 C   0  0  0  0  0  2  0  0  0  0  0  0
  160.7580  200.5740  149.4010 O   0  0  0  0  0  0  0  0  0  0  0  0
  162.4650  209.1630  150.3950 C   0  0  0  0  0  2  0  0  0  0  0  0
  161.5200  212.4600  146.8570 C   0  0  0  0  0  3  0  0  0  0  0  0
  160.9420  213.6680  146.4570 C   0  0  0  0  0  3  0  0  0  0  0  0
  161.1970  211.2700  150.8630 C   0  0  0  0  0  3  0  0  0  0  0  0
  160.6260  212.4760  150.4450 C   0  0  0  0  0  3  0  0  0  0  0  0
  161.9890  210.8490  148.6090 C   0  0  0  0  0  3  0  0  0  0  0  0
  160.7350  212.8730  149.1100 C   0  0  0  0  0  0  0  0  0  0  0  0
  160.2720  214.4530  147.4000 C   0  0  0  0  0  3  0  0  0  0  0  0
  161.8810  210.4580  149.9490 C   0  0  0  0  0  0  0  0  0  0  0  0
  160.1830  214.0450  148.6960 N   0  0  0  0  0  0  0  0  0  0  0  0
  161.4200  212.0530  148.1870 C   0  0  0  0  0  0  0  0  0  0  0  0
  1  9  1  0  0  0  0
  2 17  1  0  0  0  0
  2  3  1  0  0  0  0
  3  5  1  0  0  0  0
  4 11  1  0  0  0  0
  5 13  1  0  0  0  0
  6 13  1  0  0  0  0
  6  4  2  0  0  0  0
  7 14  1  0  0  0  0
  8  2  2  0  0  0  0
  9  3  2  0  0  0  0
  9 10  1  0  0  0  0
 10 21  1  1  0  0  0
 10  6  1  0  0  0  0
 11 14  2  0  0  0  0
 12  8  1  0  0  0  0
 12  1  2  0  0  0  0
 13  7  2  0  0  0  0
 15 20  1  0  0  0  0
 16 19  1  0  0  0  0
 17 16  1  0  0  0  0
 18 15  1  0  0  0  0
 18 17  1  0  0  0  0
 20 19  1  0  0  0  0
 22 31  1  0  0  0  0
 23 22  2  0  0  0  0
 23 28  1  0  0  0  0
 25 24  1  0  0  0  0
 26 29  1  0  0  0  0
 27 25  2  0  0  0  0
 28 30  2  0  0  0  0
 29 21  1  0  0  0  0
 29 24  2  0  0  0  0
 30 27  1  0  0  0  0
 31 26  2  0  0  0  0
 31 27  1  0  0  0  0
M  END
>  <MODEL>
8

>  <REMARK>
 VINA RESULT:      -8.0      3.204      5.358
  Name = 
  3 active torsions:
  status: ('A' for Active; 'I' for Inactive)
    1  A    between atoms: C_2  and  N_12
    2  A    between atoms: C_20  and  C_26
    3  A    between atoms: C_23  and  C_26
                            x       y       z     vdW  Elec       q    Type
                         _______ _______ _______ _____ _____    ______ ____

>  <TORSDO>
F 3

$$$$
=
 OpenBabel11072412123D

 31 36  0  0  1  0  0  0  0  0999 V2000
  162.0970  206.8690  147.3450 C   0  0  0  0  0  3  0  0  0  0  0  0
  161.4000  204.1520  147.4070 C   0  0  0  0  0  0  0  0  0  0  0  0
  161.2580  204.9460  148.5730 C   0  0  0  0  0  0  0  0  0  0  0  0
  161.6630  207.0110  152.2960 C   0  0  0  0  0  3  0  0  0  0  0  0
  160.5640  204.3880  149.7850 C   0  0  0  0  0  2  0  0  0  0  0  0
  161.3980  206.4020  151.0590 C   0  0  0  0  0  0  0  0  0  0  0  0
  160.8740  204.3560  152.2550 C   0  0  0  0  0  3  0  0  0  0  0  0
  161.8800  204.7430  146.2300 C   0  0  0  0  0  3  0  0  0  0  0  0
  161.6380  206.3100  148.5460 C   0  0  0  0  0  0  0  0  0  0  0  0
  161.4690  207.1940  149.7700 C   0  0  2  0  0  3  0  0  0  0  0  0
  161.5570  206.3030  153.4520 N   0  0  0  0  0  0  0  0  0  0  0  0
  162.2220  206.0920  146.1960 C   0  0  0  0  0  3  0  0  0  0  0  0
  160.9850  205.0570  151.0530 C   0  0  0  0  0  0  0  0  0  0  0  0
  161.1760  204.9990  153.4550 C   0  0  0  0  0  3  0  0  0  0  0  0
  161.1880  200.7010  146.0680 C   0  0  0  0  0  2  0  0  0  0  0  0
  161.0970  201.9460  148.6080 C   0  0  0  0  0  2  0  0  0  0  0  0
  161.0600  202.7540  147.3880 N   0  0  0  0  0  0  0  0  0  0  0  0
  160.6380  202.1260  146.1340 C   0  0  0  0  0  2  0  0  0  0  0  0
  161.5980  200.5410  148.2740 C   0  0  0  0  0  2  0  0  0  0  0  0
  160.8300  199.9960  147.2300 O   0  0  0  0  0  0  0  0  0  0  0  0
  162.5640  208.2620  149.8400 C   0  0  0  0  0  2  0  0  0  0  0  0
  160.2120  211.9590  152.0930 C   0  0  0  0  0  3  0  0  0  0  0  0
  159.6710  213.2470  152.0520 C   0  0  0  0  0  3  0  0  0  0  0  0
  162.0120  210.3920  148.6470 C   0  0  0  0  0  3  0  0  0  0  0  0
  161.4640  211.6790  148.6250 C   0  0  0  0  0  3  0  0  0  0  0  0
  161.3610  210.1410  150.9710 C   0  0  0  0  0  3  0  0  0  0  0  0
  160.8630  212.2000  149.7730 C   0  0  0  0  0  0  0  0  0  0  0  0
  159.7390  213.9830  150.8660 C   0  0  0  0  0  3  0  0  0  0  0  0
  161.9580  209.6220  149.8160 C   0  0  0  0  0  0  0  0  0  0  0  0
  160.3280  213.4500  149.7600 N   0  0  0  0  0  0  0  0  0  0  0  0
  160.8130  211.4260  150.9530 C   0  0  0  0  0  0  0  0  0  0  0  0
  1  9  1  0  0  0  0
  2  3  1  0  0  0  0
  3  5  1  0  0  0  0
  4 11  1  0  0  0  0
  5 13  1  0  0  0  0
  6  4  2  0  0  0  0
  7 14  1  0  0  0  0
  8  2  2  0  0  0  0
  9  3  2  0  0  0  0
  9 10  1  0  0  0  0
 10 21  1  1  0  0  0
 10  6  1  0  0  0  0
 11 14  2  0  0  0  0
 12  8  1  0  0  0  0
 12  1  2  0  0  0  0
 13  6  1  0  0  0  0
 13  7  2  0  0  0  0
 15 18  1  0  0  0  0
 15 20  1  0  0  0  0
 17  2  1  0  0  0  0
 17 16  1  0  0  0  0
 18 17  1  0  0  0  0
 19 16  1  0  0  0  0
 20 19  1  0  0  0  0
 23 22  1  0  0  0  0
 24 29  1  0  0  0  0
 25 24  2  0  0  0  0
 25 27  1  0  0  0  0
 27 31  1  0  0  0  0
 28 23  2  0  0  0  0
 29 21  1  0  0  0  0
 29 26  2  0  0  0  0
 30 27  2  0  0  0  0
 30 28  1  0  0  0  0
 31 26  1  0  0  0  0
 31 22  2  0  0  0  0
M  END
>  <MODEL>
9

>  <REMARK>
 VINA RESULT:      -7.6      2.774      4.304
  Name = 
  3 active torsions:
  status: ('A' for Active; 'I' for Inactive)
    1  A    between atoms: C_2  and  N_12
    2  A    between atoms: C_20  and  C_26
    3  A    between atoms: C_23  and  C_26
                            x       y       z     vdW  Elec       q    Type
                         _______ _______ _______ _____ _____    ______ ____

>  <TORSDO>
F 3

$$$$
