=
 OpenBabel11072411373D

 25 28  0  0  1  0  0  0  0  0999 V2000
  161.1580  204.9530  151.4820 C   0  0  0  0  0  0  0  0  0  0  0  0
  162.0710  208.5060  151.1580 C   0  0  0  0  0  0  0  0  0  0  0  0
  160.8450  206.0050  148.8960 C   0  0  0  0  0  0  0  0  0  0  0  0
  161.3100  204.1170  152.6980 C   0  0  0  0  0  2  0  0  0  0  0  0
  161.7950  208.6930  148.5840 C   0  0  0  0  0  0  0  0  0  0  0  0
  160.6230  202.8300  150.9080 N   0  0  0  0  0  0  0  0  0  0  0  0
  161.1890  206.8030  149.9910 C   0  0  0  0  0  0  0  0  0  0  0  0
  161.4740  207.9110  147.4620 O   0  0  0  0  0  0  0  0  0  0  0  0
  161.5570  208.1470  149.8770 N   0  0  0  0  0  0  0  0  0  0  0  0
  160.7060  206.6870  147.5390 C   0  0  1  0  0  3  0  0  0  0  0  0
  161.3830  206.3090  151.2630 C   0  0  0  0  0  0  0  0  0  0  0  0
  160.9360  202.7460  152.2830 N   0  0  0  0  0  0  0  0  0  0  0  0
  161.9480  207.3770  152.1590 C   0  0  2  0  0  3  0  0  0  0  0  0
  160.7600  204.1540  150.4550 C   0  0  0  0  0  0  0  0  0  0  0  0
  162.3230  209.8260  148.4440 O   0  0  0  0  0  0  0  0  0  0  0  0
  160.5940  204.6310  149.1410 C   0  0  0  0  0  3  0  0  0  0  0  0
  162.5980  209.6230  151.4040 O   0  0  0  0  0  0  0  0  0  0  0  0
  160.1420  208.5970  153.1030 O   0  0  0  0  0  0  0  0  0  0  0  0
  161.0580  206.9930  154.5520 C   0  0  0  0  0  1  0  0  0  0  0  0
  160.9850  207.7250  153.2580 C   0  0  0  0  0  0  0  0  0  0  0  0
  160.3300  206.2320  145.1060 C   0  0  0  0  0  1  0  0  0  0  0  0
  161.0460  205.7590  146.3620 C   0  0  1  0  0  3  0  0  0  0  0  0
  162.5470  205.7360  146.0890 C   0  0  0  0  0  2  0  0  0  0  0  0
  161.9570  203.4420  145.7510 O   0  0  0  0  0  1  0  0  0  0  0  0
  162.9980  204.3620  145.6180 C   0  0  0  0  0  2  0  0  0  0  0  0
  1  4  1  0  0  0  0
  2 17  2  0  0  0  0
  2 13  1  0  0  0  0
  3 16  2  0  0  0  0
  3  7  1  0  0  0  0
  5  9  1  0  0  0  0
  6 12  2  0  0  0  0
  7 11  2  0  0  0  0
  8 10  1  0  0  0  0
  8  5  1  0  0  0  0
  9  7  1  0  0  0  0
  9  2  1  0  0  0  0
 10 22  1  6  0  0  0
 10  3  1  0  0  0  0
 11  1  1  0  0  0  0
 11 13  1  0  0  0  0
 12  4  1  0  0  0  0
 13 20  1  1  0  0  0
 14  6  1  0  0  0  0
 14  1  2  0  0  0  0
 15  5  2  0  0  0  0
 16 14  1  0  0  0  0
 18 20  2  0  0  0  0
 20 19  1  0  0  0  0
 22 21  1  6  0  0  0
 23 22  1  0  0  0  0
 25 24  1  0  0  0  0
 25 23  1  0  0  0  0
M  END
>  <MODEL>
1

>  <REMARK>
 VINA RESULT:      -8.4      0.000      0.000
  Name = 
  4 active torsions:
  status: ('A' for Active; 'I' for Inactive)
    1  A    between atoms: C_2  and  C_20
    2  A    between atoms: C_2  and  C_24
    3  A    between atoms: C_15  and  C_24
    4  A    between atoms: C_18  and  C_21
                            x       y       z     vdW  Elec       q    Type
                         _______ _______ _______ _____ _____    ______ ____

>  <TORSDO>
F 4

$$$$
=
 OpenBabel11072411373D

 25 28  0  0  1  0  0  0  0  0999 V2000
  160.8350  203.2210  149.1250 C   0  0  0  0  0  0  0  0  0  0  0  0
  161.2370  206.2770  147.1100 C   0  0  0  0  0  0  0  0  0  0  0  0
  161.4310  205.5280  150.6130 C   0  0  0  0  0  0  0  0  0  0  0  0
  160.4290  201.8860  148.6200 C   0  0  0  0  0  3  0  0  0  0  0  0
  161.4910  207.9500  149.0780 C   0  0  0  0  0  0  0  0  0  0  0  0
  160.5640  201.8780  150.9260 N   0  0  0  0  0  0  0  0  0  0  0  0
  161.4240  205.5220  149.2150 C   0  0  0  0  0  0  0  0  0  0  0  0
  161.4820  207.9920  150.4820 O   0  0  0  0  0  0  0  0  0  0  0  0
  161.5540  206.6790  148.4410 N   0  0  0  0  0  0  0  0  0  0  0  0
  161.7670  206.8410  151.3130 C   0  0  1  0  0  3  0  0  0  0  0  0
  161.1010  204.4150  148.4600 C   0  0  0  0  0  0  0  0  0  0  0  0
  160.2800  201.0390  149.8250 N   0  0  0  0  0  0  0  0  0  0  0  0
  160.9770  204.7890  147.0080 C   0  0  2  0  0  3  0  0  0  0  0  0
  160.8940  203.1700  150.4830 C   0  0  0  0  0  0  0  0  0  0  0  0
  161.3970  209.0090  148.4060 O   0  0  0  0  0  0  0  0  0  0  0  0
  161.1840  204.2990  151.2750 C   0  0  0  0  0  2  0  0  0  0  0  0
  161.1480  207.0830  146.1460 O   0  0  0  0  0  0  0  0  0  0  0  0
  161.7590  203.1310  145.4990 O   0  0  0  0  0  0  0  0  0  0  0  0
  163.4230  204.6320  146.1960 C   0  0  0  0  0  1  0  0  0  0  0  0
  162.0300  204.1070  146.1830 C   0  0  0  0  0  0  0  0  0  0  0  0
  161.9340  206.3100  153.7540 C   0  0  0  0  0  1  0  0  0  0  0  0
  161.0870  206.9820  152.6840 C   0  0  1  0  0  3  0  0  0  0  0  0
  160.8980  208.4480  153.0620 C   0  0  0  0  0  2  0  0  0  0  0  0
  161.6600  209.7440  154.9230 O   0  0  0  0  0  1  0  0  0  0  0  0
  160.8970  208.6310  154.5710 C   0  0  0  0  0  2  0  0  0  0  0  0
  1 14  1  0  0  0  0
  2  9  1  0  0  0  0
  3 16  1  0  0  0  0
  3 10  1  0  0  0  0
  4  1  1  0  0  0  0
  4 12  2  0  0  0  0
  5  8  1  0  0  0  0
  7  3  2  0  0  0  0
  8 10  1  0  0  0  0
  9  5  1  0  0  0  0
  9  7  1  0  0  0  0
 10 22  1  1  0  0  0
 11  1  2  0  0  0  0
 11  7  1  0  0  0  0
 12  6  1  0  0  0  0
 13 20  1  6  0  0  0
 13  2  1  0  0  0  0
 13 11  1  0  0  0  0
 14  6  2  0  0  0  0
 14 16  1  0  0  0  0
 15  5  2  0  0  0  0
 17  2  2  0  0  0  0
 18 20  2  0  0  0  0
 20 19  1  0  0  0  0
 22 23  1  0  0  0  0
 22 21  1  1  0  0  0
 23 25  1  0  0  0  0
 25 24  1  0  0  0  0
M  END
>  <MODEL>
2

>  <REMARK>
 VINA RESULT:      -8.1      1.421      5.755
  Name = 
  4 active torsions:
  status: ('A' for Active; 'I' for Inactive)
    1  A    between atoms: C_2  and  C_20
    2  A    between atoms: C_2  and  C_24
    3  A    between atoms: C_15  and  C_24
    4  A    between atoms: C_18  and  C_21
                            x       y       z     vdW  Elec       q    Type
                         _______ _______ _______ _____ _____    ______ ____

>  <TORSDO>
F 4

$$$$
=
 OpenBabel11072411373D

 25 28  0  0  1  0  0  0  0  0999 V2000
  161.5700  208.2780  150.5670 C   0  0  0  0  0  0  0  0  0  0  0  0
  160.7260  204.7720  151.3150 C   0  0  0  0  0  0  0  0  0  0  0  0
  162.0190  206.4920  148.4450 C   0  0  0  0  0  0  0  0  0  0  0  0
  161.3490  209.4410  151.4610 C   0  0  0  0  0  2  0  0  0  0  0  0
  161.1250  203.8130  148.9360 C   0  0  0  0  0  0  0  0  0  0  0  0
  162.1000  210.1360  149.3900 N   0  0  0  0  0  0  0  0  0  0  0  0
  161.6370  206.0590  149.7170 C   0  0  0  0  0  0  0  0  0  0  0  0
  161.4860  204.2210  147.6420 O   0  0  0  0  0  0  0  0  0  0  0  0
  161.2940  204.7350  150.0070 N   0  0  0  0  0  0  0  0  0  0  0  0
  162.2320  205.4320  147.3700 C   0  0  1  0  0  3  0  0  0  0  0  0
  161.3760  206.9140  150.7670 C   0  0  0  0  0  0  0  0  0  0  0  0
  161.7220  210.6290  150.6590 N   0  0  0  0  0  0  0  0  0  0  0  0
  160.7850  206.1560  151.9240 C   0  0  2  0  0  3  0  0  0  0  0  0
  162.0040  208.7350  149.3610 C   0  0  0  0  0  0  0  0  0  0  0  0
  160.6210  202.6770  149.1310 O   0  0  0  0  0  0  0  0  0  0  0  0
  162.2390  207.8820  148.2650 C   0  0  0  0  0  3  0  0  0  0  0  0
  160.2040  203.7700  151.8710 O   0  0  0  0  0  0  0  0  0  0  0  0
  162.8380  205.7470  153.0460 O   0  0  0  0  0  0  0  0  0  0  0  0
  161.2130  206.7730  154.3940 C   0  0  0  0  0  1  0  0  0  0  0  0
  161.7000  206.1890  153.1150 C   0  0  0  0  0  0  0  0  0  0  0  0
  162.9280  205.3480  144.9660 C   0  0  0  0  0  1  0  0  0  0  0  0
  161.9340  205.9440  145.9520 C   0  0  1  0  0  3  0  0  0  0  0  0
  160.5230  205.5680  145.5100 C   0  0  0  0  0  2  0  0  0  0  0  0
  160.3260  203.3000  144.7750 O   0  0  0  0  0  1  0  0  0  0  0  0
  160.5540  204.6040  144.3350 C   0  0  0  0  0  2  0  0  0  0  0  0
  1 11  1  0  0  0  0
  1  4  1  0  0  0  0
  2 17  2  0  0  0  0
  2 13  1  0  0  0  0
  3  7  1  0  0  0  0
  5 15  2  0  0  0  0
  5  9  1  0  0  0  0
  6 12  2  0  0  0  0
  7  9  1  0  0  0  0
  7 11  2  0  0  0  0
  8  5  1  0  0  0  0
  9  2  1  0  0  0  0
 10 22  1  6  0  0  0
 10  8  1  0  0  0  0
 10  3  1  0  0  0  0
 11 13  1  0  0  0  0
 12  4  1  0  0  0  0
 13 20  1  1  0  0  0
 14  6  1  0  0  0  0
 14  1  2  0  0  0  0
 16  3  2  0  0  0  0
 16 14  1  0  0  0  0
 18 20  2  0  0  0  0
 20 19  1  0  0  0  0
 22 21  1  6  0  0  0
 23 22  1  0  0  0  0
 25 24  1  0  0  0  0
 25 23  1  0  0  0  0
M  END
>  <MODEL>
3

>  <REMARK>
 VINA RESULT:      -7.4      2.205      4.079
  Name = 
  4 active torsions:
  status: ('A' for Active; 'I' for Inactive)
    1  A    between atoms: C_2  and  C_20
    2  A    between atoms: C_2  and  C_24
    3  A    between atoms: C_15  and  C_24
    4  A    between atoms: C_18  and  C_21
                            x       y       z     vdW  Elec       q    Type
                         _______ _______ _______ _____ _____    ______ ____

>  <TORSDO>
F 4

$$$$
=
 OpenBabel11072411373D

 25 28  0  0  1  0  0  0  0  0999 V2000
  161.0340  204.3020  150.4000 C   0  0  0  0  0  0  0  0  0  0  0  0
  161.1910  206.5860  147.5160 C   0  0  0  0  0  0  0  0  0  0  0  0
  161.8760  206.9100  151.0220 C   0  0  0  0  0  0  0  0  0  0  0  0
  160.5380  202.9040  150.3850 C   0  0  0  0  0  3  0  0  0  0  0  0
  161.7540  208.7530  148.8300 C   0  0  0  0  0  0  0  0  0  0  0  0
  161.0040  203.5780  152.5440 N   0  0  0  0  0  0  0  0  0  0  0  0
  161.6670  206.4860  149.7070 C   0  0  0  0  0  0  0  0  0  0  0  0
  161.9480  209.2140  150.1420 O   0  0  0  0  0  0  0  0  0  0  0  0
  161.7030  207.3480  148.6070 N   0  0  0  0  0  0  0  0  0  0  0  0
  162.3300  208.3490  151.2390 C   0  0  1  0  0  3  0  0  0  0  0  0
  161.2210  205.2250  149.3750 C   0  0  0  0  0  0  0  0  0  0  0  0
  160.5500  202.4670  151.7990 N   0  0  0  0  0  0  0  0  0  0  0  0
  160.8960  205.1550  147.9080 C   0  0  2  0  0  3  0  0  0  0  0  0
  161.2880  204.6570  151.6890 C   0  0  0  0  0  0  0  0  0  0  0  0
  161.5810  209.5670  147.8850 O   0  0  0  0  0  0  0  0  0  0  0  0
  161.7070  205.9510  152.0540 C   0  0  0  0  0  2  0  0  0  0  0  0
  160.9770  207.0710  146.3730 O   0  0  0  0  0  0  0  0  0  0  0  0
  161.5320  203.0070  147.1190 O   0  0  0  0  0  0  0  0  0  0  0  0
  163.0610  204.7030  146.5770 C   0  0  0  0  0  1  0  0  0  0  0  0
  161.8070  204.1960  147.1980 C   0  0  0  0  0  0  0  0  0  0  0  0
  162.6470  210.1940  152.9010 C   0  0  0  0  0  1  0  0  0  0  0  0
  161.8580  208.9340  152.5790 C   0  0  1  0  0  3  0  0  0  0  0  0
  160.3740  209.2850  152.5400 C   0  0  0  0  0  2  0  0  0  0  0  0
  158.8060  211.0780  152.7620 O   0  0  0  0  0  1  0  0  0  0  0  0
  160.1370  210.7210  152.9780 C   0  0  0  0  0  2  0  0  0  0  0  0
  1 14  1  0  0  0  0
  2 13  1  0  0  0  0
  2  9  1  0  0  0  0
  3 10  1  0  0  0  0
  3 16  1  0  0  0  0
  4  1  1  0  0  0  0
  4 12  2  0  0  0  0
  5  8  1  0  0  0  0
  7  3  2  0  0  0  0
  8 10  1  0  0  0  0
  9  5  1  0  0  0  0
  9  7  1  0  0  0  0
 10 22  1  1  0  0  0
 11  7  1  0  0  0  0
 11  1  2  0  0  0  0
 12  6  1  0  0  0  0
 13 20  1  6  0  0  0
 13 11  1  0  0  0  0
 14 16  1  0  0  0  0
 14  6  2  0  0  0  0
 15  5  2  0  0  0  0
 17  2  2  0  0  0  0
 18 20  2  0  0  0  0
 19 20  1  0  0  0  0
 22 21  1  6  0  0  0
 23 22  1  0  0  0  0
 23 25  1  0  0  0  0
 24 25  1  0  0  0  0
M  END
>  <MODEL>
4

>  <REMARK>
 VINA RESULT:      -7.3      1.443      5.469
  Name = 
  4 active torsions:
  status: ('A' for Active; 'I' for Inactive)
    1  A    between atoms: C_2  and  C_20
    2  A    between atoms: C_2  and  C_24
    3  A    between atoms: C_15  and  C_24
    4  A    between atoms: C_18  and  C_21
                            x       y       z     vdW  Elec       q    Type
                         _______ _______ _______ _____ _____    ______ ____

>  <TORSDO>
F 4

$$$$
=
 OpenBabel11072411373D

 25 28  0  0  1  0  0  0  0  0999 V2000
  161.6900  204.5160  147.0460 C   0  0  0  0  0  0  0  0  0  0  0  0
  160.9500  201.7870  149.4060 C   0  0  0  0  0  0  0  0  0  0  0  0
  161.1570  205.3590  149.6730 C   0  0  0  0  0  0  0  0  0  0  0  0
  162.0960  204.3620  145.6280 C   0  0  0  0  0  3  0  0  0  0  0  0
  160.8350  203.2270  151.5630 C   0  0  0  0  0  0  0  0  0  0  0  0
  162.2050  206.5780  146.2680 N   0  0  0  0  0  0  0  0  0  0  0  0
  161.0180  204.0270  149.2730 C   0  0  0  0  0  0  0  0  0  0  0  0
  160.9890  204.5530  151.9990 O   0  0  0  0  0  0  0  0  0  0  0  0
  160.7580  202.9810  150.1630 N   0  0  0  0  0  0  0  0  0  0  0  0
  160.8420  205.6990  151.1260 C   0  0  1  0  0  3  0  0  0  0  0  0
  161.3050  203.5800  148.0020 C   0  0  0  0  0  0  0  0  0  0  0  0
  162.4070  205.7310  145.1560 N   0  0  0  0  0  0  0  0  0  0  0  0
  161.2600  202.0770  147.9530 C   0  0  2  0  0  3  0  0  0  0  0  0
  161.7760  205.8330  147.3800 C   0  0  2  0  0  3  0  0  0  0  0  0
  160.8130  202.2800  152.3910 O   0  0  0  0  0  0  0  0  0  0  0  0
  161.5240  206.3050  148.6830 C   0  0  0  0  0  3  0  0  0  0  0  0
  160.9040  200.6340  149.9090 O   0  0  0  0  0  0  0  0  0  0  0  0
  159.0140  201.4700  147.4740 O   0  0  0  0  0  0  0  0  0  0  0  0
  160.4560  201.2830  145.6310 C   0  0  0  0  0  1  0  0  0  0  0  0
  160.1560  201.5990  147.0540 C   0  0  0  0  0  0  0  0  0  0  0  0
  160.8320  208.1650  151.5560 C   0  0  0  0  0  1  0  0  0  0  0  0
  161.6560  206.8900  151.6560 C   0  0  1  0  0  3  0  0  0  0  0  0
  162.0610  206.6830  153.1120 C   0  0  0  0  0  2  0  0  0  0  0  0
  160.3390  206.7150  154.7730 O   0  0  0  0  0  1  0  0  0  0  0  0
  161.2070  207.5280  154.0440 C   0  0  0  0  0  2  0  0  0  0  0  0
  1 14  1  0  0  0  0
  1 11  1  0  0  0  0
  2 17  2  0  0  0  0
  2  9  1  0  0  0  0
  3 10  1  0  0  0  0
  4  1  2  0  0  0  0
  5  8  1  0  0  0  0
  5 15  2  0  0  0  0
  6 14  1  0  0  0  0
  7  3  1  0  0  0  0
  7  9  1  0  0  0  0
  9  5  1  0  0  0  0
 10 22  1  1  0  0  0
 10  8  1  0  0  0  0
 11  7  2  0  0  0  0
 12  4  1  0  0  0  0
 12  6  2  0  0  0  0
 13 20  1  6  0  0  0
 13 11  1  0  0  0  0
 13  2  1  0  0  0  0
 14 16  1  1  0  0  0
 16  3  2  0  0  0  0
 19 20  1  0  0  0  0
 20 18  2  0  0  0  0
 22 21  1  1  0  0  0
 22 23  1  0  0  0  0
 23 25  1  0  0  0  0
 25 24  1  0  0  0  0
M  END
>  <MODEL>
5

>  <REMARK>
 VINA RESULT:      -7.1      2.930      6.819
  Name = 
  4 active torsions:
  status: ('A' for Active; 'I' for Inactive)
    1  A    between atoms: C_2  and  C_20
    2  A    between atoms: C_2  and  C_24
    3  A    between atoms: C_15  and  C_24
    4  A    between atoms: C_18  and  C_21
                            x       y       z     vdW  Elec       q    Type
                         _______ _______ _______ _____ _____    ______ ____

>  <TORSDO>
F 4

$$$$
=
 OpenBabel11072411373D

 25 28  0  0  1  0  0  0  0  0999 V2000
  161.8650  204.4280  147.3310 C   0  0  0  0  0  0  0  0  0  0  0  0
  161.1970  203.2120  150.7420 C   0  0  0  0  0  0  0  0  0  0  0  0
  161.5010  206.4560  149.2410 C   0  0  0  0  0  0  0  0  0  0  0  0
  162.1870  203.5900  146.1500 C   0  0  0  0  0  3  0  0  0  0  0  0
  161.2370  205.5160  151.9370 C   0  0  0  0  0  0  0  0  0  0  0  0
  162.3830  205.8330  145.6340 N   0  0  0  0  0  0  0  0  0  0  0  0
  161.3090  205.1040  149.5410 C   0  0  0  0  0  0  0  0  0  0  0  0
  161.4460  206.8790  151.6710 O   0  0  0  0  0  0  0  0  0  0  0  0
  161.0760  204.6300  150.8350 N   0  0  0  0  0  0  0  0  0  0  0  0
  161.2760  207.4680  150.3590 C   0  0  1  0  0  3  0  0  0  0  0  0
  161.5140  204.0870  148.6340 C   0  0  0  0  0  0  0  0  0  0  0  0
  162.5020  204.5460  145.0640 N   0  0  0  0  0  0  0  0  0  0  0  0
  161.4310  202.7500  149.3200 C   0  0  2  0  0  3  0  0  0  0  0  0
  162.0000  205.7360  146.9830 C   0  0  2  0  0  3  0  0  0  0  0  0
  161.2400  205.0870  153.1200 O   0  0  0  0  0  0  0  0  0  0  0  0
  161.8330  206.7890  147.9030 C   0  0  0  0  0  3  0  0  0  0  0  0
  161.1530  202.4470  151.7420 O   0  0  0  0  0  0  0  0  0  0  0  0
  159.1750  202.0110  149.3530 O   0  0  0  0  0  0  0  0  0  0  0  0
  160.4480  201.0780  147.6160 C   0  0  0  0  0  1  0  0  0  0  0  0
  160.2680  201.9510  148.8080 C   0  0  0  0  0  0  0  0  0  0  0  0
  161.5580  209.6430  149.1530 C   0  0  0  0  0  1  0  0  0  0  0  0
  162.1450  208.7270  150.2150 C   0  0  1  0  0  3  0  0  0  0  0  0
  162.2310  209.4970  151.5300 C   0  0  0  0  0  2  0  0  0  0  0  0
  160.0700  209.8740  152.4850 O   0  0  0  0  0  1  0  0  0  0  0  0
  161.0570  210.4510  151.6850 C   0  0  0  0  0  2  0  0  0  0  0  0
  1 11  1  0  0  0  0
  2  9  1  0  0  0  0
  2 17  2  0  0  0  0
  3  7  1  0  0  0  0
  3 10  1  0  0  0  0
  4  1  2  0  0  0  0
  5 15  2  0  0  0  0
  6 14  1  0  0  0  0
  7  9  1  0  0  0  0
  8  5  1  0  0  0  0
  9  5  1  0  0  0  0
 10 22  1  6  0  0  0
 10  8  1  0  0  0  0
 11 13  1  0  0  0  0
 11  7  2  0  0  0  0
 12  6  2  0  0  0  0
 12  4  1  0  0  0  0
 13 20  1  6  0  0  0
 13  2  1  0  0  0  0
 14  1  1  0  0  0  0
 14 16  1  1  0  0  0
 16  3  2  0  0  0  0
 19 20  1  0  0  0  0
 20 18  2  0  0  0  0
 22 21  1  6  0  0  0
 22 23  1  0  0  0  0
 23 25  1  0  0  0  0
 25 24  1  0  0  0  0
M  END
>  <MODEL>
6

>  <REMARK>
 VINA RESULT:      -7.1      2.788      5.938
  Name = 
  4 active torsions:
  status: ('A' for Active; 'I' for Inactive)
    1  A    between atoms: C_2  and  C_20
    2  A    between atoms: C_2  and  C_24
    3  A    between atoms: C_15  and  C_24
    4  A    between atoms: C_18  and  C_21
                            x       y       z     vdW  Elec       q    Type
                         _______ _______ _______ _____ _____    ______ ____

>  <TORSDO>
F 4

$$$$
=
 OpenBabel11072411373D

 25 28  0  0  1  0  0  0  0  0999 V2000
  161.0980  208.3530  154.5330 C   0  0  0  0  0  0  0  0  0  0  0  0
  161.6470  210.0570  151.3150 C   0  0  0  0  0  0  0  0  0  0  0  0
  160.9440  206.6750  152.2850 C   0  0  0  0  0  0  0  0  0  0  0  0
  161.2130  208.9660  155.8790 C   0  0  0  0  0  3  0  0  0  0  0  0
  161.6230  207.9450  149.8050 C   0  0  0  0  0  0  0  0  0  0  0  0
  160.8610  206.6900  156.0490 N   0  0  0  0  0  0  0  0  0  0  0  0
  161.0830  208.0620  152.1740 C   0  0  0  0  0  0  0  0  0  0  0  0
  161.5080  206.5480  149.8860 O   0  0  0  0  0  0  0  0  0  0  0  0
  161.3120  208.7160  150.9610 N   0  0  0  0  0  0  0  0  0  0  0  0
  160.8740  205.8660  150.9950 C   0  0  1  0  0  3  0  0  0  0  0  0
  161.1950  208.9040  153.2590 C   0  0  0  0  0  0  0  0  0  0  0  0
  161.0360  207.8500  156.8360 N   0  0  0  0  0  0  0  0  0  0  0  0
  161.5440  210.2960  152.8060 C   0  0  2  0  0  3  0  0  0  0  0  0
  160.8990  207.0150  154.6820 C   0  0  0  0  0  0  0  0  0  0  0  0
  162.0360  208.4930  148.7500 O   0  0  0  0  0  0  0  0  0  0  0  0
  160.8200  206.1310  153.5880 C   0  0  0  0  0  2  0  0  0  0  0  0
  162.0210  210.9210  150.4780 O   0  0  0  0  0  0  0  0  0  0  0  0
  160.5610  212.0770  154.0310 O   0  0  0  0  0  0  0  0  0  0  0  0
  159.1830  211.2270  152.3320 C   0  0  0  0  0  1  0  0  0  0  0  0
  160.4400  211.2620  153.1280 C   0  0  0  0  0  0  0  0  0  0  0  0
  160.7230  203.7240  152.2820 C   0  0  0  0  0  1  0  0  0  0  0  0
  161.4330  204.4430  151.1450 C   0  0  1  0  0  3  0  0  0  0  0  0
  161.2480  203.6340  149.8650 C   0  0  0  0  0  2  0  0  0  0  0  0
  159.8520  201.7940  149.2430 O   0  0  0  0  0  1  0  0  0  0  0  0
  160.8040  202.2130  150.1720 C   0  0  0  0  0  2  0  0  0  0  0  0
  1 14  1  0  0  0  0
  1  4  1  0  0  0  0
  2 13  1  0  0  0  0
  3 16  1  0  0  0  0
  4 12  2  0  0  0  0
  5  8  1  0  0  0  0
  5  9  1  0  0  0  0
  6 12  1  0  0  0  0
  7  3  2  0  0  0  0
  7 11  1  0  0  0  0
  8 10  1  0  0  0  0
  9  2  1  0  0  0  0
  9  7  1  0  0  0  0
 10 22  1  1  0  0  0
 10  3  1  0  0  0  0
 11  1  2  0  0  0  0
 13 20  1  6  0  0  0
 13 11  1  0  0  0  0
 14  6  2  0  0  0  0
 15  5  2  0  0  0  0
 16 14  1  0  0  0  0
 17  2  2  0  0  0  0
 19 20  1  0  0  0  0
 20 18  2  0  0  0  0
 22 21  1  1  0  0  0
 23 25  1  0  0  0  0
 23 22  1  0  0  0  0
 24 25  1  0  0  0  0
M  END
>  <MODEL>
7

>  <REMARK>
 VINA RESULT:      -7.0      2.936      4.315
  Name = 
  4 active torsions:
  status: ('A' for Active; 'I' for Inactive)
    1  A    between atoms: C_2  and  C_20
    2  A    between atoms: C_2  and  C_24
    3  A    between atoms: C_15  and  C_24
    4  A    between atoms: C_18  and  C_21
                            x       y       z     vdW  Elec       q    Type
                         _______ _______ _______ _____ _____    ______ ____

>  <TORSDO>
F 4

$$$$
=
 OpenBabel11072411373D

 25 28  0  0  1  0  0  0  0  0999 V2000
  161.0330  205.7030  147.0050 C   0  0  0  0  0  0  0  0  0  0  0  0
  161.0180  206.7510  150.5350 C   0  0  0  0  0  0  0  0  0  0  0  0
  161.3380  203.6020  148.8460 C   0  0  0  0  0  0  0  0  0  0  0  0
  160.7990  206.5780  145.8310 C   0  0  0  0  0  3  0  0  0  0  0  0
  161.0710  204.3810  151.5930 C   0  0  0  0  0  0  0  0  0  0  0  0
  160.9540  204.3680  145.1790 N   0  0  0  0  0  0  0  0  0  0  0  0
  161.3200  204.9440  149.2390 C   0  0  0  0  0  0  0  0  0  0  0  0
  161.0690  203.0240  151.2290 O   0  0  0  0  0  0  0  0  0  0  0  0
  161.2920  205.3520  150.5760 N   0  0  0  0  0  0  0  0  0  0  0  0
  161.5080  202.5480  149.9340 C   0  0  1  0  0  3  0  0  0  0  0  0
  161.1370  205.9910  148.3630 C   0  0  0  0  0  0  0  0  0  0  0  0
  160.7710  205.6700  144.6620 N   0  0  0  0  0  0  0  0  0  0  0  0
  160.9530  207.2790  149.1190 C   0  0  2  0  0  3  0  0  0  0  0  0
  161.1110  204.4140  146.5750 C   0  0  2  0  0  3  0  0  0  0  0  0
  160.8340  204.7260  152.7790 O   0  0  0  0  0  0  0  0  0  0  0  0
  161.2590  203.3260  147.4570 C   0  0  0  0  0  3  0  0  0  0  0  0
  160.8170  207.4470  151.5660 O   0  0  0  0  0  0  0  0  0  0  0  0
  163.0890  207.8640  148.2610 O   0  0  0  0  0  0  0  0  0  0  0  0
  161.9560  209.6530  149.2730 C   0  0  0  0  0  1  0  0  0  0  0  0
  162.0780  208.2340  148.8400 C   0  0  0  0  0  0  0  0  0  0  0  0
  159.4450  201.4700  149.0110 C   0  0  0  0  0  1  0  0  0  0  0  0
  160.8280  201.2130  149.5900 C   0  0  1  0  0  3  0  0  0  0  0  0
  161.6430  200.4200  148.5730 C   0  0  0  0  0  2  0  0  0  0  0  0
  161.5800  199.4520  146.3860 O   0  0  0  0  0  1  0  0  0  0  0  0
  160.9310  200.3510  147.2320 C   0  0  0  0  0  2  0  0  0  0  0  0
  1 11  1  0  0  0  0
  2  9  1  0  0  0  0
  2 17  2  0  0  0  0
  3  7  1  0  0  0  0
  3 10  1  0  0  0  0
  4  1  2  0  0  0  0
  5 15  2  0  0  0  0
  6 14  1  0  0  0  0
  7  9  1  0  0  0  0
  8  5  1  0  0  0  0
  9  5  1  0  0  0  0
 10 22  1  6  0  0  0
 10  8  1  0  0  0  0
 11 13  1  0  0  0  0
 11  7  2  0  0  0  0
 12  6  2  0  0  0  0
 12  4  1  0  0  0  0
 13 20  1  1  0  0  0
 13  2  1  0  0  0  0
 14  1  1  0  0  0  0
 14 16  1  1  0  0  0
 16  3  2  0  0  0  0
 18 20  2  0  0  0  0
 20 19  1  0  0  0  0
 22 21  1  6  0  0  0
 23 22  1  0  0  0  0
 24 25  1  0  0  0  0
 25 23  1  0  0  0  0
M  END
>  <MODEL>
8

>  <REMARK>
 VINA RESULT:      -6.9      3.000      4.967
  Name = 
  4 active torsions:
  status: ('A' for Active; 'I' for Inactive)
    1  A    between atoms: C_2  and  C_20
    2  A    between atoms: C_2  and  C_24
    3  A    between atoms: C_15  and  C_24
    4  A    between atoms: C_18  and  C_21
                            x       y       z     vdW  Elec       q    Type
                         _______ _______ _______ _____ _____    ______ ____

>  <TORSDO>
F 4

$$$$
=
 OpenBabel11072411373D

 25 28  0  0  1  0  0  0  0  0999 V2000
  160.2810  210.8710  153.4050 C   0  0  0  0  0  0  0  0  0  0  0  0
  160.6460  207.6150  155.0870 C   0  0  0  0  0  0  0  0  0  0  0  0
  161.2620  208.8140  151.7620 C   0  0  0  0  0  0  0  0  0  0  0  0
  159.7010  212.1020  153.9970 C   0  0  0  0  0  2  0  0  0  0  0  0
  161.3060  206.2260  152.9950 C   0  0  0  0  0  0  0  0  0  0  0  0
  160.1540  212.4120  151.7530 N   0  0  0  0  0  0  0  0  0  0  0  0
  161.0610  208.6420  153.1340 C   0  0  0  0  0  0  0  0  0  0  0  0
  161.4950  206.3630  151.6100 O   0  0  0  0  0  0  0  0  0  0  0  0
  161.1760  207.4070  153.7790 N   0  0  0  0  0  0  0  0  0  0  0  0
  161.7980  207.6260  150.9710 C   0  0  1  0  0  3  0  0  0  0  0  0
  160.5480  209.6210  153.9570 C   0  0  0  0  0  0  0  0  0  0  0  0
  159.6520  213.0840  152.8900 N   0  0  0  0  0  0  0  0  0  0  0  0
  160.2550  209.0580  155.3210 C   0  0  2  0  0  3  0  0  0  0  0  0
  160.5230  211.0980  152.0860 C   0  0  0  0  0  0  0  0  0  0  0  0
  161.2060  205.0850  153.5180 O   0  0  0  0  0  0  0  0  0  0  0  0
  161.0110  210.1000  151.2190 C   0  0  0  0  0  3  0  0  0  0  0  0
  160.4900  206.6880  155.9260 O   0  0  0  0  0  0  0  0  0  0  0  0
  162.2960  209.3700  156.4940 O   0  0  0  0  0  0  0  0  0  0  0  0
  160.5500  210.7400  157.2580 C   0  0  0  0  0  1  0  0  0  0  0  0
  161.1240  209.6950  156.3670 C   0  0  0  0  0  0  0  0  0  0  0  0
  162.5320  207.6200  148.5770 C   0  0  0  0  0  1  0  0  0  0  0  0
  161.3290  207.6170  149.5070 C   0  0  1  0  0  3  0  0  0  0  0  0
  160.4800  206.3860  149.2030 C   0  0  0  0  0  2  0  0  0  0  0  0
  161.2510  204.1550  148.8080 O   0  0  0  0  0  1  0  0  0  0  0  0
  161.2060  205.4380  148.2610 C   0  0  0  0  0  2  0  0  0  0  0  0
  1 11  1  0  0  0  0
  1  4  1  0  0  0  0
  2 13  1  0  0  0  0
  2 17  2  0  0  0  0
  3  7  1  0  0  0  0
  5 15  2  0  0  0  0
  5  9  1  0  0  0  0
  6 14  1  0  0  0  0
  6 12  2  0  0  0  0
  7  9  1  0  0  0  0
  7 11  2  0  0  0  0
  8  5  1  0  0  0  0
  9  2  1  0  0  0  0
 10 22  1  6  0  0  0
 10  8  1  0  0  0  0
 10  3  1  0  0  0  0
 11 13  1  0  0  0  0
 12  4  1  0  0  0  0
 13 20  1  1  0  0  0
 14  1  2  0  0  0  0
 16  3  2  0  0  0  0
 16 14  1  0  0  0  0
 20 18  2  0  0  0  0
 20 19  1  0  0  0  0
 22 21  1  6  0  0  0
 23 22  1  0  0  0  0
 25 24  1  0  0  0  0
 25 23  1  0  0  0  0
M  END
>  <MODEL>
9

>  <REMARK>
 VINA RESULT:      -6.8      3.070      5.497
  Name = 
  4 active torsions:
  status: ('A' for Active; 'I' for Inactive)
    1  A    between atoms: C_2  and  C_20
    2  A    between atoms: C_2  and  C_24
    3  A    between atoms: C_15  and  C_24
    4  A    between atoms: C_18  and  C_21
                            x       y       z     vdW  Elec       q    Type
                         _______ _______ _______ _____ _____    ______ ____

>  <TORSDO>
F 4

$$$$
