=
 OpenBabel11072412243D

 27 29  0  0  1  0  0  0  0  0999 V2000
  161.0110  203.2480  151.6170 N   0  0  0  0  0  0  0  0  0  0  0  0
  161.1380  204.5350  151.7290 C   0  0  0  0  0  0  0  0  0  0  0  0
  161.1890  205.3860  150.5260 C   0  0  0  0  0  3  0  0  0  0  0  0
  160.9160  203.3910  149.0720 C   0  0  0  0  0  2  0  0  0  0  0  0
  161.0900  204.8740  149.2940 C   0  0  0  0  0  0  0  0  0  0  0  0
  160.9070  202.5970  150.3460 C   0  0  0  0  0  0  0  0  0  0  0  0
  160.8010  201.3440  150.2940 O   0  0  0  0  0  0  0  0  0  0  0  0
  161.2340  205.1160  153.0310 N   0  0  0  0  0  2  0  0  0  0  0  0
  161.1370  205.7640  148.1220 C   0  0  0  0  0  0  0  0  0  0  0  0
  160.1130  206.4180  147.7780 O   0  0  0  0  0  0  0  0  0  0  0  0
  162.3220  205.8720  147.3860 O   0  0  0  0  0  0  0  0  0  0  0  0
  162.3550  205.7410  145.9710 C   0  0  0  0  0  2  0  0  0  0  0  0
  162.5420  204.2850  145.5830 C   0  0  0  0  0  2  0  0  0  0  0  0
  161.2340  203.6950  145.1870 C   0  0  0  0  0  0  0  0  0  0  0  0
  160.4260  204.3650  144.4910 O   0  0  0  0  0  0  0  0  0  0  0  0
  160.9180  202.3930  145.5540 O   0  0  0  0  0  1  0  0  0  0  0  0
  161.3540  206.4990  153.2220 N   0  0  0  0  0  2  0  0  0  0  0  0
  161.5210  206.7070  154.5550 O   0  0  0  0  0  0  0  0  0  0  0  0
  160.8740  210.0470  154.0550 C   0  0  2  0  0  3  0  0  0  0  0  0
  160.6260  208.7010  153.7120 O   0  0  0  0  0  0  0  0  0  0  0  0
  160.8620  207.9110  154.8700 C   0  0  2  0  0  3  0  0  0  0  0  0
  161.9380  211.0410  155.9450 O   0  0  0  0  0  0  0  0  0  0  0  0
  161.5900  208.7020  155.9460 C   0  0  0  0  0  2  0  0  0  0  0  0
  161.5050  210.0460  155.3890 C   0  0  0  0  0  0  0  0  0  0  0  0
  159.8180  212.2480  153.6260 C   0  0  0  0  0  2  0  0  0  0  0  0
  159.5670  210.8250  154.0810 C   0  0  0  0  0  3  0  0  0  0  0  0
  159.2060  211.2480  152.6700 C   0  0  0  0  0  2  0  0  0  0  0  0
  1  2  2  0  0  0  0
  2  8  1  0  0  0  0
  3  2  1  0  0  0  0
  4  5  1  0  0  0  0
  4  6  1  0  0  0  0
  5  3  2  0  0  0  0
  6  1  1  0  0  0  0
  7  6  2  0  0  0  0
  8 17  1  0  0  0  0
  9  5  1  0  0  0  0
 10  9  2  0  0  0  0
 11  9  1  0  0  0  0
 12 11  1  0  0  0  0
 13 12  1  0  0  0  0
 14 16  1  0  0  0  0
 14 13  1  0  0  0  0
 15 14  2  0  0  0  0
 17 18  1  0  0  0  0
 19 26  1  1  0  0  0
 19 24  1  0  0  0  0
 20 19  1  0  0  0  0
 20 21  1  0  0  0  0
 21 18  1  6  0  0  0
 21 23  1  0  0  0  0
 24 22  2  0  0  0  0
 24 23  1  0  0  0  0
 25 26  1  0  0  0  0
 27 25  1  0  0  0  0
 27 26  1  0  0  0  0
M  END
>  <MODEL>
1

>  <REMARK>
 VINA RESULT:      -7.6      0.000      0.000
  Name = 
  9 active torsions:
  status: ('A' for Active; 'I' for Inactive)
    1  A    between atoms: C_1  and  C_12
    2  A    between atoms: C_1  and  C_18
    3  A    between atoms: C_4  and  C_22
    4  A    between atoms: N_8  and  O_16
    5  A    between atoms: N_8  and  N_25
    6  A    between atoms: C_10  and  C_13
    7  A    between atoms: C_10  and  O_27
    8  A    between atoms: C_11  and  O_16
    9  A    between atoms: C_12  and  O_27
                            x       y       z     vdW  Elec       q    Type
                         _______ _______ _______ _____ _____    ______ ____

>  <TORSDO>
F 9

$$$$
=
 OpenBabel11072412243D

 27 29  0  0  1  0  0  0  0  0999 V2000
  161.5160  206.2310  146.2980 N   0  0  0  0  0  0  0  0  0  0  0  0
  161.3750  206.3020  147.5870 C   0  0  0  0  0  0  0  0  0  0  0  0
  161.1940  205.0750  148.3850 C   0  0  0  0  0  3  0  0  0  0  0  0
  161.3690  203.6850  146.3340 C   0  0  0  0  0  2  0  0  0  0  0  0
  161.1870  203.8610  147.8220 C   0  0  0  0  0  0  0  0  0  0  0  0
  161.5130  204.9840  145.5960 C   0  0  0  0  0  0  0  0  0  0  0  0
  161.6390  204.9740  144.3440 O   0  0  0  0  0  0  0  0  0  0  0  0
  161.3910  207.5820  148.2210 N   0  0  0  0  0  2  0  0  0  0  0  0
  161.0120  202.6640  148.6600 C   0  0  0  0  0  0  0  0  0  0  0  0
  161.3600  201.5290  148.2310 O   0  0  0  0  0  0  0  0  0  0  0  0
  160.4460  202.7910  149.9330 O   0  0  0  0  0  0  0  0  0  0  0  0
  161.1820  202.5420  151.1240 C   0  0  0  0  0  2  0  0  0  0  0  0
  160.6010  203.3430  152.2770 C   0  0  0  0  0  2  0  0  0  0  0  0
  161.3820  204.5970  152.4640 C   0  0  0  0  0  0  0  0  0  0  0  0
  162.2610  204.9230  151.6230 O   0  0  0  0  0  0  0  0  0  0  0  0
  161.1160  205.4270  153.5460 O   0  0  0  0  0  1  0  0  0  0  0  0
  161.2620  207.7260  149.6100 N   0  0  0  0  0  2  0  0  0  0  0  0
  162.5160  207.8680  150.1160 O   0  0  0  0  0  0  0  0  0  0  0  0
  160.7610  209.2050  152.7530 C   0  0  2  0  0  3  0  0  0  0  0  0
  161.5160  208.1410  152.2170 O   0  0  0  0  0  0  0  0  0  0  0  0
  162.4100  208.6880  151.2560 C   0  0  2  0  0  3  0  0  0  0  0  0
  160.4770  211.4690  152.0540 O   0  0  0  0  0  0  0  0  0  0  0  0
  162.0400  210.1200  150.9020 C   0  0  0  0  0  2  0  0  0  0  0  0
  161.0400  210.3950  151.9260 C   0  0  0  0  0  0  0  0  0  0  0  0
  159.9720  209.9650  154.9770 C   0  0  0  0  0  2  0  0  0  0  0  0
  161.1660  209.4510  154.1980 C   0  0  0  0  0  3  0  0  0  0  0  0
  160.3890  208.5160  155.1040 C   0  0  0  0  0  2  0  0  0  0  0  0
  1  2  2  0  0  0  0
  2  8  1  0  0  0  0
  2  3  1  0  0  0  0
  4  5  1  0  0  0  0
  5  3  2  0  0  0  0
  5  9  1  0  0  0  0
  6  1  1  0  0  0  0
  6  4  1  0  0  0  0
  7  6  2  0  0  0  0
  8 17  1  0  0  0  0
  9 11  1  0  0  0  0
 10  9  2  0  0  0  0
 11 12  1  0  0  0  0
 12 13  1  0  0  0  0
 13 14  1  0  0  0  0
 14 16  1  0  0  0  0
 15 14  2  0  0  0  0
 17 18  1  0  0  0  0
 19 26  1  1  0  0  0
 20 19  1  0  0  0  0
 21 18  1  6  0  0  0
 21 20  1  0  0  0  0
 23 21  1  0  0  0  0
 23 24  1  0  0  0  0
 24 22  2  0  0  0  0
 24 19  1  0  0  0  0
 25 27  1  0  0  0  0
 26 25  1  0  0  0  0
 26 27  1  0  0  0  0
M  END
>  <MODEL>
2

>  <REMARK>
 VINA RESULT:      -7.6      2.512      4.895
  Name = 
  9 active torsions:
  status: ('A' for Active; 'I' for Inactive)
    1  A    between atoms: C_1  and  C_12
    2  A    between atoms: C_1  and  C_18
    3  A    between atoms: C_4  and  C_22
    4  A    between atoms: N_8  and  O_16
    5  A    between atoms: N_8  and  N_25
    6  A    between atoms: C_10  and  C_13
    7  A    between atoms: C_10  and  O_27
    8  A    between atoms: C_11  and  O_16
    9  A    between atoms: C_12  and  O_27
                            x       y       z     vdW  Elec       q    Type
                         _______ _______ _______ _____ _____    ______ ____

>  <TORSDO>
F 9

$$$$
=
 OpenBabel11072412243D

 27 29  0  0  1  0  0  0  0  0999 V2000
  161.0290  203.3860  151.6070 N   0  0  0  0  0  0  0  0  0  0  0  0
  161.2870  204.6570  151.6610 C   0  0  0  0  0  0  0  0  0  0  0  0
  161.3500  205.4570  150.4230 C   0  0  0  0  0  3  0  0  0  0  0  0
  160.7990  203.4500  149.0680 C   0  0  0  0  0  2  0  0  0  0  0  0
  161.1290  204.9150  149.2200 C   0  0  0  0  0  0  0  0  0  0  0  0
  160.7880  202.7060  150.3710 C   0  0  0  0  0  0  0  0  0  0  0  0
  160.5580  201.4690  150.3750 O   0  0  0  0  0  0  0  0  0  0  0  0
  161.5150  205.2700  152.9310 N   0  0  0  0  0  2  0  0  0  0  0  0
  161.1940  205.7550  148.0130 C   0  0  0  0  0  0  0  0  0  0  0  0
  160.1730  206.3850  147.6190 O   0  0  0  0  0  0  0  0  0  0  0  0
  162.3930  205.8420  147.2970 O   0  0  0  0  0  0  0  0  0  0  0  0
  162.4670  205.5940  145.8990 C   0  0  0  0  0  2  0  0  0  0  0  0
  162.5090  204.0990  145.6340 C   0  0  0  0  0  2  0  0  0  0  0  0
  161.1840  203.6360  145.1370 C   0  0  0  0  0  0  0  0  0  0  0  0
  160.4630  204.4090  144.4520 O   0  0  0  0  0  0  0  0  0  0  0  0
  160.7560  202.3410  145.3980 O   0  0  0  0  0  1  0  0  0  0  0  0
  161.7800  206.6410  153.0590 N   0  0  0  0  0  2  0  0  0  0  0  0
  160.7290  207.1920  153.7230 O   0  0  0  0  0  0  0  0  0  0  0  0
  159.8230  210.4040  154.5510 C   0  0  2  0  0  3  0  0  0  0  0  0
  160.3320  209.1490  154.9470 O   0  0  0  0  0  0  0  0  0  0  0  0
  160.9840  208.5730  153.8230 C   0  0  2  0  0  3  0  0  0  0  0  0
  159.5360  211.4010  152.4030 O   0  0  0  0  0  0  0  0  0  0  0  0
  160.6420  209.3160  152.5400 C   0  0  0  0  0  2  0  0  0  0  0  0
  159.9650  210.4860  153.0850 C   0  0  0  0  0  0  0  0  0  0  0  0
  159.7080  212.7230  155.4180 C   0  0  0  0  0  2  0  0  0  0  0  0
  160.6060  211.5180  155.2290 C   0  0  0  0  0  3  0  0  0  0  0  0
  159.9970  211.8070  156.5870 C   0  0  0  0  0  2  0  0  0  0  0  0
  1  2  2  0  0  0  0
  2  8  1  0  0  0  0
  3  2  1  0  0  0  0
  4  5  1  0  0  0  0
  4  6  1  0  0  0  0
  5  3  2  0  0  0  0
  6  7  2  0  0  0  0
  6  1  1  0  0  0  0
  8 17  1  0  0  0  0
  9  5  1  0  0  0  0
 10  9  2  0  0  0  0
 11  9  1  0  0  0  0
 12 11  1  0  0  0  0
 13 12  1  0  0  0  0
 14 16  1  0  0  0  0
 14 13  1  0  0  0  0
 15 14  2  0  0  0  0
 17 18  1  0  0  0  0
 19 20  1  0  0  0  0
 19 26  1  1  0  0  0
 21 18  1  6  0  0  0
 21 20  1  0  0  0  0
 22 24  2  0  0  0  0
 23 24  1  0  0  0  0
 23 21  1  0  0  0  0
 24 19  1  0  0  0  0
 25 27  1  0  0  0  0
 26 25  1  0  0  0  0
 26 27  1  0  0  0  0
M  END
>  <MODEL>
3

>  <REMARK>
 VINA RESULT:      -7.5      1.116      1.598
  Name = 
  9 active torsions:
  status: ('A' for Active; 'I' for Inactive)
    1  A    between atoms: C_1  and  C_12
    2  A    between atoms: C_1  and  C_18
    3  A    between atoms: C_4  and  C_22
    4  A    between atoms: N_8  and  O_16
    5  A    between atoms: N_8  and  N_25
    6  A    between atoms: C_10  and  C_13
    7  A    between atoms: C_10  and  O_27
    8  A    between atoms: C_11  and  O_16
    9  A    between atoms: C_12  and  O_27
                            x       y       z     vdW  Elec       q    Type
                         _______ _______ _______ _____ _____    ______ ____

>  <TORSDO>
F 9

$$$$
=
 OpenBabel11072412243D

 27 29  0  0  1  0  0  0  0  0999 V2000
  161.1520  208.4680  153.4190 N   0  0  0  0  0  0  0  0  0  0  0  0
  161.3040  207.3550  152.7680 C   0  0  0  0  0  0  0  0  0  0  0  0
  161.6350  207.3710  151.3310 C   0  0  0  0  0  3  0  0  0  0  0  0
  161.6700  209.8550  151.3410 C   0  0  0  0  0  2  0  0  0  0  0  0
  161.8050  208.5160  150.6590 C   0  0  0  0  0  0  0  0  0  0  0  0
  161.3010  209.7470  152.7930 C   0  0  0  0  0  0  0  0  0  0  0  0
  161.1270  210.7950  153.4670 O   0  0  0  0  0  0  0  0  0  0  0  0
  161.1420  206.1150  153.4590 N   0  0  0  0  0  2  0  0  0  0  0  0
  162.1430  208.4820  149.2260 C   0  0  0  0  0  0  0  0  0  0  0  0
  162.2010  209.5530  148.5600 O   0  0  0  0  0  0  0  0  0  0  0  0
  162.3870  207.2530  148.6040 O   0  0  0  0  0  0  0  0  0  0  0  0
  161.4670  206.6620  147.6950 C   0  0  0  0  0  2  0  0  0  0  0  0
  162.2150  205.9070  146.6100 C   0  0  0  0  0  2  0  0  0  0  0  0
  161.3030  205.6330  145.4650 C   0  0  0  0  0  0  0  0  0  0  0  0
  161.5660  204.7010  144.6590 O   0  0  0  0  0  0  0  0  0  0  0  0
  160.1440  206.3810  145.3040 O   0  0  0  0  0  1  0  0  0  0  0  0
  161.3110  204.8790  152.8200 N   0  0  0  0  0  2  0  0  0  0  0  0
  160.6960  204.9660  151.6110 O   0  0  0  0  0  0  0  0  0  0  0  0
  160.5030  202.6130  149.1100 C   0  0  2  0  0  3  0  0  0  0  0  0
  160.6720  203.9600  149.4950 O   0  0  0  0  0  0  0  0  0  0  0  0
  161.2580  203.9680  150.7900 C   0  0  2  0  0  3  0  0  0  0  0  0
  160.6270  200.5750  150.3450 O   0  0  0  0  0  0  0  0  0  0  0  0
  161.2010  202.5920  151.4360 C   0  0  0  0  0  2  0  0  0  0  0  0
  160.7760  201.7850  150.3010 C   0  0  0  0  0  0  0  0  0  0  0  0
  161.1930  200.8640  147.4950 C   0  0  0  0  0  2  0  0  0  0  0  0
  161.4690  202.2710  147.9860 C   0  0  0  0  0  3  0  0  0  0  0  0
  160.6910  202.0520  146.7040 C   0  0  0  0  0  2  0  0  0  0  0  0
  2  1  2  0  0  0  0
  2  8  1  0  0  0  0
  3  2  1  0  0  0  0
  4  6  1  0  0  0  0
  5  3  2  0  0  0  0
  5  4  1  0  0  0  0
  6  1  1  0  0  0  0
  6  7  2  0  0  0  0
  9  5  1  0  0  0  0
 10  9  2  0  0  0  0
 11  9  1  0  0  0  0
 12 11  1  0  0  0  0
 13 12  1  0  0  0  0
 14 13  1  0  0  0  0
 15 14  2  0  0  0  0
 16 14  1  0  0  0  0
 17  8  1  0  0  0  0
 18 17  1  0  0  0  0
 19 26  1  6  0  0  0
 19 20  1  0  0  0  0
 19 24  1  0  0  0  0
 20 21  1  0  0  0  0
 21 23  1  0  0  0  0
 21 18  1  1  0  0  0
 24 22  2  0  0  0  0
 24 23  1  0  0  0  0
 25 26  1  0  0  0  0
 27 25  1  0  0  0  0
 27 26  1  0  0  0  0
M  END
>  <MODEL>
4

>  <REMARK>
 VINA RESULT:      -7.3      2.084      6.643
  Name = 
  9 active torsions:
  status: ('A' for Active; 'I' for Inactive)
    1  A    between atoms: C_1  and  C_12
    2  A    between atoms: C_1  and  C_18
    3  A    between atoms: C_4  and  C_22
    4  A    between atoms: N_8  and  O_16
    5  A    between atoms: N_8  and  N_25
    6  A    between atoms: C_10  and  C_13
    7  A    between atoms: C_10  and  O_27
    8  A    between atoms: C_11  and  O_16
    9  A    between atoms: C_12  and  O_27
                            x       y       z     vdW  Elec       q    Type
                         _______ _______ _______ _____ _____    ______ ____

>  <TORSDO>
F 9

$$$$
=
 OpenBabel11072412243D

 27 29  0  0  1  0  0  0  0  0999 V2000
  161.6430  209.7840  150.5320 N   0  0  0  0  0  0  0  0  0  0  0  0
  161.9080  208.5710  150.1530 C   0  0  0  0  0  0  0  0  0  0  0  0
  161.7780  207.4490  151.1020 C   0  0  0  0  0  3  0  0  0  0  0  0
  161.0190  209.0070  152.8800 C   0  0  0  0  0  2  0  0  0  0  0  0
  161.3710  207.6340  152.3630 C   0  0  0  0  0  0  0  0  0  0  0  0
  161.2110  210.0930  151.8610 C   0  0  0  0  0  0  0  0  0  0  0  0
  160.9820  211.2880  152.1790 O   0  0  0  0  0  0  0  0  0  0  0  0
  162.3330  208.3360  148.8090 N   0  0  0  0  0  2  0  0  0  0  0  0
  161.2480  206.4820  153.2710 C   0  0  0  0  0  0  0  0  0  0  0  0
  161.1320  205.3140  152.8060 O   0  0  0  0  0  0  0  0  0  0  0  0
  161.2480  206.6920  154.6540 O   0  0  0  0  0  0  0  0  0  0  0  0
  160.0520  206.8970  155.3950 C   0  0  0  0  0  2  0  0  0  0  0  0
  160.3790  207.3820  156.7960 C   0  0  0  0  0  2  0  0  0  0  0  0
  161.0080  208.7310  156.7300 C   0  0  0  0  0  0  0  0  0  0  0  0
  160.3130  209.7350  156.4210 O   0  0  0  0  0  0  0  0  0  0  0  0
  162.3520  208.8880  157.0440 O   0  0  0  0  0  1  0  0  0  0  0  0
  162.6170  207.0490  148.3320 N   0  0  0  0  0  2  0  0  0  0  0  0
  161.9130  206.8840  147.1800 O   0  0  0  0  0  0  0  0  0  0  0  0
  161.5950  203.5640  148.0160 C   0  0  2  0  0  3  0  0  0  0  0  0
  161.6190  204.9170  148.4170 O   0  0  0  0  0  0  0  0  0  0  0  0
  161.1650  205.6990  147.3210 C   0  0  2  0  0  3  0  0  0  0  0  0
  161.3570  202.5400  145.8740 O   0  0  0  0  0  0  0  0  0  0  0  0
  161.1250  204.8870  146.0350 C   0  0  0  0  0  2  0  0  0  0  0  0
  161.3450  203.5470  146.5620 C   0  0  0  0  0  0  0  0  0  0  0  0
  160.9060  201.3810  148.9670 C   0  0  0  0  0  2  0  0  0  0  0  0
  160.4920  202.8230  148.7580 C   0  0  0  0  0  3  0  0  0  0  0  0
  161.0130  202.3690  150.1080 C   0  0  0  0  0  2  0  0  0  0  0  0
  1  6  1  0  0  0  0
  2  1  2  0  0  0  0
  2  3  1  0  0  0  0
  3  5  2  0  0  0  0
  5  4  1  0  0  0  0
  5  9  1  0  0  0  0
  6  7  2  0  0  0  0
  6  4  1  0  0  0  0
  8  2  1  0  0  0  0
  9 11  1  0  0  0  0
 10  9  2  0  0  0  0
 11 12  1  0  0  0  0
 12 13  1  0  0  0  0
 14 13  1  0  0  0  0
 14 16  1  0  0  0  0
 15 14  2  0  0  0  0
 17  8  1  0  0  0  0
 18 17  1  0  0  0  0
 19 20  1  0  0  0  0
 19 26  1  1  0  0  0
 21 18  1  6  0  0  0
 21 20  1  0  0  0  0
 22 24  2  0  0  0  0
 23 24  1  0  0  0  0
 23 21  1  0  0  0  0
 24 19  1  0  0  0  0
 25 27  1  0  0  0  0
 26 25  1  0  0  0  0
 26 27  1  0  0  0  0
M  END
>  <MODEL>
5

>  <REMARK>
 VINA RESULT:      -7.1      2.484      8.960
  Name = 
  9 active torsions:
  status: ('A' for Active; 'I' for Inactive)
    1  A    between atoms: C_1  and  C_12
    2  A    between atoms: C_1  and  C_18
    3  A    between atoms: C_4  and  C_22
    4  A    between atoms: N_8  and  O_16
    5  A    between atoms: N_8  and  N_25
    6  A    between atoms: C_10  and  C_13
    7  A    between atoms: C_10  and  O_27
    8  A    between atoms: C_11  and  O_16
    9  A    between atoms: C_12  and  O_27
                            x       y       z     vdW  Elec       q    Type
                         _______ _______ _______ _____ _____    ______ ____

>  <TORSDO>
F 9

$$$$
=
 OpenBabel11072412243D

 27 29  0  0  1  0  0  0  0  0999 V2000
  160.9410  202.2140  150.7530 N   0  0  0  0  0  0  0  0  0  0  0  0
  161.0090  203.4320  151.1940 C   0  0  0  0  0  0  0  0  0  0  0  0
  161.1090  204.5620  150.2510 C   0  0  0  0  0  3  0  0  0  0  0  0
  161.0170  202.9960  148.3260 C   0  0  0  0  0  2  0  0  0  0  0  0
  161.1160  204.3770  148.9260 C   0  0  0  0  0  0  0  0  0  0  0  0
  160.9520  201.9050  149.3550 C   0  0  0  0  0  0  0  0  0  0  0  0
  160.8990  200.7040  148.9820 O   0  0  0  0  0  0  0  0  0  0  0  0
  160.9910  203.6660  152.6040 N   0  0  0  0  0  2  0  0  0  0  0  0
  161.2090  205.5370  148.0230 C   0  0  0  0  0  0  0  0  0  0  0  0
  160.2380  206.3350  147.9090 O   0  0  0  0  0  0  0  0  0  0  0  0
  162.3790  205.7410  147.2830 O   0  0  0  0  0  0  0  0  0  0  0  0
  162.3830  205.7930  145.8620 C   0  0  0  0  0  2  0  0  0  0  0  0
  162.4120  204.3870  145.2870 C   0  0  0  0  0  2  0  0  0  0  0  0
  161.0370  203.9750  144.8910 C   0  0  0  0  0  0  0  0  0  0  0  0
  160.6920  202.7660  144.9780 O   0  0  0  0  0  1  0  0  0  0  0  0
  160.1220  204.9270  144.4600 O   0  0  0  0  0  0  0  0  0  0  0  0
  161.0420  204.9580  153.1450 N   0  0  0  0  0  2  0  0  0  0  0  0
  162.0620  205.6120  152.5260 O   0  0  0  0  0  0  0  0  0  0  0  0
  160.5860  208.2760  154.1240 C   0  0  2  0  0  3  0  0  0  0  0  0
  161.2790  207.0490  154.2020 O   0  0  0  0  0  0  0  0  0  0  0  0
  162.0740  206.9270  153.0300 C   0  0  2  0  0  3  0  0  0  0  0  0
  160.2420  209.7990  152.3200 O   0  0  0  0  0  0  0  0  0  0  0  0
  161.6760  207.9510  151.9780 C   0  0  0  0  0  2  0  0  0  0  0  0
  160.7850  208.7990  152.7590 C   0  0  0  0  0  0  0  0  0  0  0  0
  160.0250  210.1660  155.6260 C   0  0  0  0  0  2  0  0  0  0  0  0
  161.1360  209.2480  155.1560 C   0  0  0  0  0  3  0  0  0  0  0  0
  160.4580  209.0020  156.4900 C   0  0  0  0  0  2  0  0  0  0  0  0
  1  2  2  0  0  0  0
  2  8  1  0  0  0  0
  3  2  1  0  0  0  0
  4  5  1  0  0  0  0
  4  6  1  0  0  0  0
  5  3  2  0  0  0  0
  6  1  1  0  0  0  0
  7  6  2  0  0  0  0
  8 17  1  0  0  0  0
  9  5  1  0  0  0  0
 10  9  2  0  0  0  0
 11  9  1  0  0  0  0
 12 11  1  0  0  0  0
 13 12  1  0  0  0  0
 14 15  1  0  0  0  0
 14 13  1  0  0  0  0
 16 14  2  0  0  0  0
 18 17  1  0  0  0  0
 19 20  1  0  0  0  0
 19 26  1  1  0  0  0
 21 18  1  6  0  0  0
 21 20  1  0  0  0  0
 22 24  2  0  0  0  0
 23 24  1  0  0  0  0
 23 21  1  0  0  0  0
 24 19  1  0  0  0  0
 25 27  1  0  0  0  0
 26 25  1  0  0  0  0
 26 27  1  0  0  0  0
M  END
>  <MODEL>
6

>  <REMARK>
 VINA RESULT:      -7.1      1.463      2.124
  Name = 
  9 active torsions:
  status: ('A' for Active; 'I' for Inactive)
    1  A    between atoms: C_1  and  C_12
    2  A    between atoms: C_1  and  C_18
    3  A    between atoms: C_4  and  C_22
    4  A    between atoms: N_8  and  O_16
    5  A    between atoms: N_8  and  N_25
    6  A    between atoms: C_10  and  C_13
    7  A    between atoms: C_10  and  O_27
    8  A    between atoms: C_11  and  O_16
    9  A    between atoms: C_12  and  O_27
                            x       y       z     vdW  Elec       q    Type
                         _______ _______ _______ _____ _____    ______ ____

>  <TORSDO>
F 9

$$$$
=
 OpenBabel11072412243D

 27 29  0  0  1  0  0  0  0  0999 V2000
  161.6920  206.2300  145.6940 N   0  0  0  0  0  0  0  0  0  0  0  0
  161.7800  206.0100  146.9700 C   0  0  0  0  0  0  0  0  0  0  0  0
  161.5960  204.6490  147.5070 C   0  0  0  0  0  3  0  0  0  0  0  0
  161.2570  203.7630  145.2110 C   0  0  0  0  0  2  0  0  0  0  0  0
  161.3520  203.6030  146.7090 C   0  0  0  0  0  0  0  0  0  0  0  0
  161.4240  205.1830  144.7540 C   0  0  0  0  0  0  0  0  0  0  0  0
  161.3340  205.4540  143.5290 O   0  0  0  0  0  0  0  0  0  0  0  0
  162.0520  207.1030  147.8490 N   0  0  0  0  0  2  0  0  0  0  0  0
  161.1830  202.2600  147.2890 C   0  0  0  0  0  0  0  0  0  0  0  0
  160.5600  201.3650  146.6530 O   0  0  0  0  0  0  0  0  0  0  0  0
  161.7090  201.9860  148.5560 O   0  0  0  0  0  0  0  0  0  0  0  0
  161.1970  200.9530  149.3870 C   0  0  0  0  0  2  0  0  0  0  0  0
  160.2580  201.5340  150.4300 C   0  0  0  0  0  2  0  0  0  0  0  0
  160.8320  202.7930  150.9800 C   0  0  0  0  0  0  0  0  0  0  0  0
  160.3660  203.9070  150.6230 O   0  0  0  0  0  0  0  0  0  0  0  0
  161.8570  202.7390  151.9160 O   0  0  0  0  0  1  0  0  0  0  0  0
  162.1780  206.9310  149.2350 N   0  0  0  0  0  2  0  0  0  0  0  0
  162.3810  208.1620  149.7750 O   0  0  0  0  0  0  0  0  0  0  0  0
  161.5870  208.8260  153.0550 C   0  0  2  0  0  3  0  0  0  0  0  0
  161.8730  209.3020  151.7570 O   0  0  0  0  0  0  0  0  0  0  0  0
  161.4610  208.3050  150.8320 C   0  0  2  0  0  3  0  0  0  0  0  0
  160.9940  206.6610  153.8620 O   0  0  0  0  0  0  0  0  0  0  0  0
  161.1730  206.9830  151.5270 C   0  0  0  0  0  2  0  0  0  0  0  0
  161.2110  207.4050  152.9210 C   0  0  0  0  0  0  0  0  0  0  0  0
  160.6260  209.7030  155.1640 C   0  0  0  0  0  2  0  0  0  0  0  0
  160.4470  209.6280  153.6620 C   0  0  0  0  0  3  0  0  0  0  0  0
  161.0020  210.8870  154.3000 C   0  0  0  0  0  2  0  0  0  0  0  0
  1  2  2  0  0  0  0
  2  3  1  0  0  0  0
  2  8  1  0  0  0  0
  4  5  1  0  0  0  0
  5  9  1  0  0  0  0
  5  3  2  0  0  0  0
  6  4  1  0  0  0  0
  6  1  1  0  0  0  0
  7  6  2  0  0  0  0
  8 17  1  0  0  0  0
  9 11  1  0  0  0  0
 10  9  2  0  0  0  0
 11 12  1  0  0  0  0
 12 13  1  0  0  0  0
 13 14  1  0  0  0  0
 14 16  1  0  0  0  0
 15 14  2  0  0  0  0
 17 18  1  0  0  0  0
 19 26  1  6  0  0  0
 20 19  1  0  0  0  0
 21 18  1  6  0  0  0
 21 23  1  0  0  0  0
 21 20  1  0  0  0  0
 23 24  1  0  0  0  0
 24 19  1  0  0  0  0
 24 22  2  0  0  0  0
 26 27  1  0  0  0  0
 26 25  1  0  0  0  0
 27 25  1  0  0  0  0
M  END
>  <MODEL>
7

>  <REMARK>
 VINA RESULT:      -7.1      2.512      4.810
  Name = 
  9 active torsions:
  status: ('A' for Active; 'I' for Inactive)
    1  A    between atoms: C_1  and  C_12
    2  A    between atoms: C_1  and  C_18
    3  A    between atoms: C_4  and  C_22
    4  A    between atoms: N_8  and  O_16
    5  A    between atoms: N_8  and  N_25
    6  A    between atoms: C_10  and  C_13
    7  A    between atoms: C_10  and  O_27
    8  A    between atoms: C_11  and  O_16
    9  A    between atoms: C_12  and  O_27
                            x       y       z     vdW  Elec       q    Type
                         _______ _______ _______ _____ _____    ______ ____

>  <TORSDO>
F 9

$$$$
=
 OpenBabel11072412243D

 27 29  0  0  1  0  0  0  0  0999 V2000
  160.8540  206.8150  153.8460 N   0  0  0  0  0  0  0  0  0  0  0  0
  161.2100  206.0440  152.8640 C   0  0  0  0  0  0  0  0  0  0  0  0
  161.6230  206.6260  151.5730 C   0  0  0  0  0  3  0  0  0  0  0  0
  161.2880  208.9180  152.4690 C   0  0  0  0  0  2  0  0  0  0  0  0
  161.6620  207.9480  151.3740 C   0  0  0  0  0  0  0  0  0  0  0  0
  160.8500  208.2420  153.7360 C   0  0  0  0  0  0  0  0  0  0  0  0
  160.4810  208.9420  154.7150 O   0  0  0  0  0  0  0  0  0  0  0  0
  161.1910  204.6270  153.0470 N   0  0  0  0  0  2  0  0  0  0  0  0
  162.0890  208.4830  150.0710 C   0  0  0  0  0  0  0  0  0  0  0  0
  162.3180  207.7010  149.1060 O   0  0  0  0  0  0  0  0  0  0  0  0
  162.2510  209.8630  149.9120 O   0  0  0  0  0  0  0  0  0  0  0  0
  162.2610  210.4880  148.6340 C   0  0  0  0  0  2  0  0  0  0  0  0
  161.8860  211.9540  148.7650 C   0  0  0  0  0  2  0  0  0  0  0  0
  161.6160  212.5280  147.4170 C   0  0  0  0  0  0  0  0  0  0  0  0
  160.4310  212.6320  147.0030 O   0  0  0  0  0  1  0  0  0  0  0  0
  162.6670  212.9810  146.6310 O   0  0  0  0  0  0  0  0  0  0  0  0
  161.5810  203.7410  152.0330 N   0  0  0  0  0  2  0  0  0  0  0  0
  160.6600  203.8400  151.0380 O   0  0  0  0  0  0  0  0  0  0  0  0
  160.9130  204.0080  147.6120 C   0  0  2  0  0  3  0  0  0  0  0  0
  161.0620  204.6310  148.8700 O   0  0  0  0  0  0  0  0  0  0  0  0
  161.3390  203.6150  149.8240 C   0  0  2  0  0  3  0  0  0  0  0  0
  160.6450  201.7210  146.9890 O   0  0  0  0  0  0  0  0  0  0  0  0
  161.0640  202.2300  149.2590 C   0  0  0  0  0  2  0  0  0  0  0  0
  160.8640  202.5530  147.8530 C   0  0  0  0  0  0  0  0  0  0  0  0
  161.6470  204.3270  145.2660 C   0  0  0  0  0  2  0  0  0  0  0  0
  162.0890  204.3640  146.7150 C   0  0  0  0  0  3  0  0  0  0  0  0
  161.7860  205.6540  145.9790 C   0  0  0  0  0  2  0  0  0  0  0  0
  2  8  1  0  0  0  0
  2  1  2  0  0  0  0
  3  2  1  0  0  0  0
  4  6  1  0  0  0  0
  5  3  2  0  0  0  0
  5  4  1  0  0  0  0
  6  1  1  0  0  0  0
  6  7  2  0  0  0  0
  9  5  1  0  0  0  0
 10  9  2  0  0  0  0
 11  9  1  0  0  0  0
 12 13  1  0  0  0  0
 12 11  1  0  0  0  0
 14 13  1  0  0  0  0
 15 14  1  0  0  0  0
 16 14  2  0  0  0  0
 17  8  1  0  0  0  0
 18 17  1  0  0  0  0
 19 26  1  6  0  0  0
 19 24  1  0  0  0  0
 19 20  1  0  0  0  0
 20 21  1  0  0  0  0
 21 18  1  1  0  0  0
 22 24  2  0  0  0  0
 23 21  1  0  0  0  0
 24 23  1  0  0  0  0
 25 27  1  0  0  0  0
 25 26  1  0  0  0  0
 27 26  1  0  0  0  0
M  END
>  <MODEL>
8

>  <REMARK>
 VINA RESULT:      -7.0      3.063      7.453
  Name = 
  9 active torsions:
  status: ('A' for Active; 'I' for Inactive)
    1  A    between atoms: C_1  and  C_12
    2  A    between atoms: C_1  and  C_18
    3  A    between atoms: C_4  and  C_22
    4  A    between atoms: N_8  and  O_16
    5  A    between atoms: N_8  and  N_25
    6  A    between atoms: C_10  and  C_13
    7  A    between atoms: C_10  and  O_27
    8  A    between atoms: C_11  and  O_16
    9  A    between atoms: C_12  and  O_27
                            x       y       z     vdW  Elec       q    Type
                         _______ _______ _______ _____ _____    ______ ____

>  <TORSDO>
F 9

$$$$
=
 OpenBabel11072412243D

 27 29  0  0  1  0  0  0  0  0999 V2000
  161.2170  207.1380  155.2510 N   0  0  0  0  0  0  0  0  0  0  0  0
  161.1050  206.9000  153.9800 C   0  0  0  0  0  0  0  0  0  0  0  0
  160.8430  208.0030  153.0360 C   0  0  0  0  0  3  0  0  0  0  0  0
  160.8710  209.6410  154.9020 C   0  0  0  0  0  2  0  0  0  0  0  0
  160.7300  209.2710  153.4460 C   0  0  0  0  0  0  0  0  0  0  0  0
  161.1040  208.4570  155.7950 C   0  0  0  0  0  0  0  0  0  0  0  0
  161.2050  208.6290  157.0370 O   0  0  0  0  0  0  0  0  0  0  0  0
  161.2330  205.5580  153.5070 N   0  0  0  0  0  2  0  0  0  0  0  0
  160.4770  210.3400  152.4650 C   0  0  0  0  0  0  0  0  0  0  0  0
  159.3680  210.9440  152.4540 O   0  0  0  0  0  0  0  0  0  0  0  0
  161.4700  210.6740  151.5380 O   0  0  0  0  0  0  0  0  0  0  0  0
  162.3310  209.7020  150.9600 C   0  0  0  0  0  2  0  0  0  0  0  0
  162.0360  209.5550  149.4770 C   0  0  0  0  0  2  0  0  0  0  0  0
  161.8680  208.1150  149.1360 C   0  0  0  0  0  0  0  0  0  0  0  0
  160.8310  207.4990  149.4980 O   0  0  0  0  0  1  0  0  0  0  0  0
  162.8370  207.4610  148.3860 O   0  0  0  0  0  0  0  0  0  0  0  0
  161.1410  205.2360  152.1450 N   0  0  0  0  0  2  0  0  0  0  0  0
  160.8370  203.9140  152.0650 O   0  0  0  0  0  0  0  0  0  0  0  0
  160.8240  203.6100  148.6400 C   0  0  2  0  0  3  0  0  0  0  0  0
  161.1620  204.3570  149.7890 O   0  0  0  0  0  0  0  0  0  0  0  0
  161.3740  203.4400  150.8530 C   0  0  2  0  0  3  0  0  0  0  0  0
  160.1910  201.3280  148.3530 O   0  0  0  0  0  0  0  0  0  0  0  0
  160.8640  202.0500  150.5010 C   0  0  0  0  0  2  0  0  0  0  0  0
  160.5940  202.2210  149.0800 C   0  0  0  0  0  0  0  0  0  0  0  0
  161.4110  203.4230  146.2390 C   0  0  0  0  0  2  0  0  0  0  0  0
  161.9590  203.6720  147.6290 C   0  0  0  0  0  3  0  0  0  0  0  0
  161.7270  204.8340  146.6840 C   0  0  0  0  0  2  0  0  0  0  0  0
  1  6  1  0  0  0  0
  2  1  2  0  0  0  0
  3  5  2  0  0  0  0
  3  2  1  0  0  0  0
  4  6  1  0  0  0  0
  5  4  1  0  0  0  0
  6  7  2  0  0  0  0
  8  2  1  0  0  0  0
  9  5  1  0  0  0  0
 10  9  2  0  0  0  0
 11  9  1  0  0  0  0
 12 11  1  0  0  0  0
 13 12  1  0  0  0  0
 14 13  1  0  0  0  0
 14 15  1  0  0  0  0
 16 14  2  0  0  0  0
 17  8  1  0  0  0  0
 18 17  1  0  0  0  0
 19 26  1  6  0  0  0
 19 24  1  0  0  0  0
 19 20  1  0  0  0  0
 20 21  1  0  0  0  0
 21 18  1  1  0  0  0
 22 24  2  0  0  0  0
 23 21  1  0  0  0  0
 24 23  1  0  0  0  0
 25 27  1  0  0  0  0
 25 26  1  0  0  0  0
 27 26  1  0  0  0  0
M  END
>  <MODEL>
9

>  <REMARK>
 VINA RESULT:      -7.0      2.088      7.324
  Name = 
  9 active torsions:
  status: ('A' for Active; 'I' for Inactive)
    1  A    between atoms: C_1  and  C_12
    2  A    between atoms: C_1  and  C_18
    3  A    between atoms: C_4  and  C_22
    4  A    between atoms: N_8  and  O_16
    5  A    between atoms: N_8  and  N_25
    6  A    between atoms: C_10  and  C_13
    7  A    between atoms: C_10  and  O_27
    8  A    between atoms: C_11  and  O_16
    9  A    between atoms: C_12  and  O_27
                            x       y       z     vdW  Elec       q    Type
                         _______ _______ _______ _____ _____    ______ ____

>  <TORSDO>
F 9

$$$$
