=
 OpenBabel11072413123D

 34 36  0  0  1  0  0  0  0  0999 V2000
  160.5440  211.8960  151.9990 C   0  0  0  0  0  3  0  0  0  0  0  0
  160.8990  209.5490  152.0800 C   0  0  0  0  0  0  0  0  0  0  0  0
  161.5720  210.7910  150.1110 C   0  0  0  0  0  0  0  0  0  0  0  0
  160.4560  210.7050  152.6460 N   0  0  0  0  0  0  0  0  0  0  0  0
  161.4650  209.5660  150.7940 C   0  0  0  0  0  0  0  0  0  0  0  0
  161.1010  211.9600  150.7220 C   0  0  0  0  0  3  0  0  0  0  0  0
  160.7770  208.3270  152.8010 N   0  0  0  0  0  1  0  0  0  0  0  0
  161.9220  208.3510  150.1920 N   0  0  0  0  0  0  0  0  0  0  0  0
  161.6900  206.0230  150.9310 C   0  0  0  0  0  2  0  0  0  0  0  0
  162.5130  207.3040  151.0180 C   0  0  0  0  0  2  0  0  0  0  0  0
  161.5960  205.5600  149.5520 N   0  0  0  0  0  0  0  0  0  0  0  0
  161.1470  207.0830  146.8600 F   0  0  0  0  0  0  0  0  0  0  0  0
  160.4360  206.2280  148.9680 C   0  0  0  0  0  2  0  0  0  0  0  0
  160.8420  207.4610  148.1530 C   0  0  1  0  0  3  0  0  0  0  0  0
  162.0190  208.2460  148.7410 C   0  0  0  0  0  2  0  0  0  0  0  0
  161.3650  203.3600  148.4500 C   0  0  0  0  0  0  0  0  0  0  0  0
  161.2970  204.1910  149.6090 N   0  0  0  0  0  2  0  0  0  0  0  0
  161.0350  201.9810  148.5490 N   0  0  0  0  0  1  0  0  0  0  0  0
  161.7210  203.8400  147.3410 O   0  0  0  0  0  0  0  0  0  0  0  0
  162.6740  213.1620  147.8800 C   0  0  0  0  0  0  0  0  0  0  0  0
  163.3070  214.2040  147.9420 O   0  0  0  0  0  0  0  0  0  0  0  0
  162.1590  210.8420  148.7230 C   0  0  1  0  0  3  0  0  0  0  0  0
  161.3870  213.1250  147.1120 C   0  0  2  0  0  3  0  0  0  0  0  0
  161.1910  210.7860  147.6920 O   0  0  0  0  0  0  0  0  0  0  0  0
  163.2320  211.9220  148.5160 C   0  0  0  0  0  2  0  0  0  0  0  0
  160.4960  212.0100  147.6550 C   0  0  0  0  0  2  0  0  0  0  0  0
  160.7710  213.2880  144.6590 C   0  0  0  0  0  0  0  0  0  0  0  0
  159.6920  213.8780  144.9360 O   0  0  0  0  0  0  0  0  0  0  0  0
  161.6710  212.8990  145.7010 N   0  0  0  0  0  2  0  0  0  0  0  0
  161.1080  213.0160  143.2280 C   0  0  2  0  0  3  0  0  0  0  0  0
  160.3430  211.8050  142.7050 C   0  0  0  0  0  2  0  0  0  0  0  0
  160.8980  211.3640  141.3640 C   0  0  0  0  0  1  0  0  0  0  0  0
  163.1390  213.9890  142.3550 O   0  0  0  0  0  1  0  0  0  0  0  0
  162.6180  212.8780  143.0260 C   0  0  0  0  0  2  0  0  0  0  0  0
  1  4  1  0  0  0  0
  2  4  2  0  0  0  0
  2  7  1  0  0  0  0
  3  6  1  0  0  0  0
  3  5  2  0  0  0  0
  5  2  1  0  0  0  0
  6  1  2  0  0  0  0
  8  5  1  0  0  0  0
  8 10  1  0  0  0  0
  9 10  1  0  0  0  0
 11 17  1  0  0  0  0
 11  9  1  0  0  0  0
 13 11  1  0  0  0  0
 14 12  1  6  0  0  0
 14 15  1  0  0  0  0
 14 13  1  0  0  0  0
 15  8  1  0  0  0  0
 16 18  1  0  0  0  0
 16 17  1  0  0  0  0
 19 16  2  0  0  0  0
 20 21  2  0  0  0  0
 20 25  1  0  0  0  0
 22  3  1  1  0  0  0
 23 29  1  6  0  0  0
 23 26  1  0  0  0  0
 23 20  1  0  0  0  0
 24 22  1  0  0  0  0
 25 22  1  0  0  0  0
 26 24  1  0  0  0  0
 27 28  2  0  0  0  0
 27 29  1  0  0  0  0
 30 31  1  1  0  0  0
 30 27  1  0  0  0  0
 32 31  1  0  0  0  0
 33 34  1  0  0  0  0
 34 30  1  0  0  0  0
M  END
>  <MODEL>
1

>  <REMARK>
 VINA RESULT:      -4.4      0.000      0.000
  Name = 
  7 active torsions:
  status: ('A' for Active; 'I' for Inactive)
    1  A    between atoms: C_2  and  C_17
    2  A    between atoms: N_6  and  C_25
    3  A    between atoms: C_10  and  C_13
    4  A    between atoms: N_11  and  N_16
    5  A    between atoms: N_14  and  C_18
    6  A    between atoms: C_15  and  C_17
    7  A    between atoms: C_17  and  C_30
                            x       y       z     vdW  Elec       q    Type
                         _______ _______ _______ _____ _____    ______ ____

>  <TORSDO>
F 7

$$$$
=
 OpenBabel11072413123D

 34 36  0  0  1  0  0  0  0  0999 V2000
  162.4970  209.5370  156.7050 C   0  0  0  0  0  3  0  0  0  0  0  0
  160.7920  211.1670  156.4280 C   0  0  0  0  0  0  0  0  0  0  0  0
  160.7450  209.1490  155.0860 C   0  0  0  0  0  0  0  0  0  0  0  0
  161.9280  210.7260  157.0330 N   0  0  0  0  0  0  0  0  0  0  0  0
  160.1760  210.3870  155.4340 C   0  0  0  0  0  0  0  0  0  0  0  0
  161.9190  208.7300  155.7260 C   0  0  0  0  0  3  0  0  0  0  0  0
  160.2410  212.4240  156.8060 N   0  0  0  0  0  1  0  0  0  0  0  0
  158.9870  210.8530  154.7870 N   0  0  0  0  0  0  0  0  0  0  0  0
  156.8330  211.5550  155.7300 C   0  0  0  0  0  2  0  0  0  0  0  0
  157.6810  210.3870  155.2370 C   0  0  0  0  0  2  0  0  0  0  0  0
  156.6590  212.5490  154.6770 N   0  0  0  0  0  0  0  0  0  0  0  0
  158.6370  213.7210  152.5590 F   0  0  0  0  0  0  0  0  0  0  0  0
  157.7960  213.4600  154.7740 C   0  0  0  0  0  2  0  0  0  0  0  0
  158.8970  213.1050  153.7680 C   0  0  1  0  0  3  0  0  0  0  0  0
  159.0790  211.6010  153.5380 C   0  0  0  0  0  2  0  0  0  0  0  0
  155.2650  213.7260  156.3440 C   0  0  0  0  0  0  0  0  0  0  0  0
  155.5120  213.2850  155.0080 N   0  0  0  0  0  2  0  0  0  0  0  0
  154.0800  214.4530  156.6390 N   0  0  0  0  0  1  0  0  0  0  0  0
  156.0920  213.4790  157.2610 O   0  0  0  0  0  0  0  0  0  0  0  0
  161.4020  206.2000  153.4470 C   0  0  0  0  0  0  0  0  0  0  0  0
  161.8370  205.1010  153.7520 O   0  0  0  0  0  0  0  0  0  0  0  0
  160.1190  208.2970  154.0110 C   0  0  1  0  0  3  0  0  0  0  0  0
  161.9700  206.9160  152.2590 C   0  0  2  0  0  3  0  0  0  0  0  0
  160.4230  208.7210  152.6960 O   0  0  0  0  0  0  0  0  0  0  0  0
  160.2590  206.7820  154.2280 C   0  0  0  0  0  2  0  0  0  0  0  0
  161.7710  208.4210  152.4220 C   0  0  0  0  0  2  0  0  0  0  0  0
  161.4360  205.1090  150.5650 C   0  0  0  0  0  0  0  0  0  0  0  0
  162.1190  204.2630  151.2030 O   0  0  0  0  0  0  0  0  0  0  0  0
  161.3080  206.4490  151.0490 N   0  0  0  0  0  2  0  0  0  0  0  0
  160.7460  204.6900  149.3060 C   0  0  2  0  0  3  0  0  0  0  0  0
  161.2960  203.3640  148.7950 C   0  0  0  0  0  2  0  0  0  0  0  0
  160.1970  202.5510  148.1350 C   0  0  0  0  0  1  0  0  0  0  0  0
  161.1800  205.2700  147.0030 O   0  0  0  0  0  1  0  0  0  0  0  0
  160.8030  205.7890  148.2450 C   0  0  0  0  0  2  0  0  0  0  0  0
  1  4  1  0  0  0  0
  2  7  1  0  0  0  0
  2  4  2  0  0  0  0
  3  5  2  0  0  0  0
  3  6  1  0  0  0  0
  5  2  1  0  0  0  0
  6  1  2  0  0  0  0
  8 10  1  0  0  0  0
  8  5  1  0  0  0  0
 10  9  1  0  0  0  0
 11 13  1  0  0  0  0
 11 17  1  0  0  0  0
 11  9  1  0  0  0  0
 14 12  1  6  0  0  0
 14 13  1  0  0  0  0
 15 14  1  0  0  0  0
 15  8  1  0  0  0  0
 16 18  1  0  0  0  0
 16 19  2  0  0  0  0
 17 16  1  0  0  0  0
 20 21  2  0  0  0  0
 20 25  1  0  0  0  0
 22 25  1  0  0  0  0
 22  3  1  1  0  0  0
 23 29  1  6  0  0  0
 23 26  1  0  0  0  0
 23 20  1  0  0  0  0
 24 22  1  0  0  0  0
 26 24  1  0  0  0  0
 27 29  1  0  0  0  0
 27 28  2  0  0  0  0
 30 34  1  6  0  0  0
 30 27  1  0  0  0  0
 31 30  1  0  0  0  0
 32 31  1  0  0  0  0
 33 34  1  0  0  0  0
M  END
>  <MODEL>
2

>  <REMARK>
 VINA RESULT:      -3.7      5.646      9.172
  Name = 
  7 active torsions:
  status: ('A' for Active; 'I' for Inactive)
    1  A    between atoms: C_2  and  C_17
    2  A    between atoms: N_6  and  C_25
    3  A    between atoms: C_10  and  C_13
    4  A    between atoms: N_11  and  N_16
    5  A    between atoms: N_14  and  C_18
    6  A    between atoms: C_15  and  C_17
    7  A    between atoms: C_17  and  C_30
                            x       y       z     vdW  Elec       q    Type
                         _______ _______ _______ _____ _____    ______ ____

>  <TORSDO>
F 7

$$$$
=
 OpenBabel11072413123D

 34 36  0  0  1  0  0  0  0  0999 V2000
  161.6640  205.6020  153.8180 C   0  0  0  0  0  3  0  0  0  0  0  0
  161.0850  204.2580  151.9470 C   0  0  0  0  0  0  0  0  0  0  0  0
  161.2400  206.6630  151.6880 C   0  0  0  0  0  0  0  0  0  0  0  0
  161.4200  204.3870  153.2590 N   0  0  0  0  0  0  0  0  0  0  0  0
  160.9830  205.3970  151.1310 C   0  0  0  0  0  0  0  0  0  0  0  0
  161.5770  206.7580  153.0450 C   0  0  0  0  0  3  0  0  0  0  0  0
  160.8340  202.9610  151.4140 N   0  0  0  0  0  1  0  0  0  0  0  0
  160.6210  205.2660  149.7520 N   0  0  0  0  0  0  0  0  0  0  0  0
  161.2070  206.6480  147.8120 C   0  0  0  0  0  2  0  0  0  0  0  0
  160.2470  206.4440  148.9790 C   0  0  0  0  0  2  0  0  0  0  0  0
  161.2200  205.4790  146.9420 N   0  0  0  0  0  0  0  0  0  0  0  0
  161.2100  202.4140  147.5540 F   0  0  0  0  0  0  0  0  0  0  0  0
  162.2250  204.5690  147.4820 C   0  0  0  0  0  2  0  0  0  0  0  0
  161.5930  203.4750  148.3510 C   0  0  1  0  0  3  0  0  0  0  0  0
  160.3930  203.9440  149.1800 C   0  0  0  0  0  2  0  0  0  0  0  0
  161.2220  205.3360  144.4740 C   0  0  0  0  0  0  0  0  0  0  0  0
  161.6880  205.9150  145.6940 N   0  0  0  0  0  2  0  0  0  0  0  0
  161.7380  205.7950  143.2320 N   0  0  0  0  0  1  0  0  0  0  0  0
  160.3530  204.4240  144.4920 O   0  0  0  0  0  0  0  0  0  0  0  0
  162.5000  209.8600  151.6470 C   0  0  0  0  0  0  0  0  0  0  0  0
  163.5800  210.3840  151.8690 O   0  0  0  0  0  0  0  0  0  0  0  0
  161.1220  207.9070  150.8440 C   0  0  1  0  0  3  0  0  0  0  0  0
  161.2630  210.4220  152.2790 C   0  0  2  0  0  3  0  0  0  0  0  0
  159.9920  208.7010  151.1530 O   0  0  0  0  0  0  0  0  0  0  0  0
  162.4260  208.7060  150.6890 C   0  0  0  0  0  2  0  0  0  0  0  0
  160.2030  209.3280  152.3950 C   0  0  0  0  0  2  0  0  0  0  0  0
  159.9670  212.5830  152.0110 C   0  0  0  0  0  0  0  0  0  0  0  0
  159.6950  212.6110  153.2420 O   0  0  0  0  0  0  0  0  0  0  0  0
  160.7610  211.5240  151.4690 N   0  0  0  0  0  2  0  0  0  0  0  0
  159.4660  213.6810  151.1280 C   0  0  2  0  0  3  0  0  0  0  0  0
  157.9440  213.7520  151.1530 C   0  0  0  0  0  2  0  0  0  0  0  0
  157.3720  213.3710  149.8000 C   0  0  0  0  0  1  0  0  0  0  0  0
  161.0610  214.4530  149.4870 O   0  0  0  0  0  1  0  0  0  0  0  0
  160.0170  213.5500  149.7070 C   0  0  0  0  0  2  0  0  0  0  0  0
  2  4  2  0  0  0  0
  3  6  1  0  0  0  0
  4  1  1  0  0  0  0
  5  3  2  0  0  0  0
  5  2  1  0  0  0  0
  6  1  2  0  0  0  0
  7  2  1  0  0  0  0
  8  5  1  0  0  0  0
  9 10  1  0  0  0  0
 10  8  1  0  0  0  0
 11 13  1  0  0  0  0
 11  9  1  0  0  0  0
 13 14  1  0  0  0  0
 14 12  1  6  0  0  0
 14 15  1  0  0  0  0
 15  8  1  0  0  0  0
 16 19  2  0  0  0  0
 16 17  1  0  0  0  0
 17 11  1  0  0  0  0
 18 16  1  0  0  0  0
 20 21  2  0  0  0  0
 20 23  1  0  0  0  0
 22 24  1  0  0  0  0
 22  3  1  1  0  0  0
 23 29  1  6  0  0  0
 23 26  1  0  0  0  0
 24 26  1  0  0  0  0
 25 22  1  0  0  0  0
 25 20  1  0  0  0  0
 27 28  2  0  0  0  0
 29 27  1  0  0  0  0
 30 34  1  6  0  0  0
 30 31  1  0  0  0  0
 30 27  1  0  0  0  0
 32 31  1  0  0  0  0
 33 34  1  0  0  0  0
M  END
>  <MODEL>
3

>  <REMARK>
 VINA RESULT:      -3.0      3.795      5.643
  Name = 
  7 active torsions:
  status: ('A' for Active; 'I' for Inactive)
    1  A    between atoms: C_2  and  C_17
    2  A    between atoms: N_6  and  C_25
    3  A    between atoms: C_10  and  C_13
    4  A    between atoms: N_11  and  N_16
    5  A    between atoms: N_14  and  C_18
    6  A    between atoms: C_15  and  C_17
    7  A    between atoms: C_17  and  C_30
                            x       y       z     vdW  Elec       q    Type
                         _______ _______ _______ _____ _____    ______ ____

>  <TORSDO>
F 7

$$$$
=
 OpenBabel11072413123D

 34 36  0  0  1  0  0  0  0  0999 V2000
  160.6070  205.9170  154.5940 C   0  0  0  0  0  3  0  0  0  0  0  0
  161.2960  204.8500  152.5880 C   0  0  0  0  0  0  0  0  0  0  0  0
  161.2620  207.2710  152.7030 C   0  0  0  0  0  0  0  0  0  0  0  0
  160.8550  204.7930  153.8730 N   0  0  0  0  0  0  0  0  0  0  0  0
  161.5060  206.0960  151.9700 C   0  0  0  0  0  0  0  0  0  0  0  0
  160.8030  207.1730  154.0230 C   0  0  0  0  0  3  0  0  0  0  0  0
  161.5350  203.6400  151.8760 N   0  0  0  0  0  1  0  0  0  0  0  0
  161.9590  206.1600  150.6140 N   0  0  0  0  0  0  0  0  0  0  0  0
  160.9810  205.2340  148.5630 C   0  0  0  0  0  2  0  0  0  0  0  0
  161.8870  204.9780  149.7630 C   0  0  0  0  0  2  0  0  0  0  0  0
  161.4640  206.3660  147.7820 N   0  0  0  0  0  0  0  0  0  0  0  0
  162.6260  209.1440  148.6230 F   0  0  0  0  0  0  0  0  0  0  0  0
  160.8620  207.5610  148.3680 C   0  0  0  0  0  2  0  0  0  0  0  0
  161.8230  208.2690  149.3290 C   0  0  1  0  0  3  0  0  0  0  0  0
  162.7070  207.3210  150.1480 C   0  0  0  0  0  2  0  0  0  0  0  0
  161.6570  205.5870  145.4450 C   0  0  0  0  0  0  0  0  0  0  0  0
  160.9270  206.2230  146.4950 N   0  0  0  0  0  2  0  0  0  0  0  0
  161.0810  205.4810  144.1490 N   0  0  0  0  0  1  0  0  0  0  0  0
  162.8050  205.1170  145.6600 O   0  0  0  0  0  0  0  0  0  0  0  0
  161.7240  210.5300  153.6930 C   0  0  0  0  0  0  0  0  0  0  0  0
  162.3470  211.1030  154.5720 O   0  0  0  0  0  0  0  0  0  0  0  0
  161.4600  208.6230  152.0640 C   0  0  1  0  0  3  0  0  0  0  0  0
  160.2810  210.8660  153.4710 C   0  0  2  0  0  3  0  0  0  0  0  0
  160.2540  209.2510  151.6730 O   0  0  0  0  0  0  0  0  0  0  0  0
  162.4360  209.5490  152.8060 C   0  0  0  0  0  2  0  0  0  0  0  0
  159.5690  209.6790  152.8260 C   0  0  0  0  0  2  0  0  0  0  0  0
  158.9770  212.7980  152.4760 C   0  0  0  0  0  0  0  0  0  0  0  0
  157.9480  212.4840  153.1320 O   0  0  0  0  0  0  0  0  0  0  0  0
  160.1820  212.0390  152.6130 N   0  0  0  0  0  2  0  0  0  0  0  0
  158.9300  213.9840  151.5660 C   0  0  2  0  0  3  0  0  0  0  0  0
  157.4950  214.4450  151.3410 C   0  0  0  0  0  2  0  0  0  0  0  0
  157.0610  214.1550  149.9160 C   0  0  0  0  0  1  0  0  0  0  0  0
  160.8540  214.4410  150.1800 O   0  0  0  0  0  1  0  0  0  0  0  0
  159.6630  213.7110  150.2530 C   0  0  0  0  0  2  0  0  0  0  0  0
  2  4  1  0  0  0  0
  3  6  2  0  0  0  0
  4  1  2  0  0  0  0
  5  2  2  0  0  0  0
  5  3  1  0  0  0  0
  6  1  1  0  0  0  0
  7  2  1  0  0  0  0
  8  5  1  0  0  0  0
  9 10  1  0  0  0  0
 10  8  1  0  0  0  0
 11 13  1  0  0  0  0
 11  9  1  0  0  0  0
 13 14  1  0  0  0  0
 14 12  1  6  0  0  0
 14 15  1  0  0  0  0
 15  8  1  0  0  0  0
 16 19  2  0  0  0  0
 16 17  1  0  0  0  0
 17 11  1  0  0  0  0
 18 16  1  0  0  0  0
 20 21  2  0  0  0  0
 22  3  1  1  0  0  0
 22 25  1  0  0  0  0
 23 29  1  6  0  0  0
 23 20  1  0  0  0  0
 24 22  1  0  0  0  0
 24 26  1  0  0  0  0
 25 20  1  0  0  0  0
 26 23  1  0  0  0  0
 27 29  1  0  0  0  0
 27 28  2  0  0  0  0
 30 34  1  6  0  0  0
 30 27  1  0  0  0  0
 31 30  1  0  0  0  0
 32 31  1  0  0  0  0
 33 34  1  0  0  0  0
M  END
>  <MODEL>
4

>  <REMARK>
 VINA RESULT:      -2.6      4.048      5.715
  Name = 
  7 active torsions:
  status: ('A' for Active; 'I' for Inactive)
    1  A    between atoms: C_2  and  C_17
    2  A    between atoms: N_6  and  C_25
    3  A    between atoms: C_10  and  C_13
    4  A    between atoms: N_11  and  N_16
    5  A    between atoms: N_14  and  C_18
    6  A    between atoms: C_15  and  C_17
    7  A    between atoms: C_17  and  C_30
                            x       y       z     vdW  Elec       q    Type
                         _______ _______ _______ _____ _____    ______ ____

>  <TORSDO>
F 7

$$$$
=
 OpenBabel11072413123D

 34 36  0  0  1  0  0  0  0  0999 V2000
  162.6750  209.3300  156.9680 C   0  0  0  0  0  3  0  0  0  0  0  0
  161.6280  211.4180  156.5420 C   0  0  0  0  0  0  0  0  0  0  0  0
  161.0360  209.4890  155.2000 C   0  0  0  0  0  0  0  0  0  0  0  0
  162.5020  210.6480  157.2460 N   0  0  0  0  0  0  0  0  0  0  0  0
  160.8760  210.8540  155.4970 C   0  0  0  0  0  0  0  0  0  0  0  0
  161.9490  208.7280  155.9410 C   0  0  0  0  0  3  0  0  0  0  0  0
  161.4890  212.7970  156.8720 N   0  0  0  0  0  1  0  0  0  0  0  0
  159.9630  211.6640  154.7490 N   0  0  0  0  0  0  0  0  0  0  0  0
  159.6710  211.9090  152.3250 C   0  0  0  0  0  2  0  0  0  0  0  0
  160.4240  212.3800  153.5650 C   0  0  0  0  0  2  0  0  0  0  0  0
  158.2360  212.1060  152.4850 N   0  0  0  0  0  0  0  0  0  0  0  0
  156.3180  211.6500  154.9110 F   0  0  0  0  0  0  0  0  0  0  0  0
  157.7210  210.9040  153.1350 C   0  0  0  0  0  2  0  0  0  0  0  0
  157.5570  211.1000  154.6460 C   0  0  1  0  0  3  0  0  0  0  0  0
  158.6440  211.9690  155.2890 C   0  0  0  0  0  2  0  0  0  0  0  0
  157.2530  213.3640  150.5980 C   0  0  0  0  0  0  0  0  0  0  0  0
  157.6910  212.1410  151.1930 N   0  0  0  0  0  2  0  0  0  0  0  0
  156.6880  213.3510  149.2930 N   0  0  0  0  0  1  0  0  0  0  0  0
  157.3680  214.4530  151.2190 O   0  0  0  0  0  0  0  0  0  0  0  0
  160.9490  206.5000  153.5050 C   0  0  0  0  0  0  0  0  0  0  0  0
  161.0530  205.3190  153.7960 O   0  0  0  0  0  0  0  0  0  0  0  0
  160.2570  208.8580  154.0730 C   0  0  1  0  0  3  0  0  0  0  0  0
  161.7510  207.0530  152.3660 C   0  0  2  0  0  3  0  0  0  0  0  0
  160.7320  209.2050  152.7860 O   0  0  0  0  0  0  0  0  0  0  0  0
  159.9690  207.3590  154.2510 C   0  0  0  0  0  2  0  0  0  0  0  0
  161.9600  208.5520  152.5640 C   0  0  0  0  0  2  0  0  0  0  0  0
  161.7190  206.7430  149.8510 C   0  0  0  0  0  0  0  0  0  0  0  0
  162.9710  206.8760  149.7860 O   0  0  0  0  0  0  0  0  0  0  0  0
  161.0500  206.8040  151.1130 N   0  0  0  0  0  2  0  0  0  0  0  0
  160.9450  206.5000  148.5950 C   0  0  2  0  0  3  0  0  0  0  0  0
  160.7890  205.0080  148.3270 C   0  0  0  0  0  2  0  0  0  0  0  0
  160.7780  204.2330  149.6310 C   0  0  0  0  0  1  0  0  0  0  0  0
  160.9120  206.9050  146.2140 O   0  0  0  0  0  1  0  0  0  0  0  0
  161.5590  207.2410  147.4070 C   0  0  0  0  0  2  0  0  0  0  0  0
  1  4  1  0  0  0  0
  2  7  1  0  0  0  0
  2  4  2  0  0  0  0
  3  5  2  0  0  0  0
  3  6  1  0  0  0  0
  5  2  1  0  0  0  0
  6  1  2  0  0  0  0
  8 15  1  0  0  0  0
  8  5  1  0  0  0  0
  9 11  1  0  0  0  0
  9 10  1  0  0  0  0
 10  8  1  0  0  0  0
 11 13  1  0  0  0  0
 13 14  1  0  0  0  0
 14 12  1  6  0  0  0
 14 15  1  0  0  0  0
 16 17  1  0  0  0  0
 16 19  2  0  0  0  0
 17 11  1  0  0  0  0
 18 16  1  0  0  0  0
 20 21  2  0  0  0  0
 20 25  1  0  0  0  0
 22 25  1  0  0  0  0
 22  3  1  1  0  0  0
 23 29  1  6  0  0  0
 23 26  1  0  0  0  0
 23 20  1  0  0  0  0
 24 22  1  0  0  0  0
 26 24  1  0  0  0  0
 27 29  1  0  0  0  0
 28 27  2  0  0  0  0
 30 34  1  6  0  0  0
 30 27  1  0  0  0  0
 31 30  1  0  0  0  0
 31 32  1  0  0  0  0
 33 34  1  0  0  0  0
M  END
>  <MODEL>
5

>  <REMARK>
 VINA RESULT:      -2.5      4.839      8.071
  Name = 
  7 active torsions:
  status: ('A' for Active; 'I' for Inactive)
    1  A    between atoms: C_2  and  C_17
    2  A    between atoms: N_6  and  C_25
    3  A    between atoms: C_10  and  C_13
    4  A    between atoms: N_11  and  N_16
    5  A    between atoms: N_14  and  C_18
    6  A    between atoms: C_15  and  C_17
    7  A    between atoms: C_17  and  C_30
                            x       y       z     vdW  Elec       q    Type
                         _______ _______ _______ _____ _____    ______ ____

>  <TORSDO>
F 7

$$$$
=
 OpenBabel11072413123D

 34 36  0  0  1  0  0  0  0  0999 V2000
  162.0580  209.2360  156.5430 C   0  0  0  0  0  3  0  0  0  0  0  0
  160.9600  210.9530  155.3250 C   0  0  0  0  0  0  0  0  0  0  0  0
  160.8210  208.6610  154.5480 C   0  0  0  0  0  0  0  0  0  0  0  0
  161.7240  210.5420  156.3720 N   0  0  0  0  0  0  0  0  0  0  0  0
  160.4930  210.0190  154.3840 C   0  0  0  0  0  0  0  0  0  0  0  0
  161.6160  208.2750  155.6350 C   0  0  0  0  0  3  0  0  0  0  0  0
  160.6440  212.3350  155.1900 N   0  0  0  0  0  1  0  0  0  0  0  0
  159.6970  210.4500  153.2750 N   0  0  0  0  0  0  0  0  0  0  0  0
  157.5990  211.7220  153.2200 C   0  0  0  0  0  2  0  0  0  0  0  0
  158.2440  210.3440  153.3340 C   0  0  0  0  0  2  0  0  0  0  0  0
  157.9890  212.3740  151.9760 N   0  0  0  0  0  0  0  0  0  0  0  0
  160.7240  212.5500  150.4740 F   0  0  0  0  0  0  0  0  0  0  0  0
  159.2330  213.0870  152.2530 C   0  0  0  0  0  2  0  0  0  0  0  0
  160.4590  212.2860  151.8040 C   0  0  1  0  0  3  0  0  0  0  0  0
  160.3300  210.7720  152.0020 C   0  0  0  0  0  2  0  0  0  0  0  0
  156.3870  213.4440  150.4280 C   0  0  0  0  0  0  0  0  0  0  0  0
  157.0100  213.3430  151.7090 N   0  0  0  0  0  2  0  0  0  0  0  0
  155.4130  214.4530  150.1950 N   0  0  0  0  0  1  0  0  0  0  0  0
  156.6900  212.6420  149.5060 O   0  0  0  0  0  0  0  0  0  0  0  0
  162.1680  206.1440  152.6330 C   0  0  0  0  0  0  0  0  0  0  0  0
  163.0140  205.2790  152.7860 O   0  0  0  0  0  0  0  0  0  0  0  0
  160.3510  207.6360  153.5460 C   0  0  1  0  0  3  0  0  0  0  0  0
  162.2120  207.0130  151.4130 C   0  0  2  0  0  3  0  0  0  0  0  0
  160.2340  208.1380  152.2290 O   0  0  0  0  0  0  0  0  0  0  0  0
  161.0590  206.2760  153.6380 C   0  0  0  0  0  2  0  0  0  0  0  0
  161.5240  208.3450  151.7040 C   0  0  0  0  0  2  0  0  0  0  0  0
  161.9200  206.5300  148.9420 C   0  0  0  0  0  0  0  0  0  0  0  0
  162.8790  207.2930  148.6470 O   0  0  0  0  0  0  0  0  0  0  0  0
  161.5460  206.3340  150.3090 N   0  0  0  0  0  2  0  0  0  0  0  0
  161.1900  205.8180  147.8490 C   0  0  2  0  0  3  0  0  0  0  0  0
  161.9350  204.5580  147.4230 C   0  0  0  0  0  2  0  0  0  0  0  0
  161.2370  203.3210  147.9580 C   0  0  0  0  0  1  0  0  0  0  0  0
  159.6000  206.5690  146.1940 O   0  0  0  0  0  1  0  0  0  0  0  0
  160.9030  206.7480  146.6700 C   0  0  0  0  0  2  0  0  0  0  0  0
  2  4  2  0  0  0  0
  3  6  1  0  0  0  0
  4  1  1  0  0  0  0
  5  3  2  0  0  0  0
  5  2  1  0  0  0  0
  6  1  2  0  0  0  0
  7  2  1  0  0  0  0
  8 10  1  0  0  0  0
  8  5  1  0  0  0  0
  9 10  1  0  0  0  0
 11 13  1  0  0  0  0
 11  9  1  0  0  0  0
 14 12  1  6  0  0  0
 14 15  1  0  0  0  0
 14 13  1  0  0  0  0
 15  8  1  0  0  0  0
 16 17  1  0  0  0  0
 17 11  1  0  0  0  0
 18 16  1  0  0  0  0
 19 16  2  0  0  0  0
 20 21  2  0  0  0  0
 20 25  1  0  0  0  0
 22 25  1  0  0  0  0
 22  3  1  1  0  0  0
 23 29  1  6  0  0  0
 23 26  1  0  0  0  0
 23 20  1  0  0  0  0
 24 22  1  0  0  0  0
 26 24  1  0  0  0  0
 27 29  1  0  0  0  0
 28 27  2  0  0  0  0
 30 34  1  6  0  0  0
 30 27  1  0  0  0  0
 31 30  1  0  0  0  0
 31 32  1  0  0  0  0
 33 34  1  0  0  0  0
M  END
>  <MODEL>
6

>  <REMARK>
 VINA RESULT:      -1.9      4.492      7.678
  Name = 
  7 active torsions:
  status: ('A' for Active; 'I' for Inactive)
    1  A    between atoms: C_2  and  C_17
    2  A    between atoms: N_6  and  C_25
    3  A    between atoms: C_10  and  C_13
    4  A    between atoms: N_11  and  N_16
    5  A    between atoms: N_14  and  C_18
    6  A    between atoms: C_15  and  C_17
    7  A    between atoms: C_17  and  C_30
                            x       y       z     vdW  Elec       q    Type
                         _______ _______ _______ _____ _____    ______ ____

>  <TORSDO>
F 7

$$$$
=
 OpenBabel11072413123D

 34 36  0  0  1  0  0  0  0  0999 V2000
  161.4020  205.8550  154.2880 C   0  0  0  0  0  3  0  0  0  0  0  0
  161.2340  206.0560  151.9280 C   0  0  0  0  0  0  0  0  0  0  0  0
  161.2050  208.0520  153.3010 C   0  0  0  0  0  0  0  0  0  0  0  0
  161.3560  205.2970  153.0500 N   0  0  0  0  0  0  0  0  0  0  0  0
  161.1510  207.4550  152.0290 C   0  0  0  0  0  0  0  0  0  0  0  0
  161.3250  207.2390  154.4360 C   0  0  0  0  0  3  0  0  0  0  0  0
  161.1850  205.4180  150.6550 N   0  0  0  0  0  1  0  0  0  0  0  0
  161.0120  208.2560  150.8510 N   0  0  0  0  0  0  0  0  0  0  0  0
  161.9570  210.4510  150.2970 C   0  0  0  0  0  2  0  0  0  0  0  0
  160.8130  209.6950  150.9650 C   0  0  0  0  0  2  0  0  0  0  0  0
  162.0660  210.0850  148.8900 N   0  0  0  0  0  0  0  0  0  0  0  0
  161.8420  207.3360  147.4190 F   0  0  0  0  0  0  0  0  0  0  0  0
  162.9360  208.9140  148.8310 C   0  0  0  0  0  2  0  0  0  0  0  0
  162.1310  207.6130  148.7410 C   0  0  1  0  0  3  0  0  0  0  0  0
  160.8310  207.6180  149.5520 C   0  0  0  0  0  2  0  0  0  0  0  0
  162.0470  212.2030  147.6170 C   0  0  0  0  0  0  0  0  0  0  0  0
  162.7470  211.1350  148.2560 N   0  0  0  0  0  2  0  0  0  0  0  0
  162.7760  213.2370  146.9690 N   0  0  0  0  0  1  0  0  0  0  0  0
  160.7880  212.2380  147.6270 O   0  0  0  0  0  0  0  0  0  0  0  0
  162.0080  210.4650  155.6150 C   0  0  0  0  0  0  0  0  0  0  0  0
  162.9380  210.6800  156.3750 O   0  0  0  0  0  0  0  0  0  0  0  0
  161.1010  209.5500  153.4460 C   0  0  1  0  0  3  0  0  0  0  0  0
  160.6020  210.5240  156.1300 C   0  0  2  0  0  3  0  0  0  0  0  0
  159.8360  209.9930  153.9000 O   0  0  0  0  0  0  0  0  0  0  0  0
  162.2900  210.2110  154.1610 C   0  0  0  0  0  2  0  0  0  0  0  0
  159.6970  209.6560  155.2600 C   0  0  0  0  0  2  0  0  0  0  0  0
  158.8550  212.2950  156.6130 C   0  0  0  0  0  0  0  0  0  0  0  0
  158.0790  211.4390  157.1170 O   0  0  0  0  0  0  0  0  0  0  0  0
  160.1390  211.9050  156.1170 N   0  0  0  0  0  2  0  0  0  0  0  0
  158.4260  213.7270  156.5580 C   0  0  2  0  0  3  0  0  0  0  0  0
  157.0830  213.9230  157.2510 C   0  0  0  0  0  2  0  0  0  0  0  0
  155.9850  214.1500  156.2280 C   0  0  0  0  0  1  0  0  0  0  0  0
  158.3990  213.2020  154.2010 O   0  0  0  0  0  1  0  0  0  0  0  0
  158.4200  214.2530  155.1230 C   0  0  0  0  0  2  0  0  0  0  0  0
  1  6  1  0  0  0  0
  2  5  2  0  0  0  0
  2  4  1  0  0  0  0
  3  6  2  0  0  0  0
  4  1  2  0  0  0  0
  5  3  1  0  0  0  0
  7  2  1  0  0  0  0
  8 10  1  0  0  0  0
  8  5  1  0  0  0  0
  9 10  1  0  0  0  0
 11  9  1  0  0  0  0
 13 11  1  0  0  0  0
 14 12  1  6  0  0  0
 14 13  1  0  0  0  0
 14 15  1  0  0  0  0
 15  8  1  0  0  0  0
 16 19  2  0  0  0  0
 16 17  1  0  0  0  0
 17 11  1  0  0  0  0
 18 16  1  0  0  0  0
 20 23  1  0  0  0  0
 20 21  2  0  0  0  0
 22  3  1  1  0  0  0
 22 24  1  0  0  0  0
 22 25  1  0  0  0  0
 23 29  1  6  0  0  0
 24 26  1  0  0  0  0
 25 20  1  0  0  0  0
 26 23  1  0  0  0  0
 27 28  2  0  0  0  0
 29 27  1  0  0  0  0
 30 34  1  6  0  0  0
 30 27  1  0  0  0  0
 30 31  1  0  0  0  0
 32 31  1  0  0  0  0
 33 34  1  0  0  0  0
M  END
>  <MODEL>
7

>  <REMARK>
 VINA RESULT:      -1.8      4.096      8.366
  Name = 
  7 active torsions:
  status: ('A' for Active; 'I' for Inactive)
    1  A    between atoms: C_2  and  C_17
    2  A    between atoms: N_6  and  C_25
    3  A    between atoms: C_10  and  C_13
    4  A    between atoms: N_11  and  N_16
    5  A    between atoms: N_14  and  C_18
    6  A    between atoms: C_15  and  C_17
    7  A    between atoms: C_17  and  C_30
                            x       y       z     vdW  Elec       q    Type
                         _______ _______ _______ _____ _____    ______ ____

>  <TORSDO>
F 7

$$$$
=
 OpenBabel11072413123D

 34 36  0  0  1  0  0  0  0  0999 V2000
  161.3200  205.8400  154.3360 C   0  0  0  0  0  3  0  0  0  0  0  0
  161.3960  205.2890  152.0270 C   0  0  0  0  0  0  0  0  0  0  0  0
  161.3810  207.6170  152.6990 C   0  0  0  0  0  0  0  0  0  0  0  0
  161.3530  204.9210  153.3360 N   0  0  0  0  0  0  0  0  0  0  0  0
  161.4070  206.6500  151.6780 C   0  0  0  0  0  0  0  0  0  0  0  0
  161.3320  207.2020  154.0360 C   0  0  0  0  0  3  0  0  0  0  0  0
  161.4230  204.2830  151.0190 N   0  0  0  0  0  1  0  0  0  0  0  0
  161.4410  207.0410  150.3020 N   0  0  0  0  0  0  0  0  0  0  0  0
  163.0140  206.4430  148.5160 C   0  0  0  0  0  2  0  0  0  0  0  0
  162.7100  207.3890  149.6730 C   0  0  0  0  0  2  0  0  0  0  0  0
  161.9500  206.4840  147.5200 N   0  0  0  0  0  0  0  0  0  0  0  0
  158.8370  206.5830  147.7870 F   0  0  0  0  0  0  0  0  0  0  0  0
  160.9550  205.4990  147.9350 C   0  0  0  0  0  2  0  0  0  0  0  0
  159.7910  206.1510  148.6890 C   0  0  1  0  0  3  0  0  0  0  0  0
  160.1990  207.3210  149.5900 C   0  0  0  0  0  2  0  0  0  0  0  0
  161.7130  205.8260  145.1500 C   0  0  0  0  0  0  0  0  0  0  0  0
  162.5090  206.0230  146.3190 N   0  0  0  0  0  2  0  0  0  0  0  0
  162.3170  205.3390  143.9590 N   0  0  0  0  0  1  0  0  0  0  0  0
  160.4810  206.0840  145.1660 O   0  0  0  0  0  0  0  0  0  0  0  0
  161.6370  210.6290  154.3370 C   0  0  0  0  0  0  0  0  0  0  0  0
  162.2970  211.0750  155.2610 O   0  0  0  0  0  0  0  0  0  0  0  0
  161.3740  209.0870  152.3580 C   0  0  1  0  0  3  0  0  0  0  0  0
  160.1510  210.8300  154.3250 C   0  0  2  0  0  3  0  0  0  0  0  0
  160.0770  209.6350  152.2250 O   0  0  0  0  0  0  0  0  0  0  0  0
  162.3350  209.9460  153.1960 C   0  0  0  0  0  2  0  0  0  0  0  0
  159.4890  209.7280  153.5010 C   0  0  0  0  0  2  0  0  0  0  0  0
  158.5120  212.6530  153.6850 C   0  0  0  0  0  0  0  0  0  0  0  0
  157.5440  211.9910  154.1480 O   0  0  0  0  0  0  0  0  0  0  0  0
  159.8430  212.1360  153.7580 N   0  0  0  0  0  2  0  0  0  0  0  0
  158.2540  213.9950  153.0770 C   0  0  2  0  0  3  0  0  0  0  0  0
  156.8200  214.4460  153.3340 C   0  0  0  0  0  2  0  0  0  0  0  0
  156.0260  214.4500  152.0410 C   0  0  0  0  0  1  0  0  0  0  0  0
  158.9540  212.7340  151.1410 O   0  0  0  0  0  1  0  0  0  0  0  0
  158.6090  214.0130  151.5900 C   0  0  0  0  0  2  0  0  0  0  0  0
  2  4  1  0  0  0  0
  3  6  2  0  0  0  0
  4  1  2  0  0  0  0
  5  2  2  0  0  0  0
  5  3  1  0  0  0  0
  6  1  1  0  0  0  0
  7  2  1  0  0  0  0
  8  5  1  0  0  0  0
  9 10  1  0  0  0  0
 10  8  1  0  0  0  0
 11 13  1  0  0  0  0
 11  9  1  0  0  0  0
 13 14  1  0  0  0  0
 14 12  1  6  0  0  0
 14 15  1  0  0  0  0
 15  8  1  0  0  0  0
 16 19  2  0  0  0  0
 16 17  1  0  0  0  0
 17 11  1  0  0  0  0
 18 16  1  0  0  0  0
 20 21  2  0  0  0  0
 22  3  1  1  0  0  0
 22 25  1  0  0  0  0
 23 29  1  6  0  0  0
 23 20  1  0  0  0  0
 24 22  1  0  0  0  0
 24 26  1  0  0  0  0
 25 20  1  0  0  0  0
 26 23  1  0  0  0  0
 27 29  1  0  0  0  0
 27 28  2  0  0  0  0
 30 34  1  6  0  0  0
 30 31  1  0  0  0  0
 30 27  1  0  0  0  0
 32 31  1  0  0  0  0
 33 34  1  0  0  0  0
M  END
>  <MODEL>
8

>  <REMARK>
 VINA RESULT:      -1.8      4.458      6.388
  Name = 
  7 active torsions:
  status: ('A' for Active; 'I' for Inactive)
    1  A    between atoms: C_2  and  C_17
    2  A    between atoms: N_6  and  C_25
    3  A    between atoms: C_10  and  C_13
    4  A    between atoms: N_11  and  N_16
    5  A    between atoms: N_14  and  C_18
    6  A    between atoms: C_15  and  C_17
    7  A    between atoms: C_17  and  C_30
                            x       y       z     vdW  Elec       q    Type
                         _______ _______ _______ _____ _____    ______ ____

>  <TORSDO>
F 7

$$$$
=
 OpenBabel11072413123D

 34 36  0  0  1  0  0  0  0  0999 V2000
  161.6130  207.4620  157.0280 C   0  0  0  0  0  3  0  0  0  0  0  0
  162.0830  209.6480  156.2300 C   0  0  0  0  0  0  0  0  0  0  0  0
  161.2190  207.9790  154.7000 C   0  0  0  0  0  0  0  0  0  0  0  0
  162.0430  208.7340  157.2360 N   0  0  0  0  0  0  0  0  0  0  0  0
  161.6750  209.2890  154.9340 C   0  0  0  0  0  0  0  0  0  0  0  0
  161.1960  207.0620  155.7590 C   0  0  0  0  0  3  0  0  0  0  0  0
  162.5480  210.9670  156.5020 N   0  0  0  0  0  1  0  0  0  0  0  0
  161.7260  210.2460  153.8710 N   0  0  0  0  0  0  0  0  0  0  0  0
  162.7260  210.0910  151.6350 C   0  0  0  0  0  2  0  0  0  0  0  0
  162.9550  210.4230  153.1070 C   0  0  0  0  0  2  0  0  0  0  0  0
  161.6770  210.9320  151.0720 N   0  0  0  0  0  0  0  0  0  0  0  0
  158.9230  211.8820  152.2050 F   0  0  0  0  0  0  0  0  0  0  0  0
  160.4140  210.2440  151.3230 C   0  0  0  0  0  2  0  0  0  0  0  0
  159.7020  210.7980  152.5620 C   0  0  1  0  0  3  0  0  0  0  0  0
  160.6430  211.2070  153.7000 C   0  0  0  0  0  2  0  0  0  0  0  0
  161.5900  212.0940  148.8930 C   0  0  0  0  0  0  0  0  0  0  0  0
  161.8730  210.9390  149.6830 N   0  0  0  0  0  2  0  0  0  0  0  0
  161.7840  212.0510  147.4850 N   0  0  0  0  0  1  0  0  0  0  0  0
  161.1730  213.1520  149.4350 O   0  0  0  0  0  0  0  0  0  0  0  0
  160.8160  205.0650  152.9220 C   0  0  0  0  0  0  0  0  0  0  0  0
  160.3930  203.9440  153.1530 O   0  0  0  0  0  0  0  0  0  0  0  0
  160.7900  207.5560  153.3170 C   0  0  1  0  0  3  0  0  0  0  0  0
  162.1390  205.2290  152.2370 C   0  0  2  0  0  3  0  0  0  0  0  0
  161.8240  207.6230  152.3540 O   0  0  0  0  0  0  0  0  0  0  0  0
  159.9700  206.2570  153.2670 C   0  0  0  0  0  2  0  0  0  0  0  0
  162.7420  206.5840  152.6000 C   0  0  0  0  0  2  0  0  0  0  0  0
  161.5720  203.9140  150.1460 C   0  0  0  0  0  0  0  0  0  0  0  0
  161.3480  202.8730  150.8220 O   0  0  0  0  0  0  0  0  0  0  0  0
  161.9550  205.1300  150.7950 N   0  0  0  0  0  2  0  0  0  0  0  0
  161.4140  203.8680  148.6600 C   0  0  2  0  0  3  0  0  0  0  0  0
  160.9260  205.2070  148.1200 C   0  0  0  0  0  2  0  0  0  0  0  0
  162.0080  205.8690  147.2870 C   0  0  0  0  0  1  0  0  0  0  0  0
  161.2750  201.5940  147.8580 O   0  0  0  0  0  1  0  0  0  0  0  0
  160.5150  202.7080  148.2290 C   0  0  0  0  0  2  0  0  0  0  0  0
  1  4  1  0  0  0  0
  2  7  1  0  0  0  0
  2  4  2  0  0  0  0
  3  5  2  0  0  0  0
  3  6  1  0  0  0  0
  5  2  1  0  0  0  0
  6  1  2  0  0  0  0
  8  5  1  0  0  0  0
  9 10  1  0  0  0  0
 10  8  1  0  0  0  0
 11 13  1  0  0  0  0
 11  9  1  0  0  0  0
 13 14  1  0  0  0  0
 14 12  1  6  0  0  0
 14 15  1  0  0  0  0
 15  8  1  0  0  0  0
 16 19  2  0  0  0  0
 16 17  1  0  0  0  0
 17 11  1  0  0  0  0
 18 16  1  0  0  0  0
 20 21  2  0  0  0  0
 20 25  1  0  0  0  0
 22  3  1  1  0  0  0
 23 29  1  6  0  0  0
 23 26  1  0  0  0  0
 23 20  1  0  0  0  0
 24 26  1  0  0  0  0
 24 22  1  0  0  0  0
 25 22  1  0  0  0  0
 27 29  1  0  0  0  0
 27 28  2  0  0  0  0
 30 31  1  1  0  0  0
 30 27  1  0  0  0  0
 32 31  1  0  0  0  0
 33 34  1  0  0  0  0
 34 30  1  0  0  0  0
M  END
>  <MODEL>
9

>  <REMARK>
 VINA RESULT:      -1.6      3.561      8.059
  Name = 
  7 active torsions:
  status: ('A' for Active; 'I' for Inactive)
    1  A    between atoms: C_2  and  C_17
    2  A    between atoms: N_6  and  C_25
    3  A    between atoms: C_10  and  C_13
    4  A    between atoms: N_11  and  N_16
    5  A    between atoms: N_14  and  C_18
    6  A    between atoms: C_15  and  C_17
    7  A    between atoms: C_17  and  C_30
                            x       y       z     vdW  Elec       q    Type
                         _______ _______ _______ _____ _____    ______ ____

>  <TORSDO>
F 7

$$$$
