=
 OpenBabel11072409543D

 48 53  0  0  1  0  0  0  0  0999 V2000
  162.2050  208.3600  149.2770 C   0  0  1  0  0  3  0  0  0  0  0  0
  162.1720  210.9510  149.1630 C   0  0  2  0  0  0  0  0  0  0  0  0
  159.3110  212.4410  152.5600 N   0  0  0  0  0  0  0  0  0  0  0  0
  162.3280  210.8050  147.7290 N   0  0  0  0  0  0  0  0  0  0  0  0
  164.3330  213.6350  148.4500 N   0  0  0  0  0  1  0  0  0  0  0  0
  160.5690  211.2740  151.1080 C   0  0  0  0  0  0  0  0  0  0  0  0
  160.8010  206.7470  150.3120 C   0  0  2  0  0  3  0  0  0  0  0  0
  162.1760  209.7130  150.0260 C   0  0  1  0  0  3  0  0  0  0  0  0
  160.0970  207.2250  149.1880 O   0  0  0  0  0  0  0  0  0  0  0  0
  159.5190  206.9810  155.3960 C   0  0  0  0  0  1  0  0  0  0  0  0
  159.4580  212.1650  151.3070 C   0  0  0  0  0  0  0  0  0  0  0  0
  161.4270  204.6450  151.5390 N   0  0  0  0  0  0  0  0  0  0  0  0
  163.4670  212.5070  148.5140 C   0  0  0  0  0  0  0  0  0  0  0  0
  160.8780  210.5380  149.8340 C   0  0  2  0  0  3  0  0  0  0  0  0
  160.3610  211.7190  153.2850 C   0  0  2  0  0  3  0  0  0  0  0  0
  160.6200  209.6650  154.8350 C   0  0  2  0  0  3  0  0  0  0  0  0
  162.7900  207.5160  151.6190 C   0  0  0  0  0  2  0  0  0  0  0  0
  162.2630  202.7080  152.5350 O   0  0  0  0  0  0  0  0  0  0  0  0
  159.3830  204.8040  150.4010 O   0  0  0  0  0  1  0  0  0  0  0  0
  161.9630  206.8980  155.3040 C   0  0  0  0  0  1  0  0  0  0  0  0
  162.2470  207.1870  150.2300 C   0  0  2  0  0  3  0  0  0  0  0  0
  160.7170  208.5090  153.8450 C   0  0  0  0  0  2  0  0  0  0  0  0
  161.0870  210.9800  152.2530 N   0  0  0  0  0  0  0  0  0  0  0  0
  162.9360  212.0970  149.6190 N   0  0  0  0  0  0  0  0  0  0  0  0
  160.7150  205.2210  150.3860 C   0  0  1  0  0  3  0  0  0  0  0  0
  159.7110  210.7580  154.2890 C   0  0  0  0  0  2  0  0  0  0  0  0
  160.9590  208.0640  148.4600 C   0  0  2  0  0  3  0  0  0  0  0  0
  163.1070  211.7380  147.3630 N   0  0  0  0  0  0  0  0  0  0  0  0
  161.7780  205.4290  152.7310 C   0  0  2  0  0  3  0  0  0  0  0  0
  160.5410  206.1080  153.3410 C   0  0  0  0  0  2  0  0  0  0  0  0
  161.8720  203.2790  151.4830 C   0  0  0  0  0  0  0  0  0  0  0  0
  161.8880  210.1610  155.1320 O   0  0  0  0  0  1  0  0  0  0  0  0
  160.7170  207.1260  154.4780 C   0  0  0  0  0  0  0  0  0  0  0  0
  161.3290  207.4020  147.1460 C   0  0  0  0  0  1  0  0  0  0  0  0
  163.0270  206.2840  152.4760 C   0  0  0  0  0  2  0  0  0  0  0  0
  158.6110  212.6250  150.3000 O   0  0  0  0  0  0  0  0  0  0  0  0
  158.6580  213.9610  149.8360 C   0  0  0  0  0  2  0  0  0  0  0  0
  158.5930  214.0090  148.3260 C   0  0  0  0  0  2  0  0  0  0  0  0
  159.7770  213.3640  147.7870 N   0  0  0  0  0  2  0  0  0  0  0  0
  159.3620  212.6350  146.5940 C   0  0  0  0  0  2  0  0  0  0  0  0
  157.8500  212.6570  146.4940 C   0  0  0  0  0  1  0  0  0  0  0  0
  161.8810  202.4990  150.2030 C   0  0  0  0  0  2  0  0  0  0  0  0
  160.7080  201.7060  150.0830 O   0  0  0  0  0  0  0  0  0  0  0  0
  160.0970  201.3330  148.8740 C   0  0  0  0  0  0  0  0  0  0  0  0
  158.8400  201.2670  148.8450 O   0  0  0  0  0  0  0  0  0  0  0  0
  161.5630  199.9820  147.5600 O   0  0  0  0  0  0  0  0  0  0  0  0
  160.7730  201.9200  146.4610 C   0  0  0  0  0  1  0  0  0  0  0  0
  160.8530  201.0140  147.6470 C   0  0  0  0  0  0  0  0  0  0  0  0
  1  8  1  0  0  0  0
  1 21  1  0  0  0  0
  2 24  1  0  0  0  0
  2 14  1  0  0  0  0
  2  8  1  0  0  0  0
  3 15  1  0  0  0  0
  4  2  1  0  0  0  0
  5 13  1  0  0  0  0
  6 11  1  0  0  0  0
  6 23  2  0  0  0  0
  7 25  1  0  0  0  0
  9  7  1  0  0  0  0
 11  3  2  0  0  0  0
 12 29  1  0  0  0  0
 13 24  2  0  0  0  0
 14  8  1  0  0  0  0
 14  6  1  0  0  0  0
 15 26  1  0  0  0  0
 16 32  1  0  0  0  0
 17 35  1  0  0  0  0
 21  7  1  0  0  0  0
 21 17  1  0  0  0  0
 22 33  1  0  0  0  0
 22 16  1  0  0  0  0
 23 15  1  0  0  0  0
 25 19  1  0  0  0  0
 25 12  1  0  0  0  0
 26 16  1  0  0  0  0
 27  9  1  0  0  0  0
 27  1  1  0  0  0  0
 28  4  2  0  0  0  0
 28 13  1  0  0  0  0
 29 30  1  0  0  0  0
 30 33  1  0  0  0  0
 31 12  1  0  0  0  0
 31 18  2  0  0  0  0
 33 20  1  0  0  0  0
 33 10  1  0  0  0  0
 34 27  1  0  0  0  0
 35 29  1  0  0  0  0
 36 11  1  0  0  0  0
 37 36  1  0  0  0  0
 38 37  1  0  0  0  0
 39 38  1  0  0  0  0
 40 39  1  0  0  0  0
 41 40  1  0  0  0  0
 42 31  1  0  0  0  0
 43 42  1  0  0  0  0
 44 43  1  0  0  0  0
 45 44  2  0  0  0  0
 46 48  2  0  0  0  0
 47 48  1  0  0  0  0
 48 44  1  0  0  0  0
M  END
>  <MODEL>
1

>  <REMARK>
 VINA RESULT:       2.5      0.000      0.000
  Name = 
  9 active torsions:
  status: ('A' for Active; 'I' for Inactive)
    1  A    between atoms: C_9  and  N_35
    2  A    between atoms: C_13  and  O_14
    3  A    between atoms: O_14  and  C_40
    4  A    between atoms: C_24  and  N_35
    5  A    between atoms: C_24  and  C_40
    6  A    between atoms: O_29  and  C_32
    7  A    between atoms: O_29  and  C_33
    8  A    between atoms: C_32  and  C_44
    9  A    between atoms: C_33  and  C_43
                            x       y       z     vdW  Elec       q    Type
                         _______ _______ _______ _____ _____    ______ ____

>  <TORSDO>
F 9

$$$$
=
 OpenBabel11072409543D

 48 53  0  0  1  0  0  0  0  0999 V2000
  162.1110  208.2430  149.2210 C   0  0  1  0  0  3  0  0  0  0  0  0
  162.1750  210.8360  149.1770 C   0  0  2  0  0  0  0  0  0  0  0  0
  159.5090  212.3380  152.7240 N   0  0  0  0  0  0  0  0  0  0  0  0
  162.2690  210.7240  147.7350 N   0  0  0  0  0  0  0  0  0  0  0  0
  164.4080  213.4550  148.4480 N   0  0  0  0  0  1  0  0  0  0  0  0
  160.6620  211.1650  151.1920 C   0  0  0  0  0  0  0  0  0  0  0  0
  160.6870  206.6570  150.2690 C   0  0  2  0  0  3  0  0  0  0  0  0
  162.1640  209.5750  150.0060 C   0  0  1  0  0  3  0  0  0  0  0  0
  159.9590  207.1920  149.1880 O   0  0  0  0  0  0  0  0  0  0  0  0
  159.6150  206.7970  155.4040 C   0  0  0  0  0  1  0  0  0  0  0  0
  159.5960  212.0920  151.4590 C   0  0  0  0  0  0  0  0  0  0  0  0
  161.2780  204.4990  151.4150 N   0  0  0  0  0  0  0  0  0  0  0  0
  163.5020  212.3600  148.5170 C   0  0  0  0  0  0  0  0  0  0  0  0
  160.8920  210.4540  149.8880 C   0  0  2  0  0  3  0  0  0  0  0  0
  160.5570  211.5570  153.3870 C   0  0  2  0  0  3  0  0  0  0  0  0
  160.7970  209.4520  154.8710 C   0  0  2  0  0  3  0  0  0  0  0  0
  162.7540  207.3130  151.5150 C   0  0  0  0  0  2  0  0  0  0  0  0
  162.0770  202.5050  152.3240 O   0  0  0  0  0  0  0  0  0  0  0  0
  159.1990  204.7670  150.3640 O   0  0  0  0  0  1  0  0  0  0  0  0
  162.0490  206.6250  155.2120 C   0  0  0  0  0  1  0  0  0  0  0  0
  162.1440  207.0430  150.1400 C   0  0  2  0  0  3  0  0  0  0  0  0
  160.8100  208.3210  153.8480 C   0  0  0  0  0  2  0  0  0  0  0  0
  161.2130  210.8200  152.3070 N   0  0  0  0  0  0  0  0  0  0  0  0
  162.9990  211.9390  149.6320 N   0  0  0  0  0  0  0  0  0  0  0  0
  160.5450  205.1340  150.3070 C   0  0  1  0  0  3  0  0  0  0  0  0
  159.9100  210.5940  154.3910 C   0  0  0  0  0  2  0  0  0  0  0  0
  160.8230  208.0170  148.4480 C   0  0  2  0  0  3  0  0  0  0  0  0
  163.0680  211.6360  147.3620 N   0  0  0  0  0  0  0  0  0  0  0  0
  161.7060  205.2360  152.6110 C   0  0  2  0  0  3  0  0  0  0  0  0
  160.5210  205.9440  153.2880 C   0  0  0  0  0  2  0  0  0  0  0  0
  161.6680  203.1200  151.3040 C   0  0  0  0  0  0  0  0  0  0  0  0
  162.0930  209.8920  155.1300 O   0  0  0  0  0  1  0  0  0  0  0  0
  160.7810  206.9220  154.4430 C   0  0  0  0  0  0  0  0  0  0  0  0
  161.1160  207.3790  147.1020 C   0  0  0  0  0  1  0  0  0  0  0  0
  162.9770  206.0500  152.3290 C   0  0  0  0  0  2  0  0  0  0  0  0
  158.7280  212.6110  150.5000 O   0  0  0  0  0  0  0  0  0  0  0  0
  159.1120  213.6670  149.6380 C   0  0  0  0  0  2  0  0  0  0  0  0
  158.3550  213.5960  148.3310 C   0  0  0  0  0  2  0  0  0  0  0  0
  157.0000  213.1460  148.5980 N   0  0  0  0  0  2  0  0  0  0  0  0
  156.1810  214.3380  148.7770 C   0  0  0  0  0  2  0  0  0  0  0  0
  155.2320  214.1250  149.9410 C   0  0  0  0  0  1  0  0  0  0  0  0
  161.5970  202.3760  150.0050 C   0  0  0  0  0  2  0  0  0  0  0  0
  161.7790  203.2570  148.9040 O   0  0  0  0  0  0  0  0  0  0  0  0
  161.4580  202.9660  147.5680 C   0  0  0  0  0  0  0  0  0  0  0  0
  160.7970  201.9200  147.3350 O   0  0  0  0  0  0  0  0  0  0  0  0
  162.8720  204.5590  146.4880 O   0  0  0  0  0  0  0  0  0  0  0  0
  161.0580  203.8100  145.1690 C   0  0  0  0  0  1  0  0  0  0  0  0
  161.8580  203.8200  146.4320 C   0  0  0  0  0  0  0  0  0  0  0  0
  1  8  1  0  0  0  0
  1 21  1  0  0  0  0
  2 24  1  0  0  0  0
  2 14  1  0  0  0  0
  2  8  1  0  0  0  0
  3 15  1  0  0  0  0
  4  2  1  0  0  0  0
  5 13  1  0  0  0  0
  6 11  1  0  0  0  0
  6 23  2  0  0  0  0
  7 25  1  0  0  0  0
  9  7  1  0  0  0  0
 11  3  2  0  0  0  0
 12 29  1  0  0  0  0
 13 24  2  0  0  0  0
 14  8  1  0  0  0  0
 14  6  1  0  0  0  0
 15 26  1  0  0  0  0
 16 32  1  0  0  0  0
 17 35  1  0  0  0  0
 21  7  1  0  0  0  0
 21 17  1  0  0  0  0
 22 33  1  0  0  0  0
 22 16  1  0  0  0  0
 23 15  1  0  0  0  0
 25 19  1  0  0  0  0
 25 12  1  0  0  0  0
 26 16  1  0  0  0  0
 27  9  1  0  0  0  0
 27  1  1  0  0  0  0
 28  4  2  0  0  0  0
 28 13  1  0  0  0  0
 29 30  1  0  0  0  0
 30 33  1  0  0  0  0
 31 12  1  0  0  0  0
 31 18  2  0  0  0  0
 33 20  1  0  0  0  0
 33 10  1  0  0  0  0
 34 27  1  0  0  0  0
 35 29  1  0  0  0  0
 36 11  1  0  0  0  0
 37 36  1  0  0  0  0
 38 39  1  0  0  0  0
 38 37  1  0  0  0  0
 39 40  1  0  0  0  0
 40 41  1  0  0  0  0
 42 31  1  0  0  0  0
 43 42  1  0  0  0  0
 44 43  1  0  0  0  0
 45 44  2  0  0  0  0
 47 48  1  0  0  0  0
 48 46  2  0  0  0  0
 48 44  1  0  0  0  0
M  END
>  <MODEL>
2

>  <REMARK>
 VINA RESULT:       2.7      1.234      1.491
  Name = 
  9 active torsions:
  status: ('A' for Active; 'I' for Inactive)
    1  A    between atoms: C_9  and  N_35
    2  A    between atoms: C_13  and  O_14
    3  A    between atoms: O_14  and  C_40
    4  A    between atoms: C_24  and  N_35
    5  A    between atoms: C_24  and  C_40
    6  A    between atoms: O_29  and  C_32
    7  A    between atoms: O_29  and  C_33
    8  A    between atoms: C_32  and  C_44
    9  A    between atoms: C_33  and  C_43
                            x       y       z     vdW  Elec       q    Type
                         _______ _______ _______ _____ _____    ______ ____

>  <TORSDO>
F 9

$$$$
=
 OpenBabel11072409543D

 48 53  0  0  1  0  0  0  0  0999 V2000
  162.4400  210.0270  149.7000 C   0  0  1  0  0  3  0  0  0  0  0  0
  162.2120  211.9800  148.0080 C   0  0  2  0  0  0  0  0  0  0  0  0
  158.0050  213.9190  148.7030 N   0  0  0  0  0  0  0  0  0  0  0  0
  163.0060  211.1750  147.1020 N   0  0  0  0  0  0  0  0  0  0  0  0
  164.1930  214.4530  146.4800 N   0  0  0  0  0  1  0  0  0  0  0  0
  159.8850  212.6880  148.7440 C   0  0  0  0  0  0  0  0  0  0  0  0
  160.8840  208.8190  151.0280 C   0  0  2  0  0  3  0  0  0  0  0  0
  161.9490  211.4630  149.4020 C   0  0  1  0  0  3  0  0  0  0  0  0
  160.7150  208.3650  149.7050 O   0  0  0  0  0  0  0  0  0  0  0  0
  157.4460  211.2010  154.1990 C   0  0  0  0  0  1  0  0  0  0  0  0
  158.7230  213.1030  148.0060 C   0  0  0  0  0  0  0  0  0  0  0  0
  161.0930  208.0320  153.4060 N   0  0  0  0  0  0  0  0  0  0  0  0
  163.5040  213.3060  146.9630 C   0  0  0  0  0  0  0  0  0  0  0  0
  160.8010  211.5580  148.3630 C   0  0  2  0  0  3  0  0  0  0  0  0
  158.6830  214.0940  149.9910 C   0  0  2  0  0  3  0  0  0  0  0  0
  158.4180  213.3860  152.4650 C   0  0  2  0  0  3  0  0  0  0  0  0
  161.9930  210.7880  152.1010 C   0  0  0  0  0  2  0  0  0  0  0  0
  161.5780  207.3270  155.5760 O   0  0  0  0  0  0  0  0  0  0  0  0
  159.7710  206.8570  151.8680 O   0  0  0  0  0  1  0  0  0  0  0  0
  159.6680  211.9350  154.9150 C   0  0  0  0  0  1  0  0  0  0  0  0
  162.1640  209.6210  151.1300 C   0  0  2  0  0  3  0  0  0  0  0  0
  159.0580  212.0030  152.4870 C   0  0  0  0  0  2  0  0  0  0  0  0
  159.8610  213.2330  149.9140 N   0  0  0  0  0  0  0  0  0  0  0  0
  162.5760  213.3770  147.8620 N   0  0  0  0  0  0  0  0  0  0  0  0
  160.9210  207.6370  151.9980 C   0  0  1  0  0  3  0  0  0  0  0  0
  157.7480  213.6420  151.1200 C   0  0  0  0  0  2  0  0  0  0  0  0
  161.7260  208.9400  148.9150 C   0  0  2  0  0  3  0  0  0  0  0  0
  163.7730  211.9820  146.4930 N   0  0  0  0  0  0  0  0  0  0  0  0
  160.7960  209.3860  153.8940 C   0  0  2  0  0  3  0  0  0  0  0  0
  159.3580  209.8050  153.5490 C   0  0  0  0  0  2  0  0  0  0  0  0
  161.6470  207.0910  154.3410 C   0  0  0  0  0  0  0  0  0  0  0  0
  159.3630  214.3680  152.7530 O   0  0  0  0  0  1  0  0  0  0  0  0
  158.9080  211.2520  153.8010 C   0  0  0  0  0  0  0  0  0  0  0  0
  162.7080  207.8680  148.4780 C   0  0  0  0  0  1  0  0  0  0  0  0
  161.9390  210.3530  153.5550 C   0  0  0  0  0  2  0  0  0  0  0  0
  158.3750  212.6440  146.7360 O   0  0  0  0  0  0  0  0  0  0  0  0
  158.6000  213.4220  145.5740 C   0  0  0  0  0  2  0  0  0  0  0  0
  160.0370  213.3060  145.1190 C   0  0  0  0  0  2  0  0  0  0  0  0
  160.0690  212.6120  143.8430 N   0  0  0  0  0  2  0  0  0  0  0  0
  160.3520  213.6100  142.8200 C   0  0  0  0  0  2  0  0  0  0  0  0
  161.7850  213.4540  142.3490 C   0  0  0  0  0  1  0  0  0  0  0  0
  162.3020  205.8200  153.8940 C   0  0  0  0  0  2  0  0  0  0  0  0
  161.9680  205.5230  152.5440 O   0  0  0  0  0  0  0  0  0  0  0  0
  161.3350  204.3500  152.1020 C   0  0  0  0  0  0  0  0  0  0  0  0
  160.8620  203.5720  152.9720 O   0  0  0  0  0  0  0  0  0  0  0  0
  161.3540  204.8340  149.7640 O   0  0  0  0  0  0  0  0  0  0  0  0
  160.8890  202.5770  150.2900 C   0  0  0  0  0  1  0  0  0  0  0  0
  161.2010  203.9860  150.6780 C   0  0  0  0  0  0  0  0  0  0  0  0
  1 21  1  0  0  0  0
  2 14  1  0  0  0  0
  2  8  1  0  0  0  0
  3 15  1  0  0  0  0
  4  2  1  0  0  0  0
  5 13  1  0  0  0  0
  6 23  2  0  0  0  0
  7 21  1  0  0  0  0
  7 25  1  0  0  0  0
  8  1  1  0  0  0  0
  9  7  1  0  0  0  0
 11  3  2  0  0  0  0
 11  6  1  0  0  0  0
 12 29  1  0  0  0  0
 12 31  1  0  0  0  0
 13 24  2  0  0  0  0
 14  6  1  0  0  0  0
 14  8  1  0  0  0  0
 15 26  1  0  0  0  0
 16 22  1  0  0  0  0
 16 32  1  0  0  0  0
 17 35  1  0  0  0  0
 19 25  1  0  0  0  0
 21 17  1  0  0  0  0
 22 33  1  0  0  0  0
 23 15  1  0  0  0  0
 24  2  1  0  0  0  0
 25 12  1  0  0  0  0
 26 16  1  0  0  0  0
 27  1  1  0  0  0  0
 27  9  1  0  0  0  0
 28 13  1  0  0  0  0
 28  4  2  0  0  0  0
 30 33  1  0  0  0  0
 30 29  1  0  0  0  0
 31 18  2  0  0  0  0
 33 10  1  0  0  0  0
 33 20  1  0  0  0  0
 34 27  1  0  0  0  0
 35 29  1  0  0  0  0
 36 11  1  0  0  0  0
 37 36  1  0  0  0  0
 38 37  1  0  0  0  0
 39 38  1  0  0  0  0
 40 39  1  0  0  0  0
 41 40  1  0  0  0  0
 42 31  1  0  0  0  0
 43 42  1  0  0  0  0
 44 43  1  0  0  0  0
 44 45  2  0  0  0  0
 46 48  2  0  0  0  0
 47 48  1  0  0  0  0
 48 44  1  0  0  0  0
M  END
>  <MODEL>
3

>  <REMARK>
 VINA RESULT:       3.5      2.135      3.813
  Name = 
  9 active torsions:
  status: ('A' for Active; 'I' for Inactive)
    1  A    between atoms: C_9  and  N_35
    2  A    between atoms: C_13  and  O_14
    3  A    between atoms: O_14  and  C_40
    4  A    between atoms: C_24  and  N_35
    5  A    between atoms: C_24  and  C_40
    6  A    between atoms: O_29  and  C_32
    7  A    between atoms: O_29  and  C_33
    8  A    between atoms: C_32  and  C_44
    9  A    between atoms: C_33  and  C_43
                            x       y       z     vdW  Elec       q    Type
                         _______ _______ _______ _____ _____    ______ ____

>  <TORSDO>
F 9

$$$$
=
 OpenBabel11072409543D

 48 53  0  0  1  0  0  0  0  0999 V2000
  160.5520  209.8340  151.3100 C   0  0  1  0  0  3  0  0  0  0  0  0
  161.5520  208.1430  153.0030 C   0  0  2  0  0  0  0  0  0  0  0  0
  161.4690  210.1970  157.2130 N   0  0  0  0  0  0  0  0  0  0  0  0
  162.4100  207.6980  151.9230 N   0  0  0  0  0  0  0  0  0  0  0  0
  161.6400  204.6770  153.6030 N   0  0  0  0  0  1  0  0  0  0  0  0
  161.2990  209.6390  155.0420 C   0  0  0  0  0  0  0  0  0  0  0  0
  160.1400  212.1730  151.3800 C   0  0  2  0  0  3  0  0  0  0  0  0
  160.5140  209.2020  152.7220 C   0  0  1  0  0  3  0  0  0  0  0  0
  161.5320  212.0180  151.2240 O   0  0  0  0  0  0  0  0  0  0  0  0
  157.4530  214.4430  155.2750 C   0  0  0  0  0  1  0  0  0  0  0  0
  162.1600  209.8980  156.1640 C   0  0  0  0  0  0  0  0  0  0  0  0
  158.1590  213.4660  150.5300 N   0  0  0  0  0  0  0  0  0  0  0  0
  161.7430  206.0330  153.1840 C   0  0  0  0  0  0  0  0  0  0  0  0
  161.7440  209.5170  153.6110 C   0  0  2  0  0  3  0  0  0  0  0  0
  160.0560  210.1490  156.8240 C   0  0  2  0  0  3  0  0  0  0  0  0
  158.0940  211.7640  156.3450 C   0  0  2  0  0  3  0  0  0  0  0  0
  158.2520  210.6740  152.0480 C   0  0  0  0  0  2  0  0  0  0  0  0
  156.2670  214.4350  149.5680 O   0  0  0  0  0  0  0  0  0  0  0  0
  160.2850  214.4520  150.6180 O   0  0  0  0  0  1  0  0  0  0  0  0
  155.9680  212.7580  154.3030 C   0  0  0  0  0  1  0  0  0  0  0  0
  159.4500  210.8510  151.1180 C   0  0  2  0  0  3  0  0  0  0  0  0
  158.3260  212.1490  154.8880 C   0  0  0  0  0  2  0  0  0  0  0  0
  160.0710  209.8100  155.4020 N   0  0  0  0  0  0  0  0  0  0  0  0
  161.1550  207.0020  153.8080 N   0  0  0  0  0  0  0  0  0  0  0  0
  159.6110  213.2440  150.4240 C   0  0  1  0  0  3  0  0  0  0  0  0
  159.4220  211.5270  157.0510 C   0  0  0  0  0  2  0  0  0  0  0  0
  161.7970  210.6530  151.0190 C   0  0  2  0  0  3  0  0  0  0  0  0
  162.5060  206.4390  152.0450 N   0  0  0  0  0  0  0  0  0  0  0  0
  157.3770  213.0690  151.7090 C   0  0  2  0  0  3  0  0  0  0  0  0
  157.9550  213.6770  152.9970 C   0  0  0  0  0  2  0  0  0  0  0  0
  157.4470  214.0220  149.4120 C   0  0  0  0  0  0  0  0  0  0  0  0
  157.2690  210.6440  156.4290 O   0  0  0  0  0  1  0  0  0  0  0  0
  157.4020  213.2350  154.3600 C   0  0  0  0  0  0  0  0  0  0  0  0
  162.2590  210.4290  149.5900 C   0  0  0  0  0  1  0  0  0  0  0  0
  157.0750  211.5640  151.6850 C   0  0  0  0  0  2  0  0  0  0  0  0
  163.5530  209.8910  156.1210 O   0  0  0  0  0  0  0  0  0  0  0  0
  164.2980  211.0670  155.8630 C   0  0  0  0  0  2  0  0  0  0  0  0
  164.4290  211.9060  157.1150 C   0  0  0  0  0  2  0  0  0  0  0  0
  165.7750  212.4500  157.1740 N   0  0  0  0  0  2  0  0  0  0  0  0
  166.2260  212.6240  155.7990 C   0  0  0  0  0  2  0  0  0  0  0  0
  167.7060  212.9530  155.7950 C   0  0  0  0  0  1  0  0  0  0  0  0
  158.0670  214.1380  148.0530 C   0  0  0  0  0  2  0  0  0  0  0  0
  158.3880  212.8560  147.5300 O   0  0  0  0  0  0  0  0  0  0  0  0
  158.4860  212.5350  146.1650 C   0  0  0  0  0  0  0  0  0  0  0  0
  157.4320  212.2040  145.5610 O   0  0  0  0  0  0  0  0  0  0  0  0
  159.9200  211.8810  144.3710 O   0  0  0  0  0  0  0  0  0  0  0  0
  160.8830  213.4270  145.8780 C   0  0  0  0  0  1  0  0  0  0  0  0
  159.7560  212.5630  145.4140 C   0  0  0  0  0  0  0  0  0  0  0  0
  1  8  1  0  0  0  0
  2 14  1  0  0  0  0
  2 24  1  0  0  0  0
  4 28  2  0  0  0  0
  4  2  1  0  0  0  0
  6 23  2  0  0  0  0
  6 11  1  0  0  0  0
  8  2  1  0  0  0  0
  8 14  1  0  0  0  0
  9  7  1  0  0  0  0
 11  3  2  0  0  0  0
 12 29  1  0  0  0  0
 13  5  1  0  0  0  0
 13 24  2  0  0  0  0
 14  6  1  0  0  0  0
 15 26  1  0  0  0  0
 15  3  1  0  0  0  0
 16 32  1  0  0  0  0
 16 26  1  0  0  0  0
 20 33  1  0  0  0  0
 21  1  1  0  0  0  0
 21  7  1  0  0  0  0
 21 17  1  0  0  0  0
 22 16  1  0  0  0  0
 23 15  1  0  0  0  0
 25 12  1  0  0  0  0
 25 19  1  0  0  0  0
 25  7  1  0  0  0  0
 27  9  1  0  0  0  0
 27  1  1  0  0  0  0
 28 13  1  0  0  0  0
 29 30  1  0  0  0  0
 30 33  1  0  0  0  0
 31 18  2  0  0  0  0
 31 12  1  0  0  0  0
 33 22  1  0  0  0  0
 33 10  1  0  0  0  0
 34 27  1  0  0  0  0
 35 29  1  0  0  0  0
 35 17  1  0  0  0  0
 36 11  1  0  0  0  0
 37 36  1  0  0  0  0
 37 38  1  0  0  0  0
 38 39  1  0  0  0  0
 40 39  1  0  0  0  0
 41 40  1  0  0  0  0
 42 31  1  0  0  0  0
 43 42  1  0  0  0  0
 44 43  1  0  0  0  0
 45 44  2  0  0  0  0
 46 48  2  0  0  0  0
 48 47  1  0  0  0  0
 48 44  1  0  0  0  0
M  END
>  <MODEL>
4

>  <REMARK>
 VINA RESULT:       5.2      4.620      8.324
  Name = 
  9 active torsions:
  status: ('A' for Active; 'I' for Inactive)
    1  A    between atoms: C_9  and  N_35
    2  A    between atoms: C_13  and  O_14
    3  A    between atoms: O_14  and  C_40
    4  A    between atoms: C_24  and  N_35
    5  A    between atoms: C_24  and  C_40
    6  A    between atoms: O_29  and  C_32
    7  A    between atoms: O_29  and  C_33
    8  A    between atoms: C_32  and  C_44
    9  A    between atoms: C_33  and  C_43
                            x       y       z     vdW  Elec       q    Type
                         _______ _______ _______ _____ _____    ______ ____

>  <TORSDO>
F 9

$$$$
