=
 OpenBabel11072409533D

 48 51  0  0  1  0  0  0  0  0999 V2000
  160.8850  209.3270  151.9280 C   0  0  2  0  0  3  0  0  0  0  0  0
  162.6160  210.5940  150.4820 C   0  0  1  0  0  3  0  0  0  0  0  0
  162.3480  209.4920  151.5130 C   0  0  2  0  0  3  0  0  0  0  0  0
  162.4940  209.1500  150.0430 C   0  0  0  0  0  2  0  0  0  0  0  0
  162.4130  212.4900  148.3620 O   0  0  0  0  0  0  0  0  0  0  0  0
  161.3800  212.2690  149.0470 C   0  0  0  0  0  0  0  0  0  0  0  0
  161.4100  211.3270  150.1230 N   0  0  0  0  0  2  0  0  0  0  0  0
  160.2170  214.4410  149.1260 C   0  0  0  0  0  1  0  0  0  0  0  0
  160.1140  212.9840  148.7150 C   0  0  1  0  0  3  0  0  0  0  0  0
  159.8490  212.8900  147.2890 N   0  0  0  0  0  2  0  0  0  0  0  0
  158.4510  213.2310  147.0910 C   0  0  0  0  0  1  0  0  0  0  0  0
  160.4850  208.7030  154.1860 O   0  0  0  0  0  0  0  0  0  0  0  0
  160.7070  209.6440  153.3770 C   0  0  0  0  0  0  0  0  0  0  0  0
  160.8080  210.9720  153.8160 O   0  0  0  0  0  0  0  0  0  0  0  0
  159.9570  211.5870  154.7900 C   0  0  1  0  0  3  0  0  0  0  0  0
  160.5740  211.6430  156.1930 C   0  0  1  0  0  3  0  0  0  0  0  0
  159.8550  210.8220  157.0650 O   0  0  0  0  0  1  0  0  0  0  0  0
  162.2110  209.9650  157.0210 C   0  0  0  0  0  1  0  0  0  0  0  0
  162.0220  211.1880  156.1500 C   0  0  0  0  0  2  0  0  0  0  0  0
  159.3910  212.9250  154.3060 C   0  0  0  0  0  2  0  0  0  0  0  0
  158.0120  213.2340  154.8740 C   0  0  1  0  0  3  0  0  0  0  0  0
  158.1290  214.0760  156.1390 C   0  0  0  0  0  2  0  0  0  0  0  0
  156.6810  212.5290  156.7590 C   0  0  0  0  0  1  0  0  0  0  0  0
  157.6860  213.3590  157.2530 O   0  0  0  0  0  0  0  0  0  0  0  0
  157.2440  213.9070  153.9220 O   0  0  0  0  0  0  0  0  0  0  0  0
  157.9340  213.7390  152.7190 C   0  0  0  0  0  2  0  0  0  0  0  0
  157.2690  213.4530  150.4780 O   0  0  0  0  0  0  0  0  0  0  0  0
  156.9980  213.9190  151.5710 C   0  0  0  0  0  3  0  0  0  0  0  0
  160.4500  207.9260  151.6720 C   0  0  0  0  0  3  0  0  0  0  0  0
  161.1210  206.9330  152.1600 N   0  0  0  0  0  0  0  0  0  0  0  0
  161.7860  203.2360  148.6570 C   0  0  2  0  0  3  0  0  0  0  0  0
  160.4950  202.8670  149.3990 C   0  0  0  0  0  2  0  0  0  0  0  0
  160.7780  204.9360  150.7370 C   0  0  0  0  0  0  0  0  0  0  0  0
  160.4710  203.5450  150.6850 N   0  0  0  0  0  0  0  0  0  0  0  0
  161.9860  204.7670  148.5400 C   0  0  0  0  0  2  0  0  0  0  0  0
  160.8220  205.5450  151.9290 C   0  0  0  0  0  2  0  0  0  0  0  0
  161.0830  205.6270  149.4390 C   0  0  0  0  0  2  0  0  0  0  0  0
  161.1110  203.2040  145.0170 C   0  0  1  0  0  3  0  0  0  0  0  0
  160.5810  201.7660  146.9820 C   0  0  1  0  0  3  0  0  0  0  0  0
  159.2940  201.6700  144.9810 O   0  0  0  0  0  0  0  0  0  0  0  0
  162.0220  203.5930  146.1710 C   0  0  0  0  0  2  0  0  0  0  0  0
  161.8520  202.5550  147.2860 C   0  0  1  0  0  3  0  0  0  0  0  0
  160.2310  202.1590  145.5940 C   0  0  0  0  0  0  0  0  0  0  0  0
  161.1860  205.3620  143.7970 C   0  0  0  0  0  2  0  0  0  0  0  0
  160.2990  204.4170  144.5850 C   0  0  0  0  0  3  0  0  0  0  0  0
  160.8590  205.6620  145.2440 C   0  0  0  0  0  2  0  0  0  0  0  0
  161.4730  199.6620  146.0650 C   0  0  0  0  0  2  0  0  0  0  0  0
  160.8810  200.3010  147.0710 C   0  0  0  0  0  3  0  0  0  0  0  0
  1 29  1  1  0  0  0
  1 13  1  0  0  0  0
  2  7  1  6  0  0  0
  2  3  1  0  0  0  0
  3  1  1  6  0  0  0
  4  2  1  0  0  0  0
  4  3  1  0  0  0  0
  5  6  2  0  0  0  0
  6  7  1  0  0  0  0
  9  6  1  0  0  0  0
  9  8  1  6  0  0  0
 10  9  1  0  0  0  0
 11 10  1  0  0  0  0
 13 14  1  0  0  0  0
 13 12  2  0  0  0  0
 14 15  1  0  0  0  0
 15 20  1  6  0  0  0
 15 16  1  0  0  0  0
 16 17  1  1  0  0  0
 19 16  1  0  0  0  0
 19 18  1  0  0  0  0
 21 20  1  6  0  0  0
 21 22  1  0  0  0  0
 22 24  1  0  0  0  0
 23 24  1  0  0  0  0
 25 21  1  0  0  0  0
 26 25  1  0  0  0  0
 27 28  2  0  0  0  0
 28 26  1  0  0  0  0
 29 30  2  0  0  0  0
 31 35  1  6  0  0  0
 31 32  1  0  0  0  0
 32 34  1  0  0  0  0
 33 36  1  0  0  0  0
 34 33  2  0  0  0  0
 35 37  1  0  0  0  0
 36 30  1  0  0  0  0
 37 33  1  0  0  0  0
 38 45  1  1  0  0  0
 38 43  1  0  0  0  0
 38 41  1  0  0  0  0
 39 48  1  6  0  0  0
 39 42  1  0  0  0  0
 40 43  2  0  0  0  0
 42 41  1  6  0  0  0
 42 31  1  0  0  0  0
 43 39  1  0  0  0  0
 44 45  1  0  0  0  0
 44 46  1  0  0  0  0
 45 46  1  0  0  0  0
 47 48  2  0  0  0  0
M  END
>  <MODEL>
1

>  <REMARK>
 VINA RESULT:      -4.8      0.000      0.000
  Name = 
  21 active torsions:
  status: ('A' for Active; 'I' for Inactive)
    1  A    between atoms: C_1  and  C_22
    2  A    between atoms: C_3  and  N_32
    3  A    between atoms: C_4  and  N_11
    4  A    between atoms: C_4  and  C_24
    5  A    between atoms: C_5  and  C_17
    6  A    between atoms: C_6  and  C_31
    7  A    between atoms: C_8  and  C_27
    8  A    between atoms: O_10  and  C_16
    9  A    between atoms: O_10  and  C_35
   10  A    between atoms: C_13  and  C_30
   11  A    between atoms: C_13  and  C_35
   12  A    between atoms: C_16  and  C_46
   13  A    between atoms: C_17  and  C_40
   14  A    between atoms: C_17  and  C_48
   15  A    between atoms: C_19  and  C_35
   16  A    between atoms: C_19  and  O_45
   17  A    between atoms: C_20  and  C_30
   18  A    between atoms: C_20  and  C_41
   19  A    between atoms: N_29  and  C_39
   20  A    between atoms: C_30  and  O_36
   21  A    between atoms: O_36  and  C_48
                            x       y       z     vdW  Elec       q    Type
                         _______ _______ _______ _____ _____    ______ ____

>  <TORSDO>
F 21

$$$$
=
 OpenBabel11072409533D

 48 51  0  0  1  0  0  0  0  0999 V2000
  161.1250  212.0230  148.0310 C   0  0  2  0  0  3  0  0  0  0  0  0
  161.2150  214.4520  148.9150 C   0  0  1  0  0  3  0  0  0  0  0  0
  161.9710  213.2670  148.3050 C   0  0  2  0  0  3  0  0  0  0  0  0
  161.4890  214.4050  147.4260 C   0  0  0  0  0  2  0  0  0  0  0  0
  159.9750  214.4490  151.4830 O   0  0  0  0  0  0  0  0  0  0  0  0
  159.2570  214.1610  150.4890 C   0  0  0  0  0  0  0  0  0  0  0  0
  159.8130  214.1470  149.1720 N   0  0  0  0  0  2  0  0  0  0  0  0
  157.3540  214.3780  152.0400 C   0  0  0  0  0  1  0  0  0  0  0  0
  157.8130  213.8510  150.6940 C   0  0  1  0  0  3  0  0  0  0  0  0
  157.0210  214.4490  149.6320 N   0  0  0  0  0  2  0  0  0  0  0  0
  155.7050  213.8360  149.6840 C   0  0  0  0  0  1  0  0  0  0  0  0
  163.1650  210.8150  148.1870 O   0  0  0  0  0  0  0  0  0  0  0  0
  161.9100  210.7800  148.2940 C   0  0  0  0  0  0  0  0  0  0  0  0
  161.2450  209.6040  148.6710 O   0  0  0  0  0  0  0  0  0  0  0  0
  161.8720  208.3370  148.9000 C   0  0  1  0  0  3  0  0  0  0  0  0
  162.1750  208.0610  150.3770 C   0  0  1  0  0  3  0  0  0  0  0  0
  162.6010  209.2340  151.0050 O   0  0  0  0  0  1  0  0  0  0  0  0
  160.8970  208.0280  152.5100 C   0  0  0  0  0  1  0  0  0  0  0  0
  160.9350  207.5350  151.0790 C   0  0  0  0  0  2  0  0  0  0  0  0
  161.1440  207.1910  148.1900 C   0  0  0  0  0  2  0  0  0  0  0  0
  161.9890  205.9300  148.0660 C   0  0  1  0  0  3  0  0  0  0  0  0
  161.3340  204.7700  148.8060 C   0  0  0  0  0  2  0  0  0  0  0  0
  160.7640  202.6370  148.8020 C   0  0  0  0  0  1  0  0  0  0  0  0
  161.1800  203.6680  147.9610 O   0  0  0  0  0  0  0  0  0  0  0  0
  162.1610  205.6010  146.7200 O   0  0  0  0  0  0  0  0  0  0  0  0
  161.0780  206.1930  146.0640 C   0  0  0  0  0  2  0  0  0  0  0  0
  160.5560  204.3990  144.6300 O   0  0  0  0  0  0  0  0  0  0  0  0
  160.8980  205.5670  144.7220 C   0  0  0  0  0  3  0  0  0  0  0  0
  160.6740  212.0300  146.6110 C   0  0  0  0  0  3  0  0  0  0  0  0
  159.5240  212.5300  146.2920 N   0  0  0  0  0  0  0  0  0  0  0  0
  160.9150  213.1620  141.3890 C   0  0  2  0  0  3  0  0  0  0  0  0
  159.4480  213.6050  141.4560 C   0  0  0  0  0  2  0  0  0  0  0  0
  159.5080  213.1260  143.8890 C   0  0  0  0  0  0  0  0  0  0  0  0
  158.8280  213.0310  142.6400 N   0  0  0  0  0  0  0  0  0  0  0  0
  161.6890  213.4750  142.6920 C   0  0  0  0  0  2  0  0  0  0  0  0
  158.9690  212.5370  144.9650 C   0  0  0  0  0  2  0  0  0  0  0  0
  160.8250  213.8460  143.9070 C   0  0  0  0  0  2  0  0  0  0  0  0
  160.9880  213.9930  137.7810 C   0  0  1  0  0  3  0  0  0  0  0  0
  162.3910  212.6970  139.3820 C   0  0  1  0  0  3  0  0  0  0  0  0
  162.4960  212.3130  137.0340 O   0  0  0  0  0  0  0  0  0  0  0  0
  160.5960  214.3750  139.1990 C   0  0  0  0  0  2  0  0  0  0  0  0
  161.6160  213.7560  140.1620 C   0  0  1  0  0  3  0  0  0  0  0  0
  162.0130  212.9360  137.9670 C   0  0  0  0  0  0  0  0  0  0  0  0
  158.6230  214.4270  137.1760 C   0  0  0  0  0  2  0  0  0  0  0  0
  159.7700  213.4430  137.0520 C   0  0  0  0  0  3  0  0  0  0  0  0
  158.6550  213.1910  138.0490 C   0  0  0  0  0  2  0  0  0  0  0  0
  164.4720  213.9840  139.1030 C   0  0  0  0  0  2  0  0  0  0  0  0
  163.8590  212.9090  139.5930 C   0  0  0  0  0  3  0  0  0  0  0  0
  1 29  1  6  0  0  0
  1 13  1  0  0  0  0
  2  7  1  6  0  0  0
  3  1  1  6  0  0  0
  3  2  1  0  0  0  0
  4  3  1  0  0  0  0
  4  2  1  0  0  0  0
  6  9  1  0  0  0  0
  6  5  2  0  0  0  0
  7  6  1  0  0  0  0
  9  8  1  1  0  0  0
 10 11  1  0  0  0  0
 10  9  1  0  0  0  0
 12 13  2  0  0  0  0
 13 14  1  0  0  0  0
 14 15  1  0  0  0  0
 15 20  1  1  0  0  0
 15 16  1  0  0  0  0
 16 17  1  1  0  0  0
 16 19  1  0  0  0  0
 19 18  1  0  0  0  0
 21 20  1  6  0  0  0
 21 22  1  0  0  0  0
 24 23  1  0  0  0  0
 24 22  1  0  0  0  0
 25 21  1  0  0  0  0
 26 25  1  0  0  0  0
 27 28  2  0  0  0  0
 28 26  1  0  0  0  0
 30 29  2  0  0  0  0
 31 32  1  1  0  0  0
 31 35  1  0  0  0  0
 32 34  1  0  0  0  0
 33 37  1  0  0  0  0
 33 36  1  0  0  0  0
 34 33  2  0  0  0  0
 35 37  1  0  0  0  0
 36 30  1  0  0  0  0
 38 45  1  6  0  0  0
 38 43  1  0  0  0  0
 38 41  1  0  0  0  0
 39 48  1  6  0  0  0
 39 42  1  0  0  0  0
 40 43  2  0  0  0  0
 42 41  1  6  0  0  0
 42 31  1  0  0  0  0
 43 39  1  0  0  0  0
 44 46  1  0  0  0  0
 45 44  1  0  0  0  0
 45 46  1  0  0  0  0
 47 48  2  0  0  0  0
M  END
>  <MODEL>
2

>  <REMARK>
 VINA RESULT:      -4.5      5.186      9.888
  Name = 
  21 active torsions:
  status: ('A' for Active; 'I' for Inactive)
    1  A    between atoms: C_1  and  C_22
    2  A    between atoms: C_3  and  N_32
    3  A    between atoms: C_4  and  N_11
    4  A    between atoms: C_4  and  C_24
    5  A    between atoms: C_5  and  C_17
    6  A    between atoms: C_6  and  C_31
    7  A    between atoms: C_8  and  C_27
    8  A    between atoms: O_10  and  C_16
    9  A    between atoms: O_10  and  C_35
   10  A    between atoms: C_13  and  C_30
   11  A    between atoms: C_13  and  C_35
   12  A    between atoms: C_16  and  C_46
   13  A    between atoms: C_17  and  C_40
   14  A    between atoms: C_17  and  C_48
   15  A    between atoms: C_19  and  C_35
   16  A    between atoms: C_19  and  O_45
   17  A    between atoms: C_20  and  C_30
   18  A    between atoms: C_20  and  C_41
   19  A    between atoms: N_29  and  C_39
   20  A    between atoms: C_30  and  O_36
   21  A    between atoms: O_36  and  C_48
                            x       y       z     vdW  Elec       q    Type
                         _______ _______ _______ _____ _____    ______ ____

>  <TORSDO>
F 21

$$$$
=
 OpenBabel11072409533D

 48 51  0  0  1  0  0  0  0  0999 V2000
  161.2160  211.9240  148.2250 C   0  0  2  0  0  3  0  0  0  0  0  0
  161.6840  214.3600  148.9580 C   0  0  1  0  0  3  0  0  0  0  0  0
  162.2520  213.0190  148.4800 C   0  0  2  0  0  3  0  0  0  0  0  0
  162.0330  214.1550  147.4990 C   0  0  0  0  0  2  0  0  0  0  0  0
  160.3370  213.7730  151.4020 O   0  0  0  0  0  0  0  0  0  0  0  0
  159.6280  214.0160  150.3900 C   0  0  0  0  0  0  0  0  0  0  0  0
  160.2380  214.3220  149.1330 N   0  0  0  0  0  2  0  0  0  0  0  0
  157.5300  213.2360  149.3560 C   0  0  0  0  0  1  0  0  0  0  0  0
  158.1420  214.0020  150.5150 C   0  0  1  0  0  3  0  0  0  0  0  0
  157.7550  213.3870  151.7730 N   0  0  0  0  0  2  0  0  0  0  0  0
  157.2940  214.4530  152.6460 C   0  0  0  0  0  1  0  0  0  0  0  0
  163.0370  210.4200  147.9620 O   0  0  0  0  0  0  0  0  0  0  0  0
  161.8400  210.5700  148.3260 C   0  0  0  0  0  0  0  0  0  0  0  0
  161.0960  209.4970  148.8390 O   0  0  0  0  0  0  0  0  0  0  0  0
  161.6430  208.2520  149.2880 C   0  0  1  0  0  3  0  0  0  0  0  0
  162.1590  208.2950  150.7310 C   0  0  1  0  0  3  0  0  0  0  0  0
  162.7090  209.5490  151.0060 O   0  0  0  0  0  1  0  0  0  0  0  0
  161.3880  206.8590  152.6090 C   0  0  0  0  0  1  0  0  0  0  0  0
  161.0260  208.0170  151.7030 C   0  0  0  0  0  2  0  0  0  0  0  0
  160.7150  207.0700  148.9940 C   0  0  0  0  0  2  0  0  0  0  0  0
  161.4030  205.9410  148.2360 C   0  0  1  0  0  3  0  0  0  0  0  0
  162.4840  206.4940  147.3150 C   0  0  0  0  0  2  0  0  0  0  0  0
  163.0260  204.8540  145.9400 C   0  0  0  0  0  1  0  0  0  0  0  0
  162.2980  206.0410  146.0080 O   0  0  0  0  0  0  0  0  0  0  0  0
  161.9610  205.0330  149.1370 O   0  0  0  0  0  0  0  0  0  0  0  0
  160.8690  204.4530  149.7880 C   0  0  0  0  0  2  0  0  0  0  0  0
  161.2700  202.6170  148.3700 O   0  0  0  0  0  0  0  0  0  0  0  0
  160.7530  203.0180  149.3990 C   0  0  0  0  0  3  0  0  0  0  0  0
  160.6310  212.0970  146.8670 C   0  0  0  0  0  3  0  0  0  0  0  0
  159.4040  212.4810  146.7260 N   0  0  0  0  0  0  0  0  0  0  0  0
  160.3090  212.3770  141.6720 C   0  0  2  0  0  3  0  0  0  0  0  0
  159.1030  213.3080  141.8500 C   0  0  0  0  0  2  0  0  0  0  0  0
  159.2960  212.9410  144.2960 C   0  0  0  0  0  0  0  0  0  0  0  0
  158.4750  213.0380  143.1340 N   0  0  0  0  0  0  0  0  0  0  0  0
  161.2990  212.4540  142.8600 C   0  0  0  0  0  2  0  0  0  0  0  0
  158.7250  212.6250  145.4660 C   0  0  0  0  0  2  0  0  0  0  0  0
  160.7710  213.1550  144.1210 C   0  0  0  0  0  2  0  0  0  0  0  0
  161.8890  211.1600  138.5520 C   0  0  1  0  0  3  0  0  0  0  0  0
  162.5330  212.6030  140.4780 C   0  0  1  0  0  3  0  0  0  0  0  0
  164.1680  211.5560  139.1000 O   0  0  0  0  0  0  0  0  0  0  0  0
  160.6310  211.5650  139.3050 C   0  0  0  0  0  2  0  0  0  0  0  0
  161.0140  212.6340  140.3350 C   0  0  1  0  0  3  0  0  0  0  0  0
  162.9890  211.7550  139.3490 C   0  0  0  0  0  0  0  0  0  0  0  0
  161.0890  209.0870  137.4500 C   0  0  0  0  0  2  0  0  0  0  0  0
  161.9960  209.6410  138.5310 C   0  0  0  0  0  3  0  0  0  0  0  0
  160.6560  209.0340  138.8990 C   0  0  0  0  0  2  0  0  0  0  0  0
  163.9920  214.4530  141.1960 C   0  0  0  0  0  2  0  0  0  0  0  0
  163.0650  213.9980  140.3570 C   0  0  0  0  0  3  0  0  0  0  0  0
  1 29  1  6  0  0  0
  1 13  1  0  0  0  0
  2  7  1  6  0  0  0
  3  1  1  6  0  0  0
  3  2  1  0  0  0  0
  4  3  1  0  0  0  0
  4  2  1  0  0  0  0
  6  9  1  0  0  0  0
  6  5  2  0  0  0  0
  7  6  1  0  0  0  0
  9  8  1  6  0  0  0
  9 10  1  0  0  0  0
 10 11  1  0  0  0  0
 12 13  2  0  0  0  0
 13 14  1  0  0  0  0
 14 15  1  0  0  0  0
 15 20  1  1  0  0  0
 15 16  1  0  0  0  0
 16 17  1  1  0  0  0
 16 19  1  0  0  0  0
 19 18  1  0  0  0  0
 21 22  1  6  0  0  0
 21 20  1  0  0  0  0
 21 25  1  0  0  0  0
 23 24  1  0  0  0  0
 24 22  1  0  0  0  0
 25 26  1  0  0  0  0
 27 28  2  0  0  0  0
 28 26  1  0  0  0  0
 30 29  2  0  0  0  0
 31 32  1  1  0  0  0
 31 35  1  0  0  0  0
 32 34  1  0  0  0  0
 33 36  1  0  0  0  0
 34 33  2  0  0  0  0
 35 37  1  0  0  0  0
 36 30  1  0  0  0  0
 37 33  1  0  0  0  0
 38 45  1  1  0  0  0
 38 41  1  0  0  0  0
 38 43  1  0  0  0  0
 39 48  1  6  0  0  0
 40 43  2  0  0  0  0
 42 41  1  6  0  0  0
 42 39  1  0  0  0  0
 42 31  1  0  0  0  0
 43 39  1  0  0  0  0
 44 45  1  0  0  0  0
 44 46  1  0  0  0  0
 45 46  1  0  0  0  0
 48 47  2  0  0  0  0
M  END
>  <MODEL>
3

>  <REMARK>
 VINA RESULT:      -4.3      4.541      9.322
  Name = 
  21 active torsions:
  status: ('A' for Active; 'I' for Inactive)
    1  A    between atoms: C_1  and  C_22
    2  A    between atoms: C_3  and  N_32
    3  A    between atoms: C_4  and  N_11
    4  A    between atoms: C_4  and  C_24
    5  A    between atoms: C_5  and  C_17
    6  A    between atoms: C_6  and  C_31
    7  A    between atoms: C_8  and  C_27
    8  A    between atoms: O_10  and  C_16
    9  A    between atoms: O_10  and  C_35
   10  A    between atoms: C_13  and  C_30
   11  A    between atoms: C_13  and  C_35
   12  A    between atoms: C_16  and  C_46
   13  A    between atoms: C_17  and  C_40
   14  A    between atoms: C_17  and  C_48
   15  A    between atoms: C_19  and  C_35
   16  A    between atoms: C_19  and  O_45
   17  A    between atoms: C_20  and  C_30
   18  A    between atoms: C_20  and  C_41
   19  A    between atoms: N_29  and  C_39
   20  A    between atoms: C_30  and  O_36
   21  A    between atoms: O_36  and  C_48
                            x       y       z     vdW  Elec       q    Type
                         _______ _______ _______ _____ _____    ______ ____

>  <TORSDO>
F 21

$$$$
=
 OpenBabel11072409533D

 48 51  0  0  1  0  0  0  0  0999 V2000
  160.8420  210.6110  153.8350 C   0  0  2  0  0  3  0  0  0  0  0  0
  160.3040  211.1390  156.3100 C   0  0  1  0  0  3  0  0  0  0  0  0
  159.7880  210.6770  154.9430 C   0  0  2  0  0  3  0  0  0  0  0  0
  160.1270  209.6630  156.0180 C   0  0  0  0  0  2  0  0  0  0  0  0
  162.4470  209.3430  156.8670 O   0  0  0  0  0  0  0  0  0  0  0  0
  162.7440  210.5330  156.5790 C   0  0  0  0  0  0  0  0  0  0  0  0
  161.7190  211.4850  156.2850 N   0  0  0  0  0  2  0  0  0  0  0  0
  164.6350  211.0540  155.0860 C   0  0  0  0  0  1  0  0  0  0  0  0
  164.1780  210.9390  156.5280 C   0  0  1  0  0  3  0  0  0  0  0  0
  164.3590  212.2110  157.2070 N   0  0  0  0  0  2  0  0  0  0  0  0
  165.7870  212.4670  157.2610 C   0  0  0  0  0  1  0  0  0  0  0  0
  160.8460  211.2660  151.5510 O   0  0  0  0  0  0  0  0  0  0  0  0
  160.5070  211.5570  152.7290 C   0  0  0  0  0  0  0  0  0  0  0  0
  159.8070  212.7390  153.0120 O   0  0  0  0  0  0  0  0  0  0  0  0
  158.6070  213.1670  152.3580 C   0  0  1  0  0  3  0  0  0  0  0  0
  157.4740  213.5220  153.3270 C   0  0  1  0  0  3  0  0  0  0  0  0
  156.3640  213.9860  152.6180 O   0  0  0  0  0  1  0  0  0  0  0  0
  156.1500  212.7100  155.2690 C   0  0  0  0  0  1  0  0  0  0  0  0
  157.0780  212.3050  154.1440 C   0  0  0  0  0  2  0  0  0  0  0  0
  158.8740  214.2360  151.2950 C   0  0  0  0  0  2  0  0  0  0  0  0
  159.3320  213.6560  149.9630 C   0  0  1  0  0  3  0  0  0  0  0  0
  158.2480  213.8220  148.9040 C   0  0  0  0  0  2  0  0  0  0  0  0
  156.2100  214.4530  149.4720 C   0  0  0  0  0  1  0  0  0  0  0  0
  157.0260  213.3280  149.3660 O   0  0  0  0  0  0  0  0  0  0  0  0
  160.5060  214.2870  149.5460 O   0  0  0  0  0  0  0  0  0  0  0  0
  161.3480  213.2490  149.1400 C   0  0  0  0  0  2  0  0  0  0  0  0
  160.4440  212.8430  147.0040 O   0  0  0  0  0  0  0  0  0  0  0  0
  161.4120  213.2040  147.6510 C   0  0  0  0  0  3  0  0  0  0  0  0
  160.9090  209.2250  153.2940 C   0  0  0  0  0  3  0  0  0  0  0  0
  161.5360  208.2980  153.9450 N   0  0  0  0  0  0  0  0  0  0  0  0
  161.3690  205.4820  149.6530 C   0  0  2  0  0  3  0  0  0  0  0  0
  161.0100  204.5150  150.7890 C   0  0  0  0  0  2  0  0  0  0  0  0
  161.2120  206.4250  152.3580 C   0  0  0  0  0  0  0  0  0  0  0  0
  161.4860  205.0600  152.0510 N   0  0  0  0  0  0  0  0  0  0  0  0
  160.8670  206.9220  149.9200 C   0  0  0  0  0  2  0  0  0  0  0  0
  161.7090  206.9450  153.4890 C   0  0  0  0  0  2  0  0  0  0  0  0
  160.4170  207.2140  151.3600 C   0  0  0  0  0  2  0  0  0  0  0  0
  161.1550  202.8160  147.0930 C   0  0  1  0  0  3  0  0  0  0  0  0
  161.8940  205.1940  147.1910 C   0  0  1  0  0  3  0  0  0  0  0  0
  162.6410  203.7230  145.4740 O   0  0  0  0  0  0  0  0  0  0  0  0
  160.6160  203.4460  148.3680 C   0  0  0  0  0  2  0  0  0  0  0  0
  160.8750  204.9560  148.3020 C   0  0  1  0  0  3  0  0  0  0  0  0
  161.9660  203.8940  146.4780 C   0  0  0  0  0  0  0  0  0  0  0  0
  161.3940  200.3540  146.9100 C   0  0  0  0  0  2  0  0  0  0  0  0
  162.0270  201.6200  147.4520 C   0  0  0  0  0  3  0  0  0  0  0  0
  161.2620  200.6950  148.3780 C   0  0  0  0  0  2  0  0  0  0  0  0
  160.1470  206.2560  145.8170 C   0  0  0  0  0  2  0  0  0  0  0  0
  161.3920  206.2790  146.2890 C   0  0  0  0  0  3  0  0  0  0  0  0
  1 29  1  6  0  0  0
  2  7  1  6  0  0  0
  3  1  1  6  0  0  0
  3  4  1  0  0  0  0
  3  2  1  0  0  0  0
  4  2  1  0  0  0  0
  6  5  2  0  0  0  0
  7  6  1  0  0  0  0
  9  8  1  6  0  0  0
  9  6  1  0  0  0  0
  9 10  1  0  0  0  0
 10 11  1  0  0  0  0
 12 13  2  0  0  0  0
 13 14  1  0  0  0  0
 13  1  1  0  0  0  0
 15 20  1  1  0  0  0
 15 14  1  0  0  0  0
 15 16  1  0  0  0  0
 16 17  1  6  0  0  0
 16 19  1  0  0  0  0
 19 18  1  0  0  0  0
 21 22  1  6  0  0  0
 21 20  1  0  0  0  0
 22 24  1  0  0  0  0
 24 23  1  0  0  0  0
 25 21  1  0  0  0  0
 26 25  1  0  0  0  0
 27 28  2  0  0  0  0
 28 26  1  0  0  0  0
 29 30  2  0  0  0  0
 31 35  1  1  0  0  0
 31 32  1  0  0  0  0
 32 34  1  0  0  0  0
 33 36  1  0  0  0  0
 34 33  2  0  0  0  0
 35 37  1  0  0  0  0
 36 30  1  0  0  0  0
 37 33  1  0  0  0  0
 38 45  1  1  0  0  0
 38 41  1  0  0  0  0
 39 48  1  6  0  0  0
 39 42  1  0  0  0  0
 40 43  2  0  0  0  0
 42 41  1  1  0  0  0
 42 31  1  0  0  0  0
 43 38  1  0  0  0  0
 43 39  1  0  0  0  0
 44 45  1  0  0  0  0
 44 46  1  0  0  0  0
 45 46  1  0  0  0  0
 47 48  2  0  0  0  0
M  END
>  <MODEL>
4

>  <REMARK>
 VINA RESULT:      -3.4      2.329      5.561
  Name = 
  21 active torsions:
  status: ('A' for Active; 'I' for Inactive)
    1  A    between atoms: C_1  and  C_22
    2  A    between atoms: C_3  and  N_32
    3  A    between atoms: C_4  and  N_11
    4  A    between atoms: C_4  and  C_24
    5  A    between atoms: C_5  and  C_17
    6  A    between atoms: C_6  and  C_31
    7  A    between atoms: C_8  and  C_27
    8  A    between atoms: O_10  and  C_16
    9  A    between atoms: O_10  and  C_35
   10  A    between atoms: C_13  and  C_30
   11  A    between atoms: C_13  and  C_35
   12  A    between atoms: C_16  and  C_46
   13  A    between atoms: C_17  and  C_40
   14  A    between atoms: C_17  and  C_48
   15  A    between atoms: C_19  and  C_35
   16  A    between atoms: C_19  and  O_45
   17  A    between atoms: C_20  and  C_30
   18  A    between atoms: C_20  and  C_41
   19  A    between atoms: N_29  and  C_39
   20  A    between atoms: C_30  and  O_36
   21  A    between atoms: O_36  and  C_48
                            x       y       z     vdW  Elec       q    Type
                         _______ _______ _______ _____ _____    ______ ____

>  <TORSDO>
F 21

$$$$
=
 OpenBabel11072409533D

 48 51  0  0  1  0  0  0  0  0999 V2000
  161.2320  209.9630  148.2670 C   0  0  2  0  0  3  0  0  0  0  0  0
  162.4270  211.4650  150.0020 C   0  0  1  0  0  3  0  0  0  0  0  0
  162.4020  210.8980  148.5780 C   0  0  2  0  0  3  0  0  0  0  0  0
  161.8710  212.2900  148.8600 C   0  0  0  0  0  2  0  0  0  0  0  0
  162.7330  210.1890  152.5340 O   0  0  0  0  0  0  0  0  0  0  0  0
  161.5630  210.3210  152.0860 C   0  0  0  0  0  0  0  0  0  0  0  0
  161.3370  210.9550  150.8240 N   0  0  0  0  0  2  0  0  0  0  0  0
  160.8800  209.4100  154.2720 C   0  0  0  0  0  1  0  0  0  0  0  0
  160.4100  209.8280  152.8910 C   0  0  1  0  0  3  0  0  0  0  0  0
  159.4020  210.8680  153.0060 N   0  0  0  0  0  2  0  0  0  0  0  0
  159.1820  211.0960  154.4230 C   0  0  0  0  0  1  0  0  0  0  0  0
  162.9320  208.3030  148.2130 O   0  0  0  0  0  0  0  0  0  0  0  0
  161.7190  208.5740  148.0090 C   0  0  0  0  0  0  0  0  0  0  0  0
  160.8190  207.5940  147.5640 O   0  0  0  0  0  0  0  0  0  0  0  0
  161.0590  206.1830  147.5820 C   0  0  1  0  0  3  0  0  0  0  0  0
  161.3510  205.5930  146.1980 C   0  0  1  0  0  3  0  0  0  0  0  0
  162.4660  206.2200  145.6360 O   0  0  0  0  0  1  0  0  0  0  0  0
  161.0020  203.3780  145.1230 C   0  0  0  0  0  1  0  0  0  0  0  0
  161.6130  204.1010  146.3050 C   0  0  0  0  0  2  0  0  0  0  0  0
  162.0740  205.7790  148.6560 C   0  0  0  0  0  2  0  0  0  0  0  0
  161.5380  204.7330  149.6250 C   0  0  1  0  0  3  0  0  0  0  0  0
  161.0770  205.3890  150.9220 C   0  0  0  0  0  2  0  0  0  0  0  0
  162.0310  206.5750  152.5210 C   0  0  0  0  0  1  0  0  0  0  0  0
  161.7750  206.5760  151.1510 O   0  0  0  0  0  0  0  0  0  0  0  0
  160.4780  204.0380  149.0390 O   0  0  0  0  0  0  0  0  0  0  0  0
  160.4500  202.8040  149.6940 C   0  0  0  0  0  2  0  0  0  0  0  0
  161.1240  200.6330  149.0820 O   0  0  0  0  0  0  0  0  0  0  0  0
  160.6790  201.7060  148.7120 C   0  0  0  0  0  3  0  0  0  0  0  0
  160.5030  210.4610  147.0670 C   0  0  0  0  0  3  0  0  0  0  0  0
  160.0610  211.6760  147.0270 N   0  0  0  0  0  0  0  0  0  0  0  0
  160.3100  212.4720  141.9590 C   0  0  2  0  0  3  0  0  0  0  0  0
  159.4100  213.5890  142.5030 C   0  0  0  0  0  2  0  0  0  0  0  0
  159.7890  212.6660  144.7740 C   0  0  0  0  0  0  0  0  0  0  0  0
  158.8890  213.1940  143.8030 N   0  0  0  0  0  0  0  0  0  0  0  0
  161.4190  212.0650  142.9590 C   0  0  0  0  0  2  0  0  0  0  0  0
  159.2990  212.2400  145.9460 C   0  0  0  0  0  2  0  0  0  0  0  0
  161.2390  212.5750  144.3980 C   0  0  0  0  0  2  0  0  0  0  0  0
  160.7850  211.8230  138.3450 C   0  0  1  0  0  3  0  0  0  0  0  0
  162.2360  212.1660  140.3420 C   0  0  1  0  0  3  0  0  0  0  0  0
  163.0390  211.0680  138.3870 O   0  0  0  0  0  0  0  0  0  0  0  0
  159.9490  212.4270  139.4630 C   0  0  0  0  0  2  0  0  0  0  0  0
  160.8950  212.8480  140.5940 C   0  0  1  0  0  3  0  0  0  0  0  0
  162.1190  211.6290  138.9630 C   0  0  0  0  0  0  0  0  0  0  0  0
  158.8900  210.7340  137.1740 C   0  0  0  0  0  2  0  0  0  0  0  0
  160.1810  210.4890  137.9290 C   0  0  0  0  0  3  0  0  0  0  0  0
  158.8470  210.2990  138.6230 C   0  0  0  0  0  2  0  0  0  0  0  0
  163.1150  214.4520  140.0880 C   0  0  0  0  0  2  0  0  0  0  0  0
  163.3300  213.1850  140.4350 C   0  0  0  0  0  3  0  0  0  0  0  0
  1 29  1  6  0  0  0
  2  7  1  1  0  0  0
  3  1  1  1  0  0  0
  3  4  1  0  0  0  0
  3  2  1  0  0  0  0
  4  2  1  0  0  0  0
  6  5  2  0  0  0  0
  6  9  1  0  0  0  0
  7  6  1  0  0  0  0
  9 10  1  0  0  0  0
  9  8  1  1  0  0  0
 10 11  1  0  0  0  0
 13 12  2  0  0  0  0
 13  1  1  0  0  0  0
 14 15  1  0  0  0  0
 14 13  1  0  0  0  0
 15 20  1  1  0  0  0
 16 17  1  1  0  0  0
 16 19  1  0  0  0  0
 16 15  1  0  0  0  0
 18 19  1  0  0  0  0
 21 20  1  6  0  0  0
 21 22  1  0  0  0  0
 22 24  1  0  0  0  0
 24 23  1  0  0  0  0
 25 21  1  0  0  0  0
 25 26  1  0  0  0  0
 28 27  2  0  0  0  0
 28 26  1  0  0  0  0
 30 29  2  0  0  0  0
 31 32  1  1  0  0  0
 31 35  1  0  0  0  0
 32 34  1  0  0  0  0
 33 36  1  0  0  0  0
 34 33  2  0  0  0  0
 35 37  1  0  0  0  0
 36 30  1  0  0  0  0
 37 33  1  0  0  0  0
 38 45  1  1  0  0  0
 38 43  1  0  0  0  0
 38 41  1  0  0  0  0
 39 48  1  6  0  0  0
 39 42  1  0  0  0  0
 40 43  2  0  0  0  0
 42 41  1  6  0  0  0
 42 31  1  0  0  0  0
 43 39  1  0  0  0  0
 44 45  1  0  0  0  0
 44 46  1  0  0  0  0
 45 46  1  0  0  0  0
 47 48  2  0  0  0  0
M  END
>  <MODEL>
5

>  <REMARK>
 VINA RESULT:      -2.3      4.694      9.780
  Name = 
  21 active torsions:
  status: ('A' for Active; 'I' for Inactive)
    1  A    between atoms: C_1  and  C_22
    2  A    between atoms: C_3  and  N_32
    3  A    between atoms: C_4  and  N_11
    4  A    between atoms: C_4  and  C_24
    5  A    between atoms: C_5  and  C_17
    6  A    between atoms: C_6  and  C_31
    7  A    between atoms: C_8  and  C_27
    8  A    between atoms: O_10  and  C_16
    9  A    between atoms: O_10  and  C_35
   10  A    between atoms: C_13  and  C_30
   11  A    between atoms: C_13  and  C_35
   12  A    between atoms: C_16  and  C_46
   13  A    between atoms: C_17  and  C_40
   14  A    between atoms: C_17  and  C_48
   15  A    between atoms: C_19  and  C_35
   16  A    between atoms: C_19  and  O_45
   17  A    between atoms: C_20  and  C_30
   18  A    between atoms: C_20  and  C_41
   19  A    between atoms: N_29  and  C_39
   20  A    between atoms: C_30  and  O_36
   21  A    between atoms: O_36  and  C_48
                            x       y       z     vdW  Elec       q    Type
                         _______ _______ _______ _____ _____    ______ ____

>  <TORSDO>
F 21

$$$$
=
 OpenBabel11072409533D

 48 51  0  0  1  0  0  0  0  0999 V2000
  161.4480  209.5300  154.7510 C   0  0  2  0  0  3  0  0  0  0  0  0
  160.5640  207.4070  155.9350 C   0  0  1  0  0  3  0  0  0  0  0  0
  160.6770  208.9350  155.9310 C   0  0  2  0  0  3  0  0  0  0  0  0
  159.4210  208.2570  155.4190 C   0  0  0  0  0  2  0  0  0  0  0  0
  159.4730  205.4410  154.1810 O   0  0  0  0  0  0  0  0  0  0  0  0
  160.6610  205.8070  153.9790 C   0  0  0  0  0  0  0  0  0  0  0  0
  161.2690  206.7920  154.8190 N   0  0  0  0  0  2  0  0  0  0  0  0
  162.9050  205.5250  152.9980 C   0  0  0  0  0  1  0  0  0  0  0  0
  161.4270  205.2180  152.8430 C   0  0  1  0  0  3  0  0  0  0  0  0
  161.2220  203.7800  152.7980 N   0  0  0  0  0  2  0  0  0  0  0  0
  160.2510  203.5190  151.7500 C   0  0  0  0  0  1  0  0  0  0  0  0
  162.2040  211.5310  155.7870 O   0  0  0  0  0  0  0  0  0  0  0  0
  161.5190  211.0190  154.8620 C   0  0  0  0  0  0  0  0  0  0  0  0
  160.8420  211.8180  153.9300 O   0  0  0  0  0  0  0  0  0  0  0  0
  159.5390  212.3830  154.1160 C   0  0  1  0  0  3  0  0  0  0  0  0
  159.2590  212.8100  155.5620 C   0  0  1  0  0  3  0  0  0  0  0  0
  159.1910  214.2030  155.6450 O   0  0  0  0  0  1  0  0  0  0  0  0
  157.3820  211.2800  154.9920 C   0  0  0  0  0  1  0  0  0  0  0  0
  157.9480  212.2120  156.0430 C   0  0  0  0  0  2  0  0  0  0  0  0
  159.2170  213.4590  153.0770 C   0  0  0  0  0  2  0  0  0  0  0  0
  158.9360  212.8910  151.6910 C   0  0  1  0  0  3  0  0  0  0  0  0
  158.1600  213.8940  150.8470 C   0  0  0  0  0  2  0  0  0  0  0  0
  156.5300  213.9530  149.3590 C   0  0  0  0  0  1  0  0  0  0  0  0
  156.8590  213.4420  150.6130 O   0  0  0  0  0  0  0  0  0  0  0  0
  160.1360  212.5620  151.0590 O   0  0  0  0  0  0  0  0  0  0  0  0
  160.2070  213.4140  149.9540 C   0  0  0  0  0  2  0  0  0  0  0  0
  161.8040  211.8550  149.2030 O   0  0  0  0  0  0  0  0  0  0  0  0
  161.2280  212.9090  148.9910 C   0  0  0  0  0  3  0  0  0  0  0  0
  160.7690  209.1630  153.4770 C   0  0  0  0  0  3  0  0  0  0  0  0
  161.4510  209.0400  152.3850 N   0  0  0  0  0  0  0  0  0  0  0  0
  161.4790  205.4040  148.7570 C   0  0  2  0  0  3  0  0  0  0  0  0
  161.2000  206.7180  148.0150 C   0  0  0  0  0  2  0  0  0  0  0  0
  161.3890  207.8850  150.1950 C   0  0  0  0  0  0  0  0  0  0  0  0
  160.7020  207.7050  148.9600 N   0  0  0  0  0  0  0  0  0  0  0  0
  162.4090  205.6000  149.9790 C   0  0  0  0  0  2  0  0  0  0  0  0
  160.8910  208.7460  151.0930 C   0  0  0  0  0  2  0  0  0  0  0  0
  162.6150  207.0530  150.4340 C   0  0  0  0  0  2  0  0  0  0  0  0
  161.7040  203.8720  145.3940 C   0  0  1  0  0  3  0  0  0  0  0  0
  161.0770  203.1400  147.6930 C   0  0  1  0  0  3  0  0  0  0  0  0
  160.3540  201.9490  145.7610 O   0  0  0  0  0  0  0  0  0  0  0  0
  162.2020  204.9050  146.3920 C   0  0  0  0  0  2  0  0  0  0  0  0
  162.0210  204.3340  147.8040 C   0  0  1  0  0  3  0  0  0  0  0  0
  160.9810  202.8860  146.2330 C   0  0  0  0  0  0  0  0  0  0  0  0
  161.4980  205.6300  143.6580 C   0  0  0  0  0  2  0  0  0  0  0  0
  160.7570  204.5400  144.4070 C   0  0  0  0  0  3  0  0  0  0  0  0
  160.5670  205.9940  144.7930 C   0  0  0  0  0  2  0  0  0  0  0  0
  160.9350  201.1850  149.1840 C   0  0  0  0  0  2  0  0  0  0  0  0
  161.6790  201.9710  148.4080 C   0  0  0  0  0  3  0  0  0  0  0  0
  1 29  1  6  0  0  0
  1 13  1  0  0  0  0
  2  7  1  6  0  0  0
  3  1  1  6  0  0  0
  3  2  1  0  0  0  0
  4  3  1  0  0  0  0
  4  2  1  0  0  0  0
  6  5  2  0  0  0  0
  6  7  1  0  0  0  0
  9  8  1  1  0  0  0
  9  6  1  0  0  0  0
 10  9  1  0  0  0  0
 11 10  1  0  0  0  0
 13 12  2  0  0  0  0
 14 15  1  0  0  0  0
 14 13  1  0  0  0  0
 15 20  1  6  0  0  0
 15 16  1  0  0  0  0
 16 17  1  6  0  0  0
 16 19  1  0  0  0  0
 18 19  1  0  0  0  0
 21 22  1  6  0  0  0
 21 20  1  0  0  0  0
 23 24  1  0  0  0  0
 24 22  1  0  0  0  0
 25 21  1  0  0  0  0
 26 25  1  0  0  0  0
 28 27  2  0  0  0  0
 28 26  1  0  0  0  0
 30 29  2  0  0  0  0
 31 32  1  6  0  0  0
 31 35  1  0  0  0  0
 32 34  1  0  0  0  0
 33 37  1  0  0  0  0
 33 36  1  0  0  0  0
 34 33  2  0  0  0  0
 35 37  1  0  0  0  0
 36 30  1  0  0  0  0
 38 45  1  6  0  0  0
 38 43  1  0  0  0  0
 38 41  1  0  0  0  0
 39 42  1  0  0  0  0
 39 48  1  1  0  0  0
 40 43  2  0  0  0  0
 42 41  1  6  0  0  0
 42 31  1  0  0  0  0
 43 39  1  0  0  0  0
 44 45  1  0  0  0  0
 44 46  1  0  0  0  0
 45 46  1  0  0  0  0
 48 47  2  0  0  0  0
M  END
>  <MODEL>
6

>  <REMARK>
 VINA RESULT:      -2.2      1.874      4.896
  Name = 
  21 active torsions:
  status: ('A' for Active; 'I' for Inactive)
    1  A    between atoms: C_1  and  C_22
    2  A    between atoms: C_3  and  N_32
    3  A    between atoms: C_4  and  N_11
    4  A    between atoms: C_4  and  C_24
    5  A    between atoms: C_5  and  C_17
    6  A    between atoms: C_6  and  C_31
    7  A    between atoms: C_8  and  C_27
    8  A    between atoms: O_10  and  C_16
    9  A    between atoms: O_10  and  C_35
   10  A    between atoms: C_13  and  C_30
   11  A    between atoms: C_13  and  C_35
   12  A    between atoms: C_16  and  C_46
   13  A    between atoms: C_17  and  C_40
   14  A    between atoms: C_17  and  C_48
   15  A    between atoms: C_19  and  C_35
   16  A    between atoms: C_19  and  O_45
   17  A    between atoms: C_20  and  C_30
   18  A    between atoms: C_20  and  C_41
   19  A    between atoms: N_29  and  C_39
   20  A    between atoms: C_30  and  O_36
   21  A    between atoms: O_36  and  C_48
                            x       y       z     vdW  Elec       q    Type
                         _______ _______ _______ _____ _____    ______ ____

>  <TORSDO>
F 21

$$$$
=
 OpenBabel11072409533D

 48 51  0  0  1  0  0  0  0  0999 V2000
  160.7950  208.1540  152.5180 C   0  0  2  0  0  3  0  0  0  0  0  0
  162.7070  209.4120  151.3130 C   0  0  1  0  0  3  0  0  0  0  0  0
  162.2990  208.3970  152.3860 C   0  0  2  0  0  3  0  0  0  0  0  0
  162.7650  207.9270  151.0220 C   0  0  0  0  0  2  0  0  0  0  0  0
  162.7270  211.8850  149.8930 O   0  0  0  0  0  0  0  0  0  0  0  0
  161.6380  211.2540  149.9490 C   0  0  0  0  0  0  0  0  0  0  0  0
  161.5580  210.0050  150.6410 N   0  0  0  0  0  2  0  0  0  0  0  0
  160.3660  213.3120  149.4770 C   0  0  0  0  0  1  0  0  0  0  0  0
  160.4330  211.8100  149.2700 C   0  0  1  0  0  3  0  0  0  0  0  0
  160.4790  211.5090  147.8490 N   0  0  0  0  0  2  0  0  0  0  0  0
  159.5210  212.3820  147.1950 C   0  0  0  0  0  1  0  0  0  0  0  0
  160.2350  207.1650  154.6060 O   0  0  0  0  0  0  0  0  0  0  0  0
  160.3700  208.2310  153.9480 C   0  0  0  0  0  0  0  0  0  0  0  0
  160.1460  209.4830  154.5400 O   0  0  0  0  0  0  0  0  0  0  0  0
  159.3690  209.7120  155.7210 C   0  0  1  0  0  3  0  0  0  0  0  0
  160.2130  210.0750  156.9480 C   0  0  1  0  0  3  0  0  0  0  0  0
  161.2080  209.1150  157.1460 O   0  0  0  0  0  1  0  0  0  0  0  0
  162.3420  211.3550  157.0390 C   0  0  0  0  0  1  0  0  0  0  0  0
  160.8570  211.4370  156.7610 C   0  0  0  0  0  2  0  0  0  0  0  0
  158.1960  210.6640  155.4700 C   0  0  0  0  0  2  0  0  0  0  0  0
  158.5470  211.8160  154.5370 C   0  0  1  0  0  3  0  0  0  0  0  0
  158.1500  211.4850  153.1040 C   0  0  0  0  0  2  0  0  0  0  0  0
  160.0510  212.5560  152.7650 C   0  0  0  0  0  1  0  0  0  0  0  0
  158.7930  212.3380  152.2040 O   0  0  0  0  0  0  0  0  0  0  0  0
  157.9010  212.9810  154.9550 O   0  0  0  0  0  0  0  0  0  0  0  0
  156.8390  212.5410  155.7490 C   0  0  0  0  0  2  0  0  0  0  0  0
  156.9540  214.3650  157.2330 O   0  0  0  0  0  0  0  0  0  0  0  0
  156.2540  213.6920  156.4940 C   0  0  0  0  0  3  0  0  0  0  0  0
  160.4580  206.8080  151.9770 C   0  0  0  0  0  3  0  0  0  0  0  0
  160.9030  205.7390  152.5560 N   0  0  0  0  0  0  0  0  0  0  0  0
  161.7210  202.7680  148.4470 C   0  0  2  0  0  3  0  0  0  0  0  0
  160.4710  202.1910  149.1250 C   0  0  0  0  0  2  0  0  0  0  0  0
  160.6540  204.0070  150.8050 C   0  0  0  0  0  0  0  0  0  0  0  0
  160.4330  202.6290  150.5120 N   0  0  0  0  0  0  0  0  0  0  0  0
  161.8220  204.3050  148.6010 C   0  0  0  0  0  2  0  0  0  0  0  0
  160.6860  204.3980  152.0860 C   0  0  0  0  0  2  0  0  0  0  0  0
  160.8880  204.9330  149.6480 C   0  0  0  0  0  2  0  0  0  0  0  0
  161.1590  203.4300  144.8480 C   0  0  1  0  0  3  0  0  0  0  0  0
  160.5050  201.6870  146.5050 C   0  0  1  0  0  3  0  0  0  0  0  0
  159.2780  202.0200  144.4910 O   0  0  0  0  0  0  0  0  0  0  0  0
  162.0490  203.5580  146.0740 C   0  0  0  0  0  2  0  0  0  0  0  0
  161.7990  202.3440  146.9770 C   0  0  1  0  0  3  0  0  0  0  0  0
  160.2160  202.3420  145.2050 C   0  0  0  0  0  0  0  0  0  0  0  0
  161.2610  205.6600  143.7680 C   0  0  0  0  0  2  0  0  0  0  0  0
  160.4150  204.7400  144.6260 C   0  0  0  0  0  3  0  0  0  0  0  0
  161.1900  205.8760  145.2640 C   0  0  0  0  0  2  0  0  0  0  0  0
  161.1290  199.7200  145.1600 C   0  0  0  0  0  2  0  0  0  0  0  0
  160.7360  200.2180  146.3320 C   0  0  0  0  0  3  0  0  0  0  0  0
  1 29  1  1  0  0  0
  1 13  1  0  0  0  0
  2  7  1  6  0  0  0
  2  3  1  0  0  0  0
  3  1  1  6  0  0  0
  4  2  1  0  0  0  0
  4  3  1  0  0  0  0
  5  6  2  0  0  0  0
  6  7  1  0  0  0  0
  9  8  1  6  0  0  0
  9  6  1  0  0  0  0
 10  9  1  0  0  0  0
 11 10  1  0  0  0  0
 13 14  1  0  0  0  0
 13 12  2  0  0  0  0
 14 15  1  0  0  0  0
 15 20  1  6  0  0  0
 15 16  1  0  0  0  0
 16 17  1  6  0  0  0
 19 16  1  0  0  0  0
 19 18  1  0  0  0  0
 21 22  1  6  0  0  0
 21 25  1  0  0  0  0
 21 20  1  0  0  0  0
 24 23  1  0  0  0  0
 24 22  1  0  0  0  0
 25 26  1  0  0  0  0
 26 28  1  0  0  0  0
 28 27  2  0  0  0  0
 29 30  2  0  0  0  0
 31 35  1  6  0  0  0
 31 32  1  0  0  0  0
 32 34  1  0  0  0  0
 33 36  1  0  0  0  0
 34 33  2  0  0  0  0
 35 37  1  0  0  0  0
 36 30  1  0  0  0  0
 37 33  1  0  0  0  0
 38 45  1  1  0  0  0
 38 43  1  0  0  0  0
 38 41  1  0  0  0  0
 39 48  1  6  0  0  0
 39 42  1  0  0  0  0
 40 43  2  0  0  0  0
 42 41  1  6  0  0  0
 42 31  1  0  0  0  0
 43 39  1  0  0  0  0
 44 45  1  0  0  0  0
 44 46  1  0  0  0  0
 45 46  1  0  0  0  0
 47 48  2  0  0  0  0
M  END
>  <MODEL>
7

>  <REMARK>
 VINA RESULT:      -1.9      1.285      2.164
  Name = 
  21 active torsions:
  status: ('A' for Active; 'I' for Inactive)
    1  A    between atoms: C_1  and  C_22
    2  A    between atoms: C_3  and  N_32
    3  A    between atoms: C_4  and  N_11
    4  A    between atoms: C_4  and  C_24
    5  A    between atoms: C_5  and  C_17
    6  A    between atoms: C_6  and  C_31
    7  A    between atoms: C_8  and  C_27
    8  A    between atoms: O_10  and  C_16
    9  A    between atoms: O_10  and  C_35
   10  A    between atoms: C_13  and  C_30
   11  A    between atoms: C_13  and  C_35
   12  A    between atoms: C_16  and  C_46
   13  A    between atoms: C_17  and  C_40
   14  A    between atoms: C_17  and  C_48
   15  A    between atoms: C_19  and  C_35
   16  A    between atoms: C_19  and  O_45
   17  A    between atoms: C_20  and  C_30
   18  A    between atoms: C_20  and  C_41
   19  A    between atoms: N_29  and  C_39
   20  A    between atoms: C_30  and  O_36
   21  A    between atoms: O_36  and  C_48
                            x       y       z     vdW  Elec       q    Type
                         _______ _______ _______ _____ _____    ______ ____

>  <TORSDO>
F 21

$$$$
