=
 OpenBabel11072413593D

 29 32  0  0  1  0  0  0  0  0999 V2000
  160.7380  209.9340  155.9760 C   0  0  0  0  0  2  0  0  0  0  0  0
  160.7220  206.8920  153.6380 C   0  0  2  0  0  3  0  0  0  0  0  0
  160.9480  208.5920  156.6810 C   0  0  0  0  0  2  0  0  0  0  0  0
  160.0340  214.2750  149.9080 C   0  0  0  0  0  1  0  0  0  0  0  0
  161.3390  210.5570  152.5970 N   0  0  0  0  0  0  0  0  0  0  0  0
  160.3950  206.9940  155.0110 O   0  0  0  0  0  0  0  0  0  0  0  0
  160.6290  212.3400  151.2160 N   0  0  0  0  0  0  0  0  0  0  0  0
  161.4740  207.5080  155.7480 C   0  0  0  0  0  2  0  0  0  0  0  0
  158.4810  213.3080  151.6960 C   0  0  0  0  0  3  0  0  0  0  0  0
  159.2100  211.0350  154.3300 C   0  0  0  0  0  2  0  0  0  0  0  0
  160.0540  209.7890  154.6230 C   0  0  1  0  0  3  0  0  0  0  0  0
  159.7440  213.2480  150.9420 C   0  0  0  0  0  0  0  0  0  0  0  0
  161.9760  207.8710  151.9100 N   0  0  0  0  0  0  0  0  0  0  0  0
  161.9700  206.1360  153.2980 C   0  0  0  0  0  2  0  0  0  0  0  0
  158.1810  212.3920  152.5690 N   0  0  0  0  0  0  0  0  0  0  0  0
  161.1360  209.4660  153.5610 C   0  0  1  0  0  3  0  0  0  0  0  0
  160.3800  211.3400  152.2090 C   0  0  0  0  0  0  0  0  0  0  0  0
  159.0170  211.2150  152.8320 C   0  0  1  0  0  3  0  0  0  0  0  0
  160.8540  208.1530  152.8120 C   0  0  2  0  0  3  0  0  0  0  0  0
  162.3120  206.5430  151.9990 O   0  0  0  0  0  0  0  0  0  0  0  0
  161.5720  208.1790  150.5330 C   0  0  1  0  0  3  0  0  0  0  0  0
  162.2700  209.2960  150.0650 O   0  0  0  0  0  0  0  0  0  0  0  0
  161.9970  209.3390  148.6970 C   0  0  0  0  0  1  0  0  0  0  0  0
  161.7610  206.9980  149.5810 C   0  0  0  0  0  2  0  0  0  0  0  0
  160.4760  206.1920  149.4810 C   0  0  0  0  0  2  0  0  0  0  0  0
  160.7330  204.9600  148.8760 O   0  0  0  0  0  0  0  0  0  0  0  0
  160.8760  204.0650  149.9360 C   0  0  0  0  0  2  0  0  0  0  0  0
  161.0920  202.5110  148.0790 N   0  0  0  0  0  1  0  0  0  0  0  0
  160.6330  202.6480  149.4500 C   0  0  0  0  0  2  0  0  0  0  0  0
  1  3  1  0  0  0  0
  2 14  1  1  0  0  0
  2  6  1  0  0  0  0
  4 12  1  0  0  0  0
  6  8  1  0  0  0  0
  7 17  1  0  0  0  0
  8  3  1  0  0  0  0
  9 15  2  0  0  0  0
 11 10  1  6  0  0  0
 11  1  1  0  0  0  0
 12  7  2  0  0  0  0
 12  9  1  0  0  0  0
 13 20  1  0  0  0  0
 15 18  1  0  0  0  0
 16  5  1  6  0  0  0
 16 11  1  0  0  0  0
 17  5  2  0  0  0  0
 17 18  1  0  0  0  0
 18 10  1  1  0  0  0
 19 13  1  6  0  0  0
 19 16  1  0  0  0  0
 19  2  1  0  0  0  0
 20 14  1  0  0  0  0
 21 24  1  6  0  0  0
 21 13  1  0  0  0  0
 22 21  1  0  0  0  0
 23 22  1  0  0  0  0
 25 24  1  0  0  0  0
 26 25  1  0  0  0  0
 26 27  1  0  0  0  0
 28 29  1  0  0  0  0
 29 27  1  0  0  0  0
M  END
>  <MODEL>
1

>  <REMARK>
 VINA RESULT:      -6.5      0.000      0.000
  Name = 
  7 active torsions:
  status: ('A' for Active; 'I' for Inactive)
    1  A    between atoms: C_2  and  O_14
    2  A    between atoms: C_2  and  C_17
    3  A    between atoms: O_6  and  C_9
    4  A    between atoms: C_9  and  C_13
    5  A    between atoms: C_9  and  N_21
    6  A    between atoms: C_13  and  C_16
    7  A    between atoms: O_14  and  C_16
                            x       y       z     vdW  Elec       q    Type
                         _______ _______ _______ _____ _____    ______ ____

>  <TORSDO>
F 7

$$$$
=
 OpenBabel11072413593D

 29 32  0  0  1  0  0  0  0  0999 V2000
  160.4640  207.6820  153.2160 C   0  0  0  0  0  2  0  0  0  0  0  0
  162.5590  209.1560  150.3600 C   0  0  2  0  0  3  0  0  0  0  0  0
  160.8480  209.1520  153.4050 C   0  0  0  0  0  2  0  0  0  0  0  0
  160.0250  201.3280  149.2690 C   0  0  0  0  0  1  0  0  0  0  0  0
  160.3420  206.0030  150.1620 N   0  0  0  0  0  0  0  0  0  0  0  0
  162.4910  209.5160  151.7270 O   0  0  0  0  0  0  0  0  0  0  0  0
  160.2790  203.6880  149.6860 N   0  0  0  0  0  0  0  0  0  0  0  0
  161.1770  209.8520  152.0930 C   0  0  0  0  0  2  0  0  0  0  0  0
  161.4440  202.2260  151.1990 C   0  0  0  0  0  3  0  0  0  0  0  0
  161.4890  205.4730  152.6450 C   0  0  0  0  0  2  0  0  0  0  0  0
  161.3850  206.9510  152.2490 C   0  0  1  0  0  3  0  0  0  0  0  0
  160.5900  202.4750  150.0260 C   0  0  0  0  0  0  0  0  0  0  0  0
  161.3690  208.1500  148.6030 N   0  0  0  0  0  0  0  0  0  0  0  0
  161.9960  210.1360  149.3750 C   0  0  0  0  0  2  0  0  0  0  0  0
  161.9910  203.2130  151.8460 N   0  0  0  0  0  0  0  0  0  0  0  0
  160.8820  207.2080  150.8060 C   0  0  1  0  0  3  0  0  0  0  0  0
  160.8030  204.8130  150.3970 C   0  0  0  0  0  0  0  0  0  0  0  0
  161.8650  204.6180  151.4450 C   0  0  1  0  0  3  0  0  0  0  0  0
  161.9600  207.8410  149.9090 C   0  0  2  0  0  3  0  0  0  0  0  0
  161.7700  209.3990  148.2020 O   0  0  0  0  0  0  0  0  0  0  0  0
  161.8260  207.1550  147.6250 C   0  0  1  0  0  3  0  0  0  0  0  0
  162.8430  206.3710  148.1730 O   0  0  0  0  0  0  0  0  0  0  0  0
  162.9270  205.2580  147.3350 C   0  0  0  0  0  1  0  0  0  0  0  0
  160.6930  206.2680  147.1070 C   0  0  0  0  0  2  0  0  0  0  0  0
  160.4880  206.4930  145.6170 C   0  0  0  0  0  2  0  0  0  0  0  0
  159.8190  205.4010  145.0600 O   0  0  0  0  0  0  0  0  0  0  0  0
  160.8310  204.5440  144.6280 C   0  0  0  0  0  2  0  0  0  0  0  0
  161.1260  202.6130  146.0760 N   0  0  0  0  0  1  0  0  0  0  0  0
  160.4360  203.1040  144.8960 C   0  0  0  0  0  2  0  0  0  0  0  0
  1  3  1  0  0  0  0
  2 14  1  6  0  0  0
  2  6  1  0  0  0  0
  4 12  1  0  0  0  0
  5 17  2  0  0  0  0
  6  8  1  0  0  0  0
  7 12  2  0  0  0  0
  7 17  1  0  0  0  0
  8  3  1  0  0  0  0
  9 15  2  0  0  0  0
 11 10  1  1  0  0  0
 11  1  1  0  0  0  0
 12  9  1  0  0  0  0
 16  5  1  6  0  0  0
 16 11  1  0  0  0  0
 17 18  1  0  0  0  0
 18 15  1  0  0  0  0
 18 10  1  1  0  0  0
 19 13  1  6  0  0  0
 19  2  1  0  0  0  0
 19 16  1  0  0  0  0
 20 13  1  0  0  0  0
 20 14  1  0  0  0  0
 21 24  1  1  0  0  0
 21 22  1  0  0  0  0
 21 13  1  0  0  0  0
 23 22  1  0  0  0  0
 25 24  1  0  0  0  0
 26 25  1  0  0  0  0
 27 29  1  0  0  0  0
 27 26  1  0  0  0  0
 29 28  1  0  0  0  0
M  END
>  <MODEL>
2

>  <REMARK>
 VINA RESULT:      -6.5      2.961      6.105
  Name = 
  7 active torsions:
  status: ('A' for Active; 'I' for Inactive)
    1  A    between atoms: C_2  and  O_14
    2  A    between atoms: C_2  and  C_17
    3  A    between atoms: O_6  and  C_9
    4  A    between atoms: C_9  and  C_13
    5  A    between atoms: C_9  and  N_21
    6  A    between atoms: C_13  and  C_16
    7  A    between atoms: O_14  and  C_16
                            x       y       z     vdW  Elec       q    Type
                         _______ _______ _______ _____ _____    ______ ____

>  <TORSDO>
F 7

$$$$
=
 OpenBabel11072413593D

 29 32  0  0  1  0  0  0  0  0999 V2000
  160.7800  207.2360  153.0790 C   0  0  0  0  0  2  0  0  0  0  0  0
  162.4920  208.5290  149.8990 C   0  0  2  0  0  3  0  0  0  0  0  0
  161.2170  208.7010  153.1460 C   0  0  0  0  0  2  0  0  0  0  0  0
  159.6710  200.7320  149.5280 C   0  0  0  0  0  1  0  0  0  0  0  0
  160.2040  205.4310  150.1520 N   0  0  0  0  0  0  0  0  0  0  0  0
  162.6200  208.9490  151.2440 O   0  0  0  0  0  0  0  0  0  0  0  0
  160.0280  203.1000  149.7970 N   0  0  0  0  0  0  0  0  0  0  0  0
  161.3760  209.3350  151.7700 C   0  0  0  0  0  2  0  0  0  0  0  0
  161.3590  201.6740  151.2020 C   0  0  0  0  0  3  0  0  0  0  0  0
  161.6700  204.9780  152.4770 C   0  0  0  0  0  2  0  0  0  0  0  0
  161.5440  206.4390  152.0310 C   0  0  1  0  0  3  0  0  0  0  0  0
  160.3570  201.8950  150.1470 C   0  0  0  0  0  0  0  0  0  0  0  0
  161.0510  207.4800  148.3690 N   0  0  0  0  0  0  0  0  0  0  0  0
  161.8200  209.4800  148.9560 C   0  0  0  0  0  2  0  0  0  0  0  0
  162.0110  202.6730  151.7220 N   0  0  0  0  0  0  0  0  0  0  0  0
  160.8530  206.6480  150.6590 C   0  0  1  0  0  3  0  0  0  0  0  0
  160.6680  204.2400  150.3760 C   0  0  0  0  0  0  0  0  0  0  0  0
  161.8600  204.0620  151.2770 C   0  0  1  0  0  3  0  0  0  0  0  0
  161.8100  207.2130  149.5960 C   0  0  2  0  0  3  0  0  0  0  0  0
  161.4190  208.7000  147.8600 O   0  0  0  0  0  0  0  0  0  0  0  0
  161.3480  206.4330  147.3850 C   0  0  1  0  0  3  0  0  0  0  0  0
  161.2080  206.9350  146.0890 O   0  0  0  0  0  0  0  0  0  0  0  0
  160.1040  206.2640  145.5630 C   0  0  0  0  0  1  0  0  0  0  0  0
  162.7380  205.8220  147.5700 C   0  0  0  0  0  2  0  0  0  0  0  0
  162.8670  204.5500  146.7470 C   0  0  0  0  0  2  0  0  0  0  0  0
  161.8670  203.6460  147.1100 O   0  0  0  0  0  0  0  0  0  0  0  0
  161.4230  203.1010  145.9050 C   0  0  0  0  0  2  0  0  0  0  0  0
  160.0260  201.3470  144.9640 N   0  0  0  0  0  1  0  0  0  0  0  0
  160.7150  201.7850  146.1660 C   0  0  0  0  0  2  0  0  0  0  0  0
  1  3  1  0  0  0  0
  2 14  1  6  0  0  0
  2  6  1  0  0  0  0
  4 12  1  0  0  0  0
  5 17  2  0  0  0  0
  6  8  1  0  0  0  0
  7 12  2  0  0  0  0
  7 17  1  0  0  0  0
  8  3  1  0  0  0  0
  9 15  2  0  0  0  0
 11 10  1  1  0  0  0
 11  1  1  0  0  0  0
 12  9  1  0  0  0  0
 16  5  1  6  0  0  0
 16 11  1  0  0  0  0
 17 18  1  0  0  0  0
 18 15  1  0  0  0  0
 18 10  1  1  0  0  0
 19 13  1  6  0  0  0
 19  2  1  0  0  0  0
 19 16  1  0  0  0  0
 20 13  1  0  0  0  0
 20 14  1  0  0  0  0
 21 24  1  1  0  0  0
 21 13  1  0  0  0  0
 22 21  1  0  0  0  0
 23 22  1  0  0  0  0
 25 26  1  0  0  0  0
 25 24  1  0  0  0  0
 27 29  1  0  0  0  0
 27 26  1  0  0  0  0
 28 29  1  0  0  0  0
M  END
>  <MODEL>
3

>  <REMARK>
 VINA RESULT:      -6.4      3.229      6.388
  Name = 
  7 active torsions:
  status: ('A' for Active; 'I' for Inactive)
    1  A    between atoms: C_2  and  O_14
    2  A    between atoms: C_2  and  C_17
    3  A    between atoms: O_6  and  C_9
    4  A    between atoms: C_9  and  C_13
    5  A    between atoms: C_9  and  N_21
    6  A    between atoms: C_13  and  C_16
    7  A    between atoms: O_14  and  C_16
                            x       y       z     vdW  Elec       q    Type
                         _______ _______ _______ _____ _____    ______ ____

>  <TORSDO>
F 7

$$$$
=
 OpenBabel11072413593D

 29 32  0  0  1  0  0  0  0  0999 V2000
  160.7780  206.7340  146.3540 C   0  0  0  0  0  2  0  0  0  0  0  0
  161.8170  203.4780  148.0970 C   0  0  2  0  0  3  0  0  0  0  0  0
  160.9320  205.5350  145.4150 C   0  0  0  0  0  2  0  0  0  0  0  0
  160.5120  209.9640  153.1100 C   0  0  0  0  0  1  0  0  0  0  0  0
  160.2090  206.5520  149.7900 N   0  0  0  0  0  0  0  0  0  0  0  0
  162.0230  203.9110  146.7650 O   0  0  0  0  0  0  0  0  0  0  0  0
  160.4400  208.1980  151.4720 N   0  0  0  0  0  0  0  0  0  0  0  0
  160.8010  204.1980  146.1360 C   0  0  0  0  0  2  0  0  0  0  0  0
  162.1780  209.8320  151.1740 C   0  0  0  0  0  3  0  0  0  0  0  0
  162.0040  207.9380  148.1710 C   0  0  0  0  0  2  0  0  0  0  0  0
  161.5480  206.5680  147.6560 C   0  0  1  0  0  3  0  0  0  0  0  0
  161.0330  209.2670  151.9060 C   0  0  0  0  0  0  0  0  0  0  0  0
  160.4300  203.7220  149.9760 N   0  0  0  0  0  0  0  0  0  0  0  0
  160.8670  202.3360  148.2960 C   0  0  0  0  0  2  0  0  0  0  0  0
  162.6840  209.2130  150.1480 N   0  0  0  0  0  0  0  0  0  0  0  0
  160.6700  205.7570  148.6430 C   0  0  1  0  0  3  0  0  0  0  0  0
  160.9160  207.5060  150.3130 C   0  0  0  0  0  0  0  0  0  0  0  0
  162.2190  207.9050  149.6760 C   0  0  1  0  0  3  0  0  0  0  0  0
  161.3670  204.4780  149.1400 C   0  0  2  0  0  3  0  0  0  0  0  0
  160.4940  202.3910  149.6470 O   0  0  0  0  0  0  0  0  0  0  0  0
  160.8010  203.8930  151.3860 C   0  0  1  0  0  3  0  0  0  0  0  0
  160.6100  202.6980  152.0830 O   0  0  0  0  0  0  0  0  0  0  0  0
  161.8440  202.0490  152.0230 C   0  0  0  0  0  1  0  0  0  0  0  0
  162.2370  204.3880  151.5650 C   0  0  0  0  0  2  0  0  0  0  0  0
  162.2690  205.5690  152.5230 C   0  0  0  0  0  2  0  0  0  0  0  0
  161.2050  205.4790  153.4230 O   0  0  0  0  0  0  0  0  0  0  0  0
  161.4400  206.4900  154.3560 C   0  0  0  0  0  2  0  0  0  0  0  0
  160.3200  207.0150  156.4490 N   0  0  0  0  0  1  0  0  0  0  0  0
  160.1350  206.8970  155.0130 C   0  0  0  0  0  2  0  0  0  0  0  0
  2 14  1  6  0  0  0
  2 19  1  0  0  0  0
  3  8  1  0  0  0  0
  3  1  1  0  0  0  0
  5 17  2  0  0  0  0
  6  2  1  0  0  0  0
  7 12  2  0  0  0  0
  8  6  1  0  0  0  0
  9 12  1  0  0  0  0
 11  1  1  6  0  0  0
 11 10  1  0  0  0  0
 11 16  1  0  0  0  0
 12  4  1  0  0  0  0
 13 21  1  0  0  0  0
 14 20  1  0  0  0  0
 15  9  2  0  0  0  0
 16 19  1  0  0  0  0
 16  5  1  1  0  0  0
 17  7  1  0  0  0  0
 18 10  1  6  0  0  0
 18 15  1  0  0  0  0
 18 17  1  0  0  0  0
 19 13  1  1  0  0  0
 20 13  1  0  0  0  0
 21 24  1  6  0  0  0
 21 22  1  0  0  0  0
 23 22  1  0  0  0  0
 24 25  1  0  0  0  0
 25 26  1  0  0  0  0
 26 27  1  0  0  0  0
 27 29  1  0  0  0  0
 29 28  1  0  0  0  0
M  END
>  <MODEL>
4

>  <REMARK>
 VINA RESULT:      -5.5      2.638      6.659
  Name = 
  7 active torsions:
  status: ('A' for Active; 'I' for Inactive)
    1  A    between atoms: C_2  and  O_14
    2  A    between atoms: C_2  and  C_17
    3  A    between atoms: O_6  and  C_9
    4  A    between atoms: C_9  and  C_13
    5  A    between atoms: C_9  and  N_21
    6  A    between atoms: C_13  and  C_16
    7  A    between atoms: O_14  and  C_16
                            x       y       z     vdW  Elec       q    Type
                         _______ _______ _______ _____ _____    ______ ____

>  <TORSDO>
F 7

$$$$
=
 OpenBabel11072413593D

 29 32  0  0  1  0  0  0  0  0999 V2000
  162.3310  209.6730  150.0360 C   0  0  0  0  0  2  0  0  0  0  0  0
  160.6110  207.2560  152.4700 C   0  0  2  0  0  3  0  0  0  0  0  0
  161.9750  210.2870  151.3920 C   0  0  0  0  0  2  0  0  0  0  0  0
  163.0030  203.9560  145.2390 C   0  0  0  0  0  1  0  0  0  0  0  0
  162.7370  206.2670  149.4030 N   0  0  0  0  0  0  0  0  0  0  0  0
  160.5400  208.6660  152.3750 O   0  0  0  0  0  0  0  0  0  0  0  0
  162.7800  205.0820  147.3580 N   0  0  0  0  0  0  0  0  0  0  0  0
  161.8150  209.2430  152.4910 C   0  0  0  0  0  2  0  0  0  0  0  0
  161.4090  205.9280  145.5730 C   0  0  0  0  0  3  0  0  0  0  0  0
  161.3070  208.3290  148.1920 C   0  0  0  0  0  2  0  0  0  0  0  0
  161.5000  208.4400  149.7090 C   0  0  1  0  0  3  0  0  0  0  0  0
  162.3950  204.9840  146.1230 C   0  0  0  0  0  0  0  0  0  0  0  0
  161.9560  205.3900  151.9940 N   0  0  0  0  0  0  0  0  0  0  0  0
  161.3100  206.6960  153.6710 C   0  0  0  0  0  2  0  0  0  0  0  0
  160.8250  206.8030  146.3380 N   0  0  0  0  0  0  0  0  0  0  0  0
  162.1670  207.2100  150.3760 C   0  0  1  0  0  3  0  0  0  0  0  0
  162.2160  206.0630  148.2320 C   0  0  0  0  0  0  0  0  0  0  0  0
  161.0390  206.8880  147.7870 C   0  0  1  0  0  3  0  0  0  0  0  0
  161.2150  206.4660  151.3290 C   0  0  2  0  0  3  0  0  0  0  0  0
  161.6410  205.3760  153.3300 O   0  0  0  0  0  0  0  0  0  0  0  0
  161.5790  204.1060  151.3920 C   0  0  1  0  0  3  0  0  0  0  0  0
  161.3990  203.1410  152.3860 O   0  0  0  0  0  0  0  0  0  0  0  0
  162.2280  202.0830  152.0110 C   0  0  0  0  0  1  0  0  0  0  0  0
  160.3290  204.2050  150.5170 C   0  0  0  0  0  2  0  0  0  0  0  0
  160.4560  203.2870  149.3120 C   0  0  0  0  0  2  0  0  0  0  0  0
  159.8740  202.0500  149.5940 O   0  0  0  0  0  0  0  0  0  0  0  0
  160.5570  201.1410  148.7840 C   0  0  0  0  0  2  0  0  0  0  0  0
  160.8310  201.1450  146.3680 N   0  0  0  0  0  1  0  0  0  0  0  0
  161.1520  201.8620  147.5900 C   0  0  0  0  0  2  0  0  0  0  0  0
  1  3  1  0  0  0  0
  2 14  1  1  0  0  0
  3  8  1  0  0  0  0
  4 12  1  0  0  0  0
  6  2  1  0  0  0  0
  6  8  1  0  0  0  0
  7 17  1  0  0  0  0
  9 12  1  0  0  0  0
  9 15  2  0  0  0  0
 11 10  1  6  0  0  0
 11  1  1  0  0  0  0
 11 16  1  0  0  0  0
 12  7  2  0  0  0  0
 13 20  1  0  0  0  0
 15 18  1  0  0  0  0
 16  5  1  6  0  0  0
 16 19  1  0  0  0  0
 17  5  2  0  0  0  0
 18 10  1  6  0  0  0
 18 17  1  0  0  0  0
 19 13  1  1  0  0  0
 19  2  1  0  0  0  0
 20 14  1  0  0  0  0
 21 24  1  1  0  0  0
 21 13  1  0  0  0  0
 21 22  1  0  0  0  0
 23 22  1  0  0  0  0
 25 26  1  0  0  0  0
 25 24  1  0  0  0  0
 27 26  1  0  0  0  0
 28 29  1  0  0  0  0
 29 27  1  0  0  0  0
M  END
>  <MODEL>
5

>  <REMARK>
 VINA RESULT:      -5.1      3.290      5.839
  Name = 
  7 active torsions:
  status: ('A' for Active; 'I' for Inactive)
    1  A    between atoms: C_2  and  O_14
    2  A    between atoms: C_2  and  C_17
    3  A    between atoms: O_6  and  C_9
    4  A    between atoms: C_9  and  C_13
    5  A    between atoms: C_9  and  N_21
    6  A    between atoms: C_13  and  C_16
    7  A    between atoms: O_14  and  C_16
                            x       y       z     vdW  Elec       q    Type
                         _______ _______ _______ _____ _____    ______ ____

>  <TORSDO>
F 7

$$$$
=
 OpenBabel11072413593D

 29 32  0  0  1  0  0  0  0  0999 V2000
  160.0900  201.7530  149.5870 C   0  0  0  0  0  2  0  0  0  0  0  0
  161.9530  204.2180  151.8610 C   0  0  2  0  0  3  0  0  0  0  0  0
  160.1460  201.3380  151.0600 C   0  0  0  0  0  2  0  0  0  0  0  0
  161.1830  206.5440  143.9310 C   0  0  0  0  0  1  0  0  0  0  0  0
  160.4630  205.0070  148.3890 N   0  0  0  0  0  0  0  0  0  0  0  0
  161.7480  202.8240  151.9940 O   0  0  0  0  0  0  0  0  0  0  0  0
  160.9120  205.7940  146.2050 N   0  0  0  0  0  0  0  0  0  0  0  0
  160.3780  202.5160  151.9980 C   0  0  0  0  0  2  0  0  0  0  0  0
  162.2910  204.4100  144.8030 C   0  0  0  0  0  3  0  0  0  0  0  0
  161.5830  202.5390  147.7410 C   0  0  0  0  0  2  0  0  0  0  0  0
  161.1870  202.7380  149.2090 C   0  0  1  0  0  3  0  0  0  0  0  0
  161.4570  205.5990  145.0440 C   0  0  0  0  0  0  0  0  0  0  0  0
  161.0830  206.1790  150.9050 N   0  0  0  0  0  0  0  0  0  0  0  0
  161.2410  205.1010  152.8410 C   0  0  0  0  0  2  0  0  0  0  0  0
  162.5870  203.5960  145.7730 N   0  0  0  0  0  0  0  0  0  0  0  0
  160.7070  204.1670  149.5700 C   0  0  1  0  0  3  0  0  0  0  0  0
  161.1550  204.9010  147.2950 C   0  0  0  0  0  0  0  0  0  0  0  0
  162.1850  203.8120  147.1670 C   0  0  1  0  0  3  0  0  0  0  0  0
  161.6660  204.8860  150.5340 C   0  0  2  0  0  3  0  0  0  0  0  0
  161.2290  206.3760  152.2560 O   0  0  0  0  0  0  0  0  0  0  0  0
  161.7840  207.2460  150.1800 C   0  0  1  0  0  3  0  0  0  0  0  0
  160.9400  207.8120  149.2210 O   0  0  0  0  0  0  0  0  0  0  0  0
  161.7990  208.4200  148.3050 C   0  0  0  0  0  1  0  0  0  0  0  0
  162.3350  208.3300  151.1070 C   0  0  0  0  0  2  0  0  0  0  0  0
  161.2030  209.1990  151.6320 C   0  0  0  0  0  2  0  0  0  0  0  0
  161.6300  209.9070  152.7570 O   0  0  0  0  0  0  0  0  0  0  0  0
  160.6260  209.7100  153.7050 C   0  0  0  0  0  2  0  0  0  0  0  0
  160.4580  207.8200  155.2260 N   0  0  0  0  0  1  0  0  0  0  0  0
  161.2030  209.0330  154.9340 C   0  0  0  0  0  2  0  0  0  0  0  0
  1  3  1  0  0  0  0
  2  6  1  0  0  0  0
  2 14  1  1  0  0  0
  3  8  1  0  0  0  0
  4 12  1  0  0  0  0
  6  8  1  0  0  0  0
  7 17  1  0  0  0  0
  9 12  1  0  0  0  0
  9 15  2  0  0  0  0
 11 10  1  6  0  0  0
 11 16  1  0  0  0  0
 11  1  1  0  0  0  0
 12  7  2  0  0  0  0
 13 20  1  0  0  0  0
 15 18  1  0  0  0  0
 16  5  1  6  0  0  0
 16 19  1  0  0  0  0
 17  5  2  0  0  0  0
 18 17  1  0  0  0  0
 18 10  1  6  0  0  0
 19 13  1  1  0  0  0
 19  2  1  0  0  0  0
 20 14  1  0  0  0  0
 21 13  1  0  0  0  0
 21 24  1  1  0  0  0
 22 21  1  0  0  0  0
 23 22  1  0  0  0  0
 24 25  1  0  0  0  0
 25 26  1  0  0  0  0
 26 27  1  0  0  0  0
 27 29  1  0  0  0  0
 29 28  1  0  0  0  0
M  END
>  <MODEL>
6

>  <REMARK>
 VINA RESULT:      -4.4      2.812      7.343
  Name = 
  7 active torsions:
  status: ('A' for Active; 'I' for Inactive)
    1  A    between atoms: C_2  and  O_14
    2  A    between atoms: C_2  and  C_17
    3  A    between atoms: O_6  and  C_9
    4  A    between atoms: C_9  and  C_13
    5  A    between atoms: C_9  and  N_21
    6  A    between atoms: C_13  and  C_16
    7  A    between atoms: O_14  and  C_16
                            x       y       z     vdW  Elec       q    Type
                         _______ _______ _______ _____ _____    ______ ____

>  <TORSDO>
F 7

$$$$
=
 OpenBabel11072413593D

 29 32  0  0  1  0  0  0  0  0999 V2000
  160.0840  212.2340  152.0480 C   0  0  0  0  0  2  0  0  0  0  0  0
  162.3300  210.0280  149.8550 C   0  0  2  0  0  3  0  0  0  0  0  0
  160.4100  212.8280  150.6760 C   0  0  0  0  0  2  0  0  0  0  0  0
  160.1140  206.7450  157.1500 C   0  0  0  0  0  1  0  0  0  0  0  0
  160.2270  208.8470  152.8690 N   0  0  0  0  0  0  0  0  0  0  0  0
  162.1550  211.4320  149.8670 O   0  0  0  0  0  0  0  0  0  0  0  0
  160.2670  207.7810  154.9790 N   0  0  0  0  0  0  0  0  0  0  0  0
  160.8090  211.7720  149.6520 C   0  0  0  0  0  2  0  0  0  0  0  0
  161.3650  208.9440  156.7740 C   0  0  0  0  0  3  0  0  0  0  0  0
  161.2120  211.1860  154.0200 C   0  0  0  0  0  2  0  0  0  0  0  0
  161.0920  211.1820  152.4910 C   0  0  1  0  0  3  0  0  0  0  0  0
  160.5890  207.8160  156.2350 C   0  0  0  0  0  0  0  0  0  0  0  0
  161.2970  207.9840  150.3780 N   0  0  0  0  0  0  0  0  0  0  0  0
  161.8090  209.2930  148.6580 C   0  0  0  0  0  2  0  0  0  0  0  0
  161.8360  209.8650  155.9860 N   0  0  0  0  0  0  0  0  0  0  0  0
  160.6850  209.8220  151.8690 C   0  0  1  0  0  3  0  0  0  0  0  0
  160.7060  208.7980  154.0740 C   0  0  0  0  0  0  0  0  0  0  0  0
  161.6960  209.8360  154.5260 C   0  0  1  0  0  3  0  0  0  0  0  0
  161.8040  209.2060  151.0120 C   0  0  2  0  0  3  0  0  0  0  0  0
  161.6880  207.9550  149.0630 O   0  0  0  0  0  0  0  0  0  0  0  0
  161.8510  206.8180  151.0760 C   0  0  1  0  0  3  0  0  0  0  0  0
  162.3580  207.1970  152.3220 O   0  0  0  0  0  0  0  0  0  0  0  0
  162.4320  206.0110  153.0530 C   0  0  0  0  0  1  0  0  0  0  0  0
  160.8350  205.6860  151.2400 C   0  0  0  0  0  2  0  0  0  0  0  0
  160.8030  204.8250  149.9880 C   0  0  0  0  0  2  0  0  0  0  0  0
  161.0880  203.4980  150.3170 O   0  0  0  0  0  0  0  0  0  0  0  0
  160.8390  202.7780  149.1480 C   0  0  0  0  0  2  0  0  0  0  0  0
  161.2810  200.5510  148.2780 N   0  0  0  0  0  1  0  0  0  0  0  0
  160.8430  201.2910  149.4490 C   0  0  0  0  0  2  0  0  0  0  0  0
  2 14  1  6  0  0  0
  2  6  1  0  0  0  0
  2 19  1  0  0  0  0
  3  1  1  0  0  0  0
  5 17  2  0  0  0  0
  7 12  2  0  0  0  0
  8  6  1  0  0  0  0
  8  3  1  0  0  0  0
 11  1  1  1  0  0  0
 11 10  1  0  0  0  0
 12  9  1  0  0  0  0
 12  4  1  0  0  0  0
 13 21  1  0  0  0  0
 14 20  1  0  0  0  0
 15  9  2  0  0  0  0
 16 11  1  0  0  0  0
 16  5  1  1  0  0  0
 17 18  1  0  0  0  0
 17  7  1  0  0  0  0
 18 10  1  1  0  0  0
 18 15  1  0  0  0  0
 19 13  1  6  0  0  0
 19 16  1  0  0  0  0
 20 13  1  0  0  0  0
 21 24  1  1  0  0  0
 21 22  1  0  0  0  0
 22 23  1  0  0  0  0
 25 26  1  0  0  0  0
 25 24  1  0  0  0  0
 27 29  1  0  0  0  0
 27 26  1  0  0  0  0
 28 29  1  0  0  0  0
M  END
>  <MODEL>
7

>  <REMARK>
 VINA RESULT:      -4.4      1.817      4.727
  Name = 
  7 active torsions:
  status: ('A' for Active; 'I' for Inactive)
    1  A    between atoms: C_2  and  O_14
    2  A    between atoms: C_2  and  C_17
    3  A    between atoms: O_6  and  C_9
    4  A    between atoms: C_9  and  C_13
    5  A    between atoms: C_9  and  N_21
    6  A    between atoms: C_13  and  C_16
    7  A    between atoms: O_14  and  C_16
                            x       y       z     vdW  Elec       q    Type
                         _______ _______ _______ _____ _____    ______ ____

>  <TORSDO>
F 7

$$$$
=
 OpenBabel11072413593D

 29 32  0  0  1  0  0  0  0  0999 V2000
  161.4170  205.2520  153.3840 C   0  0  0  0  0  2  0  0  0  0  0  0
  160.7280  207.3600  150.2530 C   0  0  2  0  0  3  0  0  0  0  0  0
  161.2780  204.4420  152.0930 C   0  0  0  0  0  2  0  0  0  0  0  0
  161.9430  211.6450  157.2570 C   0  0  0  0  0  1  0  0  0  0  0  0
  162.2400  208.6360  153.5680 N   0  0  0  0  0  0  0  0  0  0  0  0
  160.3990  206.0150  150.5420 O   0  0  0  0  0  0  0  0  0  0  0  0
  162.0180  210.1740  155.3500 N   0  0  0  0  0  0  0  0  0  0  0  0
  161.5510  205.2690  150.8420 C   0  0  0  0  0  2  0  0  0  0  0  0
  160.1560  209.8640  156.8390 C   0  0  0  0  0  3  0  0  0  0  0  0
  160.2440  207.0420  154.6800 C   0  0  0  0  0  2  0  0  0  0  0  0
  160.7540  206.6200  153.2960 C   0  0  1  0  0  3  0  0  0  0  0  0
  161.3860  210.5530  156.4170 C   0  0  0  0  0  0  0  0  0  0  0  0
  162.2270  209.0960  150.7600 N   0  0  0  0  0  0  0  0  0  0  0  0
  161.7660  207.5880  149.1960 C   0  0  0  0  0  2  0  0  0  0  0  0
  159.6210  208.9410  156.0940 N   0  0  0  0  0  0  0  0  0  0  0  0
  161.7530  207.6060  152.6390 C   0  0  1  0  0  3  0  0  0  0  0  0
  161.5090  209.1240  154.5230 C   0  0  0  0  0  0  0  0  0  0  0  0
  160.1400  208.5560  154.7780 C   0  0  1  0  0  3  0  0  0  0  0  0
  161.1830  208.2700  151.3740 C   0  0  2  0  0  3  0  0  0  0  0  0
  162.2300  208.8960  149.4030 O   0  0  0  0  0  0  0  0  0  0  0  0
  161.9460  210.5090  151.0430 C   0  0  1  0  0  3  0  0  0  0  0  0
  162.2900  211.2990  149.9430 O   0  0  0  0  0  0  0  0  0  0  0  0
  161.1600  212.0800  149.6980 C   0  0  0  0  0  1  0  0  0  0  0  0
  160.4900  210.7570  151.4400 C   0  0  0  0  0  2  0  0  0  0  0  0
  160.4250  211.6530  152.6660 C   0  0  0  0  0  2  0  0  0  0  0  0
  159.1710  211.5430  153.2700 O   0  0  0  0  0  0  0  0  0  0  0  0
  158.9660  212.7710  153.8970 C   0  0  0  0  0  2  0  0  0  0  0  0
  157.2780  211.3230  154.8800 N   0  0  0  0  0  1  0  0  0  0  0  0
  157.9080  212.6290  154.9750 C   0  0  0  0  0  2  0  0  0  0  0  0
  2 14  1  6  0  0  0
  2  6  1  0  0  0  0
  2 19  1  0  0  0  0
  3  1  1  0  0  0  0
  5 17  2  0  0  0  0
  6  8  1  0  0  0  0
  7 12  2  0  0  0  0
  8  3  1  0  0  0  0
 11  1  1  1  0  0  0
 11 10  1  0  0  0  0
 12  9  1  0  0  0  0
 12  4  1  0  0  0  0
 13 21  1  0  0  0  0
 14 20  1  0  0  0  0
 15  9  2  0  0  0  0
 16 11  1  0  0  0  0
 16  5  1  1  0  0  0
 17 18  1  0  0  0  0
 17  7  1  0  0  0  0
 18 10  1  1  0  0  0
 18 15  1  0  0  0  0
 19 13  1  6  0  0  0
 19 16  1  0  0  0  0
 20 13  1  0  0  0  0
 21 24  1  6  0  0  0
 22 21  1  0  0  0  0
 23 22  1  0  0  0  0
 24 25  1  0  0  0  0
 25 26  1  0  0  0  0
 26 27  1  0  0  0  0
 27 29  1  0  0  0  0
 28 29  1  0  0  0  0
M  END
>  <MODEL>
8

>  <REMARK>
 VINA RESULT:      -4.2      2.385      5.690
  Name = 
  7 active torsions:
  status: ('A' for Active; 'I' for Inactive)
    1  A    between atoms: C_2  and  O_14
    2  A    between atoms: C_2  and  C_17
    3  A    between atoms: O_6  and  C_9
    4  A    between atoms: C_9  and  C_13
    5  A    between atoms: C_9  and  N_21
    6  A    between atoms: C_13  and  C_16
    7  A    between atoms: O_14  and  C_16
                            x       y       z     vdW  Elec       q    Type
                         _______ _______ _______ _____ _____    ______ ____

>  <TORSDO>
F 7

$$$$
=
 OpenBabel11072413593D

 29 32  0  0  1  0  0  0  0  0999 V2000
  163.1150  211.9630  148.0230 C   0  0  0  0  0  2  0  0  0  0  0  0
  159.9510  213.2980  149.7350 C   0  0  2  0  0  3  0  0  0  0  0  0
  162.7100  213.3750  147.5930 C   0  0  0  0  0  2  0  0  0  0  0  0
  162.5230  205.8300  152.2870 C   0  0  0  0  0  1  0  0  0  0  0  0
  162.1790  210.4110  151.0020 N   0  0  0  0  0  0  0  0  0  0  0  0
  160.5170  213.6170  148.4770 O   0  0  0  0  0  0  0  0  0  0  0  0
  162.2500  208.1330  151.6330 N   0  0  0  0  0  0  0  0  0  0  0  0
  161.8360  214.0800  148.6230 C   0  0  0  0  0  2  0  0  0  0  0  0
  161.9000  206.5050  149.9000 C   0  0  0  0  0  3  0  0  0  0  0  0
  162.1440  209.6770  148.3150 C   0  0  0  0  0  2  0  0  0  0  0  0
  161.9570  211.1700  148.6110 C   0  0  1  0  0  3  0  0  0  0  0  0
  162.2030  206.8840  151.2890 C   0  0  0  0  0  0  0  0  0  0  0  0
  160.4420  212.4850  151.8830 N   0  0  0  0  0  0  0  0  0  0  0  0
  159.9980  214.3650  150.7860 C   0  0  0  0  0  2  0  0  0  0  0  0
  161.5660  207.4040  149.0210 N   0  0  0  0  0  0  0  0  0  0  0  0
  161.8310  211.5280  150.1130 C   0  0  1  0  0  3  0  0  0  0  0  0
  161.9510  209.1710  150.6950 C   0  0  0  0  0  0  0  0  0  0  0  0
  161.4040  208.8280  149.3360 C   0  0  1  0  0  3  0  0  0  0  0  0
  160.4380  212.0710  150.4760 C   0  0  2  0  0  3  0  0  0  0  0  0
  159.8100  213.6970  152.0050 O   0  0  0  0  0  0  0  0  0  0  0  0
  159.7270  211.4810  152.6790 C   0  0  1  0  0  3  0  0  0  0  0  0
  160.3460  211.3210  153.9220 O   0  0  0  0  0  0  0  0  0  0  0  0
  160.4560  209.9400  154.0890 C   0  0  0  0  0  1  0  0  0  0  0  0
  158.2460  211.8150  152.8640 C   0  0  0  0  0  2  0  0  0  0  0  0
  157.9940  212.3280  154.2730 C   0  0  0  0  0  2  0  0  0  0  0  0
  156.6210  212.4190  154.5070 O   0  0  0  0  0  0  0  0  0  0  0  0
  156.2780  211.2050  155.1030 C   0  0  0  0  0  2  0  0  0  0  0  0
  155.4150  212.8890  156.6310 N   0  0  0  0  0  1  0  0  0  0  0  0
  155.5820  211.4600  156.4270 C   0  0  0  0  0  2  0  0  0  0  0  0
  2 19  1  0  0  0  0
  2 14  1  1  0  0  0
  3  1  1  0  0  0  0
  3  8  1  0  0  0  0
  6  8  1  0  0  0  0
  6  2  1  0  0  0  0
  9 12  1  0  0  0  0
 10 11  1  0  0  0  0
 11  1  1  1  0  0  0
 11 16  1  0  0  0  0
 12  7  2  0  0  0  0
 12  4  1  0  0  0  0
 13 20  1  0  0  0  0
 13 21  1  0  0  0  0
 14 20  1  0  0  0  0
 15 18  1  0  0  0  0
 15  9  2  0  0  0  0
 16 19  1  0  0  0  0
 16  5  1  1  0  0  0
 17  5  2  0  0  0  0
 17  7  1  0  0  0  0
 18 10  1  6  0  0  0
 18 17  1  0  0  0  0
 19 13  1  1  0  0  0
 21 24  1  1  0  0  0
 21 22  1  0  0  0  0
 22 23  1  0  0  0  0
 24 25  1  0  0  0  0
 25 26  1  0  0  0  0
 26 27  1  0  0  0  0
 27 29  1  0  0  0  0
 29 28  1  0  0  0  0
M  END
>  <MODEL>
9

>  <REMARK>
 VINA RESULT:      -4.1      2.921      7.780
  Name = 
  7 active torsions:
  status: ('A' for Active; 'I' for Inactive)
    1  A    between atoms: C_2  and  O_14
    2  A    between atoms: C_2  and  C_17
    3  A    between atoms: O_6  and  C_9
    4  A    between atoms: C_9  and  C_13
    5  A    between atoms: C_9  and  N_21
    6  A    between atoms: C_13  and  C_16
    7  A    between atoms: O_14  and  C_16
                            x       y       z     vdW  Elec       q    Type
                         _______ _______ _______ _____ _____    ______ ____

>  <TORSDO>
F 7

$$$$
