=
 OpenBabel11072409573D

 48 53  0  0  1  0  0  0  0  0999 V2000
  161.4890  212.0130  150.4730 N   0  0  0  0  0  0  0  0  0  0  0  0
  161.9270  210.8260  150.1270 C   0  0  0  0  0  0  0  0  0  0  0  0
  162.2780  212.8200  146.4230 N   0  0  0  0  0  0  0  0  0  0  0  0
  161.5190  212.3390  147.4210 C   0  0  1  0  0  3  0  0  0  0  0  0
  160.7860  213.0480  149.7080 C   0  0  2  0  0  3  0  0  0  0  0  0
  161.1060  210.9330  147.6260 C   0  0  0  0  0  2  0  0  0  0  0  0
  162.0050  210.3060  148.6870 C   0  0  2  0  0  3  0  0  0  0  0  0
  161.4260  213.2870  148.3820 C   0  0  0  0  0  0  0  0  0  0  0  0
  162.1060  214.3710  147.9670 N   0  0  0  0  0  0  0  0  0  0  0  0
  162.6000  214.0590  146.7730 N   0  0  0  0  0  0  0  0  0  0  0  0
  162.9760  207.9170  149.1850 C   0  0  0  0  0  2  0  0  0  0  0  0
  160.8220  204.8890  149.5650 N   0  0  0  0  0  2  0  0  0  0  0  0
  161.8900  208.8110  148.6370 C   0  0  0  0  0  0  0  0  0  0  0  0
  161.3860  206.0980  149.0610 C   0  0  0  0  0  0  0  0  0  0  0  0
  160.8500  208.2500  148.0040 C   0  0  0  0  0  3  0  0  0  0  0  0
  162.3920  206.6600  149.6680 N   0  0  0  0  0  0  0  0  0  0  0  0
  160.7810  206.7430  147.8290 C   0  0  1  0  0  3  0  0  0  0  0  0
  161.5180  206.3160  146.6260 N   0  0  0  0  0  0  0  0  0  0  0  0
  161.3170  205.4940  144.2960 C   0  0  0  0  0  2  0  0  0  0  0  0
  160.5760  206.0060  145.5410 C   0  0  0  0  0  2  0  0  0  0  0  0
  162.2420  205.0760  146.9380 C   0  0  0  0  0  2  0  0  0  0  0  0
  163.0030  204.5580  145.7080 C   0  0  0  0  0  2  0  0  0  0  0  0
  162.7580  205.3910  144.5310 N   0  0  0  0  0  2  0  0  0  0  0  0
  161.3490  204.2510  150.6940 N   0  0  0  0  0  2  0  0  0  0  0  0
  161.1500  202.8560  150.9010 C   0  0  0  0  0  0  0  0  0  0  0  0
  160.4770  202.1780  150.0810 O   0  0  0  0  0  0  0  0  0  0  0  0
  161.7400  202.1990  152.0940 C   0  0  0  0  0  1  0  0  0  0  0  0
  162.0470  209.4230  152.1410 C   0  0  0  0  0  3  0  0  0  0  0  0
  162.5850  210.0210  151.1170 N   0  0  0  0  0  0  0  0  0  0  0  0
  160.0470  212.5140  154.6380 C   0  0  0  0  0  3  0  0  0  0  0  0
  159.3880  210.4380  155.7340 C   0  0  0  0  0  3  0  0  0  0  0  0
  159.5220  211.8370  155.7550 C   0  0  0  0  0  3  0  0  0  0  0  0
  159.8030  209.7510  154.5900 C   0  0  0  0  0  0  0  0  0  0  0  0
  160.4350  211.7930  153.4980 C   0  0  0  0  0  3  0  0  0  0  0  0
  160.5850  209.4290  152.4490 C   0  0  1  0  0  3  0  0  0  0  0  0
  160.1930  208.1530  152.9330 O   0  0  0  0  0  0  0  0  0  0  0  0
  159.7390  208.3050  154.2790 C   0  0  1  0  0  3  0  0  0  0  0  0
  160.2970  210.4020  153.5180 C   0  0  0  0  0  0  0  0  0  0  0  0
  161.0080  206.2800  154.5820 O   0  0  0  0  0  1  0  0  0  0  0  0
  160.5830  207.4370  155.2400 C   0  0  2  0  0  0  0  0  0  0  0  0
  159.7380  207.0180  156.4350 C   0  0  0  0  0  1  0  0  0  0  0  0
  161.7880  208.4470  157.2450 C   0  0  0  0  0  1  0  0  0  0  0  0
  161.8190  208.1920  155.7420 C   0  0  0  0  0  2  0  0  0  0  0  0
  160.6970  214.3160  150.5390 C   0  0  0  0  0  2  0  0  0  0  0  0
  159.3410  214.4530  151.1390 C   0  0  0  0  0  3  0  0  0  0  0  0
  158.4760  213.5180  150.9900 N   0  0  0  0  0  0  0  0  0  0  0  0
  157.2590  214.0920  153.0020 C   0  0  0  0  0  1  0  0  0  0  0  0
  157.1610  213.6420  151.5530 C   0  0  0  0  0  2  0  0  0  0  0  0
  2  1  2  0  0  0  0
  2 29  1  0  0  0  0
  3 10  2  0  0  0  0
  3  4  1  0  0  0  0
  4  6  1  1  0  0  0
  4  8  1  0  0  0  0
  5  1  1  0  0  0  0
  5 44  1  1  0  0  0
  6  7  1  0  0  0  0
  7 13  1  1  0  0  0
  7  2  1  0  0  0  0
  8  5  1  0  0  0  0
  9  8  2  0  0  0  0
 10  9  1  0  0  0  0
 11 16  1  0  0  0  0
 12 24  1  0  0  0  0
 13 11  1  0  0  0  0
 14 12  1  0  0  0  0
 14 16  2  0  0  0  0
 15 13  2  0  0  0  0
 17 18  1  6  0  0  0
 17 15  1  0  0  0  0
 17 14  1  0  0  0  0
 18 21  1  0  0  0  0
 19 23  1  0  0  0  0
 19 20  1  0  0  0  0
 20 18  1  0  0  0  0
 22 21  1  0  0  0  0
 23 22  1  0  0  0  0
 24 25  1  0  0  0  0
 25 27  1  0  0  0  0
 26 25  2  0  0  0  0
 29 28  2  0  0  0  0
 30 32  1  0  0  0  0
 31 32  2  0  0  0  0
 33 31  1  0  0  0  0
 34 38  1  0  0  0  0
 34 30  2  0  0  0  0
 35 28  1  1  0  0  0
 35 36  1  0  0  0  0
 35 38  1  0  0  0  0
 36 37  1  0  0  0  0
 37 33  1  0  0  0  0
 37 40  1  1  0  0  0
 38 33  2  0  0  0  0
 39 40  1  0  0  0  0
 40 43  1  0  0  0  0
 40 41  1  1  0  0  0
 43 42  1  0  0  0  0
 44 45  1  0  0  0  0
 46 45  2  0  0  0  0
 46 48  1  0  0  0  0
 48 47  1  0  0  0  0
M  END
>  <MODEL>
1

>  <REMARK>
 VINA RESULT:      -4.8      0.000      0.000
  Name = 
  10 active torsions:
  status: ('A' for Active; 'I' for Inactive)
    1  A    between atoms: N_1  and  N_9
    2  A    between atoms: C_3  and  C_43
    3  A    between atoms: N_7  and  C_47
    4  A    between atoms: N_16  and  C_25
    5  A    between atoms: C_18  and  C_34
    6  A    between atoms: C_18  and  C_38
    7  A    between atoms: C_20  and  N_42
    8  A    between atoms: C_23  and  C_32
    9  A    between atoms: C_27  and  C_31
   10  A    between atoms: C_29  and  C_43
                            x       y       z     vdW  Elec       q    Type
                         _______ _______ _______ _____ _____    ______ ____

>  <TORSDO>
F 10

$$$$
=
 OpenBabel11072409573D

 48 53  0  0  1  0  0  0  0  0999 V2000
  159.8930  210.7800  154.6110 N   0  0  0  0  0  0  0  0  0  0  0  0
  160.1330  211.4940  153.5370 C   0  0  0  0  0  0  0  0  0  0  0  0
  158.1930  214.4030  155.9020 N   0  0  0  0  0  0  0  0  0  0  0  0
  158.1670  213.2430  155.2250 C   0  0  0  0  0  0  0  0  0  0  0  0
  158.8140  210.8540  155.6020 C   0  0  2  0  0  3  0  0  0  0  0  0
  158.0350  213.0710  153.7610 C   0  0  0  0  0  2  0  0  0  0  0  0
  159.4160  212.7980  153.1720 C   0  0  2  0  0  3  0  0  0  0  0  0
  158.5730  212.2550  156.0550 C   0  0  0  0  0  0  0  0  0  0  0  0
  158.8260  212.7970  157.2600 N   0  0  0  0  0  0  0  0  0  0  0  0
  158.5750  214.0970  157.1360 N   0  0  0  0  0  2  0  0  0  0  0  0
  158.6690  212.0590  150.7640 C   0  0  0  0  0  2  0  0  0  0  0  0
  158.3600  214.4520  147.9120 N   0  0  0  0  0  2  0  0  0  0  0  0
  159.3900  213.0130  151.6880 C   0  0  0  0  0  0  0  0  0  0  0  0
  158.8670  213.7510  149.0470 C   0  0  0  0  0  0  0  0  0  0  0  0
  160.1040  214.0140  151.1530 C   0  0  0  0  0  3  0  0  0  0  0  0
  158.1830  212.7810  149.5820 N   0  0  0  0  0  0  0  0  0  0  0  0
  160.1960  214.1700  149.6450 C   0  0  1  0  0  3  0  0  0  0  0  0
  161.2790  213.3380  149.0930 N   0  0  0  0  0  0  0  0  0  0  0  0
  163.3560  213.3290  147.7390 C   0  0  0  0  0  2  0  0  0  0  0  0
  162.2510  214.1810  148.3820 C   0  0  0  0  0  2  0  0  0  0  0  0
  160.7010  212.4160  148.1050 C   0  0  0  0  0  2  0  0  0  0  0  0
  161.7910  211.5440  147.4620 C   0  0  0  0  0  2  0  0  0  0  0  0
  163.1240  211.8990  147.9490 N   0  0  0  0  0  2  0  0  0  0  0  0
  157.1420  214.0990  147.3200 N   0  0  0  0  0  2  0  0  0  0  0  0
  156.9970  214.0930  145.9020 C   0  0  0  0  0  0  0  0  0  0  0  0
  157.9580  214.4280  145.1610 O   0  0  0  0  0  0  0  0  0  0  0  0
  155.7020  213.6910  145.2980 C   0  0  0  0  0  1  0  0  0  0  0  0
  161.4750  210.1210  152.0020 C   0  0  0  0  0  3  0  0  0  0  0  0
  161.2870  211.1740  152.7450 N   0  0  0  0  0  0  0  0  0  0  0  0
  161.3730  206.3350  154.3350 C   0  0  0  0  0  3  0  0  0  0  0  0
  161.4160  205.5380  152.0310 C   0  0  0  0  0  3  0  0  0  0  0  0
  161.5740  205.2960  153.4070 C   0  0  0  0  0  3  0  0  0  0  0  0
  161.0730  206.8300  151.6220 C   0  0  0  0  0  0  0  0  0  0  0  0
  161.0100  207.6150  153.8890 C   0  0  0  0  0  3  0  0  0  0  0  0
  160.4620  209.0420  151.7980 C   0  0  1  0  0  3  0  0  0  0  0  0
  160.3900  208.7100  150.4200 O   0  0  0  0  0  0  0  0  0  0  0  0
  160.8030  207.3510  150.2630 C   0  0  1  0  0  3  0  0  0  0  0  0
  160.8720  207.8200  152.5130 C   0  0  0  0  0  0  0  0  0  0  0  0
  163.1890  207.5800  150.0220 O   0  0  0  0  0  1  0  0  0  0  0  0
  162.0250  207.2580  149.3200 C   0  0  2  0  0  0  0  0  0  0  0  0
  161.8720  208.2520  148.1770 C   0  0  0  0  0  1  0  0  0  0  0  0
  160.8770  205.2930  148.1750 C   0  0  0  0  0  1  0  0  0  0  0  0
  162.1800  205.8480  148.7400 C   0  0  0  0  0  2  0  0  0  0  0  0
  159.1290  209.9230  156.7600 C   0  0  0  0  0  2  0  0  0  0  0  0
  160.5670  210.0250  157.1340 C   0  0  0  0  0  3  0  0  0  0  0  0
  161.4330  209.2700  156.5650 N   0  0  0  0  0  0  0  0  0  0  0  0
  163.2940  210.7920  156.8460 C   0  0  0  0  0  1  0  0  0  0  0  0
  162.8210  209.3500  156.9240 C   0  0  0  0  0  2  0  0  0  0  0  0
  1  5  1  0  0  0  0
  2  1  2  0  0  0  0
  3 10  1  0  0  0  0
  4  3  2  0  0  0  0
  4  8  1  0  0  0  0
  5  8  1  0  0  0  0
  5 44  1  1  0  0  0
  6  4  1  0  0  0  0
  7 13  1  6  0  0  0
  7  2  1  0  0  0  0
  7  6  1  0  0  0  0
  8  9  2  0  0  0  0
 10  9  1  0  0  0  0
 11 13  1  0  0  0  0
 12 14  1  0  0  0  0
 14 16  2  0  0  0  0
 14 17  1  0  0  0  0
 15 13  2  0  0  0  0
 16 11  1  0  0  0  0
 17 18  1  6  0  0  0
 17 15  1  0  0  0  0
 19 23  1  0  0  0  0
 19 20  1  0  0  0  0
 20 18  1  0  0  0  0
 21 18  1  0  0  0  0
 22 23  1  0  0  0  0
 22 21  1  0  0  0  0
 24 12  1  0  0  0  0
 25 24  1  0  0  0  0
 26 25  2  0  0  0  0
 27 25  1  0  0  0  0
 28 29  2  0  0  0  0
 29  2  1  0  0  0  0
 31 32  1  0  0  0  0
 32 30  2  0  0  0  0
 33 31  2  0  0  0  0
 33 38  1  0  0  0  0
 34 30  1  0  0  0  0
 35 28  1  6  0  0  0
 35 38  1  0  0  0  0
 36 35  1  0  0  0  0
 37 40  1  6  0  0  0
 37 36  1  0  0  0  0
 37 33  1  0  0  0  0
 38 34  2  0  0  0  0
 40 41  1  6  0  0  0
 40 39  1  0  0  0  0
 42 43  1  0  0  0  0
 43 40  1  0  0  0  0
 44 45  1  0  0  0  0
 46 48  1  0  0  0  0
 46 45  2  0  0  0  0
 47 48  1  0  0  0  0
M  END
>  <MODEL>
2

>  <REMARK>
 VINA RESULT:      -2.8      3.159      7.789
  Name = 
  10 active torsions:
  status: ('A' for Active; 'I' for Inactive)
    1  A    between atoms: N_1  and  N_9
    2  A    between atoms: C_3  and  C_43
    3  A    between atoms: N_7  and  C_47
    4  A    between atoms: N_16  and  C_25
    5  A    between atoms: C_18  and  C_34
    6  A    between atoms: C_18  and  C_38
    7  A    between atoms: C_20  and  N_42
    8  A    between atoms: C_23  and  C_32
    9  A    between atoms: C_27  and  C_31
   10  A    between atoms: C_29  and  C_43
                            x       y       z     vdW  Elec       q    Type
                         _______ _______ _______ _____ _____    ______ ____

>  <TORSDO>
F 10

$$$$
=
 OpenBabel11072409573D

 48 53  0  0  1  0  0  0  0  0999 V2000
  161.5480  208.2120  148.5780 N   0  0  0  0  0  0  0  0  0  0  0  0
  161.6440  208.7310  149.7790 C   0  0  0  0  0  0  0  0  0  0  0  0
  161.4520  204.6370  150.7900 N   0  0  0  0  0  0  0  0  0  0  0  0
  160.8850  205.7380  150.2700 C   0  0  1  0  0  3  0  0  0  0  0  0
  160.8950  206.9880  148.1010 C   0  0  2  0  0  3  0  0  0  0  0  0
  160.2670  206.8570  151.0160 C   0  0  0  0  0  2  0  0  0  0  0  0
  161.2590  208.0140  151.0780 C   0  0  2  0  0  3  0  0  0  0  0  0
  161.2210  205.8140  148.9620 C   0  0  0  0  0  0  0  0  0  0  0  0
  161.9770  204.7430  148.6610 N   0  0  0  0  0  0  0  0  0  0  0  0
  162.0880  204.0450  149.7860 N   0  0  0  0  0  0  0  0  0  0  0  0
  161.0210  210.4770  151.9580 C   0  0  0  0  0  2  0  0  0  0  0  0
  158.5070  211.4780  154.5330 N   0  0  0  0  0  2  0  0  0  0  0  0
  160.8430  208.9880  152.1390 C   0  0  0  0  0  0  0  0  0  0  0  0
  159.5380  210.7700  153.8460 C   0  0  0  0  0  0  0  0  0  0  0  0
  160.3960  208.5300  153.3170 C   0  0  0  0  0  3  0  0  0  0  0  0
  159.9780  211.1980  152.6980 N   0  0  0  0  0  0  0  0  0  0  0  0
  160.0930  209.4950  154.4500 C   0  0  1  0  0  3  0  0  0  0  0  0
  161.3080  209.7960  155.2280 N   0  0  0  0  0  0  0  0  0  0  0  0
  162.6230  209.2370  157.2540 C   0  0  0  0  0  2  0  0  0  0  0  0
  161.3990  208.8990  156.3890 C   0  0  0  0  0  2  0  0  0  0  0  0
  161.2020  211.1660  155.7470 C   0  0  0  0  0  2  0  0  0  0  0  0
  162.4260  211.5280  156.6020 C   0  0  0  0  0  2  0  0  0  0  0  0
  163.3460  210.3980  156.7330 N   0  0  0  0  0  2  0  0  0  0  0  0
  157.9670  212.6630  154.0200 N   0  0  0  0  0  2  0  0  0  0  0  0
  156.6870  213.1230  154.4460 C   0  0  0  0  0  0  0  0  0  0  0  0
  156.0110  212.4580  155.2730 O   0  0  0  0  0  0  0  0  0  0  0  0
  156.1470  214.3960  153.9050 C   0  0  0  0  0  1  0  0  0  0  0  0
  162.3560  210.9930  149.1330 C   0  0  0  0  0  3  0  0  0  0  0  0
  162.3550  209.9680  149.9360 N   0  0  0  0  0  0  0  0  0  0  0  0
  163.4640  213.5040  145.6330 C   0  0  0  0  0  3  0  0  0  0  0  0
  161.1960  214.2500  146.1240 C   0  0  0  0  0  3  0  0  0  0  0  0
  162.4310  214.4490  145.4840 C   0  0  0  0  0  3  0  0  0  0  0  0
  161.0360  213.1080  146.9140 C   0  0  0  0  0  0  0  0  0  0  0  0
  163.2620  212.3590  146.4190 C   0  0  0  0  0  3  0  0  0  0  0  0
  161.5470  211.0820  147.8800 C   0  0  1  0  0  3  0  0  0  0  0  0
  160.1920  211.3560  148.2050 O   0  0  0  0  0  0  0  0  0  0  0  0
  159.8480  212.6300  147.6570 C   0  0  1  0  0  3  0  0  0  0  0  0
  162.0240  212.2010  147.0480 C   0  0  0  0  0  0  0  0  0  0  0  0
  158.4040  214.4530  148.2820 O   0  0  0  0  0  1  0  0  0  0  0  0
  159.3950  213.5990  148.7730 C   0  0  2  0  0  0  0  0  0  0  0  0
  160.5720  214.4510  149.2260 C   0  0  0  0  0  1  0  0  0  0  0  0
  157.5610  213.4750  150.5360 C   0  0  0  0  0  1  0  0  0  0  0  0
  158.8310  212.8420  149.9800 C   0  0  0  0  0  2  0  0  0  0  0  0
  161.2670  206.7530  146.6460 C   0  0  0  0  0  2  0  0  0  0  0  0
  160.4500  205.6490  146.0720 C   0  0  0  0  0  3  0  0  0  0  0  0
  160.9500  204.8800  145.1750 N   0  0  0  0  0  0  0  0  0  0  0  0
  160.5530  202.4930  145.2410 C   0  0  0  0  0  1  0  0  0  0  0  0
  160.1690  203.8180  144.6040 C   0  0  0  0  0  2  0  0  0  0  0  0
  1  2  2  0  0  0  0
  2 29  1  0  0  0  0
  2  7  1  0  0  0  0
  4  3  1  0  0  0  0
  4  6  1  1  0  0  0
  5 44  1  6  0  0  0
  5  1  1  0  0  0  0
  5  8  1  0  0  0  0
  6  7  1  0  0  0  0
  7 13  1  1  0  0  0
  8  4  1  0  0  0  0
  9  8  2  0  0  0  0
  9 10  1  0  0  0  0
 10  3  2  0  0  0  0
 11 13  1  0  0  0  0
 11 16  1  0  0  0  0
 13 15  2  0  0  0  0
 14 17  1  0  0  0  0
 14 12  1  0  0  0  0
 16 14  2  0  0  0  0
 17 15  1  6  0  0  0
 17 18  1  0  0  0  0
 18 21  1  0  0  0  0
 18 20  1  0  0  0  0
 20 19  1  0  0  0  0
 21 22  1  0  0  0  0
 22 23  1  0  0  0  0
 23 19  1  0  0  0  0
 24 25  1  0  0  0  0
 24 12  1  0  0  0  0
 25 26  2  0  0  0  0
 27 25  1  0  0  0  0
 28 29  2  0  0  0  0
 30 34  1  0  0  0  0
 31 33  2  0  0  0  0
 32 30  2  0  0  0  0
 32 31  1  0  0  0  0
 33 38  1  0  0  0  0
 33 37  1  0  0  0  0
 34 38  2  0  0  0  0
 35 36  1  0  0  0  0
 35 28  1  1  0  0  0
 37 36  1  0  0  0  0
 37 40  1  1  0  0  0
 38 35  1  0  0  0  0
 39 40  1  0  0  0  0
 40 41  1  1  0  0  0
 40 43  1  0  0  0  0
 43 42  1  0  0  0  0
 45 44  1  0  0  0  0
 46 45  2  0  0  0  0
 48 46  1  0  0  0  0
 48 47  1  0  0  0  0
M  END
>  <MODEL>
3

>  <REMARK>
 VINA RESULT:      -2.2      2.812      9.050
  Name = 
  10 active torsions:
  status: ('A' for Active; 'I' for Inactive)
    1  A    between atoms: N_1  and  N_9
    2  A    between atoms: C_3  and  C_43
    3  A    between atoms: N_7  and  C_47
    4  A    between atoms: N_16  and  C_25
    5  A    between atoms: C_18  and  C_34
    6  A    between atoms: C_18  and  C_38
    7  A    between atoms: C_20  and  N_42
    8  A    between atoms: C_23  and  C_32
    9  A    between atoms: C_27  and  C_31
   10  A    between atoms: C_29  and  C_43
                            x       y       z     vdW  Elec       q    Type
                         _______ _______ _______ _____ _____    ______ ____

>  <TORSDO>
F 10

$$$$
=
 OpenBabel11072409573D

 48 53  0  0  1  0  0  0  0  0999 V2000
  162.0060  209.8700  154.1100 N   0  0  0  0  0  0  0  0  0  0  0  0
  161.5470  209.1520  153.1120 C   0  0  0  0  0  0  0  0  0  0  0  0
  159.9860  206.9420  156.3520 N   0  0  0  0  0  0  0  0  0  0  0  0
  161.0360  207.3980  155.6490 C   0  0  0  0  0  0  0  0  0  0  0  0
  162.3880  209.4980  155.4760 C   0  0  2  0  0  3  0  0  0  0  0  0
  161.5650  206.8450  154.3830 C   0  0  0  0  0  2  0  0  0  0  0  0
  161.0640  207.7020  153.2240 C   0  0  2  0  0  3  0  0  0  0  0  0
  161.3640  208.6230  156.1180 C   0  0  0  0  0  0  0  0  0  0  0  0
  160.5340  208.9190  157.1350 N   0  0  0  0  0  0  0  0  0  0  0  0
  159.7190  207.8760  157.2580 N   0  0  0  0  0  2  0  0  0  0  0  0
  160.1090  206.8410  150.9340 C   0  0  0  0  0  2  0  0  0  0  0  0
  162.2790  206.0650  147.9930 N   0  0  0  0  0  2  0  0  0  0  0  0
  161.2380  206.9640  151.9300 C   0  0  0  0  0  0  0  0  0  0  0  0
  161.7610  206.1170  149.3220 C   0  0  0  0  0  0  0  0  0  0  0  0
  162.3850  206.3130  151.6900 C   0  0  0  0  0  3  0  0  0  0  0  0
  160.6520  206.7510  149.5730 N   0  0  0  0  0  0  0  0  0  0  0  0
  162.5340  205.4540  150.4460 C   0  0  1  0  0  3  0  0  0  0  0  0
  162.0140  204.0940  150.6770 N   0  0  0  0  0  0  0  0  0  0  0  0
  160.4340  202.3540  149.8910 C   0  0  0  0  0  2  0  0  0  0  0  0
  161.0400  203.7420  149.6340 C   0  0  0  0  0  2  0  0  0  0  0  0
  161.2990  204.0810  151.9600 C   0  0  0  0  0  2  0  0  0  0  0  0
  160.6990  202.6950  152.2420 C   0  0  0  0  0  2  0  0  0  0  0  0
  160.9360  201.7680  151.1350 N   0  0  0  0  0  2  0  0  0  0  0  0
  161.6000  206.6550  146.9210 N   0  0  0  0  0  2  0  0  0  0  0  0
  161.1370  205.8640  145.8300 C   0  0  0  0  0  0  0  0  0  0  0  0
  161.3520  204.6240  145.8020 O   0  0  0  0  0  0  0  0  0  0  0  0
  160.3980  206.5110  144.7160 C   0  0  0  0  0  1  0  0  0  0  0  0
  160.7290  210.9840  151.6920 C   0  0  0  0  0  3  0  0  0  0  0  0
  161.2640  209.8100  151.8670 N   0  0  0  0  0  0  0  0  0  0  0  0
  157.7270  210.0040  154.8240 C   0  0  0  0  0  3  0  0  0  0  0  0
  156.8950  212.1150  153.9330 C   0  0  0  0  0  3  0  0  0  0  0  0
  156.6870  210.9430  154.6800 C   0  0  0  0  0  3  0  0  0  0  0  0
  158.1430  212.3070  153.3350 C   0  0  0  0  0  0  0  0  0  0  0  0
  158.9740  210.2390  154.2250 C   0  0  0  0  0  3  0  0  0  0  0  0
  160.3470  211.9100  152.8000 C   0  0  1  0  0  3  0  0  0  0  0  0
  160.0240  213.1860  152.2670 O   0  0  0  0  0  0  0  0  0  0  0  0
  158.6470  213.4510  152.5430 C   0  0  1  0  0  3  0  0  0  0  0  0
  159.1390  211.4110  153.4820 C   0  0  0  0  0  0  0  0  0  0  0  0
  157.5410  212.4460  150.6540 O   0  0  0  0  0  1  0  0  0  0  0  0
  157.8620  213.6770  151.2310 C   0  0  2  0  0  0  0  0  0  0  0  0
  158.7200  214.4530  150.2410 C   0  0  0  0  0  1  0  0  0  0  0  0
  155.4500  214.0680  150.5100 C   0  0  0  0  0  1  0  0  0  0  0  0
  156.5620  214.4520  151.4790 C   0  0  0  0  0  2  0  0  0  0  0  0
  162.6570  210.7560  156.2840 C   0  0  0  0  0  2  0  0  0  0  0  0
  161.5300  211.7180  156.1400 C   0  0  0  0  0  3  0  0  0  0  0  0
  161.1900  212.4620  157.1280 N   0  0  0  0  0  0  0  0  0  0  0  0
  158.7830  212.6680  157.2610 C   0  0  0  0  0  1  0  0  0  0  0  0
  160.0980  213.3860  157.0060 C   0  0  0  0  0  2  0  0  0  0  0  0
  1  5  1  0  0  0  0
  2  7  1  0  0  0  0
  2  1  2  0  0  0  0
  3 10  1  0  0  0  0
  4  8  1  0  0  0  0
  4  3  2  0  0  0  0
  5  8  1  0  0  0  0
  5 44  1  1  0  0  0
  6  4  1  0  0  0  0
  7 13  1  6  0  0  0
  7  6  1  0  0  0  0
  8  9  2  0  0  0  0
  9 10  1  0  0  0  0
 11 13  1  0  0  0  0
 12 14  1  0  0  0  0
 14 16  2  0  0  0  0
 14 17  1  0  0  0  0
 15 13  2  0  0  0  0
 16 11  1  0  0  0  0
 17 18  1  1  0  0  0
 17 15  1  0  0  0  0
 18 21  1  0  0  0  0
 19 23  1  0  0  0  0
 20 19  1  0  0  0  0
 20 18  1  0  0  0  0
 21 22  1  0  0  0  0
 23 22  1  0  0  0  0
 24 12  1  0  0  0  0
 25 24  1  0  0  0  0
 26 25  2  0  0  0  0
 27 25  1  0  0  0  0
 28 29  2  0  0  0  0
 29  2  1  0  0  0  0
 31 32  2  0  0  0  0
 32 30  1  0  0  0  0
 33 38  2  0  0  0  0
 33 31  1  0  0  0  0
 34 30  2  0  0  0  0
 35 28  1  6  0  0  0
 35 38  1  0  0  0  0
 36 37  1  0  0  0  0
 36 35  1  0  0  0  0
 37 40  1  6  0  0  0
 37 33  1  0  0  0  0
 38 34  1  0  0  0  0
 39 40  1  0  0  0  0
 40 41  1  6  0  0  0
 40 43  1  0  0  0  0
 42 43  1  0  0  0  0
 45 44  1  0  0  0  0
 45 46  2  0  0  0  0
 48 46  1  0  0  0  0
 48 47  1  0  0  0  0
M  END
>  <MODEL>
4

>  <REMARK>
 VINA RESULT:      -2.1      2.935      6.359
  Name = 
  10 active torsions:
  status: ('A' for Active; 'I' for Inactive)
    1  A    between atoms: N_1  and  N_9
    2  A    between atoms: C_3  and  C_43
    3  A    between atoms: N_7  and  C_47
    4  A    between atoms: N_16  and  C_25
    5  A    between atoms: C_18  and  C_34
    6  A    between atoms: C_18  and  C_38
    7  A    between atoms: C_20  and  N_42
    8  A    between atoms: C_23  and  C_32
    9  A    between atoms: C_27  and  C_31
   10  A    between atoms: C_29  and  C_43
                            x       y       z     vdW  Elec       q    Type
                         _______ _______ _______ _____ _____    ______ ____

>  <TORSDO>
F 10

$$$$
=
 OpenBabel11072409573D

 48 53  0  0  1  0  0  0  0  0999 V2000
  160.4850  211.5520  150.3360 N   0  0  0  0  0  0  0  0  0  0  0  0
  160.9860  210.3440  150.2470 C   0  0  0  0  0  0  0  0  0  0  0  0
  163.6170  212.3920  147.6590 N   0  0  0  0  0  0  0  0  0  0  0  0
  162.3850  211.9490  147.9580 C   0  0  0  0  0  0  0  0  0  0  0  0
  160.4440  212.6580  149.3720 C   0  0  2  0  0  3  0  0  0  0  0  0
  161.8670  210.5750  147.7760 C   0  0  0  0  0  2  0  0  0  0  0  0
  161.9010  209.8530  149.1200 C   0  0  2  0  0  3  0  0  0  0  0  0
  161.7710  212.8770  148.7260 C   0  0  0  0  0  0  0  0  0  0  0  0
  162.6140  213.9150  148.8830 N   0  0  0  0  0  0  0  0  0  0  0  0
  163.7170  213.5940  148.2150 N   0  0  0  0  0  2  0  0  0  0  0  0
  160.5690  207.7800  148.2110 C   0  0  0  0  0  2  0  0  0  0  0  0
  162.2110  204.5460  147.3190 N   0  0  0  0  0  2  0  0  0  0  0  0
  161.7690  208.3740  148.9100 C   0  0  0  0  0  0  0  0  0  0  0  0
  161.8360  205.7280  148.0230 C   0  0  0  0  0  0  0  0  0  0  0  0
  162.6820  207.5480  149.4400 C   0  0  0  0  0  3  0  0  0  0  0  0
  160.9560  206.5440  147.5190 N   0  0  0  0  0  0  0  0  0  0  0  0
  162.4990  206.0430  149.3500 C   0  0  1  0  0  3  0  0  0  0  0  0
  161.6640  205.5460  150.4580 N   0  0  0  0  0  0  0  0  0  0  0  0
  161.4820  205.2880  152.9170 C   0  0  0  0  0  2  0  0  0  0  0  0
  162.3000  205.8560  151.7470 C   0  0  0  0  0  2  0  0  0  0  0  0
  161.5800  204.0830  150.3580 C   0  0  0  0  0  2  0  0  0  0  0  0
  160.7510  203.4980  151.5120 C   0  0  0  0  0  2  0  0  0  0  0  0
  160.3170  204.5370  152.4460 N   0  0  0  0  0  2  0  0  0  0  0  0
  161.6240  204.2070  146.0940 N   0  0  0  0  0  2  0  0  0  0  0  0
  160.9050  202.9860  145.9450 C   0  0  0  0  0  0  0  0  0  0  0  0
  160.8080  202.1800  146.9070 O   0  0  0  0  0  0  0  0  0  0  0  0
  160.2710  202.6610  144.6430 C   0  0  0  0  0  1  0  0  0  0  0  0
  160.9260  209.7810  152.6390 C   0  0  0  0  0  3  0  0  0  0  0  0
  160.8650  209.4660  151.3780 N   0  0  0  0  0  0  0  0  0  0  0  0
  163.1010  210.8090  156.3800 C   0  0  0  0  0  3  0  0  0  0  0  0
  160.9300  211.8650  156.7220 C   0  0  0  0  0  3  0  0  0  0  0  0
  162.1530  211.4010  157.2370 C   0  0  0  0  0  3  0  0  0  0  0  0
  160.6850  211.7060  155.3560 C   0  0  0  0  0  0  0  0  0  0  0  0
  162.8290  210.6850  155.0090 C   0  0  0  0  0  3  0  0  0  0  0  0
  161.0910  211.1750  153.1530 C   0  0  1  0  0  3  0  0  0  0  0  0
  159.8290  211.8240  153.1870 O   0  0  0  0  0  0  0  0  0  0  0  0
  159.5210  212.1340  154.5470 C   0  0  1  0  0  3  0  0  0  0  0  0
  161.5980  211.1480  154.5360 C   0  0  0  0  0  0  0  0  0  0  0  0
  158.4580  210.1590  155.4270 O   0  0  0  0  0  1  0  0  0  0  0  0
  158.1990  211.4550  154.9750 C   0  0  2  0  0  0  0  0  0  0  0  0
  157.2570  211.3610  153.7830 C   0  0  0  0  0  1  0  0  0  0  0  0
  156.2980  211.4990  156.6700 C   0  0  0  0  0  1  0  0  0  0  0  0
  157.5060  212.2330  156.1000 C   0  0  0  0  0  2  0  0  0  0  0  0
  159.9280  213.9090  150.0620 C   0  0  0  0  0  2  0  0  0  0  0  0
  158.4690  214.0750  149.8160 C   0  0  0  0  0  3  0  0  0  0  0  0
  157.9240  213.5290  148.7920 N   0  0  0  0  0  0  0  0  0  0  0  0
  155.8400  214.2960  149.7530 C   0  0  0  0  0  1  0  0  0  0  0  0
  156.5210  213.6910  148.5360 C   0  0  0  0  0  2  0  0  0  0  0  0
  2  1  2  0  0  0  0
  2 29  1  0  0  0  0
  3  4  2  0  0  0  0
  3 10  1  0  0  0  0
  4  8  1  0  0  0  0
  5 44  1  1  0  0  0
  5  1  1  0  0  0  0
  6  4  1  0  0  0  0
  6  7  1  0  0  0  0
  7 13  1  6  0  0  0
  7  2  1  0  0  0  0
  8  9  2  0  0  0  0
  8  5  1  0  0  0  0
 10  9  1  0  0  0  0
 11 13  1  0  0  0  0
 12 14  1  0  0  0  0
 13 15  2  0  0  0  0
 14 17  1  0  0  0  0
 16 14  2  0  0  0  0
 16 11  1  0  0  0  0
 17 15  1  1  0  0  0
 17 18  1  0  0  0  0
 18 20  1  0  0  0  0
 20 19  1  0  0  0  0
 21 18  1  0  0  0  0
 21 22  1  0  0  0  0
 22 23  1  0  0  0  0
 23 19  1  0  0  0  0
 24 12  1  0  0  0  0
 25 24  1  0  0  0  0
 25 26  2  0  0  0  0
 27 25  1  0  0  0  0
 29 28  2  0  0  0  0
 30 32  1  0  0  0  0
 31 32  2  0  0  0  0
 33 31  1  0  0  0  0
 34 30  2  0  0  0  0
 35 28  1  1  0  0  0
 35 36  1  0  0  0  0
 35 38  1  0  0  0  0
 36 37  1  0  0  0  0
 37 40  1  1  0  0  0
 37 33  1  0  0  0  0
 38 34  1  0  0  0  0
 38 33  2  0  0  0  0
 40 41  1  6  0  0  0
 40 39  1  0  0  0  0
 40 43  1  0  0  0  0
 43 42  1  0  0  0  0
 45 44  1  0  0  0  0
 46 45  2  0  0  0  0
 48 46  1  0  0  0  0
 48 47  1  0  0  0  0
M  END
>  <MODEL>
5

>  <REMARK>
 VINA RESULT:      -1.9      2.015      3.770
  Name = 
  10 active torsions:
  status: ('A' for Active; 'I' for Inactive)
    1  A    between atoms: N_1  and  N_9
    2  A    between atoms: C_3  and  C_43
    3  A    between atoms: N_7  and  C_47
    4  A    between atoms: N_16  and  C_25
    5  A    between atoms: C_18  and  C_34
    6  A    between atoms: C_18  and  C_38
    7  A    between atoms: C_20  and  N_42
    8  A    between atoms: C_23  and  C_32
    9  A    between atoms: C_27  and  C_31
   10  A    between atoms: C_29  and  C_43
                            x       y       z     vdW  Elec       q    Type
                         _______ _______ _______ _____ _____    ______ ____

>  <TORSDO>
F 10

$$$$
