=
 OpenBabel11072413243D

 41 45  0  0  1  0  0  0  0  0999 V2000
  160.0420  210.2710  156.6130 C   0  0  0  0  0  2  0  0  0  0  0  0
  160.5440  210.4750  155.1960 C   0  0  2  0  0  3  0  0  0  0  0  0
  160.6180  209.8410  152.8990 C   0  0  1  0  0  0  0  0  0  0  0  0
  159.6750  212.7490  156.5570 C   0  0  0  0  0  0  0  0  0  0  0  0
  159.7340  212.7870  155.0390 C   0  0  1  0  0  3  0  0  0  0  0  0
  158.5240  211.0380  152.4080 O   0  0  0  0  0  1  0  0  0  0  0  0
  159.5530  211.3650  154.5100 C   0  0  1  0  0  3  0  0  0  0  0  0
  159.7750  211.1480  153.0210 C   0  0  1  0  0  3  0  0  0  0  0  0
  159.9260  211.5500  157.2600 O   0  0  0  0  0  0  0  0  0  0  0  0
  162.0640  210.2080  152.5550 C   0  0  0  0  0  1  0  0  0  0  0  0
  160.6250  209.2530  154.3110 C   0  0  0  0  0  2  0  0  0  0  0  0
  159.5100  213.8170  157.2060 O   0  0  0  0  0  0  0  0  0  0  0  0
  158.7020  213.7150  154.4790 C   0  0  0  0  0  3  0  0  0  0  0  0
  158.8380  214.4490  151.9790 C   0  0  0  0  0  3  0  0  0  0  0  0
  158.7600  214.0890  153.2280 C   0  0  0  0  0  0  0  0  0  0  0  0
  160.1460  214.3660  151.2740 C   0  0  0  0  0  2  0  0  0  0  0  0
  159.9270  213.9870  149.8170 C   0  0  2  0  0  3  0  0  0  0  0  0
  158.4540  213.6930  149.5930 C   0  0  0  0  0  1  0  0  0  0  0  0
  160.7020  212.8330  149.5060 O   0  0  0  0  0  0  0  0  0  0  0  0
  160.6690  213.1450  147.2140 O   0  0  0  0  0  0  0  0  0  0  0  0
  161.1780  212.5750  148.2210 C   0  0  0  0  0  0  0  0  0  0  0  0
  163.5440  212.5000  148.0310 O   0  0  0  0  0  1  0  0  0  0  0  0
  162.3860  211.7160  148.0580 C   0  0  0  0  0  2  0  0  0  0  0  0
  160.1210  208.8550  152.0000 O   0  0  0  0  0  0  0  0  0  0  0  0
  161.7530  203.8130  151.5380 O   0  0  0  0  0  0  0  0  0  0  0  0
  161.5010  206.6380  149.6310 C   0  0  1  0  0  3  0  0  0  0  0  0
  161.8850  205.0300  148.1300 C   0  0  0  0  0  2  0  0  0  0  0  0
  161.4250  204.4550  150.5550 C   0  0  0  0  0  0  0  0  0  0  0  0
  161.1320  208.0540  149.9710 C   0  0  0  0  0  2  0  0  0  0  0  0
  160.8070  205.8120  150.6630 C   0  0  1  0  0  3  0  0  0  0  0  0
  161.0380  206.5850  151.9430 C   0  0  0  0  0  2  0  0  0  0  0  0
  161.6180  203.8950  149.1630 C   0  0  1  0  0  3  0  0  0  0  0  0
  161.1680  208.0510  151.5010 C   0  0  2  0  0  3  0  0  0  0  0  0
  161.1130  206.1940  148.3600 O   0  0  0  0  0  0  0  0  0  0  0  0
  160.5020  203.1370  148.7840 O   0  0  0  0  0  0  0  0  0  0  0  0
  161.0410  202.0150  148.1330 C   0  0  2  0  0  3  0  0  0  0  0  0
  161.0610  200.8410  146.0050 O   0  0  0  0  0  0  0  0  0  0  0  0
  160.2630  201.6180  146.8680 C   0  0  2  0  0  3  0  0  0  0  0  0
  160.8600  202.1840  145.6340 C   0  0  0  0  0  2  0  0  0  0  0  0
  161.1500  200.8310  149.0900 C   0  0  0  0  0  2  0  0  0  0  0  0
  160.1650  200.9200  150.0770 O   0  0  0  0  0  1  0  0  0  0  0  0
  1  9  1  0  0  0  0
  2 11  1  6  0  0  0
  2  1  1  0  0  0  0
  3 10  1  6  0  0  0
  3  8  1  0  0  0  0
  3 11  1  0  0  0  0
  4 12  2  0  0  0  0
  4  9  1  0  0  0  0
  5 13  1  6  0  0  0
  5  4  1  0  0  0  0
  6  8  1  0  0  0  0
  7  5  1  0  0  0  0
  7  2  1  0  0  0  0
  8  7  1  0  0  0  0
 14 15  2  0  0  0  0
 15 13  2  0  0  0  0
 16 14  1  0  0  0  0
 17 16  1  0  0  0  0
 18 17  1  0  0  0  0
 19 17  1  0  0  0  0
 20 21  2  0  0  0  0
 21 19  1  0  0  0  0
 22 23  1  0  0  0  0
 23 21  1  0  0  0  0
 24  3  1  0  0  0  0
 26 29  1  0  0  0  0
 26 30  1  0  0  0  0
 27 34  1  0  0  0  0
 27 32  1  0  0  0  0
 28 30  1  0  0  0  0
 28 25  2  0  0  0  0
 29 33  1  0  0  0  0
 30 31  1  0  0  0  0
 32 28  1  0  0  0  0
 33 31  1  0  0  0  0
 33 24  1  0  0  0  0
 34 26  1  0  0  0  0
 35 32  1  0  0  0  0
 36 35  1  0  0  0  0
 36 40  1  0  0  0  0
 37 38  1  0  0  0  0
 38 36  1  0  0  0  0
 39 37  1  0  0  0  0
 39 38  1  0  0  0  0
 40 41  1  0  0  0  0
M  END
>  <MODEL>
1

>  <REMARK>
 VINA RESULT:      -6.4      0.000      0.000
  Name = 
  12 active torsions:
  status: ('A' for Active; 'I' for Inactive)
    1  A    between atoms: C_2  and  C_16
    2  A    between atoms: C_4  and  C_41
    3  A    between atoms: O_11  and  C_28
    4  A    between atoms: O_11  and  C_40
    5  A    between atoms: C_12  and  O_29
    6  A    between atoms: C_13  and  C_40
    7  A    between atoms: C_14  and  C_33
    8  A    between atoms: C_21  and  C_33
    9  A    between atoms: O_25  and  C_32
   10  A    between atoms: O_25  and  C_33
   11  A    between atoms: C_28  and  C_41
   12  A    between atoms: O_29  and  C_34
                            x       y       z     vdW  Elec       q    Type
                         _______ _______ _______ _____ _____    ______ ____

>  <TORSDO>
F 12

$$$$
=
 OpenBabel11072413243D

 41 45  0  0  1  0  0  0  0  0999 V2000
  157.5640  210.3840  156.0700 C   0  0  0  0  0  2  0  0  0  0  0  0
  159.0800  210.4440  156.0310 C   0  0  2  0  0  3  0  0  0  0  0  0
  161.1630  209.8870  155.0160 C   0  0  1  0  0  0  0  0  0  0  0  0
  157.7440  212.8400  156.5370 C   0  0  0  0  0  0  0  0  0  0  0  0
  159.1720  212.8970  156.0240 C   0  0  1  0  0  3  0  0  0  0  0  0
  160.9770  211.7400  153.4060 O   0  0  0  0  0  1  0  0  0  0  0  0
  159.4450  211.6380  155.2020 C   0  0  1  0  0  3  0  0  0  0  0  0
  160.8800  211.4000  154.7580 C   0  0  1  0  0  3  0  0  0  0  0  0
  157.0590  211.6070  156.6310 O   0  0  0  0  0  0  0  0  0  0  0  0
  162.0500  209.7490  156.2560 C   0  0  0  0  0  1  0  0  0  0  0  0
  159.7990  209.2930  155.3680 C   0  0  0  0  0  2  0  0  0  0  0  0
  157.1960  213.8810  156.9890 O   0  0  0  0  0  0  0  0  0  0  0  0
  159.4090  214.1370  155.2190 C   0  0  0  0  0  3  0  0  0  0  0  0
  158.3110  214.3840  152.8650 C   0  0  0  0  0  3  0  0  0  0  0  0
  158.8640  214.2720  154.0390 C   0  0  0  0  0  0  0  0  0  0  0  0
  157.8870  213.1580  152.1360 C   0  0  0  0  0  2  0  0  0  0  0  0
  158.2740  213.2670  150.6690 C   0  0  2  0  0  3  0  0  0  0  0  0
  159.7570  213.5750  150.5650 C   0  0  0  0  0  1  0  0  0  0  0  0
  157.5210  214.3080  150.0550 O   0  0  0  0  0  0  0  0  0  0  0  0
  155.2630  213.9660  149.6890 O   0  0  0  0  0  0  0  0  0  0  0  0
  156.4330  214.0550  149.2200 C   0  0  0  0  0  0  0  0  0  0  0  0
  157.4900  212.9610  147.3970 O   0  0  0  0  0  1  0  0  0  0  0  0
  156.6480  214.0220  147.7450 C   0  0  0  0  0  2  0  0  0  0  0  0
  161.7080  209.1560  153.9230 O   0  0  0  0  0  0  0  0  0  0  0  0
  160.0840  206.7990  149.4390 O   0  0  0  0  0  0  0  0  0  0  0  0
  160.7970  205.9840  152.6810 C   0  0  1  0  0  3  0  0  0  0  0  0
  160.6950  204.0020  151.6560 C   0  0  0  0  0  2  0  0  0  0  0  0
  160.6250  206.1550  150.3220 C   0  0  0  0  0  0  0  0  0  0  0  0
  161.1230  206.8240  153.8830 C   0  0  0  0  0  2  0  0  0  0  0  0
  161.2400  206.8070  151.5170 C   0  0  1  0  0  3  0  0  0  0  0  0
  160.7670  208.2000  151.8740 C   0  0  0  0  0  2  0  0  0  0  0  0
  160.7120  204.6470  150.2390 C   0  0  1  0  0  3  0  0  0  0  0  0
  160.7680  208.2360  153.4100 C   0  0  2  0  0  3  0  0  0  0  0  0
  161.4310  204.7350  152.6180 O   0  0  0  0  0  0  0  0  0  0  0  0
  161.8640  204.2630  149.5380 O   0  0  0  0  0  0  0  0  0  0  0  0
  161.3800  203.6990  148.3460 C   0  0  2  0  0  3  0  0  0  0  0  0
  160.6160  201.6200  147.3450 O   0  0  0  0  0  0  0  0  0  0  0  0
  161.4720  202.1630  148.3240 C   0  0  2  0  0  3  0  0  0  0  0  0
  160.1880  201.5140  148.6830 C   0  0  0  0  0  2  0  0  0  0  0  0
  162.0890  204.2960  147.1340 C   0  0  0  0  0  2  0  0  0  0  0  0
  161.2480  205.2050  146.4870 O   0  0  0  0  0  1  0  0  0  0  0  0
  1  9  1  0  0  0  0
  2 11  1  6  0  0  0
  2  1  1  0  0  0  0
  3 11  1  0  0  0  0
  3 10  1  1  0  0  0
  4  9  1  0  0  0  0
  4 12  2  0  0  0  0
  5 13  1  6  0  0  0
  5  4  1  0  0  0  0
  6  8  1  0  0  0  0
  7  5  1  0  0  0  0
  7  2  1  0  0  0  0
  8  3  1  0  0  0  0
  8  7  1  0  0  0  0
 14 15  2  0  0  0  0
 15 13  2  0  0  0  0
 16 14  1  0  0  0  0
 17 16  1  0  0  0  0
 18 17  1  0  0  0  0
 19 17  1  0  0  0  0
 21 20  2  0  0  0  0
 21 19  1  0  0  0  0
 22 23  1  0  0  0  0
 23 21  1  0  0  0  0
 24  3  1  0  0  0  0
 25 28  2  0  0  0  0
 26 29  1  0  0  0  0
 27 34  1  0  0  0  0
 28 30  1  0  0  0  0
 30 31  1  0  0  0  0
 30 26  1  0  0  0  0
 31 33  1  0  0  0  0
 32 28  1  0  0  0  0
 32 27  1  0  0  0  0
 33 29  1  0  0  0  0
 33 24  1  0  0  0  0
 34 26  1  0  0  0  0
 35 32  1  0  0  0  0
 36 35  1  0  0  0  0
 37 38  1  0  0  0  0
 37 39  1  0  0  0  0
 38 36  1  0  0  0  0
 38 39  1  0  0  0  0
 40 36  1  0  0  0  0
 41 40  1  0  0  0  0
M  END
>  <MODEL>
2

>  <REMARK>
 VINA RESULT:      -6.1      2.079      3.123
  Name = 
  12 active torsions:
  status: ('A' for Active; 'I' for Inactive)
    1  A    between atoms: C_2  and  C_16
    2  A    between atoms: C_4  and  C_41
    3  A    between atoms: O_11  and  C_28
    4  A    between atoms: O_11  and  C_40
    5  A    between atoms: C_12  and  O_29
    6  A    between atoms: C_13  and  C_40
    7  A    between atoms: C_14  and  C_33
    8  A    between atoms: C_21  and  C_33
    9  A    between atoms: O_25  and  C_32
   10  A    between atoms: O_25  and  C_33
   11  A    between atoms: C_28  and  C_41
   12  A    between atoms: O_29  and  C_34
                            x       y       z     vdW  Elec       q    Type
                         _______ _______ _______ _____ _____    ______ ____

>  <TORSDO>
F 12

$$$$
=
 OpenBabel11072413243D

 41 45  0  0  1  0  0  0  0  0999 V2000
  157.2680  210.2140  155.4060 C   0  0  0  0  0  2  0  0  0  0  0  0
  158.7800  210.2010  155.5400 C   0  0  2  0  0  3  0  0  0  0  0  0
  160.9420  209.6410  154.7070 C   0  0  1  0  0  0  0  0  0  0  0  0
  157.4900  212.6010  156.1400 C   0  0  0  0  0  0  0  0  0  0  0  0
  158.9690  212.6360  155.7950 C   0  0  1  0  0  3  0  0  0  0  0  0
  161.0140  211.6500  153.2860 O   0  0  0  0  0  1  0  0  0  0  0  0
  159.2840  211.4510  154.8840 C   0  0  1  0  0  3  0  0  0  0  0  0
  160.7490  211.1840  154.5770 C   0  0  1  0  0  3  0  0  0  0  0  0
  156.7510  211.4010  156.0320 O   0  0  0  0  0  0  0  0  0  0  0  0
  161.6750  209.3380  156.0160 C   0  0  0  0  0  1  0  0  0  0  0  0
  159.5240  209.0850  154.8450 C   0  0  0  0  0  2  0  0  0  0  0  0
  156.9360  213.6200  156.6340 O   0  0  0  0  0  0  0  0  0  0  0  0
  159.3450  213.9340  155.1530 C   0  0  0  0  0  3  0  0  0  0  0  0
  158.5560  214.4530  152.7200 C   0  0  0  0  0  3  0  0  0  0  0  0
  158.9550  214.2050  153.9350 C   0  0  0  0  0  0  0  0  0  0  0  0
  158.1860  213.3230  151.8260 C   0  0  0  0  0  2  0  0  0  0  0  0
  158.5540  213.6560  150.3880 C   0  0  2  0  0  3  0  0  0  0  0  0
  157.5870  212.9560  149.4500 C   0  0  0  0  0  1  0  0  0  0  0  0
  159.8830  213.2170  150.1250 O   0  0  0  0  0  0  0  0  0  0  0  0
  160.3360  214.4400  148.2160 O   0  0  0  0  0  0  0  0  0  0  0  0
  160.4940  213.3780  148.8820 C   0  0  0  0  0  0  0  0  0  0  0  0
  162.6490  212.9190  147.9970 O   0  0  0  0  0  1  0  0  0  0  0  0
  161.4450  212.3340  148.4050 C   0  0  0  0  0  2  0  0  0  0  0  0
  161.5790  208.9930  153.6110 O   0  0  0  0  0  0  0  0  0  0  0  0
  160.0810  206.7310  149.0360 O   0  0  0  0  0  0  0  0  0  0  0  0
  161.0630  205.8140  152.1780 C   0  0  1  0  0  3  0  0  0  0  0  0
  161.1900  203.9110  151.0170 C   0  0  0  0  0  2  0  0  0  0  0  0
  160.7510  206.1150  149.8470 C   0  0  0  0  0  0  0  0  0  0  0  0
  161.3260  206.6100  153.4250 C   0  0  0  0  0  2  0  0  0  0  0  0
  161.3270  206.7680  151.0610 C   0  0  1  0  0  3  0  0  0  0  0  0
  160.6800  208.0510  151.5370 C   0  0  0  0  0  2  0  0  0  0  0  0
  161.0450  204.6440  149.6510 C   0  0  1  0  0  3  0  0  0  0  0  0
  160.7540  207.9840  153.0710 C   0  0  2  0  0  3  0  0  0  0  0  0
  161.8620  204.6760  151.9990 O   0  0  0  0  0  0  0  0  0  0  0  0
  162.2030  204.4780  148.8780 O   0  0  0  0  0  0  0  0  0  0  0  0
  161.8090  203.6340  147.8270 C   0  0  2  0  0  3  0  0  0  0  0  0
  161.5200  203.5740  145.4140 O   0  0  0  0  0  0  0  0  0  0  0  0
  161.4160  204.3990  146.5520 C   0  0  2  0  0  3  0  0  0  0  0  0
  162.5430  204.5240  145.5970 C   0  0  0  0  0  2  0  0  0  0  0  0
  160.6770  202.7090  148.2680 C   0  0  0  0  0  2  0  0  0  0  0  0
  161.1030  201.3790  148.2290 O   0  0  0  0  0  1  0  0  0  0  0  0
  1  2  1  0  0  0  0
  1  9  1  0  0  0  0
  2 11  1  6  0  0  0
  3 11  1  0  0  0  0
  3 10  1  1  0  0  0
  4 12  2  0  0  0  0
  5 13  1  6  0  0  0
  5  4  1  0  0  0  0
  6  8  1  0  0  0  0
  7  2  1  0  0  0  0
  7  5  1  0  0  0  0
  8  3  1  0  0  0  0
  8  7  1  0  0  0  0
  9  4  1  0  0  0  0
 14 15  2  0  0  0  0
 15 13  2  0  0  0  0
 16 14  1  0  0  0  0
 17 16  1  0  0  0  0
 18 17  1  0  0  0  0
 19 17  1  0  0  0  0
 20 21  2  0  0  0  0
 21 19  1  0  0  0  0
 22 23  1  0  0  0  0
 23 21  1  0  0  0  0
 24  3  1  0  0  0  0
 25 28  2  0  0  0  0
 26 29  1  0  0  0  0
 27 34  1  0  0  0  0
 28 30  1  0  0  0  0
 30 31  1  0  0  0  0
 30 26  1  0  0  0  0
 31 33  1  0  0  0  0
 32 28  1  0  0  0  0
 32 27  1  0  0  0  0
 33 29  1  0  0  0  0
 33 24  1  0  0  0  0
 34 26  1  0  0  0  0
 35 32  1  0  0  0  0
 36 40  1  0  0  0  0
 36 35  1  0  0  0  0
 37 39  1  0  0  0  0
 37 38  1  0  0  0  0
 38 36  1  0  0  0  0
 39 38  1  0  0  0  0
 41 40  1  0  0  0  0
M  END
>  <MODEL>
3

>  <REMARK>
 VINA RESULT:      -5.9      1.609      2.255
  Name = 
  12 active torsions:
  status: ('A' for Active; 'I' for Inactive)
    1  A    between atoms: C_2  and  C_16
    2  A    between atoms: C_4  and  C_41
    3  A    between atoms: O_11  and  C_28
    4  A    between atoms: O_11  and  C_40
    5  A    between atoms: C_12  and  O_29
    6  A    between atoms: C_13  and  C_40
    7  A    between atoms: C_14  and  C_33
    8  A    between atoms: C_21  and  C_33
    9  A    between atoms: O_25  and  C_32
   10  A    between atoms: O_25  and  C_33
   11  A    between atoms: C_28  and  C_41
   12  A    between atoms: O_29  and  C_34
                            x       y       z     vdW  Elec       q    Type
                         _______ _______ _______ _____ _____    ______ ____

>  <TORSDO>
F 12

$$$$
=
 OpenBabel11072413243D

 41 45  0  0  1  0  0  0  0  0999 V2000
  161.8630  211.4560  156.6330 C   0  0  0  0  0  2  0  0  0  0  0  0
  161.5210  211.0390  155.2150 C   0  0  2  0  0  3  0  0  0  0  0  0
  161.5860  209.4550  153.4350 C   0  0  1  0  0  0  0  0  0  0  0  0
  159.4720  212.2030  156.7070 C   0  0  0  0  0  0  0  0  0  0  0  0
  159.1030  211.3540  155.5030 C   0  0  1  0  0  3  0  0  0  0  0  0
  159.6550  208.2240  154.3390 O   0  0  0  0  0  1  0  0  0  0  0  0
  160.2070  210.3210  155.2800 C   0  0  1  0  0  3  0  0  0  0  0  0
  160.1340  209.4940  154.0060 C   0  0  1  0  0  3  0  0  0  0  0  0
  160.8120  212.2950  157.1440 O   0  0  0  0  0  0  0  0  0  0  0  0
  161.6750  210.3940  152.2290 C   0  0  0  0  0  1  0  0  0  0  0  0
  162.4520  210.0580  154.5420 C   0  0  0  0  0  2  0  0  0  0  0  0
  158.5960  212.9220  157.2610 O   0  0  0  0  0  0  0  0  0  0  0  0
  157.7710  210.6980  155.6890 C   0  0  0  0  0  3  0  0  0  0  0  0
  155.5850  212.0600  155.2700 C   0  0  0  0  0  3  0  0  0  0  0  0
  156.6690  211.3700  155.4810 C   0  0  0  0  0  0  0  0  0  0  0  0
  155.6380  213.5450  155.3360 C   0  0  0  0  0  2  0  0  0  0  0  0
  155.8180  214.1210  153.9400 C   0  0  2  0  0  3  0  0  0  0  0  0
  154.5330  213.9340  153.1530 C   0  0  0  0  0  1  0  0  0  0  0  0
  156.8880  213.4480  153.2840 O   0  0  0  0  0  0  0  0  0  0  0  0
  158.9110  214.4120  153.8550 O   0  0  0  0  0  0  0  0  0  0  0  0
  158.0850  214.0840  152.9560 C   0  0  0  0  0  0  0  0  0  0  0  0
  157.7210  213.3560  150.7260 O   0  0  0  0  0  1  0  0  0  0  0  0
  158.4420  214.2550  151.5190 C   0  0  0  0  0  2  0  0  0  0  0  0
  162.0970  208.1670  153.1090 O   0  0  0  0  0  0  0  0  0  0  0  0
  160.3340  206.6570  148.3230 O   0  0  0  0  0  0  0  0  0  0  0  0
  161.0520  205.2840  151.3690 C   0  0  1  0  0  3  0  0  0  0  0  0
  160.8630  203.5080  150.0290 C   0  0  0  0  0  2  0  0  0  0  0  0
  160.8610  205.8560  149.0750 C   0  0  0  0  0  0  0  0  0  0  0  0
  161.4230  205.8980  152.6890 C   0  0  0  0  0  2  0  0  0  0  0  0
  161.5130  206.2760  150.3520 C   0  0  1  0  0  3  0  0  0  0  0  0
  161.0970  207.6040  150.9460 C   0  0  0  0  0  2  0  0  0  0  0  0
  160.8890  204.3810  148.7400 C   0  0  1  0  0  3  0  0  0  0  0  0
  161.1170  207.3810  152.4660 C   0  0  2  0  0  3  0  0  0  0  0  0
  161.6370  204.0420  151.0870 O   0  0  0  0  0  0  0  0  0  0  0  0
  162.0170  204.0800  147.9640 O   0  0  0  0  0  0  0  0  0  0  0  0
  161.5740  204.1950  146.6360 C   0  0  2  0  0  3  0  0  0  0  0  0
  160.5420  202.7120  145.0100 O   0  0  0  0  0  0  0  0  0  0  0  0
  161.6600  202.8750  145.8530 C   0  0  2  0  0  3  0  0  0  0  0  0
  160.5560  201.9440  146.1900 C   0  0  0  0  0  2  0  0  0  0  0  0
  162.3290  205.3030  145.9050 C   0  0  0  0  0  2  0  0  0  0  0  0
  161.6910  205.6030  144.7000 O   0  0  0  0  0  1  0  0  0  0  0  0
  1  9  1  0  0  0  0
  2 11  1  1  0  0  0
  2  7  1  0  0  0  0
  2  1  1  0  0  0  0
  3 10  1  6  0  0  0
  3  8  1  0  0  0  0
  3 11  1  0  0  0  0
  4  9  1  0  0  0  0
  4 12  2  0  0  0  0
  5 13  1  1  0  0  0
  5  4  1  0  0  0  0
  7  5  1  0  0  0  0
  8  6  1  0  0  0  0
  8  7  1  0  0  0  0
 14 16  1  0  0  0  0
 14 15  2  0  0  0  0
 15 13  2  0  0  0  0
 17 16  1  0  0  0  0
 18 17  1  0  0  0  0
 19 17  1  0  0  0  0
 21 19  1  0  0  0  0
 21 20  2  0  0  0  0
 22 23  1  0  0  0  0
 23 21  1  0  0  0  0
 24  3  1  0  0  0  0
 25 28  2  0  0  0  0
 26 29  1  0  0  0  0
 27 34  1  0  0  0  0
 28 30  1  0  0  0  0
 30 31  1  0  0  0  0
 30 26  1  0  0  0  0
 31 33  1  0  0  0  0
 32 28  1  0  0  0  0
 32 27  1  0  0  0  0
 33 29  1  0  0  0  0
 33 24  1  0  0  0  0
 34 26  1  0  0  0  0
 35 32  1  0  0  0  0
 36 35  1  0  0  0  0
 37 38  1  0  0  0  0
 37 39  1  0  0  0  0
 38 39  1  0  0  0  0
 38 36  1  0  0  0  0
 40 36  1  0  0  0  0
 41 40  1  0  0  0  0
M  END
>  <MODEL>
4

>  <REMARK>
 VINA RESULT:      -5.2      2.230      3.687
  Name = 
  12 active torsions:
  status: ('A' for Active; 'I' for Inactive)
    1  A    between atoms: C_2  and  C_16
    2  A    between atoms: C_4  and  C_41
    3  A    between atoms: O_11  and  C_28
    4  A    between atoms: O_11  and  C_40
    5  A    between atoms: C_12  and  O_29
    6  A    between atoms: C_13  and  C_40
    7  A    between atoms: C_14  and  C_33
    8  A    between atoms: C_21  and  C_33
    9  A    between atoms: O_25  and  C_32
   10  A    between atoms: O_25  and  C_33
   11  A    between atoms: C_28  and  C_41
   12  A    between atoms: O_29  and  C_34
                            x       y       z     vdW  Elec       q    Type
                         _______ _______ _______ _____ _____    ______ ____

>  <TORSDO>
F 12

$$$$
=
 OpenBabel11072413243D

 41 46  0  0  1  0  0  0  0  0999 V2000
  160.3890  213.8210  150.7670 C   0  0  0  0  0  2  0  0  0  0  0  0
  160.4840  213.0500  149.4640 C   0  0  2  0  0  3  0  0  0  0  0  0
  161.4000  212.7440  147.2850 C   0  0  1  0  0  0  0  0  0  0  0  0
  160.5150  211.5470  151.8140 C   0  0  0  0  0  0  0  0  0  0  0  0
  161.0680  210.9240  150.5440 C   0  0  1  0  0  3  0  0  0  0  0  0
  163.3930  211.6120  148.1830 O   0  0  0  0  0  1  0  0  0  0  0  0
  161.5800  212.0410  149.6360 C   0  0  1  0  0  3  0  0  0  0  0  0
  161.9970  211.6520  148.2270 C   0  0  1  0  0  3  0  0  0  0  0  0
  160.1160  212.9020  151.8390 O   0  0  0  0  0  0  0  0  0  0  0  0
  160.1880  212.1640  146.5520 C   0  0  0  0  0  2  0  0  0  0  0  0
  160.8800  213.8270  148.2310 C   0  0  0  0  0  2  0  0  0  0  0  0
  160.3040  210.8270  152.8270 O   0  0  0  0  0  0  0  0  0  0  0  0
  162.1470  209.9330  150.8520 C   0  0  0  0  0  3  0  0  0  0  0  0
  162.0700  207.5560  149.7770 C   0  0  0  0  0  3  0  0  0  0  0  0
  162.1200  208.7400  150.3190 C   0  0  0  0  0  0  0  0  0  0  0  0
  160.7680  207.0280  149.2890 C   0  0  0  0  0  2  0  0  0  0  0  0
  161.0000  205.8170  148.3980 C   0  0  2  0  0  3  0  0  0  0  0  0
  161.1450  204.5790  149.2650 C   0  0  0  0  0  1  0  0  0  0  0  0
  162.1850  206.0110  147.6330 O   0  0  0  0  0  0  0  0  0  0  0  0
  163.4300  204.8360  146.0780 O   0  0  0  0  0  0  0  0  0  0  0  0
  162.3630  205.4480  146.3700 C   0  0  0  0  0  0  0  0  0  0  0  0
  160.9600  204.1680  144.9450 O   0  0  0  0  0  1  0  0  0  0  0  0
  161.2250  205.4620  145.4070 C   0  0  0  0  0  2  0  0  0  0  0  0
  162.3070  213.3420  146.3650 O   0  0  0  0  0  0  0  0  0  0  0  0
  163.0870  214.2550  141.1820 O   0  0  0  0  0  0  0  0  0  0  0  0
  160.8840  212.6200  143.2210 C   0  0  1  0  0  3  0  0  0  0  0  0
  160.3960  211.8320  141.1890 C   0  0  0  0  0  2  0  0  0  0  0  0
  162.4300  213.2970  141.5550 C   0  0  0  0  0  0  0  0  0  0  0  0
  160.7340  212.5770  144.7150 C   0  0  1  0  0  3  0  0  0  0  0  0
  162.3290  212.9180  142.9970 C   0  0  1  0  0  3  0  0  0  0  0  0
  162.6290  213.9880  144.0250 C   0  0  0  0  0  2  0  0  0  0  0  0
  161.6890  212.4310  140.5610 C   0  0  1  0  0  3  0  0  0  0  0  0
  161.6460  213.7170  145.1750 C   0  0  2  0  0  3  0  0  0  0  0  0
  160.5550  211.4390  142.5400 O   0  0  0  0  0  0  0  0  0  0  0  0
  162.5250  211.4100  140.0870 O   0  0  0  0  0  0  0  0  0  0  0  0
  161.7160  210.6690  139.2110 C   0  0  2  0  0  3  0  0  0  0  0  0
  161.9320  208.5450  138.0480 O   0  0  0  0  0  0  0  0  0  0  0  0
  161.9370  209.1510  139.3200 C   0  0  2  0  0  3  0  0  0  0  0  0
  160.7740  208.3730  138.8300 C   0  0  0  0  0  2  0  0  0  0  0  0
  161.9040  211.1360  137.7700 C   0  0  0  0  0  2  0  0  0  0  0  0
  163.2220  211.5550  137.5710 O   0  0  0  0  0  1  0  0  0  0  0  0
  1  9  1  0  0  0  0
  2 11  1  6  0  0  0
  2  7  1  0  0  0  0
  2  1  1  0  0  0  0
  3 10  1  6  0  0  0
  3  8  1  0  0  0  0
  3 11  1  0  0  0  0
  4  9  1  0  0  0  0
  4 12  2  0  0  0  0
  5 13  1  1  0  0  0
  5  4  1  0  0  0  0
  6  8  1  0  0  0  0
  7  5  1  0  0  0  0
  8  7  1  0  0  0  0
 14 15  2  0  0  0  0
 15 13  2  0  0  0  0
 16 14  1  0  0  0  0
 17 18  1  0  0  0  0
 17 16  1  0  0  0  0
 19 17  1  0  0  0  0
 20 21  2  0  0  0  0
 21 19  1  0  0  0  0
 22 23  1  0  0  0  0
 23 21  1  0  0  0  0
 24  3  1  0  0  0  0
 25 28  2  0  0  0  0
 26 29  1  0  0  0  0
 27 34  1  0  0  0  0
 28 30  1  0  0  0  0
 29 33  1  0  0  0  0
 29 10  1  0  0  0  0
 30 26  1  0  0  0  0
 30 31  1  0  0  0  0
 31 33  1  0  0  0  0
 32 27  1  0  0  0  0
 32 28  1  0  0  0  0
 33 24  1  0  0  0  0
 34 26  1  0  0  0  0
 35 32  1  0  0  0  0
 36 38  1  0  0  0  0
 36 35  1  0  0  0  0
 37 39  1  0  0  0  0
 37 38  1  0  0  0  0
 39 38  1  0  0  0  0
 40 36  1  0  0  0  0
 41 40  1  0  0  0  0
M  END
>  <MODEL>
5

>  <REMARK>
 VINA RESULT:      -5.1      4.980      9.154
  Name = 
  12 active torsions:
  status: ('A' for Active; 'I' for Inactive)
    1  A    between atoms: C_2  and  C_16
    2  A    between atoms: C_4  and  C_41
    3  A    between atoms: O_11  and  C_28
    4  A    between atoms: O_11  and  C_40
    5  A    between atoms: C_12  and  O_29
    6  A    between atoms: C_13  and  C_40
    7  A    between atoms: C_14  and  C_33
    8  A    between atoms: C_21  and  C_33
    9  A    between atoms: O_25  and  C_32
   10  A    between atoms: O_25  and  C_33
   11  A    between atoms: C_28  and  C_41
   12  A    between atoms: O_29  and  C_34
                            x       y       z     vdW  Elec       q    Type
                         _______ _______ _______ _____ _____    ______ ____

>  <TORSDO>
F 12

$$$$
=
 OpenBabel11072413243D

 41 45  0  0  1  0  0  0  0  0999 V2000
  160.1180  214.3110  150.7380 C   0  0  0  0  0  2  0  0  0  0  0  0
  160.2560  213.3770  149.5510 C   0  0  2  0  0  3  0  0  0  0  0  0
  161.2780  212.7690  147.4840 C   0  0  1  0  0  0  0  0  0  0  0  0
  160.1070  212.1870  152.0680 C   0  0  0  0  0  0  0  0  0  0  0  0
  160.7050  211.3910  150.9210 C   0  0  1  0  0  3  0  0  0  0  0  0
  163.1780  211.7050  148.6330 O   0  0  0  0  0  1  0  0  0  0  0  0
  161.3040  212.3680  149.9110 C   0  0  1  0  0  3  0  0  0  0  0  0
  161.7840  211.7900  148.5890 C   0  0  1  0  0  3  0  0  0  0  0  0
  159.7550  213.5440  151.8990 O   0  0  0  0  0  0  0  0  0  0  0  0
  160.0870  212.1350  146.7600 C   0  0  0  0  0  1  0  0  0  0  0  0
  160.7460  213.9790  148.2540 C   0  0  0  0  0  2  0  0  0  0  0  0
  159.8160  211.6080  153.1500 O   0  0  0  0  0  0  0  0  0  0  0  0
  161.7300  210.4170  151.4140 C   0  0  0  0  0  3  0  0  0  0  0  0
  162.2650  208.2800  150.0160 C   0  0  0  0  0  3  0  0  0  0  0  0
  162.0070  209.3440  150.7210 C   0  0  0  0  0  0  0  0  0  0  0  0
  161.2560  207.7850  149.0420 C   0  0  0  0  0  2  0  0  0  0  0  0
  161.3370  206.2700  148.9340 C   0  0  2  0  0  3  0  0  0  0  0  0
  160.9210  205.8440  147.5370 C   0  0  0  0  0  1  0  0  0  0  0  0
  160.4700  205.6780  149.8960 O   0  0  0  0  0  0  0  0  0  0  0  0
  160.9040  203.4110  150.0340 O   0  0  0  0  0  0  0  0  0  0  0  0
  160.8130  204.5310  150.6120 C   0  0  0  0  0  0  0  0  0  0  0  0
  162.0340  205.7740  152.2250 O   0  0  0  0  0  1  0  0  0  0  0  0
  161.2030  204.6640  152.0450 C   0  0  0  0  0  2  0  0  0  0  0  0
  162.2540  213.2190  146.5500 O   0  0  0  0  0  0  0  0  0  0  0  0
  163.2790  214.4500  141.4770 O   0  0  0  0  0  0  0  0  0  0  0  0
  161.0190  212.6450  143.2980 C   0  0  1  0  0  3  0  0  0  0  0  0
  160.6620  211.9640  141.2020 C   0  0  0  0  0  2  0  0  0  0  0  0
  162.6310  213.4570  141.7600 C   0  0  0  0  0  0  0  0  0  0  0  0
  160.7920  212.5120  144.7770 C   0  0  0  0  0  2  0  0  0  0  0  0
  162.4650  212.9920  143.1700 C   0  0  1  0  0  3  0  0  0  0  0  0
  162.6800  214.0080  144.2710 C   0  0  0  0  0  2  0  0  0  0  0  0
  161.9680  212.6310  140.6800 C   0  0  1  0  0  3  0  0  0  0  0  0
  161.6460  213.6460  145.3500 C   0  0  2  0  0  3  0  0  0  0  0  0
  160.7600  211.4980  142.5350 O   0  0  0  0  0  0  0  0  0  0  0  0
  162.8570  211.6610  140.1940 O   0  0  0  0  0  0  0  0  0  0  0  0
  162.9420  211.9180  138.8170 C   0  0  2  0  0  3  0  0  0  0  0  0
  162.3430  213.4310  137.0110 O   0  0  0  0  0  0  0  0  0  0  0  0
  162.1890  213.1900  138.3900 C   0  0  2  0  0  3  0  0  0  0  0  0
  163.1000  214.2420  137.8780 C   0  0  0  0  0  2  0  0  0  0  0  0
  162.4630  210.7150  138.0080 C   0  0  0  0  0  2  0  0  0  0  0  0
  161.0780  210.5770  138.1280 O   0  0  0  0  0  1  0  0  0  0  0  0
  1  9  1  0  0  0  0
  2 11  1  6  0  0  0
  2  7  1  0  0  0  0
  2  1  1  0  0  0  0
  3 10  1  6  0  0  0
  3 11  1  0  0  0  0
  3  8  1  0  0  0  0
  4 12  2  0  0  0  0
  5 13  1  1  0  0  0
  5  4  1  0  0  0  0
  7  5  1  0  0  0  0
  8  6  1  0  0  0  0
  8  7  1  0  0  0  0
  9  4  1  0  0  0  0
 14 15  2  0  0  0  0
 15 13  2  0  0  0  0
 16 14  1  0  0  0  0
 17 16  1  0  0  0  0
 17 19  1  0  0  0  0
 18 17  1  0  0  0  0
 19 21  1  0  0  0  0
 20 21  2  0  0  0  0
 21 23  1  0  0  0  0
 23 22  1  0  0  0  0
 24  3  1  0  0  0  0
 25 28  2  0  0  0  0
 26 29  1  0  0  0  0
 27 34  1  0  0  0  0
 28 30  1  0  0  0  0
 29 33  1  0  0  0  0
 30 26  1  0  0  0  0
 30 31  1  0  0  0  0
 31 33  1  0  0  0  0
 32 27  1  0  0  0  0
 32 28  1  0  0  0  0
 33 24  1  0  0  0  0
 34 26  1  0  0  0  0
 35 32  1  0  0  0  0
 36 35  1  0  0  0  0
 37 39  1  0  0  0  0
 37 38  1  0  0  0  0
 38 36  1  0  0  0  0
 39 38  1  0  0  0  0
 40 41  1  0  0  0  0
 40 36  1  0  0  0  0
M  END
>  <MODEL>
6

>  <REMARK>
 VINA RESULT:      -4.6      4.951      9.489
  Name = 
  12 active torsions:
  status: ('A' for Active; 'I' for Inactive)
    1  A    between atoms: C_2  and  C_16
    2  A    between atoms: C_4  and  C_41
    3  A    between atoms: O_11  and  C_28
    4  A    between atoms: O_11  and  C_40
    5  A    between atoms: C_12  and  O_29
    6  A    between atoms: C_13  and  C_40
    7  A    between atoms: C_14  and  C_33
    8  A    between atoms: C_21  and  C_33
    9  A    between atoms: O_25  and  C_32
   10  A    between atoms: O_25  and  C_33
   11  A    between atoms: C_28  and  C_41
   12  A    between atoms: O_29  and  C_34
                            x       y       z     vdW  Elec       q    Type
                         _______ _______ _______ _____ _____    ______ ____

>  <TORSDO>
F 12

$$$$
=
 OpenBabel11072413243D

 41 45  0  0  1  0  0  0  0  0999 V2000
  157.5380  210.8360  153.4950 C   0  0  0  0  0  2  0  0  0  0  0  0
  159.0140  210.7840  153.8410 C   0  0  2  0  0  3  0  0  0  0  0  0
  161.1650  209.7720  153.6550 C   0  0  1  0  0  0  0  0  0  0  0  0
  157.9760  213.2810  153.1600 C   0  0  0  0  0  0  0  0  0  0  0  0
  159.4760  213.0630  153.0540 C   0  0  1  0  0  3  0  0  0  0  0  0
  161.6300  210.9390  151.5380 O   0  0  0  0  0  1  0  0  0  0  0  0
  159.7340  211.5790  152.7950 C   0  0  1  0  0  3  0  0  0  0  0  0
  161.1790  211.1090  152.8490 C   0  0  1  0  0  3  0  0  0  0  0  0
  157.1100  212.2090  153.4680 O   0  0  0  0  0  0  0  0  0  0  0  0
  161.7170  210.0290  155.0590 C   0  0  0  0  0  1  0  0  0  0  0  0
  159.6820  209.4290  153.8080 C   0  0  0  0  0  2  0  0  0  0  0  0
  157.5040  214.4480  153.0830 O   0  0  0  0  0  0  0  0  0  0  0  0
  160.0730  213.9170  151.9800 C   0  0  0  0  0  3  0  0  0  0  0  0
  158.7560  214.3250  149.7640 C   0  0  0  0  0  3  0  0  0  0  0  0
  159.4220  214.1290  150.8670 C   0  0  0  0  0  0  0  0  0  0  0  0
  157.6970  213.3590  149.3680 C   0  0  0  0  0  2  0  0  0  0  0  0
  157.3160  213.5750  147.9110 C   0  0  2  0  0  3  0  0  0  0  0  0
  157.2080  212.2290  147.2170 C   0  0  0  0  0  1  0  0  0  0  0  0
  158.3130  214.3680  147.2730 O   0  0  0  0  0  0  0  0  0  0  0  0
  157.9450  214.2430  144.9930 O   0  0  0  0  0  0  0  0  0  0  0  0
  158.7410  214.1260  145.9680 C   0  0  0  0  0  0  0  0  0  0  0  0
  160.3590  212.5770  145.1800 O   0  0  0  0  0  1  0  0  0  0  0  0
  160.1860  213.8550  145.7210 C   0  0  0  0  0  2  0  0  0  0  0  0
  161.8270  208.6670  153.0480 O   0  0  0  0  0  0  0  0  0  0  0  0
  160.1330  206.4960  148.4970 O   0  0  0  0  0  0  0  0  0  0  0  0
  160.9590  205.5390  151.6720 C   0  0  1  0  0  3  0  0  0  0  0  0
  160.8760  203.6090  150.5520 C   0  0  0  0  0  2  0  0  0  0  0  0
  160.7150  205.8230  149.3310 C   0  0  0  0  0  0  0  0  0  0  0  0
  161.2980  206.3260  152.9060 C   0  0  0  0  0  2  0  0  0  0  0  0
  161.3470  206.4310  150.5400 C   0  0  1  0  0  3  0  0  0  0  0  0
  160.8500  207.7920  150.9800 C   0  0  0  0  0  2  0  0  0  0  0  0
  160.8360  204.3250  149.1690 C   0  0  1  0  0  3  0  0  0  0  0  0
  160.8950  207.7500  152.5160 C   0  0  2  0  0  3  0  0  0  0  0  0
  161.6210  204.3120  151.5290 O   0  0  0  0  0  0  0  0  0  0  0  0
  161.9770  204.0060  148.4170 O   0  0  0  0  0  0  0  0  0  0  0  0
  161.7130  204.5240  147.1390 C   0  0  2  0  0  3  0  0  0  0  0  0
  160.9140  203.4800  145.0950 O   0  0  0  0  0  0  0  0  0  0  0  0
  161.9850  203.5160  146.0100 C   0  0  2  0  0  3  0  0  0  0  0  0
  161.0060  202.4030  145.9970 C   0  0  0  0  0  2  0  0  0  0  0  0
  162.4930  205.8160  146.9050 C   0  0  0  0  0  2  0  0  0  0  0  0
  162.4780  206.1440  145.5470 O   0  0  0  0  0  1  0  0  0  0  0  0
  2  1  1  6  0  0  0
  3 11  1  0  0  0  0
  3 10  1  1  0  0  0
  4  9  1  0  0  0  0
  5 13  1  6  0  0  0
  5  4  1  0  0  0  0
  6  8  1  0  0  0  0
  7  8  1  0  0  0  0
  7  5  1  0  0  0  0
  7  2  1  0  0  0  0
  8  3  1  0  0  0  0
  9  1  1  0  0  0  0
 11  2  1  0  0  0  0
 12  4  2  0  0  0  0
 14 15  2  0  0  0  0
 15 13  2  0  0  0  0
 16 14  1  0  0  0  0
 17 16  1  0  0  0  0
 18 17  1  0  0  0  0
 19 17  1  0  0  0  0
 20 21  2  0  0  0  0
 21 19  1  0  0  0  0
 22 23  1  0  0  0  0
 23 21  1  0  0  0  0
 24  3  1  0  0  0  0
 25 28  2  0  0  0  0
 26 29  1  0  0  0  0
 27 34  1  0  0  0  0
 28 30  1  0  0  0  0
 30 31  1  0  0  0  0
 30 26  1  0  0  0  0
 31 33  1  0  0  0  0
 32 28  1  0  0  0  0
 32 27  1  0  0  0  0
 33 29  1  0  0  0  0
 33 24  1  0  0  0  0
 34 26  1  0  0  0  0
 35 32  1  0  0  0  0
 36 35  1  0  0  0  0
 37 39  1  0  0  0  0
 37 38  1  0  0  0  0
 38 36  1  0  0  0  0
 39 38  1  0  0  0  0
 40 36  1  0  0  0  0
 41 40  1  0  0  0  0
M  END
>  <MODEL>
7

>  <REMARK>
 VINA RESULT:      -4.4      2.182      3.175
  Name = 
  12 active torsions:
  status: ('A' for Active; 'I' for Inactive)
    1  A    between atoms: C_2  and  C_16
    2  A    between atoms: C_4  and  C_41
    3  A    between atoms: O_11  and  C_28
    4  A    between atoms: O_11  and  C_40
    5  A    between atoms: C_12  and  O_29
    6  A    between atoms: C_13  and  C_40
    7  A    between atoms: C_14  and  C_33
    8  A    between atoms: C_21  and  C_33
    9  A    between atoms: O_25  and  C_32
   10  A    between atoms: O_25  and  C_33
   11  A    between atoms: C_28  and  C_41
   12  A    between atoms: O_29  and  C_34
                            x       y       z     vdW  Elec       q    Type
                         _______ _______ _______ _____ _____    ______ ____

>  <TORSDO>
F 12

$$$$
=
 OpenBabel11072413243D

 41 45  0  0  1  0  0  0  0  0999 V2000
  159.9460  207.2580  155.9600 C   0  0  0  0  0  2  0  0  0  0  0  0
  160.8980  207.2250  154.7790 C   0  0  2  0  0  3  0  0  0  0  0  0
  161.3440  206.8300  152.4700 C   0  0  1  0  0  0  0  0  0  0  0  0
  161.0210  209.4730  156.4250 C   0  0  0  0  0  0  0  0  0  0  0  0
  161.5710  209.5740  155.0130 C   0  0  1  0  0  3  0  0  0  0  0  0
  160.5200  209.0620  151.8370 O   0  0  0  0  0  1  0  0  0  0  0  0
  160.8280  208.5740  154.1280 C   0  0  1  0  0  3  0  0  0  0  0  0
  161.3570  208.3710  152.7170 C   0  0  1  0  0  3  0  0  0  0  0  0
  160.3430  208.3110  156.8540 O   0  0  0  0  0  0  0  0  0  0  0  0
  162.7770  206.2980  152.5500 C   0  0  0  0  0  1  0  0  0  0  0  0
  160.5810  206.2550  153.6650 C   0  0  0  0  0  2  0  0  0  0  0  0
  161.2650  210.3850  157.2610 O   0  0  0  0  0  0  0  0  0  0  0  0
  161.4490  210.9680  154.4810 C   0  0  0  0  0  3  0  0  0  0  0  0
  159.4080  212.4430  155.1680 C   0  0  0  0  0  3  0  0  0  0  0  0
  160.4320  211.7160  154.8190 C   0  0  0  0  0  0  0  0  0  0  0  0
  158.1680  211.7770  155.6500 C   0  0  0  0  0  2  0  0  0  0  0  0
  157.0710  212.8100  155.8570 C   0  0  2  0  0  3  0  0  0  0  0  0
  155.7180  212.1430  155.6880 C   0  0  0  0  0  1  0  0  0  0  0  0
  157.2170  213.8550  154.9010 O   0  0  0  0  0  0  0  0  0  0  0  0
  156.9860  213.3480  152.6560 O   0  0  0  0  0  0  0  0  0  0  0  0
  156.5080  213.8770  153.7000 C   0  0  0  0  0  0  0  0  0  0  0  0
  154.3790  213.8470  152.6490 O   0  0  0  0  0  1  0  0  0  0  0  0
  155.1170  214.4150  153.6920 C   0  0  0  0  0  2  0  0  0  0  0  0
  160.7090  206.3920  151.2740 O   0  0  0  0  0  0  0  0  0  0  0  0
  161.2470  201.3750  149.5890 O   0  0  0  0  0  0  0  0  0  0  0  0
  161.5450  204.5580  148.3810 C   0  0  1  0  0  3  0  0  0  0  0  0
  161.5530  203.2980  146.5370 C   0  0  0  0  0  2  0  0  0  0  0  0
  161.0380  202.2800  148.7990 C   0  0  0  0  0  0  0  0  0  0  0  0
  161.4860  205.9010  149.0520 C   0  0  0  0  0  2  0  0  0  0  0  0
  160.7180  203.6680  149.2480 C   0  0  1  0  0  3  0  0  0  0  0  0
  161.1330  204.0620  150.6500 C   0  0  0  0  0  2  0  0  0  0  0  0
  161.0790  202.0310  147.3070 C   0  0  1  0  0  3  0  0  0  0  0  0
  161.5550  205.5360  150.5370 C   0  0  2  0  0  3  0  0  0  0  0  0
  161.0450  204.5060  147.0730 O   0  0  0  0  0  0  0  0  0  0  0  0
  159.8210  201.6160  146.8470 O   0  0  0  0  0  0  0  0  0  0  0  0
  160.1040  200.6390  145.8790 C   0  0  2  0  0  3  0  0  0  0  0  0
  161.5960  198.7640  145.4740 O   0  0  0  0  0  0  0  0  0  0  0  0
  161.5300  200.0730  145.9880 C   0  0  2  0  0  3  0  0  0  0  0  0
  161.6030  198.8880  146.8760 C   0  0  0  0  0  2  0  0  0  0  0  0
  159.8450  201.1750  144.4740 C   0  0  0  0  0  2  0  0  0  0  0  0
  158.9500  202.2460  144.5270 O   0  0  0  0  0  1  0  0  0  0  0  0
  1  9  1  0  0  0  0
  2 11  1  6  0  0  0
  2  1  1  0  0  0  0
  3 10  1  1  0  0  0
  3  8  1  0  0  0  0
  3 11  1  0  0  0  0
  4  9  1  0  0  0  0
  4 12  2  0  0  0  0
  5 13  1  6  0  0  0
  5  4  1  0  0  0  0
  6  8  1  0  0  0  0
  7  2  1  0  0  0  0
  7  5  1  0  0  0  0
  8  7  1  0  0  0  0
 13 15  2  0  0  0  0
 14 16  1  0  0  0  0
 15 14  2  0  0  0  0
 16 17  1  0  0  0  0
 18 17  1  0  0  0  0
 19 17  1  0  0  0  0
 20 21  2  0  0  0  0
 21 19  1  0  0  0  0
 22 23  1  0  0  0  0
 23 21  1  0  0  0  0
 24  3  1  0  0  0  0
 26 29  1  0  0  0  0
 26 30  1  0  0  0  0
 27 34  1  0  0  0  0
 27 32  1  0  0  0  0
 28 30  1  0  0  0  0
 28 25  2  0  0  0  0
 29 33  1  0  0  0  0
 30 31  1  0  0  0  0
 32 28  1  0  0  0  0
 33 31  1  0  0  0  0
 33 24  1  0  0  0  0
 34 26  1  0  0  0  0
 35 32  1  0  0  0  0
 36 38  1  0  0  0  0
 36 35  1  0  0  0  0
 37 38  1  0  0  0  0
 37 39  1  0  0  0  0
 38 39  1  0  0  0  0
 40 41  1  0  0  0  0
 40 36  1  0  0  0  0
M  END
>  <MODEL>
8

>  <REMARK>
 VINA RESULT:      -4.4      2.820      4.436
  Name = 
  12 active torsions:
  status: ('A' for Active; 'I' for Inactive)
    1  A    between atoms: C_2  and  C_16
    2  A    between atoms: C_4  and  C_41
    3  A    between atoms: O_11  and  C_28
    4  A    between atoms: O_11  and  C_40
    5  A    between atoms: C_12  and  O_29
    6  A    between atoms: C_13  and  C_40
    7  A    between atoms: C_14  and  C_33
    8  A    between atoms: C_21  and  C_33
    9  A    between atoms: O_25  and  C_32
   10  A    between atoms: O_25  and  C_33
   11  A    between atoms: C_28  and  C_41
   12  A    between atoms: O_29  and  C_34
                            x       y       z     vdW  Elec       q    Type
                         _______ _______ _______ _____ _____    ______ ____

>  <TORSDO>
F 12

$$$$
=
 OpenBabel11072413243D

 41 45  0  0  1  0  0  0  0  0999 V2000
  159.9320  214.2420  150.1780 C   0  0  0  0  0  2  0  0  0  0  0  0
  160.2090  213.3100  149.0120 C   0  0  2  0  0  3  0  0  0  0  0  0
  161.2640  212.8350  146.9280 C   0  0  1  0  0  0  0  0  0  0  0  0
  160.3640  212.2010  151.5670 C   0  0  0  0  0  0  0  0  0  0  0  0
  161.0680  211.4930  150.4220 C   0  0  1  0  0  3  0  0  0  0  0  0
  163.3650  212.1890  148.0360 O   0  0  0  0  0  1  0  0  0  0  0  0
  161.4400  212.5300  149.3630 C   0  0  1  0  0  3  0  0  0  0  0  0
  161.9790  212.0080  148.0410 C   0  0  1  0  0  3  0  0  0  0  0  0
  159.7560  213.4610  151.3720 O   0  0  0  0  0  0  0  0  0  0  0  0
  160.1940  211.9620  146.2660 C   0  0  0  0  0  1  0  0  0  0  0  0
  160.5350  213.9480  147.6820 C   0  0  0  0  0  2  0  0  0  0  0  0
  160.2210  211.6160  152.6740 O   0  0  0  0  0  0  0  0  0  0  0  0
  162.2730  210.7480  150.9040 C   0  0  0  0  0  3  0  0  0  0  0  0
  162.1540  208.1620  151.2350 C   0  0  0  0  0  3  0  0  0  0  0  0
  162.2250  209.4530  151.0720 C   0  0  0  0  0  0  0  0  0  0  0  0
  160.8250  207.5220  151.4270 C   0  0  0  0  0  2  0  0  0  0  0  0
  160.9920  206.1740  152.1110 C   0  0  2  0  0  3  0  0  0  0  0  0
  161.5200  206.3900  153.5180 C   0  0  0  0  0  1  0  0  0  0  0  0
  161.9100  205.3760  151.3700 O   0  0  0  0  0  0  0  0  0  0  0  0
  161.8830  203.0770  151.6230 O   0  0  0  0  0  0  0  0  0  0  0  0
  161.5970  204.0910  150.9250 C   0  0  0  0  0  0  0  0  0  0  0  0
  161.6140  204.1130  148.5510 O   0  0  0  0  0  1  0  0  0  0  0  0
  160.8010  203.9350  149.6740 C   0  0  0  0  0  2  0  0  0  0  0  0
  162.1070  213.4280  145.9470 O   0  0  0  0  0  0  0  0  0  0  0  0
  162.6980  214.2210  140.7200 O   0  0  0  0  0  0  0  0  0  0  0  0
  160.6950  212.4660  142.8630 C   0  0  1  0  0  3  0  0  0  0  0  0
  160.2420  211.5640  140.8710 C   0  0  0  0  0  2  0  0  0  0  0  0
  162.1400  213.2210  141.1400 C   0  0  0  0  0  0  0  0  0  0  0  0
  160.5790  212.4640  144.3610 C   0  0  0  0  0  2  0  0  0  0  0  0
  162.1030  212.8860  142.5960 C   0  0  1  0  0  3  0  0  0  0  0  0
  162.3220  214.0160  143.5790 C   0  0  0  0  0  2  0  0  0  0  0  0
  161.4620  212.2560  140.1940 C   0  0  1  0  0  3  0  0  0  0  0  0
  161.3920  213.6980  144.7610 C   0  0  2  0  0  3  0  0  0  0  0  0
  160.4630  211.2370  142.2300 O   0  0  0  0  0  0  0  0  0  0  0  0
  162.3790  211.2990  139.7350 O   0  0  0  0  0  0  0  0  0  0  0  0
  162.0480  211.1120  138.3830 C   0  0  2  0  0  3  0  0  0  0  0  0
  160.8120  209.3580  137.2420 O   0  0  0  0  0  0  0  0  0  0  0  0
  161.9830  209.6300  137.9760 C   0  0  2  0  0  3  0  0  0  0  0  0
  160.8270  208.9270  138.5820 C   0  0  0  0  0  2  0  0  0  0  0  0
  163.0100  211.8760  137.4770 C   0  0  0  0  0  2  0  0  0  0  0  0
  162.4030  213.0450  137.0110 O   0  0  0  0  0  1  0  0  0  0  0  0
  1  9  1  0  0  0  0
  2 11  1  6  0  0  0
  2  7  1  0  0  0  0
  2  1  1  0  0  0  0
  3 10  1  6  0  0  0
  3 11  1  0  0  0  0
  3  8  1  0  0  0  0
  4 12  2  0  0  0  0
  5 13  1  1  0  0  0
  5  4  1  0  0  0  0
  6  8  1  0  0  0  0
  7  5  1  0  0  0  0
  8  7  1  0  0  0  0
  9  4  1  0  0  0  0
 13 15  2  0  0  0  0
 14 16  1  0  0  0  0
 15 14  2  0  0  0  0
 16 17  1  0  0  0  0
 17 18  1  0  0  0  0
 19 17  1  0  0  0  0
 21 19  1  0  0  0  0
 21 20  2  0  0  0  0
 22 23  1  0  0  0  0
 23 21  1  0  0  0  0
 24  3  1  0  0  0  0
 25 28  2  0  0  0  0
 26 29  1  0  0  0  0
 27 34  1  0  0  0  0
 28 30  1  0  0  0  0
 29 33  1  0  0  0  0
 30 26  1  0  0  0  0
 30 31  1  0  0  0  0
 31 33  1  0  0  0  0
 32 27  1  0  0  0  0
 32 28  1  0  0  0  0
 33 24  1  0  0  0  0
 34 26  1  0  0  0  0
 35 32  1  0  0  0  0
 36 35  1  0  0  0  0
 37 38  1  0  0  0  0
 37 39  1  0  0  0  0
 38 36  1  0  0  0  0
 38 39  1  0  0  0  0
 40 36  1  0  0  0  0
 41 40  1  0  0  0  0
M  END
>  <MODEL>
9

>  <REMARK>
 VINA RESULT:      -4.3      5.181      9.529
  Name = 
  12 active torsions:
  status: ('A' for Active; 'I' for Inactive)
    1  A    between atoms: C_2  and  C_16
    2  A    between atoms: C_4  and  C_41
    3  A    between atoms: O_11  and  C_28
    4  A    between atoms: O_11  and  C_40
    5  A    between atoms: C_12  and  O_29
    6  A    between atoms: C_13  and  C_40
    7  A    between atoms: C_14  and  C_33
    8  A    between atoms: C_21  and  C_33
    9  A    between atoms: O_25  and  C_32
   10  A    between atoms: O_25  and  C_33
   11  A    between atoms: C_28  and  C_41
   12  A    between atoms: O_29  and  C_34
                            x       y       z     vdW  Elec       q    Type
                         _______ _______ _______ _____ _____    ______ ____

>  <TORSDO>
F 12

$$$$
