=
 OpenBabel11072412323D

 56 61  0  0  1  0  0  0  0  0999 V2000
  162.1340  206.7110  153.2840 C   0  0  0  0  0  2  0  0  0  0  0  0
  161.0000  206.6980  150.9830 C   0  0  0  0  0  2  0  0  0  0  0  0
  161.5410  208.6980  149.4690 C   0  0  0  0  0  0  0  0  0  0  0  0
  160.9480  207.4940  153.6100 N   0  0  0  0  0  2  0  0  0  0  0  0
  161.3390  208.1400  150.7500 C   0  0  0  0  0  0  0  0  0  0  0  0
  161.6330  210.6090  151.0840 S   0  0  0  0  0  0  0  0  0  0  0  0
  161.9770  206.0050  151.9350 C   0  0  0  0  0  2  0  0  0  0  0  0
  161.2170  208.8850  153.2550 C   0  0  0  0  0  2  0  0  0  0  0  0
  161.3520  209.1010  151.7700 C   0  0  0  0  0  0  0  0  0  0  0  0
  161.7120  210.0740  149.4920 C   0  0  0  0  0  0  0  0  0  0  0  0
  161.9470  210.9330  148.2870 C   0  0  1  0  0  3  0  0  0  0  0  0
  160.6530  211.6010  147.8520 C   0  0  1  0  0  3  0  0  0  0  0  0
  160.6640  212.9500  148.1430 C   0  0  0  0  0  2  0  0  0  0  0  0
  160.9500  212.5450  146.7350 N   0  0  0  0  0  0  0  0  0  0  0  0
  162.8660  213.6760  143.7520 C   0  0  0  0  0  0  0  0  0  0  0  0
  160.3870  212.5290  144.3590 C   0  0  0  0  0  3  0  0  0  0  0  0
  162.5230  213.3940  145.0750 C   0  0  0  0  0  3  0  0  0  0  0  0
  164.0950  214.2700  143.5030 O   0  0  0  0  0  1  0  0  0  0  0  0
  161.9640  213.3650  142.7070 C   0  0  0  0  0  0  0  0  0  0  0  0
  161.2890  212.8210  145.3810 C   0  0  0  0  0  0  0  0  0  0  0  0
  160.7170  212.7970  143.0210 C   0  0  0  0  0  0  0  0  0  0  0  0
  159.8210  212.5010  141.9860 O   0  0  0  0  0  0  0  0  0  0  0  0
  158.6620  213.2820  141.7220 C   0  0  0  0  0  1  0  0  0  0  0  0
  162.2640  213.6230  141.3240 N   0  0  0  0  0  2  0  0  0  0  0  0
  162.4440  212.6200  140.2840 C   0  0  0  0  0  3  0  0  0  0  0  0
  163.8130  212.7890  139.6570 C   0  0  0  0  0  1  0  0  0  0  0  0
  161.3840  212.8000  139.2130 C   0  0  0  0  0  1  0  0  0  0  0  0
  163.9960  211.5890  147.7540 C   0  0  0  0  0  1  0  0  0  0  0  0
  162.9120  211.9050  148.5720 O   0  0  0  0  0  0  0  0  0  0  0  0
  161.5640  207.9840  148.2660 O   0  0  0  0  0  0  0  0  0  0  0  0
  162.5700  207.0330  147.9440 C   0  0  0  0  0  2  0  0  0  0  0  0
  161.4110  206.9960  145.7490 O   0  0  0  0  0  0  0  0  0  0  0  0
  160.2800  203.5130  146.0290 C   0  0  0  0  0  2  0  0  0  0  0  0
  160.8200  202.1840  148.1970 C   0  0  2  0  0  0  0  0  0  0  0  0
  162.1480  205.7070  143.8450 C   0  0  1  0  0  3  0  0  0  0  0  0
  161.5380  204.5700  149.0250 C   0  0  0  0  0  2  0  0  0  0  0  0
  162.2990  206.9950  144.6570 C   0  0  0  0  0  2  0  0  0  0  0  0
  159.4630  202.5870  148.7810 C   0  0  0  0  0  1  0  0  0  0  0  0
  161.4210  204.4270  145.5750 C   0  0  1  0  0  3  0  0  0  0  0  0
  161.9320  201.7410  146.0580 O   0  0  0  0  0  1  0  0  0  0  0  0
  161.0570  204.9670  144.3240 O   0  0  0  0  0  0  0  0  0  0  0  0
  163.6030  205.0920  146.7400 C   0  0  0  0  0  1  0  0  0  0  0  0
  161.9360  203.1260  148.6900 C   0  0  0  0  0  2  0  0  0  0  0  0
  160.7470  202.1930  146.6510 C   0  0  2  0  0  3  0  0  0  0  0  0
  161.9080  205.7540  146.8100 P   0  0  0  0  0  0  0  0  0  0  0  0
  160.8090  205.1970  147.9980 O   0  0  0  0  0  0  0  0  0  0  0  0
  161.7600  206.3110  141.2750 C   0  0  0  0  0  0  0  0  0  0  0  0
  161.9360  206.0410  142.4370 C   0  0  0  0  0  0  0  0  0  0  0  0
  161.5430  206.6350  139.8660 C   0  0  0  0  0  3  0  0  0  0  0  0
  162.6760  206.0660  139.0370 C   0  0  0  0  0  1  0  0  0  0  0  0
  161.4990  208.1380  139.6950 C   0  0  0  0  0  1  0  0  0  0  0  0
  160.7270  199.7640  147.8410 O   0  0  0  0  0  1  0  0  0  0  0  0
  161.1410  200.7630  148.7280 C   0  0  2  0  0  3  0  0  0  0  0  0
  161.3750  200.5410  151.0960 O   0  0  0  0  0  1  0  0  0  0  0  0
  160.6060  200.4820  150.1030 C   0  0  0  0  0  0  0  0  0  0  0  0
  159.2670  200.1620  150.2870 O   0  0  0  0  0  0  0  0  0  0  0  0
  1  4  1  0  0  0  0
  2  7  1  0  0  0  0
  3 10  2  0  0  0  0
  3  5  1  0  0  0  0
  5  2  1  0  0  0  0
  5  9  2  0  0  0  0
  6  9  1  0  0  0  0
  7  1  1  0  0  0  0
  8  4  1  0  0  0  0
  9  8  1  0  0  0  0
 10  6  1  0  0  0  0
 11 29  1  1  0  0  0
 11 10  1  0  0  0  0
 12 13  1  0  0  0  0
 12 11  1  1  0  0  0
 14 12  1  0  0  0  0
 14 13  1  0  0  0  0
 15 17  1  0  0  0  0
 16 20  1  0  0  0  0
 17 20  2  0  0  0  0
 18 15  1  0  0  0  0
 19 21  1  0  0  0  0
 19 15  2  0  0  0  0
 20 14  1  0  0  0  0
 21 16  2  0  0  0  0
 22 21  1  0  0  0  0
 23 22  1  0  0  0  0
 24 19  1  0  0  0  0
 25 24  1  0  0  0  0
 26 25  1  0  0  0  0
 27 25  1  0  0  0  0
 28 29  1  0  0  0  0
 30  3  1  0  0  0  0
 31 30  1  0  0  0  0
 32 45  1  0  0  0  0
 33 44  1  0  0  0  0
 34 43  1  0  0  0  0
 34 53  1  0  0  0  0
 34 38  1  1  0  0  0
 35 48  1  6  0  0  0
 35 41  1  0  0  0  0
 35 37  1  0  0  0  0
 37 32  1  0  0  0  0
 39 33  1  1  0  0  0
 39 45  1  0  0  0  0
 41 39  1  0  0  0  0
 42 45  1  0  0  0  0
 43 36  1  0  0  0  0
 44 40  1  6  0  0  0
 44 34  1  0  0  0  0
 45 31  1  0  0  0  0
 45 46  1  0  0  0  0
 46 36  1  0  0  0  0
 47 48  3  0  0  0  0
 49 47  1  0  0  0  0
 50 49  1  0  0  0  0
 51 49  1  0  0  0  0
 53 52  1  6  0  0  0
 53 55  1  0  0  0  0
 55 56  2  0  0  0  0
 55 54  1  0  0  0  0
M  END
>  <MODEL>
1

>  <REMARK>
 VINA RESULT:       2.1      0.000      0.000
  Name = 
  14 active torsions:
  status: ('A' for Active; 'I' for Inactive)
    1  A    between atoms: C_1  and  C_18
    2  A    between atoms: C_2  and  O_33
    3  A    between atoms: C_2  and  P_47
    4  A    between atoms: C_5  and  O_33
    5  A    between atoms: C_6  and  N_7
    6  A    between atoms: N_7  and  C_37
    7  A    between atoms: C_12  and  C_23
    8  A    between atoms: C_13  and  C_20
    9  A    between atoms: C_15  and  C_54
   10  A    between atoms: C_18  and  C_51
   11  A    between atoms: C_18  and  O_52
   12  A    between atoms: C_23  and  C_43
   13  A    between atoms: N_34  and  C_40
   14  A    between atoms: O_35  and  C_41
                            x       y       z     vdW  Elec       q    Type
                         _______ _______ _______ _____ _____    ______ ____

>  <TORSDO>
F 14

$$$$
=
 OpenBabel11072412323D

 56 61  0  0  1  0  0  0  0  0999 V2000
  160.6910  203.3100  152.4370 C   0  0  0  0  0  2  0  0  0  0  0  0
  160.9070  205.5260  153.7130 C   0  0  0  0  0  2  0  0  0  0  0  0
  161.4890  207.5750  152.2820 C   0  0  0  0  0  0  0  0  0  0  0  0
  162.1270  203.2890  152.6890 N   0  0  0  0  0  2  0  0  0  0  0  0
  161.5750  206.1910  152.5460 C   0  0  0  0  0  0  0  0  0  0  0  0
  163.1020  206.6460  150.6080 S   0  0  0  0  0  0  0  0  0  0  0  0
  159.9950  204.3710  153.2930 C   0  0  0  0  0  2  0  0  0  0  0  0
  162.7790  204.0560  151.6330 C   0  0  0  0  0  2  0  0  0  0  0  0
  162.4600  205.5280  151.6870 C   0  0  0  0  0  0  0  0  0  0  0  0
  162.2940  207.9830  151.2290 C   0  0  0  0  0  0  0  0  0  0  0  0
  162.4050  209.3890  150.7230 C   0  0  1  0  0  3  0  0  0  0  0  0
  161.4790  209.5990  149.5350 C   0  0  1  0  0  3  0  0  0  0  0  0
  162.1960  209.8020  148.3740 C   0  0  0  0  0  2  0  0  0  0  0  0
  161.6230  208.4430  148.6030 N   0  0  0  0  0  0  0  0  0  0  0  0
  160.5010  204.9000  148.7830 C   0  0  0  0  0  0  0  0  0  0  0  0
  161.8920  206.5880  147.0390 C   0  0  0  0  0  3  0  0  0  0  0  0
  160.7150  206.2380  149.1160 C   0  0  0  0  0  3  0  0  0  0  0  0
  159.8290  204.0940  149.6920 O   0  0  0  0  0  1  0  0  0  0  0  0
  160.9730  204.3940  147.5490 C   0  0  0  0  0  0  0  0  0  0  0  0
  161.4060  207.0820  148.2480 C   0  0  0  0  0  0  0  0  0  0  0  0
  161.6790  205.2470  146.6810 C   0  0  0  0  0  0  0  0  0  0  0  0
  162.1560  204.7410  145.4650 O   0  0  0  0  0  0  0  0  0  0  0  0
  161.4070  204.8030  144.2590 C   0  0  0  0  0  1  0  0  0  0  0  0
  160.7750  203.0280  147.1450 N   0  0  0  0  0  2  0  0  0  0  0  0
  161.5760  201.8860  147.5630 C   0  0  0  0  0  3  0  0  0  0  0  0
  161.2240  200.6870  146.7050 C   0  0  0  0  0  1  0  0  0  0  0  0
  161.2790  201.5590  149.0150 C   0  0  0  0  0  1  0  0  0  0  0  0
  160.9560  210.9700  151.2840 C   0  0  0  0  0  1  0  0  0  0  0  0
  162.0850  210.2920  151.7420 O   0  0  0  0  0  0  0  0  0  0  0  0
  160.6970  208.4900  152.9860 O   0  0  0  0  0  0  0  0  0  0  0  0
  160.3630  208.3370  154.3580 C   0  0  0  0  0  2  0  0  0  0  0  0
  161.9850  209.2420  156.0060 O   0  0  0  0  0  0  0  0  0  0  0  0
  159.8860  212.0840  157.0090 C   0  0  0  0  0  2  0  0  0  0  0  0
  157.5220  212.3380  155.9580 C   0  0  2  0  0  0  0  0  0  0  0  0
  163.1820  211.3210  155.7330 C   0  0  1  0  0  3  0  0  0  0  0  0
  158.0710  209.9240  155.0830 C   0  0  0  0  0  2  0  0  0  0  0  0
  163.1130  209.8280  155.4040 C   0  0  0  0  0  2  0  0  0  0  0  0
  156.9160  211.5770  157.1400 C   0  0  0  0  0  1  0  0  0  0  0  0
  160.9450  211.5970  156.0160 C   0  0  1  0  0  3  0  0  0  0  0  0
  159.3940  213.8120  155.3840 O   0  0  0  0  0  1  0  0  0  0  0  0
  162.1930  211.6470  156.6730 O   0  0  0  0  0  0  0  0  0  0  0  0
  160.7210  210.7080  153.6250 C   0  0  0  0  0  1  0  0  0  0  0  0
  157.7750  211.3950  154.7640 C   0  0  0  0  0  2  0  0  0  0  0  0
  158.8400  213.0200  156.3970 C   0  0  2  0  0  3  0  0  0  0  0  0
  160.6030  209.9140  155.2610 P   0  0  0  0  0  0  0  0  0  0  0  0
  159.0880  209.7570  156.0410 O   0  0  0  0  0  0  0  0  0  0  0  0
  165.5920  211.9020  156.7190 C   0  0  0  0  0  0  0  0  0  0  0  0
  164.5020  211.6390  156.2770 C   0  0  0  0  0  0  0  0  0  0  0  0
  166.9160  212.2220  157.2500 C   0  0  0  0  0  3  0  0  0  0  0  0
  167.1750  213.7070  157.1030 C   0  0  0  0  0  1  0  0  0  0  0  0
  167.9670  211.4490  156.4830 C   0  0  0  0  0  1  0  0  0  0  0  0
  155.2610  213.2470  156.1850 O   0  0  0  0  0  1  0  0  0  0  0  0
  156.4760  213.3900  155.5080 C   0  0  2  0  0  3  0  0  0  0  0  0
  157.2070  213.5790  153.2400 O   0  0  0  0  0  0  0  0  0  0  0  0
  156.2370  213.4280  154.0260 C   0  0  0  0  0  0  0  0  0  0  0  0
  154.9530  213.2920  153.5150 O   0  0  0  0  0  1  0  0  0  0  0  0
  1  4  1  0  0  0  0
  1  7  1  0  0  0  0
  3  5  1  0  0  0  0
  3 30  1  0  0  0  0
  5  2  1  0  0  0  0
  6 10  1  0  0  0  0
  6  9  1  0  0  0  0
  7  2  1  0  0  0  0
  8  9  1  0  0  0  0
  8  4  1  0  0  0  0
  9  5  2  0  0  0  0
 10  3  2  0  0  0  0
 11 10  1  0  0  0  0
 11 29  1  1  0  0  0
 12 11  1  1  0  0  0
 13 14  1  0  0  0  0
 13 12  1  0  0  0  0
 14 12  1  0  0  0  0
 15 17  1  0  0  0  0
 15 18  1  0  0  0  0
 16 20  1  0  0  0  0
 19 15  2  0  0  0  0
 20 14  1  0  0  0  0
 20 17  2  0  0  0  0
 21 16  2  0  0  0  0
 21 19  1  0  0  0  0
 22 21  1  0  0  0  0
 23 22  1  0  0  0  0
 24 19  1  0  0  0  0
 24 25  1  0  0  0  0
 25 27  1  0  0  0  0
 26 25  1  0  0  0  0
 28 29  1  0  0  0  0
 30 31  1  0  0  0  0
 31 45  1  0  0  0  0
 34 44  1  0  0  0  0
 34 38  1  1  0  0  0
 35 48  1  1  0  0  0
 35 41  1  0  0  0  0
 36 46  1  0  0  0  0
 37 35  1  0  0  0  0
 37 32  1  0  0  0  0
 39 41  1  0  0  0  0
 39 33  1  1  0  0  0
 42 45  1  0  0  0  0
 43 36  1  0  0  0  0
 43 34  1  0  0  0  0
 44 40  1  6  0  0  0
 44 33  1  0  0  0  0
 45 32  1  0  0  0  0
 45 39  1  0  0  0  0
 45 46  1  0  0  0  0
 47 49  1  0  0  0  0
 48 47  3  0  0  0  0
 50 49  1  0  0  0  0
 51 49  1  0  0  0  0
 53 34  1  0  0  0  0
 53 52  1  1  0  0  0
 54 55  2  0  0  0  0
 55 53  1  0  0  0  0
 56 55  1  0  0  0  0
M  END
>  <MODEL>
2

>  <REMARK>
 VINA RESULT:       3.3      5.012     10.965
  Name = 
  14 active torsions:
  status: ('A' for Active; 'I' for Inactive)
    1  A    between atoms: C_1  and  C_18
    2  A    between atoms: C_2  and  O_33
    3  A    between atoms: C_2  and  P_47
    4  A    between atoms: C_5  and  O_33
    5  A    between atoms: C_6  and  N_7
    6  A    between atoms: N_7  and  C_37
    7  A    between atoms: C_12  and  C_23
    8  A    between atoms: C_13  and  C_20
    9  A    between atoms: C_15  and  C_54
   10  A    between atoms: C_18  and  C_51
   11  A    between atoms: C_18  and  O_52
   12  A    between atoms: C_23  and  C_43
   13  A    between atoms: N_34  and  C_40
   14  A    between atoms: O_35  and  C_41
                            x       y       z     vdW  Elec       q    Type
                         _______ _______ _______ _____ _____    ______ ____

>  <TORSDO>
F 14

$$$$
=
 OpenBabel11072412323D

 56 61  0  0  1  0  0  0  0  0999 V2000
  161.9210  205.0510  153.2340 C   0  0  0  0  0  2  0  0  0  0  0  0
  160.6460  205.3700  151.0300 C   0  0  0  0  0  2  0  0  0  0  0  0
  161.2250  207.4950  149.7120 C   0  0  0  0  0  0  0  0  0  0  0  0
  160.8130  205.8620  153.7260 N   0  0  0  0  0  2  0  0  0  0  0  0
  161.0670  206.8060  150.9350 C   0  0  0  0  0  0  0  0  0  0  0  0
  161.5490  209.1990  151.5170 S   0  0  0  0  0  0  0  0  0  0  0  0
  161.6310  204.5150  151.8290 C   0  0  0  0  0  2  0  0  0  0  0  0
  161.1540  207.2650  153.5090 C   0  0  0  0  0  2  0  0  0  0  0  0
  161.2090  207.6410  152.0500 C   0  0  0  0  0  0  0  0  0  0  0  0
  161.4910  208.8460  149.8740 C   0  0  0  0  0  0  0  0  0  0  0  0
  161.7080  209.8220  148.7580 C   0  0  1  0  0  3  0  0  0  0  0  0
  161.2980  211.2200  149.1900 C   0  0  1  0  0  3  0  0  0  0  0  0
  162.3580  212.0990  149.1090 C   0  0  0  0  0  2  0  0  0  0  0  0
  161.3540  212.1250  148.0050 N   0  0  0  0  0  0  0  0  0  0  0  0
  158.9910  212.8950  145.2360 C   0  0  0  0  0  0  0  0  0  0  0  0
  161.7020  213.2190  145.8490 C   0  0  0  0  0  3  0  0  0  0  0  0
  159.4990  212.4390  146.4530 C   0  0  0  0  0  3  0  0  0  0  0  0
  157.6450  212.6880  144.9650 O   0  0  0  0  0  1  0  0  0  0  0  0
  159.8450  213.5410  144.3110 C   0  0  0  0  0  0  0  0  0  0  0  0
  160.8490  212.6010  146.7620 C   0  0  0  0  0  0  0  0  0  0  0  0
  161.2080  213.6920  144.6230 C   0  0  0  0  0  0  0  0  0  0  0  0
  162.0540  214.3210  143.7010 O   0  0  0  0  0  0  0  0  0  0  0  0
  163.2810  213.7500  143.2670 C   0  0  0  0  0  1  0  0  0  0  0  0
  159.3790  214.0410  143.0450 N   0  0  0  0  0  2  0  0  0  0  0  0
  158.9500  213.2360  141.9110 C   0  0  0  0  0  3  0  0  0  0  0  0
  160.1690  212.7180  141.1750 C   0  0  0  0  0  1  0  0  0  0  0  0
  158.1240  214.0870  140.9640 C   0  0  0  0  0  1  0  0  0  0  0  0
  163.3230  208.4970  148.0160 C   0  0  0  0  0  1  0  0  0  0  0  0
  163.0520  209.8170  148.3720 O   0  0  0  0  0  0  0  0  0  0  0  0
  161.1250  206.9230  148.4380 O   0  0  0  0  0  0  0  0  0  0  0  0
  162.2220  206.3210  147.7660 C   0  0  0  0  0  2  0  0  0  0  0  0
  161.1440  206.6160  145.5490 O   0  0  0  0  0  0  0  0  0  0  0  0
  160.0860  203.1130  145.2270 C   0  0  0  0  0  2  0  0  0  0  0  0
  160.5810  201.4640  147.1750 C   0  0  2  0  0  0  0  0  0  0  0  0
  161.9780  205.6610  143.4940 C   0  0  1  0  0  3  0  0  0  0  0  0
  161.2120  203.6990  148.4000 C   0  0  0  0  0  2  0  0  0  0  0  0
  162.0690  206.8060  144.5070 C   0  0  0  0  0  2  0  0  0  0  0  0
  159.1950  201.7440  147.7620 C   0  0  0  0  0  1  0  0  0  0  0  0
  161.2210  204.1090  144.9690 C   0  0  1  0  0  3  0  0  0  0  0  0
  161.7780  201.3890  145.0370 O   0  0  0  0  0  1  0  0  0  0  0  0
  160.8880  204.8350  143.8070 O   0  0  0  0  0  0  0  0  0  0  0  0
  163.3440  204.6170  146.3090 C   0  0  0  0  0  1  0  0  0  0  0  0
  161.6560  202.3350  147.8540 C   0  0  0  0  0  2  0  0  0  0  0  0
  160.5620  201.7200  145.6480 C   0  0  2  0  0  3  0  0  0  0  0  0
  161.6320  205.2290  146.4170 P   0  0  0  0  0  0  0  0  0  0  0  0
  160.5050  204.4700  147.4580 O   0  0  0  0  0  0  0  0  0  0  0  0
  161.6650  206.6710  141.0450 C   0  0  0  0  0  0  0  0  0  0  0  0
  161.8090  206.2130  142.1500 C   0  0  0  0  0  0  0  0  0  0  0  0
  161.4870  207.2300  139.7050 C   0  0  0  0  0  3  0  0  0  0  0  0
  162.4770  206.5890  138.7540 C   0  0  0  0  0  1  0  0  0  0  0  0
  161.7240  208.7240  139.7470 C   0  0  0  0  0  1  0  0  0  0  0  0
  161.9600  199.8610  148.4070 O   0  0  0  0  0  1  0  0  0  0  0  0
  160.9160  199.9830  147.4840 C   0  0  2  0  0  3  0  0  0  0  0  0
  162.3180  198.5700  146.1590 O   0  0  0  0  0  1  0  0  0  0  0  0
  161.2060  199.1480  146.2690 C   0  0  0  0  0  0  0  0  0  0  0  0
  160.2540  199.0040  145.2690 O   0  0  0  0  0  0  0  0  0  0  0  0
  1  4  1  0  0  0  0
  2  7  1  0  0  0  0
  3 10  2  0  0  0  0
  3  5  1  0  0  0  0
  5  2  1  0  0  0  0
  5  9  2  0  0  0  0
  6  9  1  0  0  0  0
  7  1  1  0  0  0  0
  8  4  1  0  0  0  0
  9  8  1  0  0  0  0
 10  6  1  0  0  0  0
 11 29  1  1  0  0  0
 11 10  1  0  0  0  0
 12 11  1  6  0  0  0
 13 12  1  0  0  0  0
 14 13  1  0  0  0  0
 14 12  1  0  0  0  0
 15 17  1  0  0  0  0
 16 20  1  0  0  0  0
 17 20  2  0  0  0  0
 18 15  1  0  0  0  0
 19 21  1  0  0  0  0
 19 15  2  0  0  0  0
 20 14  1  0  0  0  0
 21 16  2  0  0  0  0
 22 21  1  0  0  0  0
 23 22  1  0  0  0  0
 24 19  1  0  0  0  0
 25 24  1  0  0  0  0
 26 25  1  0  0  0  0
 27 25  1  0  0  0  0
 28 29  1  0  0  0  0
 30  3  1  0  0  0  0
 31 30  1  0  0  0  0
 32 45  1  0  0  0  0
 33 44  1  0  0  0  0
 34 53  1  0  0  0  0
 34 38  1  1  0  0  0
 34 43  1  0  0  0  0
 35 48  1  6  0  0  0
 35 41  1  0  0  0  0
 35 37  1  0  0  0  0
 37 32  1  0  0  0  0
 39 33  1  1  0  0  0
 39 45  1  0  0  0  0
 41 39  1  0  0  0  0
 42 45  1  0  0  0  0
 43 36  1  0  0  0  0
 44 40  1  1  0  0  0
 44 34  1  0  0  0  0
 45 46  1  0  0  0  0
 45 31  1  0  0  0  0
 46 36  1  0  0  0  0
 47 48  3  0  0  0  0
 49 51  1  0  0  0  0
 49 47  1  0  0  0  0
 50 49  1  0  0  0  0
 53 52  1  1  0  0  0
 54 55  1  0  0  0  0
 55 53  1  0  0  0  0
 56 55  2  0  0  0  0
M  END
>  <MODEL>
3

>  <REMARK>
 VINA RESULT:       3.4      1.571      2.415
  Name = 
  14 active torsions:
  status: ('A' for Active; 'I' for Inactive)
    1  A    between atoms: C_1  and  C_18
    2  A    between atoms: C_2  and  O_33
    3  A    between atoms: C_2  and  P_47
    4  A    between atoms: C_5  and  O_33
    5  A    between atoms: C_6  and  N_7
    6  A    between atoms: N_7  and  C_37
    7  A    between atoms: C_12  and  C_23
    8  A    between atoms: C_13  and  C_20
    9  A    between atoms: C_15  and  C_54
   10  A    between atoms: C_18  and  C_51
   11  A    between atoms: C_18  and  O_52
   12  A    between atoms: C_23  and  C_43
   13  A    between atoms: N_34  and  C_40
   14  A    between atoms: O_35  and  C_41
                            x       y       z     vdW  Elec       q    Type
                         _______ _______ _______ _____ _____    ______ ____

>  <TORSDO>
F 14

$$$$
=
 OpenBabel11072412323D

 56 61  0  0  1  0  0  0  0  0999 V2000
  162.0140  205.7080  153.4710 C   0  0  0  0  0  2  0  0  0  0  0  0
  160.7780  205.8310  151.2260 C   0  0  0  0  0  2  0  0  0  0  0  0
  161.2690  207.9080  149.8020 C   0  0  0  0  0  0  0  0  0  0  0  0
  160.8520  206.4810  153.8930 N   0  0  0  0  0  2  0  0  0  0  0  0
  161.1200  207.2810  151.0590 C   0  0  0  0  0  0  0  0  0  0  0  0
  161.4530  209.7260  151.5140 S   0  0  0  0  0  0  0  0  0  0  0  0
  161.7900  205.0790  152.0940 C   0  0  0  0  0  2  0  0  0  0  0  0
  161.1180  207.8870  153.6030 C   0  0  0  0  0  2  0  0  0  0  0  0
  161.1880  208.1840  152.1280 C   0  0  0  0  0  0  0  0  0  0  0  0
  161.4550  209.2800  149.8930 C   0  0  0  0  0  0  0  0  0  0  0  0
  161.6440  210.2020  148.7280 C   0  0  1  0  0  3  0  0  0  0  0  0
  162.1890  211.5420  149.1960 C   0  0  1  0  0  3  0  0  0  0  0  0
  161.8110  212.5600  148.3450 C   0  0  0  0  0  2  0  0  0  0  0  0
  161.0470  212.4050  149.6170 N   0  0  0  0  0  0  0  0  0  0  0  0
  157.7340  213.4980  150.9120 C   0  0  0  0  0  0  0  0  0  0  0  0
  160.2410  212.7410  151.8970 C   0  0  0  0  0  3  0  0  0  0  0  0
  158.7590  213.1410  150.0350 C   0  0  0  0  0  3  0  0  0  0  0  0
  156.5160  213.8930  150.3760 O   0  0  0  0  0  1  0  0  0  0  0  0
  157.9540  213.4620  152.3090 C   0  0  0  0  0  0  0  0  0  0  0  0
  160.0090  212.7610  150.5230 C   0  0  0  0  0  0  0  0  0  0  0  0
  159.2200  213.0890  152.7960 C   0  0  0  0  0  0  0  0  0  0  0  0
  159.4400  213.0650  154.1790 O   0  0  0  0  0  0  0  0  0  0  0  0
  160.1870  212.0410  154.8230 C   0  0  0  0  0  1  0  0  0  0  0  0
  156.9360  213.8100  153.2630 N   0  0  0  0  0  2  0  0  0  0  0  0
  156.1470  212.8760  154.0540 C   0  0  0  0  0  3  0  0  0  0  0  0
  156.2290  213.2660  155.5160 C   0  0  0  0  0  1  0  0  0  0  0  0
  156.6970  211.4720  153.8850 C   0  0  0  0  0  1  0  0  0  0  0  0
  163.6740  210.4100  147.8610 C   0  0  0  0  0  1  0  0  0  0  0  0
  162.5200  209.6300  147.8000 O   0  0  0  0  0  0  0  0  0  0  0  0
  161.2320  207.2620  148.5610 O   0  0  0  0  0  0  0  0  0  0  0  0
  162.2820  206.4320  148.0830 C   0  0  0  0  0  2  0  0  0  0  0  0
  161.1880  206.7150  145.8730 O   0  0  0  0  0  0  0  0  0  0  0  0
  160.1150  203.2140  145.5840 C   0  0  0  0  0  2  0  0  0  0  0  0
  160.6190  201.5760  147.5400 C   0  0  2  0  0  0  0  0  0  0  0  0
  162.0030  205.7430  143.8190 C   0  0  1  0  0  3  0  0  0  0  0  0
  161.2670  203.8180  148.7440 C   0  0  0  0  0  2  0  0  0  0  0  0
  162.1060  206.8940  144.8230 C   0  0  0  0  0  2  0  0  0  0  0  0
  159.2380  201.8660  148.1360 C   0  0  0  0  0  1  0  0  0  0  0  0
  161.2520  204.2030  145.3100 C   0  0  1  0  0  3  0  0  0  0  0  0
  161.7990  201.4820  145.3940 O   0  0  0  0  0  1  0  0  0  0  0  0
  160.9130  204.9230  144.1460 O   0  0  0  0  0  0  0  0  0  0  0  0
  163.3870  204.7130  146.6300 C   0  0  0  0  0  1  0  0  0  0  0  0
  161.7020  202.4490  148.2050 C   0  0  0  0  0  2  0  0  0  0  0  0
  160.5900  201.8210  146.0120 C   0  0  2  0  0  3  0  0  0  0  0  0
  161.6780  205.3320  146.7470 P   0  0  0  0  0  0  0  0  0  0  0  0
  160.5560  204.5840  147.8020 O   0  0  0  0  0  0  0  0  0  0  0  0
  161.6750  206.7280  141.3610 C   0  0  0  0  0  0  0  0  0  0  0  0
  161.8260  206.2850  142.4720 C   0  0  0  0  0  0  0  0  0  0  0  0
  161.4890  207.2630  140.0130 C   0  0  0  0  0  3  0  0  0  0  0  0
  162.3600  206.4970  139.0400 C   0  0  0  0  0  1  0  0  0  0  0  0
  161.8780  208.7260  139.9930 C   0  0  0  0  0  1  0  0  0  0  0  0
  161.9730  199.9780  148.8050 O   0  0  0  0  0  1  0  0  0  0  0  0
  160.9510  200.0960  147.8570 C   0  0  2  0  0  3  0  0  0  0  0  0
  162.4050  198.7220  146.5480 O   0  0  0  0  0  1  0  0  0  0  0  0
  161.2730  199.2630  146.6500 C   0  0  0  0  0  0  0  0  0  0  0  0
  160.3300  199.0790  145.6470 O   0  0  0  0  0  0  0  0  0  0  0  0
  1  4  1  0  0  0  0
  2  7  1  0  0  0  0
  3 10  2  0  0  0  0
  3  5  1  0  0  0  0
  5  2  1  0  0  0  0
  5  9  2  0  0  0  0
  6  9  1  0  0  0  0
  7  1  1  0  0  0  0
  8  4  1  0  0  0  0
  9  8  1  0  0  0  0
 10  6  1  0  0  0  0
 11 29  1  6  0  0  0
 11 10  1  0  0  0  0
 12 11  1  6  0  0  0
 12 14  1  0  0  0  0
 13 12  1  0  0  0  0
 13 14  1  0  0  0  0
 14 20  1  0  0  0  0
 15 19  1  0  0  0  0
 16 21  1  0  0  0  0
 17 20  1  0  0  0  0
 17 15  2  0  0  0  0
 18 15  1  0  0  0  0
 19 21  2  0  0  0  0
 19 24  1  0  0  0  0
 20 16  2  0  0  0  0
 21 22  1  0  0  0  0
 22 23  1  0  0  0  0
 24 25  1  0  0  0  0
 25 26  1  0  0  0  0
 27 25  1  0  0  0  0
 29 28  1  0  0  0  0
 30  3  1  0  0  0  0
 31 30  1  0  0  0  0
 32 45  1  0  0  0  0
 33 44  1  0  0  0  0
 34 53  1  0  0  0  0
 34 38  1  1  0  0  0
 34 43  1  0  0  0  0
 35 48  1  6  0  0  0
 35 41  1  0  0  0  0
 35 37  1  0  0  0  0
 37 32  1  0  0  0  0
 39 33  1  1  0  0  0
 39 45  1  0  0  0  0
 41 39  1  0  0  0  0
 42 45  1  0  0  0  0
 43 36  1  0  0  0  0
 44 40  1  1  0  0  0
 44 34  1  0  0  0  0
 45 46  1  0  0  0  0
 45 31  1  0  0  0  0
 46 36  1  0  0  0  0
 47 48  3  0  0  0  0
 49 47  1  0  0  0  0
 50 49  1  0  0  0  0
 51 49  1  0  0  0  0
 53 52  1  1  0  0  0
 54 55  1  0  0  0  0
 55 53  1  0  0  0  0
 56 55  2  0  0  0  0
M  END
>  <MODEL>
4

>  <REMARK>
 VINA RESULT:       3.8      2.777      5.814
  Name = 
  14 active torsions:
  status: ('A' for Active; 'I' for Inactive)
    1  A    between atoms: C_1  and  C_18
    2  A    between atoms: C_2  and  O_33
    3  A    between atoms: C_2  and  P_47
    4  A    between atoms: C_5  and  O_33
    5  A    between atoms: C_6  and  N_7
    6  A    between atoms: N_7  and  C_37
    7  A    between atoms: C_12  and  C_23
    8  A    between atoms: C_13  and  C_20
    9  A    between atoms: C_15  and  C_54
   10  A    between atoms: C_18  and  C_51
   11  A    between atoms: C_18  and  O_52
   12  A    between atoms: C_23  and  C_43
   13  A    between atoms: N_34  and  C_40
   14  A    between atoms: O_35  and  C_41
                            x       y       z     vdW  Elec       q    Type
                         _______ _______ _______ _____ _____    ______ ____

>  <TORSDO>
F 14

$$$$
=
 OpenBabel11072412323D

 56 61  0  0  1  0  0  0  0  0999 V2000
  159.8220  201.7170  149.7930 C   0  0  0  0  0  2  0  0  0  0  0  0
  161.4760  203.6790  149.7560 C   0  0  0  0  0  2  0  0  0  0  0  0
  161.5320  205.0400  147.5810 C   0  0  0  0  0  0  0  0  0  0  0  0
  160.9680  201.0390  149.1980 N   0  0  0  0  0  2  0  0  0  0  0  0
  161.3560  203.8190  148.2670 C   0  0  0  0  0  0  0  0  0  0  0  0
  161.2480  203.2860  145.8180 S   0  0  0  0  0  0  0  0  0  0  0  0
  160.2300  203.0640  150.3960 C   0  0  0  0  0  2  0  0  0  0  0  0
  160.9400  201.2870  147.7600 C   0  0  0  0  0  2  0  0  0  0  0  0
  161.1940  202.7290  147.4030 C   0  0  0  0  0  0  0  0  0  0  0  0
  161.5040  204.9030  146.2010 C   0  0  0  0  0  0  0  0  0  0  0  0
  161.6610  206.0230  145.2200 C   0  0  1  0  0  3  0  0  0  0  0  0
  162.9140  205.8240  144.3830 C   0  0  1  0  0  3  0  0  0  0  0  0
  162.8580  204.6430  143.6730 C   0  0  0  0  0  2  0  0  0  0  0  0
  162.5460  205.9050  142.9390 N   0  0  0  0  0  0  0  0  0  0  0  0
  161.9840  206.7940  139.3700 C   0  0  0  0  0  0  0  0  0  0  0  0
  161.5880  207.9000  141.9090 C   0  0  0  0  0  3  0  0  0  0  0  0
  162.3560  206.0870  140.5150 C   0  0  0  0  0  3  0  0  0  0  0  0
  162.2250  206.2160  138.1320 O   0  0  0  0  0  1  0  0  0  0  0  0
  161.3870  208.0710  139.4910 C   0  0  0  0  0  0  0  0  0  0  0  0
  162.1570  206.6350  141.7810 C   0  0  0  0  0  0  0  0  0  0  0  0
  161.1990  208.6240  140.7700 C   0  0  0  0  0  0  0  0  0  0  0  0
  160.6190  209.8930  140.8870 O   0  0  0  0  0  0  0  0  0  0  0  0
  161.2810  210.9890  141.5050 C   0  0  0  0  0  1  0  0  0  0  0  0
  160.9750  208.8440  138.3500 N   0  0  0  0  0  2  0  0  0  0  0  0
  161.7590  209.8730  137.6820 C   0  0  0  0  0  3  0  0  0  0  0  0
  162.9490  210.2360  138.5480 C   0  0  0  0  0  1  0  0  0  0  0  0
  160.9050  211.1090  137.4710 C   0  0  0  0  0  1  0  0  0  0  0  0
  159.4770  205.6460  145.1730 C   0  0  0  0  0  1  0  0  0  0  0  0
  160.5390  206.0930  144.3880 O   0  0  0  0  0  0  0  0  0  0  0  0
  161.7290  206.2890  148.1810 O   0  0  0  0  0  0  0  0  0  0  0  0
  162.3260  206.4540  149.4600 C   0  0  0  0  0  2  0  0  0  0  0  0
  163.0680  208.7500  148.8790 O   0  0  0  0  0  0  0  0  0  0  0  0
  161.9970  210.2580  152.0520 C   0  0  0  0  0  2  0  0  0  0  0  0
  160.9660  208.7320  153.8870 C   0  0  2  0  0  0  0  0  0  0  0  0
  161.5710  210.6020  148.4790 C   0  0  1  0  0  3  0  0  0  0  0  0
  161.8280  206.8520  152.2700 C   0  0  0  0  0  2  0  0  0  0  0  0
  162.2580  209.3610  147.9040 C   0  0  0  0  0  2  0  0  0  0  0  0
  162.3480  208.5660  154.5250 C   0  0  0  0  0  1  0  0  0  0  0  0
  161.5620  209.8830  150.6330 C   0  0  1  0  0  3  0  0  0  0  0  0
  159.6340  210.3230  152.5830 O   0  0  0  0  0  1  0  0  0  0  0  0
  162.0690  210.8700  149.7620 O   0  0  0  0  0  0  0  0  0  0  0  0
  160.2670  207.8550  149.7560 C   0  0  0  0  0  1  0  0  0  0  0  0
  160.6440  207.5500  152.9510 C   0  0  0  0  0  2  0  0  0  0  0  0
  160.9060  210.0690  153.1100 C   0  0  2  0  0  3  0  0  0  0  0  0
  162.0330  208.1480  150.0960 P   0  0  0  0  0  0  0  0  0  0  0  0
  162.6990  207.7460  151.6200 O   0  0  0  0  0  0  0  0  0  0  0  0
  162.0230  212.6920  146.8830 C   0  0  0  0  0  0  0  0  0  0  0  0
  161.8220  211.7470  147.6030 C   0  0  0  0  0  0  0  0  0  0  0  0
  162.2620  213.8400  146.0090 C   0  0  0  0  0  3  0  0  0  0  0  0
  160.9370  214.4470  145.5980 C   0  0  0  0  0  1  0  0  0  0  0  0
  163.0130  213.3860  144.7760 C   0  0  0  0  0  1  0  0  0  0  0  0
  159.9670  209.8830  155.8030 O   0  0  0  0  0  1  0  0  0  0  0  0
  159.9270  208.7120  155.0380 C   0  0  2  0  0  3  0  0  0  0  0  0
  161.0380  207.3460  156.6550 O   0  0  0  0  0  1  0  0  0  0  0  0
  160.0200  207.5110  155.9340 C   0  0  0  0  0  0  0  0  0  0  0  0
  158.9890  206.5820  155.9790 O   0  0  0  0  0  0  0  0  0  0  0  0
  1  7  1  0  0  0  0
  2  7  1  0  0  0  0
  3 30  1  0  0  0  0
  3  5  1  0  0  0  0
  4  1  1  0  0  0  0
  5  2  1  0  0  0  0
  6 10  1  0  0  0  0
  6  9  1  0  0  0  0
  8  4  1  0  0  0  0
  9  8  1  0  0  0  0
  9  5  2  0  0  0  0
 10  3  2  0  0  0  0
 11 29  1  6  0  0  0
 11 10  1  0  0  0  0
 12 11  1  1  0  0  0
 13 12  1  0  0  0  0
 14 13  1  0  0  0  0
 14 12  1  0  0  0  0
 15 19  2  0  0  0  0
 15 17  1  0  0  0  0
 17 20  2  0  0  0  0
 18 15  1  0  0  0  0
 19 21  1  0  0  0  0
 20 16  1  0  0  0  0
 20 14  1  0  0  0  0
 21 22  1  0  0  0  0
 21 16  2  0  0  0  0
 22 23  1  0  0  0  0
 24 19  1  0  0  0  0
 25 24  1  0  0  0  0
 25 26  1  0  0  0  0
 27 25  1  0  0  0  0
 29 28  1  0  0  0  0
 30 31  1  0  0  0  0
 31 45  1  0  0  0  0
 32 45  1  0  0  0  0
 33 44  1  0  0  0  0
 34 38  1  1  0  0  0
 34 53  1  0  0  0  0
 35 48  1  6  0  0  0
 35 41  1  0  0  0  0
 36 43  1  0  0  0  0
 37 35  1  0  0  0  0
 37 32  1  0  0  0  0
 39 33  1  1  0  0  0
 41 39  1  0  0  0  0
 42 45  1  0  0  0  0
 43 34  1  0  0  0  0
 44 40  1  6  0  0  0
 44 34  1  0  0  0  0
 45 39  1  0  0  0  0
 45 46  1  0  0  0  0
 46 36  1  0  0  0  0
 47 48  3  0  0  0  0
 49 47  1  0  0  0  0
 50 49  1  0  0  0  0
 51 49  1  0  0  0  0
 53 52  1  1  0  0  0
 53 55  1  0  0  0  0
 55 56  2  0  0  0  0
 55 54  1  0  0  0  0
M  END
>  <MODEL>
5

>  <REMARK>
 VINA RESULT:       4.2      3.413      7.256
  Name = 
  14 active torsions:
  status: ('A' for Active; 'I' for Inactive)
    1  A    between atoms: C_1  and  C_18
    2  A    between atoms: C_2  and  O_33
    3  A    between atoms: C_2  and  P_47
    4  A    between atoms: C_5  and  O_33
    5  A    between atoms: C_6  and  N_7
    6  A    between atoms: N_7  and  C_37
    7  A    between atoms: C_12  and  C_23
    8  A    between atoms: C_13  and  C_20
    9  A    between atoms: C_15  and  C_54
   10  A    between atoms: C_18  and  C_51
   11  A    between atoms: C_18  and  O_52
   12  A    between atoms: C_23  and  C_43
   13  A    between atoms: N_34  and  C_40
   14  A    between atoms: O_35  and  C_41
                            x       y       z     vdW  Elec       q    Type
                         _______ _______ _______ _____ _____    ______ ____

>  <TORSDO>
F 14

$$$$
=
 OpenBabel11072412323D

 56 61  0  0  1  0  0  0  0  0999 V2000
  162.0150  202.8290  147.0520 C   0  0  0  0  0  2  0  0  0  0  0  0
  161.6100  205.3380  147.4050 C   0  0  0  0  0  2  0  0  0  0  0  0
  161.7530  206.1520  149.8350 C   0  0  0  0  0  0  0  0  0  0  0  0
  160.5830  202.7920  147.3260 N   0  0  0  0  0  2  0  0  0  0  0  0
  161.4430  205.1540  148.8840 C   0  0  0  0  0  0  0  0  0  0  0  0
  160.7100  204.2700  151.1150 S   0  0  0  0  0  0  0  0  0  0  0  0
  162.4880  204.2570  146.7700 C   0  0  0  0  0  2  0  0  0  0  0  0
  160.4050  202.7560  148.7750 C   0  0  0  0  0  2  0  0  0  0  0  0
  160.8350  204.0300  149.4560 C   0  0  0  0  0  0  0  0  0  0  0  0
  161.3940  205.8060  151.1290 C   0  0  0  0  0  0  0  0  0  0  0  0
  161.6030  206.6630  152.3400 C   0  0  1  0  0  3  0  0  0  0  0  0
  160.6280  206.2740  153.4390 C   0  0  1  0  0  3  0  0  0  0  0  0
  161.2160  206.3640  154.6840 C   0  0  0  0  0  2  0  0  0  0  0  0
  160.3230  207.4820  154.2600 N   0  0  0  0  0  0  0  0  0  0  0  0
  158.7020  210.3810  155.9390 C   0  0  0  0  0  0  0  0  0  0  0  0
  159.4340  209.5720  153.3630 C   0  0  0  0  0  3  0  0  0  0  0  0
  159.3250  209.1490  155.7360 C   0  0  0  0  0  3  0  0  0  0  0  0
  158.3330  210.7260  157.2320 O   0  0  0  0  0  1  0  0  0  0  0  0
  158.4530  211.2370  154.8410 C   0  0  0  0  0  0  0  0  0  0  0  0
  159.6930  208.7440  154.4530 C   0  0  0  0  0  0  0  0  0  0  0  0
  158.8160  210.8190  153.5470 C   0  0  0  0  0  0  0  0  0  0  0  0
  158.5580  211.6630  152.4600 O   0  0  0  0  0  0  0  0  0  0  0  0
  158.5420  213.0800  152.5710 C   0  0  0  0  0  1  0  0  0  0  0  0
  157.8230  212.5210  154.9870 N   0  0  0  0  0  2  0  0  0  0  0  0
  156.4390  212.7590  155.3710 C   0  0  0  0  0  3  0  0  0  0  0  0
  155.5290  211.8900  154.5270 C   0  0  0  0  0  1  0  0  0  0  0  0
  156.0880  214.2160  155.1390 C   0  0  0  0  0  1  0  0  0  0  0  0
  163.3660  205.3220  152.2710 C   0  0  0  0  0  1  0  0  0  0  0  0
  162.9170  206.5310  152.8000 O   0  0  0  0  0  0  0  0  0  0  0  0
  162.3520  207.3850  149.5540 O   0  0  0  0  0  0  0  0  0  0  0  0
  161.8040  208.3270  148.6420 C   0  0  0  0  0  2  0  0  0  0  0  0
  161.2130  209.1380  150.9140 O   0  0  0  0  0  0  0  0  0  0  0  0
  160.4280  212.5640  149.8480 C   0  0  0  0  0  2  0  0  0  0  0  0
  160.5760  213.1630  147.3220 C   0  0  2  0  0  0  0  0  0  0  0  0
  162.5170  210.7380  152.1670 C   0  0  1  0  0  3  0  0  0  0  0  0
  160.8150  210.5570  147.1100 C   0  0  0  0  0  2  0  0  0  0  0  0
  162.3300  209.2750  151.7570 C   0  0  0  0  0  2  0  0  0  0  0  0
  159.0830  212.8590  147.1640 C   0  0  0  0  0  1  0  0  0  0  0  0
  161.5400  211.6210  150.3160 C   0  0  1  0  0  3  0  0  0  0  0  0
  162.2060  213.9570  148.9710 O   0  0  0  0  0  1  0  0  0  0  0  0
  161.4290  211.5000  151.7170 O   0  0  0  0  0  0  0  0  0  0  0  0
  163.2970  210.3110  148.9910 C   0  0  0  0  0  1  0  0  0  0  0  0
  161.4340  211.9480  146.9190 C   0  0  0  0  0  2  0  0  0  0  0  0
  160.8730  213.5740  148.7850 C   0  0  2  0  0  3  0  0  0  0  0  0
  161.5730  209.9530  149.4570 P   0  0  0  0  0  0  0  0  0  0  0  0
  160.2890  210.3570  148.4000 O   0  0  0  0  0  0  0  0  0  0  0  0
  162.6970  210.9040  154.8230 C   0  0  0  0  0  0  0  0  0  0  0  0
  162.6130  210.8280  153.6240 C   0  0  0  0  0  0  0  0  0  0  0  0
  162.8030  211.0000  156.2790 C   0  0  0  0  0  3  0  0  0  0  0  0
  162.7420  209.6120  156.8830 C   0  0  0  0  0  1  0  0  0  0  0  0
  161.6590  211.8330  156.8140 C   0  0  0  0  0  1  0  0  0  0  0  0
  159.9560  214.4440  145.3300 O   0  0  0  0  0  1  0  0  0  0  0  0
  160.9110  214.3180  146.3440 C   0  0  2  0  0  3  0  0  0  0  0  0
  163.2970  214.3020  146.4930 O   0  0  0  0  0  1  0  0  0  0  0  0
  162.2870  214.2400  145.7460 C   0  0  0  0  0  0  0  0  0  0  0  0
  162.4530  214.0940  144.3750 O   0  0  0  0  0  0  0  0  0  0  0  0
  1  4  1  0  0  0  0
  2  5  1  0  0  0  0
  3 10  2  0  0  0  0
  4  8  1  0  0  0  0
  5  9  2  0  0  0  0
  5  3  1  0  0  0  0
  6 10  1  0  0  0  0
  7  1  1  0  0  0  0
  7  2  1  0  0  0  0
  8  9  1  0  0  0  0
  9  6  1  0  0  0  0
 10 11  1  0  0  0  0
 11 29  1  1  0  0  0
 12 11  1  6  0  0  0
 12 14  1  0  0  0  0
 12 13  1  0  0  0  0
 14 20  1  0  0  0  0
 14 13  1  0  0  0  0
 15 18  1  0  0  0  0
 16 21  2  0  0  0  0
 16 20  1  0  0  0  0
 17 15  1  0  0  0  0
 19 24  1  0  0  0  0
 19 15  2  0  0  0  0
 20 17  2  0  0  0  0
 21 19  1  0  0  0  0
 22 23  1  0  0  0  0
 22 21  1  0  0  0  0
 24 25  1  0  0  0  0
 26 25  1  0  0  0  0
 27 25  1  0  0  0  0
 28 29  1  0  0  0  0
 30  3  1  0  0  0  0
 31 45  1  0  0  0  0
 31 30  1  0  0  0  0
 32 37  1  0  0  0  0
 34 38  1  6  0  0  0
 34 44  1  0  0  0  0
 35 48  1  1  0  0  0
 36 46  1  0  0  0  0
 37 35  1  0  0  0  0
 39 33  1  6  0  0  0
 39 41  1  0  0  0  0
 41 35  1  0  0  0  0
 42 45  1  0  0  0  0
 43 36  1  0  0  0  0
 43 34  1  0  0  0  0
 44 40  1  6  0  0  0
 44 33  1  0  0  0  0
 45 39  1  0  0  0  0
 45 32  1  0  0  0  0
 46 45  1  0  0  0  0
 47 49  1  0  0  0  0
 48 47  3  0  0  0  0
 49 51  1  0  0  0  0
 49 50  1  0  0  0  0
 53 52  1  6  0  0  0
 53 34  1  0  0  0  0
 55 53  1  0  0  0  0
 55 54  1  0  0  0  0
 56 55  2  0  0  0  0
M  END
>  <MODEL>
6

>  <REMARK>
 VINA RESULT:       5.0      4.416     10.811
  Name = 
  14 active torsions:
  status: ('A' for Active; 'I' for Inactive)
    1  A    between atoms: C_1  and  C_18
    2  A    between atoms: C_2  and  O_33
    3  A    between atoms: C_2  and  P_47
    4  A    between atoms: C_5  and  O_33
    5  A    between atoms: C_6  and  N_7
    6  A    between atoms: N_7  and  C_37
    7  A    between atoms: C_12  and  C_23
    8  A    between atoms: C_13  and  C_20
    9  A    between atoms: C_15  and  C_54
   10  A    between atoms: C_18  and  C_51
   11  A    between atoms: C_18  and  O_52
   12  A    between atoms: C_23  and  C_43
   13  A    between atoms: N_34  and  C_40
   14  A    between atoms: O_35  and  C_41
                            x       y       z     vdW  Elec       q    Type
                         _______ _______ _______ _____ _____    ______ ____

>  <TORSDO>
F 14

$$$$
=
 OpenBabel11072412323D

 56 61  0  0  1  0  0  0  0  0999 V2000
  161.4050  212.4600  143.4840 C   0  0  0  0  0  2  0  0  0  0  0  0
  162.4010  212.3150  145.8450 C   0  0  0  0  0  2  0  0  0  0  0  0
  160.7350  212.6310  147.7710 C   0  0  0  0  0  0  0  0  0  0  0  0
  161.6710  213.8760  143.7070 N   0  0  0  0  0  2  0  0  0  0  0  0
  161.1680  212.9100  146.4570 C   0  0  0  0  0  0  0  0  0  0  0  0
  159.2030  214.4070  146.8970 S   0  0  0  0  0  0  0  0  0  0  0  0
  162.1180  211.5930  144.5250 C   0  0  0  0  0  2  0  0  0  0  0  0
  160.5350  214.4380  144.4300 C   0  0  0  0  0  2  0  0  0  0  0  0
  160.4050  213.9070  145.8340 C   0  0  0  0  0  0  0  0  0  0  0  0
  159.6470  213.3960  148.1650 C   0  0  0  0  0  0  0  0  0  0  0  0
  158.9740  213.3140  149.5000 C   0  0  1  0  0  3  0  0  0  0  0  0
  160.0070  213.1790  150.6080 C   0  0  1  0  0  3  0  0  0  0  0  0
  160.2130  214.3840  151.2480 C   0  0  0  0  0  2  0  0  0  0  0  0
  159.3320  213.3860  151.9220 N   0  0  0  0  0  0  0  0  0  0  0  0
  158.1480  211.7370  155.0410 C   0  0  0  0  0  0  0  0  0  0  0  0
  157.1280  213.3200  152.9720 C   0  0  0  0  0  3  0  0  0  0  0  0
  158.9790  212.1680  154.0060 C   0  0  0  0  0  3  0  0  0  0  0  0
  158.6930  210.9310  156.0310 O   0  0  0  0  0  1  0  0  0  0  0  0
  156.7850  212.1150  155.0570 C   0  0  0  0  0  0  0  0  0  0  0  0
  158.4740  212.9590  152.9740 C   0  0  0  0  0  0  0  0  0  0  0  0
  156.2780  212.9040  154.0090 C   0  0  0  0  0  0  0  0  0  0  0  0
  154.9250  213.2670  154.0200 O   0  0  0  0  0  0  0  0  0  0  0  0
  154.4490  214.4420  154.6630 C   0  0  0  0  0  1  0  0  0  0  0  0
  155.8810  211.7110  156.1000 N   0  0  0  0  0  2  0  0  0  0  0  0
  154.6370  210.9780  155.9200 C   0  0  0  0  0  3  0  0  0  0  0  0
  153.9270  210.8610  157.2540 C   0  0  0  0  0  1  0  0  0  0  0  0
  154.9360  209.5860  155.3950 C   0  0  0  0  0  1  0  0  0  0  0  0
  156.9170  213.9690  150.0040 C   0  0  0  0  0  1  0  0  0  0  0  0
  158.1920  214.4530  149.7140 O   0  0  0  0  0  0  0  0  0  0  0  0
  161.3130  211.6940  148.6360 O   0  0  0  0  0  0  0  0  0  0  0  0
  162.2390  210.7050  148.2070 C   0  0  0  0  0  2  0  0  0  0  0  0
  163.0630  210.1660  150.4860 O   0  0  0  0  0  0  0  0  0  0  0  0
  162.6690  206.5310  150.1280 C   0  0  0  0  0  2  0  0  0  0  0  0
  161.8360  205.5710  147.8600 C   0  0  2  0  0  0  0  0  0  0  0  0
  161.6800  209.2810  152.2560 C   0  0  1  0  0  3  0  0  0  0  0  0
  162.2540  208.0480  147.0940 C   0  0  0  0  0  2  0  0  0  0  0  0
  162.1550  210.5230  151.4990 C   0  0  0  0  0  2  0  0  0  0  0  0
  163.2870  205.3770  147.4100 C   0  0  0  0  0  1  0  0  0  0  0  0
  161.9720  207.8340  150.5310 C   0  0  1  0  0  3  0  0  0  0  0  0
  160.4420  205.6110  149.8760 O   0  0  0  0  0  1  0  0  0  0  0  0
  162.4060  208.1590  151.8330 O   0  0  0  0  0  0  0  0  0  0  0  0
  160.3840  209.3600  149.2250 C   0  0  0  0  0  1  0  0  0  0  0  0
  161.2640  206.8990  147.3240 C   0  0  0  0  0  2  0  0  0  0  0  0
  161.7580  205.5340  149.4050 C   0  0  2  0  0  3  0  0  0  0  0  0
  162.1990  209.2550  149.3270 P   0  0  0  0  0  0  0  0  0  0  0  0
  163.0760  208.3030  148.2080 O   0  0  0  0  0  0  0  0  0  0  0  0
  162.0420  209.6460  154.8740 C   0  0  0  0  0  0  0  0  0  0  0  0
  161.8760  209.4820  153.6920 C   0  0  0  0  0  0  0  0  0  0  0  0
  162.2490  209.8430  156.3090 C   0  0  0  0  0  3  0  0  0  0  0  0
  162.0500  208.5290  157.0340 C   0  0  0  0  0  1  0  0  0  0  0  0
  161.2550  210.8600  156.8260 C   0  0  0  0  0  1  0  0  0  0  0  0
  161.3700  203.1710  147.7490 O   0  0  0  0  0  1  0  0  0  0  0  0
  161.0070  204.4200  147.2350 C   0  0  2  0  0  3  0  0  0  0  0  0
  162.1130  204.5850  145.1220 O   0  0  0  0  0  1  0  0  0  0  0  0
  161.0320  204.3840  145.7340 C   0  0  0  0  0  0  0  0  0  0  0  0
  159.8730  204.1250  145.0150 O   0  0  0  0  0  0  0  0  0  0  0  0
  1  4  1  0  0  0  0
  1  7  1  0  0  0  0
  2  5  1  0  0  0  0
  3 10  2  0  0  0  0
  3 30  1  0  0  0  0
  4  8  1  0  0  0  0
  5  3  1  0  0  0  0
  6 10  1  0  0  0  0
  7  2  1  0  0  0  0
  8  9  1  0  0  0  0
  9  5  2  0  0  0  0
  9  6  1  0  0  0  0
 10 11  1  0  0  0  0
 11 29  1  1  0  0  0
 12 11  1  6  0  0  0
 12 13  1  0  0  0  0
 12 14  1  0  0  0  0
 13 14  1  0  0  0  0
 14 20  1  0  0  0  0
 15 19  1  0  0  0  0
 15 18  1  0  0  0  0
 16 20  2  0  0  0  0
 16 21  1  0  0  0  0
 17 15  2  0  0  0  0
 19 24  1  0  0  0  0
 20 17  1  0  0  0  0
 21 22  1  0  0  0  0
 21 19  2  0  0  0  0
 22 23  1  0  0  0  0
 25 24  1  0  0  0  0
 25 26  1  0  0  0  0
 27 25  1  0  0  0  0
 29 28  1  0  0  0  0
 31 30  1  0  0  0  0
 31 45  1  0  0  0  0
 32 37  1  0  0  0  0
 34 38  1  6  0  0  0
 34 44  1  0  0  0  0
 35 48  1  1  0  0  0
 36 43  1  0  0  0  0
 36 46  1  0  0  0  0
 37 35  1  0  0  0  0
 39 33  1  6  0  0  0
 39 41  1  0  0  0  0
 41 35  1  0  0  0  0
 42 45  1  0  0  0  0
 43 34  1  0  0  0  0
 44 40  1  6  0  0  0
 44 33  1  0  0  0  0
 45 32  1  0  0  0  0
 45 39  1  0  0  0  0
 46 45  1  0  0  0  0
 47 49  1  0  0  0  0
 48 47  3  0  0  0  0
 49 51  1  0  0  0  0
 49 50  1  0  0  0  0
 53 52  1  1  0  0  0
 53 34  1  0  0  0  0
 54 55  1  0  0  0  0
 55 53  1  0  0  0  0
 56 55  2  0  0  0  0
M  END
>  <MODEL>
7

>  <REMARK>
 VINA RESULT:       5.0      4.069      9.787
  Name = 
  14 active torsions:
  status: ('A' for Active; 'I' for Inactive)
    1  A    between atoms: C_1  and  C_18
    2  A    between atoms: C_2  and  O_33
    3  A    between atoms: C_2  and  P_47
    4  A    between atoms: C_5  and  O_33
    5  A    between atoms: C_6  and  N_7
    6  A    between atoms: N_7  and  C_37
    7  A    between atoms: C_12  and  C_23
    8  A    between atoms: C_13  and  C_20
    9  A    between atoms: C_15  and  C_54
   10  A    between atoms: C_18  and  C_51
   11  A    between atoms: C_18  and  O_52
   12  A    between atoms: C_23  and  C_43
   13  A    between atoms: N_34  and  C_40
   14  A    between atoms: O_35  and  C_41
                            x       y       z     vdW  Elec       q    Type
                         _______ _______ _______ _____ _____    ______ ____

>  <TORSDO>
F 14

$$$$
