=
 OpenBabel11072410123D

 43 45  0  0  1  0  0  0  0  0999 V2000
  160.2380  209.7420  153.1670 C   0  0  2  0  0  3  0  0  0  0  0  0
  160.5430  209.6920  154.6300 C   0  0  1  0  0  3  0  0  0  0  0  0
  161.2610  207.5260  154.4140 C   0  0  0  0  0  2  0  0  0  0  0  0
  161.3960  208.8570  153.6580 C   0  0  2  0  0  0  0  0  0  0  0  0
  160.8910  207.5690  152.9910 C   0  0  1  0  0  3  0  0  0  0  0  0
  161.3500  210.8750  155.1740 C   0  0  2  0  0  3  0  0  0  0  0  0
  162.3760  210.3970  155.9940 O   0  0  0  0  0  1  0  0  0  0  0  0
  160.4580  211.8220  155.9750 C   0  0  2  0  0  3  0  0  0  0  0  0
  161.0400  212.0970  157.2160 O   0  0  0  0  0  1  0  0  0  0  0  0
  159.0920  211.1810  156.1990 C   0  0  0  0  0  2  0  0  0  0  0  0
  158.1530  213.4300  155.5000 C   0  0  0  0  0  0  0  0  0  0  0  0
  157.9910  212.0890  155.8730 N   0  0  0  0  0  0  0  0  0  0  0  0
  156.5850  211.7530  155.7200 C   0  0  2  0  0  3  0  0  0  0  0  0
  155.8890  212.9500  155.2120 N   0  0  0  0  0  0  0  0  0  0  0  0
  156.8810  214.0250  155.0750 C   0  0  0  0  0  3  0  0  0  0  0  0
  159.2610  214.0300  155.5030 O   0  0  0  0  0  0  0  0  0  0  0  0
  156.0230  211.3770  157.0060 N   0  0  0  0  0  1  0  0  0  0  0  0
  162.0150  207.0060  152.1300 C   0  0  0  0  0  2  0  0  0  0  0  0
  161.8210  205.5220  151.8000 C   0  0  1  0  0  3  0  0  0  0  0  0
  160.8580  204.8940  152.8000 C   0  0  0  0  0  2  0  0  0  0  0  0
  160.9960  203.5070  152.8060 O   0  0  0  0  0  1  0  0  0  0  0  0
  161.3730  205.2710  150.3450 C   0  0  1  0  0  3  0  0  0  0  0  0
  160.6780  203.9930  150.2060 N   0  0  0  0  0  2  0  0  0  0  0  0
  161.1240  203.4140  149.0630 O   0  0  0  0  0  0  0  0  0  0  0  0
  160.4120  202.2150  148.9640 C   0  0  2  0  0  3  0  0  0  0  0  0
  160.7050  201.3530  150.1790 C   0  0  0  0  0  1  0  0  0  0  0  0
  160.8280  201.4700  147.7100 C   0  0  0  0  0  2  0  0  0  0  0  0
  161.5210  200.3100  148.0550 O   0  0  0  0  0  1  0  0  0  0  0  0
  160.5110  206.4120  149.7900 C   0  0  0  0  0  2  0  0  0  0  0  0
  160.5140  206.0430  147.2930 N   0  0  0  0  0  2  0  0  0  0  0  0
  161.5580  207.9080  148.2430 O   0  0  0  0  0  0  0  0  0  0  0  0
  160.9070  206.8410  148.4130 C   0  0  0  0  0  0  0  0  0  0  0  0
  160.8470  206.3890  145.9140 C   0  0  2  0  0  3  0  0  0  0  0  0
  159.8470  205.7680  144.9460 C   0  0  0  0  0  1  0  0  0  0  0  0
  162.2800  205.9700  145.5810 C   0  0  0  0  0  2  0  0  0  0  0  0
  161.9030  203.5080  145.3610 O   0  0  0  0  0  0  0  0  0  0  0  0
  162.5770  204.5560  145.9720 C   0  0  0  0  0  0  0  0  0  0  0  0
  163.4670  204.3130  146.8310 O   0  0  0  0  0  1  0  0  0  0  0  0
  160.8030  210.9510  152.3940 C   0  0  2  0  0  3  0  0  0  0  0  0
  158.5790  211.5100  152.5320 C   0  0  0  0  0  1  0  0  0  0  0  0
  159.8330  211.9240  152.0570 O   0  0  0  0  0  0  0  0  0  0  0  0
  162.3120  210.2260  150.3020 C   0  0  0  0  0  3  0  0  0  0  0  0
  161.6320  210.5540  151.2420 C   0  0  0  0  0  0  0  0  0  0  0  0
  1 39  1  6  0  0  0
  1  4  1  0  0  0  0
  1  2  1  0  0  0  0
  2  6  1  6  0  0  0
  4  3  1  6  0  0  0
  4  2  1  0  0  0  0
  5 18  1  6  0  0  0
  5  4  1  0  0  0  0
  5  3  1  0  0  0  0
  6  8  1  0  0  0  0
  6  7  1  1  0  0  0
  8 10  1  0  0  0  0
  8  9  1  1  0  0  0
 11 16  2  0  0  0  0
 11 12  1  0  0  0  0
 12 10  1  0  0  0  0
 13 12  1  0  0  0  0
 13 17  1  1  0  0  0
 14 13  1  0  0  0  0
 15 14  2  0  0  0  0
 15 11  1  0  0  0  0
 19 18  1  1  0  0  0
 19 20  1  0  0  0  0
 20 21  1  0  0  0  0
 22 29  1  1  0  0  0
 22 19  1  0  0  0  0
 23 22  1  0  0  0  0
 24 23  1  0  0  0  0
 25 24  1  0  0  0  0
 25 26  1  1  0  0  0
 27 28  1  0  0  0  0
 27 25  1  0  0  0  0
 30 32  1  0  0  0  0
 31 32  2  0  0  0  0
 32 29  1  0  0  0  0
 33 34  1  6  0  0  0
 33 30  1  0  0  0  0
 35 33  1  0  0  0  0
 35 37  1  0  0  0  0
 36 37  2  0  0  0  0
 37 38  1  0  0  0  0
 39 43  1  6  0  0  0
 41 39  1  0  0  0  0
 41 40  1  0  0  0  0
 42 43  3  0  0  0  0
M  END
>  <MODEL>
1

>  <REMARK>
 VINA RESULT:      -6.4      0.000      0.000
  Name = 
  20 active torsions:
  status: ('A' for Active; 'I' for Inactive)
    1  A    between atoms: C_2  and  C_14
    2  A    between atoms: C_2  and  C_26
    3  A    between atoms: C_2  and  N_42
    4  A    between atoms: O_3  and  C_27
    5  A    between atoms: O_3  and  N_42
    6  A    between atoms: C_4  and  N_10
    7  A    between atoms: C_4  and  C_33
    8  A    between atoms: C_5  and  C_19
    9  A    between atoms: C_8  and  C_16
   10  A    between atoms: C_11  and  N_17
   11  A    between atoms: C_11  and  C_20
   12  A    between atoms: C_14  and  C_34
   13  A    between atoms: O_15  and  C_19
   14  A    between atoms: C_16  and  C_33
   15  A    between atoms: C_18  and  C_26
   16  A    between atoms: C_19  and  C_36
   17  A    between atoms: C_20  and  C_32
   18  A    between atoms: C_23  and  C_27
   19  A    between atoms: C_26  and  C_38
   20  A    between atoms: C_38  and  C_41
                            x       y       z     vdW  Elec       q    Type
                         _______ _______ _______ _____ _____    ______ ____

>  <TORSDO>
F 20

$$$$
=
 OpenBabel11072410123D

 43 45  0  0  1  0  0  0  0  0999 V2000
  160.0170  209.6270  153.3520 C   0  0  2  0  0  3  0  0  0  0  0  0
  160.4690  209.5260  154.7740 C   0  0  1  0  0  3  0  0  0  0  0  0
  161.1800  207.3790  154.4020 C   0  0  0  0  0  2  0  0  0  0  0  0
  161.2250  208.7390  153.6890 C   0  0  2  0  0  0  0  0  0  0  0  0
  160.6660  207.4710  153.0280 C   0  0  1  0  0  3  0  0  0  0  0  0
  161.3180  210.6980  155.2790 C   0  0  2  0  0  3  0  0  0  0  0  0
  162.3080  210.2150  156.1390 O   0  0  0  0  0  1  0  0  0  0  0  0
  160.4540  211.7180  156.0180 C   0  0  2  0  0  3  0  0  0  0  0  0
  161.0930  212.1280  157.1920 O   0  0  0  0  0  1  0  0  0  0  0  0
  159.1090  211.0950  156.3770 C   0  0  0  0  0  2  0  0  0  0  0  0
  157.7660  213.2180  156.0270 C   0  0  0  0  0  0  0  0  0  0  0  0
  157.9820  211.8480  155.8230 N   0  0  0  0  0  0  0  0  0  0  0  0
  156.9950  211.3830  154.8630 C   0  0  2  0  0  3  0  0  0  0  0  0
  156.1720  212.5410  154.4660 N   0  0  0  0  0  0  0  0  0  0  0  0
  156.6540  213.7130  155.2090 C   0  0  0  0  0  3  0  0  0  0  0  0
  158.4660  213.9310  156.7950 O   0  0  0  0  0  0  0  0  0  0  0  0
  156.1470  210.3740  155.4740 N   0  0  0  0  0  1  0  0  0  0  0  0
  161.7010  206.9540  152.0360 C   0  0  0  0  0  2  0  0  0  0  0  0
  161.6090  205.4400  151.8190 C   0  0  1  0  0  3  0  0  0  0  0  0
  160.9110  204.7920  153.0080 C   0  0  0  0  0  2  0  0  0  0  0  0
  160.6990  203.4350  152.7690 O   0  0  0  0  0  1  0  0  0  0  0  0
  160.9380  205.0520  150.4840 C   0  0  1  0  0  3  0  0  0  0  0  0
  160.5780  206.2300  149.6980 N   0  0  0  0  0  2  0  0  0  0  0  0
  160.5440  205.8500  148.3960 O   0  0  0  0  0  0  0  0  0  0  0  0
  161.0610  206.9390  147.6890 C   0  0  2  0  0  3  0  0  0  0  0  0
  161.9300  206.4340  146.5510 C   0  0  0  0  0  1  0  0  0  0  0  0
  161.8970  207.8030  148.6130 C   0  0  0  0  0  2  0  0  0  0  0  0
  161.8100  209.1390  148.2210 O   0  0  0  0  0  1  0  0  0  0  0  0
  161.8000  204.0950  149.6500 C   0  0  0  0  0  2  0  0  0  0  0  0
  161.3260  202.6100  147.6640 N   0  0  0  0  0  2  0  0  0  0  0  0
  160.1050  202.4040  149.6480 O   0  0  0  0  0  0  0  0  0  0  0  0
  161.0140  202.9970  149.0050 C   0  0  0  0  0  0  0  0  0  0  0  0
  160.6200  201.5440  146.9590 C   0  0  2  0  0  3  0  0  0  0  0  0
  161.2880  200.1980  147.2090 C   0  0  0  0  0  1  0  0  0  0  0  0
  160.5280  201.8520  145.4630 C   0  0  0  0  0  2  0  0  0  0  0  0
  160.1700  204.2020  144.6860 O   0  0  0  0  0  0  0  0  0  0  0  0
  161.0450  203.2140  145.1180 C   0  0  0  0  0  0  0  0  0  0  0  0
  162.2690  203.4770  145.2540 O   0  0  0  0  0  1  0  0  0  0  0  0
  160.4900  210.8720  152.5730 C   0  0  2  0  0  3  0  0  0  0  0  0
  159.4040  212.8960  152.6050 C   0  0  0  0  0  1  0  0  0  0  0  0
  159.4400  211.6290  152.0030 O   0  0  0  0  0  0  0  0  0  0  0  0
  162.4350  210.3120  150.8170 C   0  0  0  0  0  3  0  0  0  0  0  0
  161.5590  210.5650  151.6060 C   0  0  0  0  0  0  0  0  0  0  0  0
  1 39  1  6  0  0  0
  1  4  1  0  0  0  0
  1  2  1  0  0  0  0
  2  6  1  6  0  0  0
  4  3  1  6  0  0  0
  4  2  1  0  0  0  0
  5 18  1  6  0  0  0
  5  4  1  0  0  0  0
  5  3  1  0  0  0  0
  6  8  1  0  0  0  0
  6  7  1  1  0  0  0
  8 10  1  0  0  0  0
  8  9  1  1  0  0  0
 11 16  2  0  0  0  0
 12 11  1  0  0  0  0
 12 10  1  0  0  0  0
 13 17  1  1  0  0  0
 13 12  1  0  0  0  0
 14 13  1  0  0  0  0
 14 15  2  0  0  0  0
 15 11  1  0  0  0  0
 19 18  1  1  0  0  0
 19 20  1  0  0  0  0
 21 20  1  0  0  0  0
 22 29  1  6  0  0  0
 22 19  1  0  0  0  0
 23 22  1  0  0  0  0
 24 23  1  0  0  0  0
 25 26  1  6  0  0  0
 25 24  1  0  0  0  0
 25 27  1  0  0  0  0
 28 27  1  0  0  0  0
 30 32  1  0  0  0  0
 32 31  2  0  0  0  0
 32 29  1  0  0  0  0
 33 34  1  6  0  0  0
 33 30  1  0  0  0  0
 35 33  1  0  0  0  0
 36 37  2  0  0  0  0
 37 38  1  0  0  0  0
 37 35  1  0  0  0  0
 39 43  1  6  0  0  0
 41 39  1  0  0  0  0
 41 40  1  0  0  0  0
 42 43  3  0  0  0  0
M  END
>  <MODEL>
2

>  <REMARK>
 VINA RESULT:      -6.1      1.227      2.953
  Name = 
  20 active torsions:
  status: ('A' for Active; 'I' for Inactive)
    1  A    between atoms: C_2  and  C_14
    2  A    between atoms: C_2  and  C_26
    3  A    between atoms: C_2  and  N_42
    4  A    between atoms: O_3  and  C_27
    5  A    between atoms: O_3  and  N_42
    6  A    between atoms: C_4  and  N_10
    7  A    between atoms: C_4  and  C_33
    8  A    between atoms: C_5  and  C_19
    9  A    between atoms: C_8  and  C_16
   10  A    between atoms: C_11  and  N_17
   11  A    between atoms: C_11  and  C_20
   12  A    between atoms: C_14  and  C_34
   13  A    between atoms: O_15  and  C_19
   14  A    between atoms: C_16  and  C_33
   15  A    between atoms: C_18  and  C_26
   16  A    between atoms: C_19  and  C_36
   17  A    between atoms: C_20  and  C_32
   18  A    between atoms: C_23  and  C_27
   19  A    between atoms: C_26  and  C_38
   20  A    between atoms: C_38  and  C_41
                            x       y       z     vdW  Elec       q    Type
                         _______ _______ _______ _____ _____    ______ ____

>  <TORSDO>
F 20

$$$$
=
 OpenBabel11072410123D

 43 45  0  0  1  0  0  0  0  0999 V2000
  160.6460  205.9210  149.6560 C   0  0  2  0  0  3  0  0  0  0  0  0
  161.1710  206.0740  148.2640 C   0  0  1  0  0  3  0  0  0  0  0  0
  161.5270  208.3070  148.6360 C   0  0  0  0  0  2  0  0  0  0  0  0
  161.7280  206.9770  149.3780 C   0  0  2  0  0  0  0  0  0  0  0  0
  160.9440  208.1540  149.9770 C   0  0  1  0  0  3  0  0  0  0  0  0
  162.2160  205.0380  147.8390 C   0  0  2  0  0  3  0  0  0  0  0  0
  163.3470  205.6960  147.3470 O   0  0  0  0  0  1  0  0  0  0  0  0
  161.6580  204.1110  146.7610 C   0  0  2  0  0  3  0  0  0  0  0  0
  161.0790  204.8610  145.7330 O   0  0  0  0  0  1  0  0  0  0  0  0
  160.5970  203.1950  147.3640 C   0  0  0  0  0  2  0  0  0  0  0  0
  160.5140  201.1700  145.8410 C   0  0  0  0  0  0  0  0  0  0  0  0
  160.8400  201.7850  147.0570 N   0  0  0  0  0  0  0  0  0  0  0  0
  161.5810  200.8210  147.8550 C   0  0  2  0  0  3  0  0  0  0  0  0
  161.7160  199.5860  147.0610 N   0  0  0  0  0  0  0  0  0  0  0  0
  161.0320  199.7990  145.7770 C   0  0  0  0  0  3  0  0  0  0  0  0
  159.8820  201.7420  144.9130 O   0  0  0  0  0  0  0  0  0  0  0  0
  160.8550  200.5310  149.0800 N   0  0  0  0  0  1  0  0  0  0  0  0
  161.8220  208.8310  151.0220 C   0  0  0  0  0  2  0  0  0  0  0  0
  161.0100  209.4900  152.1420 C   0  0  1  0  0  3  0  0  0  0  0  0
  161.6240  209.1470  153.4930 C   0  0  0  0  0  2  0  0  0  0  0  0
  160.7520  208.3550  154.2390 O   0  0  0  0  0  1  0  0  0  0  0  0
  160.8430  211.0140  151.9630 C   0  0  1  0  0  3  0  0  0  0  0  0
  161.2840  211.4540  150.6410 N   0  0  0  0  0  2  0  0  0  0  0  0
  160.5380  212.5370  150.3080 O   0  0  0  0  0  0  0  0  0  0  0  0
  161.0990  213.0100  149.1180 C   0  0  2  0  0  3  0  0  0  0  0  0
  159.9920  213.3370  148.1330 C   0  0  0  0  0  1  0  0  0  0  0  0
  162.0050  211.9500  148.5190 C   0  0  0  0  0  2  0  0  0  0  0  0
  163.1140  212.5530  147.9270 O   0  0  0  0  0  1  0  0  0  0  0  0
  159.4080  211.4840  152.2330 C   0  0  0  0  0  2  0  0  0  0  0  0
  159.3230  211.5450  154.7550 N   0  0  0  0  0  2  0  0  0  0  0  0
  159.1150  213.5000  153.4890 O   0  0  0  0  0  0  0  0  0  0  0  0
  159.2620  212.2470  153.5110 C   0  0  0  0  0  0  0  0  0  0  0  0
  159.2010  212.2080  156.0500 C   0  0  2  0  0  3  0  0  0  0  0  0
  160.4990  212.0900  156.8400 C   0  0  0  0  0  1  0  0  0  0  0  0
  158.0160  211.6460  156.8380 C   0  0  0  0  0  2  0  0  0  0  0  0
  155.5340  211.4830  156.5790 O   0  0  0  0  0  1  0  0  0  0  0  0
  156.7030  212.2080  156.3920 C   0  0  0  0  0  0  0  0  0  0  0  0
  156.6510  213.3580  155.8780 O   0  0  0  0  0  0  0  0  0  0  0  0
  161.2470  204.7700  150.4890 C   0  0  2  0  0  3  0  0  0  0  0  0
  160.9550  202.7660  151.5730 C   0  0  0  0  0  1  0  0  0  0  0  0
  160.3710  203.6770  150.6770 O   0  0  0  0  0  0  0  0  0  0  0  0
  162.3460  205.6180  152.7810 C   0  0  0  0  0  3  0  0  0  0  0  0
  161.8530  205.2360  151.7490 C   0  0  0  0  0  0  0  0  0  0  0  0
  1 39  1  1  0  0  0
  2  6  1  1  0  0  0
  2  4  1  0  0  0  0
  2  1  1  0  0  0  0
  3  5  1  0  0  0  0
  4  3  1  1  0  0  0
  4  1  1  0  0  0  0
  4  5  1  0  0  0  0
  5 18  1  1  0  0  0
  6  7  1  6  0  0  0
  8  9  1  6  0  0  0
  8 10  1  0  0  0  0
  8  6  1  0  0  0  0
 11 12  1  0  0  0  0
 12 10  1  0  0  0  0
 12 13  1  0  0  0  0
 13 17  1  1  0  0  0
 14 13  1  0  0  0  0
 15 11  1  0  0  0  0
 15 14  2  0  0  0  0
 16 11  2  0  0  0  0
 19 18  1  6  0  0  0
 19 20  1  0  0  0  0
 20 21  1  0  0  0  0
 22 19  1  0  0  0  0
 22 29  1  6  0  0  0
 23 22  1  0  0  0  0
 24 23  1  0  0  0  0
 25 26  1  6  0  0  0
 25 24  1  0  0  0  0
 27 25  1  0  0  0  0
 28 27  1  0  0  0  0
 29 32  1  0  0  0  0
 30 33  1  0  0  0  0
 31 32  2  0  0  0  0
 32 30  1  0  0  0  0
 33 35  1  0  0  0  0
 33 34  1  1  0  0  0
 37 36  1  0  0  0  0
 37 35  1  0  0  0  0
 38 37  2  0  0  0  0
 39 41  1  0  0  0  0
 39 43  1  1  0  0  0
 41 40  1  0  0  0  0
 43 42  3  0  0  0  0
M  END
>  <MODEL>
3

>  <REMARK>
 VINA RESULT:      -5.9      2.504     10.690
  Name = 
  20 active torsions:
  status: ('A' for Active; 'I' for Inactive)
    1  A    between atoms: C_2  and  C_14
    2  A    between atoms: C_2  and  C_26
    3  A    between atoms: C_2  and  N_42
    4  A    between atoms: O_3  and  C_27
    5  A    between atoms: O_3  and  N_42
    6  A    between atoms: C_4  and  N_10
    7  A    between atoms: C_4  and  C_33
    8  A    between atoms: C_5  and  C_19
    9  A    between atoms: C_8  and  C_16
   10  A    between atoms: C_11  and  N_17
   11  A    between atoms: C_11  and  C_20
   12  A    between atoms: C_14  and  C_34
   13  A    between atoms: O_15  and  C_19
   14  A    between atoms: C_16  and  C_33
   15  A    between atoms: C_18  and  C_26
   16  A    between atoms: C_19  and  C_36
   17  A    between atoms: C_20  and  C_32
   18  A    between atoms: C_23  and  C_27
   19  A    between atoms: C_26  and  C_38
   20  A    between atoms: C_38  and  C_41
                            x       y       z     vdW  Elec       q    Type
                         _______ _______ _______ _____ _____    ______ ____

>  <TORSDO>
F 20

$$$$
=
 OpenBabel11072410123D

 43 45  0  0  1  0  0  0  0  0999 V2000
  161.4450  210.2360  153.9940 C   0  0  2  0  0  3  0  0  0  0  0  0
  160.6020  211.2970  153.3630 C   0  0  1  0  0  3  0  0  0  0  0  0
  160.8210  210.2700  151.3260 C   0  0  0  0  0  2  0  0  0  0  0  0
  160.5650  209.8710  152.7870 C   0  0  2  0  0  0  0  0  0  0  0  0
  161.7050  209.2740  151.9490 C   0  0  1  0  0  3  0  0  0  0  0  0
  159.2920  211.6170  154.0920 C   0  0  2  0  0  3  0  0  0  0  0  0
  158.3640  210.6030  153.8410 O   0  0  0  0  0  1  0  0  0  0  0  0
  158.7220  212.9550  153.6280 C   0  0  2  0  0  3  0  0  0  0  0  0
  159.6050  213.5710  152.7350 O   0  0  0  0  0  1  0  0  0  0  0  0
  158.5120  213.8730  154.8290 C   0  0  0  0  0  2  0  0  0  0  0  0
  156.9770  212.9870  156.6420 C   0  0  0  0  0  0  0  0  0  0  0  0
  157.1990  213.6870  155.4480 N   0  0  0  0  0  0  0  0  0  0  0  0
  155.9410  214.3000  155.0550 C   0  0  2  0  0  3  0  0  0  0  0  0
  154.9350  213.9610  156.0780 N   0  0  0  0  0  0  0  0  0  0  0  0
  155.5860  213.1190  157.0900 C   0  0  0  0  0  3  0  0  0  0  0  0
  157.8740  212.3530  157.2600 O   0  0  0  0  0  0  0  0  0  0  0  0
  155.5170  213.7760  153.7680 N   0  0  0  0  0  1  0  0  0  0  0  0
  161.3020  207.8660  151.5280 C   0  0  0  0  0  2  0  0  0  0  0  0
  161.1770  207.7140  150.0080 C   0  0  1  0  0  3  0  0  0  0  0  0
  162.5170  208.0160  149.3500 C   0  0  0  0  0  2  0  0  0  0  0  0
  162.4210  209.1490  148.5430 O   0  0  0  0  0  1  0  0  0  0  0  0
  160.6260  206.3400  149.5730 C   0  0  1  0  0  3  0  0  0  0  0  0
  160.3730  206.2910  148.1340 N   0  0  0  0  0  2  0  0  0  0  0  0
  161.5270  205.9020  147.5360 O   0  0  0  0  0  0  0  0  0  0  0  0
  161.4440  206.4020  146.2330 C   0  0  2  0  0  3  0  0  0  0  0  0
  160.1140  206.0000  145.6220 C   0  0  0  0  0  1  0  0  0  0  0  0
  162.5730  205.8370  145.3920 C   0  0  0  0  0  2  0  0  0  0  0  0
  162.7910  204.5010  145.7250 O   0  0  0  0  0  1  0  0  0  0  0  0
  161.5380  205.1800  149.9960 C   0  0  0  0  0  2  0  0  0  0  0  0
  161.3140  203.1340  148.5340 N   0  0  0  0  0  2  0  0  0  0  0  0
  160.1560  203.3090  150.5580 O   0  0  0  0  0  0  0  0  0  0  0  0
  160.9470  203.8320  149.7270 C   0  0  0  0  0  0  0  0  0  0  0  0
  160.7960  201.8120  148.1950 C   0  0  2  0  0  3  0  0  0  0  0  0
  161.0230  200.8340  149.3410 C   0  0  0  0  0  1  0  0  0  0  0  0
  161.4220  201.3020  146.8950 C   0  0  0  0  0  2  0  0  0  0  0  0
  159.9120  200.4120  145.1120 O   0  0  0  0  0  0  0  0  0  0  0  0
  160.5350  201.5010  145.7060 C   0  0  0  0  0  0  0  0  0  0  0  0
  160.3240  202.6620  145.2650 O   0  0  0  0  0  1  0  0  0  0  0  0
  160.8740  209.5800  155.2680 C   0  0  2  0  0  3  0  0  0  0  0  0
  161.0700  211.0120  157.0530 C   0  0  0  0  0  1  0  0  0  0  0  0
  161.6070  209.8680  156.4430 O   0  0  0  0  0  0  0  0  0  0  0  0
  160.4000  206.9610  154.9610 C   0  0  0  0  0  3  0  0  0  0  0  0
  160.6150  208.1390  155.0990 C   0  0  0  0  0  0  0  0  0  0  0  0
  1 39  1  1  0  0  0
  2  1  1  0  0  0  0
  2  6  1  1  0  0  0
  3  5  1  0  0  0  0
  4  3  1  1  0  0  0
  4  2  1  0  0  0  0
  4  1  1  0  0  0  0
  5 18  1  6  0  0  0
  5  4  1  0  0  0  0
  6  7  1  6  0  0  0
  8  9  1  6  0  0  0
  8  6  1  0  0  0  0
  8 10  1  0  0  0  0
 10 12  1  0  0  0  0
 11 15  1  0  0  0  0
 11 16  2  0  0  0  0
 12 11  1  0  0  0  0
 13 17  1  6  0  0  0
 13 12  1  0  0  0  0
 13 14  1  0  0  0  0
 14 15  2  0  0  0  0
 19 20  1  6  0  0  0
 19 18  1  0  0  0  0
 21 20  1  0  0  0  0
 22 29  1  6  0  0  0
 22 19  1  0  0  0  0
 23 22  1  0  0  0  0
 24 23  1  0  0  0  0
 25 26  1  6  0  0  0
 25 24  1  0  0  0  0
 27 28  1  0  0  0  0
 27 25  1  0  0  0  0
 30 32  1  0  0  0  0
 32 29  1  0  0  0  0
 32 31  2  0  0  0  0
 33 30  1  0  0  0  0
 33 34  1  1  0  0  0
 35 33  1  0  0  0  0
 36 37  2  0  0  0  0
 37 35  1  0  0  0  0
 38 37  1  0  0  0  0
 39 43  1  6  0  0  0
 39 41  1  0  0  0  0
 41 40  1  0  0  0  0
 42 43  3  0  0  0  0
M  END
>  <MODEL>
4

>  <REMARK>
 VINA RESULT:      -5.8      1.612      4.000
  Name = 
  20 active torsions:
  status: ('A' for Active; 'I' for Inactive)
    1  A    between atoms: C_2  and  C_14
    2  A    between atoms: C_2  and  C_26
    3  A    between atoms: C_2  and  N_42
    4  A    between atoms: O_3  and  C_27
    5  A    between atoms: O_3  and  N_42
    6  A    between atoms: C_4  and  N_10
    7  A    between atoms: C_4  and  C_33
    8  A    between atoms: C_5  and  C_19
    9  A    between atoms: C_8  and  C_16
   10  A    between atoms: C_11  and  N_17
   11  A    between atoms: C_11  and  C_20
   12  A    between atoms: C_14  and  C_34
   13  A    between atoms: O_15  and  C_19
   14  A    between atoms: C_16  and  C_33
   15  A    between atoms: C_18  and  C_26
   16  A    between atoms: C_19  and  C_36
   17  A    between atoms: C_20  and  C_32
   18  A    between atoms: C_23  and  C_27
   19  A    between atoms: C_26  and  C_38
   20  A    between atoms: C_38  and  C_41
                            x       y       z     vdW  Elec       q    Type
                         _______ _______ _______ _____ _____    ______ ____

>  <TORSDO>
F 20

$$$$
=
 OpenBabel11072410123D

 43 45  0  0  1  0  0  0  0  0999 V2000
  160.5310  206.6570  150.4800 C   0  0  2  0  0  3  0  0  0  0  0  0
  161.1270  206.7530  149.1120 C   0  0  1  0  0  3  0  0  0  0  0  0
  161.5990  208.9680  149.4650 C   0  0  0  0  0  2  0  0  0  0  0  0
  161.6860  207.6420  150.2360 C   0  0  2  0  0  0  0  0  0  0  0  0
  160.9470  208.8730  150.7800 C   0  0  1  0  0  3  0  0  0  0  0  0
  162.1270  205.6500  148.7510 C   0  0  2  0  0  3  0  0  0  0  0  0
  163.1010  206.1700  147.8930 O   0  0  0  0  0  1  0  0  0  0  0  0
  161.4240  204.4770  148.0710 C   0  0  2  0  0  3  0  0  0  0  0  0
  161.4420  203.3550  148.9060 O   0  0  0  0  0  1  0  0  0  0  0  0
  162.1340  204.1340  146.7650 C   0  0  0  0  0  2  0  0  0  0  0  0
  160.7770  202.3450  145.5860 C   0  0  0  0  0  0  0  0  0  0  0  0
  161.2060  203.6720  145.7310 N   0  0  0  0  0  0  0  0  0  0  0  0
  160.4520  204.4860  144.7930 C   0  0  2  0  0  3  0  0  0  0  0  0
  159.5180  203.5980  144.0750 N   0  0  0  0  0  0  0  0  0  0  0  0
  159.7240  202.2310  144.5710 C   0  0  0  0  0  3  0  0  0  0  0  0
  161.2240  201.3850  146.2690 O   0  0  0  0  0  0  0  0  0  0  0  0
  161.3560  205.1080  143.8400 N   0  0  0  0  0  1  0  0  0  0  0  0
  161.8150  209.5170  151.8540 C   0  0  0  0  0  2  0  0  0  0  0  0
  161.0070  209.9780  153.0720 C   0  0  1  0  0  3  0  0  0  0  0  0
  161.9440  210.5820  154.1110 C   0  0  0  0  0  2  0  0  0  0  0  0
  161.8170  209.9160  155.3290 O   0  0  0  0  0  1  0  0  0  0  0  0
  159.8560  210.9410  152.7150 C   0  0  1  0  0  3  0  0  0  0  0  0
  158.7210  210.7840  153.6220 N   0  0  0  0  0  2  0  0  0  0  0  0
  158.7770  211.8030  154.5160 O   0  0  0  0  0  0  0  0  0  0  0  0
  157.4420  212.0960  154.8130 C   0  0  2  0  0  3  0  0  0  0  0  0
  157.2890  213.5920  155.0240 C   0  0  0  0  0  1  0  0  0  0  0  0
  157.0230  211.3670  156.0750 C   0  0  0  0  0  2  0  0  0  0  0  0
  157.7590  211.8390  157.1620 O   0  0  0  0  0  1  0  0  0  0  0  0
  160.3080  212.4060  152.6710 C   0  0  0  0  0  2  0  0  0  0  0  0
  160.2350  213.2090  150.2780 N   0  0  0  0  0  2  0  0  0  0  0  0
  158.5820  213.8260  151.8140 O   0  0  0  0  0  0  0  0  0  0  0  0
  159.6520  213.1980  151.5840 C   0  0  0  0  0  0  0  0  0  0  0  0
  159.6590  213.9440  149.1560 C   0  0  2  0  0  3  0  0  0  0  0  0
  158.3410  213.3160  148.7200 C   0  0  0  0  0  1  0  0  0  0  0  0
  160.6510  214.0230  147.9940 C   0  0  0  0  0  2  0  0  0  0  0  0
  162.7380  212.6700  148.2490 O   0  0  0  0  0  1  0  0  0  0  0  0
  161.4260  212.7570  147.8050 C   0  0  0  0  0  0  0  0  0  0  0  0
  160.8770  211.7550  147.2740 O   0  0  0  0  0  0  0  0  0  0  0  0
  161.0240  205.4870  151.3570 C   0  0  2  0  0  3  0  0  0  0  0  0
  160.7850  203.3100  152.0490 C   0  0  0  0  0  1  0  0  0  0  0  0
  160.1700  204.3610  151.3490 O   0  0  0  0  0  0  0  0  0  0  0  0
  161.6860  206.2600  153.8360 C   0  0  0  0  0  3  0  0  0  0  0  0
  161.3900  205.9130  152.7200 C   0  0  0  0  0  0  0  0  0  0  0  0
  1 39  1  1  0  0  0
  2  6  1  1  0  0  0
  2  4  1  0  0  0  0
  2  1  1  0  0  0  0
  3  5  1  0  0  0  0
  4  3  1  1  0  0  0
  4  1  1  0  0  0  0
  4  5  1  0  0  0  0
  5 18  1  1  0  0  0
  6  7  1  6  0  0  0
  8  6  1  0  0  0  0
  8  9  1  1  0  0  0
 10  8  1  0  0  0  0
 11 12  1  0  0  0  0
 11 16  2  0  0  0  0
 12 10  1  0  0  0  0
 13 17  1  6  0  0  0
 13 12  1  0  0  0  0
 14 15  2  0  0  0  0
 14 13  1  0  0  0  0
 15 11  1  0  0  0  0
 19 18  1  6  0  0  0
 19 20  1  0  0  0  0
 20 21  1  0  0  0  0
 22 29  1  1  0  0  0
 22 19  1  0  0  0  0
 22 23  1  0  0  0  0
 23 24  1  0  0  0  0
 24 25  1  0  0  0  0
 25 26  1  1  0  0  0
 25 27  1  0  0  0  0
 27 28  1  0  0  0  0
 30 32  1  0  0  0  0
 32 31  2  0  0  0  0
 32 29  1  0  0  0  0
 33 34  1  6  0  0  0
 33 30  1  0  0  0  0
 35 33  1  0  0  0  0
 37 35  1  0  0  0  0
 37 36  1  0  0  0  0
 38 37  2  0  0  0  0
 39 43  1  1  0  0  0
 41 39  1  0  0  0  0
 41 40  1  0  0  0  0
 43 42  3  0  0  0  0
M  END
>  <MODEL>
5

>  <REMARK>
 VINA RESULT:      -5.7      2.607      9.842
  Name = 
  20 active torsions:
  status: ('A' for Active; 'I' for Inactive)
    1  A    between atoms: C_2  and  C_14
    2  A    between atoms: C_2  and  C_26
    3  A    between atoms: C_2  and  N_42
    4  A    between atoms: O_3  and  C_27
    5  A    between atoms: O_3  and  N_42
    6  A    between atoms: C_4  and  N_10
    7  A    between atoms: C_4  and  C_33
    8  A    between atoms: C_5  and  C_19
    9  A    between atoms: C_8  and  C_16
   10  A    between atoms: C_11  and  N_17
   11  A    between atoms: C_11  and  C_20
   12  A    between atoms: C_14  and  C_34
   13  A    between atoms: O_15  and  C_19
   14  A    between atoms: C_16  and  C_33
   15  A    between atoms: C_18  and  C_26
   16  A    between atoms: C_19  and  C_36
   17  A    between atoms: C_20  and  C_32
   18  A    between atoms: C_23  and  C_27
   19  A    between atoms: C_26  and  C_38
   20  A    between atoms: C_38  and  C_41
                            x       y       z     vdW  Elec       q    Type
                         _______ _______ _______ _____ _____    ______ ____

>  <TORSDO>
F 20

$$$$
=
 OpenBabel11072410123D

 43 45  0  0  1  0  0  0  0  0999 V2000
  160.8070  210.5950  154.6920 C   0  0  2  0  0  3  0  0  0  0  0  0
  159.5540  211.2290  154.1760 C   0  0  1  0  0  3  0  0  0  0  0  0
  159.9940  210.4110  152.0810 C   0  0  0  0  0  2  0  0  0  0  0  0
  160.0500  209.9200  153.5360 C   0  0  2  0  0  0  0  0  0  0  0  0
  161.2560  209.8530  152.5880 C   0  0  1  0  0  3  0  0  0  0  0  0
  158.2960  210.9750  155.0140 C   0  0  2  0  0  3  0  0  0  0  0  0
  157.1800  210.9410  154.1730 O   0  0  0  0  0  1  0  0  0  0  0  0
  158.1100  212.0680  156.0640 C   0  0  2  0  0  3  0  0  0  0  0  0
  156.8530  211.9490  156.6650 O   0  0  0  0  0  1  0  0  0  0  0  0
  158.2160  213.4410  155.4060 C   0  0  0  0  0  2  0  0  0  0  0  0
  157.0870  214.1900  153.2630 C   0  0  0  0  0  0  0  0  0  0  0  0
  157.0390  213.7630  154.5970 N   0  0  0  0  0  0  0  0  0  0  0  0
  155.6430  213.5570  154.9460 C   0  0  2  0  0  3  0  0  0  0  0  0
  154.8310  213.8580  153.7530 N   0  0  0  0  0  0  0  0  0  0  0  0
  155.7440  214.2680  152.6770 C   0  0  0  0  0  3  0  0  0  0  0  0
  158.1550  214.4420  152.6450 O   0  0  0  0  0  0  0  0  0  0  0  0
  155.2670  214.4530  156.0260 N   0  0  0  0  0  1  0  0  0  0  0  0
  161.4250  208.4100  152.1310 C   0  0  0  0  0  2  0  0  0  0  0  0
  161.3010  208.2520  150.6110 C   0  0  1  0  0  3  0  0  0  0  0  0
  162.3600  209.0990  149.9180 C   0  0  0  0  0  2  0  0  0  0  0  0
  161.8270  209.7160  148.7870 O   0  0  0  0  0  1  0  0  0  0  0  0
  161.3510  206.7830  150.1420 C   0  0  1  0  0  3  0  0  0  0  0  0
  161.0340  205.8580  151.2290 N   0  0  0  0  0  2  0  0  0  0  0  0
  161.6940  204.6990  150.9770 O   0  0  0  0  0  0  0  0  0  0  0  0
  160.6990  203.7180  150.9430 C   0  0  2  0  0  3  0  0  0  0  0  0
  160.5950  203.0580  152.3060 C   0  0  0  0  0  1  0  0  0  0  0  0
  161.0460  202.6680  149.9050 C   0  0  0  0  0  2  0  0  0  0  0  0
  159.8890  202.2480  149.2490 O   0  0  0  0  0  1  0  0  0  0  0  0
  160.4420  206.5200  148.9340 C   0  0  0  0  0  2  0  0  0  0  0  0
  160.4740  205.6990  146.5470 N   0  0  0  0  0  2  0  0  0  0  0  0
  162.3110  205.3850  147.9600 O   0  0  0  0  0  0  0  0  0  0  0  0
  161.1400  205.8270  147.8060 C   0  0  0  0  0  0  0  0  0  0  0  0
  161.0800  205.0480  145.3890 C   0  0  2  0  0  3  0  0  0  0  0  0
  161.4500  206.0750  144.3260 C   0  0  0  0  0  1  0  0  0  0  0  0
  160.1510  203.9710  144.8250 C   0  0  0  0  0  2  0  0  0  0  0  0
  159.6240  201.5370  145.0460 O   0  0  0  0  0  0  0  0  0  0  0  0
  160.4520  202.6060  145.3600 C   0  0  0  0  0  0  0  0  0  0  0  0
  161.4770  202.4180  146.0680 O   0  0  0  0  0  1  0  0  0  0  0  0
  160.6640  209.7450  155.9710 C   0  0  2  0  0  3  0  0  0  0  0  0
  162.6240  210.8360  156.4660 C   0  0  0  0  0  1  0  0  0  0  0  0
  161.8190  209.7310  156.7860 O   0  0  0  0  0  0  0  0  0  0  0  0
  159.7200  207.2850  155.4800 C   0  0  0  0  0  3  0  0  0  0  0  0
  160.1430  208.3930  155.7000 C   0  0  0  0  0  0  0  0  0  0  0  0
  1 39  1  1  0  0  0
  2  1  1  0  0  0  0
  2  6  1  1  0  0  0
  3  5  1  0  0  0  0
  4  3  1  1  0  0  0
  4  2  1  0  0  0  0
  4  1  1  0  0  0  0
  5 18  1  6  0  0  0
  5  4  1  0  0  0  0
  6  7  1  6  0  0  0
  6  8  1  0  0  0  0
  8  9  1  6  0  0  0
 10  8  1  0  0  0  0
 11 12  1  0  0  0  0
 12 13  1  0  0  0  0
 12 10  1  0  0  0  0
 13 17  1  1  0  0  0
 14 13  1  0  0  0  0
 15 11  1  0  0  0  0
 15 14  2  0  0  0  0
 16 11  2  0  0  0  0
 19 20  1  6  0  0  0
 19 18  1  0  0  0  0
 21 20  1  0  0  0  0
 22 29  1  6  0  0  0
 22 19  1  0  0  0  0
 22 23  1  0  0  0  0
 24 23  1  0  0  0  0
 25 24  1  0  0  0  0
 25 26  1  1  0  0  0
 27 25  1  0  0  0  0
 28 27  1  0  0  0  0
 30 32  1  0  0  0  0
 32 31  2  0  0  0  0
 32 29  1  0  0  0  0
 33 34  1  6  0  0  0
 33 30  1  0  0  0  0
 35 37  1  0  0  0  0
 35 33  1  0  0  0  0
 36 37  2  0  0  0  0
 37 38  1  0  0  0  0
 39 43  1  6  0  0  0
 39 41  1  0  0  0  0
 40 41  1  0  0  0  0
 42 43  3  0  0  0  0
M  END
>  <MODEL>
6

>  <REMARK>
 VINA RESULT:      -5.6      1.834      3.346
  Name = 
  20 active torsions:
  status: ('A' for Active; 'I' for Inactive)
    1  A    between atoms: C_2  and  C_14
    2  A    between atoms: C_2  and  C_26
    3  A    between atoms: C_2  and  N_42
    4  A    between atoms: O_3  and  C_27
    5  A    between atoms: O_3  and  N_42
    6  A    between atoms: C_4  and  N_10
    7  A    between atoms: C_4  and  C_33
    8  A    between atoms: C_5  and  C_19
    9  A    between atoms: C_8  and  C_16
   10  A    between atoms: C_11  and  N_17
   11  A    between atoms: C_11  and  C_20
   12  A    between atoms: C_14  and  C_34
   13  A    between atoms: O_15  and  C_19
   14  A    between atoms: C_16  and  C_33
   15  A    between atoms: C_18  and  C_26
   16  A    between atoms: C_19  and  C_36
   17  A    between atoms: C_20  and  C_32
   18  A    between atoms: C_23  and  C_27
   19  A    between atoms: C_26  and  C_38
   20  A    between atoms: C_38  and  C_41
                            x       y       z     vdW  Elec       q    Type
                         _______ _______ _______ _____ _____    ______ ____

>  <TORSDO>
F 20

$$$$
=
 OpenBabel11072410123D

 43 45  0  0  1  0  0  0  0  0999 V2000
  160.7780  206.1800  149.6420 C   0  0  2  0  0  3  0  0  0  0  0  0
  161.2840  206.2190  148.2350 C   0  0  1  0  0  3  0  0  0  0  0  0
  161.9090  208.4060  148.5120 C   0  0  0  0  0  2  0  0  0  0  0  0
  161.9700  207.0900  149.3020 C   0  0  2  0  0  0  0  0  0  0  0  0
  161.3440  208.3720  149.8690 C   0  0  1  0  0  3  0  0  0  0  0  0
  162.1910  205.0510  147.8300 C   0  0  2  0  0  3  0  0  0  0  0  0
  163.4130  205.5510  147.3720 O   0  0  0  0  0  1  0  0  0  0  0  0
  161.5410  204.2110  146.7330 C   0  0  2  0  0  3  0  0  0  0  0  0
  160.8900  205.0400  145.8140 O   0  0  0  0  0  1  0  0  0  0  0  0
  160.5220  203.2560  147.3480 C   0  0  0  0  0  2  0  0  0  0  0  0
  160.4580  201.2370  145.8150 C   0  0  0  0  0  0  0  0  0  0  0  0
  160.8040  201.8570  147.0230 N   0  0  0  0  0  0  0  0  0  0  0  0
  161.6090  200.9170  147.7870 C   0  0  2  0  0  3  0  0  0  0  0  0
  161.7600  199.6920  146.9800 N   0  0  0  0  0  0  0  0  0  0  0  0
  161.0230  199.8860  145.7230 C   0  0  0  0  0  3  0  0  0  0  0  0
  159.7720  201.7910  144.9140 O   0  0  0  0  0  0  0  0  0  0  0  0
  160.9390  200.5940  149.0350 N   0  0  0  0  0  1  0  0  0  0  0  0
  162.3200  208.9790  150.8690 C   0  0  0  0  0  2  0  0  0  0  0  0
  161.8020  210.2830  151.4870 C   0  0  1  0  0  3  0  0  0  0  0  0
  161.2140  211.1700  150.3970 C   0  0  0  0  0  2  0  0  0  0  0  0
  162.1800  211.4730  149.4390 O   0  0  0  0  0  1  0  0  0  0  0  0
  160.8020  210.0600  152.6400 C   0  0  1  0  0  3  0  0  0  0  0  0
  161.3430  210.5170  153.9190 N   0  0  0  0  0  2  0  0  0  0  0  0
  161.6790  209.4130  154.6320 O   0  0  0  0  0  0  0  0  0  0  0  0
  160.4860  208.9870  155.2230 C   0  0  2  0  0  3  0  0  0  0  0  0
  160.2860  209.7190  156.5380 C   0  0  0  0  0  1  0  0  0  0  0  0
  160.5440  207.4950  155.4840 C   0  0  0  0  0  2  0  0  0  0  0  0
  159.5870  207.1420  156.4350 O   0  0  0  0  0  1  0  0  0  0  0  0
  159.4400  210.7120  152.3710 C   0  0  0  0  0  2  0  0  0  0  0  0
  158.2130  211.8060  154.2880 N   0  0  0  0  0  2  0  0  0  0  0  0
  159.8060  212.9800  153.0410 O   0  0  0  0  0  0  0  0  0  0  0  0
  159.1720  211.9060  153.2310 C   0  0  0  0  0  0  0  0  0  0  0  0
  157.8960  212.9150  155.1820 C   0  0  2  0  0  3  0  0  0  0  0  0
  158.6740  212.7960  156.4860 C   0  0  0  0  0  1  0  0  0  0  0  0
  156.3890  212.9920  155.4370 C   0  0  0  0  0  2  0  0  0  0  0  0
  156.3250  214.4490  153.4060 O   0  0  0  0  0  0  0  0  0  0  0  0
  155.7010  213.9880  154.5570 C   0  0  0  0  0  0  0  0  0  0  0  0
  154.5390  214.3830  154.8410 O   0  0  0  0  0  1  0  0  0  0  0  0
  161.2600  204.9980  150.5070 C   0  0  2  0  0  3  0  0  0  0  0  0
  160.8970  202.8900  151.3450 C   0  0  0  0  0  1  0  0  0  0  0  0
  160.3270  203.9400  150.6080 O   0  0  0  0  0  0  0  0  0  0  0  0
  162.2000  205.7800  152.8910 C   0  0  0  0  0  3  0  0  0  0  0  0
  161.7760  205.4260  151.8190 C   0  0  0  0  0  0  0  0  0  0  0  0
  1 39  1  1  0  0  0
  2  6  1  1  0  0  0
  2  4  1  0  0  0  0
  2  1  1  0  0  0  0
  3  5  1  0  0  0  0
  4  3  1  1  0  0  0
  4  1  1  0  0  0  0
  4  5  1  0  0  0  0
  5 18  1  1  0  0  0
  6  7  1  6  0  0  0
  8  9  1  6  0  0  0
  8 10  1  0  0  0  0
  8  6  1  0  0  0  0
 11 12  1  0  0  0  0
 12 10  1  0  0  0  0
 12 13  1  0  0  0  0
 13 17  1  1  0  0  0
 14 13  1  0  0  0  0
 15 11  1  0  0  0  0
 15 14  2  0  0  0  0
 16 11  2  0  0  0  0
 18 19  1  0  0  0  0
 19 20  1  6  0  0  0
 19 22  1  0  0  0  0
 21 20  1  0  0  0  0
 22 29  1  6  0  0  0
 22 23  1  0  0  0  0
 23 24  1  0  0  0  0
 24 25  1  0  0  0  0
 25 27  1  0  0  0  0
 25 26  1  1  0  0  0
 27 28  1  0  0  0  0
 29 32  1  0  0  0  0
 30 33  1  0  0  0  0
 31 32  2  0  0  0  0
 32 30  1  0  0  0  0
 33 35  1  0  0  0  0
 33 34  1  1  0  0  0
 36 37  2  0  0  0  0
 37 38  1  0  0  0  0
 37 35  1  0  0  0  0
 39 41  1  0  0  0  0
 39 43  1  1  0  0  0
 41 40  1  0  0  0  0
 43 42  3  0  0  0  0
M  END
>  <MODEL>
7

>  <REMARK>
 VINA RESULT:      -5.6      2.267     10.611
  Name = 
  20 active torsions:
  status: ('A' for Active; 'I' for Inactive)
    1  A    between atoms: C_2  and  C_14
    2  A    between atoms: C_2  and  C_26
    3  A    between atoms: C_2  and  N_42
    4  A    between atoms: O_3  and  C_27
    5  A    between atoms: O_3  and  N_42
    6  A    between atoms: C_4  and  N_10
    7  A    between atoms: C_4  and  C_33
    8  A    between atoms: C_5  and  C_19
    9  A    between atoms: C_8  and  C_16
   10  A    between atoms: C_11  and  N_17
   11  A    between atoms: C_11  and  C_20
   12  A    between atoms: C_14  and  C_34
   13  A    between atoms: O_15  and  C_19
   14  A    between atoms: C_16  and  C_33
   15  A    between atoms: C_18  and  C_26
   16  A    between atoms: C_19  and  C_36
   17  A    between atoms: C_20  and  C_32
   18  A    between atoms: C_23  and  C_27
   19  A    between atoms: C_26  and  C_38
   20  A    between atoms: C_38  and  C_41
                            x       y       z     vdW  Elec       q    Type
                         _______ _______ _______ _____ _____    ______ ____

>  <TORSDO>
F 20

$$$$
=
 OpenBabel11072410123D

 43 45  0  0  1  0  0  0  0  0999 V2000
  162.2820  208.2740  150.7980 C   0  0  2  0  0  3  0  0  0  0  0  0
  161.8250  209.0820  151.9710 C   0  0  1  0  0  3  0  0  0  0  0  0
  161.9410  210.9920  150.7080 C   0  0  0  0  0  2  0  0  0  0  0  0
  161.4510  209.5440  150.5510 C   0  0  2  0  0  0  0  0  0  0  0  0
  162.4560  210.1920  149.5870 C   0  0  1  0  0  3  0  0  0  0  0  0
  160.5920  208.5410  152.7020 C   0  0  2  0  0  3  0  0  0  0  0  0
  159.6440  209.5610  152.8280 O   0  0  0  0  0  1  0  0  0  0  0  0
  160.9650  208.0190  154.0880 C   0  0  2  0  0  3  0  0  0  0  0  0
  160.8410  206.6270  154.1270 O   0  0  0  0  0  1  0  0  0  0  0  0
  160.0400  208.6280  155.1370 C   0  0  0  0  0  2  0  0  0  0  0  0
  161.8190  209.4610  156.7410 C   0  0  0  0  0  0  0  0  0  0  0  0
  160.7020  209.6720  155.9220 N   0  0  0  0  0  0  0  0  0  0  0  0
  160.4450  211.1020  155.8850 C   0  0  2  0  0  3  0  0  0  0  0  0
  161.4740  211.7670  156.7060 N   0  0  0  0  0  0  0  0  0  0  0  0
  162.3500  210.7260  157.2610 C   0  0  0  0  0  3  0  0  0  0  0  0
  162.3150  208.3250  156.9710 O   0  0  0  0  0  0  0  0  0  0  0  0
  159.1300  211.3830  156.4380 N   0  0  0  0  0  1  0  0  0  0  0  0
  161.7220  210.5450  148.2990 C   0  0  0  0  0  2  0  0  0  0  0  0
  161.5700  212.0570  148.0980 C   0  0  1  0  0  3  0  0  0  0  0  0
  162.9240  212.6700  147.7650 C   0  0  0  0  0  2  0  0  0  0  0  0
  163.0330  213.9440  148.3220 O   0  0  0  0  0  1  0  0  0  0  0  0
  160.5020  212.4310  147.0500 C   0  0  1  0  0  3  0  0  0  0  0  0
  159.3880  213.1620  147.6510 N   0  0  0  0  0  2  0  0  0  0  0  0
  159.6570  213.2880  148.9750 O   0  0  0  0  0  0  0  0  0  0  0  0
  158.5990  214.0440  149.4880 C   0  0  2  0  0  3  0  0  0  0  0  0
  158.4120  213.7170  150.9590 C   0  0  0  0  0  1  0  0  0  0  0  0
  157.3220  213.7190  148.7370 C   0  0  0  0  0  2  0  0  0  0  0  0
  156.2700  213.5560  149.6370 O   0  0  0  0  0  1  0  0  0  0  0  0
  161.0860  213.2210  145.8710 C   0  0  0  0  0  2  0  0  0  0  0  0
  161.2400  213.1510  143.3520 N   0  0  0  0  0  2  0  0  0  0  0  0
  159.4590  212.1430  144.4850 O   0  0  0  0  0  0  0  0  0  0  0  0
  160.5290  212.8080  144.5450 C   0  0  0  0  0  0  0  0  0  0  0  0
  160.7780  212.7820  142.0170 C   0  0  2  0  0  3  0  0  0  0  0  0
  159.3830  213.3370  141.7570 C   0  0  0  0  0  1  0  0  0  0  0  0
  160.8180  211.2640  141.8300 C   0  0  0  0  0  2  0  0  0  0  0  0
  161.6440  209.5560  140.2020 O   0  0  0  0  0  0  0  0  0  0  0  0
  161.7330  210.8390  140.7250 C   0  0  0  0  0  0  0  0  0  0  0  0
  162.5610  211.6560  140.2430 O   0  0  0  0  0  1  0  0  0  0  0  0
  161.4370  207.0290  150.4590 C   0  0  2  0  0  3  0  0  0  0  0  0
  160.8960  204.8530  150.9550 C   0  0  0  0  0  1  0  0  0  0  0  0
  161.8850  205.8410  151.0810 O   0  0  0  0  0  0  0  0  0  0  0  0
  161.0490  206.7340  147.8240 C   0  0  0  0  0  3  0  0  0  0  0  0
  161.2240  206.8650  149.0090 C   0  0  0  0  0  0  0  0  0  0  0  0
  1 39  1  1  0  0  0
  1  2  1  0  0  0  0
  2  6  1  1  0  0  0
  4  3  1  6  0  0  0
  4  1  1  0  0  0  0
  4  2  1  0  0  0  0
  5 18  1  6  0  0  0
  5  4  1  0  0  0  0
  5  3  1  0  0  0  0
  6  7  1  1  0  0  0
  6  8  1  0  0  0  0
  8  9  1  6  0  0  0
  8 10  1  0  0  0  0
 10 12  1  0  0  0  0
 11 16  2  0  0  0  0
 11 15  1  0  0  0  0
 12 11  1  0  0  0  0
 13 12  1  0  0  0  0
 13 17  1  1  0  0  0
 13 14  1  0  0  0  0
 14 15  2  0  0  0  0
 19 20  1  6  0  0  0
 19 18  1  0  0  0  0
 20 21  1  0  0  0  0
 22 29  1  6  0  0  0
 22 23  1  0  0  0  0
 22 19  1  0  0  0  0
 23 24  1  0  0  0  0
 24 25  1  0  0  0  0
 25 26  1  1  0  0  0
 27 25  1  0  0  0  0
 27 28  1  0  0  0  0
 30 32  1  0  0  0  0
 31 32  2  0  0  0  0
 32 29  1  0  0  0  0
 33 34  1  1  0  0  0
 33 30  1  0  0  0  0
 35 33  1  0  0  0  0
 36 37  2  0  0  0  0
 37 35  1  0  0  0  0
 38 37  1  0  0  0  0
 39 43  1  6  0  0  0
 39 41  1  0  0  0  0
 40 41  1  0  0  0  0
 42 43  3  0  0  0  0
M  END
>  <MODEL>
8

>  <REMARK>
 VINA RESULT:      -5.5      4.360      7.419
  Name = 
  20 active torsions:
  status: ('A' for Active; 'I' for Inactive)
    1  A    between atoms: C_2  and  C_14
    2  A    between atoms: C_2  and  C_26
    3  A    between atoms: C_2  and  N_42
    4  A    between atoms: O_3  and  C_27
    5  A    between atoms: O_3  and  N_42
    6  A    between atoms: C_4  and  N_10
    7  A    between atoms: C_4  and  C_33
    8  A    between atoms: C_5  and  C_19
    9  A    between atoms: C_8  and  C_16
   10  A    between atoms: C_11  and  N_17
   11  A    between atoms: C_11  and  C_20
   12  A    between atoms: C_14  and  C_34
   13  A    between atoms: O_15  and  C_19
   14  A    between atoms: C_16  and  C_33
   15  A    between atoms: C_18  and  C_26
   16  A    between atoms: C_19  and  C_36
   17  A    between atoms: C_20  and  C_32
   18  A    between atoms: C_23  and  C_27
   19  A    between atoms: C_26  and  C_38
   20  A    between atoms: C_38  and  C_41
                            x       y       z     vdW  Elec       q    Type
                         _______ _______ _______ _____ _____    ______ ____

>  <TORSDO>
F 20

$$$$
=
 OpenBabel11072410123D

 43 45  0  0  1  0  0  0  0  0999 V2000
  161.4780  210.1260  154.6420 C   0  0  2  0  0  3  0  0  0  0  0  0
  160.5010  211.1760  154.2200 C   0  0  1  0  0  3  0  0  0  0  0  0
  160.8550  210.6310  152.0220 C   0  0  0  0  0  2  0  0  0  0  0  0
  160.6550  209.9080  153.3620 C   0  0  2  0  0  0  0  0  0  0  0  0
  161.8640  209.6510  152.4510 C   0  0  1  0  0  3  0  0  0  0  0  0
  159.1610  211.1640  154.9620 C   0  0  2  0  0  3  0  0  0  0  0  0
  158.1170  211.2170  154.0340 O   0  0  0  0  0  1  0  0  0  0  0  0
  159.0540  212.3530  155.9150 C   0  0  2  0  0  3  0  0  0  0  0  0
  160.2940  212.6030  156.5130 O   0  0  0  0  0  1  0  0  0  0  0  0
  158.0300  212.0530  157.0060 C   0  0  0  0  0  2  0  0  0  0  0  0
  155.4970  212.1580  156.9680 C   0  0  0  0  0  0  0  0  0  0  0  0
  156.7580  212.7390  156.7780 N   0  0  0  0  0  0  0  0  0  0  0  0
  156.5550  214.1480  156.4780 C   0  0  2  0  0  3  0  0  0  0  0  0
  155.1040  214.4120  156.5150 N   0  0  0  0  0  0  0  0  0  0  0  0
  154.4230  213.1460  156.8210 C   0  0  0  0  0  3  0  0  0  0  0  0
  155.3210  210.9450  157.2610 O   0  0  0  0  0  0  0  0  0  0  0  0
  157.0670  214.4500  155.1520 N   0  0  0  0  0  1  0  0  0  0  0  0
  161.6520  208.3210  151.7390 C   0  0  0  0  0  2  0  0  0  0  0  0
  161.5980  208.4660  150.2140 C   0  0  1  0  0  3  0  0  0  0  0  0
  162.4770  209.6320  149.7780 C   0  0  0  0  0  2  0  0  0  0  0  0
  161.8940  210.3080  148.7070 O   0  0  0  0  0  1  0  0  0  0  0  0
  161.9600  207.1690  149.4620 C   0  0  1  0  0  3  0  0  0  0  0  0
  161.9980  206.0160  150.3600 N   0  0  0  0  0  2  0  0  0  0  0  0
  160.9190  205.2460  150.0730 O   0  0  0  0  0  0  0  0  0  0  0  0
  160.5380  204.6880  151.2960 C   0  0  2  0  0  3  0  0  0  0  0  0
  161.5250  205.1060  152.3710 C   0  0  0  0  0  1  0  0  0  0  0  0
  160.5250  203.1740  151.1910 C   0  0  0  0  0  2  0  0  0  0  0  0
  160.4190  202.7920  149.8540 O   0  0  0  0  0  1  0  0  0  0  0  0
  161.0210  206.8940  148.2800 C   0  0  0  0  0  2  0  0  0  0  0  0
  160.9120  205.0720  146.5360 N   0  0  0  0  0  2  0  0  0  0  0  0
  162.8420  206.3610  146.8200 O   0  0  0  0  0  0  0  0  0  0  0  0
  161.6620  206.1030  147.1840 C   0  0  0  0  0  0  0  0  0  0  0  0
  161.4520  204.2570  145.4510 C   0  0  2  0  0  3  0  0  0  0  0  0
  161.9740  205.1380  144.3240 C   0  0  0  0  0  1  0  0  0  0  0  0
  160.4020  203.2660  144.9440 C   0  0  0  0  0  2  0  0  0  0  0  0
  161.4310  201.6630  146.5640 O   0  0  0  0  0  1  0  0  0  0  0  0
  160.6160  201.8780  145.4610 C   0  0  0  0  0  0  0  0  0  0  0  0
  160.0280  200.9050  144.9170 O   0  0  0  0  0  0  0  0  0  0  0  0
  160.9990  209.1510  155.7380 C   0  0  2  0  0  3  0  0  0  0  0  0
  162.5120  210.2600  157.0630 C   0  0  0  0  0  1  0  0  0  0  0  0
  161.8920  209.0230  156.8270 O   0  0  0  0  0  0  0  0  0  0  0  0
  160.2300  206.7800  154.7540 C   0  0  0  0  0  3  0  0  0  0  0  0
  160.5760  207.8480  155.1950 C   0  0  0  0  0  0  0  0  0  0  0  0
  1 39  1  1  0  0  0
  2  1  1  0  0  0  0
  2  6  1  1  0  0  0
  3  5  1  0  0  0  0
  4  3  1  1  0  0  0
  4  2  1  0  0  0  0
  4  1  1  0  0  0  0
  5 18  1  6  0  0  0
  5  4  1  0  0  0  0
  6  7  1  6  0  0  0
  6  8  1  0  0  0  0
  8  9  1  1  0  0  0
  8 10  1  0  0  0  0
 11 16  2  0  0  0  0
 12 11  1  0  0  0  0
 12 10  1  0  0  0  0
 13 17  1  6  0  0  0
 13 14  1  0  0  0  0
 13 12  1  0  0  0  0
 14 15  2  0  0  0  0
 15 11  1  0  0  0  0
 19 20  1  6  0  0  0
 19 18  1  0  0  0  0
 21 20  1  0  0  0  0
 22 29  1  6  0  0  0
 22 19  1  0  0  0  0
 22 23  1  0  0  0  0
 24 23  1  0  0  0  0
 24 25  1  0  0  0  0
 25 26  1  1  0  0  0
 27 25  1  0  0  0  0
 28 27  1  0  0  0  0
 30 32  1  0  0  0  0
 31 32  2  0  0  0  0
 32 29  1  0  0  0  0
 33 34  1  6  0  0  0
 33 30  1  0  0  0  0
 35 33  1  0  0  0  0
 35 37  1  0  0  0  0
 37 36  1  0  0  0  0
 38 37  2  0  0  0  0
 39 43  1  6  0  0  0
 39 41  1  0  0  0  0
 41 40  1  0  0  0  0
 42 43  3  0  0  0  0
M  END
>  <MODEL>
9

>  <REMARK>
 VINA RESULT:      -5.2      1.906      3.570
  Name = 
  20 active torsions:
  status: ('A' for Active; 'I' for Inactive)
    1  A    between atoms: C_2  and  C_14
    2  A    between atoms: C_2  and  C_26
    3  A    between atoms: C_2  and  N_42
    4  A    between atoms: O_3  and  C_27
    5  A    between atoms: O_3  and  N_42
    6  A    between atoms: C_4  and  N_10
    7  A    between atoms: C_4  and  C_33
    8  A    between atoms: C_5  and  C_19
    9  A    between atoms: C_8  and  C_16
   10  A    between atoms: C_11  and  N_17
   11  A    between atoms: C_11  and  C_20
   12  A    between atoms: C_14  and  C_34
   13  A    between atoms: O_15  and  C_19
   14  A    between atoms: C_16  and  C_33
   15  A    between atoms: C_18  and  C_26
   16  A    between atoms: C_19  and  C_36
   17  A    between atoms: C_20  and  C_32
   18  A    between atoms: C_23  and  C_27
   19  A    between atoms: C_26  and  C_38
   20  A    between atoms: C_38  and  C_41
                            x       y       z     vdW  Elec       q    Type
                         _______ _______ _______ _____ _____    ______ ____

>  <TORSDO>
F 20

$$$$
