=
 OpenBabel11072414413D

 60 64  0  0  1  0  0  0  0  0999 V2000
  161.0140  203.4540  149.1960 C   0  0  1  0  0  3  0  0  0  0  0  0
  161.9710  205.2770  153.0660 C   0  0  0  0  0  3  0  0  0  0  0  0
  160.3960  202.4130  151.8050 O   0  0  0  0  0  0  0  0  0  0  0  0
  160.8490  207.2470  152.2220 C   0  0  0  0  0  0  0  0  0  0  0  0
  161.4460  201.1550  148.6230 O   0  0  0  0  0  0  0  0  0  0  0  0
  160.6170  205.1260  151.0560 C   0  0  0  0  0  0  0  0  0  0  0  0
  160.1450  204.3930  149.9110 N   0  0  0  0  0  2  0  0  0  0  0  0
  160.6900  201.4510  150.8410 C   0  0  2  0  0  3  0  0  0  0  0  0
  161.2850  202.7100  146.8190 C   0  0  0  0  0  0  0  0  0  0  0  0
  160.5990  201.9720  149.3980 C   0  0  1  0  0  3  0  0  0  0  0  0
  161.5370  202.9620  145.6040 O   0  0  0  0  0  0  0  0  0  0  0  0
  161.0560  203.7780  147.7570 N   0  0  0  0  0  0  0  0  0  0  0  0
  161.4130  204.5140  152.0460 C   0  0  0  0  0  0  0  0  0  0  0  0
  161.6160  203.0360  152.0810 C   0  0  0  0  0  2  0  0  0  0  0  0
  160.3050  206.4900  151.1720 C   0  0  0  0  0  3  0  0  0  0  0  0
  161.0770  201.2900  147.2740 C   0  0  1  0  0  3  0  0  0  0  0  0
  159.8090  200.3820  150.9860 O   0  0  0  0  0  1  0  0  0  0  0  0
  161.6990  206.6380  153.1440 C   0  0  0  0  0  3  0  0  0  0  0  0
  161.8430  200.4160  146.4910 O   0  0  0  0  0  1  0  0  0  0  0  0
  160.5780  205.0510  147.2150 C   0  0  0  0  0  2  0  0  0  0  0  0
  161.7240  206.0270  146.9280 C   0  0  0  0  0  2  0  0  0  0  0  0
  162.1890  205.9230  145.4760 C   0  0  0  0  0  2  0  0  0  0  0  0
  161.1560  206.4670  144.4870 C   0  0  0  0  0  2  0  0  0  0  0  0
  161.4620  204.3500  143.7260 O   0  0  0  0  0  1  0  0  0  0  0  0
  161.0680  205.5880  143.3270 N   0  0  0  0  0  0  0  0  0  0  0  0
  162.0530  206.0530  142.3580 C   0  0  0  0  0  2  0  0  0  0  0  0
  161.4540  206.9670  141.4850 O   0  0  0  0  0  0  0  0  0  0  0  0
  162.1060  206.7830  140.2640 C   0  0  0  0  0  2  0  0  0  0  0  0
  162.4620  207.8770  137.6480 O   0  0  0  0  0  0  0  0  0  0  0  0
  162.3160  209.5990  139.8050 O   0  0  0  0  0  1  0  0  0  0  0  0
  161.7310  208.1590  139.1480 P   0  0  0  0  0  0  0  0  0  0  0  0
  160.2350  208.2620  138.9630 O   0  0  0  0  0  1  0  0  0  0  0  0
  160.5380  208.6000  152.3580 O   0  0  0  0  0  0  0  0  0  0  0  0
  161.5480  209.5830  152.5350 C   0  0  2  0  0  3  0  0  0  0  0  0
  159.4040  208.1160  155.3810 C   0  0  0  0  0  2  0  0  0  0  0  0
  160.1460  210.1170  155.4700 C   0  0  2  0  0  0  0  0  0  0  0  0
  161.4340  210.4210  154.1780 P   0  0  0  0  0  0  0  0  0  0  0  0
  162.8510  211.1010  154.7800 O   0  0  0  0  0  1  0  0  0  0  0  0
  160.6690  208.7770  155.9150 C   0  0  2  0  0  3  0  0  0  0  0  0
  161.7870  208.7830  154.9040 C   0  0  0  0  0  2  0  0  0  0  0  0
  158.8360  209.4790  155.0220 C   0  0  2  0  0  3  0  0  0  0  0  0
  160.1150  211.0470  156.5630 O   0  0  0  0  0  0  0  0  0  0  0  0
  160.9770  213.2810  156.7320 O   0  0  0  0  0  1  0  0  0  0  0  0
  159.9210  212.4270  156.4510 C   0  0  0  0  0  0  0  0  0  0  0  0
  158.8040  212.9100  156.1200 O   0  0  0  0  0  0  0  0  0  0  0  0
  160.8510  212.0030  153.4900 C   0  0  0  0  0  2  0  0  0  0  0  0
  159.1480  213.2030  152.7740 C   0  0  0  0  0  1  0  0  0  0  0  0
  159.5630  211.8860  152.9680 O   0  0  0  0  0  0  0  0  0  0  0  0
  157.5550  209.8050  155.8380 C   0  0  0  0  0  2  0  0  0  0  0  0
  156.6600  211.4800  154.4420 O   0  0  0  0  0  0  0  0  0  0  0  0
  156.4120  210.5360  155.1680 C   0  0  0  0  0  0  0  0  0  0  0  0
  154.9860  210.0990  155.2720 C   0  0  0  0  0  1  0  0  0  0  0  0
  161.4680  210.5810  151.3770 C   0  0  0  0  0  2  0  0  0  0  0  0
  161.9140  209.0750  149.5640 O   0  0  0  0  0  1  0  0  0  0  0  0
  162.3950  210.2070  150.2300 C   0  0  1  0  0  3  0  0  0  0  0  0
  162.5900  211.3710  149.2580 C   0  0  0  0  0  2  0  0  0  0  0  0
  161.3310  212.1810  148.8960 C   0  0  2  0  0  3  0  0  0  0  0  0
  160.8700  211.7500  147.5030 C   0  0  0  0  0  1  0  0  0  0  0  0
  161.5360  213.6960  148.9330 C   0  0  0  0  0  2  0  0  0  0  0  0
  162.6440  214.0810  148.1700 O   0  0  0  0  0  1  0  0  0  0  0  0
  1 10  1  0  0  0  0
  1  7  1  1  0  0  0
  2 18  1  0  0  0  0
  3 14  1  0  0  0  0
  4 33  1  0  0  0  0
  4 18  2  0  0  0  0
  6 15  2  0  0  0  0
  6 13  1  0  0  0  0
  7  6  1  0  0  0  0
  8 17  1  6  0  0  0
  8  3  1  0  0  0  0
  9 16  1  0  0  0  0
  9 12  1  0  0  0  0
 10  5  1  6  0  0  0
 10  8  1  0  0  0  0
 11  9  2  0  0  0  0
 12  1  1  0  0  0  0
 13 14  1  0  0  0  0
 13  2  2  0  0  0  0
 15  4  1  0  0  0  0
 16 19  1  6  0  0  0
 16  5  1  0  0  0  0
 20 12  1  0  0  0  0
 21 20  1  0  0  0  0
 22 21  1  0  0  0  0
 23 22  1  0  0  0  0
 25 24  1  0  0  0  0
 25 23  1  0  0  0  0
 26 25  1  0  0  0  0
 27 26  1  0  0  0  0
 28 27  1  0  0  0  0
 29 31  2  0  0  0  0
 31 30  1  0  0  0  0
 31 28  1  0  0  0  0
 32 31  1  0  0  0  0
 33 34  1  0  0  0  0
 34 53  1  6  0  0  0
 34 37  1  0  0  0  0
 35 39  1  0  0  0  0
 36 39  1  0  0  0  0
 36 42  1  1  0  0  0
 37 38  1  0  0  0  0
 37 40  1  0  0  0  0
 37 36  1  0  0  0  0
 39 40  1  6  0  0  0
 41 35  1  0  0  0  0
 41 36  1  0  0  0  0
 41 49  1  1  0  0  0
 44 42  1  0  0  0  0
 44 43  1  0  0  0  0
 45 44  2  0  0  0  0
 46 37  1  0  0  0  0
 47 48  1  0  0  0  0
 48 46  1  0  0  0  0
 50 51  2  0  0  0  0
 51 52  1  0  0  0  0
 51 49  1  0  0  0  0
 55 54  1  6  0  0  0
 55 53  1  0  0  0  0
 56 55  1  0  0  0  0
 57 58  1  6  0  0  0
 57 59  1  0  0  0  0
 57 56  1  0  0  0  0
 60 59  1  0  0  0  0
M  END
>  <MODEL>
1

>  <REMARK>
 VINA RESULT:      -1.9      0.000      0.000
  Name = 
  23 active torsions:
  status: ('A' for Active; 'I' for Inactive)
    1  A    between atoms: C_3  and  C_20
    2  A    between atoms: C_4  and  O_38
    3  A    between atoms: C_5  and  C_29
    4  A    between atoms: C_5  and  C_58
    5  A    between atoms: C_6  and  C_8
    6  A    between atoms: C_6  and  P_15
    7  A    between atoms: C_6  and  O_49
    8  A    between atoms: C_8  and  C_21
    9  A    between atoms: C_11  and  C_19
   10  A    between atoms: C_11  and  C_48
   11  A    between atoms: C_12  and  P_15
   12  A    between atoms: C_12  and  O_59
   13  A    between atoms: C_13  and  O_49
   14  A    between atoms: C_20  and  C_60
   15  A    between atoms: C_21  and  C_60
   16  A    between atoms: C_27  and  O_28
   17  A    between atoms: C_27  and  N_51
   18  A    between atoms: O_28  and  C_33
   19  A    between atoms: C_29  and  C_50
   20  A    between atoms: C_32  and  O_38
   21  A    between atoms: C_33  and  P_41
   22  A    between atoms: N_43  and  C_50
   23  A    between atoms: N_51  and  C_58
                            x       y       z     vdW  Elec       q    Type
                         _______ _______ _______ _____ _____    ______ ____

>  <TORSDO>
F 23

$$$$
=
 OpenBabel11072414413D

 60 64  0  0  1  0  0  0  0  0999 V2000
  158.1220  212.2080  153.3790 C   0  0  1  0  0  3  0  0  0  0  0  0
  160.4330  208.5900  154.2680 C   0  0  0  0  0  3  0  0  0  0  0  0
  159.6460  211.6630  155.7570 O   0  0  0  0  0  0  0  0  0  0  0  0
  161.5380  208.9830  152.1520 C   0  0  0  0  0  0  0  0  0  0  0  0
  156.5480  213.2300  154.8890 O   0  0  0  0  0  0  0  0  0  0  0  0
  160.1620  210.7260  153.1440 C   0  0  0  0  0  0  0  0  0  0  0  0
  159.5320  212.0150  153.0300 N   0  0  0  0  0  2  0  0  0  0  0  0
  158.4880  212.4100  155.9580 C   0  0  2  0  0  3  0  0  0  0  0  0
  156.2500  213.6560  152.5590 C   0  0  0  0  0  0  0  0  0  0  0  0
  157.9280  213.0420  154.6740 C   0  0  1  0  0  3  0  0  0  0  0  0
  155.4710  214.0380  151.6370 O   0  0  0  0  0  0  0  0  0  0  0  0
  157.3900  212.8310  152.2600 N   0  0  0  0  0  0  0  0  0  0  0  0
  159.9240  209.8850  154.2510 C   0  0  0  0  0  0  0  0  0  0  0  0
  159.1990  210.3720  155.4600 C   0  0  0  0  0  2  0  0  0  0  0  0
  161.0060  210.2820  152.1130 C   0  0  0  0  0  3  0  0  0  0  0  0
  156.0820  214.1770  153.9610 C   0  0  1  0  0  3  0  0  0  0  0  0
  158.7580  213.4250  156.8740 O   0  0  0  0  0  1  0  0  0  0  0  0
  161.2250  208.1410  153.2170 C   0  0  0  0  0  3  0  0  0  0  0  0
  154.7310  214.4520  154.2150 O   0  0  0  0  0  1  0  0  0  0  0  0
  157.9320  212.9080  150.9020 C   0  0  0  0  0  2  0  0  0  0  0  0
  158.8290  214.1350  150.7040 C   0  0  0  0  0  2  0  0  0  0  0  0
  159.9600  213.8400  149.7190 C   0  0  0  0  0  2  0  0  0  0  0  0
  159.6710  214.3700  148.3140 C   0  0  0  0  0  2  0  0  0  0  0  0
  160.7020  212.4580  147.6540 O   0  0  0  0  0  1  0  0  0  0  0  0
  159.6500  213.2660  147.3610 N   0  0  0  0  0  0  0  0  0  0  0  0
  159.9050  213.8320  146.0410 C   0  0  0  0  0  2  0  0  0  0  0  0
  160.4590  212.8510  145.2110 O   0  0  0  0  0  0  0  0  0  0  0  0
  161.4110  213.5230  144.4430 C   0  0  0  0  0  2  0  0  0  0  0  0
  160.3500  214.2730  141.8960 O   0  0  0  0  0  0  0  0  0  0  0  0
  160.4200  211.5940  142.5760 O   0  0  0  0  0  1  0  0  0  0  0  0
  161.2300  213.0690  142.6980 P   0  0  0  0  0  0  0  0  0  0  0  0
  162.5980  212.9470  142.0680 O   0  0  0  0  0  1  0  0  0  0  0  0
  162.3880  208.5340  151.1420 O   0  0  0  0  0  0  0  0  0  0  0  0
  162.2290  207.2520  150.5500 C   0  0  2  0  0  3  0  0  0  0  0  0
  160.7820  204.1210  148.8330 C   0  0  0  0  0  2  0  0  0  0  0  0
  161.1530  205.9160  147.7360 C   0  0  2  0  0  0  0  0  0  0  0  0
  161.4790  207.3450  148.8640 P   0  0  0  0  0  0  0  0  0  0  0  0
  160.5460  208.7040  148.5240 O   0  0  0  0  0  1  0  0  0  0  0  0
  159.9740  205.3690  148.4970 C   0  0  2  0  0  3  0  0  0  0  0  0
  160.0700  206.4240  149.5690 C   0  0  0  0  0  2  0  0  0  0  0  0
  161.9340  204.6310  147.9830 C   0  0  2  0  0  3  0  0  0  0  0  0
  160.7870  206.2460  146.3880 O   0  0  0  0  0  0  0  0  0  0  0  0
  161.0410  205.6160  144.0840 O   0  0  0  0  0  0  0  0  0  0  0  0
  161.6020  206.0890  145.2620 C   0  0  0  0  0  0  0  0  0  0  0  0
  162.8350  206.3500  145.3010 O   0  0  0  0  0  1  0  0  0  0  0  0
  162.9670  208.0520  148.0860 C   0  0  0  0  0  2  0  0  0  0  0  0
  163.4420  210.1440  147.5890 C   0  0  0  0  0  1  0  0  0  0  0  0
  163.3140  209.2710  148.6680 O   0  0  0  0  0  0  0  0  0  0  0  0
  162.2090  203.7050  146.7660 C   0  0  0  0  0  2  0  0  0  0  0  0
  160.9940  201.7750  147.3660 O   0  0  0  0  0  0  0  0  0  0  0  0
  161.2650  202.5580  146.4750 C   0  0  0  0  0  0  0  0  0  0  0  0
  160.5630  202.3860  145.1670 C   0  0  0  0  0  1  0  0  0  0  0  0
  161.4060  206.3740  151.4960 C   0  0  0  0  0  2  0  0  0  0  0  0
  163.2150  205.2800  152.6260 O   0  0  0  0  0  1  0  0  0  0  0  0
  162.1010  205.0580  151.8110 C   0  0  1  0  0  3  0  0  0  0  0  0
  161.1450  204.0540  152.4540 C   0  0  0  0  0  2  0  0  0  0  0  0
  161.2380  202.6000  151.9550 C   0  0  2  0  0  3  0  0  0  0  0  0
  162.7100  202.1860  151.9610 C   0  0  0  0  0  1  0  0  0  0  0  0
  160.6400  202.3810  150.5650 C   0  0  0  0  0  2  0  0  0  0  0  0
  159.9310  201.1760  150.4970 O   0  0  0  0  0  1  0  0  0  0  0  0
  1  7  1  6  0  0  0
  1 10  1  0  0  0  0
  3  8  1  0  0  0  0
  4 18  1  0  0  0  0
  6 13  2  0  0  0  0
  7  6  1  0  0  0  0
  8 17  1  1  0  0  0
  9 16  1  0  0  0  0
 10  5  1  1  0  0  0
 10  8  1  0  0  0  0
 11  9  2  0  0  0  0
 12  9  1  0  0  0  0
 12  1  1  0  0  0  0
 13  2  1  0  0  0  0
 13 14  1  0  0  0  0
 14  3  1  0  0  0  0
 15  4  2  0  0  0  0
 15  6  1  0  0  0  0
 16 19  1  1  0  0  0
 16  5  1  0  0  0  0
 18  2  2  0  0  0  0
 20 12  1  0  0  0  0
 21 20  1  0  0  0  0
 22 21  1  0  0  0  0
 23 22  1  0  0  0  0
 25 24  1  0  0  0  0
 25 23  1  0  0  0  0
 26 25  1  0  0  0  0
 27 26  1  0  0  0  0
 28 27  1  0  0  0  0
 29 31  2  0  0  0  0
 30 31  1  0  0  0  0
 31 28  1  0  0  0  0
 32 31  1  0  0  0  0
 33  4  1  0  0  0  0
 34 33  1  0  0  0  0
 34 53  1  1  0  0  0
 36 42  1  6  0  0  0
 36 41  1  0  0  0  0
 36 39  1  0  0  0  0
 36 37  1  0  0  0  0
 37 40  1  0  0  0  0
 37 34  1  0  0  0  0
 38 37  1  0  0  0  0
 39 35  1  1  0  0  0
 39 40  1  0  0  0  0
 41 49  1  6  0  0  0
 41 35  1  0  0  0  0
 43 44  2  0  0  0  0
 44 45  1  0  0  0  0
 44 42  1  0  0  0  0
 46 48  1  0  0  0  0
 46 37  1  0  0  0  0
 47 48  1  0  0  0  0
 51 49  1  0  0  0  0
 51 50  2  0  0  0  0
 52 51  1  0  0  0  0
 53 55  1  0  0  0  0
 55 56  1  0  0  0  0
 55 54  1  1  0  0  0
 57 58  1  6  0  0  0
 57 56  1  0  0  0  0
 59 57  1  0  0  0  0
 60 59  1  0  0  0  0
M  END
>  <MODEL>
2

>  <REMARK>
 VINA RESULT:      -0.6      3.136      9.690
  Name = 
  23 active torsions:
  status: ('A' for Active; 'I' for Inactive)
    1  A    between atoms: C_3  and  C_20
    2  A    between atoms: C_4  and  O_38
    3  A    between atoms: C_5  and  C_29
    4  A    between atoms: C_5  and  C_58
    5  A    between atoms: C_6  and  C_8
    6  A    between atoms: C_6  and  P_15
    7  A    between atoms: C_6  and  O_49
    8  A    between atoms: C_8  and  C_21
    9  A    between atoms: C_11  and  C_19
   10  A    between atoms: C_11  and  C_48
   11  A    between atoms: C_12  and  P_15
   12  A    between atoms: C_12  and  O_59
   13  A    between atoms: C_13  and  O_49
   14  A    between atoms: C_20  and  C_60
   15  A    between atoms: C_21  and  C_60
   16  A    between atoms: C_27  and  O_28
   17  A    between atoms: C_27  and  N_51
   18  A    between atoms: O_28  and  C_33
   19  A    between atoms: C_29  and  C_50
   20  A    between atoms: C_32  and  O_38
   21  A    between atoms: C_33  and  P_41
   22  A    between atoms: N_43  and  C_50
   23  A    between atoms: N_51  and  C_58
                            x       y       z     vdW  Elec       q    Type
                         _______ _______ _______ _____ _____    ______ ____

>  <TORSDO>
F 23

$$$$
=
 OpenBabel11072414413D

 60 64  0  0  1  0  0  0  0  0999 V2000
  161.4960  204.3970  147.8830 C   0  0  1  0  0  3  0  0  0  0  0  0
  161.1860  208.7670  147.7460 C   0  0  0  0  0  3  0  0  0  0  0  0
  162.7080  206.1630  145.9640 O   0  0  0  0  0  0  0  0  0  0  0  0
  161.9490  208.7220  150.0410 C   0  0  0  0  0  0  0  0  0  0  0  0
  161.1490  202.9420  145.9960 O   0  0  0  0  0  0  0  0  0  0  0  0
  162.1180  206.7230  148.6670 C   0  0  0  0  0  0  0  0  0  0  0  0
  162.4100  205.3180  148.5650 N   0  0  0  0  0  2  0  0  0  0  0  0
  162.3070  204.9290  145.4570 C   0  0  2  0  0  3  0  0  0  0  0  0
  160.8170  202.0020  148.1650 C   0  0  0  0  0  0  0  0  0  0  0  0
  162.0640  203.8650  146.5390 C   0  0  1  0  0  3  0  0  0  0  0  0
  160.3070  201.0720  148.8560 O   0  0  0  0  0  0  0  0  0  0  0  0
  161.1410  203.2690  148.7660 N   0  0  0  0  0  0  0  0  0  0  0  0
  161.5900  207.4470  147.5780 C   0  0  0  0  0  0  0  0  0  0  0  0
  161.5200  206.8580  146.2090 C   0  0  0  0  0  2  0  0  0  0  0  0
  162.3340  207.3800  149.8890 C   0  0  0  0  0  3  0  0  0  0  0  0
  161.2280  201.7510  146.7390 C   0  0  1  0  0  3  0  0  0  0  0  0
  163.2850  204.4590  144.5830 O   0  0  0  0  0  1  0  0  0  0  0  0
  161.3550  209.3950  148.9750 C   0  0  0  0  0  3  0  0  0  0  0  0
  160.3960  200.7840  146.1590 O   0  0  0  0  0  1  0  0  0  0  0  0
  161.3930  203.2790  150.2080 C   0  0  0  0  0  2  0  0  0  0  0  0
  160.1380  202.9410  151.0190 C   0  0  0  0  0  2  0  0  0  0  0  0
  160.2970  203.3560  152.4820 C   0  0  0  0  0  2  0  0  0  0  0  0
  161.5070  204.2640  152.7090 C   0  0  0  0  0  2  0  0  0  0  0  0
  160.6260  206.1070  151.7200 O   0  0  0  0  0  1  0  0  0  0  0  0
  161.0650  205.6380  152.9170 N   0  0  0  0  0  0  0  0  0  0  0  0
  162.2430  206.4200  153.2730 C   0  0  0  0  0  2  0  0  0  0  0  0
  161.9510  207.2310  154.3740 O   0  0  0  0  0  0  0  0  0  0  0  0
  160.6240  206.9400  154.6960 C   0  0  0  0  0  2  0  0  0  0  0  0
  161.6800  207.9590  157.1490 O   0  0  0  0  0  1  0  0  0  0  0  0
  159.4180  206.3720  157.2270 O   0  0  0  0  0  1  0  0  0  0  0  0
  160.2400  207.5590  156.3540 P   0  0  0  0  0  0  0  0  0  0  0  0
  159.3740  208.7920  156.2420 O   0  0  0  0  0  0  0  0  0  0  0  0
  162.1690  209.3920  151.2440 O   0  0  0  0  0  0  0  0  0  0  0  0
  161.5370  210.6310  151.5340 C   0  0  2  0  0  3  0  0  0  0  0  0
  159.2020  213.5770  152.3800 C   0  0  0  0  0  2  0  0  0  0  0  0
  159.3020  211.8470  153.6290 C   0  0  2  0  0  0  0  0  0  0  0  0
  160.1980  210.4600  152.7960 P   0  0  0  0  0  0  0  0  0  0  0  0
  159.3600  209.0000  152.8160 O   0  0  0  0  0  1  0  0  0  0  0  0
  158.4670  212.2420  152.4400 C   0  0  2  0  0  3  0  0  0  0  0  0
  159.0900  211.2000  151.5480 C   0  0  0  0  0  2  0  0  0  0  0  0
  159.9730  213.2150  153.6380 C   0  0  2  0  0  3  0  0  0  0  0  0
  158.4720  211.4840  154.7430 O   0  0  0  0  0  0  0  0  0  0  0  0
  156.5230  210.0840  154.6680 O   0  0  0  0  0  0  0  0  0  0  0  0
  157.0810  211.3540  154.7120 C   0  0  0  0  0  0  0  0  0  0  0  0
  156.3250  212.3630  154.7040 O   0  0  0  0  0  1  0  0  0  0  0  0
  161.3260  209.9420  154.1290 C   0  0  0  0  0  2  0  0  0  0  0  0
  162.8470  210.7450  155.5050 C   0  0  0  0  0  1  0  0  0  0  0  0
  162.4710  210.7380  154.1620 O   0  0  0  0  0  0  0  0  0  0  0  0
  159.6450  214.1750  154.8140 C   0  0  0  0  0  2  0  0  0  0  0  0
  158.5540  213.6130  156.8280 O   0  0  0  0  0  0  0  0  0  0  0  0
  159.6120  213.6350  156.2280 C   0  0  0  0  0  0  0  0  0  0  0  0
  160.8020  213.0310  156.9020 C   0  0  0  0  0  1  0  0  0  0  0  0
  161.0180  211.2330  150.2260 C   0  0  0  0  0  2  0  0  0  0  0  0
  162.8850  212.0370  148.9520 O   0  0  0  0  0  1  0  0  0  0  0  0
  161.8340  212.4390  149.7830 C   0  0  1  0  0  3  0  0  0  0  0  0
  160.9630  213.4880  149.0930 C   0  0  0  0  0  2  0  0  0  0  0  0
  160.1710  213.0190  147.8580 C   0  0  2  0  0  3  0  0  0  0  0  0
  160.7730  213.6890  146.6220 C   0  0  0  0  0  1  0  0  0  0  0  0
  158.6720  213.3140  147.9340 C   0  0  0  0  0  2  0  0  0  0  0  0
  158.3360  214.4490  147.1870 O   0  0  0  0  0  1  0  0  0  0  0  0
  1  7  1  1  0  0  0
  1 12  1  0  0  0  0
  2 18  1  0  0  0  0
  3 14  1  0  0  0  0
  4 33  1  0  0  0  0
  5 16  1  0  0  0  0
  6 15  2  0  0  0  0
  7  6  1  0  0  0  0
  8 17  1  6  0  0  0
  8  3  1  0  0  0  0
  8 10  1  0  0  0  0
  9 12  1  0  0  0  0
  9 11  2  0  0  0  0
 10  5  1  6  0  0  0
 10  1  1  0  0  0  0
 12 20  1  0  0  0  0
 13  2  2  0  0  0  0
 13  6  1  0  0  0  0
 14 13  1  0  0  0  0
 15  4  1  0  0  0  0
 16 19  1  6  0  0  0
 16  9  1  0  0  0  0
 18  4  2  0  0  0  0
 20 21  1  0  0  0  0
 21 22  1  0  0  0  0
 22 23  1  0  0  0  0
 23 25  1  0  0  0  0
 24 25  1  0  0  0  0
 25 26  1  0  0  0  0
 26 27  1  0  0  0  0
 27 28  1  0  0  0  0
 28 31  1  0  0  0  0
 31 29  1  0  0  0  0
 31 30  1  0  0  0  0
 32 31  2  0  0  0  0
 33 34  1  0  0  0  0
 34 53  1  6  0  0  0
 34 37  1  0  0  0  0
 35 39  1  0  0  0  0
 35 41  1  0  0  0  0
 36 41  1  0  0  0  0
 36 42  1  1  0  0  0
 37 38  1  0  0  0  0
 37 36  1  0  0  0  0
 37 46  1  0  0  0  0
 39 40  1  6  0  0  0
 39 36  1  0  0  0  0
 40 37  1  0  0  0  0
 41 49  1  1  0  0  0
 43 44  2  0  0  0  0
 44 42  1  0  0  0  0
 45 44  1  0  0  0  0
 46 48  1  0  0  0  0
 48 47  1  0  0  0  0
 49 51  1  0  0  0  0
 51 50  2  0  0  0  0
 51 52  1  0  0  0  0
 55 54  1  6  0  0  0
 55 53  1  0  0  0  0
 56 55  1  0  0  0  0
 57 58  1  6  0  0  0
 57 59  1  0  0  0  0
 57 56  1  0  0  0  0
 60 59  1  0  0  0  0
M  END
>  <MODEL>
3

>  <REMARK>
 VINA RESULT:       0.4      3.133      7.001
  Name = 
  23 active torsions:
  status: ('A' for Active; 'I' for Inactive)
    1  A    between atoms: C_3  and  C_20
    2  A    between atoms: C_4  and  O_38
    3  A    between atoms: C_5  and  C_29
    4  A    between atoms: C_5  and  C_58
    5  A    between atoms: C_6  and  C_8
    6  A    between atoms: C_6  and  P_15
    7  A    between atoms: C_6  and  O_49
    8  A    between atoms: C_8  and  C_21
    9  A    between atoms: C_11  and  C_19
   10  A    between atoms: C_11  and  C_48
   11  A    between atoms: C_12  and  P_15
   12  A    between atoms: C_12  and  O_59
   13  A    between atoms: C_13  and  O_49
   14  A    between atoms: C_20  and  C_60
   15  A    between atoms: C_21  and  C_60
   16  A    between atoms: C_27  and  O_28
   17  A    between atoms: C_27  and  N_51
   18  A    between atoms: O_28  and  C_33
   19  A    between atoms: C_29  and  C_50
   20  A    between atoms: C_32  and  O_38
   21  A    between atoms: C_33  and  P_41
   22  A    between atoms: N_43  and  C_50
   23  A    between atoms: N_51  and  C_58
                            x       y       z     vdW  Elec       q    Type
                         _______ _______ _______ _____ _____    ______ ____

>  <TORSDO>
F 23

$$$$
