=
 OpenBabel11072415053D

 64 68  0  0  1  0  0  0  0  0999 V2000
  161.1350  208.4810  150.3920 C   0  0  0  0  0  2  0  0  0  0  0  0
  161.1310  209.8010  151.1510 C   0  0  2  0  0  3  0  0  0  0  0  0
  161.9680  213.2840  149.7070 C   0  0  0  0  0  3  0  0  0  0  0  0
  161.1900  208.8430  148.9140 C   0  0  1  0  0  3  0  0  0  0  0  0
  161.3980  210.3180  148.8960 C   0  0  0  0  0  0  0  0  0  0  0  0
  162.7400  214.2940  147.7320 O   0  0  0  0  0  0  0  0  0  0  0  0
  161.5300  212.2750  150.4710 C   0  0  0  0  0  3  0  0  0  0  0  0
  161.4040  210.8410  150.1170 C   0  0  0  0  0  0  0  0  0  0  0  0
  162.4810  213.2170  148.3260 C   0  0  0  0  0  0  0  0  0  0  0  0
  162.7310  211.9350  147.6070 C   0  0  0  0  0  2  0  0  0  0  0  0
  161.4760  211.0930  147.6240 C   0  0  0  0  0  2  0  0  0  0  0  0
  160.5850  205.9490  149.4740 C   0  0  0  0  0  2  0  0  0  0  0  0
  162.8850  206.5720  146.3740 C   0  0  0  0  0  2  0  0  0  0  0  0
  161.2430  205.7780  148.1150 C   0  0  0  0  0  0  0  0  0  0  0  0
  162.3100  208.1180  148.2280 C   0  0  0  0  0  0  0  0  0  0  0  0
  162.0800  206.8630  147.5610 N   0  0  0  0  0  0  0  0  0  0  0  0
  161.4640  204.3980  147.5560 C   0  0  0  0  0  0  0  0  0  0  0  0
  159.7730  206.1450  148.1930 C   0  0  0  0  0  2  0  0  0  0  0  0
  163.4540  208.6480  148.1820 O   0  0  0  0  0  0  0  0  0  0  0  0
  161.3070  203.4140  148.2630 O   0  0  0  0  0  0  0  0  0  0  0  0
  162.1470  205.6070  145.4480 C   0  0  2  0  0  3  0  0  0  0  0  0
  161.9430  204.2380  146.1320 C   0  0  2  0  0  3  0  0  0  0  0  0
  161.3020  202.0160  145.4450 F   0  0  0  0  0  0  0  0  0  0  0  0
  160.9680  203.3610  145.3460 C   0  0  0  0  0  3  0  0  0  0  0  0
  159.6690  203.5540  145.7820 F   0  0  0  0  0  0  0  0  0  0  0  0
  162.8530  205.4680  144.2510 O   0  0  0  0  0  0  0  0  0  0  0  0
  161.8720  205.5220  143.2550 C   0  0  0  0  0  2  0  0  0  0  0  0
  162.4700  206.0300  141.9580 C   0  0  0  0  0  2  0  0  0  0  0  0
  161.4370  206.8770  141.2440 C   0  0  0  0  0  2  0  0  0  0  0  0
  162.0600  207.6120  140.0670 C   0  0  2  0  0  3  0  0  0  0  0  0
  163.3870  207.2050  139.9110 O   0  0  0  0  0  1  0  0  0  0  0  0
  162.0330  209.1180  140.3070 C   0  0  0  0  0  2  0  0  0  0  0  0
  161.7620  209.9450  139.0480 C   0  0  2  0  0  3  0  0  0  0  0  0
  162.1000  209.2480  137.8850 O   0  0  0  0  0  1  0  0  0  0  0  0
  162.3750  211.3520  139.0890 C   0  0  2  0  0  3  0  0  0  0  0  0
  161.6860  213.2470  140.3900 O   0  0  0  0  0  1  0  0  0  0  0  0
  160.1090  212.3860  138.9690 O   0  0  0  0  0  0  0  0  0  0  0  0
  161.3820  212.3850  139.5230 C   0  0  0  0  0  0  0  0  0  0  0  0
  163.1190  211.7730  137.8160 C   0  0  0  0  0  2  0  0  0  0  0  0
  162.3430  212.6230  137.0260 O   0  0  0  0  0  1  0  0  0  0  0  0
  162.6770  210.8310  152.6730 O   0  0  0  0  0  0  0  0  0  0  0  0
  162.1540  209.7630  152.2550 C   0  0  0  0  0  0  0  0  0  0  0  0
  162.5830  208.5470  152.7890 O   0  0  0  0  0  0  0  0  0  0  0  0
  161.6790  207.4820  153.0610 C   0  0  0  0  0  2  0  0  0  0  0  0
  161.1620  207.5710  154.4640 C   0  0  0  0  0  0  0  0  0  0  0  0
  161.0980  206.4820  155.2310 C   0  0  0  0  0  2  0  0  0  0  0  0
  160.6680  208.8910  154.9690 C   0  0  0  0  0  2  0  0  0  0  0  0
  161.7060  209.5760  155.8470 C   0  0  0  0  0  2  0  0  0  0  0  0
  161.4560  211.0790  155.9340 C   0  0  1  0  0  3  0  0  0  0  0  0
  159.8190  212.7340  156.7810 C   0  0  0  0  0  2  0  0  0  0  0  0
  160.1300  211.3100  156.5430 N   0  0  0  0  0  0  0  0  0  0  0  0
  159.3390  212.0850  155.5660 C   0  0  1  0  0  3  0  0  0  0  0  0
  157.8720  211.7500  155.7310 C   0  0  0  0  0  2  0  0  0  0  0  0
  157.0280  212.9300  155.2940 C   0  0  0  0  0  2  0  0  0  0  0  0
  157.1650  213.1500  153.4990 S   0  0  0  0  0  0  0  0  0  0  0  0
  154.5900  212.5630  153.3360 O   0  0  0  0  0  1  0  0  0  0  0  0
  155.4330  213.6760  153.3220 C   0  0  2  0  0  3  0  0  0  0  0  0
  155.2410  214.4500  152.0240 C   0  0  0  0  0  2  0  0  0  0  0  0
  154.6680  213.6310  151.0460 O   0  0  0  0  0  0  0  0  0  0  0  0
  154.5520  214.4500  149.9240 C   0  0  0  0  0  1  0  0  0  0  0  0
  162.6420  211.7630  156.6460 C   0  0  0  0  0  2  0  0  0  0  0  0
  163.9630  211.0660  156.3280 C   0  0  0  0  0  2  0  0  0  0  0  0
  164.9460  211.4330  157.2550 O   0  0  0  0  0  0  0  0  0  0  0  0
  165.8750  212.1630  156.5160 C   0  0  0  0  0  1  0  0  0  0  0  0
  1  2  1  0  0  0  0
  2 42  1  1  0  0  0
  3  7  2  0  0  0  0
  4 15  1  1  0  0  0
  4  1  1  0  0  0  0
  5  4  1  0  0  0  0
  5  8  2  0  0  0  0
  6  9  2  0  0  0  0
  8  7  1  0  0  0  0
  8  2  1  0  0  0  0
  9  3  1  0  0  0  0
 10 11  1  0  0  0  0
 10  9  1  0  0  0  0
 11  5  1  0  0  0  0
 13 16  1  0  0  0  0
 14 18  1  0  0  0  0
 14 12  1  0  0  0  0
 16 14  1  0  0  0  0
 16 15  1  0  0  0  0
 17 14  1  0  0  0  0
 17 20  2  0  0  0  0
 18 12  1  0  0  0  0
 19 15  2  0  0  0  0
 21 26  1  6  0  0  0
 21 22  1  0  0  0  0
 21 13  1  0  0  0  0
 22 24  1  6  0  0  0
 22 17  1  0  0  0  0
 24 23  1  0  0  0  0
 24 25  1  0  0  0  0
 27 26  1  0  0  0  0
 28 27  1  0  0  0  0
 29 28  1  0  0  0  0
 30 31  1  1  0  0  0
 30 32  1  0  0  0  0
 30 29  1  0  0  0  0
 33 34  1  6  0  0  0
 33 35  1  0  0  0  0
 33 32  1  0  0  0  0
 35 39  1  6  0  0  0
 35 38  1  0  0  0  0
 37 38  2  0  0  0  0
 38 36  1  0  0  0  0
 40 39  1  0  0  0  0
 42 41  2  0  0  0  0
 42 43  1  0  0  0  0
 43 44  1  0  0  0  0
 44 45  1  0  0  0  0
 45 47  1  0  0  0  0
 45 46  2  0  0  0  0
 47 48  1  0  0  0  0
 49 48  1  1  0  0  0
 49 51  1  0  0  0  0
 49 61  1  0  0  0  0
 51 50  1  0  0  0  0
 52 53  1  1  0  0  0
 52 51  1  0  0  0  0
 52 50  1  0  0  0  0
 54 53  1  0  0  0  0
 55 54  1  0  0  0  0
 57 56  1  6  0  0  0
 57 55  1  0  0  0  0
 58 57  1  0  0  0  0
 59 58  1  0  0  0  0
 60 59  1  0  0  0  0
 62 61  1  0  0  0  0
 62 63  1  0  0  0  0
 64 63  1  0  0  0  0
M  END
>  <MODEL>
1

>  <REMARK>
 VINA RESULT:       0.9      0.000      0.000
  Name = 
  29 active torsions:
  status: ('A' for Active; 'I' for Inactive)
    1  A    between atoms: C_2  and  C_6
    2  A    between atoms: C_2  and  N_50
    3  A    between atoms: C_2  and  C_60
    4  A    between atoms: C_4  and  C_24
    5  A    between atoms: C_4  and  C_48
    6  A    between atoms: O_5  and  C_8
    7  A    between atoms: C_6  and  C_24
    8  A    between atoms: C_8  and  C_60
    9  A    between atoms: C_11  and  C_34
   10  A    between atoms: C_11  and  C_46
   11  A    between atoms: C_12  and  C_33
   12  A    between atoms: C_14  and  C_31
   13  A    between atoms: C_14  and  C_34
   14  A    between atoms: C_17  and  C_58
   15  A    between atoms: C_21  and  O_29
   16  A    between atoms: C_21  and  C_54
   17  A    between atoms: C_22  and  S_23
   18  A    between atoms: C_22  and  C_53
   19  A    between atoms: S_23  and  C_54
   20  A    between atoms: C_25  and  C_61
   21  A    between atoms: C_31  and  O_52
   22  A    between atoms: C_35  and  C_46
   23  A    between atoms: C_35  and  C_61
   24  A    between atoms: C_41  and  C_43
   25  A    between atoms: C_42  and  O_52
   26  A    between atoms: C_48  and  O_59
   27  A    between atoms: C_49  and  C_61
   28  A    between atoms: C_51  and  C_53
   29  A    between atoms: C_58  and  O_59
                            x       y       z     vdW  Elec       q    Type
                         _______ _______ _______ _____ _____    ______ ____

>  <TORSDO>
F 29

$$$$
=
 OpenBabel11072415053D

 64 68  0  0  1  0  0  0  0  0999 V2000
  162.4460  206.4300  149.1330 C   0  0  0  0  0  2  0  0  0  0  0  0
  162.3950  204.9140  149.2660 C   0  0  2  0  0  3  0  0  0  0  0  0
  161.1290  202.4150  146.6060 C   0  0  0  0  0  3  0  0  0  0  0  0
  162.2360  206.7310  147.6550 C   0  0  1  0  0  3  0  0  0  0  0  0
  161.8950  205.4150  147.0470 C   0  0  0  0  0  0  0  0  0  0  0  0
  160.1070  202.3760  144.4920 O   0  0  0  0  0  0  0  0  0  0  0  0
  161.7180  202.9840  147.6660 C   0  0  0  0  0  3  0  0  0  0  0  0
  161.9440  204.4240  147.9310 C   0  0  0  0  0  0  0  0  0  0  0  0
  160.5100  203.0860  145.4470 C   0  0  0  0  0  0  0  0  0  0  0  0
  160.3180  204.5620  145.3620 C   0  0  0  0  0  2  0  0  0  0  0  0
  161.6410  205.2570  145.5860 C   0  0  0  0  0  2  0  0  0  0  0  0
  162.3570  208.3790  150.1710 C   0  0  0  0  0  2  0  0  0  0  0  0
  160.6120  210.1350  147.1440 C   0  0  0  0  0  2  0  0  0  0  0  0
  161.8760  209.4630  149.2210 C   0  0  0  0  0  0  0  0  0  0  0  0
  161.1330  207.7300  147.4670 C   0  0  0  0  0  0  0  0  0  0  0  0
  161.2790  209.0890  147.9210 N   0  0  0  0  0  0  0  0  0  0  0  0
  161.5470  210.8340  149.7490 C   0  0  0  0  0  0  0  0  0  0  0  0
  163.3570  209.1460  149.3040 C   0  0  0  0  0  2  0  0  0  0  0  0
  160.0890  207.3890  146.8450 O   0  0  0  0  0  0  0  0  0  0  0  0
  161.4690  211.0280  150.9530 O   0  0  0  0  0  0  0  0  0  0  0  0
  161.3330  211.4720  147.3160 C   0  0  2  0  0  3  0  0  0  0  0  0
  161.2520  211.9540  148.7800 C   0  0  2  0  0  3  0  0  0  0  0  0
  163.3580  213.0200  148.2800 F   0  0  0  0  0  0  0  0  0  0  0  0
  162.1970  213.1300  149.0340 C   0  0  0  0  0  3  0  0  0  0  0  0
  161.5720  214.3330  148.7600 F   0  0  0  0  0  0  0  0  0  0  0  0
  160.7860  212.4180  146.4470 O   0  0  0  0  0  0  0  0  0  0  0  0
  161.5990  212.3620  145.3100 C   0  0  0  0  0  2  0  0  0  0  0  0
  160.8460  212.8870  144.1020 C   0  0  0  0  0  2  0  0  0  0  0  0
  161.6290  214.0380  143.5030 C   0  0  0  0  0  2  0  0  0  0  0  0
  162.4000  213.5840  142.2730 C   0  0  2  0  0  3  0  0  0  0  0  0
  163.4690  214.4530  142.0430 O   0  0  0  0  0  1  0  0  0  0  0  0
  161.4930  213.5840  141.0470 C   0  0  0  0  0  2  0  0  0  0  0  0
  161.3540  212.2160  140.3750 C   0  0  2  0  0  3  0  0  0  0  0  0
  162.2990  211.3030  140.8510 O   0  0  0  0  0  1  0  0  0  0  0  0
  161.3210  212.2810  138.8410 C   0  0  2  0  0  3  0  0  0  0  0  0
  159.5370  211.0750  137.7840 O   0  0  0  0  0  0  0  0  0  0  0  0
  161.4470  209.8770  138.1920 O   0  0  0  0  0  1  0  0  0  0  0  0
  160.7120  211.0540  138.2400 C   0  0  0  0  0  0  0  0  0  0  0  0
  162.6560  212.6410  138.1790 C   0  0  0  0  0  2  0  0  0  0  0  0
  163.5200  211.5440  138.1380 O   0  0  0  0  0  1  0  0  0  0  0  0
  160.3200  204.0860  150.1490 O   0  0  0  0  0  0  0  0  0  0  0  0
  161.4750  204.5270  150.3940 C   0  0  0  0  0  0  0  0  0  0  0  0
  161.8610  204.7080  151.7230 O   0  0  0  0  0  0  0  0  0  0  0  0
  160.9140  204.9610  152.7550 C   0  0  0  0  0  2  0  0  0  0  0  0
  161.1680  206.2920  153.3920 C   0  0  0  0  0  0  0  0  0  0  0  0
  162.3820  206.8440  153.3430 C   0  0  0  0  0  2  0  0  0  0  0  0
  160.0530  206.9640  154.1290 C   0  0  0  0  0  2  0  0  0  0  0  0
  160.4630  207.3260  155.5500 C   0  0  0  0  0  2  0  0  0  0  0  0
  161.1910  208.6660  155.5950 C   0  0  1  0  0  3  0  0  0  0  0  0
  158.8940  209.5840  155.4620 C   0  0  0  0  0  2  0  0  0  0  0  0
  160.3050  209.7120  155.0440 N   0  0  0  0  0  0  0  0  0  0  0  0
  159.7840  210.4800  156.1920 C   0  0  1  0  0  3  0  0  0  0  0  0
  159.5140  211.9060  155.7590 C   0  0  0  0  0  2  0  0  0  0  0  0
  158.0220  212.1150  155.5980 C   0  0  0  0  0  2  0  0  0  0  0  0
  157.3750  213.0300  157.0250 S   0  0  0  0  0  0  0  0  0  0  0  0
  155.8140  210.9330  156.6160 O   0  0  0  0  0  1  0  0  0  0  0  0
  155.7150  212.3010  156.8760 C   0  0  2  0  0  3  0  0  0  0  0  0
  154.9330  212.9810  155.7590 C   0  0  0  0  0  2  0  0  0  0  0  0
  155.3800  214.2940  155.5780 O   0  0  0  0  0  0  0  0  0  0  0  0
  155.5240  214.4300  154.1980 C   0  0  0  0  0  1  0  0  0  0  0  0
  161.7180  208.9250  157.0220 C   0  0  0  0  0  2  0  0  0  0  0  0
  162.8240  209.9770  157.0280 C   0  0  0  0  0  2  0  0  0  0  0  0
  162.8140  210.7060  155.8320 O   0  0  0  0  0  0  0  0  0  0  0  0
  164.0990  211.2350  155.7300 C   0  0  0  0  0  1  0  0  0  0  0  0
  1  2  1  0  0  0  0
  2 42  1  1  0  0  0
  3  7  2  0  0  0  0
  4 15  1  1  0  0  0
  4  1  1  0  0  0  0
  5  4  1  0  0  0  0
  5  8  2  0  0  0  0
  6  9  2  0  0  0  0
  7  8  1  0  0  0  0
  8  2  1  0  0  0  0
  9  3  1  0  0  0  0
 10  9  1  0  0  0  0
 10 11  1  0  0  0  0
 11  5  1  0  0  0  0
 13 21  1  0  0  0  0
 13 16  1  0  0  0  0
 14 18  1  0  0  0  0
 14 17  1  0  0  0  0
 14 12  1  0  0  0  0
 15 16  1  0  0  0  0
 16 14  1  0  0  0  0
 17 20  2  0  0  0  0
 18 12  1  0  0  0  0
 19 15  2  0  0  0  0
 21 26  1  6  0  0  0
 21 22  1  0  0  0  0
 22 24  1  6  0  0  0
 22 17  1  0  0  0  0
 23 24  1  0  0  0  0
 25 24  1  0  0  0  0
 27 26  1  0  0  0  0
 28 27  1  0  0  0  0
 29 28  1  0  0  0  0
 30 31  1  6  0  0  0
 30 29  1  0  0  0  0
 32 30  1  0  0  0  0
 33 34  1  6  0  0  0
 33 32  1  0  0  0  0
 35 39  1  6  0  0  0
 35 33  1  0  0  0  0
 36 38  2  0  0  0  0
 37 38  1  0  0  0  0
 38 35  1  0  0  0  0
 40 39  1  0  0  0  0
 41 42  2  0  0  0  0
 42 43  1  0  0  0  0
 43 44  1  0  0  0  0
 44 45  1  0  0  0  0
 45 47  1  0  0  0  0
 46 45  2  0  0  0  0
 47 48  1  0  0  0  0
 49 48  1  1  0  0  0
 49 61  1  0  0  0  0
 50 52  1  0  0  0  0
 51 50  1  0  0  0  0
 51 49  1  0  0  0  0
 51 52  1  0  0  0  0
 52 53  1  6  0  0  0
 54 53  1  0  0  0  0
 54 55  1  0  0  0  0
 57 56  1  6  0  0  0
 57 55  1  0  0  0  0
 58 57  1  0  0  0  0
 59 58  1  0  0  0  0
 60 59  1  0  0  0  0
 61 62  1  0  0  0  0
 63 62  1  0  0  0  0
 64 63  1  0  0  0  0
M  END
>  <MODEL>
2

>  <REMARK>
 VINA RESULT:       1.4      2.927      5.695
  Name = 
  29 active torsions:
  status: ('A' for Active; 'I' for Inactive)
    1  A    between atoms: C_2  and  C_6
    2  A    between atoms: C_2  and  N_50
    3  A    between atoms: C_2  and  C_60
    4  A    between atoms: C_4  and  C_24
    5  A    between atoms: C_4  and  C_48
    6  A    between atoms: O_5  and  C_8
    7  A    between atoms: C_6  and  C_24
    8  A    between atoms: C_8  and  C_60
    9  A    between atoms: C_11  and  C_34
   10  A    between atoms: C_11  and  C_46
   11  A    between atoms: C_12  and  C_33
   12  A    between atoms: C_14  and  C_31
   13  A    between atoms: C_14  and  C_34
   14  A    between atoms: C_17  and  C_58
   15  A    between atoms: C_21  and  O_29
   16  A    between atoms: C_21  and  C_54
   17  A    between atoms: C_22  and  S_23
   18  A    between atoms: C_22  and  C_53
   19  A    between atoms: S_23  and  C_54
   20  A    between atoms: C_25  and  C_61
   21  A    between atoms: C_31  and  O_52
   22  A    between atoms: C_35  and  C_46
   23  A    between atoms: C_35  and  C_61
   24  A    between atoms: C_41  and  C_43
   25  A    between atoms: C_42  and  O_52
   26  A    between atoms: C_48  and  O_59
   27  A    between atoms: C_49  and  C_61
   28  A    between atoms: C_51  and  C_53
   29  A    between atoms: C_58  and  O_59
                            x       y       z     vdW  Elec       q    Type
                         _______ _______ _______ _____ _____    ______ ____

>  <TORSDO>
F 29

$$$$
=
 OpenBabel11072415053D

 64 68  0  0  1  0  0  0  0  0999 V2000
  162.4160  206.3970  149.1450 C   0  0  0  0  0  2  0  0  0  0  0  0
  162.3530  204.8760  149.1910 C   0  0  2  0  0  3  0  0  0  0  0  0
  161.0860  202.5450  146.3830 C   0  0  0  0  0  3  0  0  0  0  0  0
  162.2180  206.7850  147.6860 C   0  0  1  0  0  3  0  0  0  0  0  0
  161.8710  205.5090  147.0010 C   0  0  0  0  0  0  0  0  0  0  0  0
  160.0780  202.6360  144.2640 O   0  0  0  0  0  0  0  0  0  0  0  0
  161.6730  203.0470  147.4770 C   0  0  0  0  0  3  0  0  0  0  0  0
  161.9070  204.4680  147.8260 C   0  0  0  0  0  0  0  0  0  0  0  0
  160.4800  203.2870  145.2600 C   0  0  0  0  0  0  0  0  0  0  0  0
  160.2990  204.7660  145.2600 C   0  0  0  0  0  2  0  0  0  0  0  0
  161.6250  205.4380  145.5320 C   0  0  0  0  0  2  0  0  0  0  0  0
  162.5360  208.4820  150.1520 C   0  0  0  0  0  2  0  0  0  0  0  0
  160.6270  210.2090  147.2090 C   0  0  0  0  0  2  0  0  0  0  0  0
  162.0130  209.5550  149.2110 C   0  0  0  0  0  0  0  0  0  0  0  0
  161.1230  207.8020  147.5490 C   0  0  0  0  0  0  0  0  0  0  0  0
  161.3240  209.1670  147.9620 N   0  0  0  0  0  0  0  0  0  0  0  0
  161.7460  210.9430  149.7300 C   0  0  0  0  0  0  0  0  0  0  0  0
  163.4910  209.2110  149.2040 C   0  0  0  0  0  2  0  0  0  0  0  0
  160.0340  207.4690  147.0060 O   0  0  0  0  0  0  0  0  0  0  0  0
  161.7520  211.1630  150.9320 O   0  0  0  0  0  0  0  0  0  0  0  0
  161.3820  211.5340  147.3030 C   0  0  2  0  0  3  0  0  0  0  0  0
  161.4070  212.0490  148.7580 C   0  0  2  0  0  3  0  0  0  0  0  0
  163.4870  213.0700  148.0860 F   0  0  0  0  0  0  0  0  0  0  0  0
  162.3880  213.2100  148.9230 C   0  0  0  0  0  3  0  0  0  0  0  0
  161.7650  214.4210  148.6790 F   0  0  0  0  0  0  0  0  0  0  0  0
  160.7950  212.4730  146.4510 O   0  0  0  0  0  0  0  0  0  0  0  0
  161.3910  212.2400  145.2070 C   0  0  0  0  0  2  0  0  0  0  0  0
  160.5990  212.9250  144.1110 C   0  0  0  0  0  2  0  0  0  0  0  0
  161.4680  213.9920  143.4770 C   0  0  0  0  0  2  0  0  0  0  0  0
  162.4290  213.3790  142.4700 C   0  0  2  0  0  3  0  0  0  0  0  0
  163.5820  214.1610  142.3860 O   0  0  0  0  0  1  0  0  0  0  0  0
  161.7800  213.3080  141.0910 C   0  0  0  0  0  2  0  0  0  0  0  0
  160.8350  212.1190  140.9070 C   0  0  2  0  0  3  0  0  0  0  0  0
  161.4750  210.9020  141.1590 O   0  0  0  0  0  1  0  0  0  0  0  0
  160.0900  212.1240  139.5640 C   0  0  2  0  0  3  0  0  0  0  0  0
  160.6130  211.4540  137.3200 O   0  0  0  0  0  0  0  0  0  0  0  0
  162.3500  212.3310  138.5310 O   0  0  0  0  0  1  0  0  0  0  0  0
  161.0200  211.9500  138.4050 C   0  0  0  0  0  0  0  0  0  0  0  0
  159.1330  213.3030  139.3570 C   0  0  0  0  0  2  0  0  0  0  0  0
  159.7370  214.3330  138.6340 O   0  0  0  0  0  1  0  0  0  0  0  0
  160.2710  204.0050  150.0110 O   0  0  0  0  0  0  0  0  0  0  0  0
  161.4240  204.4320  150.2880 C   0  0  0  0  0  0  0  0  0  0  0  0
  161.7970  204.5440  151.6290 O   0  0  0  0  0  0  0  0  0  0  0  0
  160.8620  204.8830  152.6460 C   0  0  0  0  0  2  0  0  0  0  0  0
  161.2680  206.1470  153.3390 C   0  0  0  0  0  0  0  0  0  0  0  0
  162.4970  206.2760  153.8430 C   0  0  0  0  0  2  0  0  0  0  0  0
  160.2570  207.2370  153.5050 C   0  0  0  0  0  2  0  0  0  0  0  0
  160.3030  207.8320  154.9060 C   0  0  0  0  0  2  0  0  0  0  0  0
  161.4050  208.8810  155.0280 C   0  0  1  0  0  3  0  0  0  0  0  0
  159.6790  210.0820  153.7190 C   0  0  0  0  0  2  0  0  0  0  0  0
  161.0980  210.0070  154.1230 N   0  0  0  0  0  0  0  0  0  0  0  0
  160.1530  210.8870  154.8390 C   0  0  1  0  0  3  0  0  0  0  0  0
  160.3490  212.3150  154.3750 C   0  0  0  0  0  2  0  0  0  0  0  0
  159.4170  212.6050  153.2160 C   0  0  0  0  0  2  0  0  0  0  0  0
  158.8130  214.3120  153.3300 S   0  0  0  0  0  0  0  0  0  0  0  0
  156.3780  213.3790  153.7790 O   0  0  0  0  0  1  0  0  0  0  0  0
  157.1510  213.8780  152.7290 C   0  0  2  0  0  3  0  0  0  0  0  0
  157.2410  212.8400  151.6180 C   0  0  0  0  0  2  0  0  0  0  0  0
  157.9830  213.3380  150.5420 O   0  0  0  0  0  0  0  0  0  0  0  0
  157.2680  214.4530  150.1060 C   0  0  0  0  0  1  0  0  0  0  0  0
  161.6030  209.2560  156.5130 C   0  0  0  0  0  2  0  0  0  0  0  0
  162.9960  209.8290  156.7630 C   0  0  0  0  0  2  0  0  0  0  0  0
  162.9720  211.2270  156.6860 O   0  0  0  0  0  0  0  0  0  0  0  0
  164.1750  211.6340  157.2600 C   0  0  0  0  0  1  0  0  0  0  0  0
  1  2  1  0  0  0  0
  2 42  1  1  0  0  0
  3  7  2  0  0  0  0
  4 15  1  1  0  0  0
  4  1  1  0  0  0  0
  5  4  1  0  0  0  0
  5  8  2  0  0  0  0
  6  9  2  0  0  0  0
  7  8  1  0  0  0  0
  8  2  1  0  0  0  0
  9 10  1  0  0  0  0
  9  3  1  0  0  0  0
 10 11  1  0  0  0  0
 11  5  1  0  0  0  0
 13 21  1  0  0  0  0
 13 16  1  0  0  0  0
 14 17  1  0  0  0  0
 14 12  1  0  0  0  0
 15 16  1  0  0  0  0
 16 14  1  0  0  0  0
 17 20  2  0  0  0  0
 18 14  1  0  0  0  0
 18 12  1  0  0  0  0
 19 15  2  0  0  0  0
 21 26  1  6  0  0  0
 21 22  1  0  0  0  0
 22 24  1  6  0  0  0
 22 17  1  0  0  0  0
 23 24  1  0  0  0  0
 25 24  1  0  0  0  0
 27 26  1  0  0  0  0
 28 27  1  0  0  0  0
 29 28  1  0  0  0  0
 30 31  1  6  0  0  0
 30 29  1  0  0  0  0
 32 30  1  0  0  0  0
 33 32  1  0  0  0  0
 33 34  1  6  0  0  0
 35 39  1  6  0  0  0
 35 33  1  0  0  0  0
 36 38  2  0  0  0  0
 38 37  1  0  0  0  0
 38 35  1  0  0  0  0
 40 39  1  0  0  0  0
 41 42  2  0  0  0  0
 42 43  1  0  0  0  0
 43 44  1  0  0  0  0
 44 45  1  0  0  0  0
 45 47  1  0  0  0  0
 45 46  2  0  0  0  0
 47 48  1  0  0  0  0
 49 48  1  1  0  0  0
 49 61  1  0  0  0  0
 50 51  1  0  0  0  0
 50 52  1  0  0  0  0
 51 52  1  0  0  0  0
 51 49  1  0  0  0  0
 52 53  1  6  0  0  0
 54 55  1  0  0  0  0
 54 53  1  0  0  0  0
 57 55  1  0  0  0  0
 57 56  1  1  0  0  0
 58 57  1  0  0  0  0
 59 58  1  0  0  0  0
 60 59  1  0  0  0  0
 61 62  1  0  0  0  0
 63 62  1  0  0  0  0
 63 64  1  0  0  0  0
M  END
>  <MODEL>
3

>  <REMARK>
 VINA RESULT:       1.5      2.951      5.662
  Name = 
  29 active torsions:
  status: ('A' for Active; 'I' for Inactive)
    1  A    between atoms: C_2  and  C_6
    2  A    between atoms: C_2  and  N_50
    3  A    between atoms: C_2  and  C_60
    4  A    between atoms: C_4  and  C_24
    5  A    between atoms: C_4  and  C_48
    6  A    between atoms: O_5  and  C_8
    7  A    between atoms: C_6  and  C_24
    8  A    between atoms: C_8  and  C_60
    9  A    between atoms: C_11  and  C_34
   10  A    between atoms: C_11  and  C_46
   11  A    between atoms: C_12  and  C_33
   12  A    between atoms: C_14  and  C_31
   13  A    between atoms: C_14  and  C_34
   14  A    between atoms: C_17  and  C_58
   15  A    between atoms: C_21  and  O_29
   16  A    between atoms: C_21  and  C_54
   17  A    between atoms: C_22  and  S_23
   18  A    between atoms: C_22  and  C_53
   19  A    between atoms: S_23  and  C_54
   20  A    between atoms: C_25  and  C_61
   21  A    between atoms: C_31  and  O_52
   22  A    between atoms: C_35  and  C_46
   23  A    between atoms: C_35  and  C_61
   24  A    between atoms: C_41  and  C_43
   25  A    between atoms: C_42  and  O_52
   26  A    between atoms: C_48  and  O_59
   27  A    between atoms: C_49  and  C_61
   28  A    between atoms: C_51  and  C_53
   29  A    between atoms: C_58  and  O_59
                            x       y       z     vdW  Elec       q    Type
                         _______ _______ _______ _____ _____    ______ ____

>  <TORSDO>
F 29

$$$$
=
 OpenBabel11072415053D

 64 68  0  0  1  0  0  0  0  0999 V2000
  162.3860  206.4540  149.0920 C   0  0  0  0  0  2  0  0  0  0  0  0
  162.3160  204.9410  149.2500 C   0  0  2  0  0  3  0  0  0  0  0  0
  161.1620  202.4050  146.5750 C   0  0  0  0  0  3  0  0  0  0  0  0
  162.2510  206.7310  147.6020 C   0  0  1  0  0  3  0  0  0  0  0  0
  161.9290  205.4060  147.0010 C   0  0  0  0  0  0  0  0  0  0  0  0
  160.2440  202.3350  144.4140 O   0  0  0  0  0  0  0  0  0  0  0  0
  161.7030  202.9880  147.6520 C   0  0  0  0  0  3  0  0  0  0  0  0
  161.9270  204.4310  147.9030 C   0  0  0  0  0  0  0  0  0  0  0  0
  160.6060  203.0590  145.3750 C   0  0  0  0  0  0  0  0  0  0  0  0
  160.4300  204.5340  145.2550 C   0  0  0  0  0  2  0  0  0  0  0  0
  161.7460  205.2240  145.5320 C   0  0  0  0  0  2  0  0  0  0  0  0
  162.2560  208.4160  150.0950 C   0  0  0  0  0  2  0  0  0  0  0  0
  160.6820  210.1370  146.9570 C   0  0  0  0  0  2  0  0  0  0  0  0
  161.8320  209.4880  149.1050 C   0  0  0  0  0  0  0  0  0  0  0  0
  161.1670  207.7340  147.3420 C   0  0  0  0  0  0  0  0  0  0  0  0
  161.3000  209.0990  147.7820 N   0  0  0  0  0  0  0  0  0  0  0  0
  161.4870  210.8690  149.5950 C   0  0  0  0  0  0  0  0  0  0  0  0
  163.3050  209.1630  149.2690 C   0  0  0  0  0  2  0  0  0  0  0  0
  160.1540  207.3910  146.6720 O   0  0  0  0  0  0  0  0  0  0  0  0
  161.3490  211.0820  150.7910 O   0  0  0  0  0  0  0  0  0  0  0  0
  161.4030  211.4710  147.1460 C   0  0  2  0  0  3  0  0  0  0  0  0
  161.2510  211.9770  148.5960 C   0  0  2  0  0  3  0  0  0  0  0  0
  162.8430  213.5680  147.7290 F   0  0  0  0  0  0  0  0  0  0  0  0
  162.1900  213.1500  148.8810 C   0  0  0  0  0  3  0  0  0  0  0  0
  161.4990  214.2100  149.4380 F   0  0  0  0  0  0  0  0  0  0  0  0
  160.9080  212.4080  146.2350 O   0  0  0  0  0  0  0  0  0  0  0  0
  161.5030  212.0620  145.0170 C   0  0  0  0  0  2  0  0  0  0  0  0
  160.7370  212.6840  143.8660 C   0  0  0  0  0  2  0  0  0  0  0  0
  161.7130  213.0200  142.7570 C   0  0  0  0  0  2  0  0  0  0  0  0
  161.5000  212.1120  141.5560 C   0  0  2  0  0  3  0  0  0  0  0  0
  162.7370  211.7060  141.0500 O   0  0  0  0  0  1  0  0  0  0  0  0
  160.7390  212.8500  140.4600 C   0  0  0  0  0  2  0  0  0  0  0  0
  159.8710  211.9430  139.5840 C   0  0  2  0  0  3  0  0  0  0  0  0
  160.4470  210.6810  139.4100 O   0  0  0  0  0  1  0  0  0  0  0  0
  159.4520  212.5860  138.2540 C   0  0  2  0  0  3  0  0  0  0  0  0
  157.9790  214.3380  137.5360 O   0  0  0  0  0  0  0  0  0  0  0  0
  157.4600  213.3570  139.5410 O   0  0  0  0  0  1  0  0  0  0  0  0
  158.2600  213.4760  138.4110 C   0  0  0  0  0  0  0  0  0  0  0  0
  159.2850  211.6080  137.0850 C   0  0  0  0  0  2  0  0  0  0  0  0
  158.1600  210.7970  137.2520 O   0  0  0  0  0  1  0  0  0  0  0  0
  160.1520  204.2730  150.0490 O   0  0  0  0  0  0  0  0  0  0  0  0
  161.3400  204.5810  150.3380 C   0  0  0  0  0  0  0  0  0  0  0  0
  161.7130  204.6430  151.6810 O   0  0  0  0  0  0  0  0  0  0  0  0
  160.7840  204.9720  152.7070 C   0  0  0  0  0  2  0  0  0  0  0  0
  161.2120  206.2100  153.4320 C   0  0  0  0  0  0  0  0  0  0  0  0
  162.4760  206.3540  153.8350 C   0  0  0  0  0  2  0  0  0  0  0  0
  160.1880  207.2560  153.7450 C   0  0  0  0  0  2  0  0  0  0  0  0
  160.2150  207.6400  155.2180 C   0  0  0  0  0  2  0  0  0  0  0  0
  161.1900  208.7850  155.4750 C   0  0  1  0  0  3  0  0  0  0  0  0
  159.1950  210.0990  154.8200 C   0  0  0  0  0  2  0  0  0  0  0  0
  160.6690  210.0120  154.8360 N   0  0  0  0  0  0  0  0  0  0  0  0
  159.9450  210.7640  155.8800 C   0  0  1  0  0  3  0  0  0  0  0  0
  160.0250  212.2450  155.5750 C   0  0  0  0  0  2  0  0  0  0  0  0
  159.0660  212.5860  154.4530 C   0  0  0  0  0  2  0  0  0  0  0  0
  158.4770  214.2900  154.6490 S   0  0  0  0  0  0  0  0  0  0  0  0
  158.1990  213.7970  157.2330 O   0  0  0  0  0  1  0  0  0  0  0  0
  157.4250  213.8780  156.0740 C   0  0  2  0  0  3  0  0  0  0  0  0
  156.7070  212.5540  155.8410 C   0  0  0  0  0  2  0  0  0  0  0  0
  155.3460  212.7710  155.6020 O   0  0  0  0  0  0  0  0  0  0  0  0
  155.2200  214.1560  155.5120 C   0  0  0  0  0  1  0  0  0  0  0  0
  161.4760  208.8950  156.9880 C   0  0  0  0  0  2  0  0  0  0  0  0
  162.8240  209.5600  157.2560 C   0  0  0  0  0  2  0  0  0  0  0  0
  163.2360  210.2990  156.1400 O   0  0  0  0  0  0  0  0  0  0  0  0
  164.2300  211.1470  156.6240 C   0  0  0  0  0  1  0  0  0  0  0  0
  1  2  1  0  0  0  0
  2 42  1  1  0  0  0
  3  7  2  0  0  0  0
  4 15  1  1  0  0  0
  4  1  1  0  0  0  0
  5  4  1  0  0  0  0
  5  8  2  0  0  0  0
  6  9  2  0  0  0  0
  7  8  1  0  0  0  0
  8  2  1  0  0  0  0
  9  3  1  0  0  0  0
 10  9  1  0  0  0  0
 10 11  1  0  0  0  0
 11  5  1  0  0  0  0
 13 21  1  0  0  0  0
 13 16  1  0  0  0  0
 14 18  1  0  0  0  0
 14 17  1  0  0  0  0
 14 12  1  0  0  0  0
 15 16  1  0  0  0  0
 16 14  1  0  0  0  0
 17 20  2  0  0  0  0
 18 12  1  0  0  0  0
 19 15  2  0  0  0  0
 21 26  1  6  0  0  0
 21 22  1  0  0  0  0
 22 24  1  1  0  0  0
 22 17  1  0  0  0  0
 23 24  1  0  0  0  0
 24 25  1  0  0  0  0
 27 26  1  0  0  0  0
 28 27  1  0  0  0  0
 29 28  1  0  0  0  0
 30 31  1  6  0  0  0
 30 29  1  0  0  0  0
 32 30  1  0  0  0  0
 33 34  1  6  0  0  0
 33 32  1  0  0  0  0
 35 39  1  6  0  0  0
 35 38  1  0  0  0  0
 35 33  1  0  0  0  0
 36 38  2  0  0  0  0
 38 37  1  0  0  0  0
 39 40  1  0  0  0  0
 41 42  2  0  0  0  0
 42 43  1  0  0  0  0
 43 44  1  0  0  0  0
 44 45  1  0  0  0  0
 45 47  1  0  0  0  0
 45 46  2  0  0  0  0
 47 48  1  0  0  0  0
 49 48  1  1  0  0  0
 49 61  1  0  0  0  0
 50 51  1  0  0  0  0
 50 52  1  0  0  0  0
 51 49  1  0  0  0  0
 51 52  1  0  0  0  0
 52 53  1  6  0  0  0
 54 55  1  0  0  0  0
 54 53  1  0  0  0  0
 55 57  1  0  0  0  0
 57 56  1  1  0  0  0
 58 57  1  0  0  0  0
 59 58  1  0  0  0  0
 60 59  1  0  0  0  0
 61 62  1  0  0  0  0
 63 64  1  0  0  0  0
 63 62  1  0  0  0  0
M  END
>  <MODEL>
4

>  <REMARK>
 VINA RESULT:       1.6      3.126      5.687
  Name = 
  29 active torsions:
  status: ('A' for Active; 'I' for Inactive)
    1  A    between atoms: C_2  and  C_6
    2  A    between atoms: C_2  and  N_50
    3  A    between atoms: C_2  and  C_60
    4  A    between atoms: C_4  and  C_24
    5  A    between atoms: C_4  and  C_48
    6  A    between atoms: O_5  and  C_8
    7  A    between atoms: C_6  and  C_24
    8  A    between atoms: C_8  and  C_60
    9  A    between atoms: C_11  and  C_34
   10  A    between atoms: C_11  and  C_46
   11  A    between atoms: C_12  and  C_33
   12  A    between atoms: C_14  and  C_31
   13  A    between atoms: C_14  and  C_34
   14  A    between atoms: C_17  and  C_58
   15  A    between atoms: C_21  and  O_29
   16  A    between atoms: C_21  and  C_54
   17  A    between atoms: C_22  and  S_23
   18  A    between atoms: C_22  and  C_53
   19  A    between atoms: S_23  and  C_54
   20  A    between atoms: C_25  and  C_61
   21  A    between atoms: C_31  and  O_52
   22  A    between atoms: C_35  and  C_46
   23  A    between atoms: C_35  and  C_61
   24  A    between atoms: C_41  and  C_43
   25  A    between atoms: C_42  and  O_52
   26  A    between atoms: C_48  and  O_59
   27  A    between atoms: C_49  and  C_61
   28  A    between atoms: C_51  and  C_53
   29  A    between atoms: C_58  and  O_59
                            x       y       z     vdW  Elec       q    Type
                         _______ _______ _______ _____ _____    ______ ____

>  <TORSDO>
F 29

$$$$
=
 OpenBabel11072415053D

 64 68  0  0  1  0  0  0  0  0999 V2000
  162.1610  205.4260  149.5150 C   0  0  0  0  0  2  0  0  0  0  0  0
  161.9780  203.9160  149.4560 C   0  0  2  0  0  3  0  0  0  0  0  0
  160.7240  201.8710  146.4280 C   0  0  0  0  0  3  0  0  0  0  0  0
  162.0900  205.9180  148.0760 C   0  0  1  0  0  3  0  0  0  0  0  0
  161.6920  204.7180  147.2880 C   0  0  0  0  0  0  0  0  0  0  0  0
  159.8680  202.1730  144.2620 O   0  0  0  0  0  0  0  0  0  0  0  0
  161.2740  202.2560  147.5870 C   0  0  0  0  0  3  0  0  0  0  0  0
  161.5930  203.6290  148.0430 C   0  0  0  0  0  0  0  0  0  0  0  0
  160.2520  202.7260  145.3220 C   0  0  0  0  0  0  0  0  0  0  0  0
  160.1860  204.2130  145.4080 C   0  0  0  0  0  2  0  0  0  0  0  0
  161.5390  204.7570  145.8050 C   0  0  0  0  0  2  0  0  0  0  0  0
  162.5710  207.5900  150.5310 C   0  0  0  0  0  2  0  0  0  0  0  0
  160.8040  209.4660  147.5900 C   0  0  0  0  0  2  0  0  0  0  0  0
  162.1390  208.7010  149.5880 C   0  0  0  0  0  0  0  0  0  0  0  0
  161.0890  207.0260  147.9400 C   0  0  0  0  0  0  0  0  0  0  0  0
  161.4110  208.3700  148.3450 N   0  0  0  0  0  0  0  0  0  0  0  0
  161.9980  210.1090  150.1020 C   0  0  0  0  0  0  0  0  0  0  0  0
  163.5810  208.2280  149.5740 C   0  0  0  0  0  2  0  0  0  0  0  0
  159.9710  206.7880  147.4030 O   0  0  0  0  0  0  0  0  0  0  0  0
  162.0310  210.3340  151.3030 O   0  0  0  0  0  0  0  0  0  0  0  0
  161.6740  210.7200  147.6740 C   0  0  2  0  0  3  0  0  0  0  0  0
  161.7530  211.2370  149.1270 C   0  0  2  0  0  3  0  0  0  0  0  0
  164.0990  211.7910  149.0380 F   0  0  0  0  0  0  0  0  0  0  0  0
  162.8340  212.3080  149.2810 C   0  0  0  0  0  3  0  0  0  0  0  0
  162.5940  213.3750  148.4340 F   0  0  0  0  0  0  0  0  0  0  0  0
  161.1670  211.7030  146.8210 O   0  0  0  0  0  0  0  0  0  0  0  0
  159.9640  211.1700  146.3450 C   0  0  0  0  0  2  0  0  0  0  0  0
  159.3840  212.0670  145.2690 C   0  0  0  0  0  2  0  0  0  0  0  0
  160.4960  212.4750  144.3230 C   0  0  0  0  0  2  0  0  0  0  0  0
  159.9340  213.1940  143.1070 C   0  0  2  0  0  3  0  0  0  0  0  0
  158.6200  213.5910  143.3630 O   0  0  0  0  0  1  0  0  0  0  0  0
  159.9420  212.2710  141.8930 C   0  0  0  0  0  2  0  0  0  0  0  0
  159.7710  212.9970  140.5560 C   0  0  2  0  0  3  0  0  0  0  0  0
  158.4590  212.9120  140.0820 O   0  0  0  0  0  1  0  0  0  0  0  0
  160.8060  212.5930  139.4970 C   0  0  2  0  0  3  0  0  0  0  0  0
  162.7050  213.5880  138.4190 O   0  0  0  0  0  0  0  0  0  0  0  0
  162.1580  214.4480  140.4710 O   0  0  0  0  0  1  0  0  0  0  0  0
  161.9410  213.5660  139.4210 C   0  0  0  0  0  0  0  0  0  0  0  0
  160.2290  212.2780  138.1120 C   0  0  0  0  0  2  0  0  0  0  0  0
  159.5800  211.0420  138.0970 O   0  0  0  0  0  1  0  0  0  0  0  0
  161.1870  202.5230  151.2460 O   0  0  0  0  0  0  0  0  0  0  0  0
  160.9470  203.4820  150.4630 C   0  0  0  0  0  0  0  0  0  0  0  0
  159.6910  204.0900  150.5050 O   0  0  0  0  0  0  0  0  0  0  0  0
  159.4670  205.3100  151.2020 C   0  0  0  0  0  2  0  0  0  0  0  0
  160.4780  205.4900  152.2930 C   0  0  0  0  0  0  0  0  0  0  0  0
  160.9440  204.4340  152.9620 C   0  0  0  0  0  2  0  0  0  0  0  0
  160.9110  206.8760  152.6540 C   0  0  0  0  0  2  0  0  0  0  0  0
  161.3170  206.9690  154.1180 C   0  0  0  0  0  2  0  0  0  0  0  0
  161.0600  208.3660  154.6780 C   0  0  1  0  0  3  0  0  0  0  0  0
  159.5110  208.9830  156.5110 C   0  0  0  0  0  2  0  0  0  0  0  0
  159.6590  208.4460  155.1420 N   0  0  0  0  0  0  0  0  0  0  0  0
  159.3640  209.8750  155.3660 C   0  0  1  0  0  3  0  0  0  0  0  0
  157.8910  210.1260  155.1210 C   0  0  0  0  0  2  0  0  0  0  0  0
  157.6650  211.5960  154.8340 C   0  0  0  0  0  2  0  0  0  0  0  0
  158.9760  212.5800  155.6130 S   0  0  0  0  0  0  0  0  0  0  0  0
  158.1680  213.9830  153.5200 O   0  0  0  0  0  1  0  0  0  0  0  0
  159.3470  213.4930  154.0840 C   0  0  2  0  0  3  0  0  0  0  0  0
  160.0600  212.5910  153.0840 C   0  0  0  0  0  2  0  0  0  0  0  0
  159.2000  212.2460  152.0370 O   0  0  0  0  0  0  0  0  0  0  0  0
  159.3550  213.2690  151.1020 C   0  0  0  0  0  1  0  0  0  0  0  0
  162.1310  208.7070  155.7360 C   0  0  0  0  0  2  0  0  0  0  0  0
  162.8510  210.0110  155.4020 C   0  0  0  0  0  2  0  0  0  0  0  0
  163.2390  210.6710  156.5750 O   0  0  0  0  0  0  0  0  0  0  0  0
  162.0670  211.2490  157.0600 C   0  0  0  0  0  1  0  0  0  0  0  0
  2  1  1  0  0  0  0
  2 42  1  1  0  0  0
  3  7  2  0  0  0  0
  4 15  1  1  0  0  0
  4  1  1  0  0  0  0
  5  8  2  0  0  0  0
  5  4  1  0  0  0  0
  6  9  2  0  0  0  0
  7  8  1  0  0  0  0
  8  2  1  0  0  0  0
  9 10  1  0  0  0  0
  9  3  1  0  0  0  0
 10 11  1  0  0  0  0
 11  5  1  0  0  0  0
 13 21  1  0  0  0  0
 13 16  1  0  0  0  0
 14 17  1  0  0  0  0
 14 12  1  0  0  0  0
 15 16  1  0  0  0  0
 16 14  1  0  0  0  0
 17 20  2  0  0  0  0
 18 14  1  0  0  0  0
 18 12  1  0  0  0  0
 19 15  2  0  0  0  0
 21 26  1  6  0  0  0
 21 22  1  0  0  0  0
 22 24  1  6  0  0  0
 22 17  1  0  0  0  0
 23 24  1  0  0  0  0
 25 24  1  0  0  0  0
 27 26  1  0  0  0  0
 28 27  1  0  0  0  0
 29 28  1  0  0  0  0
 30 31  1  1  0  0  0
 30 29  1  0  0  0  0
 32 30  1  0  0  0  0
 33 34  1  6  0  0  0
 33 32  1  0  0  0  0
 35 39  1  6  0  0  0
 35 33  1  0  0  0  0
 36 38  2  0  0  0  0
 38 35  1  0  0  0  0
 38 37  1  0  0  0  0
 40 39  1  0  0  0  0
 42 43  1  0  0  0  0
 42 41  2  0  0  0  0
 43 44  1  0  0  0  0
 44 45  1  0  0  0  0
 45 47  1  0  0  0  0
 45 46  2  0  0  0  0
 47 48  1  0  0  0  0
 49 48  1  1  0  0  0
 49 51  1  0  0  0  0
 49 61  1  0  0  0  0
 51 52  1  0  0  0  0
 51 50  1  0  0  0  0
 52 53  1  6  0  0  0
 52 50  1  0  0  0  0
 54 53  1  0  0  0  0
 54 55  1  0  0  0  0
 57 56  1  6  0  0  0
 57 55  1  0  0  0  0
 58 57  1  0  0  0  0
 59 58  1  0  0  0  0
 60 59  1  0  0  0  0
 62 61  1  0  0  0  0
 62 63  1  0  0  0  0
 63 64  1  0  0  0  0
M  END
>  <MODEL>
5

>  <REMARK>
 VINA RESULT:       2.5      3.129      5.877
  Name = 
  29 active torsions:
  status: ('A' for Active; 'I' for Inactive)
    1  A    between atoms: C_2  and  C_6
    2  A    between atoms: C_2  and  N_50
    3  A    between atoms: C_2  and  C_60
    4  A    between atoms: C_4  and  C_24
    5  A    between atoms: C_4  and  C_48
    6  A    between atoms: O_5  and  C_8
    7  A    between atoms: C_6  and  C_24
    8  A    between atoms: C_8  and  C_60
    9  A    between atoms: C_11  and  C_34
   10  A    between atoms: C_11  and  C_46
   11  A    between atoms: C_12  and  C_33
   12  A    between atoms: C_14  and  C_31
   13  A    between atoms: C_14  and  C_34
   14  A    between atoms: C_17  and  C_58
   15  A    between atoms: C_21  and  O_29
   16  A    between atoms: C_21  and  C_54
   17  A    between atoms: C_22  and  S_23
   18  A    between atoms: C_22  and  C_53
   19  A    between atoms: S_23  and  C_54
   20  A    between atoms: C_25  and  C_61
   21  A    between atoms: C_31  and  O_52
   22  A    between atoms: C_35  and  C_46
   23  A    between atoms: C_35  and  C_61
   24  A    between atoms: C_41  and  C_43
   25  A    between atoms: C_42  and  O_52
   26  A    between atoms: C_48  and  O_59
   27  A    between atoms: C_49  and  C_61
   28  A    between atoms: C_51  and  C_53
   29  A    between atoms: C_58  and  O_59
                            x       y       z     vdW  Elec       q    Type
                         _______ _______ _______ _____ _____    ______ ____

>  <TORSDO>
F 29

$$$$
