=
 OpenBabel11072410013D

 54 59  0  0  1  0  0  0  0  0999 V2000
  162.2010  206.9490  147.8490 C   0  0  0  0  0  2  0  0  0  0  0  0
  160.7900  206.6440  147.3680 C   0  0  0  0  0  2  0  0  0  0  0  0
  161.7920  205.9570  144.2310 C   0  0  2  0  0  3  0  0  0  0  0  0
  162.5880  204.8410  144.8770 C   0  0  0  0  0  2  0  0  0  0  0  0
  162.1850  204.8760  146.3340 C   0  0  2  0  0  3  0  0  0  0  0  0
  160.4810  205.9910  144.9880 C   0  0  0  0  0  2  0  0  0  0  0  0
  162.1670  203.5790  146.8490 O   0  0  0  0  0  1  0  0  0  0  0  0
  160.7930  205.4800  146.3870 C   0  0  2  0  0  3  0  0  0  0  0  0
  161.5470  205.6740  142.8220 N   0  0  0  0  0  2  0  0  0  0  0  0
  161.6410  206.8890  142.1250 N   0  0  0  0  0  2  0  0  0  0  0  0
  162.0730  206.5860  140.7710 C   0  0  0  0  0  2  0  0  0  0  0  0
  161.3560  208.9380  140.2720 C   0  0  0  0  0  2  0  0  0  0  0  0
  162.2940  208.4720  137.5380 C   0  0  2  0  0  3  0  0  0  0  0  0
  162.1480  209.8030  138.2700 C   0  0  0  0  0  2  0  0  0  0  0  0
  160.9220  207.8580  137.3380 C   0  0  0  0  0  2  0  0  0  0  0  0
  161.8580  207.2390  138.3580 C   0  0  2  0  0  3  0  0  0  0  0  0
  161.3320  207.4780  139.7910 C   0  0  1  0  0  3  0  0  0  0  0  0
  162.4790  209.6470  139.6810 N   0  0  0  0  0  0  0  0  0  0  0  0
  162.5000  210.9730  140.2820 C   0  0  0  0  0  2  0  0  0  0  0  0
  163.3320  211.8180  139.5400 O   0  0  0  0  0  0  0  0  0  0  0  0
  160.2650  212.8530  138.0740 O   0  0  0  0  0  1  0  0  0  0  0  0
  160.9330  213.9460  138.6360 C   0  0  1  0  0  3  0  0  0  0  0  0
  160.8040  213.9390  140.1470 C   0  0  2  0  0  3  0  0  0  0  0  0
  161.7470  213.0360  140.6580 O   0  0  0  0  0  0  0  0  0  0  0  0
  162.4080  213.7450  138.4680 C   0  0  0  0  0  2  0  0  0  0  0  0
  162.8490  213.1080  139.7820 C   0  0  2  0  0  3  0  0  0  0  0  0
  159.4030  213.5890  140.6240 C   0  0  0  0  0  1  0  0  0  0  0  0
  162.3190  208.4000  148.3020 C   0  0  0  0  0  2  0  0  0  0  0  0
  161.5690  208.6200  149.6110 C   0  0  2  0  0  3  0  0  0  0  0  0
  161.6350  210.0560  150.0250 C   0  0  0  0  0  0  0  0  0  0  0  0
  162.9630  210.4440  152.1820 O   0  0  0  0  0  1  0  0  0  0  0  0
  162.3940  209.7220  151.1400 C   0  0  0  0  0  0  0  0  0  0  0  0
  162.3930  208.2880  150.7370 C   0  0  1  0  0  3  0  0  0  0  0  0
  161.1160  211.3410  149.4780 C   0  0  1  0  0  3  0  0  0  0  0  0
  160.8050  212.2270  150.5170 O   0  0  0  0  0  1  0  0  0  0  0  0
  163.3600  211.5240  148.4590 C   0  0  0  0  0  2  0  0  0  0  0  0
  162.0910  211.9580  148.5130 C   0  0  0  0  0  0  0  0  0  0  0  0
  161.6490  213.1920  147.7600 C   0  0  2  0  0  3  0  0  0  0  0  0
  160.0600  212.3170  145.9500 C   0  0  0  0  0  3  0  0  0  0  0  0
  158.0090  213.1400  146.3100 C   0  0  0  0  0  0  0  0  0  0  0  0
  160.3030  213.0650  147.0970 C   0  0  0  0  0  0  0  0  0  0  0  0
  158.7740  212.3610  145.5170 N   0  0  0  0  0  0  0  0  0  0  0  0
  158.8710  213.8170  147.5790 S   0  0  0  0  0  0  0  0  0  0  0  0
  156.6210  213.3570  146.0830 N   0  0  0  0  0  1  0  0  0  0  0  0
  162.7710  213.4590  145.5580 C   0  0  0  0  0  2  0  0  0  0  0  0
  162.7180  213.7510  146.8570 C   0  0  0  0  0  3  0  0  0  0  0  0
  161.6930  207.3680  151.7560 C   0  0  0  0  0  2  0  0  0  0  0  0
  162.4090  206.0470  152.0530 C   0  0  0  0  0  2  0  0  0  0  0  0
  161.5100  204.8730  151.8340 C   0  0  0  0  0  0  0  0  0  0  0  0
  160.9140  204.3820  152.7780 O   0  0  0  0  0  0  0  0  0  0  0  0
  161.3130  204.3340  150.4580 C   0  0  0  0  0  2  0  0  0  0  0  0
  160.8390  202.8890  150.5240 C   0  0  0  0  0  2  0  0  0  0  0  0
  160.8600  201.1340  148.9820 C   0  0  0  0  0  1  0  0  0  0  0  0
  160.3550  202.4770  149.2170 N   0  0  0  0  0  2  0  0  0  0  0  0
  1 28  1  0  0  0  0
  2  1  1  0  0  0  0
  3  9  1  6  0  0  0
  3  4  1  0  0  0  0
  3  6  1  0  0  0  0
  4  5  1  0  0  0  0
  5  8  1  0  0  0  0
  5  7  1  6  0  0  0
  6  8  1  0  0  0  0
  8  2  1  1  0  0  0
 10  9  1  0  0  0  0
 11 10  1  0  0  0  0
 13 15  1  6  0  0  0
 13 14  1  0  0  0  0
 13 16  1  0  0  0  0
 14 18  1  0  0  0  0
 16 15  1  6  0  0  0
 16 17  1  0  0  0  0
 17 12  1  0  0  0  0
 17 11  1  1  0  0  0
 18 12  1  0  0  0  0
 18 19  1  0  0  0  0
 20 19  1  0  0  0  0
 22 21  1  6  0  0  0
 22 23  1  0  0  0  0
 23 27  1  6  0  0  0
 23 24  1  0  0  0  0
 25 22  1  0  0  0  0
 25 26  1  0  0  0  0
 26 20  1  6  0  0  0
 26 24  1  0  0  0  0
 29 28  1  6  0  0  0
 29 30  1  0  0  0  0
 29 33  1  0  0  0  0
 30 32  2  0  0  0  0
 32 31  1  0  0  0  0
 33 32  1  0  0  0  0
 33 47  1  1  0  0  0
 34 30  1  0  0  0  0
 34 35  1  1  0  0  0
 36 37  2  0  0  0  0
 37 34  1  0  0  0  0
 38 46  1  6  0  0  0
 38 37  1  0  0  0  0
 39 41  2  0  0  0  0
 40 43  1  0  0  0  0
 41 43  1  0  0  0  0
 41 38  1  0  0  0  0
 42 39  1  0  0  0  0
 42 40  2  0  0  0  0
 44 40  1  0  0  0  0
 45 46  2  0  0  0  0
 47 48  1  0  0  0  0
 49 48  1  0  0  0  0
 49 50  2  0  0  0  0
 51 52  1  0  0  0  0
 51 49  1  0  0  0  0
 53 54  1  0  0  0  0
 54 52  1  0  0  0  0
M  END
>  <MODEL>
1

>  <REMARK>
 VINA RESULT:      -5.1      0.000      0.000
  Name = 
  22 active torsions:
  status: ('A' for Active; 'I' for Inactive)
    1  A    between atoms: C_1  and  C_20
    2  A    between atoms: C_1  and  C_54
    3  A    between atoms: C_2  and  C_18
    4  A    between atoms: C_2  and  C_49
    5  A    between atoms: C_2  and  C_52
    6  A    between atoms: C_3  and  C_48
    7  A    between atoms: N_4  and  N_6
    8  A    between atoms: N_4  and  C_44
    9  A    between atoms: N_6  and  C_9
   10  A    between atoms: C_7  and  C_20
   11  A    between atoms: C_7  and  C_39
   12  A    between atoms: O_10  and  C_21
   13  A    between atoms: O_10  and  C_43
   14  A    between atoms: C_14  and  C_23
   15  A    between atoms: C_14  and  C_49
   16  A    between atoms: N_17  and  C_24
   17  A    between atoms: C_19  and  C_48
   18  A    between atoms: C_19  and  C_51
   19  A    between atoms: C_21  and  N_53
   20  A    between atoms: C_24  and  C_39
   21  A    between atoms: C_38  and  C_51
   22  A    between atoms: C_44  and  C_45
                            x       y       z     vdW  Elec       q    Type
                         _______ _______ _______ _____ _____    ______ ____

>  <TORSDO>
F 22

$$$$
=
 OpenBabel11072410013D

 54 59  0  0  1  0  0  0  0  0999 V2000
  162.3080  210.2560  151.1590 C   0  0  0  0  0  2  0  0  0  0  0  0
  161.4060  211.4450  150.8610 C   0  0  0  0  0  2  0  0  0  0  0  0
  162.6500  213.1600  148.2480 C   0  0  2  0  0  3  0  0  0  0  0  0
  162.8780  211.7930  147.6360 C   0  0  0  0  0  2  0  0  0  0  0  0
  162.2590  210.8240  148.6180 C   0  0  2  0  0  3  0  0  0  0  0  0
  161.3200  213.0520  148.9640 C   0  0  0  0  0  2  0  0  0  0  0  0
  161.6980  209.7490  147.9290 O   0  0  0  0  0  1  0  0  0  0  0  0
  161.1790  211.5900  149.3630 C   0  0  2  0  0  3  0  0  0  0  0  0
  162.5780  214.1870  147.2160 N   0  0  0  0  0  2  0  0  0  0  0  0
  162.1360  213.5690  146.0360 N   0  0  0  0  0  2  0  0  0  0  0  0
  162.5300  214.4160  144.9230 C   0  0  0  0  0  2  0  0  0  0  0  0
  161.8470  213.7310  142.6090 C   0  0  0  0  0  2  0  0  0  0  0  0
  159.3200  212.8430  143.7910 C   0  0  2  0  0  3  0  0  0  0  0  0
  159.9770  212.3620  142.5000 C   0  0  0  0  0  2  0  0  0  0  0  0
  158.9160  214.2960  143.6360 C   0  0  0  0  0  2  0  0  0  0  0  0
  160.0940  213.9560  144.5270 C   0  0  2  0  0  3  0  0  0  0  0  0
  161.4130  214.4530  143.8940 C   0  0  1  0  0  3  0  0  0  0  0  0
  161.4270  212.3390  142.6450 N   0  0  0  0  0  0  0  0  0  0  0  0
  161.9820  211.7040  141.4580 C   0  0  0  0  0  2  0  0  0  0  0  0
  161.0760  211.8030  140.3980 O   0  0  0  0  0  0  0  0  0  0  0  0
  160.3580  210.4240  137.2030 O   0  0  0  0  0  1  0  0  0  0  0  0
  159.7500  209.6680  138.2110 C   0  0  1  0  0  3  0  0  0  0  0  0
  160.7710  208.8030  138.9270 C   0  0  2  0  0  3  0  0  0  0  0  0
  161.4390  209.6060  139.8620 O   0  0  0  0  0  0  0  0  0  0  0  0
  159.3260  210.5900  139.3120 C   0  0  0  0  0  2  0  0  0  0  0  0
  160.4820  210.5400  140.3070 C   0  0  2  0  0  3  0  0  0  0  0  0
  161.7580  208.1380  137.9800 C   0  0  0  0  0  1  0  0  0  0  0  0
  161.4890  208.9880  151.3630 C   0  0  0  0  0  2  0  0  0  0  0  0
  161.9790  208.2190  152.5850 C   0  0  2  0  0  3  0  0  0  0  0  0
  161.6850  206.7580  152.4450 C   0  0  0  0  0  0  0  0  0  0  0  0
  159.9800  205.8860  154.1470 O   0  0  0  0  0  1  0  0  0  0  0  0
  160.7920  206.8150  153.5080 C   0  0  0  0  0  0  0  0  0  0  0  0
  161.0210  208.2800  153.6500 C   0  0  1  0  0  3  0  0  0  0  0  0
  162.1420  205.6670  151.5390 C   0  0  1  0  0  3  0  0  0  0  0  0
  162.2920  204.4700  152.2490 O   0  0  0  0  0  1  0  0  0  0  0  0
  160.0580  206.1910  150.3180 C   0  0  0  0  0  2  0  0  0  0  0  0
  161.2050  205.4950  150.3760 C   0  0  0  0  0  0  0  0  0  0  0  0
  161.5020  204.3860  149.3930 C   0  0  2  0  0  3  0  0  0  0  0  0
  162.1870  206.0440  147.5630 C   0  0  0  0  0  3  0  0  0  0  0  0
  161.5770  205.2320  145.5670 C   0  0  0  0  0  0  0  0  0  0  0  0
  161.6160  204.8400  147.9620 C   0  0  0  0  0  0  0  0  0  0  0  0
  162.1640  206.2550  146.2230 N   0  0  0  0  0  0  0  0  0  0  0  0
  161.0520  204.0190  146.6000 S   0  0  0  0  0  0  0  0  0  0  0  0
  161.4240  205.1980  144.1530 N   0  0  0  0  0  1  0  0  0  0  0  0
  160.9590  202.1680  150.3750 C   0  0  0  0  0  2  0  0  0  0  0  0
  160.6190  203.1780  149.5760 C   0  0  0  0  0  3  0  0  0  0  0  0
  161.6390  208.6740  155.0050 C   0  0  0  0  0  2  0  0  0  0  0  0
  161.1660  210.0120  155.5820 C   0  0  0  0  0  2  0  0  0  0  0  0
  159.7750  210.3380  155.1420 C   0  0  0  0  0  0  0  0  0  0  0  0
  158.8240  209.9370  155.7920 O   0  0  0  0  0  0  0  0  0  0  0  0
  159.5550  211.1860  153.9350 C   0  0  0  0  0  2  0  0  0  0  0  0
  159.5280  212.6570  154.3250 C   0  0  0  0  0  2  0  0  0  0  0  0
  158.2680  212.7070  152.3600 C   0  0  0  0  0  1  0  0  0  0  0  0
  158.4050  213.3110  153.6750 N   0  0  0  0  0  2  0  0  0  0  0  0
  1 28  1  0  0  0  0
  2  1  1  0  0  0  0
  3  9  1  6  0  0  0
  3  6  1  0  0  0  0
  4  3  1  0  0  0  0
  4  5  1  0  0  0  0
  5  7  1  6  0  0  0
  5  8  1  0  0  0  0
  6  8  1  0  0  0  0
  8  2  1  1  0  0  0
 10  9  1  0  0  0  0
 11 10  1  0  0  0  0
 12 18  1  0  0  0  0
 12 17  1  0  0  0  0
 13 14  1  6  0  0  0
 13 16  1  0  0  0  0
 14 18  1  0  0  0  0
 15 13  1  0  0  0  0
 16 15  1  6  0  0  0
 17 16  1  0  0  0  0
 17 11  1  1  0  0  0
 19 18  1  0  0  0  0
 20 19  1  0  0  0  0
 22 21  1  6  0  0  0
 22 23  1  0  0  0  0
 22 25  1  0  0  0  0
 23 27  1  6  0  0  0
 23 24  1  0  0  0  0
 24 26  1  0  0  0  0
 25 26  1  0  0  0  0
 26 20  1  6  0  0  0
 29 28  1  6  0  0  0
 29 33  1  0  0  0  0
 30 29  1  0  0  0  0
 30 32  2  0  0  0  0
 32 33  1  0  0  0  0
 32 31  1  0  0  0  0
 33 47  1  1  0  0  0
 34 35  1  1  0  0  0
 34 30  1  0  0  0  0
 36 37  2  0  0  0  0
 37 34  1  0  0  0  0
 38 46  1  6  0  0  0
 38 37  1  0  0  0  0
 39 41  2  0  0  0  0
 40 42  2  0  0  0  0
 40 43  1  0  0  0  0
 41 38  1  0  0  0  0
 42 39  1  0  0  0  0
 43 41  1  0  0  0  0
 44 40  1  0  0  0  0
 46 45  2  0  0  0  0
 47 48  1  0  0  0  0
 49 48  1  0  0  0  0
 49 50  2  0  0  0  0
 51 52  1  0  0  0  0
 51 49  1  0  0  0  0
 53 54  1  0  0  0  0
 54 52  1  0  0  0  0
M  END
>  <MODEL>
2

>  <REMARK>
 VINA RESULT:      -4.3      3.073      7.221
  Name = 
  22 active torsions:
  status: ('A' for Active; 'I' for Inactive)
    1  A    between atoms: C_1  and  C_20
    2  A    between atoms: C_1  and  C_54
    3  A    between atoms: C_2  and  C_18
    4  A    between atoms: C_2  and  C_49
    5  A    between atoms: C_2  and  C_52
    6  A    between atoms: C_3  and  C_48
    7  A    between atoms: N_4  and  N_6
    8  A    between atoms: N_4  and  C_44
    9  A    between atoms: N_6  and  C_9
   10  A    between atoms: C_7  and  C_20
   11  A    between atoms: C_7  and  C_39
   12  A    between atoms: O_10  and  C_21
   13  A    between atoms: O_10  and  C_43
   14  A    between atoms: C_14  and  C_23
   15  A    between atoms: C_14  and  C_49
   16  A    between atoms: N_17  and  C_24
   17  A    between atoms: C_19  and  C_48
   18  A    between atoms: C_19  and  C_51
   19  A    between atoms: C_21  and  N_53
   20  A    between atoms: C_24  and  C_39
   21  A    between atoms: C_38  and  C_51
   22  A    between atoms: C_44  and  C_45
                            x       y       z     vdW  Elec       q    Type
                         _______ _______ _______ _____ _____    ______ ____

>  <TORSDO>
F 22

$$$$
=
 OpenBabel11072410013D

 54 59  0  0  1  0  0  0  0  0999 V2000
  161.3320  206.6300  146.8750 C   0  0  0  0  0  2  0  0  0  0  0  0
  160.9600  207.1800  148.2450 C   0  0  0  0  0  2  0  0  0  0  0  0
  161.7420  210.3390  149.0930 C   0  0  2  0  0  3  0  0  0  0  0  0
  161.9850  209.7620  150.4720 C   0  0  0  0  0  2  0  0  0  0  0  0
  161.8060  208.2710  150.3020 C   0  0  2  0  0  3  0  0  0  0  0  0
  162.2670  209.2920  148.1330 C   0  0  0  0  0  2  0  0  0  0  0  0
  162.6900  207.5920  151.1420 O   0  0  0  0  0  1  0  0  0  0  0  0
  162.1190  207.9570  148.8490 C   0  0  2  0  0  3  0  0  0  0  0  0
  162.4720  211.5890  148.9140 N   0  0  0  0  0  2  0  0  0  0  0  0
  161.7160  212.3990  148.0520 N   0  0  0  0  0  2  0  0  0  0  0  0
  161.0000  213.3620  148.8720 C   0  0  0  0  0  2  0  0  0  0  0  0
  159.2690  212.6460  150.5410 C   0  0  0  0  0  2  0  0  0  0  0  0
  157.4240  214.4510  149.1610 C   0  0  2  0  0  3  0  0  0  0  0  0
  157.3610  213.9640  150.6050 C   0  0  0  0  0  2  0  0  0  0  0  0
  157.2180  213.2750  148.2260 C   0  0  0  0  0  2  0  0  0  0  0  0
  158.6020  213.8820  148.3430 C   0  0  2  0  0  3  0  0  0  0  0  0
  159.5630  212.9040  149.0540 C   0  0  1  0  0  3  0  0  0  0  0  0
  158.7040  213.8350  151.1580 N   0  0  0  0  0  0  0  0  0  0  0  0
  158.5740  213.5480  152.5790 C   0  0  0  0  0  2  0  0  0  0  0  0
  159.7680  213.0090  153.0660 O   0  0  0  0  0  0  0  0  0  0  0  0
  162.0020  210.4050  153.9910 O   0  0  0  0  0  1  0  0  0  0  0  0
  160.7260  210.1630  154.5110 C   0  0  1  0  0  3  0  0  0  0  0  0
  160.4540  211.0560  155.7070 C   0  0  2  0  0  3  0  0  0  0  0  0
  160.0750  212.3170  155.2290 O   0  0  0  0  0  0  0  0  0  0  0  0
  159.7070  210.6650  153.5350 C   0  0  0  0  0  2  0  0  0  0  0  0
  159.3780  212.0710  154.0290 C   0  0  2  0  0  3  0  0  0  0  0  0
  161.6410  211.1670  156.6500 C   0  0  0  0  0  1  0  0  0  0  0  0
  160.0860  206.3500  146.0430 C   0  0  0  0  0  2  0  0  0  0  0  0
  160.3990  205.3790  144.9110 C   0  0  2  0  0  3  0  0  0  0  0  0
  161.0750  204.1520  145.4370 C   0  0  0  0  0  0  0  0  0  0  0  0
  163.4970  203.8920  144.6410 O   0  0  0  0  0  1  0  0  0  0  0  0
  162.2430  204.4790  144.7590 C   0  0  0  0  0  0  0  0  0  0  0  0
  161.6220  205.7350  144.2520 C   0  0  1  0  0  3  0  0  0  0  0  0
  160.6820  203.0270  146.3320 C   0  0  1  0  0  3  0  0  0  0  0  0
  161.1050  201.8040  145.7970 O   0  0  0  0  0  1  0  0  0  0  0  0
  162.4160  203.7960  147.9170 C   0  0  0  0  0  2  0  0  0  0  0  0
  161.2160  203.2240  147.7240 C   0  0  0  0  0  0  0  0  0  0  0  0
  160.4550  202.5890  148.8640 C   0  0  2  0  0  3  0  0  0  0  0  0
  161.1370  202.4320  151.3290 C   0  0  0  0  0  3  0  0  0  0  0  0
  161.1280  204.4830  152.2280 C   0  0  0  0  0  0  0  0  0  0  0  0
  160.7600  203.1760  150.2170 C   0  0  0  0  0  0  0  0  0  0  0  0
  161.3440  203.1690  152.4500 N   0  0  0  0  0  0  0  0  0  0  0  0
  160.6680  204.8050  150.6480 S   0  0  0  0  0  0  0  0  0  0  0  0
  161.2760  205.4770  153.2350 N   0  0  0  0  0  1  0  0  0  0  0  0
  161.6330  200.4050  148.7090 C   0  0  0  0  0  2  0  0  0  0  0  0
  160.4930  201.0820  148.8360 C   0  0  0  0  0  3  0  0  0  0  0  0
  161.4990  205.7800  142.7170 C   0  0  0  0  0  2  0  0  0  0  0  0
  162.4280  206.7700  142.0090 C   0  0  0  0  0  2  0  0  0  0  0  0
  162.0900  206.8990  140.5590 C   0  0  0  0  0  0  0  0  0  0  0  0
  162.4640  206.0460  139.7720 O   0  0  0  0  0  0  0  0  0  0  0  0
  161.2630  208.0460  140.0860 C   0  0  0  0  0  2  0  0  0  0  0  0
  162.1500  209.1020  139.4410 C   0  0  0  0  0  2  0  0  0  0  0  0
  160.9740  210.9580  140.2330 C   0  0  0  0  0  1  0  0  0  0  0  0
  161.3350  210.2320  139.0270 N   0  0  0  0  0  2  0  0  0  0  0  0
  1  2  1  0  0  0  0
  3  9  1  1  0  0  0
  3  4  1  0  0  0  0
  5  4  1  0  0  0  0
  5  7  1  1  0  0  0
  6  8  1  0  0  0  0
  6  3  1  0  0  0  0
  8  2  1  6  0  0  0
  8  5  1  0  0  0  0
 10 11  1  0  0  0  0
 10  9  1  0  0  0  0
 12 18  1  0  0  0  0
 13 15  1  6  0  0  0
 13 14  1  0  0  0  0
 14 18  1  0  0  0  0
 16 15  1  6  0  0  0
 16 17  1  0  0  0  0
 16 13  1  0  0  0  0
 17 11  1  1  0  0  0
 17 12  1  0  0  0  0
 18 19  1  0  0  0  0
 19 20  1  0  0  0  0
 22 21  1  6  0  0  0
 22 23  1  0  0  0  0
 23 27  1  1  0  0  0
 24 23  1  0  0  0  0
 25 26  1  0  0  0  0
 25 22  1  0  0  0  0
 26 20  1  6  0  0  0
 26 24  1  0  0  0  0
 28  1  1  0  0  0  0
 29 30  1  0  0  0  0
 29 28  1  1  0  0  0
 30 34  1  0  0  0  0
 31 32  1  0  0  0  0
 32 30  2  0  0  0  0
 33 47  1  6  0  0  0
 33 32  1  0  0  0  0
 33 29  1  0  0  0  0
 34 35  1  6  0  0  0
 34 37  1  0  0  0  0
 37 36  2  0  0  0  0
 37 38  1  0  0  0  0
 38 46  1  1  0  0  0
 38 41  1  0  0  0  0
 39 42  1  0  0  0  0
 40 42  2  0  0  0  0
 40 44  1  0  0  0  0
 41 43  1  0  0  0  0
 41 39  2  0  0  0  0
 43 40  1  0  0  0  0
 45 46  2  0  0  0  0
 48 47  1  0  0  0  0
 49 48  1  0  0  0  0
 50 49  2  0  0  0  0
 51 49  1  0  0  0  0
 52 51  1  0  0  0  0
 54 52  1  0  0  0  0
 54 53  1  0  0  0  0
M  END
>  <MODEL>
3

>  <REMARK>
 VINA RESULT:      -4.2      3.113     11.079
  Name = 
  22 active torsions:
  status: ('A' for Active; 'I' for Inactive)
    1  A    between atoms: C_1  and  C_20
    2  A    between atoms: C_1  and  C_54
    3  A    between atoms: C_2  and  C_18
    4  A    between atoms: C_2  and  C_49
    5  A    between atoms: C_2  and  C_52
    6  A    between atoms: C_3  and  C_48
    7  A    between atoms: N_4  and  N_6
    8  A    between atoms: N_4  and  C_44
    9  A    between atoms: N_6  and  C_9
   10  A    between atoms: C_7  and  C_20
   11  A    between atoms: C_7  and  C_39
   12  A    between atoms: O_10  and  C_21
   13  A    between atoms: O_10  and  C_43
   14  A    between atoms: C_14  and  C_23
   15  A    between atoms: C_14  and  C_49
   16  A    between atoms: N_17  and  C_24
   17  A    between atoms: C_19  and  C_48
   18  A    between atoms: C_19  and  C_51
   19  A    between atoms: C_21  and  N_53
   20  A    between atoms: C_24  and  C_39
   21  A    between atoms: C_38  and  C_51
   22  A    between atoms: C_44  and  C_45
                            x       y       z     vdW  Elec       q    Type
                         _______ _______ _______ _____ _____    ______ ____

>  <TORSDO>
F 22

$$$$
=
 OpenBabel11072410013D

 54 59  0  0  1  0  0  0  0  0999 V2000
  161.5950  212.5400  148.8750 C   0  0  0  0  0  2  0  0  0  0  0  0
  162.4320  211.4970  149.6020 C   0  0  0  0  0  2  0  0  0  0  0  0
  162.6070  208.1380  149.6200 C   0  0  2  0  0  3  0  0  0  0  0  0
  162.3320  208.2690  151.1040 C   0  0  0  0  0  2  0  0  0  0  0  0
  162.0860  209.7450  151.3200 C   0  0  2  0  0  3  0  0  0  0  0  0
  161.7410  209.1940  148.9660 C   0  0  0  0  0  2  0  0  0  0  0  0
  161.1240  209.9210  152.3150 O   0  0  0  0  0  1  0  0  0  0  0  0
  161.5800  210.3000  149.9990 C   0  0  2  0  0  3  0  0  0  0  0  0
  162.2310  206.8150  149.1350 N   0  0  0  0  0  2  0  0  0  0  0  0
  161.7150  206.0970  150.2260 N   0  0  0  0  0  2  0  0  0  0  0  0
  160.4020  205.6050  149.8450 C   0  0  0  0  0  2  0  0  0  0  0  0
  159.8890  203.1740  149.4980 C   0  0  0  0  0  2  0  0  0  0  0  0
  161.9570  202.6180  151.4940 C   0  0  2  0  0  3  0  0  0  0  0  0
  161.4510  201.7030  150.3830 C   0  0  0  0  0  2  0  0  0  0  0  0
  160.8410  202.8600  152.4910 C   0  0  0  0  0  2  0  0  0  0  0  0
  161.2520  203.9890  151.5670 C   0  0  2  0  0  3  0  0  0  0  0  0
  160.1380  204.2780  150.5370 C   0  0  1  0  0  3  0  0  0  0  0  0
  161.1300  202.4800  149.1910 N   0  0  0  0  0  0  0  0  0  0  0  0
  160.8320  201.5430  148.1180 C   0  0  0  0  0  2  0  0  0  0  0  0
  161.3710  202.0110  146.9150 O   0  0  0  0  0  0  0  0  0  0  0  0
  163.5250  204.1180  145.0330 O   0  0  0  0  0  1  0  0  0  0  0  0
  162.7410  204.8760  145.9100 C   0  0  1  0  0  3  0  0  0  0  0  0
  161.3200  205.0010  145.3940 C   0  0  2  0  0  3  0  0  0  0  0  0
  160.6360  203.8220  145.7210 O   0  0  0  0  0  0  0  0  0  0  0  0
  162.5270  204.0880  147.1650 C   0  0  0  0  0  2  0  0  0  0  0  0
  161.1850  203.3970  146.9470 C   0  0  2  0  0  3  0  0  0  0  0  0
  161.2510  205.2720  143.8990 C   0  0  0  0  0  1  0  0  0  0  0  0
  160.6690  213.2670  149.8440 C   0  0  0  0  0  2  0  0  0  0  0  0
  159.6950  214.1650  149.0890 C   0  0  2  0  0  3  0  0  0  0  0  0
  158.3100  214.0210  149.6360 C   0  0  0  0  0  0  0  0  0  0  0  0
  156.6570  212.9700  147.9840 O   0  0  0  0  0  1  0  0  0  0  0  0
  157.8750  213.4560  148.4440 C   0  0  0  0  0  0  0  0  0  0  0  0
  159.2520  213.5380  147.8780 C   0  0  1  0  0  3  0  0  0  0  0  0
  157.6440  214.3380  150.9310 C   0  0  1  0  0  3  0  0  0  0  0  0
  156.2520  214.2580  150.7980 O   0  0  0  0  0  1  0  0  0  0  0  0
  158.4690  212.1660  151.7740 C   0  0  0  0  0  2  0  0  0  0  0  0
  158.1370  213.4410  152.0320 C   0  0  0  0  0  0  0  0  0  0  0  0
  158.0580  213.9610  153.4490 C   0  0  2  0  0  3  0  0  0  0  0  0
  159.7200  213.4280  155.3250 C   0  0  0  0  0  3  0  0  0  0  0  0
  159.4450  211.3010  155.9700 C   0  0  0  0  0  0  0  0  0  0  0  0
  158.6830  213.0550  154.4770 C   0  0  0  0  0  0  0  0  0  0  0  0
  160.1390  212.4430  156.1590 N   0  0  0  0  0  0  0  0  0  0  0  0
  158.2860  211.4410  154.7670 S   0  0  0  0  0  0  0  0  0  0  0  0
  159.6830  210.1130  156.7160 N   0  0  0  0  0  1  0  0  0  0  0  0
  155.9830  213.8950  154.8160 C   0  0  0  0  0  2  0  0  0  0  0  0
  156.6830  214.4480  153.8270 C   0  0  0  0  0  3  0  0  0  0  0  0
  159.3520  214.4530  146.6430 C   0  0  0  0  0  2  0  0  0  0  0  0
  160.3430  214.0020  145.5660 C   0  0  0  0  0  2  0  0  0  0  0  0
  159.6780  213.8570  144.2350 C   0  0  0  0  0  0  0  0  0  0  0  0
  158.4690  213.7090  144.1760 O   0  0  0  0  0  0  0  0  0  0  0  0
  160.4870  213.9370  142.9860 C   0  0  0  0  0  2  0  0  0  0  0  0
  159.7470  213.2660  141.8370 C   0  0  0  0  0  2  0  0  0  0  0  0
  161.3570  211.7540  141.0760 C   0  0  0  0  0  1  0  0  0  0  0  0
  160.6770  212.9970  140.7520 N   0  0  0  0  0  2  0  0  0  0  0  0
  1  2  1  0  0  0  0
  1 28  1  0  0  0  0
  3  9  1  6  0  0  0
  3  4  1  0  0  0  0
  4  5  1  0  0  0  0
  5  7  1  1  0  0  0
  6  3  1  0  0  0  0
  6  8  1  0  0  0  0
  8  2  1  6  0  0  0
  8  5  1  0  0  0  0
  9 10  1  0  0  0  0
 11 10  1  0  0  0  0
 12 17  1  0  0  0  0
 13 14  1  6  0  0  0
 13 16  1  0  0  0  0
 13 15  1  0  0  0  0
 16 15  1  1  0  0  0
 17 11  1  6  0  0  0
 17 16  1  0  0  0  0
 18 12  1  0  0  0  0
 18 14  1  0  0  0  0
 19 18  1  0  0  0  0
 20 19  1  0  0  0  0
 22 21  1  6  0  0  0
 22 25  1  0  0  0  0
 23 27  1  6  0  0  0
 23 24  1  0  0  0  0
 23 22  1  0  0  0  0
 24 26  1  0  0  0  0
 26 20  1  6  0  0  0
 26 25  1  0  0  0  0
 29 30  1  0  0  0  0
 29 28  1  1  0  0  0
 30 34  1  0  0  0  0
 31 32  1  0  0  0  0
 32 30  2  0  0  0  0
 33 47  1  6  0  0  0
 33 32  1  0  0  0  0
 33 29  1  0  0  0  0
 34 35  1  6  0  0  0
 34 37  1  0  0  0  0
 36 37  2  0  0  0  0
 37 38  1  0  0  0  0
 38 46  1  1  0  0  0
 38 41  1  0  0  0  0
 39 42  1  0  0  0  0
 40 42  2  0  0  0  0
 40 44  1  0  0  0  0
 41 43  1  0  0  0  0
 41 39  2  0  0  0  0
 43 40  1  0  0  0  0
 46 45  2  0  0  0  0
 48 47  1  0  0  0  0
 49 48  1  0  0  0  0
 50 49  2  0  0  0  0
 51 49  1  0  0  0  0
 52 51  1  0  0  0  0
 54 53  1  0  0  0  0
 54 52  1  0  0  0  0
M  END
>  <MODEL>
4

>  <REMARK>
 VINA RESULT:      -3.9      3.881      9.965
  Name = 
  22 active torsions:
  status: ('A' for Active; 'I' for Inactive)
    1  A    between atoms: C_1  and  C_20
    2  A    between atoms: C_1  and  C_54
    3  A    between atoms: C_2  and  C_18
    4  A    between atoms: C_2  and  C_49
    5  A    between atoms: C_2  and  C_52
    6  A    between atoms: C_3  and  C_48
    7  A    between atoms: N_4  and  N_6
    8  A    between atoms: N_4  and  C_44
    9  A    between atoms: N_6  and  C_9
   10  A    between atoms: C_7  and  C_20
   11  A    between atoms: C_7  and  C_39
   12  A    between atoms: O_10  and  C_21
   13  A    between atoms: O_10  and  C_43
   14  A    between atoms: C_14  and  C_23
   15  A    between atoms: C_14  and  C_49
   16  A    between atoms: N_17  and  C_24
   17  A    between atoms: C_19  and  C_48
   18  A    between atoms: C_19  and  C_51
   19  A    between atoms: C_21  and  N_53
   20  A    between atoms: C_24  and  C_39
   21  A    between atoms: C_38  and  C_51
   22  A    between atoms: C_44  and  C_45
                            x       y       z     vdW  Elec       q    Type
                         _______ _______ _______ _____ _____    ______ ____

>  <TORSDO>
F 22

$$$$
=
 OpenBabel11072410013D

 54 59  0  0  1  0  0  0  0  0999 V2000
  162.0440  207.0610  147.6990 C   0  0  0  0  0  2  0  0  0  0  0  0
  160.6600  206.7870  147.1270 C   0  0  0  0  0  2  0  0  0  0  0  0
  161.9410  205.8670  144.1560 C   0  0  2  0  0  3  0  0  0  0  0  0
  162.5810  204.7370  144.9370 C   0  0  0  0  0  2  0  0  0  0  0  0
  162.0280  204.8770  146.3370 C   0  0  2  0  0  3  0  0  0  0  0  0
  160.5620  206.0290  144.7610 C   0  0  0  0  0  2  0  0  0  0  0  0
  161.8620  203.6140  146.9070 O   0  0  0  0  0  1  0  0  0  0  0  0
  160.6850  205.5740  146.2080 C   0  0  2  0  0  3  0  0  0  0  0  0
  161.8290  205.5250  142.7430 N   0  0  0  0  0  2  0  0  0  0  0  0
  161.4680  206.6940  142.0540 N   0  0  0  0  0  2  0  0  0  0  0  0
  162.2890  206.7690  140.8570 C   0  0  0  0  0  2  0  0  0  0  0  0
  161.1660  208.8320  139.9770 C   0  0  0  0  0  2  0  0  0  0  0  0
  162.4010  208.2070  137.3970 C   0  0  2  0  0  3  0  0  0  0  0  0
  161.9350  209.5660  137.9140 C   0  0  0  0  0  2  0  0  0  0  0  0
  161.1990  207.3010  137.2170 C   0  0  0  0  0  2  0  0  0  0  0  0
  162.1510  207.0330  138.3650 C   0  0  2  0  0  3  0  0  0  0  0  0
  161.4700  207.3480  139.7160 C   0  0  1  0  0  3  0  0  0  0  0  0
  162.1730  209.6720  139.3480 N   0  0  0  0  0  0  0  0  0  0  0  0
  161.8830  211.0420  139.7450 C   0  0  0  0  0  2  0  0  0  0  0  0
  162.6120  211.3700  140.8930 O   0  0  0  0  0  0  0  0  0  0  0  0
  159.2770  212.5870  140.7550 O   0  0  0  0  0  1  0  0  0  0  0  0
  160.1860  213.6500  140.7850 C   0  0  1  0  0  3  0  0  0  0  0  0
  160.7460  213.8420  142.1820 C   0  0  2  0  0  3  0  0  0  0  0  0
  161.7650  212.8990  142.3730 O   0  0  0  0  0  0  0  0  0  0  0  0
  161.4160  213.2510  140.0300 C   0  0  0  0  0  2  0  0  0  0  0  0
  162.3620  212.7290  141.1080 C   0  0  2  0  0  3  0  0  0  0  0  0
  159.6890  213.7260  143.2690 C   0  0  0  0  0  1  0  0  0  0  0  0
  162.1580  208.5010  148.1830 C   0  0  0  0  0  2  0  0  0  0  0  0
  161.3770  208.6990  149.4780 C   0  0  2  0  0  3  0  0  0  0  0  0
  161.5410  210.0970  149.9870 C   0  0  0  0  0  0  0  0  0  0  0  0
  162.8100  210.2390  152.2080 O   0  0  0  0  0  1  0  0  0  0  0  0
  162.2270  209.6330  151.1020 C   0  0  0  0  0  0  0  0  0  0  0  0
  162.1280  208.2310  150.6070 C   0  0  1  0  0  3  0  0  0  0  0  0
  161.1460  211.4520  149.5080 C   0  0  1  0  0  3  0  0  0  0  0  0
  161.0650  212.3470  150.5830 O   0  0  0  0  0  1  0  0  0  0  0  0
  163.3900  211.6170  148.4860 C   0  0  0  0  0  2  0  0  0  0  0  0
  162.0910  211.9540  148.4520 C   0  0  0  0  0  0  0  0  0  0  0  0
  161.5730  212.9930  147.4840 C   0  0  2  0  0  3  0  0  0  0  0  0
  159.2470  212.3570  146.6170 C   0  0  0  0  0  3  0  0  0  0  0  0
  157.7090  213.6190  147.6440 C   0  0  0  0  0  0  0  0  0  0  0  0
  160.0730  213.1110  147.4450 C   0  0  0  0  0  0  0  0  0  0  0  0
  157.9260  212.6450  146.7360 N   0  0  0  0  0  0  0  0  0  0  0  0
  159.1260  214.1800  148.3430 S   0  0  0  0  0  0  0  0  0  0  0  0
  156.4120  214.1100  147.9630 N   0  0  0  0  0  1  0  0  0  0  0  0
  162.8280  213.9380  145.5570 C   0  0  0  0  0  2  0  0  0  0  0  0
  162.2090  212.9020  146.1200 C   0  0  0  0  0  3  0  0  0  0  0  0
  161.3190  207.3090  151.5380 C   0  0  0  0  0  2  0  0  0  0  0  0
  162.0200  206.9040  152.8380 C   0  0  0  0  0  2  0  0  0  0  0  0
  161.1910  207.2390  154.0360 C   0  0  0  0  0  0  0  0  0  0  0  0
  160.8740  206.3580  154.8180 O   0  0  0  0  0  0  0  0  0  0  0  0
  160.7900  208.6520  154.2930 C   0  0  0  0  0  2  0  0  0  0  0  0
  160.7040  208.9090  155.7920 C   0  0  0  0  0  2  0  0  0  0  0  0
  159.8730  211.0020  155.1720 C   0  0  0  0  0  1  0  0  0  0  0  0
  160.8230  210.3350  156.0470 N   0  0  0  0  0  2  0  0  0  0  0  0
  1 28  1  0  0  0  0
  2  1  1  0  0  0  0
  3  9  1  6  0  0  0
  3  6  1  0  0  0  0
  3  4  1  0  0  0  0
  4  5  1  0  0  0  0
  5  7  1  6  0  0  0
  6  8  1  0  0  0  0
  8  5  1  0  0  0  0
  8  2  1  1  0  0  0
 10  9  1  0  0  0  0
 11 10  1  0  0  0  0
 13 15  1  6  0  0  0
 13 14  1  0  0  0  0
 13 16  1  0  0  0  0
 14 18  1  0  0  0  0
 16 15  1  6  0  0  0
 16 17  1  0  0  0  0
 17 12  1  0  0  0  0
 17 11  1  1  0  0  0
 18 19  1  0  0  0  0
 18 12  1  0  0  0  0
 19 20  1  0  0  0  0
 22 21  1  1  0  0  0
 22 23  1  0  0  0  0
 23 24  1  0  0  0  0
 23 27  1  1  0  0  0
 25 22  1  0  0  0  0
 25 26  1  0  0  0  0
 26 20  1  6  0  0  0
 26 24  1  0  0  0  0
 29 28  1  6  0  0  0
 29 30  1  0  0  0  0
 29 33  1  0  0  0  0
 30 32  2  0  0  0  0
 32 31  1  0  0  0  0
 33 32  1  0  0  0  0
 33 47  1  1  0  0  0
 34 30  1  0  0  0  0
 34 35  1  1  0  0  0
 37 36  2  0  0  0  0
 37 34  1  0  0  0  0
 38 46  1  6  0  0  0
 38 37  1  0  0  0  0
 39 42  1  0  0  0  0
 39 41  2  0  0  0  0
 40 44  1  0  0  0  0
 40 43  1  0  0  0  0
 41 38  1  0  0  0  0
 41 43  1  0  0  0  0
 42 40  2  0  0  0  0
 45 46  2  0  0  0  0
 47 48  1  0  0  0  0
 48 49  1  0  0  0  0
 49 51  1  0  0  0  0
 49 50  2  0  0  0  0
 51 52  1  0  0  0  0
 52 54  1  0  0  0  0
 53 54  1  0  0  0  0
M  END
>  <MODEL>
5

>  <REMARK>
 VINA RESULT:      -3.8      2.011      2.772
  Name = 
  22 active torsions:
  status: ('A' for Active; 'I' for Inactive)
    1  A    between atoms: C_1  and  C_20
    2  A    between atoms: C_1  and  C_54
    3  A    between atoms: C_2  and  C_18
    4  A    between atoms: C_2  and  C_49
    5  A    between atoms: C_2  and  C_52
    6  A    between atoms: C_3  and  C_48
    7  A    between atoms: N_4  and  N_6
    8  A    between atoms: N_4  and  C_44
    9  A    between atoms: N_6  and  C_9
   10  A    between atoms: C_7  and  C_20
   11  A    between atoms: C_7  and  C_39
   12  A    between atoms: O_10  and  C_21
   13  A    between atoms: O_10  and  C_43
   14  A    between atoms: C_14  and  C_23
   15  A    between atoms: C_14  and  C_49
   16  A    between atoms: N_17  and  C_24
   17  A    between atoms: C_19  and  C_48
   18  A    between atoms: C_19  and  C_51
   19  A    between atoms: C_21  and  N_53
   20  A    between atoms: C_24  and  C_39
   21  A    between atoms: C_38  and  C_51
   22  A    between atoms: C_44  and  C_45
                            x       y       z     vdW  Elec       q    Type
                         _______ _______ _______ _____ _____    ______ ____

>  <TORSDO>
F 22

$$$$
=
 OpenBabel11072410013D

 54 59  0  0  1  0  0  0  0  0999 V2000
  162.4340  208.4930  151.5850 C   0  0  0  0  0  2  0  0  0  0  0  0
  161.0570  209.1000  151.3600 C   0  0  0  0  0  2  0  0  0  0  0  0
  162.6180  211.2100  149.2570 C   0  0  2  0  0  3  0  0  0  0  0  0
  162.7120  210.0070  148.3410 C   0  0  0  0  0  2  0  0  0  0  0  0
  161.9380  208.9210  149.0510 C   0  0  2  0  0  3  0  0  0  0  0  0
  161.2510  211.1050  149.9010 C   0  0  0  0  0  2  0  0  0  0  0  0
  161.2880  208.1160  148.1150 O   0  0  0  0  0  1  0  0  0  0  0  0
  160.9200  209.6190  149.9370 C   0  0  2  0  0  3  0  0  0  0  0  0
  162.7160  212.4520  148.4990 N   0  0  0  0  0  2  0  0  0  0  0  0
  161.8560  212.3410  147.3950 N   0  0  0  0  0  2  0  0  0  0  0  0
  162.0830  213.4970  146.5440 C   0  0  0  0  0  2  0  0  0  0  0  0
  161.2850  214.0550  144.2320 C   0  0  0  0  0  2  0  0  0  0  0  0
  159.3500  211.8810  144.5500 C   0  0  2  0  0  3  0  0  0  0  0  0
  159.9120  212.4600  143.2550 C   0  0  0  0  0  2  0  0  0  0  0  0
  158.5140  212.9350  145.2490 C   0  0  0  0  0  2  0  0  0  0  0  0
  159.8630  212.5660  145.8340 C   0  0  2  0  0  3  0  0  0  0  0  0
  160.8610  213.7350  145.6740 C   0  0  1  0  0  3  0  0  0  0  0  0
  161.3080  212.8410  143.4320 N   0  0  0  0  0  0  0  0  0  0  0  0
  161.8350  213.2110  142.1260 C   0  0  0  0  0  2  0  0  0  0  0  0
  161.4630  212.2560  141.1750 O   0  0  0  0  0  0  0  0  0  0  0  0
  164.2520  211.6200  139.0680 O   0  0  0  0  0  1  0  0  0  0  0  0
  163.5240  212.7190  138.5990 C   0  0  1  0  0  3  0  0  0  0  0  0
  162.2490  212.2680  137.9130 C   0  0  2  0  0  3  0  0  0  0  0  0
  161.2960  211.9970  138.9050 O   0  0  0  0  0  0  0  0  0  0  0  0
  162.9740  213.4670  139.7740 C   0  0  0  0  0  2  0  0  0  0  0  0
  161.5640  212.9120  139.9430 C   0  0  2  0  0  3  0  0  0  0  0  0
  162.4520  211.0610  137.0110 C   0  0  0  0  0  1  0  0  0  0  0  0
  162.4660  207.0350  151.1400 C   0  0  0  0  0  2  0  0  0  0  0  0
  162.3840  206.1010  152.3410 C   0  0  2  0  0  3  0  0  0  0  0  0
  161.7120  204.8170  151.9700 C   0  0  0  0  0  0  0  0  0  0  0  0
  159.4570  204.4630  153.1330 O   0  0  0  0  0  1  0  0  0  0  0  0
  160.6420  205.1110  152.8050 C   0  0  0  0  0  0  0  0  0  0  0  0
  161.2550  206.4200  153.1650 C   0  0  1  0  0  3  0  0  0  0  0  0
  162.0340  203.6750  151.0680 C   0  0  1  0  0  3  0  0  0  0  0  0
  161.7990  202.4560  151.7160 O   0  0  0  0  0  1  0  0  0  0  0  0
  160.1970  204.5730  149.6790 C   0  0  0  0  0  2  0  0  0  0  0  0
  161.2630  203.7630  149.7800 C   0  0  0  0  0  0  0  0  0  0  0  0
  161.6070  202.7770  148.6870 C   0  0  2  0  0  3  0  0  0  0  0  0
  160.9110  202.6550  146.2240 C   0  0  0  0  0  3  0  0  0  0  0  0
  161.5230  204.5440  145.1910 C   0  0  0  0  0  0  0  0  0  0  0  0
  161.4890  203.3320  147.2920 C   0  0  0  0  0  0  0  0  0  0  0  0
  160.9300  203.3400  145.0530 N   0  0  0  0  0  0  0  0  0  0  0  0
  162.0560  204.8270  146.7550 S   0  0  0  0  0  0  0  0  0  0  0  0
  161.6740  205.4650  144.1160 N   0  0  0  0  0  1  0  0  0  0  0  0
  159.9120  201.2630  149.6940 C   0  0  0  0  0  2  0  0  0  0  0  0
  160.9390  201.4370  148.8640 C   0  0  0  0  0  3  0  0  0  0  0  0
  161.6030  206.5420  154.6600 C   0  0  0  0  0  2  0  0  0  0  0  0
  161.5100  207.9530  155.2470 C   0  0  0  0  0  2  0  0  0  0  0  0
  160.1520  208.2260  155.8080 C   0  0  0  0  0  0  0  0  0  0  0  0
  159.4000  207.2970  156.0510 O   0  0  0  0  0  0  0  0  0  0  0  0
  159.7370  209.6260  156.1070 C   0  0  0  0  0  2  0  0  0  0  0  0
  160.9420  210.5550  156.0510 C   0  0  0  0  0  2  0  0  0  0  0  0
  159.7370  211.8520  154.5280 C   0  0  0  0  0  1  0  0  0  0  0  0
  160.4990  211.9090  155.7650 N   0  0  0  0  0  2  0  0  0  0  0  0
  2  1  1  0  0  0  0
  3  9  1  6  0  0  0
  3  6  1  0  0  0  0
  4  5  1  0  0  0  0
  4  3  1  0  0  0  0
  5  7  1  6  0  0  0
  5  8  1  0  0  0  0
  6  8  1  0  0  0  0
  8  2  1  1  0  0  0
 10  9  1  0  0  0  0
 11 10  1  0  0  0  0
 12 17  1  0  0  0  0
 13 14  1  6  0  0  0
 13 15  1  0  0  0  0
 13 16  1  0  0  0  0
 14 18  1  0  0  0  0
 16 15  1  6  0  0  0
 17 16  1  0  0  0  0
 17 11  1  1  0  0  0
 18 12  1  0  0  0  0
 19 18  1  0  0  0  0
 20 19  1  0  0  0  0
 22 21  1  1  0  0  0
 22 25  1  0  0  0  0
 23 27  1  1  0  0  0
 23 22  1  0  0  0  0
 23 24  1  0  0  0  0
 24 26  1  0  0  0  0
 25 26  1  0  0  0  0
 26 20  1  1  0  0  0
 28  1  1  0  0  0  0
 29 28  1  6  0  0  0
 29 33  1  0  0  0  0
 30 29  1  0  0  0  0
 30 32  2  0  0  0  0
 32 31  1  0  0  0  0
 32 33  1  0  0  0  0
 33 47  1  1  0  0  0
 34 35  1  1  0  0  0
 34 30  1  0  0  0  0
 36 37  2  0  0  0  0
 37 34  1  0  0  0  0
 38 46  1  6  0  0  0
 38 37  1  0  0  0  0
 39 41  2  0  0  0  0
 40 43  1  0  0  0  0
 41 38  1  0  0  0  0
 42 40  2  0  0  0  0
 42 39  1  0  0  0  0
 43 41  1  0  0  0  0
 44 40  1  0  0  0  0
 46 45  2  0  0  0  0
 47 48  1  0  0  0  0
 48 49  1  0  0  0  0
 49 50  2  0  0  0  0
 49 51  1  0  0  0  0
 52 51  1  0  0  0  0
 53 54  1  0  0  0  0
 54 52  1  0  0  0  0
M  END
>  <MODEL>
6

>  <REMARK>
 VINA RESULT:      -3.6      3.056      7.355
  Name = 
  22 active torsions:
  status: ('A' for Active; 'I' for Inactive)
    1  A    between atoms: C_1  and  C_20
    2  A    between atoms: C_1  and  C_54
    3  A    between atoms: C_2  and  C_18
    4  A    between atoms: C_2  and  C_49
    5  A    between atoms: C_2  and  C_52
    6  A    between atoms: C_3  and  C_48
    7  A    between atoms: N_4  and  N_6
    8  A    between atoms: N_4  and  C_44
    9  A    between atoms: N_6  and  C_9
   10  A    between atoms: C_7  and  C_20
   11  A    between atoms: C_7  and  C_39
   12  A    between atoms: O_10  and  C_21
   13  A    between atoms: O_10  and  C_43
   14  A    between atoms: C_14  and  C_23
   15  A    between atoms: C_14  and  C_49
   16  A    between atoms: N_17  and  C_24
   17  A    between atoms: C_19  and  C_48
   18  A    between atoms: C_19  and  C_51
   19  A    between atoms: C_21  and  N_53
   20  A    between atoms: C_24  and  C_39
   21  A    between atoms: C_38  and  C_51
   22  A    between atoms: C_44  and  C_45
                            x       y       z     vdW  Elec       q    Type
                         _______ _______ _______ _____ _____    ______ ____

>  <TORSDO>
F 22

$$$$
=
 OpenBabel11072410013D

 54 59  0  0  1  0  0  0  0  0999 V2000
  161.2210  210.5670  153.2430 C   0  0  0  0  0  2  0  0  0  0  0  0
  159.7620  210.6990  152.8300 C   0  0  0  0  0  2  0  0  0  0  0  0
  158.4570  213.1650  150.9510 C   0  0  2  0  0  3  0  0  0  0  0  0
  157.3250  213.1450  151.9580 C   0  0  0  0  0  2  0  0  0  0  0  0
  157.7650  212.1550  153.0120 C   0  0  2  0  0  3  0  0  0  0  0  0
  159.7120  212.9480  151.7710 C   0  0  0  0  0  2  0  0  0  0  0  0
  157.3130  212.5700  154.2650 O   0  0  0  0  0  1  0  0  0  0  0  0
  159.2840  212.1350  152.9840 C   0  0  2  0  0  3  0  0  0  0  0  0
  158.5250  214.4510  150.2680 N   0  0  0  0  0  2  0  0  0  0  0  0
  159.1720  214.2430  149.0400 N   0  0  0  0  0  2  0  0  0  0  0  0
  160.5790  214.0110  149.3190 C   0  0  0  0  0  2  0  0  0  0  0  0
  160.2720  213.1580  146.9800 C   0  0  0  0  0  2  0  0  0  0  0  0
  163.0760  213.8660  146.5260 C   0  0  2  0  0  3  0  0  0  0  0  0
  161.9590  213.7320  145.4940 C   0  0  0  0  0  2  0  0  0  0  0  0
  163.3560  212.5080  147.1380 C   0  0  0  0  0  2  0  0  0  0  0  0
  162.6490  213.5550  147.9760 C   0  0  2  0  0  3  0  0  0  0  0  0
  161.1790  213.1500  148.2200 C   0  0  1  0  0  3  0  0  0  0  0  0
  160.6940  214.1950  146.0520 N   0  0  0  0  0  0  0  0  0  0  0  0
  159.7160  214.2160  144.9740 C   0  0  0  0  0  2  0  0  0  0  0  0
  159.9370  213.1390  144.1100 O   0  0  0  0  0  0  0  0  0  0  0  0
  161.9200  211.7820  141.4930 O   0  0  0  0  0  1  0  0  0  0  0  0
  161.3290  212.9840  141.0870 C   0  0  1  0  0  3  0  0  0  0  0  0
  159.8580  212.7820  140.7750 C   0  0  2  0  0  3  0  0  0  0  0  0
  159.1540  212.7860  141.9860 O   0  0  0  0  0  0  0  0  0  0  0  0
  161.2530  213.9030  142.2670 C   0  0  0  0  0  2  0  0  0  0  0  0
  159.8500  213.6810  142.8230 C   0  0  2  0  0  3  0  0  0  0  0  0
  159.5840  211.5080  139.9910 C   0  0  0  0  0  1  0  0  0  0  0  0
  161.9010  209.4330  152.4850 C   0  0  0  0  0  2  0  0  0  0  0  0
  161.9780  208.1770  153.3460 C   0  0  2  0  0  3  0  0  0  0  0  0
  160.9330  207.1880  152.9340 C   0  0  0  0  0  0  0  0  0  0  0  0
  159.1430  206.7820  154.7220 O   0  0  0  0  0  1  0  0  0  0  0  0
  160.2840  207.3350  154.1540 C   0  0  0  0  0  0  0  0  0  0  0  0
  161.2770  208.3590  154.5830 C   0  0  1  0  0  3  0  0  0  0  0  0
  160.6670  206.3720  151.7160 C   0  0  1  0  0  3  0  0  0  0  0  0
  160.2190  207.1860  150.6690 O   0  0  0  0  0  1  0  0  0  0  0  0
  163.1090  206.1220  151.4220 C   0  0  0  0  0  2  0  0  0  0  0  0
  161.8830  205.5850  151.3100 C   0  0  0  0  0  0  0  0  0  0  0  0
  161.6630  204.2690  150.6010 C   0  0  2  0  0  3  0  0  0  0  0  0
  161.6600  203.2840  148.2360 C   0  0  0  0  0  3  0  0  0  0  0  0
  161.5700  204.9510  146.7440 C   0  0  0  0  0  0  0  0  0  0  0  0
  161.6200  204.3730  149.1000 C   0  0  0  0  0  0  0  0  0  0  0  0
  161.6290  203.6150  146.9200 N   0  0  0  0  0  0  0  0  0  0  0  0
  161.5580  205.7950  148.1930 S   0  0  0  0  0  0  0  0  0  0  0  0
  161.5250  205.5670  145.4620 N   0  0  0  0  0  1  0  0  0  0  0  0
  160.6300  202.8540  152.3650 C   0  0  0  0  0  2  0  0  0  0  0  0
  160.5300  203.4620  151.1850 C   0  0  0  0  0  3  0  0  0  0  0  0
  162.0970  207.9370  155.8170 C   0  0  0  0  0  2  0  0  0  0  0  0
  162.0200  208.8850  157.0170 C   0  0  0  0  0  2  0  0  0  0  0  0
  162.4250  210.2760  156.6440 C   0  0  0  0  0  0  0  0  0  0  0  0
  163.3750  210.4500  155.9000 O   0  0  0  0  0  0  0  0  0  0  0  0
  161.6420  211.4400  157.1490 C   0  0  0  0  0  2  0  0  0  0  0  0
  160.1690  211.0740  157.2610 C   0  0  0  0  0  2  0  0  0  0  0  0
  159.8600  213.2730  156.5370 C   0  0  0  0  0  1  0  0  0  0  0  0
  159.3920  211.9080  156.3590 N   0  0  0  0  0  2  0  0  0  0  0  0
  2  1  1  0  0  0  0
  3  9  1  1  0  0  0
  3  6  1  0  0  0  0
  3  4  1  0  0  0  0
  4  5  1  0  0  0  0
  5  7  1  1  0  0  0
  6  8  1  0  0  0  0
  8  2  1  6  0  0  0
  8  5  1  0  0  0  0
 10 11  1  0  0  0  0
 10  9  1  0  0  0  0
 12 17  1  0  0  0  0
 13 14  1  6  0  0  0
 13 15  1  0  0  0  0
 13 16  1  0  0  0  0
 14 18  1  0  0  0  0
 16 15  1  6  0  0  0
 16 17  1  0  0  0  0
 17 11  1  1  0  0  0
 18 12  1  0  0  0  0
 19 18  1  0  0  0  0
 20 19  1  0  0  0  0
 22 21  1  1  0  0  0
 22 25  1  0  0  0  0
 23 27  1  1  0  0  0
 23 22  1  0  0  0  0
 23 24  1  0  0  0  0
 24 26  1  0  0  0  0
 25 26  1  0  0  0  0
 26 20  1  1  0  0  0
 28  1  1  0  0  0  0
 29 28  1  6  0  0  0
 29 33  1  0  0  0  0
 30 29  1  0  0  0  0
 30 32  2  0  0  0  0
 32 33  1  0  0  0  0
 32 31  1  0  0  0  0
 33 47  1  1  0  0  0
 34 35  1  6  0  0  0
 34 30  1  0  0  0  0
 37 36  2  0  0  0  0
 37 34  1  0  0  0  0
 38 46  1  1  0  0  0
 38 37  1  0  0  0  0
 39 41  2  0  0  0  0
 40 42  2  0  0  0  0
 40 43  1  0  0  0  0
 41 38  1  0  0  0  0
 42 39  1  0  0  0  0
 43 41  1  0  0  0  0
 44 40  1  0  0  0  0
 46 45  2  0  0  0  0
 47 48  1  0  0  0  0
 49 48  1  0  0  0  0
 49 51  1  0  0  0  0
 50 49  2  0  0  0  0
 51 52  1  0  0  0  0
 54 53  1  0  0  0  0
 54 52  1  0  0  0  0
M  END
>  <MODEL>
7

>  <REMARK>
 VINA RESULT:      -3.1      3.666      8.441
  Name = 
  22 active torsions:
  status: ('A' for Active; 'I' for Inactive)
    1  A    between atoms: C_1  and  C_20
    2  A    between atoms: C_1  and  C_54
    3  A    between atoms: C_2  and  C_18
    4  A    between atoms: C_2  and  C_49
    5  A    between atoms: C_2  and  C_52
    6  A    between atoms: C_3  and  C_48
    7  A    between atoms: N_4  and  N_6
    8  A    between atoms: N_4  and  C_44
    9  A    between atoms: N_6  and  C_9
   10  A    between atoms: C_7  and  C_20
   11  A    between atoms: C_7  and  C_39
   12  A    between atoms: O_10  and  C_21
   13  A    between atoms: O_10  and  C_43
   14  A    between atoms: C_14  and  C_23
   15  A    between atoms: C_14  and  C_49
   16  A    between atoms: N_17  and  C_24
   17  A    between atoms: C_19  and  C_48
   18  A    between atoms: C_19  and  C_51
   19  A    between atoms: C_21  and  N_53
   20  A    between atoms: C_24  and  C_39
   21  A    between atoms: C_38  and  C_51
   22  A    between atoms: C_44  and  C_45
                            x       y       z     vdW  Elec       q    Type
                         _______ _______ _______ _____ _____    ______ ____

>  <TORSDO>
F 22

$$$$
=
 OpenBabel11072410013D

 54 59  0  0  1  0  0  0  0  0999 V2000
  159.4690  206.4660  149.2700 C   0  0  0  0  0  2  0  0  0  0  0  0
  160.2000  205.8840  148.0690 C   0  0  0  0  0  2  0  0  0  0  0  0
  162.3220  208.3300  148.9810 C   0  0  2  0  0  3  0  0  0  0  0  0
  163.3320  207.5770  148.1390 C   0  0  0  0  0  2  0  0  0  0  0  0
  162.5440  206.4570  147.5020 C   0  0  2  0  0  3  0  0  0  0  0  0
  161.0210  208.2270  148.2140 C   0  0  0  0  0  2  0  0  0  0  0  0
  163.0350  206.2040  146.2200 O   0  0  0  0  0  1  0  0  0  0  0  0
  161.1010  206.9280  147.4260 C   0  0  2  0  0  3  0  0  0  0  0  0
  162.7050  209.7280  149.1290 N   0  0  0  0  0  2  0  0  0  0  0  0
  161.9550  210.4710  148.2020 N   0  0  0  0  0  2  0  0  0  0  0  0
  162.7000  211.6820  147.9040 C   0  0  0  0  0  2  0  0  0  0  0  0
  162.2770  213.5140  146.2440 C   0  0  0  0  0  2  0  0  0  0  0  0
  159.5500  212.4720  146.0310 C   0  0  2  0  0  3  0  0  0  0  0  0
  160.3300  213.2870  145.0030 C   0  0  0  0  0  2  0  0  0  0  0  0
  159.2940  213.3260  147.2570 C   0  0  0  0  0  2  0  0  0  0  0  0
  160.3090  212.2050  147.3470 C   0  0  2  0  0  3  0  0  0  0  0  0
  161.7380  212.7780  147.4810 C   0  0  1  0  0  3  0  0  0  0  0  0
  161.7410  212.9210  145.0290 N   0  0  0  0  0  0  0  0  0  0  0  0
  162.3930  213.5900  143.9130 C   0  0  0  0  0  2  0  0  0  0  0  0
  162.7640  212.6500  142.9460 O   0  0  0  0  0  0  0  0  0  0  0  0
  163.0710  210.6930  139.9970 O   0  0  0  0  0  1  0  0  0  0  0  0
  162.4550  211.9170  139.7110 C   0  0  1  0  0  3  0  0  0  0  0  0
  161.0120  211.9160  140.1800 C   0  0  2  0  0  3  0  0  0  0  0  0
  161.0050  212.1760  141.5580 O   0  0  0  0  0  0  0  0  0  0  0  0
  163.0480  212.9700  140.5940 C   0  0  0  0  0  2  0  0  0  0  0  0
  162.0940  213.0420  141.7820 C   0  0  2  0  0  3  0  0  0  0  0  0
  160.2850  210.6170  139.8690 C   0  0  0  0  0  1  0  0  0  0  0  0
  160.4520  206.8660  150.3650 C   0  0  0  0  0  2  0  0  0  0  0  0
  160.5620  205.7690  151.4180 C   0  0  2  0  0  3  0  0  0  0  0  0
  161.0640  206.3270  152.7130 C   0  0  0  0  0  0  0  0  0  0  0  0
  163.3790  205.4540  153.3790 O   0  0  0  0  0  1  0  0  0  0  0  0
  162.2360  205.5910  152.6000 C   0  0  0  0  0  0  0  0  0  0  0  0
  161.7940  205.0490  151.2840 C   0  0  1  0  0  3  0  0  0  0  0  0
  160.5420  207.2880  153.7260 C   0  0  1  0  0  3  0  0  0  0  0  0
  160.7370  206.7900  155.0200 O   0  0  0  0  0  1  0  0  0  0  0  0
  161.9710  208.9040  152.5190 C   0  0  0  0  0  2  0  0  0  0  0  0
  161.1710  208.6440  153.5660 C   0  0  0  0  0  0  0  0  0  0  0  0
  161.0300  209.6230  154.7090 C   0  0  2  0  0  3  0  0  0  0  0  0
  158.8450  210.6870  155.5220 C   0  0  0  0  0  3  0  0  0  0  0  0
  158.1290  212.1580  153.9930 C   0  0  0  0  0  0  0  0  0  0  0  0
  159.8600  210.5630  154.5800 C   0  0  0  0  0  0  0  0  0  0  0  0
  157.8820  211.5830  155.1880 N   0  0  0  0  0  0  0  0  0  0  0  0
  159.5380  211.5930  153.2830 S   0  0  0  0  0  0  0  0  0  0  0  0
  157.2760  213.1350  153.4080 N   0  0  0  0  0  1  0  0  0  0  0  0
  162.5530  210.8000  156.2810 C   0  0  0  0  0  2  0  0  0  0  0  0
  162.3230  210.3110  155.0640 C   0  0  0  0  0  3  0  0  0  0  0  0
  161.6110  203.5200  151.2820 C   0  0  0  0  0  2  0  0  0  0  0  0
  160.4740  202.9920  150.4030 C   0  0  0  0  0  2  0  0  0  0  0  0
  160.9750  202.0200  149.3840 C   0  0  0  0  0  0  0  0  0  0  0  0
  161.1260  200.8480  149.6880 O   0  0  0  0  0  0  0  0  0  0  0  0
  161.2490  202.4750  147.9910 C   0  0  0  0  0  2  0  0  0  0  0  0
  160.9270  201.3640  147.0020 C   0  0  0  0  0  2  0  0  0  0  0  0
  161.2340  203.1640  145.5460 C   0  0  0  0  0  1  0  0  0  0  0  0
  160.4690  201.9450  145.7510 N   0  0  0  0  0  2  0  0  0  0  0  0
  1 28  1  0  0  0  0
  2  1  1  0  0  0  0
  3  9  1  6  0  0  0
  4  3  1  0  0  0  0
  5  7  1  6  0  0  0
  5  4  1  0  0  0  0
  6  3  1  0  0  0  0
  8  5  1  0  0  0  0
  8  2  1  1  0  0  0
  8  6  1  0  0  0  0
 10  9  1  0  0  0  0
 11 10  1  0  0  0  0
 12 17  1  0  0  0  0
 13 14  1  6  0  0  0
 13 15  1  0  0  0  0
 13 16  1  0  0  0  0
 14 18  1  0  0  0  0
 16 15  1  1  0  0  0
 16 17  1  0  0  0  0
 17 11  1  6  0  0  0
 18 12  1  0  0  0  0
 19 18  1  0  0  0  0
 20 19  1  0  0  0  0
 22 21  1  1  0  0  0
 22 23  1  0  0  0  0
 22 25  1  0  0  0  0
 23 27  1  1  0  0  0
 23 24  1  0  0  0  0
 24 26  1  0  0  0  0
 25 26  1  0  0  0  0
 26 20  1  1  0  0  0
 29 28  1  6  0  0  0
 29 30  1  0  0  0  0
 30 34  1  0  0  0  0
 32 30  2  0  0  0  0
 32 31  1  0  0  0  0
 33 47  1  1  0  0  0
 33 29  1  0  0  0  0
 33 32  1  0  0  0  0
 34 35  1  1  0  0  0
 36 37  2  0  0  0  0
 37 34  1  0  0  0  0
 37 38  1  0  0  0  0
 38 46  1  6  0  0  0
 40 42  2  0  0  0  0
 41 38  1  0  0  0  0
 41 39  2  0  0  0  0
 42 39  1  0  0  0  0
 43 40  1  0  0  0  0
 43 41  1  0  0  0  0
 44 40  1  0  0  0  0
 46 45  2  0  0  0  0
 48 47  1  0  0  0  0
 49 50  2  0  0  0  0
 49 48  1  0  0  0  0
 51 49  1  0  0  0  0
 52 51  1  0  0  0  0
 53 54  1  0  0  0  0
 54 52  1  0  0  0  0
M  END
>  <MODEL>
8

>  <REMARK>
 VINA RESULT:      -3.0      3.103      6.045
  Name = 
  22 active torsions:
  status: ('A' for Active; 'I' for Inactive)
    1  A    between atoms: C_1  and  C_20
    2  A    between atoms: C_1  and  C_54
    3  A    between atoms: C_2  and  C_18
    4  A    between atoms: C_2  and  C_49
    5  A    between atoms: C_2  and  C_52
    6  A    between atoms: C_3  and  C_48
    7  A    between atoms: N_4  and  N_6
    8  A    between atoms: N_4  and  C_44
    9  A    between atoms: N_6  and  C_9
   10  A    between atoms: C_7  and  C_20
   11  A    between atoms: C_7  and  C_39
   12  A    between atoms: O_10  and  C_21
   13  A    between atoms: O_10  and  C_43
   14  A    between atoms: C_14  and  C_23
   15  A    between atoms: C_14  and  C_49
   16  A    between atoms: N_17  and  C_24
   17  A    between atoms: C_19  and  C_48
   18  A    between atoms: C_19  and  C_51
   19  A    between atoms: C_21  and  N_53
   20  A    between atoms: C_24  and  C_39
   21  A    between atoms: C_38  and  C_51
   22  A    between atoms: C_44  and  C_45
                            x       y       z     vdW  Elec       q    Type
                         _______ _______ _______ _____ _____    ______ ____

>  <TORSDO>
F 22

$$$$
=
 OpenBabel11072410013D

 54 59  0  0  1  0  0  0  0  0999 V2000
  161.2180  208.9180  150.6900 C   0  0  0  0  0  2  0  0  0  0  0  0
  160.4540  208.9590  152.0060 C   0  0  0  0  0  2  0  0  0  0  0  0
  160.7700  210.3060  155.0720 C   0  0  2  0  0  3  0  0  0  0  0  0
  160.8240  208.8690  155.5470 C   0  0  0  0  0  2  0  0  0  0  0  0
  160.8220  208.0450  154.2800 C   0  0  2  0  0  3  0  0  0  0  0  0
  161.5510  210.3190  153.7750 C   0  0  0  0  0  2  0  0  0  0  0  0
  161.6080  206.9050  154.4570 O   0  0  0  0  0  1  0  0  0  0  0  0
  161.4110  208.9220  153.1880 C   0  0  2  0  0  3  0  0  0  0  0  0
  161.3950  211.1990  156.0400 N   0  0  0  0  0  2  0  0  0  0  0  0
  160.6430  212.3840  156.0690 N   0  0  0  0  0  2  0  0  0  0  0  0
  159.5590  212.1930  157.0170 C   0  0  0  0  0  2  0  0  0  0  0  0
  158.5390  213.6460  155.2450 C   0  0  0  0  0  2  0  0  0  0  0  0
  156.7820  211.3860  154.6300 C   0  0  2  0  0  3  0  0  0  0  0  0
  157.1970  212.5340  153.7130 C   0  0  0  0  0  2  0  0  0  0  0  0
  155.9400  211.9320  155.7660 C   0  0  0  0  0  2  0  0  0  0  0  0
  157.3540  211.4700  156.0610 C   0  0  2  0  0  3  0  0  0  0  0  0
  158.2560  212.6770  156.4040 C   0  0  1  0  0  3  0  0  0  0  0  0
  158.5750  212.9270  153.9820 N   0  0  0  0  0  0  0  0  0  0  0  0
  158.9680  213.8890  152.9630 C   0  0  0  0  0  2  0  0  0  0  0  0
  159.3070  213.2210  151.7820 O   0  0  0  0  0  0  0  0  0  0  0  0
  160.5320  212.6110  148.5030 O   0  0  0  0  0  1  0  0  0  0  0  0
  160.0120  213.9070  148.5990 C   0  0  1  0  0  3  0  0  0  0  0  0
  158.4950  213.8800  148.5950 C   0  0  2  0  0  3  0  0  0  0  0  0
  158.0630  213.5560  149.8880 O   0  0  0  0  0  0  0  0  0  0  0  0
  160.2900  214.4350  149.9730 C   0  0  0  0  0  2  0  0  0  0  0  0
  159.0170  214.1260  150.7560 C   0  0  2  0  0  3  0  0  0  0  0  0
  157.9190  212.9120  147.5730 C   0  0  0  0  0  1  0  0  0  0  0  0
  162.5860  208.2730  150.8740 C   0  0  0  0  0  2  0  0  0  0  0  0
  162.5530  206.8070  150.4550 C   0  0  2  0  0  3  0  0  0  0  0  0
  161.7670  206.6340  149.1940 C   0  0  0  0  0  0  0  0  0  0  0  0
  159.6090  205.2890  149.5050 O   0  0  0  0  0  1  0  0  0  0  0  0
  160.7990  205.9050  149.8720 C   0  0  0  0  0  0  0  0  0  0  0  0
  161.5270  206.0950  151.1590 C   0  0  1  0  0  3  0  0  0  0  0  0
  161.9300  207.0650  147.7770 C   0  0  1  0  0  3  0  0  0  0  0  0
  162.9820  207.9820  147.6610 O   0  0  0  0  0  1  0  0  0  0  0  0
  163.3680  205.4050  146.6440 C   0  0  0  0  0  2  0  0  0  0  0  0
  162.1340  205.8860  146.8670 C   0  0  0  0  0  0  0  0  0  0  0  0
  160.9450  205.3970  146.0730 C   0  0  2  0  0  3  0  0  0  0  0  0
  160.1250  203.2430  144.9540 C   0  0  0  0  0  3  0  0  0  0  0  0
  160.9760  201.4790  146.0390 C   0  0  0  0  0  0  0  0  0  0  0  0
  160.8710  203.9000  145.9260 C   0  0  0  0  0  0  0  0  0  0  0  0
  160.1910  201.8890  145.0210 N   0  0  0  0  0  0  0  0  0  0  0  0
  161.6250  202.7560  146.9100 S   0  0  0  0  0  0  0  0  0  0  0  0
  161.2180  200.1080  146.3320 N   0  0  0  0  0  1  0  0  0  0  0  0
  161.5790  206.0030  143.7480 C   0  0  0  0  0  2  0  0  0  0  0  0
  160.7470  206.1430  144.7780 C   0  0  0  0  0  3  0  0  0  0  0  0
  162.0170  204.7760  151.7840 C   0  0  0  0  0  2  0  0  0  0  0  0
  160.9200  203.7770  152.1650 C   0  0  0  0  0  2  0  0  0  0  0  0
  161.2010  202.4160  151.6140 C   0  0  0  0  0  0  0  0  0  0  0  0
  161.2780  201.4620  152.3690 O   0  0  0  0  0  0  0  0  0  0  0  0
  161.3450  202.2240  150.1430 C   0  0  0  0  0  2  0  0  0  0  0  0
  159.9800  202.2660  149.4710 C   0  0  0  0  0  2  0  0  0  0  0  0
  158.0520  200.9700  149.2290 C   0  0  0  0  0  1  0  0  0  0  0  0
  159.5040  200.9100  149.2530 N   0  0  0  0  0  2  0  0  0  0  0  0
  1 28  1  0  0  0  0
  1  2  1  0  0  0  0
  3  4  1  0  0  0  0
  3  9  1  1  0  0  0
  5  7  1  1  0  0  0
  5  4  1  0  0  0  0
  6  3  1  0  0  0  0
  8  2  1  6  0  0  0
  8  6  1  0  0  0  0
  8  5  1  0  0  0  0
  9 10  1  0  0  0  0
 10 11  1  0  0  0  0
 12 17  1  0  0  0  0
 13 14  1  6  0  0  0
 13 15  1  0  0  0  0
 13 16  1  0  0  0  0
 14 18  1  0  0  0  0
 16 15  1  1  0  0  0
 16 17  1  0  0  0  0
 17 11  1  6  0  0  0
 18 12  1  0  0  0  0
 19 18  1  0  0  0  0
 20 19  1  0  0  0  0
 22 21  1  1  0  0  0
 22 25  1  0  0  0  0
 23 27  1  6  0  0  0
 23 22  1  0  0  0  0
 23 24  1  0  0  0  0
 24 26  1  0  0  0  0
 25 26  1  0  0  0  0
 26 20  1  1  0  0  0
 29 28  1  1  0  0  0
 29 33  1  0  0  0  0
 30 32  2  0  0  0  0
 30 29  1  0  0  0  0
 31 32  1  0  0  0  0
 32 33  1  0  0  0  0
 33 47  1  6  0  0  0
 34 35  1  1  0  0  0
 34 30  1  0  0  0  0
 36 37  2  0  0  0  0
 37 34  1  0  0  0  0
 38 46  1  6  0  0  0
 38 37  1  0  0  0  0
 39 42  1  0  0  0  0
 39 41  2  0  0  0  0
 40 44  1  0  0  0  0
 40 43  1  0  0  0  0
 41 38  1  0  0  0  0
 41 43  1  0  0  0  0
 42 40  2  0  0  0  0
 45 46  2  0  0  0  0
 47 48  1  0  0  0  0
 49 48  1  0  0  0  0
 49 50  2  0  0  0  0
 51 49  1  0  0  0  0
 52 51  1  0  0  0  0
 53 54  1  0  0  0  0
 54 52  1  0  0  0  0
M  END
>  <MODEL>
9

>  <REMARK>
 VINA RESULT:      -3.0      5.158     10.319
  Name = 
  22 active torsions:
  status: ('A' for Active; 'I' for Inactive)
    1  A    between atoms: C_1  and  C_20
    2  A    between atoms: C_1  and  C_54
    3  A    between atoms: C_2  and  C_18
    4  A    between atoms: C_2  and  C_49
    5  A    between atoms: C_2  and  C_52
    6  A    between atoms: C_3  and  C_48
    7  A    between atoms: N_4  and  N_6
    8  A    between atoms: N_4  and  C_44
    9  A    between atoms: N_6  and  C_9
   10  A    between atoms: C_7  and  C_20
   11  A    between atoms: C_7  and  C_39
   12  A    between atoms: O_10  and  C_21
   13  A    between atoms: O_10  and  C_43
   14  A    between atoms: C_14  and  C_23
   15  A    between atoms: C_14  and  C_49
   16  A    between atoms: N_17  and  C_24
   17  A    between atoms: C_19  and  C_48
   18  A    between atoms: C_19  and  C_51
   19  A    between atoms: C_21  and  N_53
   20  A    between atoms: C_24  and  C_39
   21  A    between atoms: C_38  and  C_51
   22  A    between atoms: C_44  and  C_45
                            x       y       z     vdW  Elec       q    Type
                         _______ _______ _______ _____ _____    ______ ____

>  <TORSDO>
F 22

$$$$
