=
 OpenBabel11072412083D

 50 56  0  0  1  0  0  0  0  0999 V2000
  161.5800  209.9510  151.7110 C   0  0  1  0  0  0  0  0  0  0  0  0
  161.3790  212.0500  150.1610 C   0  0  0  0  0  3  0  0  0  0  0  0
  161.3910  210.4640  147.8730 C   0  0  0  0  0  3  0  0  0  0  0  0
  161.7080  208.4430  149.2400 N   0  0  0  0  0  2  0  0  0  0  0  0
  162.2530  208.0960  150.5430 C   0  0  2  0  0  3  0  0  0  0  0  0
  161.6520  207.1080  151.4260 N   0  0  1  0  0  0  0  0  0  0  0  0
  162.9030  209.9800  152.1860 O   0  0  0  0  0  1  0  0  0  0  0  0
  161.4840  210.6610  150.3170 C   0  0  0  0  0  0  0  0  0  0  0  0
  161.5160  209.8670  149.1250 C   0  0  0  0  0  0  0  0  0  0  0  0
  161.2690  211.8510  147.7930 C   0  0  0  0  0  3  0  0  0  0  0  0
  161.0980  208.4890  151.4170 C   0  0  1  0  0  3  0  0  0  0  0  0
  161.2750  212.6070  148.9240 N   0  0  0  0  0  0  0  0  0  0  0  0
  161.9770  205.4130  148.7610 N   0  0  2  0  0  0  0  0  0  0  0  0
  161.9400  204.3430  149.7520 C   0  0  0  0  0  2  0  0  0  0  0  0
  160.7430  206.2400  150.6600 C   0  0  1  0  0  3  0  0  0  0  0  0
  160.9930  206.4140  149.1710 C   0  0  0  0  0  2  0  0  0  0  0  0
  161.0110  204.7530  150.8830 C   0  0  2  0  0  0  0  0  0  0  0  0
  161.6730  204.4440  152.2160 C   0  0  0  0  0  1  0  0  0  0  0  0
  162.7700  205.0790  146.4380 C   0  0  0  0  0  0  0  0  0  0  0  0
  163.4730  203.8020  146.0370 C   0  0  0  0  0  2  0  0  0  0  0  0
  161.6560  204.8370  147.4470 C   0  0  2  0  0  3  0  0  0  0  0  0
  160.8680  206.0560  145.6000 C   0  0  0  0  0  0  0  0  0  0  0  0
  162.2990  205.8810  145.2460 C   0  0  0  0  0  2  0  0  0  0  0  0
  164.2360  204.9000  146.7630 C   0  0  0  0  0  2  0  0  0  0  0  0
  160.4890  205.4700  146.8390 N   0  0  0  0  0  2  0  0  0  0  0  0
  160.0500  206.6730  144.8720 O   0  0  0  0  0  0  0  0  0  0  0  0
  159.6760  204.0060  150.7810 C   0  0  0  0  0  2  0  0  0  0  0  0
  159.8280  202.5760  150.2760 C   0  0  0  0  0  1  0  0  0  0  0  0
  160.6480  210.6290  152.7820 C   0  0  1  0  0  3  0  0  0  0  0  0
  160.7620  210.0540  154.2240 C   0  0  1  0  0  3  0  0  0  0  0  0
  161.2370  211.0680  155.2680 C   0  0  1  0  0  3  0  0  0  0  0  0
  160.4690  210.9450  156.4470 O   0  0  0  0  0  0  0  0  0  0  0  0
  158.3970  210.4000  154.3890 O   0  0  0  0  0  1  0  0  0  0  0  0
  159.4530  209.5860  154.8110 C   0  0  2  0  0  3  0  0  0  0  0  0
  159.6510  209.8100  156.2920 C   0  0  1  0  0  3  0  0  0  0  0  0
  162.6810  210.8820  155.6040 C   0  0  0  0  0  0  0  0  0  0  0  0
  163.1830  211.3140  156.8270 O   0  0  0  0  0  1  0  0  0  0  0  0
  163.4590  210.3760  154.7560 O   0  0  0  0  0  0  0  0  0  0  0  0
  161.6410  208.8470  157.2600 O   0  0  0  0  0  1  0  0  0  0  0  0
  160.2940  208.5960  156.9830 C   0  0  2  0  0  3  0  0  0  0  0  0
  161.1330  206.9860  155.4180 O   0  0  0  0  0  0  0  0  0  0  0  0
  158.9820  206.6390  156.1180 O   0  0  0  0  0  1  0  0  0  0  0  0
  160.1680  207.3630  156.1350 C   0  0  0  0  0  0  0  0  0  0  0  0
  160.6990  212.1770  152.7920 C   0  0  0  0  0  2  0  0  0  0  0  0
  159.3630  212.8660  152.7600 C   0  0  0  0  0  0  0  0  0  0  0  0
  159.1100  213.7710  153.5380 O   0  0  0  0  0  0  0  0  0  0  0  0
  158.3440  212.4490  151.7530 C   0  0  0  0  0  2  0  0  0  0  0  0
  157.7500  213.8730  150.8210 S   0  0  1  0  0  0  0  0  0  0  0  0
  157.2290  213.2620  149.5280 O   0  0  0  0  0  0  0  0  0  0  0  0
  156.2450  214.3290  151.6930 C   0  0  0  0  0  1  0  0  0  0  0  0
  1  7  1  1  0  0  0
  1 29  1  0  0  0  0
  2  8  1  0  0  0  0
  3  9  1  0  0  0  0
  5  4  1  6  0  0  0
  5 11  1  0  0  0  0
  5  6  1  0  0  0  0
  6 15  1  6  0  0  0
  8  1  1  0  0  0  0
  9  4  1  0  0  0  0
  9  8  2  0  0  0  0
 10  3  2  0  0  0  0
 10 12  1  0  0  0  0
 11  6  1  0  0  0  0
 11  1  1  0  0  0  0
 12  2  2  0  0  0  0
 13 16  1  0  0  0  0
 13 14  1  0  0  0  0
 14 17  1  0  0  0  0
 15 17  1  0  0  0  0
 16 15  1  0  0  0  0
 17 18  1  0  0  0  0
 19 24  1  0  0  0  0
 19 21  1  0  0  0  0
 20 19  1  0  0  0  0
 20 24  1  0  0  0  0
 21 13  1  0  0  0  0
 22 25  1  0  0  0  0
 23 22  1  0  0  0  0
 23 19  1  0  0  0  0
 25 21  1  0  0  0  0
 26 22  2  0  0  0  0
 27 17  1  0  0  0  0
 28 27  1  0  0  0  0
 29 44  1  0  0  0  0
 29 30  1  0  0  0  0
 30 34  1  0  0  0  0
 30 31  1  0  0  0  0
 31 36  1  0  0  0  0
 31 32  1  0  0  0  0
 33 34  1  0  0  0  0
 34 35  1  0  0  0  0
 35 32  1  0  0  0  0
 35 40  1  0  0  0  0
 36 37  1  0  0  0  0
 38 36  2  0  0  0  0
 40 39  1  0  0  0  0
 41 43  2  0  0  0  0
 42 43  1  0  0  0  0
 43 40  1  0  0  0  0
 45 44  1  0  0  0  0
 45 46  2  0  0  0  0
 47 45  1  0  0  0  0
 48 50  1  0  0  0  0
 48 47  1  0  0  0  0
 49 48  2  0  0  0  0
M  END
>  <MODEL>
1

>  <REMARK>
 VINA RESULT:      -2.7      0.000      0.000
  Name = 
  12 active torsions:
  status: ('A' for Active; 'I' for Inactive)
    1  A    between atoms: C_1  and  S_16
    2  A    between atoms: C_1  and  C_31
    3  A    between atoms: C_2  and  C_19
    4  A    between atoms: C_2  and  C_31
    5  A    between atoms: C_3  and  C_19
    6  A    between atoms: C_4  and  C_12
    7  A    between atoms: C_5  and  C_19
    8  A    between atoms: N_6  and  C_21
    9  A    between atoms: C_10  and  N_33
   10  A    between atoms: C_23  and  C_36
   11  A    between atoms: C_25  and  C_27
   12  A    between atoms: C_36  and  C_46
                            x       y       z     vdW  Elec       q    Type
                         _______ _______ _______ _____ _____    ______ ____

>  <TORSDO>
F 12

$$$$
=
 OpenBabel11072412083D

 50 56  0  0  1  0  0  0  0  0999 V2000
  161.5710  210.1850  151.5310 C   0  0  1  0  0  0  0  0  0  0  0  0
  161.2390  212.4190  150.2100 C   0  0  0  0  0  3  0  0  0  0  0  0
  161.4370  211.1010  147.7660 C   0  0  0  0  0  3  0  0  0  0  0  0
  161.8820  208.9730  148.9170 N   0  0  0  0  0  2  0  0  0  0  0  0
  162.4200  208.5280  150.1930 C   0  0  2  0  0  3  0  0  0  0  0  0
  161.8790  207.4040  150.9440 N   0  0  1  0  0  0  0  0  0  0  0  0
  162.8750  210.2640  152.0500 O   0  0  0  0  0  1  0  0  0  0  0  0
  161.4520  211.0350  150.2190 C   0  0  0  0  0  0  0  0  0  0  0  0
  161.5780  210.3810  148.9500 C   0  0  0  0  0  0  0  0  0  0  0  0
  161.2050  212.4750  147.8330 C   0  0  0  0  0  3  0  0  0  0  0  0
  161.2170  208.7310  151.0640 C   0  0  1  0  0  3  0  0  0  0  0  0
  161.1210  213.0990  149.0380 N   0  0  0  0  0  0  0  0  0  0  0  0
  162.5420  205.6290  148.3960 N   0  0  2  0  0  0  0  0  0  0  0  0
  162.2970  204.5870  149.3880 C   0  0  0  0  0  2  0  0  0  0  0  0
  161.0630  206.5580  150.0580 C   0  0  1  0  0  3  0  0  0  0  0  0
  161.5550  206.6820  148.6250 C   0  0  0  0  0  2  0  0  0  0  0  0
  161.2210  205.0670  150.3480 C   0  0  2  0  0  0  0  0  0  0  0  0
  161.6480  204.7630  151.7750 C   0  0  0  0  0  1  0  0  0  0  0  0
  161.0340  205.3070  146.4570 C   0  0  0  0  0  0  0  0  0  0  0  0
  161.1000  206.2310  145.2630 C   0  0  0  0  0  2  0  0  0  0  0  0
  162.4060  205.0340  147.0580 C   0  0  2  0  0  3  0  0  0  0  0  0
  161.2820  203.0270  146.5870 C   0  0  0  0  0  0  0  0  0  0  0  0
  160.2760  204.0320  146.1620 C   0  0  0  0  0  2  0  0  0  0  0  0
  160.3540  206.6550  146.5200 C   0  0  0  0  0  2  0  0  0  0  0  0
  162.4910  203.5770  147.0930 N   0  0  0  0  0  2  0  0  0  0  0  0
  161.0880  201.7870  146.5120 O   0  0  0  0  0  0  0  0  0  0  0  0
  159.8860  204.3770  150.0480 C   0  0  0  0  0  2  0  0  0  0  0  0
  160.0240  202.8750  149.8300 C   0  0  0  0  0  1  0  0  0  0  0  0
  160.5600  210.6650  152.6360 C   0  0  1  0  0  3  0  0  0  0  0  0
  160.7460  210.0150  154.0380 C   0  0  1  0  0  3  0  0  0  0  0  0
  161.2400  210.9820  155.1180 C   0  0  1  0  0  3  0  0  0  0  0  0
  160.5230  210.7740  156.3170 O   0  0  0  0  0  0  0  0  0  0  0  0
  158.3820  210.2900  154.3150 O   0  0  0  0  0  1  0  0  0  0  0  0
  159.4740  209.4810  154.6490 C   0  0  2  0  0  3  0  0  0  0  0  0
  159.7270  209.6280  156.1310 C   0  0  1  0  0  3  0  0  0  0  0  0
  162.7000  210.8150  155.3860 C   0  0  0  0  0  0  0  0  0  0  0  0
  163.2150  211.0370  156.6580 O   0  0  0  0  0  1  0  0  0  0  0  0
  163.4770  210.5190  154.4430 O   0  0  0  0  0  0  0  0  0  0  0  0
  161.8120  208.5770  156.7420 O   0  0  0  0  0  1  0  0  0  0  0  0
  160.4260  208.3940  156.7270 C   0  0  2  0  0  3  0  0  0  0  0  0
  158.9880  206.5630  156.1560 O   0  0  0  0  0  1  0  0  0  0  0  0
  160.9750  206.6350  155.0220 O   0  0  0  0  0  0  0  0  0  0  0  0
  160.0830  207.1540  155.9540 C   0  0  0  0  0  0  0  0  0  0  0  0
  160.4140  212.2040  152.7490 C   0  0  0  0  0  2  0  0  0  0  0  0
  159.0170  212.7320  152.5820 C   0  0  0  0  0  0  0  0  0  0  0  0
  158.2410  212.2070  151.8000 O   0  0  0  0  0  0  0  0  0  0  0  0
  158.5690  213.9000  153.3960 C   0  0  0  0  0  2  0  0  0  0  0  0
  158.4020  213.4390  155.1310 S   0  0  1  0  0  0  0  0  0  0  0  0
  159.2820  214.4480  155.8550 O   0  0  0  0  0  0  0  0  0  0  0  0
  156.7370  213.9850  155.5370 C   0  0  0  0  0  1  0  0  0  0  0  0
  1  7  1  1  0  0  0
  1 29  1  0  0  0  0
  2  8  1  0  0  0  0
  3 10  2  0  0  0  0
  3  9  1  0  0  0  0
  4  9  1  0  0  0  0
  5  4  1  6  0  0  0
  5  6  1  0  0  0  0
  5 11  1  0  0  0  0
  6 15  1  6  0  0  0
  6 11  1  0  0  0  0
  8  1  1  0  0  0  0
  9  8  2  0  0  0  0
 10 12  1  0  0  0  0
 11  1  1  0  0  0  0
 12  2  2  0  0  0  0
 13 16  1  0  0  0  0
 13 14  1  0  0  0  0
 14 17  1  0  0  0  0
 15 17  1  0  0  0  0
 16 15  1  0  0  0  0
 17 18  1  0  0  0  0
 19 24  1  0  0  0  0
 19 21  1  0  0  0  0
 20 19  1  0  0  0  0
 20 24  1  0  0  0  0
 21 25  1  0  0  0  0
 21 13  1  0  0  0  0
 22 25  1  0  0  0  0
 23 19  1  0  0  0  0
 23 22  1  0  0  0  0
 26 22  2  0  0  0  0
 27 17  1  0  0  0  0
 28 27  1  0  0  0  0
 29 44  1  0  0  0  0
 29 30  1  0  0  0  0
 30 34  1  0  0  0  0
 30 31  1  0  0  0  0
 31 36  1  0  0  0  0
 31 32  1  0  0  0  0
 33 34  1  0  0  0  0
 34 35  1  0  0  0  0
 35 32  1  0  0  0  0
 35 40  1  0  0  0  0
 36 37  1  0  0  0  0
 38 36  2  0  0  0  0
 40 39  1  0  0  0  0
 42 43  2  0  0  0  0
 43 41  1  0  0  0  0
 43 40  1  0  0  0  0
 45 44  1  0  0  0  0
 45 47  1  0  0  0  0
 46 45  2  0  0  0  0
 47 48  1  0  0  0  0
 48 50  1  0  0  0  0
 48 49  2  0  0  0  0
M  END
>  <MODEL>
2

>  <REMARK>
 VINA RESULT:      -2.4      1.436      1.990
  Name = 
  12 active torsions:
  status: ('A' for Active; 'I' for Inactive)
    1  A    between atoms: C_1  and  S_16
    2  A    between atoms: C_1  and  C_31
    3  A    between atoms: C_2  and  C_19
    4  A    between atoms: C_2  and  C_31
    5  A    between atoms: C_3  and  C_19
    6  A    between atoms: C_4  and  C_12
    7  A    between atoms: C_5  and  C_19
    8  A    between atoms: N_6  and  C_21
    9  A    between atoms: C_10  and  N_33
   10  A    between atoms: C_23  and  C_36
   11  A    between atoms: C_25  and  C_27
   12  A    between atoms: C_36  and  C_46
                            x       y       z     vdW  Elec       q    Type
                         _______ _______ _______ _____ _____    ______ ____

>  <TORSDO>
F 12

$$$$
=
 OpenBabel11072412083D

 50 56  0  0  1  0  0  0  0  0999 V2000
  159.8100  209.8340  154.5940 C   0  0  1  0  0  0  0  0  0  0  0  0
  161.0630  211.3500  156.3200 C   0  0  0  0  0  3  0  0  0  0  0  0
  163.1490  209.5190  156.5390 C   0  0  0  0  0  3  0  0  0  0  0  0
  161.9870  207.9700  155.0210 N   0  0  0  0  0  2  0  0  0  0  0  0
  160.6230  207.6900  154.6020 C   0  0  2  0  0  3  0  0  0  0  0  0
  160.2560  207.3610  153.2320 N   0  0  1  0  0  0  0  0  0  0  0  0
  158.7270  209.2940  155.3090 O   0  0  0  0  0  1  0  0  0  0  0  0
  160.9930  210.1710  155.5660 C   0  0  0  0  0  0  0  0  0  0  0  0
  162.0640  209.2310  155.7150 C   0  0  0  0  0  0  0  0  0  0  0  0
  163.1630  210.7210  157.2450 C   0  0  0  0  0  3  0  0  0  0  0  0
  160.4310  208.7920  153.6020 C   0  0  1  0  0  3  0  0  0  0  0  0
  162.1280  211.5970  157.1300 N   0  0  0  0  0  0  0  0  0  0  0  0
  160.7910  205.0590  151.1120 N   0  0  2  0  0  0  0  0  0  0  0  0
  160.8470  206.2330  150.2470 C   0  0  0  0  0  2  0  0  0  0  0  0
  161.4480  206.9280  152.4860 C   0  0  1  0  0  3  0  0  0  0  0  0
  161.4600  205.4120  152.3620 C   0  0  0  0  0  2  0  0  0  0  0  0
  161.4410  207.3910  151.0300 C   0  0  2  0  0  0  0  0  0  0  0  0
  160.6090  208.6410  150.7910 C   0  0  0  0  0  1  0  0  0  0  0  0
  161.0000  203.8100  148.9820 C   0  0  0  0  0  0  0  0  0  0  0  0
  162.0890  204.1500  147.9900 C   0  0  0  0  0  2  0  0  0  0  0  0
  161.4660  203.9470  150.4260 C   0  0  2  0  0  3  0  0  0  0  0  0
  160.5230  201.8310  150.0440 C   0  0  0  0  0  0  0  0  0  0  0  0
  160.3690  202.4640  148.7110 C   0  0  0  0  0  2  0  0  0  0  0  0
  160.8210  204.9890  148.0530 C   0  0  0  0  0  2  0  0  0  0  0  0
  161.1430  202.6550  151.0230 N   0  0  0  0  0  2  0  0  0  0  0  0
  160.1370  200.6610  150.2990 O   0  0  0  0  0  0  0  0  0  0  0  0
  162.8910  207.6430  150.6020 C   0  0  0  0  0  2  0  0  0  0  0  0
  163.0390  207.8780  149.1030 C   0  0  0  0  0  1  0  0  0  0  0  0
  159.3120  211.1050  153.8120 C   0  0  1  0  0  3  0  0  0  0  0  0
  158.2130  211.9420  154.5290 C   0  0  1  0  0  3  0  0  0  0  0  0
  158.6160  213.3910  154.8160 C   0  0  1  0  0  3  0  0  0  0  0  0
  157.5450  214.2600  154.5090 O   0  0  0  0  0  0  0  0  0  0  0  0
  157.2270  212.2280  152.3650 O   0  0  0  0  0  1  0  0  0  0  0  0
  156.9460  212.1180  153.7310 C   0  0  2  0  0  3  0  0  0  0  0  0
  156.4300  213.4540  154.2100 C   0  0  1  0  0  3  0  0  0  0  0  0
  159.0090  213.5850  156.2430 C   0  0  0  0  0  0  0  0  0  0  0  0
  158.3840  212.8610  157.2530 O   0  0  0  0  0  1  0  0  0  0  0  0
  159.8770  214.4450  156.5400 O   0  0  0  0  0  0  0  0  0  0  0  0
  155.9340  214.2060  156.4490 O   0  0  0  0  0  1  0  0  0  0  0  0
  155.5270  213.3200  155.4480 C   0  0  2  0  0  3  0  0  0  0  0  0
  156.2140  211.6260  156.9990 O   0  0  0  0  0  1  0  0  0  0  0  0
  154.8240  210.9130  155.3260 O   0  0  0  0  0  0  0  0  0  0  0  0
  155.5390  211.9140  155.9740 C   0  0  0  0  0  0  0  0  0  0  0  0
  160.4450  212.0140  153.2740 C   0  0  0  0  0  2  0  0  0  0  0  0
  160.1530  212.7050  151.9710 C   0  0  0  0  0  0  0  0  0  0  0  0
  159.8180  213.8770  151.9480 O   0  0  0  0  0  0  0  0  0  0  0  0
  160.2950  211.9500  150.6900 C   0  0  0  0  0  2  0  0  0  0  0  0
  161.4430  212.7880  149.5820 S   0  0  1  0  0  0  0  0  0  0  0  0
  162.1040  211.6460  148.8230 O   0  0  0  0  0  0  0  0  0  0  0  0
  160.3570  213.5220  148.3520 C   0  0  0  0  0  1  0  0  0  0  0  0
  1  7  1  1  0  0  0
  1  8  1  0  0  0  0
  2 12  1  0  0  0  0
  3 10  1  0  0  0  0
  4  9  1  0  0  0  0
  5  4  1  6  0  0  0
  6 15  1  6  0  0  0
  6 11  1  0  0  0  0
  6  5  1  0  0  0  0
  8  9  1  0  0  0  0
  8  2  2  0  0  0  0
  9  3  2  0  0  0  0
 11  1  1  0  0  0  0
 11  5  1  0  0  0  0
 12 10  2  0  0  0  0
 13 16  1  0  0  0  0
 14 17  1  0  0  0  0
 14 13  1  0  0  0  0
 16 15  1  0  0  0  0
 17 15  1  0  0  0  0
 18 17  1  0  0  0  0
 19 21  1  0  0  0  0
 20 24  1  0  0  0  0
 20 19  1  0  0  0  0
 21 25  1  0  0  0  0
 21 13  1  0  0  0  0
 22 26  2  0  0  0  0
 22 25  1  0  0  0  0
 23 19  1  0  0  0  0
 23 22  1  0  0  0  0
 24 19  1  0  0  0  0
 27 17  1  0  0  0  0
 28 27  1  0  0  0  0
 29 30  1  0  0  0  0
 29  1  1  0  0  0  0
 30 31  1  0  0  0  0
 31 36  1  0  0  0  0
 32 31  1  0  0  0  0
 33 34  1  0  0  0  0
 34 35  1  0  0  0  0
 34 30  1  0  0  0  0
 35 32  1  0  0  0  0
 35 40  1  0  0  0  0
 36 38  2  0  0  0  0
 36 37  1  0  0  0  0
 40 43  1  0  0  0  0
 40 39  1  0  0  0  0
 42 43  2  0  0  0  0
 43 41  1  0  0  0  0
 44 29  1  0  0  0  0
 45 44  1  0  0  0  0
 46 45  2  0  0  0  0
 47 45  1  0  0  0  0
 48 47  1  0  0  0  0
 49 48  2  0  0  0  0
 50 48  1  0  0  0  0
M  END
>  <MODEL>
3

>  <REMARK>
 VINA RESULT:      -2.3      2.777      5.036
  Name = 
  12 active torsions:
  status: ('A' for Active; 'I' for Inactive)
    1  A    between atoms: C_1  and  S_16
    2  A    between atoms: C_1  and  C_31
    3  A    between atoms: C_2  and  C_19
    4  A    between atoms: C_2  and  C_31
    5  A    between atoms: C_3  and  C_19
    6  A    between atoms: C_4  and  C_12
    7  A    between atoms: C_5  and  C_19
    8  A    between atoms: N_6  and  C_21
    9  A    between atoms: C_10  and  N_33
   10  A    between atoms: C_23  and  C_36
   11  A    between atoms: C_25  and  C_27
   12  A    between atoms: C_36  and  C_46
                            x       y       z     vdW  Elec       q    Type
                         _______ _______ _______ _____ _____    ______ ____

>  <TORSDO>
F 12

$$$$
=
 OpenBabel11072412083D

 50 56  0  0  1  0  0  0  0  0999 V2000
  159.5280  210.0740  154.6730 C   0  0  1  0  0  0  0  0  0  0  0  0
  160.6690  211.7820  156.2950 C   0  0  0  0  0  3  0  0  0  0  0  0
  162.8760  210.1170  156.6300 C   0  0  0  0  0  3  0  0  0  0  0  0
  161.8270  208.3960  155.2180 N   0  0  0  0  0  2  0  0  0  0  0  0
  160.4870  207.9960  154.8200 C   0  0  2  0  0  3  0  0  0  0  0  0
  160.1480  207.5530  153.4760 N   0  0  1  0  0  0  0  0  0  0  0  0
  158.4830  209.5090  155.4240 O   0  0  0  0  0  1  0  0  0  0  0  0
  160.6820  210.5540  155.6200 C   0  0  0  0  0  0  0  0  0  0  0  0
  161.8150  209.7020  155.8280 C   0  0  0  0  0  0  0  0  0  0  0  0
  162.8040  211.3620  157.2560 C   0  0  0  0  0  3  0  0  0  0  0  0
  160.2230  209.0140  153.7510 C   0  0  1  0  0  3  0  0  0  0  0  0
  161.7120  212.1540  157.0850 N   0  0  0  0  0  0  0  0  0  0  0  0
  160.7780  205.3300  151.2980 N   0  0  2  0  0  0  0  0  0  0  0  0
  160.8540  206.5340  150.4760 C   0  0  0  0  0  2  0  0  0  0  0  0
  161.3700  207.1550  152.7580 C   0  0  1  0  0  3  0  0  0  0  0  0
  161.3990  205.6450  152.5820 C   0  0  0  0  0  2  0  0  0  0  0  0
  161.4100  207.6690  151.3200 C   0  0  2  0  0  0  0  0  0  0  0  0
  160.5760  208.9200  151.0950 C   0  0  0  0  0  1  0  0  0  0  0  0
  160.9830  204.0760  149.1720 C   0  0  0  0  0  0  0  0  0  0  0  0
  162.0200  204.4620  148.1420 C   0  0  0  0  0  2  0  0  0  0  0  0
  161.4860  204.2490  150.5980 C   0  0  2  0  0  3  0  0  0  0  0  0
  160.6400  202.0840  150.2620 C   0  0  0  0  0  0  0  0  0  0  0  0
  160.4120  202.6960  148.9300 C   0  0  0  0  0  2  0  0  0  0  0  0
  160.7140  205.2360  148.2400 C   0  0  0  0  0  2  0  0  0  0  0  0
  161.2490  202.9470  151.2140 N   0  0  0  0  0  2  0  0  0  0  0  0
  160.3230  200.8990  150.5370 O   0  0  0  0  0  0  0  0  0  0  0  0
  162.8720  207.9470  150.9520 C   0  0  0  0  0  2  0  0  0  0  0  0
  163.1650  207.7420  149.4710 C   0  0  0  0  0  1  0  0  0  0  0  0
  158.9470  211.2530  153.8100 C   0  0  1  0  0  3  0  0  0  0  0  0
  157.7920  212.0590  154.4730 C   0  0  1  0  0  3  0  0  0  0  0  0
  157.2750  211.4530  155.7810 C   0  0  1  0  0  3  0  0  0  0  0  0
  157.0790  212.4700  156.7410 O   0  0  0  0  0  0  0  0  0  0  0  0
  159.4990  213.4920  155.3540 O   0  0  0  0  0  1  0  0  0  0  0  0
  158.1750  213.4540  154.9020 C   0  0  2  0  0  3  0  0  0  0  0  0
  157.2710  213.7010  156.0870 C   0  0  1  0  0  3  0  0  0  0  0  0
  155.9910  210.7170  155.5800 C   0  0  0  0  0  0  0  0  0  0  0  0
  155.6790  210.1640  154.3420 O   0  0  0  0  0  0  0  0  0  0  0  0
  155.1630  210.6370  156.5220 O   0  0  0  0  0  1  0  0  0  0  0  0
  154.8850  213.7580  156.4460 O   0  0  0  0  0  1  0  0  0  0  0  0
  155.9160  214.2960  155.6700 C   0  0  2  0  0  3  0  0  0  0  0  0
  156.4610  214.4370  153.3400 O   0  0  0  0  0  0  0  0  0  0  0  0
  154.4760  213.4030  153.8170 O   0  0  0  0  0  1  0  0  0  0  0  0
  155.6420  214.0470  154.2140 C   0  0  0  0  0  0  0  0  0  0  0  0
  160.0170  212.2000  153.2100 C   0  0  0  0  0  2  0  0  0  0  0  0
  159.6150  212.9060  151.9450 C   0  0  0  0  0  0  0  0  0  0  0  0
  160.3130  213.7890  151.4760 O   0  0  0  0  0  0  0  0  0  0  0  0
  158.3570  212.5070  151.2470 C   0  0  0  0  0  2  0  0  0  0  0  0
  157.8710  213.7620  150.0470 S   0  0  1  0  0  0  0  0  0  0  0  0
  158.1320  213.0920  148.7050 O   0  0  0  0  0  0  0  0  0  0  0  0
  156.0760  213.7590  150.1630 C   0  0  0  0  0  1  0  0  0  0  0  0
  1  7  1  1  0  0  0
  1  8  1  0  0  0  0
  2 12  1  0  0  0  0
  3 10  1  0  0  0  0
  4  9  1  0  0  0  0
  5  4  1  6  0  0  0
  6 15  1  6  0  0  0
  6 11  1  0  0  0  0
  6  5  1  0  0  0  0
  8  9  1  0  0  0  0
  8  2  2  0  0  0  0
  9  3  2  0  0  0  0
 11  1  1  0  0  0  0
 11  5  1  0  0  0  0
 12 10  2  0  0  0  0
 13 16  1  0  0  0  0
 14 13  1  0  0  0  0
 14 17  1  0  0  0  0
 16 15  1  0  0  0  0
 17 15  1  0  0  0  0
 18 17  1  0  0  0  0
 19 21  1  0  0  0  0
 20 24  1  0  0  0  0
 20 19  1  0  0  0  0
 21 25  1  0  0  0  0
 21 13  1  0  0  0  0
 22 26  2  0  0  0  0
 22 25  1  0  0  0  0
 23 19  1  0  0  0  0
 23 22  1  0  0  0  0
 24 19  1  0  0  0  0
 27 17  1  0  0  0  0
 28 27  1  0  0  0  0
 29 30  1  0  0  0  0
 29  1  1  0  0  0  0
 30 34  1  0  0  0  0
 30 31  1  0  0  0  0
 31 32  1  0  0  0  0
 34 33  1  0  0  0  0
 34 35  1  0  0  0  0
 35 32  1  0  0  0  0
 36 31  1  0  0  0  0
 36 38  1  0  0  0  0
 37 36  2  0  0  0  0
 40 35  1  0  0  0  0
 40 39  1  0  0  0  0
 41 43  2  0  0  0  0
 42 43  1  0  0  0  0
 43 40  1  0  0  0  0
 44 29  1  0  0  0  0
 45 44  1  0  0  0  0
 46 45  2  0  0  0  0
 47 45  1  0  0  0  0
 48 50  1  0  0  0  0
 48 47  1  0  0  0  0
 49 48  2  0  0  0  0
M  END
>  <MODEL>
4

>  <REMARK>
 VINA RESULT:      -1.9      2.804      5.342
  Name = 
  12 active torsions:
  status: ('A' for Active; 'I' for Inactive)
    1  A    between atoms: C_1  and  S_16
    2  A    between atoms: C_1  and  C_31
    3  A    between atoms: C_2  and  C_19
    4  A    between atoms: C_2  and  C_31
    5  A    between atoms: C_3  and  C_19
    6  A    between atoms: C_4  and  C_12
    7  A    between atoms: C_5  and  C_19
    8  A    between atoms: N_6  and  C_21
    9  A    between atoms: C_10  and  N_33
   10  A    between atoms: C_23  and  C_36
   11  A    between atoms: C_25  and  C_27
   12  A    between atoms: C_36  and  C_46
                            x       y       z     vdW  Elec       q    Type
                         _______ _______ _______ _____ _____    ______ ____

>  <TORSDO>
F 12

$$$$
=
 OpenBabel11072412083D

 50 56  0  0  1  0  0  0  0  0999 V2000
  161.7400  209.3740  151.9200 C   0  0  1  0  0  0  0  0  0  0  0  0
  161.6390  207.1120  153.2310 C   0  0  0  0  0  3  0  0  0  0  0  0
  159.7560  208.1310  155.0100 C   0  0  0  0  0  3  0  0  0  0  0  0
  159.8760  210.3340  153.9190 N   0  0  0  0  0  2  0  0  0  0  0  0
  160.8290  211.0960  153.1290 C   0  0  2  0  0  3  0  0  0  0  0  0
  160.4490  211.9240  151.9930 N   0  0  1  0  0  0  0  0  0  0  0  0
  162.9760  209.9420  152.2760 O   0  0  0  0  0  1  0  0  0  0  0  0
  161.2190  208.4380  153.0630 C   0  0  0  0  0  0  0  0  0  0  0  0
  160.2690  208.9500  154.0060 C   0  0  0  0  0  0  0  0  0  0  0  0
  160.2050  206.8140  155.1040 C   0  0  0  0  0  3  0  0  0  0  0  0
  160.6170  210.4600  151.7880 C   0  0  1  0  0  3  0  0  0  0  0  0
  161.1330  206.3410  154.2300 N   0  0  0  0  0  0  0  0  0  0  0  0
  158.6020  213.3920  154.1180 N   0  0  2  0  0  0  0  0  0  0  0  0
  158.6240  214.3890  153.0530 C   0  0  0  0  0  2  0  0  0  0  0  0
  159.0090  212.2200  152.0510 C   0  0  1  0  0  3  0  0  0  0  0  0
  158.5070  212.0810  153.4800 C   0  0  0  0  0  2  0  0  0  0  0  0
  158.6860  213.6740  151.7130 C   0  0  2  0  0  0  0  0  0  0  0  0
  159.7290  214.3430  150.8330 C   0  0  0  0  0  1  0  0  0  0  0  0
  156.7200  212.3840  155.3740 C   0  0  0  0  0  0  0  0  0  0  0  0
  156.8500  212.0740  156.8480 C   0  0  0  0  0  2  0  0  0  0  0  0
  157.4450  213.6650  154.9820 C   0  0  2  0  0  3  0  0  0  0  0  0
  155.2100  213.7090  154.2610 C   0  0  0  0  0  0  0  0  0  0  0  0
  155.2820  212.3730  154.9040 C   0  0  0  0  0  2  0  0  0  0  0  0
  157.4360  211.1260  155.8110 C   0  0  0  0  0  2  0  0  0  0  0  0
  156.4220  214.4520  154.3000 N   0  0  0  0  0  2  0  0  0  0  0  0
  154.1660  214.1560  153.7220 O   0  0  0  0  0  0  0  0  0  0  0  0
  157.3190  213.7130  151.0190 C   0  0  0  0  0  2  0  0  0  0  0  0
  157.3460  213.1220  149.6150 C   0  0  0  0  0  1  0  0  0  0  0  0
  161.9160  208.6010  150.5610 C   0  0  1  0  0  3  0  0  0  0  0  0
  161.4290  207.1230  150.5670 C   0  0  1  0  0  3  0  0  0  0  0  0
  161.5430  206.4200  149.2120 C   0  0  1  0  0  3  0  0  0  0  0  0
  162.0530  205.1140  149.3860 O   0  0  0  0  0  0  0  0  0  0  0  0
  163.5770  206.5750  151.4760 O   0  0  0  0  0  1  0  0  0  0  0  0
  162.2260  206.2100  151.4650 C   0  0  2  0  0  3  0  0  0  0  0  0
  162.1100  204.8730  150.7720 C   0  0  1  0  0  3  0  0  0  0  0  0
  160.2240  206.3400  148.5160 C   0  0  0  0  0  0  0  0  0  0  0  0
  160.1430  206.4850  147.1350 O   0  0  0  0  0  0  0  0  0  0  0  0
  159.1720  206.1900  149.1880 O   0  0  0  0  0  1  0  0  0  0  0  0
  160.8650  203.9350  152.6150 O   0  0  0  0  0  1  0  0  0  0  0  0
  160.8680  204.0880  151.2250 C   0  0  2  0  0  3  0  0  0  0  0  0
  159.9890  202.5300  149.6300 O   0  0  0  0  0  0  0  0  0  0  0  0
  161.6420  201.7130  150.9850 O   0  0  0  0  0  1  0  0  0  0  0  0
  160.8090  202.7420  150.5630 C   0  0  0  0  0  0  0  0  0  0  0  0
  161.3880  209.3590  149.3170 C   0  0  0  0  0  2  0  0  0  0  0  0
  162.3710  210.2890  148.6630 C   0  0  0  0  0  0  0  0  0  0  0  0
  163.2440  209.8570  147.9280 O   0  0  0  0  0  0  0  0  0  0  0  0
  162.2660  211.7590  148.9030 C   0  0  0  0  0  2  0  0  0  0  0  0
  161.3250  212.5520  147.5860 S   0  0  1  0  0  0  0  0  0  0  0  0
  161.0670  213.9520  148.1250 O   0  0  0  0  0  0  0  0  0  0  0  0
  162.5630  212.8270  146.3110 C   0  0  0  0  0  1  0  0  0  0  0  0
  1  7  1  1  0  0  0
  1  8  1  0  0  0  0
  2 12  1  0  0  0  0
  3 10  1  0  0  0  0
  4  9  1  0  0  0  0
  5  4  1  1  0  0  0
  6 15  1  1  0  0  0
  6  5  1  0  0  0  0
  8  2  2  0  0  0  0
  8  9  1  0  0  0  0
  9  3  2  0  0  0  0
 11  1  1  0  0  0  0
 11  6  1  0  0  0  0
 11  5  1  0  0  0  0
 12 10  2  0  0  0  0
 13 21  1  0  0  0  0
 14 13  1  0  0  0  0
 15 16  1  0  0  0  0
 16 13  1  0  0  0  0
 17 15  1  0  0  0  0
 17 14  1  0  0  0  0
 18 17  1  0  0  0  0
 19 24  1  0  0  0  0
 19 20  1  0  0  0  0
 21 19  1  0  0  0  0
 22 25  1  0  0  0  0
 22 23  1  0  0  0  0
 23 19  1  0  0  0  0
 24 20  1  0  0  0  0
 25 21  1  0  0  0  0
 26 22  2  0  0  0  0
 27 17  1  0  0  0  0
 28 27  1  0  0  0  0
 29 30  1  0  0  0  0
 29  1  1  0  0  0  0
 30 34  1  0  0  0  0
 31 32  1  0  0  0  0
 31 30  1  0  0  0  0
 32 35  1  0  0  0  0
 34 33  1  0  0  0  0
 35 40  1  0  0  0  0
 35 34  1  0  0  0  0
 36 38  1  0  0  0  0
 36 31  1  0  0  0  0
 37 36  2  0  0  0  0
 40 39  1  0  0  0  0
 41 43  2  0  0  0  0
 43 42  1  0  0  0  0
 43 40  1  0  0  0  0
 44 29  1  0  0  0  0
 45 47  1  0  0  0  0
 45 44  1  0  0  0  0
 46 45  2  0  0  0  0
 48 49  2  0  0  0  0
 48 47  1  0  0  0  0
 50 48  1  0  0  0  0
M  END
>  <MODEL>
5

>  <REMARK>
 VINA RESULT:      -1.6      3.173      8.468
  Name = 
  12 active torsions:
  status: ('A' for Active; 'I' for Inactive)
    1  A    between atoms: C_1  and  S_16
    2  A    between atoms: C_1  and  C_31
    3  A    between atoms: C_2  and  C_19
    4  A    between atoms: C_2  and  C_31
    5  A    between atoms: C_3  and  C_19
    6  A    between atoms: C_4  and  C_12
    7  A    between atoms: C_5  and  C_19
    8  A    between atoms: N_6  and  C_21
    9  A    between atoms: C_10  and  N_33
   10  A    between atoms: C_23  and  C_36
   11  A    between atoms: C_25  and  C_27
   12  A    between atoms: C_36  and  C_46
                            x       y       z     vdW  Elec       q    Type
                         _______ _______ _______ _____ _____    ______ ____

>  <TORSDO>
F 12

$$$$
=
 OpenBabel11072412083D

 50 56  0  0  1  0  0  0  0  0999 V2000
  161.3930  208.9330  151.6880 C   0  0  1  0  0  0  0  0  0  0  0  0
  161.6550  211.1590  150.3380 C   0  0  0  0  0  3  0  0  0  0  0  0
  162.1560  209.7680  147.9790 C   0  0  0  0  0  3  0  0  0  0  0  0
  162.0530  207.6270  149.1870 N   0  0  0  0  0  2  0  0  0  0  0  0
  162.2530  207.1420  150.5430 C   0  0  2  0  0  3  0  0  0  0  0  0
  161.4180  206.1230  151.1620 N   0  0  1  0  0  0  0  0  0  0  0  0
  162.5630  208.8410  152.4620 O   0  0  0  0  0  1  0  0  0  0  0  0
  161.6650  209.7590  150.3840 C   0  0  0  0  0  0  0  0  0  0  0  0
  161.9510  209.0640  149.1640 C   0  0  0  0  0  0  0  0  0  0  0  0
  162.1120  211.1620  148.0040 C   0  0  0  0  0  3  0  0  0  0  0  0
  160.9390  207.5310  151.1510 C   0  0  1  0  0  3  0  0  0  0  0  0
  161.8750  211.8200  149.1700 N   0  0  0  0  0  0  0  0  0  0  0  0
  162.3120  204.6110  148.5170 N   0  0  2  0  0  0  0  0  0  0  0  0
  161.9790  203.4750  149.3710 C   0  0  0  0  0  2  0  0  0  0  0  0
  160.6870  205.3780  150.1250 C   0  0  1  0  0  3  0  0  0  0  0  0
  161.3070  205.6430  148.7610 C   0  0  0  0  0  2  0  0  0  0  0  0
  160.8200  203.8630  150.2730 C   0  0  2  0  0  0  0  0  0  0  0  0
  161.1150  203.4130  151.6950 C   0  0  0  0  0  1  0  0  0  0  0  0
  161.2970  204.9380  146.2810 C   0  0  0  0  0  0  0  0  0  0  0  0
  161.9670  205.8140  145.2480 C   0  0  0  0  0  2  0  0  0  0  0  0
  162.3000  204.1560  147.1190 C   0  0  2  0  0  3  0  0  0  0  0  0
  160.6890  202.7250  146.1840 C   0  0  0  0  0  0  0  0  0  0  0  0
  160.2330  204.0460  145.6820 C   0  0  0  0  0  2  0  0  0  0  0  0
  161.1410  206.4390  146.3620 C   0  0  0  0  0  2  0  0  0  0  0  0
  161.8560  202.7710  146.9940 N   0  0  0  0  0  2  0  0  0  0  0  0
  160.0960  201.6480  145.9220 O   0  0  0  0  0  0  0  0  0  0  0  0
  159.5180  203.2190  149.7840 C   0  0  0  0  0  2  0  0  0  0  0  0
  159.6800  201.7490  149.4160 C   0  0  0  0  0  1  0  0  0  0  0  0
  160.2580  209.5760  152.5660 C   0  0  1  0  0  3  0  0  0  0  0  0
  160.4230  209.3970  154.1040 C   0  0  1  0  0  3  0  0  0  0  0  0
  161.2300  208.1610  154.5090 C   0  0  1  0  0  3  0  0  0  0  0  0
  162.1320  208.4910  155.5450 O   0  0  0  0  0  0  0  0  0  0  0  0
  162.2020  210.9950  153.9480 O   0  0  0  0  0  1  0  0  0  0  0  0
  161.1870  210.5090  154.7790 C   0  0  2  0  0  3  0  0  0  0  0  0
  161.8370  209.8070  155.9480 C   0  0  1  0  0  3  0  0  0  0  0  0
  160.3470  207.0470  154.9660 C   0  0  0  0  0  0  0  0  0  0  0  0
  159.1120  207.3180  155.5480 O   0  0  0  0  0  1  0  0  0  0  0  0
  160.7410  205.8570  154.8690 O   0  0  0  0  0  0  0  0  0  0  0  0
  160.2080  208.5970  157.2550 O   0  0  0  0  0  1  0  0  0  0  0  0
  160.9340  209.7900  157.1930 C   0  0  2  0  0  3  0  0  0  0  0  0
  158.7500  210.7750  157.1230 O   0  0  0  0  0  0  0  0  0  0  0  0
  160.4880  212.2590  157.2510 O   0  0  0  0  0  1  0  0  0  0  0  0
  159.9940  210.9610  157.1930 C   0  0  0  0  0  0  0  0  0  0  0  0
  159.9210  211.0450  152.2070 C   0  0  0  0  0  2  0  0  0  0  0  0
  158.8320  211.6750  153.0290 C   0  0  0  0  0  0  0  0  0  0  0  0
  157.8580  211.0270  153.3760 O   0  0  0  0  0  0  0  0  0  0  0  0
  158.9540  213.1050  153.4400 C   0  0  0  0  0  2  0  0  0  0  0  0
  158.5350  214.1990  152.0690 S   0  0  1  0  0  0  0  0  0  0  0  0
  158.9320  213.3960  150.8380 O   0  0  0  0  0  0  0  0  0  0  0  0
  156.7390  214.1370  152.0350 C   0  0  0  0  0  1  0  0  0  0  0  0
  1  7  1  1  0  0  0
  1 29  1  0  0  0  0
  2  8  1  0  0  0  0
  3 10  2  0  0  0  0
  3  9  1  0  0  0  0
  5  4  1  6  0  0  0
  5 11  1  0  0  0  0
  5  6  1  0  0  0  0
  6 15  1  6  0  0  0
  8  1  1  0  0  0  0
  9  4  1  0  0  0  0
  9  8  2  0  0  0  0
 10 12  1  0  0  0  0
 11  6  1  0  0  0  0
 11  1  1  0  0  0  0
 12  2  2  0  0  0  0
 13 16  1  0  0  0  0
 13 14  1  0  0  0  0
 14 17  1  0  0  0  0
 15 17  1  0  0  0  0
 16 15  1  0  0  0  0
 17 18  1  0  0  0  0
 19 24  1  0  0  0  0
 19 21  1  0  0  0  0
 20 19  1  0  0  0  0
 20 24  1  0  0  0  0
 21 13  1  0  0  0  0
 22 25  1  0  0  0  0
 23 22  1  0  0  0  0
 23 19  1  0  0  0  0
 25 21  1  0  0  0  0
 26 22  2  0  0  0  0
 27 17  1  0  0  0  0
 28 27  1  0  0  0  0
 29 30  1  0  0  0  0
 30 31  1  0  0  0  0
 30 34  1  0  0  0  0
 31 36  1  0  0  0  0
 31 32  1  0  0  0  0
 32 35  1  0  0  0  0
 33 34  1  0  0  0  0
 34 35  1  0  0  0  0
 35 40  1  0  0  0  0
 36 37  1  0  0  0  0
 38 36  2  0  0  0  0
 40 43  1  0  0  0  0
 40 39  1  0  0  0  0
 41 43  2  0  0  0  0
 43 42  1  0  0  0  0
 44 29  1  0  0  0  0
 44 45  1  0  0  0  0
 45 46  2  0  0  0  0
 45 47  1  0  0  0  0
 48 47  1  0  0  0  0
 49 48  2  0  0  0  0
 50 48  1  0  0  0  0
M  END
>  <MODEL>
6

>  <REMARK>
 VINA RESULT:      -1.3      1.514      2.553
  Name = 
  12 active torsions:
  status: ('A' for Active; 'I' for Inactive)
    1  A    between atoms: C_1  and  S_16
    2  A    between atoms: C_1  and  C_31
    3  A    between atoms: C_2  and  C_19
    4  A    between atoms: C_2  and  C_31
    5  A    between atoms: C_3  and  C_19
    6  A    between atoms: C_4  and  C_12
    7  A    between atoms: C_5  and  C_19
    8  A    between atoms: N_6  and  C_21
    9  A    between atoms: C_10  and  N_33
   10  A    between atoms: C_23  and  C_36
   11  A    between atoms: C_25  and  C_27
   12  A    between atoms: C_36  and  C_46
                            x       y       z     vdW  Elec       q    Type
                         _______ _______ _______ _____ _____    ______ ____

>  <TORSDO>
F 12

$$$$
=
 OpenBabel11072412083D

 50 56  0  0  1  0  0  0  0  0999 V2000
  159.8350  211.1200  152.8550 C   0  0  1  0  0  0  0  0  0  0  0  0
  160.5880  212.0710  155.1740 C   0  0  0  0  0  3  0  0  0  0  0  0
  161.9410  209.7180  155.7930 C   0  0  0  0  0  3  0  0  0  0  0  0
  161.1780  208.6920  153.6910 N   0  0  0  0  0  2  0  0  0  0  0  0
  160.0750  208.8420  152.7550 C   0  0  2  0  0  3  0  0  0  0  0  0
  160.2290  208.7470  151.3110 N   0  0  1  0  0  0  0  0  0  0  0  0
  158.4650  210.8450  153.0060 O   0  0  0  0  0  1  0  0  0  0  0  0
  160.5670  211.0280  154.2380 C   0  0  0  0  0  0  0  0  0  0  0  0
  161.2470  209.8170  154.5890 C   0  0  0  0  0  0  0  0  0  0  0  0
  161.9360  210.8040  156.6680 C   0  0  0  0  0  3  0  0  0  0  0  0
  160.5540  210.0340  151.9820 C   0  0  1  0  0  3  0  0  0  0  0  0
  161.2610  211.9400  156.3490 N   0  0  0  0  0  0  0  0  0  0  0  0
  160.9200  205.9400  149.9970 N   0  0  2  0  0  0  0  0  0  0  0  0
  161.2890  206.8400  148.9090 C   0  0  0  0  0  2  0  0  0  0  0  0
  161.4910  208.0630  150.9870 C   0  0  1  0  0  3  0  0  0  0  0  0
  161.3520  206.5700  151.2420 C   0  0  0  0  0  2  0  0  0  0  0  0
  161.8390  208.1270  149.5010 C   0  0  2  0  0  0  0  0  0  0  0  0
  161.2250  209.3160  148.7810 C   0  0  0  0  0  1  0  0  0  0  0  0
  161.1690  204.0160  148.4560 C   0  0  0  0  0  0  0  0  0  0  0  0
  162.3000  203.9690  147.4540 C   0  0  0  0  0  2  0  0  0  0  0  0
  161.5890  204.6500  149.7760 C   0  0  2  0  0  3  0  0  0  0  0  0
  160.6040  202.5470  150.1290 C   0  0  0  0  0  0  0  0  0  0  0  0
  160.5120  202.6690  148.6520 C   0  0  0  0  0  2  0  0  0  0  0  0
  161.0530  204.7920  147.1640 C   0  0  0  0  0  2  0  0  0  0  0  0
  161.2130  203.6560  150.7780 N   0  0  0  0  0  2  0  0  0  0  0  0
  160.1800  201.5480  150.7640 O   0  0  0  0  0  0  0  0  0  0  0  0
  163.3660  208.1710  149.3690 C   0  0  0  0  0  2  0  0  0  0  0  0
  163.9040  207.1950  148.3310 C   0  0  0  0  0  1  0  0  0  0  0  0
  159.9930  212.5410  152.1990 C   0  0  1  0  0  3  0  0  0  0  0  0
  159.5540  212.6400  150.7090 C   0  0  1  0  0  3  0  0  0  0  0  0
  158.7510  213.9000  150.3740 C   0  0  1  0  0  3  0  0  0  0  0  0
  159.1960  214.4460  149.1490 O   0  0  0  0  0  0  0  0  0  0  0  0
  161.7640  213.4540  150.2670 O   0  0  0  0  0  1  0  0  0  0  0  0
  160.6970  212.7240  149.7290 C   0  0  2  0  0  3  0  0  0  0  0  0
  160.1080  213.5290  148.5940 C   0  0  1  0  0  3  0  0  0  0  0  0
  157.2880  213.6160  150.2790 C   0  0  0  0  0  0  0  0  0  0  0  0
  156.8310  212.4630  149.6500 O   0  0  0  0  0  0  0  0  0  0  0  0
  156.4600  214.4490  150.7280 O   0  0  0  0  0  1  0  0  0  0  0  0
  160.3360  211.9080  146.8200 O   0  0  0  0  0  1  0  0  0  0  0  0
  159.4010  212.6400  147.5570 C   0  0  2  0  0  3  0  0  0  0  0  0
  157.3040  213.2960  146.5980 O   0  0  0  0  0  1  0  0  0  0  0  0
  159.1370  214.4030  145.7890 O   0  0  0  0  0  0  0  0  0  0  0  0
  158.5520  213.4630  146.6310 C   0  0  0  0  0  0  0  0  0  0  0  0
  159.4010  213.7050  153.0350 C   0  0  0  0  0  2  0  0  0  0  0  0
  158.0480  213.4430  153.6350 C   0  0  0  0  0  0  0  0  0  0  0  0
  157.4280  212.4290  153.3570 O   0  0  0  0  0  0  0  0  0  0  0  0
  157.4660  214.4260  154.5960 C   0  0  0  0  0  2  0  0  0  0  0  0
  156.3040  213.6150  155.7100 S   0  0  1  0  0  0  0  0  0  0  0  0
  156.6820  214.1610  157.0800 O   0  0  0  0  0  0  0  0  0  0  0  0
  154.7510  214.4480  155.3530 C   0  0  0  0  0  1  0  0  0  0  0  0
  1  7  1  1  0  0  0
  1  8  1  0  0  0  0
  2 12  1  0  0  0  0
  3 10  1  0  0  0  0
  4  9  1  0  0  0  0
  5  4  1  1  0  0  0
  6 15  1  1  0  0  0
  6 11  1  0  0  0  0
  6  5  1  0  0  0  0
  8  9  1  0  0  0  0
  8  2  2  0  0  0  0
  9  3  2  0  0  0  0
 11  5  1  0  0  0  0
 11  1  1  0  0  0  0
 12 10  2  0  0  0  0
 13 16  1  0  0  0  0
 14 17  1  0  0  0  0
 14 13  1  0  0  0  0
 15 16  1  0  0  0  0
 17 15  1  0  0  0  0
 18 17  1  0  0  0  0
 19 23  1  0  0  0  0
 19 21  1  0  0  0  0
 20 19  1  0  0  0  0
 21 13  1  0  0  0  0
 21 25  1  0  0  0  0
 22 26  2  0  0  0  0
 22 25  1  0  0  0  0
 23 22  1  0  0  0  0
 24 20  1  0  0  0  0
 24 19  1  0  0  0  0
 27 17  1  0  0  0  0
 28 27  1  0  0  0  0
 29  1  1  0  0  0  0
 29 44  1  0  0  0  0
 30 29  1  0  0  0  0
 31 30  1  0  0  0  0
 32 31  1  0  0  0  0
 34 33  1  0  0  0  0
 34 30  1  0  0  0  0
 35 32  1  0  0  0  0
 35 34  1  0  0  0  0
 36 31  1  0  0  0  0
 36 38  1  0  0  0  0
 37 36  2  0  0  0  0
 39 40  1  0  0  0  0
 40 35  1  0  0  0  0
 41 43  1  0  0  0  0
 42 43  2  0  0  0  0
 43 40  1  0  0  0  0
 44 45  1  0  0  0  0
 45 47  1  0  0  0  0
 46 45  2  0  0  0  0
 47 48  1  0  0  0  0
 48 49  2  0  0  0  0
 50 48  1  0  0  0  0
M  END
>  <MODEL>
7

>  <REMARK>
 VINA RESULT:      -0.7      2.759      6.233
  Name = 
  12 active torsions:
  status: ('A' for Active; 'I' for Inactive)
    1  A    between atoms: C_1  and  S_16
    2  A    between atoms: C_1  and  C_31
    3  A    between atoms: C_2  and  C_19
    4  A    between atoms: C_2  and  C_31
    5  A    between atoms: C_3  and  C_19
    6  A    between atoms: C_4  and  C_12
    7  A    between atoms: C_5  and  C_19
    8  A    between atoms: N_6  and  C_21
    9  A    between atoms: C_10  and  N_33
   10  A    between atoms: C_23  and  C_36
   11  A    between atoms: C_25  and  C_27
   12  A    between atoms: C_36  and  C_46
                            x       y       z     vdW  Elec       q    Type
                         _______ _______ _______ _____ _____    ______ ____

>  <TORSDO>
F 12

$$$$
=
 OpenBabel11072412083D

 50 56  0  0  1  0  0  0  0  0999 V2000
  161.2780  208.1740  152.3910 C   0  0  1  0  0  0  0  0  0  0  0  0
  161.2210  206.6460  154.5140 C   0  0  0  0  0  3  0  0  0  0  0  0
  160.0620  208.6660  156.0400 C   0  0  0  0  0  3  0  0  0  0  0  0
  160.1900  210.2170  154.1340 N   0  0  0  0  0  2  0  0  0  0  0  0
  160.9870  210.3840  152.9300 C   0  0  2  0  0  3  0  0  0  0  0  0
  160.4320  210.8020  151.6510 N   0  0  1  0  0  0  0  0  0  0  0  0
  162.6320  208.5190  152.2320 O   0  0  0  0  0  1  0  0  0  0  0  0
  160.9640  207.8770  153.8970 C   0  0  0  0  0  0  0  0  0  0  0  0
  160.3920  208.9110  154.7080 C   0  0  0  0  0  0  0  0  0  0  0  0
  160.3290  207.4090  156.5830 C   0  0  0  0  0  3  0  0  0  0  0  0
  160.3270  209.3710  152.0420 C   0  0  1  0  0  3  0  0  0  0  0  0
  160.9040  206.4400  155.8210 N   0  0  0  0  0  0  0  0  0  0  0  0
  159.3290  212.9050  153.7600 N   0  0  2  0  0  0  0  0  0  0  0  0
  159.3850  213.7360  152.5610 C   0  0  0  0  0  2  0  0  0  0  0  0
  159.1200  211.4350  151.8590 C   0  0  1  0  0  3  0  0  0  0  0  0
  158.8480  211.5880  153.3480 C   0  0  0  0  0  2  0  0  0  0  0  0
  159.0650  212.8750  151.3510 C   0  0  2  0  0  0  0  0  0  0  0  0
  160.0650  213.1700  150.2440 C   0  0  0  0  0  1  0  0  0  0  0  0
  158.8120  213.2300  156.1600 C   0  0  0  0  0  0  0  0  0  0  0  0
  159.3100  214.4500  156.9010 C   0  0  0  0  0  2  0  0  0  0  0  0
  158.4200  213.5430  154.7220 C   0  0  2  0  0  3  0  0  0  0  0  0
  156.6740  212.4500  155.8510 C   0  0  0  0  0  0  0  0  0  0  0  0
  157.7150  212.5070  156.9080 C   0  0  0  0  0  2  0  0  0  0  0  0
  160.2390  213.2690  156.6580 C   0  0  0  0  0  2  0  0  0  0  0  0
  157.0560  213.0330  154.6120 N   0  0  0  0  0  2  0  0  0  0  0  0
  155.5440  211.9280  156.0260 O   0  0  0  0  0  0  0  0  0  0  0  0
  157.6420  213.1530  150.8530 C   0  0  0  0  0  2  0  0  0  0  0  0
  157.5080  213.0500  149.3390 C   0  0  0  0  0  1  0  0  0  0  0  0
  160.9630  206.9390  151.4690 C   0  0  1  0  0  3  0  0  0  0  0  0
  161.1450  207.1820  149.9430 C   0  0  1  0  0  3  0  0  0  0  0  0
  162.3960  207.9880  149.5810 C   0  0  1  0  0  3  0  0  0  0  0  0
  163.0360  207.4090  148.4620 O   0  0  0  0  0  0  0  0  0  0  0  0
  162.0620  204.9700  149.8510 O   0  0  0  0  0  1  0  0  0  0  0  0
  161.3330  205.9240  149.1320 C   0  0  2  0  0  3  0  0  0  0  0  0
  162.1900  206.3940  147.9790 C   0  0  1  0  0  3  0  0  0  0  0  0
  162.0680  209.4120  149.2740 C   0  0  0  0  0  0  0  0  0  0  0  0
  162.7140  210.4460  149.9440 O   0  0  0  0  0  1  0  0  0  0  0  0
  161.1660  209.6790  148.4390 O   0  0  0  0  0  0  0  0  0  0  0  0
  159.9950  206.9640  147.1530 O   0  0  0  0  0  1  0  0  0  0  0  0
  161.3480  206.9200  146.8050 C   0  0  2  0  0  3  0  0  0  0  0  0
  162.4820  205.2380  145.5270 O   0  0  0  0  0  1  0  0  0  0  0  0
  160.6730  206.1930  144.4990 O   0  0  0  0  0  0  0  0  0  0  0  0
  161.5330  206.0660  145.5840 C   0  0  0  0  0  0  0  0  0  0  0  0
  161.6430  205.6180  151.9100 C   0  0  0  0  0  2  0  0  0  0  0  0
  160.7640  204.3980  151.8740 C   0  0  0  0  0  0  0  0  0  0  0  0
  159.5920  204.4650  152.2050 O   0  0  0  0  0  0  0  0  0  0  0  0
  161.3300  203.0970  151.4100 C   0  0  0  0  0  2  0  0  0  0  0  0
  160.4060  202.4720  149.9940 S   0  0  1  0  0  0  0  0  0  0  0  0
  161.4930  202.0800  149.0030 O   0  0  0  0  0  0  0  0  0  0  0  0
  159.7950  200.8850  150.5780 C   0  0  0  0  0  1  0  0  0  0  0  0
  1  7  1  6  0  0  0
  1  8  1  0  0  0  0
  2 12  1  0  0  0  0
  3 10  1  0  0  0  0
  4  9  1  0  0  0  0
  5  4  1  1  0  0  0
  6 15  1  1  0  0  0
  6 11  1  0  0  0  0
  6  5  1  0  0  0  0
  8  2  2  0  0  0  0
  8  9  1  0  0  0  0
  9  3  2  0  0  0  0
 11  1  1  0  0  0  0
 11  5  1  0  0  0  0
 12 10  2  0  0  0  0
 13 21  1  0  0  0  0
 14 13  1  0  0  0  0
 15 16  1  0  0  0  0
 16 13  1  0  0  0  0
 17 15  1  0  0  0  0
 17 14  1  0  0  0  0
 18 17  1  0  0  0  0
 19 24  1  0  0  0  0
 19 20  1  0  0  0  0
 19 23  1  0  0  0  0
 21 19  1  0  0  0  0
 22 26  2  0  0  0  0
 22 23  1  0  0  0  0
 24 20  1  0  0  0  0
 25 21  1  0  0  0  0
 25 22  1  0  0  0  0
 27 17  1  0  0  0  0
 28 27  1  0  0  0  0
 29 44  1  0  0  0  0
 29  1  1  0  0  0  0
 30 29  1  0  0  0  0
 31 30  1  0  0  0  0
 32 31  1  0  0  0  0
 34 33  1  0  0  0  0
 34 30  1  0  0  0  0
 35 32  1  0  0  0  0
 35 34  1  0  0  0  0
 36 31  1  0  0  0  0
 36 37  1  0  0  0  0
 38 36  2  0  0  0  0
 40 39  1  0  0  0  0
 40 35  1  0  0  0  0
 41 43  1  0  0  0  0
 42 43  2  0  0  0  0
 43 40  1  0  0  0  0
 45 44  1  0  0  0  0
 45 46  2  0  0  0  0
 47 45  1  0  0  0  0
 48 50  1  0  0  0  0
 48 47  1  0  0  0  0
 49 48  2  0  0  0  0
M  END
>  <MODEL>
8

>  <REMARK>
 VINA RESULT:      -0.7      3.327      9.296
  Name = 
  12 active torsions:
  status: ('A' for Active; 'I' for Inactive)
    1  A    between atoms: C_1  and  S_16
    2  A    between atoms: C_1  and  C_31
    3  A    between atoms: C_2  and  C_19
    4  A    between atoms: C_2  and  C_31
    5  A    between atoms: C_3  and  C_19
    6  A    between atoms: C_4  and  C_12
    7  A    between atoms: C_5  and  C_19
    8  A    between atoms: N_6  and  C_21
    9  A    between atoms: C_10  and  N_33
   10  A    between atoms: C_23  and  C_36
   11  A    between atoms: C_25  and  C_27
   12  A    between atoms: C_36  and  C_46
                            x       y       z     vdW  Elec       q    Type
                         _______ _______ _______ _____ _____    ______ ____

>  <TORSDO>
F 12

$$$$
=
 OpenBabel11072412083D

 50 56  0  0  1  0  0  0  0  0999 V2000
  161.9710  210.6200  153.1960 C   0  0  1  0  0  0  0  0  0  0  0  0
  160.8200  212.8670  152.5060 C   0  0  0  0  0  3  0  0  0  0  0  0
  159.8750  211.7520  150.1360 C   0  0  0  0  0  3  0  0  0  0  0  0
  161.0280  209.6380  150.6380 N   0  0  0  0  0  2  0  0  0  0  0  0
  162.1740  209.1910  151.4140 C   0  0  2  0  0  3  0  0  0  0  0  0
  162.1880  207.9550  152.1840 N   0  0  1  0  0  0  0  0  0  0  0  0
  163.3450  210.8480  153.0110 O   0  0  0  0  0  1  0  0  0  0  0  0
  161.1310  211.5290  152.2320 C   0  0  0  0  0  0  0  0  0  0  0  0
  160.6580  210.9840  150.9950 C   0  0  0  0  0  0  0  0  0  0  0  0
  159.5870  213.0720  150.4820 C   0  0  0  0  0  3  0  0  0  0  0  0
  161.5610  209.1640  152.7830 C   0  0  1  0  0  3  0  0  0  0  0  0
  160.0670  213.5980  151.6410 N   0  0  0  0  0  0  0  0  0  0  0  0
  161.7170  206.3270  149.4990 N   0  0  2  0  0  0  0  0  0  0  0  0
  162.0340  205.2380  150.4170 C   0  0  0  0  0  2  0  0  0  0  0  0
  161.1170  207.0630  151.7160 C   0  0  1  0  0  3  0  0  0  0  0  0
  160.8770  207.2740  150.2290 C   0  0  0  0  0  2  0  0  0  0  0  0
  161.4950  205.5850  151.7950 C   0  0  2  0  0  0  0  0  0  0  0  0
  162.5560  205.2810  152.8420 C   0  0  0  0  0  1  0  0  0  0  0  0
  161.5110  204.3580  148.0110 C   0  0  0  0  0  0  0  0  0  0  0  0
  160.4580  203.3040  148.2630 C   0  0  0  0  0  2  0  0  0  0  0  0
  161.0190  205.7620  148.3360 C   0  0  2  0  0  3  0  0  0  0  0  0
  161.8960  205.6620  146.1590 C   0  0  0  0  0  0  0  0  0  0  0  0
  162.1020  204.2660  146.6210 C   0  0  0  0  0  2  0  0  0  0  0  0
  161.7530  203.2990  149.0620 C   0  0  0  0  0  2  0  0  0  0  0  0
  161.2820  206.5180  147.1150 N   0  0  0  0  0  2  0  0  0  0  0  0
  162.2340  206.0650  145.0170 O   0  0  0  0  0  0  0  0  0  0  0  0
  160.2250  204.7800  152.0950 C   0  0  0  0  0  2  0  0  0  0  0  0
  160.5030  203.3110  152.3850 C   0  0  0  0  0  1  0  0  0  0  0  0
  161.6170  210.8800  154.7060 C   0  0  1  0  0  3  0  0  0  0  0  0
  160.1390  210.5940  155.1040 C   0  0  1  0  0  3  0  0  0  0  0  0
  159.9800  209.8590  156.4380 C   0  0  1  0  0  3  0  0  0  0  0  0
  158.9300  210.4360  157.1860 O   0  0  0  0  0  0  0  0  0  0  0  0
  160.0690  212.8560  155.8910 O   0  0  0  0  0  1  0  0  0  0  0  0
  159.3050  211.8300  155.3230 C   0  0  2  0  0  3  0  0  0  0  0  0
  158.2950  211.3760  156.3520 C   0  0  1  0  0  3  0  0  0  0  0  0
  159.6970  208.4060  156.2400 C   0  0  0  0  0  0  0  0  0  0  0  0
  160.1520  207.4650  157.1580 O   0  0  0  0  0  1  0  0  0  0  0  0
  159.0860  208.0240  155.2090 O   0  0  0  0  0  0  0  0  0  0  0  0
  157.0210  211.0180  154.3340 O   0  0  0  0  0  1  0  0  0  0  0  0
  157.0460  210.7540  155.7070 C   0  0  2  0  0  3  0  0  0  0  0  0
  154.8760  210.4750  156.6860 O   0  0  0  0  0  1  0  0  0  0  0  0
  155.6220  212.6350  156.5620 O   0  0  0  0  0  0  0  0  0  0  0  0
  155.7920  211.2720  156.3500 C   0  0  0  0  0  0  0  0  0  0  0  0
  162.6020  210.2400  155.7170 C   0  0  0  0  0  2  0  0  0  0  0  0
  163.2510  211.1970  156.6780 C   0  0  0  0  0  0  0  0  0  0  0  0
  162.6010  212.0820  157.2100 O   0  0  0  0  0  0  0  0  0  0  0  0
  164.7010  211.0490  156.9970 C   0  0  0  0  0  2  0  0  0  0  0  0
  165.6150  212.5220  156.5030 S   0  0  1  0  0  0  0  0  0  0  0  0
  166.9300  212.3970  157.2600 O   0  0  0  0  0  0  0  0  0  0  0  0
  166.0850  212.1580  154.8060 C   0  0  0  0  0  1  0  0  0  0  0  0
  1  7  1  6  0  0  0
  1 29  1  0  0  0  0
  3 10  2  0  0  0  0
  3  9  1  0  0  0  0
  4  9  1  0  0  0  0
  5  4  1  6  0  0  0
  5  6  1  0  0  0  0
  5 11  1  0  0  0  0
  6 15  1  6  0  0  0
  6 11  1  0  0  0  0
  8  2  1  0  0  0  0
  8  1  1  0  0  0  0
  9  8  2  0  0  0  0
 10 12  1  0  0  0  0
 11  1  1  0  0  0  0
 12  2  2  0  0  0  0
 13 16  1  0  0  0  0
 13 14  1  0  0  0  0
 14 17  1  0  0  0  0
 15 17  1  0  0  0  0
 16 15  1  0  0  0  0
 17 27  1  0  0  0  0
 17 18  1  0  0  0  0
 19 20  1  0  0  0  0
 19 21  1  0  0  0  0
 19 24  1  0  0  0  0
 20 24  1  0  0  0  0
 21 13  1  0  0  0  0
 22 23  1  0  0  0  0
 22 25  1  0  0  0  0
 23 19  1  0  0  0  0
 25 21  1  0  0  0  0
 26 22  2  0  0  0  0
 27 28  1  0  0  0  0
 29 30  1  0  0  0  0
 29 44  1  0  0  0  0
 30 34  1  0  0  0  0
 30 31  1  0  0  0  0
 31 32  1  0  0  0  0
 34 33  1  0  0  0  0
 34 35  1  0  0  0  0
 35 32  1  0  0  0  0
 36 31  1  0  0  0  0
 36 37  1  0  0  0  0
 38 36  2  0  0  0  0
 39 40  1  0  0  0  0
 40 43  1  0  0  0  0
 40 35  1  0  0  0  0
 43 42  2  0  0  0  0
 43 41  1  0  0  0  0
 44 45  1  0  0  0  0
 45 47  1  0  0  0  0
 45 46  2  0  0  0  0
 48 47  1  0  0  0  0
 48 49  2  0  0  0  0
 50 48  1  0  0  0  0
M  END
>  <MODEL>
9

>  <REMARK>
 VINA RESULT:      -0.6      2.378      4.294
  Name = 
  12 active torsions:
  status: ('A' for Active; 'I' for Inactive)
    1  A    between atoms: C_1  and  S_16
    2  A    between atoms: C_1  and  C_31
    3  A    between atoms: C_2  and  C_19
    4  A    between atoms: C_2  and  C_31
    5  A    between atoms: C_3  and  C_19
    6  A    between atoms: C_4  and  C_12
    7  A    between atoms: C_5  and  C_19
    8  A    between atoms: N_6  and  C_21
    9  A    between atoms: C_10  and  N_33
   10  A    between atoms: C_23  and  C_36
   11  A    between atoms: C_25  and  C_27
   12  A    between atoms: C_36  and  C_46
                            x       y       z     vdW  Elec       q    Type
                         _______ _______ _______ _____ _____    ______ ____

>  <TORSDO>
F 12

$$$$
