=
 OpenBabel11072409543D

 48 54  0  0  1  0  0  0  0  0999 V2000
  160.6110  207.8960  154.0300 C   0  0  0  0  0  0  0  0  0  0  0  0
  160.4270  207.0590  154.9520 O   0  0  0  0  0  0  0  0  0  0  0  0
  160.2450  209.2620  154.2390 N   0  0  0  0  0  2  0  0  0  0  0  0
  160.4350  210.2980  153.2370 C   0  0  0  0  0  2  0  0  0  0  0  0
  159.8260  212.9770  151.3600 N   0  0  0  0  0  2  0  0  0  0  0  0
  159.5820  212.5140  153.7810 N   0  0  0  0  0  0  0  0  0  0  0  0
  160.7420  211.6330  153.8990 C   0  0  1  0  0  3  0  0  0  0  0  0
  159.0630  212.8550  155.0190 N   0  0  0  0  0  0  0  0  0  0  0  0
  159.6340  212.3780  157.2550 O   0  0  0  0  0  0  0  0  0  0  0  0
  158.0970  213.9740  152.6630 N   0  0  0  0  0  0  0  0  0  0  0  0
  157.6020  214.1940  156.2610 O   0  0  0  0  0  0  0  0  0  0  0  0
  159.1200  213.1670  152.5940 C   0  0  0  0  0  0  0  0  0  0  0  0
  157.2820  214.2140  153.8760 C   0  0  2  0  0  3  0  0  0  0  0  0
  160.9480  211.4430  155.4230 C   0  0  0  0  0  2  0  0  0  0  0  0
  159.8470  212.2500  156.0200 C   0  0  0  0  0  0  0  0  0  0  0  0
  157.9830  213.7790  155.1350 C   0  0  0  0  0  0  0  0  0  0  0  0
  160.5650  213.8690  148.7940 S   0  0  0  0  0  0  0  0  0  0  0  0
  159.3910  213.3850  150.0550 C   0  0  0  0  0  0  0  0  0  0  0  0
  156.7640  213.6750  147.6840 O   0  0  0  0  0  1  0  0  0  0  0  0
  159.1990  213.9880  147.5830 C   0  0  0  0  0  2  0  0  0  0  0  0
  158.1340  213.3510  149.6540 C   0  0  0  0  0  3  0  0  0  0  0  0
  157.9660  213.7220  148.3010 N   0  0  0  0  0  0  0  0  0  0  0  0
  155.8770  213.5800  153.8110 C   0  0  0  0  0  3  0  0  0  0  0  0
  154.9110  214.3760  152.9480 C   0  0  0  0  0  2  0  0  0  0  0  0
  154.8160  214.4520  154.4620 C   0  0  0  0  0  2  0  0  0  0  0  0
  161.2450  207.4580  152.7480 C   0  0  0  0  0  2  0  0  0  0  0  0
  160.5480  208.1120  151.5640 C   0  0  0  0  0  2  0  0  0  0  0  0
  160.4980  206.9320  149.3760 C   0  0  0  0  0  2  0  0  0  0  0  0
  163.5040  207.1240  149.2780 C   0  0  0  0  0  2  0  0  0  0  0  0
  162.6930  207.2710  150.5680 C   0  0  0  0  0  2  0  0  0  0  0  0
  162.6310  206.8520  148.0410 C   0  0  0  0  0  2  0  0  0  0  0  0
  161.3180  207.8640  150.2790 C   0  0  2  0  0  3  0  0  0  0  0  0
  161.3150  206.0970  148.3660 C   0  0  1  0  0  0  0  0  0  0  0  0
  160.5610  202.7150  149.0840 C   0  0  1  0  0  3  0  0  0  0  0  0
  160.7680  203.1270  150.5250 C   0  0  0  0  0  2  0  0  0  0  0  0
  161.1830  203.6410  148.2240 O   0  0  0  0  0  0  0  0  0  0  0  0
  161.0210  204.5910  150.4140 C   0  0  0  0  0  2  0  0  0  0  0  0
  161.6100  204.7220  149.0240 C   0  0  2  0  0  3  0  0  0  0  0  0
  161.3660  200.5320  149.8680 C   0  0  0  0  0  2  0  0  0  0  0  0
  161.0640  201.3230  148.8390 C   0  0  0  0  0  0  0  0  0  0  0  0
  161.0700  200.7880  147.4650 C   0  0  0  0  0  0  0  0  0  0  0  0
  161.7030  199.5830  147.1890 O   0  0  0  0  0  1  0  0  0  0  0  0
  160.5120  201.4190  146.5270 O   0  0  0  0  0  0  0  0  0  0  0  0
  160.4980  205.9620  147.2090 O   0  0  0  0  0  0  0  0  0  0  0  0
  160.2120  206.4210  144.8820 C   0  0  0  0  0  2  0  0  0  0  0  0
  160.7790  204.0520  145.3390 C   0  0  0  0  0  1  0  0  0  0  0  0
  161.3450  205.4200  144.9780 C   0  0  2  0  0  3  0  0  0  0  0  0
  161.1510  206.4760  146.0690 C   0  0  2  0  0  3  0  0  0  0  0  0
  1  3  1  0  0  0  0
  1  2  2  0  0  0  0
  4  3  1  0  0  0  0
  5 12  1  0  0  0  0
  6  7  1  0  0  0  0
  6  8  1  0  0  0  0
  7  4  1  6  0  0  0
  7 14  1  0  0  0  0
  8 16  1  0  0  0  0
  8 15  1  0  0  0  0
 10 13  1  0  0  0  0
 12 10  2  0  0  0  0
 12  6  1  0  0  0  0
 13 23  1  6  0  0  0
 13 16  1  0  0  0  0
 14 15  1  0  0  0  0
 15  9  2  0  0  0  0
 16 11  2  0  0  0  0
 17 18  1  0  0  0  0
 18  5  1  0  0  0  0
 19 22  1  0  0  0  0
 20 22  1  0  0  0  0
 20 17  1  0  0  0  0
 21 18  2  0  0  0  0
 22 21  1  0  0  0  0
 23 25  1  0  0  0  0
 24 23  1  0  0  0  0
 24 25  1  0  0  0  0
 26  1  1  0  0  0  0
 27 26  1  0  0  0  0
 28 32  1  0  0  0  0
 29 30  1  0  0  0  0
 31 33  1  0  0  0  0
 31 29  1  0  0  0  0
 32 30  1  0  0  0  0
 32 27  1  1  0  0  0
 33 44  1  6  0  0  0
 33 38  1  0  0  0  0
 33 28  1  0  0  0  0
 34 40  1  1  0  0  0
 34 35  1  0  0  0  0
 36 38  1  0  0  0  0
 36 34  1  0  0  0  0
 37 35  1  0  0  0  0
 38 37  1  1  0  0  0
 40 39  2  0  0  0  0
 41 40  1  0  0  0  0
 42 41  1  0  0  0  0
 43 41  2  0  0  0  0
 45 47  1  0  0  0  0
 45 48  1  0  0  0  0
 47 46  1  1  0  0  0
 47 48  1  0  0  0  0
 48 44  1  1  0  0  0
M  END
>  <MODEL>
1

>  <REMARK>
 VINA RESULT:      -7.1      0.000      0.000
  Name = 
  12 active torsions:
  status: ('A' for Active; 'I' for Inactive)
    1  A    between atoms: N_1  and  C_23
    2  A    between atoms: C_2  and  C_24
    3  A    between atoms: C_3  and  C_35
    4  A    between atoms: C_3  and  C_46
    5  A    between atoms: C_6  and  C_14
    6  A    between atoms: C_7  and  C_24
    7  A    between atoms: C_14  and  N_47
    8  A    between atoms: C_19  and  C_28
    9  A    between atoms: C_35  and  C_38
   10  A    between atoms: C_37  and  C_48
   11  A    between atoms: C_42  and  O_45
   12  A    between atoms: O_45  and  C_48
                            x       y       z     vdW  Elec       q    Type
                         _______ _______ _______ _____ _____    ______ ____

>  <TORSDO>
F 12

$$$$
=
 OpenBabel11072409543D

 48 54  0  0  1  0  0  0  0  0999 V2000
  161.5910  209.5040  151.8420 C   0  0  0  0  0  0  0  0  0  0  0  0
  162.4080  209.5530  150.8850 O   0  0  0  0  0  0  0  0  0  0  0  0
  160.9920  210.7130  152.3160 N   0  0  0  0  0  2  0  0  0  0  0  0
  160.0290  210.7480  153.4050 C   0  0  0  0  0  2  0  0  0  0  0  0
  159.4710  213.4100  151.4870 N   0  0  0  0  0  2  0  0  0  0  0  0
  158.8800  212.8540  153.8280 N   0  0  0  0  0  0  0  0  0  0  0  0
  160.0880  212.0870  154.1270 C   0  0  1  0  0  3  0  0  0  0  0  0
  158.1330  213.1070  154.9670 N   0  0  0  0  0  0  0  0  0  0  0  0
  158.3740  212.6220  157.2600 O   0  0  0  0  0  0  0  0  0  0  0  0
  157.4600  214.1950  152.4970 N   0  0  0  0  0  0  0  0  0  0  0  0
  156.3610  214.2600  155.9650 O   0  0  0  0  0  0  0  0  0  0  0  0
  158.5570  213.4930  152.5890 C   0  0  0  0  0  0  0  0  0  0  0  0
  156.4370  214.3200  153.5600 C   0  0  2  0  0  3  0  0  0  0  0  0
  160.0580  211.8730  155.6610 C   0  0  0  0  0  2  0  0  0  0  0  0
  158.7980  212.5520  156.0760 C   0  0  0  0  0  0  0  0  0  0  0  0
  156.9610  213.9170  154.9120 C   0  0  0  0  0  0  0  0  0  0  0  0
  160.5500  213.9850  148.9510 S   0  0  0  0  0  0  0  0  0  0  0  0
  159.2180  213.8110  150.1340 C   0  0  0  0  0  0  0  0  0  0  0  0
  156.8740  214.4490  147.5440 O   0  0  0  0  0  1  0  0  0  0  0  0
  159.3230  214.2860  147.6280 C   0  0  0  0  0  2  0  0  0  0  0  0
  158.0100  213.9920  149.6340 C   0  0  0  0  0  3  0  0  0  0  0  0
  158.0150  214.3040  148.2550 N   0  0  0  0  0  0  0  0  0  0  0  0
  155.1330  213.5540  153.2540 C   0  0  0  0  0  3  0  0  0  0  0  0
  154.4690  214.0130  151.9660 C   0  0  0  0  0  2  0  0  0  0  0  0
  153.9070  214.4500  153.3070 C   0  0  0  0  0  2  0  0  0  0  0  0
  161.2300  208.1810  152.4410 C   0  0  0  0  0  2  0  0  0  0  0  0
  160.4640  207.3370  151.4340 C   0  0  0  0  0  2  0  0  0  0  0  0
  160.3860  206.4300  149.1210 C   0  0  0  0  0  2  0  0  0  0  0  0
  163.3880  206.6650  148.9970 C   0  0  0  0  0  2  0  0  0  0  0  0
  162.5990  206.6470  150.3090 C   0  0  0  0  0  2  0  0  0  0  0  0
  162.4960  206.5350  147.7500 C   0  0  0  0  0  2  0  0  0  0  0  0
  161.2140  207.2550  150.1160 C   0  0  2  0  0  3  0  0  0  0  0  0
  161.1930  205.7330  148.0030 C   0  0  1  0  0  0  0  0  0  0  0  0
  160.5710  202.2530  148.1770 C   0  0  1  0  0  3  0  0  0  0  0  0
  160.6460  202.4630  149.6740 C   0  0  0  0  0  2  0  0  0  0  0  0
  161.2060  203.3190  147.5100 O   0  0  0  0  0  0  0  0  0  0  0  0
  160.8250  203.9370  149.7890 C   0  0  0  0  0  2  0  0  0  0  0  0
  161.5110  204.2910  148.4850 C   0  0  2  0  0  3  0  0  0  0  0  0
  161.8000  200.1900  148.6900 C   0  0  0  0  0  2  0  0  0  0  0  0
  161.1670  200.9330  147.7840 C   0  0  0  0  0  0  0  0  0  0  0  0
  160.9100  200.3990  146.4340 C   0  0  0  0  0  0  0  0  0  0  0  0
  161.5740  199.2590  145.9970 O   0  0  0  0  0  1  0  0  0  0  0  0
  160.0960  200.9720  145.6600 O   0  0  0  0  0  0  0  0  0  0  0  0
  160.3570  205.7290  146.8530 O   0  0  0  0  0  0  0  0  0  0  0  0
  160.1380  206.2030  144.5210 C   0  0  0  0  0  2  0  0  0  0  0  0
  160.8670  203.8780  144.9720 C   0  0  0  0  0  1  0  0  0  0  0  0
  161.3400  205.2900  144.6550 C   0  0  2  0  0  3  0  0  0  0  0  0
  161.0170  206.3110  145.7490 C   0  0  2  0  0  3  0  0  0  0  0  0
  1  3  1  0  0  0  0
  1 26  1  0  0  0  0
  2  1  2  0  0  0  0
  3  4  1  0  0  0  0
  5 12  1  0  0  0  0
  6  7  1  0  0  0  0
  6  8  1  0  0  0  0
  7  4  1  6  0  0  0
  7 14  1  0  0  0  0
  8 15  1  0  0  0  0
 10 12  2  0  0  0  0
 10 13  1  0  0  0  0
 12  6  1  0  0  0  0
 13 23  1  6  0  0  0
 13 16  1  0  0  0  0
 14 15  1  0  0  0  0
 15  9  2  0  0  0  0
 16  8  1  0  0  0  0
 16 11  2  0  0  0  0
 17 18  1  0  0  0  0
 18  5  1  0  0  0  0
 19 22  1  0  0  0  0
 20 22  1  0  0  0  0
 20 17  1  0  0  0  0
 21 18  2  0  0  0  0
 22 21  1  0  0  0  0
 23 25  1  0  0  0  0
 24 23  1  0  0  0  0
 24 25  1  0  0  0  0
 27 26  1  0  0  0  0
 28 32  1  0  0  0  0
 29 30  1  0  0  0  0
 31 33  1  0  0  0  0
 31 29  1  0  0  0  0
 32 30  1  0  0  0  0
 32 27  1  1  0  0  0
 33 44  1  6  0  0  0
 33 38  1  0  0  0  0
 33 28  1  0  0  0  0
 34 40  1  1  0  0  0
 34 35  1  0  0  0  0
 35 37  1  0  0  0  0
 36 34  1  0  0  0  0
 36 38  1  0  0  0  0
 38 37  1  1  0  0  0
 40 39  2  0  0  0  0
 41 40  1  0  0  0  0
 42 41  1  0  0  0  0
 43 41  2  0  0  0  0
 45 47  1  0  0  0  0
 45 48  1  0  0  0  0
 47 46  1  1  0  0  0
 47 48  1  0  0  0  0
 48 44  1  1  0  0  0
M  END
>  <MODEL>
2

>  <REMARK>
 VINA RESULT:      -5.6      1.168      1.241
  Name = 
  12 active torsions:
  status: ('A' for Active; 'I' for Inactive)
    1  A    between atoms: N_1  and  C_23
    2  A    between atoms: C_2  and  C_24
    3  A    between atoms: C_3  and  C_35
    4  A    between atoms: C_3  and  C_46
    5  A    between atoms: C_6  and  C_14
    6  A    between atoms: C_7  and  C_24
    7  A    between atoms: C_14  and  N_47
    8  A    between atoms: C_19  and  C_28
    9  A    between atoms: C_35  and  C_38
   10  A    between atoms: C_37  and  C_48
   11  A    between atoms: C_42  and  O_45
   12  A    between atoms: O_45  and  C_48
                            x       y       z     vdW  Elec       q    Type
                         _______ _______ _______ _____ _____    ______ ____

>  <TORSDO>
F 12

$$$$
=
 OpenBabel11072409543D

 48 54  0  0  1  0  0  0  0  0999 V2000
  161.4820  206.5310  154.6150 C   0  0  0  0  0  0  0  0  0  0  0  0
  161.4610  206.0730  155.7870 O   0  0  0  0  0  0  0  0  0  0  0  0
  162.1910  205.8210  153.5970 N   0  0  0  0  0  2  0  0  0  0  0  0
  162.2560  206.2690  152.2140 C   0  0  0  0  0  2  0  0  0  0  0  0
  161.2540  208.5260  149.9850 N   0  0  0  0  0  2  0  0  0  0  0  0
  161.1810  206.0510  150.0390 N   0  0  0  0  0  0  0  0  0  0  0  0
  160.9680  205.9230  151.4800 C   0  0  1  0  0  3  0  0  0  0  0  0
  161.0130  204.8430  149.3820 N   0  0  0  0  0  0  0  0  0  0  0  0
  160.4340  202.6550  150.0380 O   0  0  0  0  0  0  0  0  0  0  0  0
  161.4460  207.2190  148.0020 N   0  0  0  0  0  0  0  0  0  0  0  0
  160.7990  203.6960  147.3550 O   0  0  0  0  0  0  0  0  0  0  0  0
  161.3200  207.2680  149.3000 C   0  0  0  0  0  0  0  0  0  0  0  0
  161.5560  205.9760  147.2030 C   0  0  2  0  0  3  0  0  0  0  0  0
  160.6060  204.4320  151.7010 C   0  0  0  0  0  2  0  0  0  0  0  0
  160.6630  203.8600  150.3270 C   0  0  0  0  0  0  0  0  0  0  0  0
  161.0870  204.7630  147.9600 C   0  0  0  0  0  0  0  0  0  0  0  0
  162.7320  210.9080  150.2530 S   0  0  0  0  0  0  0  0  0  0  0  0
  161.5720  209.8150  149.4390 C   0  0  0  0  0  0  0  0  0  0  0  0
  161.3610  212.0990  146.7300 O   0  0  0  0  0  1  0  0  0  0  0  0
  162.6260  212.0590  148.8350 C   0  0  0  0  0  2  0  0  0  0  0  0
  161.1230  210.2530  148.2790 C   0  0  0  0  0  3  0  0  0  0  0  0
  161.6420  211.5170  147.9170 N   0  0  0  0  0  0  0  0  0  0  0  0
  162.9710  205.7270  146.6410 C   0  0  0  0  0  3  0  0  0  0  0  0
  162.9600  205.3370  145.1710 C   0  0  0  0  0  2  0  0  0  0  0  0
  163.1880  204.2790  146.2360 C   0  0  0  0  0  2  0  0  0  0  0  0
  160.7330  207.7870  154.2960 C   0  0  0  0  0  2  0  0  0  0  0  0
  159.7820  208.1360  155.4300 C   0  0  0  0  0  2  0  0  0  0  0  0
  158.9000  210.4600  155.5030 C   0  0  0  0  0  2  0  0  0  0  0  0
  161.6970  211.4360  156.0520 C   0  0  0  0  0  2  0  0  0  0  0  0
  161.3890  210.0650  155.4440 C   0  0  0  0  0  2  0  0  0  0  0  0
  160.4370  212.2700  156.3380 C   0  0  0  0  0  2  0  0  0  0  0  0
  160.0470  209.5400  155.9450 C   0  0  2  0  0  3  0  0  0  0  0  0
  159.2570  211.9570  155.3810 C   0  0  1  0  0  0  0  0  0  0  0  0
  158.5380  212.8570  152.0340 C   0  0  1  0  0  3  0  0  0  0  0  0
  159.2450  211.5640  151.6900 C   0  0  0  0  0  2  0  0  0  0  0  0
  158.9040  213.2740  153.3300 O   0  0  0  0  0  0  0  0  0  0  0  0
  159.5540  210.9920  153.0300 C   0  0  0  0  0  2  0  0  0  0  0  0
  159.6520  212.2260  153.9030 C   0  0  2  0  0  3  0  0  0  0  0  0
  160.0440  214.4530  150.9350 C   0  0  0  0  0  2  0  0  0  0  0  0
  158.8250  213.9220  151.0180 C   0  0  0  0  0  0  0  0  0  0  0  0
  157.7990  214.2590  150.0160 C   0  0  0  0  0  0  0  0  0  0  0  0
  158.1570  214.4450  148.6850 O   0  0  0  0  0  0  0  0  0  0  0  0
  156.5910  214.3910  150.3520 O   0  0  0  0  0  1  0  0  0  0  0  0
  158.0870  212.6770  155.7510 O   0  0  0  0  0  0  0  0  0  0  0  0
  155.7810  212.3040  155.2480 C   0  0  0  0  0  2  0  0  0  0  0  0
  156.1200  213.9250  157.0910 C   0  0  0  0  0  1  0  0  0  0  0  0
  155.8650  212.4630  156.7520 C   0  0  2  0  0  3  0  0  0  0  0  0
  157.0070  211.7980  155.9790 C   0  0  2  0  0  3  0  0  0  0  0  0
  1  2  2  0  0  0  0
  3  1  1  0  0  0  0
  4  3  1  0  0  0  0
  6  7  1  0  0  0  0
  7 14  1  0  0  0  0
  7  4  1  1  0  0  0
  8  6  1  0  0  0  0
  8 15  1  0  0  0  0
  9 15  2  0  0  0  0
 10 12  2  0  0  0  0
 11 16  2  0  0  0  0
 12  5  1  0  0  0  0
 12  6  1  0  0  0  0
 13 23  1  1  0  0  0
 13 16  1  0  0  0  0
 13 10  1  0  0  0  0
 15 14  1  0  0  0  0
 16  8  1  0  0  0  0
 18  5  1  0  0  0  0
 18 17  1  0  0  0  0
 19 22  1  0  0  0  0
 20 17  1  0  0  0  0
 21 18  2  0  0  0  0
 22 21  1  0  0  0  0
 22 20  1  0  0  0  0
 24 25  1  0  0  0  0
 24 23  1  0  0  0  0
 25 23  1  0  0  0  0
 26  1  1  0  0  0  0
 26 27  1  0  0  0  0
 28 32  1  0  0  0  0
 29 31  1  0  0  0  0
 30 32  1  0  0  0  0
 30 29  1  0  0  0  0
 32 27  1  6  0  0  0
 33 28  1  0  0  0  0
 33 44  1  1  0  0  0
 33 31  1  0  0  0  0
 34 40  1  6  0  0  0
 34 36  1  0  0  0  0
 35 34  1  0  0  0  0
 35 37  1  0  0  0  0
 36 38  1  0  0  0  0
 38 37  1  6  0  0  0
 38 33  1  0  0  0  0
 39 40  2  0  0  0  0
 41 43  1  0  0  0  0
 41 40  1  0  0  0  0
 42 41  2  0  0  0  0
 45 48  1  0  0  0  0
 45 47  1  0  0  0  0
 47 46  1  6  0  0  0
 48 44  1  6  0  0  0
 48 47  1  0  0  0  0
M  END
>  <MODEL>
3

>  <REMARK>
 VINA RESULT:      -4.7      2.755      9.847
  Name = 
  12 active torsions:
  status: ('A' for Active; 'I' for Inactive)
    1  A    between atoms: N_1  and  C_23
    2  A    between atoms: C_2  and  C_24
    3  A    between atoms: C_3  and  C_35
    4  A    between atoms: C_3  and  C_46
    5  A    between atoms: C_6  and  C_14
    6  A    between atoms: C_7  and  C_24
    7  A    between atoms: C_14  and  N_47
    8  A    between atoms: C_19  and  C_28
    9  A    between atoms: C_35  and  C_38
   10  A    between atoms: C_37  and  C_48
   11  A    between atoms: C_42  and  O_45
   12  A    between atoms: O_45  and  C_48
                            x       y       z     vdW  Elec       q    Type
                         _______ _______ _______ _____ _____    ______ ____

>  <TORSDO>
F 12

$$$$
=
 OpenBabel11072409543D

 48 54  0  0  1  0  0  0  0  0999 V2000
  161.0630  207.4530  153.8130 C   0  0  0  0  0  0  0  0  0  0  0  0
  160.9180  206.5890  154.7170 O   0  0  0  0  0  0  0  0  0  0  0  0
  160.5420  208.7700  154.0100 N   0  0  0  0  0  2  0  0  0  0  0  0
  160.6760  209.8330  153.0280 C   0  0  0  0  0  2  0  0  0  0  0  0
  159.8130  212.7150  151.6070 N   0  0  0  0  0  2  0  0  0  0  0  0
  160.2290  212.0420  153.9540 N   0  0  0  0  0  0  0  0  0  0  0  0
  161.2860  211.0740  153.6640 C   0  0  1  0  0  3  0  0  0  0  0  0
  160.1210  212.2990  155.3100 N   0  0  0  0  0  0  0  0  0  0  0  0
  161.2600  211.5720  157.2410 O   0  0  0  0  0  0  0  0  0  0  0  0
  158.6320  213.7010  153.4260 N   0  0  0  0  0  0  0  0  0  0  0  0
  159.2100  213.6120  157.0180 O   0  0  0  0  0  0  0  0  0  0  0  0
  159.5110  212.8350  153.0040 C   0  0  0  0  0  0  0  0  0  0  0  0
  158.2240  213.8820  154.8390 C   0  0  2  0  0  3  0  0  0  0  0  0
  161.9000  210.7260  155.0430 C   0  0  0  0  0  2  0  0  0  0  0  0
  161.0970  211.5480  155.9920 C   0  0  0  0  0  0  0  0  0  0  0  0
  159.2110  213.2800  155.8030 C   0  0  0  0  0  0  0  0  0  0  0  0
  159.8690  213.7990  149.0090 S   0  0  0  0  0  0  0  0  0  0  0  0
  159.0630  213.2750  150.5190 C   0  0  0  0  0  0  0  0  0  0  0  0
  155.9080  213.9660  149.0450 O   0  0  0  0  0  1  0  0  0  0  0  0
  158.2310  214.1250  148.2610 C   0  0  0  0  0  2  0  0  0  0  0  0
  157.7470  213.3630  150.5010 C   0  0  0  0  0  3  0  0  0  0  0  0
  157.2350  213.8730  149.2860 N   0  0  0  0  0  0  0  0  0  0  0  0
  156.8060  213.3560  155.1440 C   0  0  0  0  0  3  0  0  0  0  0  0
  155.7140  214.2300  154.5480 C   0  0  0  0  0  2  0  0  0  0  0  0
  156.0160  214.3010  156.0340 C   0  0  0  0  0  2  0  0  0  0  0  0
  161.8130  207.1030  152.5660 C   0  0  0  0  0  2  0  0  0  0  0  0
  162.4840  205.7470  152.7170 C   0  0  0  0  0  2  0  0  0  0  0  0
  162.2030  204.1180  150.8600 C   0  0  0  0  0  2  0  0  0  0  0  0
  159.2610  203.9920  151.5010 C   0  0  0  0  0  2  0  0  0  0  0  0
  160.1720  205.1370  151.9510 C   0  0  0  0  0  2  0  0  0  0  0  0
  159.9950  202.9220  150.6750 C   0  0  0  0  0  2  0  0  0  0  0  0
  161.5980  204.6410  152.1700 C   0  0  2  0  0  3  0  0  0  0  0  0
  161.2010  203.4770  149.8740 C   0  0  1  0  0  0  0  0  0  0  0  0
  161.6150  205.5030  147.0020 C   0  0  1  0  0  3  0  0  0  0  0  0
  161.3550  206.6500  147.9540 C   0  0  0  0  0  2  0  0  0  0  0  0
  161.1300  204.3010  147.5540 O   0  0  0  0  0  0  0  0  0  0  0  0
  161.2370  205.9640  149.2700 C   0  0  0  0  0  2  0  0  0  0  0  0
  160.7490  204.5830  148.8820 C   0  0  2  0  0  3  0  0  0  0  0  0
  159.9910  206.6160  145.5350 C   0  0  0  0  0  2  0  0  0  0  0  0
  161.0100  205.7670  145.6540 C   0  0  0  0  0  0  0  0  0  0  0  0
  161.6510  205.2030  144.4530 C   0  0  0  0  0  0  0  0  0  0  0  0
  162.5350  204.1360  144.5690 O   0  0  0  0  0  1  0  0  0  0  0  0
  161.4140  205.6830  143.3120 O   0  0  0  0  0  0  0  0  0  0  0  0
  161.9060  202.4340  149.2120 O   0  0  0  0  0  0  0  0  0  0  0  0
  161.8970  200.1720  148.4410 C   0  0  0  0  0  2  0  0  0  0  0  0
  161.0350  201.7730  146.7570 C   0  0  0  0  0  1  0  0  0  0  0  0
  160.6470  200.8160  147.8760 C   0  0  2  0  0  3  0  0  0  0  0  0
  161.1750  201.2280  149.2530 C   0  0  2  0  0  3  0  0  0  0  0  0
  1  3  1  0  0  0  0
  1  2  2  0  0  0  0
  4  3  1  0  0  0  0
  5 12  1  0  0  0  0
  6  8  1  0  0  0  0
  7  4  1  1  0  0  0
  7  6  1  0  0  0  0
  7 14  1  0  0  0  0
  8 16  1  0  0  0  0
  8 15  1  0  0  0  0
 10 13  1  0  0  0  0
 12 10  2  0  0  0  0
 12  6  1  0  0  0  0
 13 23  1  6  0  0  0
 13 16  1  0  0  0  0
 14 15  1  0  0  0  0
 15  9  2  0  0  0  0
 16 11  2  0  0  0  0
 17 18  1  0  0  0  0
 18  5  1  0  0  0  0
 19 22  1  0  0  0  0
 20 17  1  0  0  0  0
 20 22  1  0  0  0  0
 21 18  2  0  0  0  0
 22 21  1  0  0  0  0
 23 25  1  0  0  0  0
 24 23  1  0  0  0  0
 24 25  1  0  0  0  0
 26 27  1  0  0  0  0
 26  1  1  0  0  0  0
 28 32  1  0  0  0  0
 29 30  1  0  0  0  0
 30 32  1  0  0  0  0
 31 29  1  0  0  0  0
 32 27  1  6  0  0  0
 33 44  1  6  0  0  0
 33 31  1  0  0  0  0
 33 28  1  0  0  0  0
 34 40  1  6  0  0  0
 34 36  1  0  0  0  0
 34 35  1  0  0  0  0
 35 37  1  0  0  0  0
 36 38  1  0  0  0  0
 38 37  1  1  0  0  0
 38 33  1  0  0  0  0
 39 40  2  0  0  0  0
 41 42  1  0  0  0  0
 41 40  1  0  0  0  0
 43 41  2  0  0  0  0
 45 48  1  0  0  0  0
 47 46  1  6  0  0  0
 47 45  1  0  0  0  0
 47 48  1  0  0  0  0
 48 44  1  6  0  0  0
M  END
>  <MODEL>
4

>  <REMARK>
 VINA RESULT:      -4.7      1.381      3.290
  Name = 
  12 active torsions:
  status: ('A' for Active; 'I' for Inactive)
    1  A    between atoms: N_1  and  C_23
    2  A    between atoms: C_2  and  C_24
    3  A    between atoms: C_3  and  C_35
    4  A    between atoms: C_3  and  C_46
    5  A    between atoms: C_6  and  C_14
    6  A    between atoms: C_7  and  C_24
    7  A    between atoms: C_14  and  N_47
    8  A    between atoms: C_19  and  C_28
    9  A    between atoms: C_35  and  C_38
   10  A    between atoms: C_37  and  C_48
   11  A    between atoms: C_42  and  O_45
   12  A    between atoms: O_45  and  C_48
                            x       y       z     vdW  Elec       q    Type
                         _______ _______ _______ _____ _____    ______ ____

>  <TORSDO>
F 12

$$$$
=
 OpenBabel11072409543D

 48 54  0  0  1  0  0  0  0  0999 V2000
  161.4410  208.6560  152.8140 C   0  0  0  0  0  0  0  0  0  0  0  0
  161.5750  207.7690  153.6980 O   0  0  0  0  0  0  0  0  0  0  0  0
  160.4590  209.6790  152.9910 N   0  0  0  0  0  2  0  0  0  0  0  0
  160.2450  210.7500  152.0310 C   0  0  0  0  0  2  0  0  0  0  0  0
  160.6270  213.4570  150.1330 N   0  0  0  0  0  2  0  0  0  0  0  0
  159.0840  212.8910  151.9870 N   0  0  0  0  0  0  0  0  0  0  0  0
  160.0290  212.0760  152.7470 C   0  0  1  0  0  3  0  0  0  0  0  0
  157.9320  213.1550  152.7090 N   0  0  0  0  0  0  0  0  0  0  0  0
  157.1630  212.6300  154.8740 O   0  0  0  0  0  0  0  0  0  0  0  0
  158.4010  214.3020  150.2180 N   0  0  0  0  0  0  0  0  0  0  0  0
  155.9360  214.3600  152.8950 O   0  0  0  0  0  0  0  0  0  0  0  0
  159.3340  213.5590  150.7460 C   0  0  0  0  0  0  0  0  0  0  0  0
  157.0260  214.4500  150.7510 C   0  0  2  0  0  3  0  0  0  0  0  0
  159.3460  211.8420  154.1180 C   0  0  0  0  0  2  0  0  0  0  0  0
  158.0480  212.5610  153.9790 C   0  0  0  0  0  0  0  0  0  0  0  0
  156.9160  214.0100  152.1860 C   0  0  0  0  0  0  0  0  0  0  0  0
  162.6890  214.1890  148.3620 S   0  0  0  0  0  0  0  0  0  0  0  0
  160.9830  213.8870  148.8120 C   0  0  0  0  0  0  0  0  0  0  0  0
  160.0210  214.4530  145.4420 O   0  0  0  0  0  1  0  0  0  0  0  0
  162.1730  214.4530  146.6260 C   0  0  0  0  0  2  0  0  0  0  0  0
  160.1220  214.0030  147.8190 C   0  0  0  0  0  3  0  0  0  0  0  0
  160.7250  214.3610  146.5920 N   0  0  0  0  0  0  0  0  0  0  0  0
  155.9540  213.7370  149.9010 C   0  0  0  0  0  3  0  0  0  0  0  0
  156.5540  212.8080  148.8570 C   0  0  0  0  0  2  0  0  0  0  0  0
  155.9970  214.1590  148.4410 C   0  0  0  0  0  2  0  0  0  0  0  0
  162.3360  208.6490  151.6160 C   0  0  0  0  0  2  0  0  0  0  0  0
  162.8290  207.2390  151.3330 C   0  0  0  0  0  2  0  0  0  0  0  0
  162.2140  204.9990  150.4460 C   0  0  0  0  0  2  0  0  0  0  0  0
  159.4670  206.0690  149.8270 C   0  0  0  0  0  2  0  0  0  0  0  0
  160.6870  206.9650  150.0520 C   0  0  0  0  0  2  0  0  0  0  0  0
  159.7880  204.5690  149.9320 C   0  0  0  0  0  2  0  0  0  0  0  0
  161.6670  206.3120  151.0220 C   0  0  2  0  0  3  0  0  0  0  0  0
  161.2450  204.2180  149.5330 C   0  0  1  0  0  0  0  0  0  0  0  0
  161.3560  203.6450  146.0420 C   0  0  1  0  0  3  0  0  0  0  0  0
  162.7930  204.1030  146.1610 C   0  0  0  0  0  2  0  0  0  0  0  0
  160.6150  204.0920  147.1540 O   0  0  0  0  0  0  0  0  0  0  0  0
  162.9500  204.3140  147.6270 C   0  0  0  0  0  2  0  0  0  0  0  0
  161.5380  204.6420  148.0680 C   0  0  2  0  0  3  0  0  0  0  0  0
  159.9290  203.3050  144.0740 C   0  0  0  0  0  2  0  0  0  0  0  0
  160.7410  204.1110  144.7560 C   0  0  0  0  0  0  0  0  0  0  0  0
  160.9160  205.5140  144.3390 C   0  0  0  0  0  0  0  0  0  0  0  0
  160.2800  206.5340  145.0370 O   0  0  0  0  0  1  0  0  0  0  0  0
  161.6340  205.8050  143.3440 O   0  0  0  0  0  0  0  0  0  0  0  0
  161.5210  202.8390  149.7460 O   0  0  0  0  0  0  0  0  0  0  0  0
  160.6100  200.6740  150.1860 C   0  0  0  0  0  2  0  0  0  0  0  0
  161.8370  200.7890  148.0360 C   0  0  0  0  0  1  0  0  0  0  0  0
  160.4680  200.8960  148.6940 C   0  0  2  0  0  3  0  0  0  0  0  0
  160.3400  202.0710  149.6670 C   0  0  2  0  0  3  0  0  0  0  0  0
  1  3  1  0  0  0  0
  1  2  2  0  0  0  0
  4  3  1  0  0  0  0
  5 12  1  0  0  0  0
  6  8  1  0  0  0  0
  6  7  1  0  0  0  0
  7  4  1  6  0  0  0
  7 14  1  0  0  0  0
  8 15  1  0  0  0  0
 10 12  2  0  0  0  0
 10 13  1  0  0  0  0
 12  6  1  0  0  0  0
 13 23  1  6  0  0  0
 13 16  1  0  0  0  0
 15 14  1  0  0  0  0
 15  9  2  0  0  0  0
 16  8  1  0  0  0  0
 16 11  2  0  0  0  0
 17 18  1  0  0  0  0
 18  5  1  0  0  0  0
 19 22  1  0  0  0  0
 20 17  1  0  0  0  0
 21 18  2  0  0  0  0
 22 20  1  0  0  0  0
 22 21  1  0  0  0  0
 24 23  1  0  0  0  0
 25 24  1  0  0  0  0
 25 23  1  0  0  0  0
 26  1  1  0  0  0  0
 27 26  1  0  0  0  0
 28 32  1  0  0  0  0
 29 31  1  0  0  0  0
 29 30  1  0  0  0  0
 30 32  1  0  0  0  0
 32 27  1  6  0  0  0
 33 44  1  1  0  0  0
 33 31  1  0  0  0  0
 33 28  1  0  0  0  0
 34 40  1  6  0  0  0
 34 35  1  0  0  0  0
 34 36  1  0  0  0  0
 35 37  1  0  0  0  0
 36 38  1  0  0  0  0
 38 37  1  6  0  0  0
 38 33  1  0  0  0  0
 39 40  2  0  0  0  0
 41 40  1  0  0  0  0
 41 42  1  0  0  0  0
 43 41  2  0  0  0  0
 47 46  1  6  0  0  0
 47 48  1  0  0  0  0
 47 45  1  0  0  0  0
 48 44  1  6  0  0  0
 48 45  1  0  0  0  0
M  END
>  <MODEL>
5

>  <REMARK>
 VINA RESULT:      -4.6      1.868      3.780
  Name = 
  12 active torsions:
  status: ('A' for Active; 'I' for Inactive)
    1  A    between atoms: N_1  and  C_23
    2  A    between atoms: C_2  and  C_24
    3  A    between atoms: C_3  and  C_35
    4  A    between atoms: C_3  and  C_46
    5  A    between atoms: C_6  and  C_14
    6  A    between atoms: C_7  and  C_24
    7  A    between atoms: C_14  and  N_47
    8  A    between atoms: C_19  and  C_28
    9  A    between atoms: C_35  and  C_38
   10  A    between atoms: C_37  and  C_48
   11  A    between atoms: C_42  and  O_45
   12  A    between atoms: O_45  and  C_48
                            x       y       z     vdW  Elec       q    Type
                         _______ _______ _______ _____ _____    ______ ____

>  <TORSDO>
F 12

$$$$
=
 OpenBabel11072409543D

 48 54  0  0  1  0  0  0  0  0999 V2000
  162.2390  210.1770  150.0940 C   0  0  0  0  0  0  0  0  0  0  0  0
  162.2060  211.2250  149.3980 O   0  0  0  0  0  0  0  0  0  0  0  0
  162.5430  208.9280  149.4670 N   0  0  0  0  0  2  0  0  0  0  0  0
  162.6170  207.6720  150.1950 C   0  0  0  0  0  2  0  0  0  0  0  0
  160.8220  206.1140  147.8660 N   0  0  0  0  0  2  0  0  0  0  0  0
  161.0450  205.8150  150.3150 N   0  0  0  0  0  0  0  0  0  0  0  0
  161.2300  207.2280  150.6390 C   0  0  1  0  0  3  0  0  0  0  0  0
  160.8490  205.0460  151.4500 N   0  0  0  0  0  0  0  0  0  0  0  0
  160.7110  205.4870  153.7600 O   0  0  0  0  0  0  0  0  0  0  0  0
  160.6370  203.9720  148.8930 N   0  0  0  0  0  0  0  0  0  0  0  0
  160.2460  202.9830  152.3730 O   0  0  0  0  0  0  0  0  0  0  0  0
  160.8490  205.2540  149.0130 C   0  0  0  0  0  0  0  0  0  0  0  0
  160.6750  202.9940  150.0040 C   0  0  2  0  0  3  0  0  0  0  0  0
  161.1090  207.3050  152.1820 C   0  0  0  0  0  2  0  0  0  0  0  0
  160.8700  205.8890  152.5770 C   0  0  0  0  0  0  0  0  0  0  0  0
  160.5590  203.6530  151.3530 C   0  0  0  0  0  0  0  0  0  0  0  0
  162.3260  205.8330  145.5030 S   0  0  0  0  0  0  0  0  0  0  0  0
  160.8390  205.7070  146.4910 C   0  0  0  0  0  0  0  0  0  0  0  0
  159.2150  204.0770  143.7870 O   0  0  0  0  0  1  0  0  0  0  0  0
  161.4770  204.9700  144.1320 C   0  0  0  0  0  2  0  0  0  0  0  0
  159.8190  205.1340  145.8800 C   0  0  0  0  0  3  0  0  0  0  0  0
  160.1050  204.7470  144.5510 N   0  0  0  0  0  0  0  0  0  0  0  0
  161.9140  202.0740  149.9760 C   0  0  0  0  0  3  0  0  0  0  0  0
  161.8250  201.0020  148.9020 C   0  0  0  0  0  2  0  0  0  0  0  0
  161.5820  200.6410  150.3570 C   0  0  0  0  0  2  0  0  0  0  0  0
  162.0010  210.2580  151.5690 C   0  0  0  0  0  2  0  0  0  0  0  0
  160.8250  211.1750  151.8640 C   0  0  0  0  0  2  0  0  0  0  0  0
  159.8600  210.3150  153.9880 C   0  0  0  0  0  2  0  0  0  0  0  0
  160.0570  213.0960  155.1290 C   0  0  0  0  0  2  0  0  0  0  0  0
  160.0810  212.8000  153.6280 C   0  0  0  0  0  2  0  0  0  0  0  0
  159.9060  211.8340  155.9950 C   0  0  0  0  0  2  0  0  0  0  0  0
  160.7010  211.4330  153.3560 C   0  0  2  0  0  3  0  0  0  0  0  0
  159.1250  210.6920  155.2930 C   0  0  1  0  0  0  0  0  0  0  0  0
  156.7090  213.1460  154.4780 C   0  0  1  0  0  3  0  0  0  0  0  0
  155.8980  212.5020  155.5810 C   0  0  0  0  0  2  0  0  0  0  0  0
  157.7010  212.2530  154.0270 O   0  0  0  0  0  0  0  0  0  0  0  0
  156.8280  211.4660  156.1110 C   0  0  0  0  0  2  0  0  0  0  0  0
  157.6930  211.1510  154.9070 C   0  0  2  0  0  3  0  0  0  0  0  0
  154.5120  213.6860  153.5240 C   0  0  0  0  0  2  0  0  0  0  0  0
  155.8300  213.5990  153.3490 C   0  0  0  0  0  0  0  0  0  0  0  0
  156.4480  214.0920  152.1060 C   0  0  0  0  0  0  0  0  0  0  0  0
  155.6840  214.2310  150.9540 O   0  0  0  0  0  0  0  0  0  0  0  0
  157.6740  214.3850  152.0700 O   0  0  0  0  0  1  0  0  0  0  0  0
  159.1030  209.5150  156.0910 O   0  0  0  0  0  0  0  0  0  0  0  0
  161.3570  208.7250  156.1520 C   0  0  0  0  0  2  0  0  0  0  0  0
  159.6970  206.9530  156.6440 C   0  0  0  0  0  1  0  0  0  0  0  0
  160.6240  207.9940  157.2570 C   0  0  2  0  0  3  0  0  0  0  0  0
  160.2530  209.4370  156.9050 C   0  0  2  0  0  3  0  0  0  0  0  0
  1 26  1  0  0  0  0
  2  1  2  0  0  0  0
  3  1  1  0  0  0  0
  3  4  1  0  0  0  0
  5 12  1  0  0  0  0
  6  7  1  0  0  0  0
  6  8  1  0  0  0  0
  7  4  1  1  0  0  0
  7 14  1  0  0  0  0
  8 15  1  0  0  0  0
 10 12  2  0  0  0  0
 10 13  1  0  0  0  0
 12  6  1  0  0  0  0
 13 23  1  1  0  0  0
 13 16  1  0  0  0  0
 14 15  1  0  0  0  0
 15  9  2  0  0  0  0
 16  8  1  0  0  0  0
 16 11  2  0  0  0  0
 17 18  1  0  0  0  0
 18  5  1  0  0  0  0
 19 22  1  0  0  0  0
 20 22  1  0  0  0  0
 20 17  1  0  0  0  0
 21 18  2  0  0  0  0
 22 21  1  0  0  0  0
 23 25  1  0  0  0  0
 24 23  1  0  0  0  0
 24 25  1  0  0  0  0
 26 27  1  0  0  0  0
 28 33  1  0  0  0  0
 29 31  1  0  0  0  0
 30 29  1  0  0  0  0
 32 27  1  6  0  0  0
 32 30  1  0  0  0  0
 32 28  1  0  0  0  0
 33 31  1  0  0  0  0
 33 44  1  1  0  0  0
 34 40  1  6  0  0  0
 34 35  1  0  0  0  0
 35 37  1  0  0  0  0
 36 34  1  0  0  0  0
 36 38  1  0  0  0  0
 38 33  1  0  0  0  0
 38 37  1  1  0  0  0
 40 39  2  0  0  0  0
 41 40  1  0  0  0  0
 42 41  2  0  0  0  0
 43 41  1  0  0  0  0
 45 48  1  0  0  0  0
 45 47  1  0  0  0  0
 47 46  1  6  0  0  0
 48 44  1  6  0  0  0
 48 47  1  0  0  0  0
M  END
>  <MODEL>
6

>  <REMARK>
 VINA RESULT:      -4.2      3.478     10.295
  Name = 
  12 active torsions:
  status: ('A' for Active; 'I' for Inactive)
    1  A    between atoms: N_1  and  C_23
    2  A    between atoms: C_2  and  C_24
    3  A    between atoms: C_3  and  C_35
    4  A    between atoms: C_3  and  C_46
    5  A    between atoms: C_6  and  C_14
    6  A    between atoms: C_7  and  C_24
    7  A    between atoms: C_14  and  N_47
    8  A    between atoms: C_19  and  C_28
    9  A    between atoms: C_35  and  C_38
   10  A    between atoms: C_37  and  C_48
   11  A    between atoms: C_42  and  O_45
   12  A    between atoms: O_45  and  C_48
                            x       y       z     vdW  Elec       q    Type
                         _______ _______ _______ _____ _____    ______ ____

>  <TORSDO>
F 12

$$$$
