=
 OpenBabel11072411233D

 42 47  0  0  1  0  0  0  0  0999 V2000
  161.4620  208.8290  156.5750 C   0  0  2  0  0  3  0  0  0  0  0  0
  161.0250  211.7970  155.4640 C   0  0  0  0  0  2  0  0  0  0  0  0
  162.2200  210.9160  155.2490 C   0  0  0  0  0  3  0  0  0  0  0  0
  159.8640  205.5710  153.5200 C   0  0  0  0  0  1  0  0  0  0  0  0
  160.3570  211.6230  153.0310 C   0  0  0  0  0  2  0  0  0  0  0  0
  160.0480  206.7920  156.5260 O   0  0  0  0  0  0  0  0  0  0  0  0
  160.8560  209.2080  152.6070 C   0  0  2  0  0  3  0  0  0  0  0  0
  159.9970  209.2180  156.5720 C   0  0  0  0  0  2  0  0  0  0  0  0
  162.8840  206.6130  154.5380 C   0  0  0  0  0  2  0  0  0  0  0  0
  162.3790  209.6600  155.6970 C   0  0  0  0  0  3  0  0  0  0  0  0
  159.9920  207.9700  152.8310 C   0  0  0  0  0  2  0  0  0  0  0  0
  161.0710  207.5210  155.8960 C   0  0  2  0  0  0  0  0  0  0  0  0
  159.9780  210.3940  152.2200 C   0  0  0  0  0  2  0  0  0  0  0  0
  159.9070  211.4550  154.4790 C   0  0  2  0  0  3  0  0  0  0  0  0
  161.6140  207.0140  154.5710 C   0  0  0  0  0  0  0  0  0  0  0  0
  159.6460  207.9460  155.8250 C   0  0  1  0  0  3  0  0  0  0  0  0
  160.7850  206.7600  153.3300 C   0  0  1  0  0  3  0  0  0  0  0  0
  157.8220  211.8920  157.2610 O   0  0  0  0  0  0  0  0  0  0  0  0
  157.3600  211.6950  154.6360 C   0  0  1  0  0  0  0  0  0  0  0  0
  158.7350  213.6710  154.5330 O   0  0  0  0  0  1  0  0  0  0  0  0
  157.9110  211.9400  156.0440 C   0  0  0  0  0  0  0  0  0  0  0  0
  158.6590  212.2920  154.7510 C   0  0  2  0  0  0  0  0  0  0  0  0
  157.2990  210.3320  154.3280 O   0  0  0  0  0  1  0  0  0  0  0  0
  156.1440  212.5420  154.3050 C   0  0  0  0  0  2  0  0  0  0  0  0
  155.5730  213.0260  155.4830 O   0  0  0  0  0  1  0  0  0  0  0  0
  162.0030  208.9740  151.6120 C   0  0  1  0  0  3  0  0  0  0  0  0
  161.5440  208.2570  150.3450 C   0  0  2  0  0  3  0  0  0  0  0  0
  162.1970  206.8880  150.2910 C   0  0  2  0  0  3  0  0  0  0  0  0
  162.7300  208.0150  149.4320 C   0  0  0  0  0  2  0  0  0  0  0  0
  161.3570  205.9510  149.4400 C   0  0  2  0  0  3  0  0  0  0  0  0
  161.5290  204.1160  150.9110 O   0  0  0  0  0  0  0  0  0  0  0  0
  160.7880  204.8720  150.3050 C   0  0  0  0  0  3  0  0  0  0  0  0
  162.1570  205.3780  148.4450 O   0  0  0  0  0  0  0  0  0  0  0  0
  161.2910  205.1110  147.3820 C   0  0  2  0  0  3  0  0  0  0  0  0
  160.3740  204.9890  144.7190 N   0  0  0  0  0  0  0  0  0  0  0  0
  160.9410  203.7950  145.3240 C   0  0  0  0  0  2  0  0  0  0  0  0
  161.9440  204.1280  146.4230 C   0  0  0  0  0  2  0  0  0  0  0  0
  160.9810  206.4040  146.6360 C   0  0  0  0  0  2  0  0  0  0  0  0
  160.3300  206.1420  145.3010 C   0  0  0  0  0  3  0  0  0  0  0  0
  162.6120  210.1900  151.2870 O   0  0  0  0  0  0  0  0  0  0  0  0
  161.9060  210.6600  150.1770 C   0  0  0  0  0  2  0  0  0  0  0  0
  162.7620  211.4000  149.3630 O   0  0  0  0  0  1  0  0  0  0  0  0
  1 10  1  6  0  0  0
  3  2  1  0  0  0  0
  3 10  2  0  0  0  0
  7 26  1  6  0  0  0
  7 11  1  0  0  0  0
  8  1  1  0  0  0  0
  9 15  2  0  0  0  0
 11 17  1  0  0  0  0
 12 15  1  6  0  0  0
 12  6  1  0  0  0  0
 12  1  1  0  0  0  0
 13  7  1  0  0  0  0
 13  5  1  0  0  0  0
 14  5  1  6  0  0  0
 14 22  1  0  0  0  0
 14  2  1  0  0  0  0
 16 12  1  0  0  0  0
 16  6  1  0  0  0  0
 16  8  1  1  0  0  0
 17  4  1  1  0  0  0
 17 15  1  0  0  0  0
 19 23  1  6  0  0  0
 19 22  1  0  0  0  0
 19 21  1  0  0  0  0
 21 18  2  0  0  0  0
 22 20  1  6  0  0  0
 22 21  1  0  0  0  0
 24 19  1  0  0  0  0
 24 25  1  0  0  0  0
 26 40  1  6  0  0  0
 27 26  1  1  0  0  0
 28 30  1  6  0  0  0
 28 27  1  0  0  0  0
 29 28  1  0  0  0  0
 29 27  1  0  0  0  0
 30 32  1  1  0  0  0
 32 31  2  0  0  0  0
 33 30  1  0  0  0  0
 34 33  1  1  0  0  0
 35 39  2  0  0  0  0
 35 36  1  0  0  0  0
 36 37  1  0  0  0  0
 37 34  1  0  0  0  0
 38 34  1  0  0  0  0
 39 38  1  0  0  0  0
 41 40  1  0  0  0  0
 42 41  1  0  0  0  0
M  END
>  <MODEL>
1

>  <REMARK>
 VINA RESULT:      -1.9      0.000      0.000
  Name = 
  10 active torsions:
  status: ('A' for Active; 'I' for Inactive)
    1  A    between atoms: C_3  and  C_23
    2  A    between atoms: C_4  and  C_30
    3  A    between atoms: C_6  and  O_9
    4  A    between atoms: C_6  and  C_18
    5  A    between atoms: C_6  and  C_31
    6  A    between atoms: O_9  and  C_13
    7  A    between atoms: C_10  and  O_21
    8  A    between atoms: C_16  and  C_30
    9  A    between atoms: O_21  and  C_30
   10  A    between atoms: C_35  and  C_36
                            x       y       z     vdW  Elec       q    Type
                         _______ _______ _______ _____ _____    ______ ____

>  <TORSDO>
F 10

$$$$
=
 OpenBabel11072411233D

 42 47  0  0  1  0  0  0  0  0999 V2000
  161.7510  207.9920  155.6370 C   0  0  2  0  0  3  0  0  0  0  0  0
  161.1620  211.0760  155.0230 C   0  0  0  0  0  2  0  0  0  0  0  0
  162.3920  210.2990  154.6580 C   0  0  0  0  0  3  0  0  0  0  0  0
  160.2510  205.1950  152.1120 C   0  0  0  0  0  1  0  0  0  0  0  0
  160.4620  211.2640  152.6000 C   0  0  0  0  0  2  0  0  0  0  0  0
  160.4290  205.9250  155.2730 O   0  0  0  0  0  0  0  0  0  0  0  0
  161.0640  208.9740  151.7870 C   0  0  2  0  0  3  0  0  0  0  0  0
  160.2700  208.3070  155.7100 C   0  0  0  0  0  2  0  0  0  0  0  0
  163.2370  206.2010  153.2570 C   0  0  0  0  0  2  0  0  0  0  0  0
  162.6150  208.9960  154.8960 C   0  0  0  0  0  3  0  0  0  0  0  0
  160.2590  207.6770  151.8170 C   0  0  0  0  0  2  0  0  0  0  0  0
  161.4080  206.7930  154.7600 C   0  0  2  0  0  0  0  0  0  0  0  0
  160.1260  210.1640  151.6050 C   0  0  0  0  0  2  0  0  0  0  0  0
  160.0450  210.8440  154.0060 C   0  0  2  0  0  3  0  0  0  0  0  0
  161.9520  206.5310  153.3650 C   0  0  0  0  0  0  0  0  0  0  0  0
  159.9640  207.1560  154.7710 C   0  0  1  0  0  3  0  0  0  0  0  0
  161.1140  206.4420  152.1080 C   0  0  1  0  0  3  0  0  0  0  0  0
  159.3690  213.9320  155.5160 O   0  0  0  0  0  0  0  0  0  0  0  0
  158.3110  211.4920  155.7780 C   0  0  1  0  0  0  0  0  0  0  0  0
  157.7870  211.7780  153.4440 O   0  0  0  0  0  1  0  0  0  0  0  0
  158.9750  212.7940  155.3190 C   0  0  0  0  0  0  0  0  0  0  0  0
  158.7650  211.5670  154.4200 C   0  0  2  0  0  0  0  0  0  0  0  0
  159.1070  210.7920  156.6900 O   0  0  0  0  0  1  0  0  0  0  0  0
  156.8380  211.6500  156.1130 C   0  0  0  0  0  2  0  0  0  0  0  0
  156.6440  212.8190  156.8490 O   0  0  0  0  0  1  0  0  0  0  0  0
  162.2030  208.9570  150.7580 C   0  0  1  0  0  3  0  0  0  0  0  0
  161.8000  208.2870  149.4470 C   0  0  2  0  0  3  0  0  0  0  0  0
  162.5410  206.9690  149.3210 C   0  0  2  0  0  3  0  0  0  0  0  0
  163.0050  208.1750  148.5340 C   0  0  0  0  0  2  0  0  0  0  0  0
  161.7700  206.0300  148.4100 C   0  0  2  0  0  3  0  0  0  0  0  0
  160.7500  206.6040  146.3620 O   0  0  0  0  0  0  0  0  0  0  0  0
  160.8310  206.8240  147.5590 C   0  0  0  0  0  3  0  0  0  0  0  0
  161.0410  205.1200  149.1840 O   0  0  0  0  0  0  0  0  0  0  0  0
  161.3650  203.8590  148.6760 C   0  0  2  0  0  3  0  0  0  0  0  0
  160.9550  201.2870  147.5980 N   0  0  0  0  0  0  0  0  0  0  0  0
  161.2920  202.3810  146.7020 C   0  0  0  0  0  2  0  0  0  0  0  0
  160.8480  203.7320  147.2520 C   0  0  0  0  0  2  0  0  0  0  0  0
  160.7200  202.7790  149.5390 C   0  0  0  0  0  2  0  0  0  0  0  0
  160.7520  201.4300  148.8660 C   0  0  0  0  0  3  0  0  0  0  0  0
  162.6520  210.2590  150.5180 O   0  0  0  0  0  0  0  0  0  0  0  0
  162.0770  210.6180  149.2960 C   0  0  0  0  0  2  0  0  0  0  0  0
  162.1820  211.9970  149.1220 O   0  0  0  0  0  1  0  0  0  0  0  0
  1 10  1  6  0  0  0
  1  8  1  0  0  0  0
  3 10  2  0  0  0  0
  3  2  1  0  0  0  0
  7 26  1  6  0  0  0
  7 11  1  0  0  0  0
  9 15  2  0  0  0  0
 11 17  1  0  0  0  0
 12 15  1  6  0  0  0
 12 16  1  0  0  0  0
 12  6  1  0  0  0  0
 12  1  1  0  0  0  0
 13  7  1  0  0  0  0
 13  5  1  0  0  0  0
 14  5  1  6  0  0  0
 14 22  1  0  0  0  0
 14  2  1  0  0  0  0
 16  6  1  0  0  0  0
 16  8  1  1  0  0  0
 17  4  1  1  0  0  0
 17 15  1  0  0  0  0
 19 24  1  0  0  0  0
 19 23  1  1  0  0  0
 21 18  2  0  0  0  0
 21 19  1  0  0  0  0
 22 20  1  6  0  0  0
 22 21  1  0  0  0  0
 22 19  1  0  0  0  0
 24 25  1  0  0  0  0
 26 40  1  6  0  0  0
 27 26  1  1  0  0  0
 28 30  1  6  0  0  0
 28 27  1  0  0  0  0
 29 28  1  0  0  0  0
 29 27  1  0  0  0  0
 30 32  1  1  0  0  0
 30 33  1  0  0  0  0
 31 32  2  0  0  0  0
 34 33  1  1  0  0  0
 34 38  1  0  0  0  0
 35 39  2  0  0  0  0
 36 37  1  0  0  0  0
 36 35  1  0  0  0  0
 37 34  1  0  0  0  0
 39 38  1  0  0  0  0
 41 40  1  0  0  0  0
 42 41  1  0  0  0  0
M  END
>  <MODEL>
2

>  <REMARK>
 VINA RESULT:       0.7      1.543      2.163
  Name = 
  10 active torsions:
  status: ('A' for Active; 'I' for Inactive)
    1  A    between atoms: C_3  and  C_23
    2  A    between atoms: C_4  and  C_30
    3  A    between atoms: C_6  and  O_9
    4  A    between atoms: C_6  and  C_18
    5  A    between atoms: C_6  and  C_31
    6  A    between atoms: O_9  and  C_13
    7  A    between atoms: C_10  and  O_21
    8  A    between atoms: C_16  and  C_30
    9  A    between atoms: O_21  and  C_30
   10  A    between atoms: C_35  and  C_36
                            x       y       z     vdW  Elec       q    Type
                         _______ _______ _______ _____ _____    ______ ____

>  <TORSDO>
F 10

$$$$
