=
 OpenBabel11072412033D

 45 48  0  0  1  0  0  0  0  0999 V2000
  160.6210  209.9090  153.1210 C   0  0  0  0  0  3  0  0  0  0  0  0
  161.2660  207.0400  150.7480 C   0  0  0  0  0  0  0  0  0  0  0  0
  160.9340  207.8960  154.4360 C   0  0  0  0  0  0  0  0  0  0  0  0
  161.3240  205.7420  153.2330 C   0  0  0  0  0  3  0  0  0  0  0  0
  161.5040  205.0140  152.0590 C   0  0  0  0  0  3  0  0  0  0  0  0
  161.3250  208.1680  148.3940 C   0  0  0  0  0  3  0  0  0  0  0  0
  160.6480  209.3570  154.3460 C   0  0  0  0  0  0  0  0  0  0  0  0
  161.4780  205.6610  150.8230 C   0  0  0  0  0  2  0  0  0  0  0  0
  161.1090  207.1250  153.1850 C   0  0  2  0  0  3  0  0  0  0  0  0
  161.0710  207.7890  151.9350 C   0  0  0  0  0  0  0  0  0  0  0  0
  160.8460  209.1150  151.8970 C   0  0  0  0  0  3  0  0  0  0  0  0
  161.2840  207.6000  149.5650 C   0  0  0  0  0  0  0  0  0  0  0  0
  161.0540  207.3160  155.5490 O   0  0  0  0  0  0  0  0  0  0  0  0
  161.3440  211.5650  157.1710 O   0  0  0  0  0  0  0  0  0  0  0  0
  160.4110  210.1900  155.5060 N   0  0  0  0  0  0  0  0  0  0  0  0
  161.5030  210.9080  156.1070 C   0  0  0  0  0  3  0  0  0  0  0  0
  158.7970  210.3920  156.2240 S   0  0  0  0  0  0  0  0  0  0  0  0
  158.5200  211.9640  155.3620 C   0  0  0  0  0  2  0  0  0  0  0  0
  157.0320  212.2790  155.3490 C   0  0  2  0  0  3  0  0  0  0  0  0
  156.2500  210.9990  155.1380 C   0  0  0  0  0  1  0  0  0  0  0  0
  156.7240  213.2150  154.2760 N   0  0  0  0  0  2  0  0  0  0  0  0
  157.5400  212.8930  153.1790 N   0  0  0  0  0  2  0  0  0  0  0  0
  157.6780  214.0900  152.3610 C   0  0  1  0  0  3  0  0  0  0  0  0
  159.9590  213.3440  152.1880 O   0  0  0  0  0  1  0  0  0  0  0  0
  158.9430  214.0290  151.5170 C   0  0  0  0  0  2  0  0  0  0  0  0
  156.1890  214.4030  151.3310 S   0  0  0  0  0  0  0  0  0  0  0  0
  157.0370  214.3670  149.7180 C   0  0  0  0  0  2  0  0  0  0  0  0
  156.5820  213.2140  148.9640 N   0  0  0  0  0  1  0  0  0  0  0  0
  161.8640  207.4110  147.2290 C   0  0  0  0  0  2  0  0  0  0  0  0
  163.3090  205.4230  147.4790 C   0  0  0  0  0  2  0  0  0  0  0  0
  163.4940  204.6230  146.1970 C   0  0  0  0  0  2  0  0  0  0  0  0
  161.8690  205.9140  147.5150 C   0  0  2  0  0  3  0  0  0  0  0  0
  161.0650  203.5920  146.4300 C   0  0  1  0  0  0  0  0  0  0  0  0
  162.1160  204.3520  145.6080 C   0  0  1  0  0  0  0  0  0  0  0  0
  160.1100  205.7780  145.7050 O   0  0  0  0  0  1  0  0  0  0  0  0
  161.1040  205.1230  146.4470 C   0  0  2  0  0  0  0  0  0  0  0  0
  159.6850  202.8310  145.5060 S   0  0  0  0  0  1  0  0  0  0  0  0
  161.9410  204.5080  144.0980 C   0  0  0  0  0  2  0  0  0  0  0  0
  161.7530  205.8550  143.7760 O   0  0  0  0  0  1  0  0  0  0  0  0
  161.5430  202.8620  147.6820 C   0  0  0  0  0  2  0  0  0  0  0  0
  160.5710  202.9480  148.6830 O   0  0  0  0  0  0  0  0  0  0  0  0
  161.4590  201.7130  150.9960 O   0  0  0  0  0  1  0  0  0  0  0  0
  160.6640  201.4810  149.5240 P   0  0  0  0  0  0  0  0  0  0  0  0
  161.4960  200.3270  148.6070 O   0  0  0  0  0  0  0  0  0  0  0  0
  159.2620  200.9830  149.7960 O   0  0  0  0  0  1  0  0  0  0  0  0
  1  7  2  0  0  0  0
  2  8  1  0  0  0  0
  2 10  1  0  0  0  0
  3 13  2  0  0  0  0
  5  4  2  0  0  0  0
  6 12  2  0  0  0  0
  7  3  1  0  0  0  0
  7 15  1  0  0  0  0
  8  5  1  0  0  0  0
  9  4  1  1  0  0  0
  9  3  1  0  0  0  0
 10  9  1  0  0  0  0
 11 10  2  0  0  0  0
 11  1  1  0  0  0  0
 12  2  2  0  0  0  0
 15 16  1  0  0  0  0
 15 17  1  0  0  0  0
 16 14  2  0  0  0  0
 18 17  1  0  0  0  0
 19 20  1  6  0  0  0
 19 18  1  0  0  0  0
 21 19  1  0  0  0  0
 22 21  1  0  0  0  0
 23 25  1  6  0  0  0
 23 22  1  0  0  0  0
 25 24  1  0  0  0  0
 26 23  1  0  0  0  0
 27 26  1  0  0  0  0
 28 27  1  0  0  0  0
 29  6  1  0  0  0  0
 30 32  1  0  0  0  0
 31 30  1  0  0  0  0
 32 29  1  6  0  0  0
 33 37  1  6  0  0  0
 33 36  1  0  0  0  0
 33 40  1  0  0  0  0
 34 38  1  6  0  0  0
 34 31  1  0  0  0  0
 34 33  1  0  0  0  0
 34 36  1  0  0  0  0
 36 35  1  6  0  0  0
 36 32  1  0  0  0  0
 39 38  1  0  0  0  0
 40 41  1  0  0  0  0
 41 43  1  0  0  0  0
 43 45  1  0  0  0  0
 43 42  1  0  0  0  0
 44 43  2  0  0  0  0
M  END
>  <MODEL>
1

>  <REMARK>
 VINA RESULT:      -5.6      0.000      0.000
  Name = 
  16 active torsions:
  status: ('A' for Active; 'I' for Inactive)
    1  A    between atoms: S_5  and  C_9
    2  A    between atoms: S_5  and  C_35
    3  A    between atoms: C_6  and  C_14
    4  A    between atoms: C_6  and  S_28
    5  A    between atoms: C_8  and  C_27
    6  A    between atoms: P_11  and  O_16
    7  A    between atoms: C_14  and  N_40
    8  A    between atoms: O_16  and  C_20
    9  A    between atoms: N_19  and  C_26
   10  A    between atoms: N_19  and  S_28
   11  A    between atoms: C_20  and  C_25
   12  A    between atoms: C_21  and  C_37
   13  A    between atoms: C_22  and  C_37
   14  A    between atoms: C_23  and  C_35
   15  A    between atoms: N_24  and  C_35
   16  A    between atoms: N_24  and  N_40
                            x       y       z     vdW  Elec       q    Type
                         _______ _______ _______ _____ _____    ______ ____

>  <TORSDO>
F 16

$$$$
=
 OpenBabel11072412033D

 45 48  0  0  1  0  0  0  0  0999 V2000
  161.1510  213.1220  145.7890 C   0  0  0  0  0  3  0  0  0  0  0  0
  158.4720  213.7930  148.3670 C   0  0  0  0  0  0  0  0  0  0  0  0
  159.1210  213.7480  144.6220 C   0  0  0  0  0  0  0  0  0  0  0  0
  157.0720  214.2140  145.9730 C   0  0  0  0  0  3  0  0  0  0  0  0
  156.4200  214.3450  147.1980 C   0  0  0  0  0  3  0  0  0  0  0  0
  159.7070  213.5160  150.6500 C   0  0  0  0  0  3  0  0  0  0  0  0
  160.5490  213.3200  144.6040 C   0  0  0  0  0  0  0  0  0  0  0  0
  157.1180  214.1380  148.3880 C   0  0  0  0  0  3  0  0  0  0  0  0
  158.4280  213.8690  145.9250 C   0  0  0  0  0  0  0  0  0  0  0  0
  159.1420  213.6470  147.1270 C   0  0  0  0  0  0  0  0  0  0  0  0
  160.4400  213.2980  147.0700 C   0  0  0  0  0  3  0  0  0  0  0  0
  159.0850  213.6430  149.5140 C   0  0  0  0  0  0  0  0  0  0  0  0
  158.5040  214.0300  143.5590 O   0  0  0  0  0  0  0  0  0  0  0  0
  163.0790  213.8440  142.0220 O   0  0  0  0  0  0  0  0  0  0  0  0
  161.3010  213.1220  143.3830 N   0  0  0  0  0  0  0  0  0  0  0  0
  162.4610  213.9300  143.1180 C   0  0  0  0  0  3  0  0  0  0  0  0
  160.8640  211.8860  142.1820 S   0  0  0  0  0  0  0  0  0  0  0  0
  160.1150  213.1100  141.0730 C   0  0  0  0  0  2  0  0  0  0  0  0
  160.3310  212.6860  139.6290 C   0  0  2  0  0  3  0  0  0  0  0  0
  161.3800  213.5780  138.9970 C   0  0  0  0  0  1  0  0  0  0  0  0
  159.0870  212.7970  138.8780 N   0  0  0  0  0  2  0  0  0  0  0  0
  158.1390  211.9650  139.4950 N   0  0  0  0  0  2  0  0  0  0  0  0
  157.3290  211.3610  138.4470 C   0  0  1  0  0  3  0  0  0  0  0  0
  158.8430  209.5040  138.6580 O   0  0  0  0  0  1  0  0  0  0  0  0
  158.0900  210.2450  137.7450 C   0  0  0  0  0  2  0  0  0  0  0  0
  155.7010  210.7830  139.0740 S   0  0  0  0  0  0  0  0  0  0  0  0
  154.8120  212.3570  138.8350 C   0  0  0  0  0  2  0  0  0  0  0  0
  154.8410  213.1150  140.0710 N   0  0  0  0  0  1  0  0  0  0  0  0
  159.0610  214.0060  151.9000 C   0  0  0  0  0  2  0  0  0  0  0  0
  159.6460  211.7580  152.7420 C   0  0  0  0  0  2  0  0  0  0  0  0
  158.5070  211.0450  153.4570 C   0  0  0  0  0  2  0  0  0  0  0  0
  159.5740  213.2330  153.1100 C   0  0  2  0  0  3  0  0  0  0  0  0
  158.8400  212.5600  155.6050 C   0  0  1  0  0  0  0  0  0  0  0  0
  157.9350  211.9980  154.4990 C   0  0  1  0  0  0  0  0  0  0  0  0
  157.7670  214.4530  154.3880 O   0  0  0  0  0  1  0  0  0  0  0  0
  158.6220  213.3450  154.3080 C   0  0  2  0  0  0  0  0  0  0  0  0
  158.0120  213.2190  157.0950 S   0  0  0  0  0  1  0  0  0  0  0  0
  156.4160  212.0740  154.6400 C   0  0  0  0  0  2  0  0  0  0  0  0
  155.8770  210.7860  154.7190 O   0  0  0  0  0  1  0  0  0  0  0  0
  160.1990  211.8970  155.8070 C   0  0  0  0  0  2  0  0  0  0  0  0
  160.0380  210.6740  156.4670 O   0  0  0  0  0  0  0  0  0  0  0  0
  162.0700  208.9690  157.2610 O   0  0  0  0  0  1  0  0  0  0  0  0
  161.3250  209.7070  155.9370 P   0  0  0  0  0  0  0  0  0  0  0  0
  162.4600  210.6430  155.0990 O   0  0  0  0  0  1  0  0  0  0  0  0
  160.7860  208.6360  155.0150 O   0  0  0  0  0  0  0  0  0  0  0  0
  1 11  1  0  0  0  0
  2  8  1  0  0  0  0
  2 12  2  0  0  0  0
  3  9  1  0  0  0  0
  4  5  1  0  0  0  0
  5  8  2  0  0  0  0
  6 29  1  0  0  0  0
  7  3  1  0  0  0  0
  7  1  2  0  0  0  0
  9  4  2  0  0  0  0
  9 10  1  0  0  0  0
 10  2  1  0  0  0  0
 11 10  2  0  0  0  0
 12  6  2  0  0  0  0
 13  3  2  0  0  0  0
 14 16  2  0  0  0  0
 15  7  1  0  0  0  0
 16 15  1  0  0  0  0
 17 15  1  0  0  0  0
 18 17  1  0  0  0  0
 19 20  1  6  0  0  0
 19 18  1  0  0  0  0
 21 22  1  0  0  0  0
 21 19  1  0  0  0  0
 23 25  1  1  0  0  0
 23 26  1  0  0  0  0
 23 22  1  0  0  0  0
 25 24  1  0  0  0  0
 27 26  1  0  0  0  0
 27 28  1  0  0  0  0
 30 32  1  0  0  0  0
 30 31  1  0  0  0  0
 31 34  1  0  0  0  0
 32 29  1  6  0  0  0
 32 36  1  0  0  0  0
 33 40  1  0  0  0  0
 33 37  1  1  0  0  0
 34 38  1  1  0  0  0
 34 33  1  0  0  0  0
 36 35  1  1  0  0  0
 36 34  1  0  0  0  0
 36 33  1  0  0  0  0
 38 39  1  0  0  0  0
 40 41  1  0  0  0  0
 43 41  1  0  0  0  0
 43 42  1  0  0  0  0
 44 43  1  0  0  0  0
 45 43  2  0  0  0  0
M  END
>  <MODEL>
2

>  <REMARK>
 VINA RESULT:      -4.2      6.888     12.001
  Name = 
  16 active torsions:
  status: ('A' for Active; 'I' for Inactive)
    1  A    between atoms: S_5  and  C_9
    2  A    between atoms: S_5  and  C_35
    3  A    between atoms: C_6  and  C_14
    4  A    between atoms: C_6  and  S_28
    5  A    between atoms: C_8  and  C_27
    6  A    between atoms: P_11  and  O_16
    7  A    between atoms: C_14  and  N_40
    8  A    between atoms: O_16  and  C_20
    9  A    between atoms: N_19  and  C_26
   10  A    between atoms: N_19  and  S_28
   11  A    between atoms: C_20  and  C_25
   12  A    between atoms: C_21  and  C_37
   13  A    between atoms: C_22  and  C_37
   14  A    between atoms: C_23  and  C_35
   15  A    between atoms: N_24  and  C_35
   16  A    between atoms: N_24  and  N_40
                            x       y       z     vdW  Elec       q    Type
                         _______ _______ _______ _____ _____    ______ ____

>  <TORSDO>
F 16

$$$$
=
 OpenBabel11072412033D

 45 48  0  0  1  0  0  0  0  0999 V2000
  160.0610  208.9710  154.7470 C   0  0  0  0  0  3  0  0  0  0  0  0
  161.7050  206.6410  152.2690 C   0  0  0  0  0  0  0  0  0  0  0  0
  160.9680  210.3090  152.9410 C   0  0  0  0  0  0  0  0  0  0  0  0
  162.2060  209.1460  151.1100 C   0  0  0  0  0  3  0  0  0  0  0  0
  162.6780  207.9850  150.5000 C   0  0  0  0  0  3  0  0  0  0  0  0
  161.2090  204.2590  153.2150 C   0  0  0  0  0  3  0  0  0  0  0  0
  160.2520  210.2020  154.2450 C   0  0  0  0  0  0  0  0  0  0  0  0
  162.4250  206.7390  151.0750 C   0  0  0  0  0  2  0  0  0  0  0  0
  161.4810  209.0740  152.3050 C   0  0  2  0  0  3  0  0  0  0  0  0
  161.2290  207.8160  152.9030 C   0  0  0  0  0  0  0  0  0  0  0  0
  160.5480  207.7590  154.0620 C   0  0  0  0  0  3  0  0  0  0  0  0
  161.4690  205.4460  152.7470 C   0  0  0  0  0  0  0  0  0  0  0  0
  161.1210  211.4190  152.3620 O   0  0  0  0  0  0  0  0  0  0  0  0
  160.1150  212.8810  156.7240 O   0  0  0  0  0  0  0  0  0  0  0  0
  159.7570  211.3520  154.9720 N   0  0  0  0  0  0  0  0  0  0  0  0
  160.5590  211.9400  156.0120 C   0  0  0  0  0  3  0  0  0  0  0  0
  158.1850  212.1030  154.6180 S   0  0  0  0  0  0  0  0  0  0  0  0
  158.9560  213.5110  153.7730 C   0  0  0  0  0  2  0  0  0  0  0  0
  158.2740  213.7330  152.4320 C   0  0  2  0  0  3  0  0  0  0  0  0
  157.9190  212.3910  151.8230 C   0  0  0  0  0  1  0  0  0  0  0  0
  159.1610  214.4530  151.5280 N   0  0  0  0  0  2  0  0  0  0  0  0
  159.6480  213.5350  150.5840 N   0  0  0  0  0  2  0  0  0  0  0  0
  159.5450  214.1510  149.2690 C   0  0  1  0  0  3  0  0  0  0  0  0
  161.8410  213.8250  148.6340 O   0  0  0  0  0  1  0  0  0  0  0  0
  160.5230  213.5170  148.2920 C   0  0  0  0  0  2  0  0  0  0  0  0
  157.8250  214.1240  148.6220 S   0  0  0  0  0  0  0  0  0  0  0  0
  158.2560  213.7430  146.8920 C   0  0  0  0  0  2  0  0  0  0  0  0
  157.3440  214.4430  146.0070 N   0  0  0  0  0  1  0  0  0  0  0  0
  161.4280  203.0640  152.3520 C   0  0  0  0  0  2  0  0  0  0  0  0
  160.2170  204.3530  150.6260 C   0  0  0  0  0  2  0  0  0  0  0  0
  159.1890  203.5410  149.8510 C   0  0  0  0  0  2  0  0  0  0  0  0
  161.4200  203.4560  150.8790 C   0  0  2  0  0  3  0  0  0  0  0  0
  161.1010  202.3650  148.4440 C   0  0  1  0  0  0  0  0  0  0  0  0
  159.8670  202.2710  149.3540 C   0  0  1  0  0  0  0  0  0  0  0  0
  161.6620  200.9780  150.4390 O   0  0  0  0  0  1  0  0  0  0  0  0
  161.2650  202.2360  149.9620 C   0  0  2  0  0  0  0  0  0  0  0  0
  161.5170  200.8830  147.4590 S   0  0  0  0  0  1  0  0  0  0  0  0
  159.0940  200.9580  149.4620 C   0  0  0  0  0  2  0  0  0  0  0  0
  157.8000  201.1220  148.9610 O   0  0  0  0  0  1  0  0  0  0  0  0
  161.4110  203.7210  147.8160 C   0  0  0  0  0  2  0  0  0  0  0  0
  161.2350  203.6530  146.4300 O   0  0  0  0  0  0  0  0  0  0  0  0
  163.0040  205.2890  145.0670 O   0  0  0  0  0  1  0  0  0  0  0  0
  161.5180  205.2260  145.8660 P   0  0  0  0  0  0  0  0  0  0  0  0
  161.5220  206.3230  147.1560 O   0  0  0  0  0  1  0  0  0  0  0  0
  160.4200  205.6040  144.8970 O   0  0  0  0  0  0  0  0  0  0  0  0
  2 12  2  0  0  0  0
  2 10  1  0  0  0  0
  3  7  1  0  0  0  0
  5  8  1  0  0  0  0
  5  4  2  0  0  0  0
  7  1  2  0  0  0  0
  7 15  1  0  0  0  0
  8  2  1  0  0  0  0
  9  4  1  6  0  0  0
  9 10  1  0  0  0  0
  9  3  1  0  0  0  0
 10 11  2  0  0  0  0
 11  1  1  0  0  0  0
 12  6  2  0  0  0  0
 13  3  2  0  0  0  0
 15 16  1  0  0  0  0
 16 14  2  0  0  0  0
 17 15  1  0  0  0  0
 18 17  1  0  0  0  0
 19 20  1  6  0  0  0
 19 18  1  0  0  0  0
 21 19  1  0  0  0  0
 22 21  1  0  0  0  0
 23 25  1  6  0  0  0
 23 22  1  0  0  0  0
 25 24  1  0  0  0  0
 26 23  1  0  0  0  0
 27 26  1  0  0  0  0
 28 27  1  0  0  0  0
 29  6  1  0  0  0  0
 30 32  1  0  0  0  0
 31 30  1  0  0  0  0
 32 29  1  1  0  0  0
 33 37  1  6  0  0  0
 33 34  1  0  0  0  0
 33 36  1  0  0  0  0
 34 38  1  6  0  0  0
 34 31  1  0  0  0  0
 34 36  1  0  0  0  0
 36 35  1  1  0  0  0
 36 32  1  0  0  0  0
 39 38  1  0  0  0  0
 40 33  1  0  0  0  0
 41 40  1  0  0  0  0
 42 43  1  0  0  0  0
 43 41  1  0  0  0  0
 43 44  1  0  0  0  0
 45 43  2  0  0  0  0
M  END
>  <MODEL>
3

>  <REMARK>
 VINA RESULT:      -3.5      2.384      4.205
  Name = 
  16 active torsions:
  status: ('A' for Active; 'I' for Inactive)
    1  A    between atoms: S_5  and  C_9
    2  A    between atoms: S_5  and  C_35
    3  A    between atoms: C_6  and  C_14
    4  A    between atoms: C_6  and  S_28
    5  A    between atoms: C_8  and  C_27
    6  A    between atoms: P_11  and  O_16
    7  A    between atoms: C_14  and  N_40
    8  A    between atoms: O_16  and  C_20
    9  A    between atoms: N_19  and  C_26
   10  A    between atoms: N_19  and  S_28
   11  A    between atoms: C_20  and  C_25
   12  A    between atoms: C_21  and  C_37
   13  A    between atoms: C_22  and  C_37
   14  A    between atoms: C_23  and  C_35
   15  A    between atoms: N_24  and  C_35
   16  A    between atoms: N_24  and  N_40
                            x       y       z     vdW  Elec       q    Type
                         _______ _______ _______ _____ _____    ______ ____

>  <TORSDO>
F 16

$$$$
=
 OpenBabel11072412033D

 45 48  0  0  1  0  0  0  0  0999 V2000
  160.5490  209.6450  152.8420 C   0  0  0  0  0  3  0  0  0  0  0  0
  161.6940  209.8880  149.2510 C   0  0  0  0  0  0  0  0  0  0  0  0
  160.4530  211.9740  152.1750 C   0  0  0  0  0  0  0  0  0  0  0  0
  161.1980  212.5780  149.8690 C   0  0  0  0  0  3  0  0  0  0  0  0
  161.6700  212.2250  148.6060 C   0  0  0  0  0  3  0  0  0  0  0  0
  162.0950  207.4060  148.5460 C   0  0  0  0  0  3  0  0  0  0  0  0
  160.2780  210.9100  153.2060 C   0  0  0  0  0  0  0  0  0  0  0  0
  161.9140  210.8860  148.2980 C   0  0  0  0  0  2  0  0  0  0  0  0
  160.9700  211.5960  150.8400 C   0  0  2  0  0  3  0  0  0  0  0  0
  161.2240  210.2360  150.5410 C   0  0  0  0  0  0  0  0  0  0  0  0
  161.0200  209.3010  151.4870 C   0  0  0  0  0  3  0  0  0  0  0  0
  161.9080  208.6450  148.8970 C   0  0  0  0  0  0  0  0  0  0  0  0
  160.1460  213.1740  152.4090 O   0  0  0  0  0  0  0  0  0  0  0  0
  159.8450  212.6700  156.3770 O   0  0  0  0  0  0  0  0  0  0  0  0
  159.8280  211.1820  154.5550 N   0  0  0  0  0  0  0  0  0  0  0  0
  160.1420  212.4420  155.1730 C   0  0  0  0  0  3  0  0  0  0  0  0
  158.8650  210.0200  155.4940 S   0  0  0  0  0  0  0  0  0  0  0  0
  160.3410  209.1280  156.0570 C   0  0  0  0  0  2  0  0  0  0  0  0
  160.1440  207.6360  155.8400 C   0  0  2  0  0  3  0  0  0  0  0  0
  160.3040  206.9120  157.1620 C   0  0  0  0  0  1  0  0  0  0  0  0
  161.1280  207.1300  154.8920 N   0  0  0  0  0  2  0  0  0  0  0  0
  160.4890  206.1790  154.0790 N   0  0  0  0  0  2  0  0  0  0  0  0
  161.0950  206.2470  152.7570 C   0  0  1  0  0  3  0  0  0  0  0  0
  163.2000  206.3880  151.6010 O   0  0  0  0  0  1  0  0  0  0  0  0
  162.6120  206.1610  152.8470 C   0  0  0  0  0  2  0  0  0  0  0  0
  160.4100  204.9810  151.6140 S   0  0  0  0  0  0  0  0  0  0  0  0
  160.7970  203.5310  152.6490 C   0  0  0  0  0  2  0  0  0  0  0  0
  161.5310  202.5610  151.8580 N   0  0  0  0  0  1  0  0  0  0  0  0
  162.2560  207.0680  147.1040 C   0  0  0  0  0  2  0  0  0  0  0  0
  163.3910  205.0280  146.2930 C   0  0  0  0  0  2  0  0  0  0  0  0
  163.1390  204.7180  144.8240 C   0  0  0  0  0  2  0  0  0  0  0  0
  162.0960  205.5680  146.8810 C   0  0  2  0  0  3  0  0  0  0  0  0
  160.7040  203.8320  145.3760 C   0  0  1  0  0  0  0  0  0  0  0  0
  161.6360  204.7610  144.5840 C   0  0  1  0  0  0  0  0  0  0  0  0
  159.9580  206.1910  145.6840 O   0  0  0  0  0  1  0  0  0  0  0  0
  160.9850  205.2540  145.8710 C   0  0  2  0  0  0  0  0  0  0  0  0
  159.0430  203.5350  144.6760 S   0  0  0  0  0  1  0  0  0  0  0  0
  161.1340  205.4480  143.3150 C   0  0  0  0  0  2  0  0  0  0  0  0
  162.2180  205.8620  142.5340 O   0  0  0  0  0  1  0  0  0  0  0  0
  161.3460  202.6790  146.1430 C   0  0  0  0  0  2  0  0  0  0  0  0
  160.3540  201.8430  146.6640 O   0  0  0  0  0  0  0  0  0  0  0  0
  159.3000  201.4320  149.1900 O   0  0  0  0  0  1  0  0  0  0  0  0
  160.7190  201.6870  148.3100 P   0  0  0  0  0  0  0  0  0  0  0  0
  161.4930  203.0810  148.8780 O   0  0  0  0  0  1  0  0  0  0  0  0
  161.6350  200.4980  148.4990 O   0  0  0  0  0  0  0  0  0  0  0  0
  1  7  2  0  0  0  0
  2 10  1  0  0  0  0
  3 13  2  0  0  0  0
  3  7  1  0  0  0  0
  5  4  2  0  0  0  0
  6 12  2  0  0  0  0
  7 15  1  0  0  0  0
  8  5  1  0  0  0  0
  8  2  1  0  0  0  0
  9  4  1  6  0  0  0
  9  3  1  0  0  0  0
 10  9  1  0  0  0  0
 10 11  2  0  0  0  0
 11  1  1  0  0  0  0
 12  2  2  0  0  0  0
 15 16  1  0  0  0  0
 15 17  1  0  0  0  0
 16 14  2  0  0  0  0
 17 18  1  0  0  0  0
 19 18  1  0  0  0  0
 19 20  1  1  0  0  0
 21 19  1  0  0  0  0
 22 21  1  0  0  0  0
 23 25  1  1  0  0  0
 23 22  1  0  0  0  0
 24 25  1  0  0  0  0
 26 27  1  0  0  0  0
 26 23  1  0  0  0  0
 28 27  1  0  0  0  0
 29  6  1  0  0  0  0
 30 32  1  0  0  0  0
 31 30  1  0  0  0  0
 32 29  1  6  0  0  0
 33 37  1  6  0  0  0
 33 36  1  0  0  0  0
 33 40  1  0  0  0  0
 34 38  1  6  0  0  0
 34 31  1  0  0  0  0
 34 33  1  0  0  0  0
 34 36  1  0  0  0  0
 36 35  1  6  0  0  0
 36 32  1  0  0  0  0
 39 38  1  0  0  0  0
 40 41  1  0  0  0  0
 41 43  1  0  0  0  0
 43 45  2  0  0  0  0
 43 44  1  0  0  0  0
 43 42  1  0  0  0  0
M  END
>  <MODEL>
4

>  <REMARK>
 VINA RESULT:      -3.4      2.459      5.004
  Name = 
  16 active torsions:
  status: ('A' for Active; 'I' for Inactive)
    1  A    between atoms: S_5  and  C_9
    2  A    between atoms: S_5  and  C_35
    3  A    between atoms: C_6  and  C_14
    4  A    between atoms: C_6  and  S_28
    5  A    between atoms: C_8  and  C_27
    6  A    between atoms: P_11  and  O_16
    7  A    between atoms: C_14  and  N_40
    8  A    between atoms: O_16  and  C_20
    9  A    between atoms: N_19  and  C_26
   10  A    between atoms: N_19  and  S_28
   11  A    between atoms: C_20  and  C_25
   12  A    between atoms: C_21  and  C_37
   13  A    between atoms: C_22  and  C_37
   14  A    between atoms: C_23  and  C_35
   15  A    between atoms: N_24  and  C_35
   16  A    between atoms: N_24  and  N_40
                            x       y       z     vdW  Elec       q    Type
                         _______ _______ _______ _____ _____    ______ ____

>  <TORSDO>
F 16

$$$$
=
 OpenBabel11072412033D

 45 48  0  0  1  0  0  0  0  0999 V2000
  160.1440  210.1510  152.6730 C   0  0  0  0  0  3  0  0  0  0  0  0
  161.6950  210.1300  149.2280 C   0  0  0  0  0  0  0  0  0  0  0  0
  160.2380  212.4380  151.8730 C   0  0  0  0  0  0  0  0  0  0  0  0
  161.2650  212.8710  149.6380 C   0  0  0  0  0  3  0  0  0  0  0  0
  161.8580  212.4240  148.4580 C   0  0  0  0  0  3  0  0  0  0  0  0
  162.0510  207.5960  148.7090 C   0  0  0  0  0  3  0  0  0  0  0  0
  159.8970  211.4460  152.9330 C   0  0  0  0  0  0  0  0  0  0  0  0
  162.0680  211.0600  148.2540 C   0  0  0  0  0  2  0  0  0  0  0  0
  160.8820  211.9600  150.6290 C   0  0  2  0  0  3  0  0  0  0  0  0
  161.1010  210.5750  150.4350 C   0  0  0  0  0  0  0  0  0  0  0  0
  160.7470  209.7080  151.4010 C   0  0  0  0  0  3  0  0  0  0  0  0
  161.8860  208.8610  148.9690 C   0  0  0  0  0  0  0  0  0  0  0  0
  159.9660  213.6620  152.0050 O   0  0  0  0  0  0  0  0  0  0  0  0
  158.1180  213.4290  155.4310 O   0  0  0  0  0  0  0  0  0  0  0  0
  159.3120  211.8170  154.2050 N   0  0  0  0  0  0  0  0  0  0  0  0
  158.5580  213.0350  154.3170 C   0  0  0  0  0  3  0  0  0  0  0  0
  159.4660  210.8040  155.6580 S   0  0  0  0  0  0  0  0  0  0  0  0
  161.0400  211.5720  156.1280 C   0  0  0  0  0  2  0  0  0  0  0  0
  161.7570  210.6860  157.1340 C   0  0  2  0  0  3  0  0  0  0  0  0
  163.2240  210.5960  156.7680 C   0  0  0  0  0  1  0  0  0  0  0  0
  161.1760  209.3490  157.1320 N   0  0  0  0  0  2  0  0  0  0  0  0
  162.1020  208.4810  156.5320 N   0  0  0  0  0  2  0  0  0  0  0  0
  161.3740  207.3120  156.0590 C   0  0  1  0  0  3  0  0  0  0  0  0
  159.0020  206.9560  156.2290 O   0  0  0  0  0  1  0  0  0  0  0  0
  160.1890  207.0060  156.9630 C   0  0  0  0  0  2  0  0  0  0  0  0
  160.8640  207.4780  154.3010 S   0  0  0  0  0  0  0  0  0  0  0  0
  161.7580  206.0140  153.6830 C   0  0  0  0  0  2  0  0  0  0  0  0
  161.9510  206.1410  152.2510 N   0  0  0  0  0  1  0  0  0  0  0  0
  162.3550  207.1660  147.3150 C   0  0  0  0  0  2  0  0  0  0  0  0
  163.4820  205.0740  146.6410 C   0  0  0  0  0  2  0  0  0  0  0  0
  163.2630  204.6910  145.1840 C   0  0  0  0  0  2  0  0  0  0  0  0
  162.1790  205.6600  147.1670 C   0  0  2  0  0  3  0  0  0  0  0  0
  160.8030  203.8650  145.7170 C   0  0  1  0  0  0  0  0  0  0  0  0
  161.7670  204.7400  144.9030 C   0  0  1  0  0  0  0  0  0  0  0  0
  160.0820  206.2460  145.8840 O   0  0  0  0  0  1  0  0  0  0  0  0
  161.0900  205.3070  146.1450 C   0  0  2  0  0  0  0  0  0  0  0  0
  159.1560  203.5530  144.9900 S   0  0  0  0  0  1  0  0  0  0  0  0
  161.3070  205.3670  143.5880 C   0  0  0  0  0  2  0  0  0  0  0  0
  162.4130  205.8000  142.8510 O   0  0  0  0  0  1  0  0  0  0  0  0
  161.4090  202.7460  146.5590 C   0  0  0  0  0  2  0  0  0  0  0  0
  160.4100  201.8480  146.9480 O   0  0  0  0  0  0  0  0  0  0  0  0
  159.0850  201.2730  149.3090 O   0  0  0  0  0  1  0  0  0  0  0  0
  160.5700  201.7000  148.6270 P   0  0  0  0  0  0  0  0  0  0  0  0
  161.1020  203.1600  149.3000 O   0  0  0  0  0  1  0  0  0  0  0  0
  161.5800  200.6160  148.9290 O   0  0  0  0  0  0  0  0  0  0  0  0
  1  7  2  0  0  0  0
  2 10  1  0  0  0  0
  3 13  2  0  0  0  0
  3  7  1  0  0  0  0
  5  4  2  0  0  0  0
  6 12  2  0  0  0  0
  7 15  1  0  0  0  0
  8  5  1  0  0  0  0
  8  2  1  0  0  0  0
  9  4  1  6  0  0  0
  9  3  1  0  0  0  0
 10  9  1  0  0  0  0
 10 11  2  0  0  0  0
 11  1  1  0  0  0  0
 12  2  2  0  0  0  0
 15 16  1  0  0  0  0
 15 17  1  0  0  0  0
 16 14  2  0  0  0  0
 17 18  1  0  0  0  0
 18 19  1  0  0  0  0
 19 20  1  6  0  0  0
 21 19  1  0  0  0  0
 22 21  1  0  0  0  0
 23 22  1  0  0  0  0
 23 25  1  1  0  0  0
 24 25  1  0  0  0  0
 26 23  1  0  0  0  0
 27 26  1  0  0  0  0
 28 27  1  0  0  0  0
 29  6  1  0  0  0  0
 30 32  1  0  0  0  0
 31 30  1  0  0  0  0
 32 29  1  6  0  0  0
 33 37  1  6  0  0  0
 33 36  1  0  0  0  0
 33 40  1  0  0  0  0
 34 38  1  6  0  0  0
 34 31  1  0  0  0  0
 34 33  1  0  0  0  0
 34 36  1  0  0  0  0
 36 35  1  6  0  0  0
 36 32  1  0  0  0  0
 39 38  1  0  0  0  0
 40 41  1  0  0  0  0
 41 43  1  0  0  0  0
 43 45  2  0  0  0  0
 43 44  1  0  0  0  0
 43 42  1  0  0  0  0
M  END
>  <MODEL>
5

>  <REMARK>
 VINA RESULT:      -3.3      2.185      4.853
  Name = 
  16 active torsions:
  status: ('A' for Active; 'I' for Inactive)
    1  A    between atoms: S_5  and  C_9
    2  A    between atoms: S_5  and  C_35
    3  A    between atoms: C_6  and  C_14
    4  A    between atoms: C_6  and  S_28
    5  A    between atoms: C_8  and  C_27
    6  A    between atoms: P_11  and  O_16
    7  A    between atoms: C_14  and  N_40
    8  A    between atoms: O_16  and  C_20
    9  A    between atoms: N_19  and  C_26
   10  A    between atoms: N_19  and  S_28
   11  A    between atoms: C_20  and  C_25
   12  A    between atoms: C_21  and  C_37
   13  A    between atoms: C_22  and  C_37
   14  A    between atoms: C_23  and  C_35
   15  A    between atoms: N_24  and  C_35
   16  A    between atoms: N_24  and  N_40
                            x       y       z     vdW  Elec       q    Type
                         _______ _______ _______ _____ _____    ______ ____

>  <TORSDO>
F 16

$$$$
=
 OpenBabel11072412033D

 45 48  0  0  1  0  0  0  0  0999 V2000
  160.0610  211.5450  153.0130 C   0  0  0  0  0  3  0  0  0  0  0  0
  161.6570  210.7620  149.6790 C   0  0  0  0  0  0  0  0  0  0  0  0
  159.5690  213.3690  151.4940 C   0  0  0  0  0  0  0  0  0  0  0  0
  160.5070  213.2710  149.1810 C   0  0  0  0  0  3  0  0  0  0  0  0
  161.2290  212.6210  148.1820 C   0  0  0  0  0  3  0  0  0  0  0  0
  162.6830  208.3850  150.0120 C   0  0  0  0  0  3  0  0  0  0  0  0
  159.4730  212.7420  152.8430 C   0  0  0  0  0  0  0  0  0  0  0  0
  161.7980  211.3720  148.4300 C   0  0  0  0  0  2  0  0  0  0  0  0
  160.3510  212.6820  150.4410 C   0  0  2  0  0  3  0  0  0  0  0  0
  160.9330  211.4190  150.7060 C   0  0  0  0  0  0  0  0  0  0  0  0
  160.7940  210.8690  151.9260 C   0  0  0  0  0  3  0  0  0  0  0  0
  162.1840  209.5760  149.8460 C   0  0  0  0  0  0  0  0  0  0  0  0
  158.9810  214.4520  151.2280 O   0  0  0  0  0  0  0  0  0  0  0  0
  158.9470  214.3630  156.0730 O   0  0  0  0  0  0  0  0  0  0  0  0
  158.7770  213.3560  153.9540 N   0  0  0  0  0  0  0  0  0  0  0  0
  159.5270  213.9070  155.0510 C   0  0  0  0  0  3  0  0  0  0  0  0
  157.0060  213.4880  154.0170 S   0  0  0  0  0  0  0  0  0  0  0  0
  156.9070  212.5400  155.5600 C   0  0  0  0  0  2  0  0  0  0  0  0
  157.2190  211.0790  155.2780 C   0  0  2  0  0  3  0  0  0  0  0  0
  155.9270  210.3350  155.0040 C   0  0  0  0  0  1  0  0  0  0  0  0
  157.8900  210.4750  156.4220 N   0  0  0  0  0  2  0  0  0  0  0  0
  159.2700  210.4930  156.1670 N   0  0  0  0  0  2  0  0  0  0  0  0
  159.8560  209.3240  156.8080 C   0  0  1  0  0  3  0  0  0  0  0  0
  159.9190  206.9220  156.7110 O   0  0  0  0  0  1  0  0  0  0  0  0
  159.6160  208.0710  155.9780 C   0  0  0  0  0  2  0  0  0  0  0  0
  161.6390  209.5590  157.1840 S   0  0  0  0  0  0  0  0  0  0  0  0
  161.9600  210.8200  155.9060 C   0  0  0  0  0  2  0  0  0  0  0  0
  163.3870  211.0620  155.8220 N   0  0  0  0  0  1  0  0  0  0  0  0
  163.1290  207.6030  148.8240 C   0  0  0  0  0  2  0  0  0  0  0  0
  160.9230  206.6570  148.2400 C   0  0  0  0  0  2  0  0  0  0  0  0
  159.9890  206.4760  149.4280 C   0  0  0  0  0  2  0  0  0  0  0  0
  162.3310  206.3110  148.7010 C   0  0  2  0  0  3  0  0  0  0  0  0
  161.3320  204.3360  150.2240 C   0  0  1  0  0  0  0  0  0  0  0  0
  160.7480  205.7260  150.5150 C   0  0  1  0  0  0  0  0  0  0  0  0
  163.1520  205.8310  151.0430 O   0  0  0  0  0  1  0  0  0  0  0  0
  162.1920  205.5910  150.0480 C   0  0  2  0  0  0  0  0  0  0  0  0
  161.7230  203.2850  151.6660 S   0  0  0  0  0  1  0  0  0  0  0  0
  160.5880  206.2030  151.9580 C   0  0  0  0  0  2  0  0  0  0  0  0
  160.4630  207.5950  151.9900 O   0  0  0  0  0  1  0  0  0  0  0  0
  160.8590  203.6240  148.9600 C   0  0  0  0  0  2  0  0  0  0  0  0
  161.7770  202.6320  148.6000 O   0  0  0  0  0  0  0  0  0  0  0  0
  160.3100  201.4520  146.5710 O   0  0  0  0  0  0  0  0  0  0  0  0
  160.8390  201.2900  148.1670 P   0  0  0  0  0  0  0  0  0  0  0  0
  159.5010  201.1490  149.1940 O   0  0  0  0  0  1  0  0  0  0  0  0
  161.6870  200.0430  148.2800 O   0  0  0  0  0  1  0  0  0  0  0  0
  2 12  2  0  0  0  0
  2 10  1  0  0  0  0
  3  7  1  0  0  0  0
  5  8  1  0  0  0  0
  5  4  2  0  0  0  0
  7  1  2  0  0  0  0
  7 15  1  0  0  0  0
  8  2  1  0  0  0  0
  9  4  1  6  0  0  0
  9 10  1  0  0  0  0
  9  3  1  0  0  0  0
 10 11  2  0  0  0  0
 11  1  1  0  0  0  0
 12  6  2  0  0  0  0
 13  3  2  0  0  0  0
 15 17  1  0  0  0  0
 15 16  1  0  0  0  0
 16 14  2  0  0  0  0
 17 18  1  0  0  0  0
 19 20  1  1  0  0  0
 19 18  1  0  0  0  0
 19 21  1  0  0  0  0
 22 21  1  0  0  0  0
 22 23  1  0  0  0  0
 23 25  1  6  0  0  0
 23 26  1  0  0  0  0
 25 24  1  0  0  0  0
 27 26  1  0  0  0  0
 28 27  1  0  0  0  0
 29  6  1  0  0  0  0
 30 32  1  0  0  0  0
 30 31  1  0  0  0  0
 31 34  1  0  0  0  0
 32 29  1  1  0  0  0
 32 36  1  0  0  0  0
 33 34  1  0  0  0  0
 33 37  1  1  0  0  0
 34 38  1  1  0  0  0
 36 33  1  0  0  0  0
 36 34  1  0  0  0  0
 36 35  1  1  0  0  0
 38 39  1  0  0  0  0
 40 33  1  0  0  0  0
 41 40  1  0  0  0  0
 42 43  2  0  0  0  0
 43 45  1  0  0  0  0
 43 41  1  0  0  0  0
 43 44  1  0  0  0  0
M  END
>  <MODEL>
6

>  <REMARK>
 VINA RESULT:      -3.0      2.585      5.331
  Name = 
  16 active torsions:
  status: ('A' for Active; 'I' for Inactive)
    1  A    between atoms: S_5  and  C_9
    2  A    between atoms: S_5  and  C_35
    3  A    between atoms: C_6  and  C_14
    4  A    between atoms: C_6  and  S_28
    5  A    between atoms: C_8  and  C_27
    6  A    between atoms: P_11  and  O_16
    7  A    between atoms: C_14  and  N_40
    8  A    between atoms: O_16  and  C_20
    9  A    between atoms: N_19  and  C_26
   10  A    between atoms: N_19  and  S_28
   11  A    between atoms: C_20  and  C_25
   12  A    between atoms: C_21  and  C_37
   13  A    between atoms: C_22  and  C_37
   14  A    between atoms: C_23  and  C_35
   15  A    between atoms: N_24  and  C_35
   16  A    between atoms: N_24  and  N_40
                            x       y       z     vdW  Elec       q    Type
                         _______ _______ _______ _____ _____    ______ ____

>  <TORSDO>
F 16

$$$$
=
 OpenBabel11072412033D

 45 48  0  0  1  0  0  0  0  0999 V2000
  160.9950  205.5220  149.7580 C   0  0  0  0  0  3  0  0  0  0  0  0
  161.1750  207.9070  152.6820 C   0  0  0  0  0  0  0  0  0  0  0  0
  160.9400  204.2170  151.8000 C   0  0  0  0  0  0  0  0  0  0  0  0
  161.1050  205.4220  153.9820 C   0  0  0  0  0  3  0  0  0  0  0  0
  161.1950  206.5980  154.7240 C   0  0  0  0  0  3  0  0  0  0  0  0
  161.1500  210.2700  151.5730 C   0  0  0  0  0  3  0  0  0  0  0  0
  160.9460  204.2980  150.3110 C   0  0  0  0  0  0  0  0  0  0  0  0
  161.2260  207.8340  154.0760 C   0  0  0  0  0  3  0  0  0  0  0  0
  161.0520  205.4680  152.5840 C   0  0  0  0  0  0  0  0  0  0  0  0
  161.0940  206.7170  151.9170 C   0  0  0  0  0  0  0  0  0  0  0  0
  161.0610  206.7500  150.5730 C   0  0  0  0  0  3  0  0  0  0  0  0
  161.1750  209.0930  152.1290 C   0  0  0  0  0  0  0  0  0  0  0  0
  160.8160  203.1150  152.3990 O   0  0  0  0  0  0  0  0  0  0  0  0
  160.1520  200.9150  149.1860 O   0  0  0  0  0  0  0  0  0  0  0  0
  160.8920  203.1310  149.4550 N   0  0  0  0  0  0  0  0  0  0  0  0
  160.1390  201.9770  149.8660 C   0  0  0  0  0  3  0  0  0  0  0  0
  161.7090  203.0660  147.8770 S   0  0  0  0  0  0  0  0  0  0  0  0
  160.5830  201.7870  147.2550 C   0  0  0  0  0  2  0  0  0  0  0  0
  160.2530  202.0690  145.7980 C   0  0  2  0  0  3  0  0  0  0  0  0
  160.3390  200.7790  145.0070 C   0  0  0  0  0  1  0  0  0  0  0  0
  161.1910  203.0370  145.2450 N   0  0  0  0  0  2  0  0  0  0  0  0
  160.4450  204.0870  144.6880 N   0  0  0  0  0  2  0  0  0  0  0  0
  161.0980  205.3370  145.0480 C   0  0  1  0  0  3  0  0  0  0  0  0
  161.6360  205.4500  142.7060 O   0  0  0  0  0  1  0  0  0  0  0  0
  161.3010  206.2180  143.8230 C   0  0  0  0  0  2  0  0  0  0  0  0
  160.2050  206.2270  146.3840 S   0  0  0  0  0  0  0  0  0  0  0  0
  161.5760  207.3340  146.8530 C   0  0  0  0  0  2  0  0  0  0  0  0
  162.6640  206.5440  147.3980 N   0  0  0  0  0  1  0  0  0  0  0  0
  160.8950  211.4740  152.4130 C   0  0  0  0  0  2  0  0  0  0  0  0
  159.9520  213.6520  151.7270 C   0  0  0  0  0  2  0  0  0  0  0  0
  159.3410  214.4530  152.8690 C   0  0  0  0  0  2  0  0  0  0  0  0
  159.6240  212.1850  151.9630 C   0  0  2  0  0  3  0  0  0  0  0  0
  157.2020  212.8890  152.8890 C   0  0  1  0  0  0  0  0  0  0  0  0
  158.3830  213.5410  153.6240 C   0  0  1  0  0  0  0  0  0  0  0  0
  158.5610  211.1120  153.9900 O   0  0  0  0  0  1  0  0  0  0  0  0
  158.5310  212.1420  153.0390 C   0  0  2  0  0  0  0  0  0  0  0  0
  155.8180  212.2880  153.9190 S   0  0  0  0  0  1  0  0  0  0  0  0
  158.3980  213.5960  155.1510 C   0  0  0  0  0  2  0  0  0  0  0  0
  159.6820  213.3150  155.6270 O   0  0  0  0  0  1  0  0  0  0  0  0
  156.8500  213.4290  151.5060 C   0  0  0  0  0  2  0  0  0  0  0  0
  157.4200  212.6190  150.5200 O   0  0  0  0  0  0  0  0  0  0  0  0
  157.0140  212.4110  147.7900 O   0  0  0  0  0  0  0  0  0  0  0  0
  157.2450  213.4830  149.0740 P   0  0  0  0  0  0  0  0  0  0  0  0
  158.6190  214.4280  148.7810 O   0  0  0  0  0  1  0  0  0  0  0  0
  156.0360  214.3850  149.1850 O   0  0  0  0  0  1  0  0  0  0  0  0
  1  7  2  0  0  0  0
  1 11  1  0  0  0  0
  2  8  1  0  0  0  0
  3 13  2  0  0  0  0
  3  9  1  0  0  0  0
  4  5  1  0  0  0  0
  6 12  2  0  0  0  0
  6 29  1  0  0  0  0
  7  3  1  0  0  0  0
  8  5  2  0  0  0  0
  9  4  2  0  0  0  0
 10  9  1  0  0  0  0
 10  2  1  0  0  0  0
 11 10  2  0  0  0  0
 12  2  2  0  0  0  0
 14 16  2  0  0  0  0
 15 16  1  0  0  0  0
 15  7  1  0  0  0  0
 17 15  1  0  0  0  0
 18 17  1  0  0  0  0
 19 20  1  6  0  0  0
 19 18  1  0  0  0  0
 21 19  1  0  0  0  0
 22 23  1  0  0  0  0
 22 21  1  0  0  0  0
 23 25  1  6  0  0  0
 23 26  1  0  0  0  0
 24 25  1  0  0  0  0
 26 27  1  0  0  0  0
 27 28  1  0  0  0  0
 30 32  1  0  0  0  0
 30 31  1  0  0  0  0
 31 34  1  0  0  0  0
 32 29  1  1  0  0  0
 32 36  1  0  0  0  0
 33 36  1  0  0  0  0
 33 34  1  0  0  0  0
 33 37  1  1  0  0  0
 34 38  1  1  0  0  0
 36 34  1  0  0  0  0
 36 35  1  1  0  0  0
 38 39  1  0  0  0  0
 40 33  1  0  0  0  0
 41 40  1  0  0  0  0
 42 43  2  0  0  0  0
 43 45  1  0  0  0  0
 43 41  1  0  0  0  0
 44 43  1  0  0  0  0
M  END
>  <MODEL>
7

>  <REMARK>
 VINA RESULT:      -3.0      4.176     10.303
  Name = 
  16 active torsions:
  status: ('A' for Active; 'I' for Inactive)
    1  A    between atoms: S_5  and  C_9
    2  A    between atoms: S_5  and  C_35
    3  A    between atoms: C_6  and  C_14
    4  A    between atoms: C_6  and  S_28
    5  A    between atoms: C_8  and  C_27
    6  A    between atoms: P_11  and  O_16
    7  A    between atoms: C_14  and  N_40
    8  A    between atoms: O_16  and  C_20
    9  A    between atoms: N_19  and  C_26
   10  A    between atoms: N_19  and  S_28
   11  A    between atoms: C_20  and  C_25
   12  A    between atoms: C_21  and  C_37
   13  A    between atoms: C_22  and  C_37
   14  A    between atoms: C_23  and  C_35
   15  A    between atoms: N_24  and  C_35
   16  A    between atoms: N_24  and  N_40
                            x       y       z     vdW  Elec       q    Type
                         _______ _______ _______ _____ _____    ______ ____

>  <TORSDO>
F 16

$$$$
=
 OpenBabel11072412033D

 45 48  0  0  1  0  0  0  0  0999 V2000
  159.4110  211.6360  153.0030 C   0  0  0  0  0  3  0  0  0  0  0  0
  160.9490  208.1920  153.2350 C   0  0  0  0  0  0  0  0  0  0  0  0
  159.0130  210.7800  155.2360 C   0  0  0  0  0  0  0  0  0  0  0  0
  159.8210  208.4820  155.7870 C   0  0  0  0  0  3  0  0  0  0  0  0
  160.4860  207.3060  155.4440 C   0  0  0  0  0  3  0  0  0  0  0  0
  162.1150  207.8630  150.9230 C   0  0  0  0  0  3  0  0  0  0  0  0
  158.8570  211.8490  154.2090 C   0  0  0  0  0  0  0  0  0  0  0  0
  161.0500  207.1640  154.1760 C   0  0  0  0  0  2  0  0  0  0  0  0
  159.7060  209.5260  154.8620 C   0  0  2  0  0  3  0  0  0  0  0  0
  160.2660  209.3880  153.5690 C   0  0  0  0  0  0  0  0  0  0  0  0
  160.1350  210.3900  152.6820 C   0  0  0  0  0  3  0  0  0  0  0  0
  161.5240  208.0190  152.0720 C   0  0  0  0  0  0  0  0  0  0  0  0
  158.5920  210.9330  156.4150 O   0  0  0  0  0  0  0  0  0  0  0  0
  156.7070  214.2850  155.8770 O   0  0  0  0  0  0  0  0  0  0  0  0
  158.1520  213.0890  154.4570 N   0  0  0  0  0  0  0  0  0  0  0  0
  157.4050  213.2550  155.6760 C   0  0  0  0  0  3  0  0  0  0  0  0
  158.1850  214.4530  153.3180 S   0  0  0  0  0  0  0  0  0  0  0  0
  156.9440  213.6880  152.2380 C   0  0  0  0  0  2  0  0  0  0  0  0
  157.0090  214.3270  150.8600 C   0  0  2  0  0  3  0  0  0  0  0  0
  155.9400  213.7180  149.9750 C   0  0  0  0  0  1  0  0  0  0  0  0
  158.3180  214.1010  150.2600 N   0  0  0  0  0  2  0  0  0  0  0  0
  158.1320  213.9280  148.8800 N   0  0  0  0  0  2  0  0  0  0  0  0
  159.4460  213.7930  148.2670 C   0  0  1  0  0  3  0  0  0  0  0  0
  161.7960  213.5990  148.7390 O   0  0  0  0  0  1  0  0  0  0  0  0
  160.5350  213.7100  149.3270 C   0  0  0  0  0  2  0  0  0  0  0  0
  159.5250  212.3760  147.0990 S   0  0  0  0  0  0  0  0  0  0  0  0
  158.0740  212.8450  146.1000 C   0  0  0  0  0  2  0  0  0  0  0  0
  156.9070  212.1340  146.5890 N   0  0  0  0  0  1  0  0  0  0  0  0
  163.0930  206.7540  150.7430 C   0  0  0  0  0  2  0  0  0  0  0  0
  161.6630  206.6010  148.7350 C   0  0  0  0  0  2  0  0  0  0  0  0
  160.2990  205.9750  148.9880 C   0  0  0  0  0  2  0  0  0  0  0  0
  162.6810  205.8550  149.5840 C   0  0  2  0  0  3  0  0  0  0  0  0
  161.3740  203.5560  149.1050 C   0  0  1  0  0  0  0  0  0  0  0  0
  160.5130  204.6630  149.7320 C   0  0  1  0  0  0  0  0  0  0  0  0
  162.2720  204.1080  151.3650 O   0  0  0  0  0  1  0  0  0  0  0  0
  161.9970  204.5710  150.0700 C   0  0  2  0  0  0  0  0  0  0  0  0
  161.1440  201.8640  149.7520 S   0  0  0  0  0  1  0  0  0  0  0  0
  159.5760  204.3380  150.8930 C   0  0  0  0  0  2  0  0  0  0  0  0
  159.8980  205.1240  152.0030 O   0  0  0  0  0  1  0  0  0  0  0  0
  161.7220  203.6880  147.6250 C   0  0  0  0  0  2  0  0  0  0  0  0
  160.8200  202.9440  146.8560 O   0  0  0  0  0  0  0  0  0  0  0  0
  162.4500  203.9120  144.8390 O   0  0  0  0  0  1  0  0  0  0  0  0
  160.8520  203.6530  145.3180 P   0  0  0  0  0  0  0  0  0  0  0  0
  160.0200  205.1280  145.3310 O   0  0  0  0  0  1  0  0  0  0  0  0
  160.1890  202.7170  144.3330 O   0  0  0  0  0  0  0  0  0  0  0  0
  1  7  2  0  0  0  0
  2 10  1  0  0  0  0
  2  8  1  0  0  0  0
  3 13  2  0  0  0  0
  5  4  2  0  0  0  0
  6 12  2  0  0  0  0
  7 15  1  0  0  0  0
  7  3  1  0  0  0  0
  8  5  1  0  0  0  0
  9  3  1  0  0  0  0
  9  4  1  1  0  0  0
 10  9  1  0  0  0  0
 11  1  1  0  0  0  0
 11 10  2  0  0  0  0
 12  2  2  0  0  0  0
 15 16  1  0  0  0  0
 16 14  2  0  0  0  0
 17 15  1  0  0  0  0
 18 17  1  0  0  0  0
 19 20  1  6  0  0  0
 19 18  1  0  0  0  0
 21 19  1  0  0  0  0
 22 21  1  0  0  0  0
 23 22  1  0  0  0  0
 23 25  1  1  0  0  0
 24 25  1  0  0  0  0
 26 23  1  0  0  0  0
 27 28  1  0  0  0  0
 27 26  1  0  0  0  0
 29  6  1  0  0  0  0
 30 31  1  0  0  0  0
 30 32  1  0  0  0  0
 31 34  1  0  0  0  0
 32 36  1  0  0  0  0
 32 29  1  1  0  0  0
 33 34  1  0  0  0  0
 33 37  1  1  0  0  0
 33 36  1  0  0  0  0
 34 36  1  0  0  0  0
 34 38  1  1  0  0  0
 36 35  1  1  0  0  0
 38 39  1  0  0  0  0
 40 33  1  0  0  0  0
 41 40  1  0  0  0  0
 42 43  1  0  0  0  0
 43 44  1  0  0  0  0
 43 41  1  0  0  0  0
 45 43  2  0  0  0  0
M  END
>  <MODEL>
8

>  <REMARK>
 VINA RESULT:      -2.8      2.471      4.346
  Name = 
  16 active torsions:
  status: ('A' for Active; 'I' for Inactive)
    1  A    between atoms: S_5  and  C_9
    2  A    between atoms: S_5  and  C_35
    3  A    between atoms: C_6  and  C_14
    4  A    between atoms: C_6  and  S_28
    5  A    between atoms: C_8  and  C_27
    6  A    between atoms: P_11  and  O_16
    7  A    between atoms: C_14  and  N_40
    8  A    between atoms: O_16  and  C_20
    9  A    between atoms: N_19  and  C_26
   10  A    between atoms: N_19  and  S_28
   11  A    between atoms: C_20  and  C_25
   12  A    between atoms: C_21  and  C_37
   13  A    between atoms: C_22  and  C_37
   14  A    between atoms: C_23  and  C_35
   15  A    between atoms: N_24  and  C_35
   16  A    between atoms: N_24  and  N_40
                            x       y       z     vdW  Elec       q    Type
                         _______ _______ _______ _____ _____    ______ ____

>  <TORSDO>
F 16

$$$$
