=
 OpenBabel11072410373D

 54 60  0  0  1  0  0  0  0  0999 V2000
  160.7100  208.7820  151.8700 C   0  0  2  0  0  3  0  0  0  0  0  0
  161.6050  208.9460  150.6660 C   0  0  2  0  0  3  0  0  0  0  0  0
  161.4670  208.7160  153.0560 O   0  0  0  0  0  0  0  0  0  0  0  0
  162.0790  208.1920  151.9000 C   0  0  1  0  0  0  0  0  0  0  0  0
  161.9630  206.6500  151.8000 C   0  0  2  0  0  0  0  0  0  0  0  0
  161.7840  206.4320  149.1150 C   0  0  1  0  0  3  0  0  0  0  0  0
  160.8450  204.2510  149.1720 N   0  0  0  0  0  0  0  0  0  0  0  0
  161.5280  205.9550  150.5140 C   0  0  0  0  0  0  0  0  0  0  0  0
  163.1560  206.5670  148.9000 O   0  0  0  0  0  1  0  0  0  0  0  0
  161.2530  205.2930  148.2370 C   0  0  1  0  0  3  0  0  0  0  0  0
  160.8180  203.9290  151.7340 C   0  0  0  0  0  2  0  0  0  0  0  0
  160.9950  204.7480  150.4950 C   0  0  0  0  0  0  0  0  0  0  0  0
  160.1480  202.0680  149.6170 O   0  0  0  0  0  0  0  0  0  0  0  0
  161.4070  206.0590  153.1030 C   0  0  2  0  0  3  0  0  0  0  0  0
  160.7190  202.8660  148.8250 C   0  0  0  0  0  0  0  0  0  0  0  0
  162.8530  205.8030  152.7100 C   0  0  0  0  0  2  0  0  0  0  0  0
  160.4830  204.8320  152.9200 C   0  0  0  0  0  2  0  0  0  0  0  0
  160.1780  206.7120  146.6650 O   0  0  0  0  0  0  0  0  0  0  0  0
  160.0800  205.7550  147.4200 C   0  0  0  0  0  3  0  0  0  0  0  0
  161.3530  202.3470  147.5580 C   0  0  2  0  0  3  0  0  0  0  0  0
  160.3840  202.1010  146.3810 C   0  0  0  0  0  0  0  0  0  0  0  0
  160.8040  200.9800  145.6600 O   0  0  0  0  0  1  0  0  0  0  0  0
  159.0920  201.8640  146.8550 O   0  0  0  0  0  1  0  0  0  0  0  0
  160.3480  203.3030  145.4400 C   0  0  0  0  0  2  0  0  0  0  0  0
  161.6450  203.5950  144.9310 O   0  0  0  0  0  0  0  0  0  0  0  0
  162.9190  205.4520  145.3380 O   0  0  0  0  0  1  0  0  0  0  0  0
  162.0350  204.8970  144.6380 C   0  0  0  0  0  0  0  0  0  0  0  0
  161.4710  205.5840  143.5660 O   0  0  0  0  0  0  0  0  0  0  0  0
  162.2630  201.1530  147.8580 C   0  0  0  0  0  2  0  0  0  0  0  0
  161.5250  199.9760  147.9660 O   0  0  0  0  0  1  0  0  0  0  0  0
  162.1680  210.3540  150.6430 C   0  0  0  0  0  2  0  0  0  0  0  0
  161.7380  211.0640  149.3740 C   0  0  0  0  0  2  0  0  0  0  0  0
  160.6800  212.1150  149.6720 C   0  0  1  0  0  3  0  0  0  0  0  0
  160.4020  212.1550  151.0430 O   0  0  0  0  0  0  0  0  0  0  0  0
  159.9260  213.4500  151.2750 C   0  0  0  0  0  2  0  0  0  0  0  0
  158.7210  212.7650  153.4320 N   0  0  0  0  0  0  0  0  0  0  0  0
  157.6450  213.9300  151.6930 O   0  0  0  0  0  0  0  0  0  0  0  0
  158.7020  213.4080  152.1370 C   0  0  0  0  0  0  0  0  0  0  0  0
  155.6540  211.2590  155.2560 C   0  0  0  0  0  2  0  0  0  0  0  0
  155.7180  213.5790  155.6540 C   0  0  0  0  0  2  0  0  0  0  0  0
  155.6430  212.2750  156.3040 N   0  0  0  0  0  2  0  0  0  0  0  0
  157.5340  212.6190  154.2460 C   0  0  0  0  0  0  0  0  0  0  0  0
  156.9610  213.6920  154.8160 C   0  0  0  0  0  3  0  0  0  0  0  0
  157.0260  211.2310  154.5830 C   0  0  0  0  0  2  0  0  0  0  0  0
  160.8990  211.6990  154.2490 N   0  0  0  0  0  0  0  0  0  0  0  0
  159.9150  212.1830  153.8820 C   0  0  0  0  0  0  0  0  0  0  0  0
  161.1560  213.4880  149.2170 C   0  0  0  0  0  2  0  0  0  0  0  0
  161.4400  213.5370  146.7150 C   0  0  0  0  0  0  0  0  0  0  0  0
  160.6500  213.7770  147.8850 N   0  0  0  0  0  2  0  0  0  0  0  0
  162.6440  213.1900  146.8180 O   0  0  0  0  0  0  0  0  0  0  0  0
  161.6320  213.0050  144.3260 C   0  0  2  0  0  3  0  0  0  0  0  0
  161.5210  213.7080  142.9880 C   0  0  0  0  0  1  0  0  0  0  0  0
  160.2630  212.5440  144.7680 C   0  0  0  0  0  2  0  0  0  0  0  0
  160.8640  213.8040  145.3600 C   0  0  1  0  0  3  0  0  0  0  0  0
  1  4  1  0  0  0  0
  1  3  1  1  0  0  0
  2 31  1  1  0  0  0
  2  1  1  0  0  0  0
  2  4  1  0  0  0  0
  4  3  1  1  0  0  0
  5  4  1  0  0  0  0
  5 16  1  1  0  0  0
  5 14  1  0  0  0  0
  6  9  1  1  0  0  0
  6  8  1  0  0  0  0
  7 12  1  0  0  0  0
  8  5  1  0  0  0  0
 10 19  1  1  0  0  0
 10  6  1  0  0  0  0
 10  7  1  0  0  0  0
 11 17  1  0  0  0  0
 12  8  2  0  0  0  0
 12 11  1  0  0  0  0
 14 16  1  1  0  0  0
 15  7  1  0  0  0  0
 15 13  2  0  0  0  0
 17 14  1  0  0  0  0
 18 19  2  0  0  0  0
 20 29  1  1  0  0  0
 20 15  1  0  0  0  0
 21 23  1  0  0  0  0
 21 20  1  0  0  0  0
 22 21  1  0  0  0  0
 24 21  1  0  0  0  0
 25 24  1  0  0  0  0
 27 25  1  0  0  0  0
 27 26  1  0  0  0  0
 28 27  2  0  0  0  0
 29 30  1  0  0  0  0
 32 33  1  0  0  0  0
 32 31  1  0  0  0  0
 33 47  1  1  0  0  0
 33 34  1  0  0  0  0
 34 35  1  0  0  0  0
 35 38  1  0  0  0  0
 36 46  1  0  0  0  0
 36 42  1  0  0  0  0
 37 38  2  0  0  0  0
 38 36  1  0  0  0  0
 39 41  1  0  0  0  0
 40 41  1  0  0  0  0
 42 44  1  0  0  0  0
 42 43  2  0  0  0  0
 43 40  1  0  0  0  0
 44 39  1  0  0  0  0
 46 45  3  0  0  0  0
 48 50  2  0  0  0  0
 48 49  1  0  0  0  0
 49 47  1  0  0  0  0
 51 52  1  6  0  0  0
 51 53  1  0  0  0  0
 51 54  1  0  0  0  0
 53 54  1  0  0  0  0
 54 48  1  1  0  0  0
M  END
>  <MODEL>
1

>  <REMARK>
 VINA RESULT:      -4.4      0.000      0.000
  Name = 
  19 active torsions:
  status: ('A' for Active; 'I' for Inactive)
    1  A    between atoms: C_1  and  C_30
    2  A    between atoms: C_5  and  C_21
    3  A    between atoms: C_5  and  C_29
    4  A    between atoms: C_13  and  C_50
    5  A    between atoms: C_14  and  C_21
    6  A    between atoms: N_16  and  C_20
    7  A    between atoms: N_16  and  C_45
    8  A    between atoms: C_19  and  C_25
    9  A    between atoms: C_21  and  C_41
   10  A    between atoms: C_24  and  C_25
   11  A    between atoms: C_24  and  C_51
   12  A    between atoms: C_29  and  O_53
   13  A    between atoms: C_31  and  C_49
   14  A    between atoms: C_35  and  O_53
   15  A    between atoms: N_36  and  C_42
   16  A    between atoms: C_42  and  C_51
   17  A    between atoms: C_43  and  O_47
   18  A    between atoms: C_43  and  C_54
   19  A    between atoms: O_47  and  C_51
                            x       y       z     vdW  Elec       q    Type
                         _______ _______ _______ _____ _____    ______ ____

>  <TORSDO>
F 19

$$$$
=
 OpenBabel11072410373D

 54 60  0  0  1  0  0  0  0  0999 V2000
  160.6580  208.7030  153.3240 C   0  0  2  0  0  3  0  0  0  0  0  0
  160.6320  209.0340  151.8520 C   0  0  2  0  0  3  0  0  0  0  0  0
  161.9800  208.6500  153.8070 O   0  0  0  0  0  0  0  0  0  0  0  0
  161.7940  208.2640  152.4630 C   0  0  1  0  0  0  0  0  0  0  0  0
  161.7190  206.7270  152.2800 C   0  0  2  0  0  0  0  0  0  0  0  0
  161.7170  206.6430  149.5820 C   0  0  1  0  0  3  0  0  0  0  0  0
  160.8260  204.4430  149.4700 N   0  0  0  0  0  0  0  0  0  0  0  0
  161.3830  206.0900  150.9360 C   0  0  0  0  0  0  0  0  0  0  0  0
  163.0960  206.8150  149.4630 O   0  0  0  0  0  1  0  0  0  0  0  0
  161.2690  205.5400  148.6150 C   0  0  1  0  0  3  0  0  0  0  0  0
  160.6420  203.9910  152.0050 C   0  0  0  0  0  2  0  0  0  0  0  0
  160.8800  204.8750  150.8220 C   0  0  0  0  0  0  0  0  0  0  0  0
  160.1520  202.2280  149.7600 O   0  0  0  0  0  0  0  0  0  0  0  0
  161.0940  206.0600  153.5130 C   0  0  2  0  0  3  0  0  0  0  0  0
  160.7540  203.0760  149.0470 C   0  0  0  0  0  0  0  0  0  0  0  0
  162.5680  205.8530  153.2030 C   0  0  0  0  0  2  0  0  0  0  0  0
  160.2120  204.8260  153.2100 C   0  0  0  0  0  2  0  0  0  0  0  0
  160.3470  206.7720  146.8070 O   0  0  0  0  0  0  0  0  0  0  0  0
  160.1410  206.0190  147.7480 C   0  0  0  0  0  3  0  0  0  0  0  0
  161.4790  202.6340  147.8000 C   0  0  2  0  0  3  0  0  0  0  0  0
  160.5850  202.0720  146.6730 C   0  0  0  0  0  0  0  0  0  0  0  0
  160.7530  200.6870  146.5930 O   0  0  0  0  0  1  0  0  0  0  0  0
  159.2400  202.3400  146.9400 O   0  0  0  0  0  1  0  0  0  0  0  0
  160.9490  202.6890  145.3240 C   0  0  0  0  0  2  0  0  0  0  0  0
  160.7790  204.1020  145.3450 O   0  0  0  0  0  0  0  0  0  0  0  0
  161.4760  205.5800  143.7420 O   0  0  0  0  0  0  0  0  0  0  0  0
  161.7340  204.9570  144.8030 C   0  0  0  0  0  0  0  0  0  0  0  0
  162.9610  205.1430  145.4320 O   0  0  0  0  0  1  0  0  0  0  0  0
  162.6580  201.7240  148.1530 C   0  0  0  0  0  2  0  0  0  0  0  0
  162.2190  200.5530  148.7700 O   0  0  0  0  0  1  0  0  0  0  0  0
  160.9940  210.4940  151.6560 C   0  0  0  0  0  2  0  0  0  0  0  0
  159.8470  211.3770  152.1060 C   0  0  0  0  0  2  0  0  0  0  0  0
  160.0260  212.7990  151.5960 C   0  0  1  0  0  3  0  0  0  0  0  0
  159.4310  212.9480  150.3390 O   0  0  0  0  0  0  0  0  0  0  0  0
  160.2810  213.8100  149.6400 C   0  0  0  0  0  2  0  0  0  0  0  0
  160.9720  212.9360  147.3300 N   0  0  0  0  0  0  0  0  0  0  0  0
  159.0540  214.2590  147.6630 O   0  0  0  0  0  0  0  0  0  0  0  0
  160.0550  213.6810  148.1640 C   0  0  0  0  0  0  0  0  0  0  0  0
  161.6150  213.3940  143.5380 C   0  0  0  0  0  2  0  0  0  0  0  0
  159.5840  212.2400  143.8370 C   0  0  0  0  0  2  0  0  0  0  0  0
  160.8760  212.1940  143.1590 N   0  0  0  0  0  2  0  0  0  0  0  0
  160.8410  212.8750  145.8900 C   0  0  0  0  0  0  0  0  0  0  0  0
  159.7620  212.3060  145.3280 C   0  0  0  0  0  3  0  0  0  0  0  0
  161.9980  213.3150  145.0160 C   0  0  0  0  0  2  0  0  0  0  0  0
  162.9950  211.8110  148.4200 N   0  0  0  0  0  0  0  0  0  0  0  0
  162.0830  212.3220  147.9270 C   0  0  0  0  0  0  0  0  0  0  0  0
  159.4010  213.7920  152.5670 C   0  0  0  0  0  2  0  0  0  0  0  0
  158.3960  213.1550  154.7880 C   0  0  0  0  0  0  0  0  0  0  0  0
  158.3680  213.1390  153.3560 N   0  0  0  0  0  2  0  0  0  0  0  0
  159.3890  213.6250  155.4010 O   0  0  0  0  0  0  0  0  0  0  0  0
  157.0660  211.1070  155.0390 C   0  0  2  0  0  3  0  0  0  0  0  0
  155.6330  210.7050  155.3190 C   0  0  0  0  0  1  0  0  0  0  0  0
  157.7960  211.3180  156.3450 C   0  0  0  0  0  2  0  0  0  0  0  0
  157.2880  212.5130  155.5610 C   0  0  1  0  0  3  0  0  0  0  0  0
  1  3  1  1  0  0  0
  2 31  1  1  0  0  0
  2  4  1  0  0  0  0
  2  1  1  0  0  0  0
  4  1  1  0  0  0  0
  4  3  1  1  0  0  0
  5  4  1  0  0  0  0
  5 16  1  1  0  0  0
  5 14  1  0  0  0  0
  6  9  1  1  0  0  0
  6  8  1  0  0  0  0
  7 12  1  0  0  0  0
  8  5  1  0  0  0  0
 10 19  1  1  0  0  0
 10  7  1  0  0  0  0
 10  6  1  0  0  0  0
 11 17  1  0  0  0  0
 12  8  2  0  0  0  0
 12 11  1  0  0  0  0
 14 16  1  1  0  0  0
 15  7  1  0  0  0  0
 15 13  2  0  0  0  0
 17 14  1  0  0  0  0
 18 19  2  0  0  0  0
 20 29  1  1  0  0  0
 20 15  1  0  0  0  0
 21 23  1  0  0  0  0
 21 20  1  0  0  0  0
 22 21  1  0  0  0  0
 24 25  1  0  0  0  0
 24 21  1  0  0  0  0
 26 27  2  0  0  0  0
 27 25  1  0  0  0  0
 27 28  1  0  0  0  0
 29 30  1  0  0  0  0
 31 32  1  0  0  0  0
 33 32  1  1  0  0  0
 33 47  1  0  0  0  0
 34 33  1  0  0  0  0
 35 34  1  0  0  0  0
 36 46  1  0  0  0  0
 36 38  1  0  0  0  0
 37 38  2  0  0  0  0
 38 35  1  0  0  0  0
 39 44  1  0  0  0  0
 40 43  1  0  0  0  0
 41 39  1  0  0  0  0
 41 40  1  0  0  0  0
 42 36  1  0  0  0  0
 43 42  2  0  0  0  0
 44 42  1  0  0  0  0
 46 45  3  0  0  0  0
 47 49  1  0  0  0  0
 48 50  2  0  0  0  0
 49 48  1  0  0  0  0
 51 52  1  1  0  0  0
 51 54  1  0  0  0  0
 51 53  1  0  0  0  0
 54 48  1  6  0  0  0
 54 53  1  0  0  0  0
M  END
>  <MODEL>
2

>  <REMARK>
 VINA RESULT:      -3.9      1.412      5.844
  Name = 
  19 active torsions:
  status: ('A' for Active; 'I' for Inactive)
    1  A    between atoms: C_1  and  C_30
    2  A    between atoms: C_5  and  C_21
    3  A    between atoms: C_5  and  C_29
    4  A    between atoms: C_13  and  C_50
    5  A    between atoms: C_14  and  C_21
    6  A    between atoms: N_16  and  C_20
    7  A    between atoms: N_16  and  C_45
    8  A    between atoms: C_19  and  C_25
    9  A    between atoms: C_21  and  C_41
   10  A    between atoms: C_24  and  C_25
   11  A    between atoms: C_24  and  C_51
   12  A    between atoms: C_29  and  O_53
   13  A    between atoms: C_31  and  C_49
   14  A    between atoms: C_35  and  O_53
   15  A    between atoms: N_36  and  C_42
   16  A    between atoms: C_42  and  C_51
   17  A    between atoms: C_43  and  O_47
   18  A    between atoms: C_43  and  C_54
   19  A    between atoms: O_47  and  C_51
                            x       y       z     vdW  Elec       q    Type
                         _______ _______ _______ _____ _____    ______ ____

>  <TORSDO>
F 19

$$$$
=
 OpenBabel11072410373D

 54 60  0  0  1  0  0  0  0  0999 V2000
  160.2900  208.0440  153.8750 C   0  0  2  0  0  3  0  0  0  0  0  0
  160.5580  208.9270  152.6810 C   0  0  2  0  0  3  0  0  0  0  0  0
  161.4640  207.8370  154.6250 O   0  0  0  0  0  0  0  0  0  0  0  0
  161.6360  208.0070  153.2360 C   0  0  1  0  0  0  0  0  0  0  0  0
  161.7950  206.6650  152.4780 C   0  0  2  0  0  0  0  0  0  0  0  0
  161.8250  207.6280  149.9560 C   0  0  1  0  0  3  0  0  0  0  0  0
  161.2760  205.5420  148.9590 N   0  0  0  0  0  0  0  0  0  0  0  0
  161.5690  206.5560  150.9740 C   0  0  0  0  0  0  0  0  0  0  0  0
  163.1630  208.0190  150.0010 O   0  0  0  0  0  1  0  0  0  0  0  0
  161.5550  206.9330  148.6160 C   0  0  1  0  0  3  0  0  0  0  0  0
  161.1450  204.1270  151.1140 C   0  0  0  0  0  2  0  0  0  0  0  0
  161.2550  205.4230  150.3750 C   0  0  0  0  0  0  0  0  0  0  0  0
  160.9420  203.3170  148.3410 O   0  0  0  0  0  0  0  0  0  0  0  0
  161.2700  205.4950  153.3220 C   0  0  2  0  0  3  0  0  0  0  0  0
  161.4140  204.4480  148.0440 C   0  0  0  0  0  0  0  0  0  0  0  0
  162.7610  205.6270  153.0520 C   0  0  0  0  0  2  0  0  0  0  0  0
  160.5860  204.3660  152.5170 C   0  0  0  0  0  2  0  0  0  0  0  0
  160.3850  207.7560  146.7200 O   0  0  0  0  0  0  0  0  0  0  0  0
  160.3730  207.5510  147.9260 C   0  0  0  0  0  3  0  0  0  0  0  0
  162.2070  204.6240  146.7720 C   0  0  2  0  0  3  0  0  0  0  0  0
  161.3770  204.6510  145.4700 C   0  0  0  0  0  0  0  0  0  0  0  0
  160.0940  205.1340  145.7450 O   0  0  0  0  0  1  0  0  0  0  0  0
  161.9740  205.4930  144.5290 O   0  0  0  0  0  1  0  0  0  0  0  0
  161.2550  203.2520  144.8680 C   0  0  0  0  0  2  0  0  0  0  0  0
  160.5050  202.3930  145.7190 O   0  0  0  0  0  0  0  0  0  0  0  0
  159.9180  200.5030  144.5690 O   0  0  0  0  0  0  0  0  0  0  0  0
  160.5160  201.0120  145.5500 C   0  0  0  0  0  0  0  0  0  0  0  0
  161.1980  200.1910  146.4430 O   0  0  0  0  0  1  0  0  0  0  0  0
  163.3820  203.6450  146.7270 C   0  0  0  0  0  2  0  0  0  0  0  0
  164.4190  204.1440  145.9410 O   0  0  0  0  0  1  0  0  0  0  0  0
  160.7720  210.3540  153.1460 C   0  0  0  0  0  2  0  0  0  0  0  0
  159.5490  211.1920  152.8280 C   0  0  0  0  0  2  0  0  0  0  0  0
  159.9510  212.5320  152.2300 C   0  0  1  0  0  3  0  0  0  0  0  0
  159.8360  212.5020  150.8370 O   0  0  0  0  0  0  0  0  0  0  0  0
  159.8140  213.8450  150.4490 C   0  0  0  0  0  2  0  0  0  0  0  0
  159.7510  213.7170  147.8890 N   0  0  0  0  0  0  0  0  0  0  0  0
  161.6650  214.3960  149.0780 O   0  0  0  0  0  0  0  0  0  0  0  0
  160.4660  214.0120  149.1110 C   0  0  0  0  0  0  0  0  0  0  0  0
  160.3530  214.2040  144.0930 C   0  0  0  0  0  2  0  0  0  0  0  0
  162.3290  213.3930  145.0850 C   0  0  0  0  0  2  0  0  0  0  0  0
  161.7830  214.4530  144.2430 N   0  0  0  0  0  2  0  0  0  0  0  0
  160.3790  213.7710  146.5860 C   0  0  0  0  0  0  0  0  0  0  0  0
  161.6500  213.3670  146.4260 C   0  0  0  0  0  3  0  0  0  0  0  0
  159.6500  214.4290  145.4320 C   0  0  0  0  0  2  0  0  0  0  0  0
  157.3240  212.9190  148.0430 N   0  0  0  0  0  0  0  0  0  0  0  0
  158.4210  213.2770  147.9710 C   0  0  0  0  0  0  0  0  0  0  0  0
  159.0690  213.6430  152.7820 C   0  0  0  0  0  2  0  0  0  0  0  0
  156.7310  213.1910  153.6060 C   0  0  0  0  0  0  0  0  0  0  0  0
  158.1510  213.1080  153.7760 N   0  0  0  0  0  2  0  0  0  0  0  0
  156.2400  213.8470  152.6520 O   0  0  0  0  0  0  0  0  0  0  0  0
  156.2940  211.1800  154.9430 C   0  0  2  0  0  3  0  0  0  0  0  0
  155.1110  210.3680  155.4300 C   0  0  0  0  0  1  0  0  0  0  0  0
  156.5710  212.3010  155.9180 C   0  0  0  0  0  2  0  0  0  0  0  0
  155.8230  212.5860  154.6300 C   0  0  1  0  0  3  0  0  0  0  0  0
  1  3  1  1  0  0  0
  2 31  1  1  0  0  0
  2  4  1  0  0  0  0
  2  1  1  0  0  0  0
  4  1  1  0  0  0  0
  4  3  1  1  0  0  0
  5 16  1  1  0  0  0
  5  4  1  0  0  0  0
  5 14  1  0  0  0  0
  6  9  1  6  0  0  0
  6  8  1  0  0  0  0
  7 12  1  0  0  0  0
  8  5  1  0  0  0  0
 10 19  1  1  0  0  0
 10  7  1  0  0  0  0
 10  6  1  0  0  0  0
 11 17  1  0  0  0  0
 12  8  2  0  0  0  0
 12 11  1  0  0  0  0
 14 17  1  6  0  0  0
 15 13  2  0  0  0  0
 15  7  1  0  0  0  0
 16 14  1  0  0  0  0
 18 19  2  0  0  0  0
 20 29  1  6  0  0  0
 20 15  1  0  0  0  0
 21 22  1  0  0  0  0
 21 20  1  0  0  0  0
 23 21  1  0  0  0  0
 24 21  1  0  0  0  0
 24 25  1  0  0  0  0
 26 27  2  0  0  0  0
 27 25  1  0  0  0  0
 27 28  1  0  0  0  0
 30 29  1  0  0  0  0
 32 31  1  0  0  0  0
 33 47  1  1  0  0  0
 33 32  1  0  0  0  0
 34 33  1  0  0  0  0
 35 34  1  0  0  0  0
 36 46  1  0  0  0  0
 36 38  1  0  0  0  0
 37 38  2  0  0  0  0
 38 35  1  0  0  0  0
 39 41  1  0  0  0  0
 39 44  1  0  0  0  0
 40 43  1  0  0  0  0
 41 40  1  0  0  0  0
 42 36  1  0  0  0  0
 43 42  2  0  0  0  0
 44 42  1  0  0  0  0
 46 45  3  0  0  0  0
 47 49  1  0  0  0  0
 48 49  1  0  0  0  0
 50 48  2  0  0  0  0
 51 52  1  1  0  0  0
 51 53  1  0  0  0  0
 54 48  1  6  0  0  0
 54 51  1  0  0  0  0
 54 53  1  0  0  0  0
M  END
>  <MODEL>
3

>  <REMARK>
 VINA RESULT:      -3.9      1.601      6.074
  Name = 
  19 active torsions:
  status: ('A' for Active; 'I' for Inactive)
    1  A    between atoms: C_1  and  C_30
    2  A    between atoms: C_5  and  C_21
    3  A    between atoms: C_5  and  C_29
    4  A    between atoms: C_13  and  C_50
    5  A    between atoms: C_14  and  C_21
    6  A    between atoms: N_16  and  C_20
    7  A    between atoms: N_16  and  C_45
    8  A    between atoms: C_19  and  C_25
    9  A    between atoms: C_21  and  C_41
   10  A    between atoms: C_24  and  C_25
   11  A    between atoms: C_24  and  C_51
   12  A    between atoms: C_29  and  O_53
   13  A    between atoms: C_31  and  C_49
   14  A    between atoms: C_35  and  O_53
   15  A    between atoms: N_36  and  C_42
   16  A    between atoms: C_42  and  C_51
   17  A    between atoms: C_43  and  O_47
   18  A    between atoms: C_43  and  C_54
   19  A    between atoms: O_47  and  C_51
                            x       y       z     vdW  Elec       q    Type
                         _______ _______ _______ _____ _____    ______ ____

>  <TORSDO>
F 19

$$$$
=
 OpenBabel11072410373D

 54 60  0  0  1  0  0  0  0  0999 V2000
  160.5690  210.7670  154.1870 C   0  0  2  0  0  3  0  0  0  0  0  0
  160.1260  210.5830  152.7550 C   0  0  2  0  0  3  0  0  0  0  0  0
  161.9710  210.8600  154.2740 O   0  0  0  0  0  0  0  0  0  0  0  0
  161.4670  210.0480  153.2380 C   0  0  1  0  0  0  0  0  0  0  0  0
  161.4710  208.5400  153.5960 C   0  0  2  0  0  0  0  0  0  0  0  0
  161.6360  207.5330  151.0970 C   0  0  1  0  0  3  0  0  0  0  0  0
  160.8510  205.3780  151.7180 N   0  0  0  0  0  0  0  0  0  0  0  0
  161.2460  207.4600  152.5440 C   0  0  0  0  0  0  0  0  0  0  0  0
  163.0100  207.7390  150.9830 O   0  0  0  0  0  1  0  0  0  0  0  0
  161.2960  206.1390  150.5550 C   0  0  1  0  0  3  0  0  0  0  0  0
  160.5350  205.8150  154.2420 C   0  0  0  0  0  2  0  0  0  0  0  0
  160.8040  206.2510  152.8380 C   0  0  0  0  0  0  0  0  0  0  0  0
  160.2590  203.3600  152.7300 O   0  0  0  0  0  0  0  0  0  0  0  0
  160.8030  208.3000  154.9570 C   0  0  2  0  0  3  0  0  0  0  0  0
  160.8650  203.9470  151.7920 C   0  0  0  0  0  0  0  0  0  0  0  0
  162.3010  208.0910  154.7990 C   0  0  0  0  0  2  0  0  0  0  0  0
  159.9960  206.9850  155.0650 C   0  0  0  0  0  2  0  0  0  0  0  0
  160.3770  206.8010  148.4680 O   0  0  0  0  0  0  0  0  0  0  0  0
  160.2020  206.2200  149.5300 C   0  0  0  0  0  3  0  0  0  0  0  0
  161.6830  203.1490  150.8070 C   0  0  2  0  0  3  0  0  0  0  0  0
  160.8730  202.3090  149.7960 C   0  0  0  0  0  0  0  0  0  0  0  0
  161.4630  201.0490  149.6590 O   0  0  0  0  0  1  0  0  0  0  0  0
  159.5620  202.1370  150.2450 O   0  0  0  0  0  1  0  0  0  0  0  0
  160.8370  202.9840  148.4260 C   0  0  0  0  0  2  0  0  0  0  0  0
  160.2090  202.1480  147.4600 O   0  0  0  0  0  0  0  0  0  0  0  0
  161.1850  202.8150  145.5000 O   0  0  0  0  0  0  0  0  0  0  0  0
  160.8120  201.8690  146.2390 C   0  0  0  0  0  0  0  0  0  0  0  0
  161.0260  200.5530  145.8350 O   0  0  0  0  0  1  0  0  0  0  0  0
  162.7710  202.3510  151.5290 C   0  0  0  0  0  2  0  0  0  0  0  0
  162.2310  201.2480  152.1860 O   0  0  0  0  0  1  0  0  0  0  0  0
  160.3040  211.8860  152.0010 C   0  0  0  0  0  2  0  0  0  0  0  0
  158.9890  212.3040  151.3720 C   0  0  0  0  0  2  0  0  0  0  0  0
  158.7580  213.7970  151.5410 C   0  0  1  0  0  3  0  0  0  0  0  0
  158.8500  214.4510  150.3070 O   0  0  0  0  0  0  0  0  0  0  0  0
  158.7030  213.4390  149.3530 C   0  0  0  0  0  2  0  0  0  0  0  0
  159.3280  213.5120  146.8670 N   0  0  0  0  0  0  0  0  0  0  0  0
  160.9130  213.8060  148.5820 O   0  0  0  0  0  0  0  0  0  0  0  0
  159.7120  213.6050  148.2590 C   0  0  0  0  0  0  0  0  0  0  0  0
  160.9460  213.9810  143.3790 C   0  0  0  0  0  2  0  0  0  0  0  0
  162.5840  213.2130  144.8870 C   0  0  0  0  0  2  0  0  0  0  0  0
  162.2760  214.2570  143.9150 N   0  0  0  0  0  2  0  0  0  0  0  0
  160.2900  213.5670  145.7880 C   0  0  0  0  0  0  0  0  0  0  0  0
  161.5620  213.1860  145.9890 C   0  0  0  0  0  3  0  0  0  0  0  0
  159.8980  214.2040  144.4700 C   0  0  0  0  0  2  0  0  0  0  0  0
  156.8750  213.0690  146.2880 N   0  0  0  0  0  0  0  0  0  0  0  0
  157.9830  213.2720  146.5510 C   0  0  0  0  0  0  0  0  0  0  0  0
  157.3840  214.0550  152.1440 C   0  0  0  0  0  2  0  0  0  0  0  0
  155.9790  213.1660  154.0370 C   0  0  0  0  0  0  0  0  0  0  0  0
  157.2550  213.3590  153.4140 N   0  0  0  0  0  2  0  0  0  0  0  0
  154.9490  213.7090  153.5620 O   0  0  0  0  0  0  0  0  0  0  0  0
  157.0080  212.8370  156.2410 C   0  0  2  0  0  3  0  0  0  0  0  0
  157.3190  211.7050  157.1970 C   0  0  0  0  0  1  0  0  0  0  0  0
  155.6020  213.3320  156.4840 C   0  0  0  0  0  2  0  0  0  0  0  0
  155.8860  212.4030  155.3200 C   0  0  1  0  0  3  0  0  0  0  0  0
  1  3  1  6  0  0  0
  2 31  1  6  0  0  0
  2  4  1  0  0  0  0
  2  1  1  0  0  0  0
  4  5  1  0  0  0  0
  4  1  1  0  0  0  0
  4  3  1  6  0  0  0
  5 16  1  1  0  0  0
  5 14  1  0  0  0  0
  6  9  1  1  0  0  0
  6  8  1  0  0  0  0
  7 15  1  0  0  0  0
  7 12  1  0  0  0  0
  8 12  2  0  0  0  0
  8  5  1  0  0  0  0
 10 19  1  6  0  0  0
 10  6  1  0  0  0  0
 10  7  1  0  0  0  0
 11 17  1  0  0  0  0
 12 11  1  0  0  0  0
 14 16  1  1  0  0  0
 14 17  1  0  0  0  0
 15 13  2  0  0  0  0
 18 19  2  0  0  0  0
 20 29  1  1  0  0  0
 20 15  1  0  0  0  0
 21 23  1  0  0  0  0
 21 20  1  0  0  0  0
 22 21  1  0  0  0  0
 24 21  1  0  0  0  0
 25 24  1  0  0  0  0
 26 27  2  0  0  0  0
 27 25  1  0  0  0  0
 28 27  1  0  0  0  0
 29 30  1  0  0  0  0
 32 31  1  0  0  0  0
 33 32  1  6  0  0  0
 33 47  1  0  0  0  0
 34 33  1  0  0  0  0
 35 34  1  0  0  0  0
 36 38  1  0  0  0  0
 38 37  2  0  0  0  0
 38 35  1  0  0  0  0
 39 41  1  0  0  0  0
 39 44  1  0  0  0  0
 40 43  1  0  0  0  0
 41 40  1  0  0  0  0
 42 43  2  0  0  0  0
 42 36  1  0  0  0  0
 44 42  1  0  0  0  0
 45 46  3  0  0  0  0
 46 36  1  0  0  0  0
 47 49  1  0  0  0  0
 49 48  1  0  0  0  0
 50 48  2  0  0  0  0
 51 53  1  0  0  0  0
 51 52  1  1  0  0  0
 54 48  1  6  0  0  0
 54 51  1  0  0  0  0
 54 53  1  0  0  0  0
M  END
>  <MODEL>
4

>  <REMARK>
 VINA RESULT:      -3.6      1.989      6.576
  Name = 
  19 active torsions:
  status: ('A' for Active; 'I' for Inactive)
    1  A    between atoms: C_1  and  C_30
    2  A    between atoms: C_5  and  C_21
    3  A    between atoms: C_5  and  C_29
    4  A    between atoms: C_13  and  C_50
    5  A    between atoms: C_14  and  C_21
    6  A    between atoms: N_16  and  C_20
    7  A    between atoms: N_16  and  C_45
    8  A    between atoms: C_19  and  C_25
    9  A    between atoms: C_21  and  C_41
   10  A    between atoms: C_24  and  C_25
   11  A    between atoms: C_24  and  C_51
   12  A    between atoms: C_29  and  O_53
   13  A    between atoms: C_31  and  C_49
   14  A    between atoms: C_35  and  O_53
   15  A    between atoms: N_36  and  C_42
   16  A    between atoms: C_42  and  C_51
   17  A    between atoms: C_43  and  O_47
   18  A    between atoms: C_43  and  C_54
   19  A    between atoms: O_47  and  C_51
                            x       y       z     vdW  Elec       q    Type
                         _______ _______ _______ _____ _____    ______ ____

>  <TORSDO>
F 19

$$$$
=
 OpenBabel11072410373D

 54 60  0  0  1  0  0  0  0  0999 V2000
  161.3600  208.4930  148.5230 C   0  0  2  0  0  3  0  0  0  0  0  0
  161.3110  207.0750  148.0060 C   0  0  2  0  0  3  0  0  0  0  0  0
  162.5920  208.7590  149.1510 O   0  0  0  0  0  0  0  0  0  0  0  0
  162.1230  207.4330  149.2430 C   0  0  1  0  0  0  0  0  0  0  0  0
  161.4160  207.1330  150.5900 C   0  0  2  0  0  0  0  0  0  0  0  0
  161.8020  209.5230  151.7870 C   0  0  1  0  0  3  0  0  0  0  0  0
  161.4260  208.6900  153.9800 N   0  0  0  0  0  0  0  0  0  0  0  0
  161.5800  208.0390  151.8060 C   0  0  0  0  0  0  0  0  0  0  0  0
  160.7530  210.1530  151.1190 O   0  0  0  0  0  1  0  0  0  0  0  0
  161.7590  209.9190  153.2680 C   0  0  1  0  0  3  0  0  0  0  0  0
  160.9430  206.2300  153.3610 C   0  0  0  0  0  2  0  0  0  0  0  0
  161.3910  207.6210  153.0430 C   0  0  0  0  0  0  0  0  0  0  0  0
  160.7950  207.5670  155.9260 O   0  0  0  0  0  0  0  0  0  0  0  0
  161.3990  205.6250  150.8740 C   0  0  2  0  0  3  0  0  0  0  0  0
  160.8430  208.6540  155.2880 C   0  0  0  0  0  0  0  0  0  0  0  0
  160.1030  206.3520  150.5520 C   0  0  0  0  0  2  0  0  0  0  0  0
  161.5470  205.2410  152.3650 C   0  0  0  0  0  2  0  0  0  0  0  0
  163.2990  210.7120  154.8910 O   0  0  0  0  0  0  0  0  0  0  0  0
  163.0930  210.4420  153.7170 C   0  0  0  0  0  3  0  0  0  0  0  0
  160.2020  209.8940  155.8610 C   0  0  2  0  0  3  0  0  0  0  0  0
  159.3290  210.7070  154.8800 C   0  0  0  0  0  0  0  0  0  0  0  0
  160.0640  211.7930  154.3950 O   0  0  0  0  0  1  0  0  0  0  0  0
  158.9460  209.9130  153.7970 O   0  0  0  0  0  1  0  0  0  0  0  0
  158.0730  211.2340  155.5700 C   0  0  0  0  0  2  0  0  0  0  0  0
  157.0330  211.4720  154.6280 O   0  0  0  0  0  0  0  0  0  0  0  0
  155.4700  213.1420  154.5460 O   0  0  0  0  0  1  0  0  0  0  0  0
  156.6400  212.7620  154.2890 C   0  0  0  0  0  0  0  0  0  0  0  0
  157.5350  213.6430  153.6870 O   0  0  0  0  0  0  0  0  0  0  0  0
  161.2360  210.7430  156.6040 C   0  0  0  0  0  2  0  0  0  0  0  0
  160.7150  211.9930  156.9330 O   0  0  0  0  0  1  0  0  0  0  0  0
  162.2060  206.9510  146.7890 C   0  0  0  0  0  2  0  0  0  0  0  0
  161.3950  206.4900  145.5940 C   0  0  0  0  0  2  0  0  0  0  0  0
  162.3050  206.0380  144.4620 C   0  0  1  0  0  3  0  0  0  0  0  0
  162.9600  204.8500  144.8050 O   0  0  0  0  0  0  0  0  0  0  0  0
  161.9400  203.9030  144.9370 C   0  0  0  0  0  2  0  0  0  0  0  0
  161.0300  202.2850  146.7050 N   0  0  0  0  0  0  0  0  0  0  0  0
  162.5470  204.0080  147.2240 O   0  0  0  0  0  0  0  0  0  0  0  0
  161.8700  203.4060  146.3480 C   0  0  0  0  0  0  0  0  0  0  0  0
  160.8890  200.0750  149.8840 C   0  0  0  0  0  2  0  0  0  0  0  0
  160.2050  202.2600  150.4380 C   0  0  0  0  0  2  0  0  0  0  0  0
  161.1280  201.1880  150.7970 N   0  0  0  0  0  2  0  0  0  0  0  0
  160.8600  201.8420  148.0720 C   0  0  0  0  0  0  0  0  0  0  0  0
  160.4090  202.6890  149.0110 C   0  0  0  0  0  3  0  0  0  0  0  0
  161.3400  200.4620  148.4750 C   0  0  0  0  0  2  0  0  0  0  0  0
  159.6670  201.1320  144.8710 N   0  0  0  0  0  0  0  0  0  0  0  0
  160.2800  201.6540  145.7010 C   0  0  0  0  0  0  0  0  0  0  0  0
  161.4990  205.8180  143.1900 C   0  0  0  0  0  2  0  0  0  0  0  0
  162.0480  206.7380  140.9110 C   0  0  0  0  0  0  0  0  0  0  0  0
  161.6810  206.9380  142.2800 N   0  0  0  0  0  2  0  0  0  0  0  0
  162.3500  205.5920  140.4910 O   0  0  0  0  0  0  0  0  0  0  0  0
  161.5380  207.5840  138.6630 C   0  0  2  0  0  3  0  0  0  0  0  0
  162.1890  208.4300  137.5880 C   0  0  0  0  0  1  0  0  0  0  0  0
  160.8170  208.4810  139.6420 C   0  0  0  0  0  2  0  0  0  0  0  0
  162.1790  207.9160  139.9960 C   0  0  1  0  0  3  0  0  0  0  0  0
  1  3  1  6  0  0  0
  1  4  1  0  0  0  0
  2 31  1  6  0  0  0
  2  1  1  0  0  0  0
  2  4  1  0  0  0  0
  4  3  1  6  0  0  0
  4  5  1  0  0  0  0
  5 16  1  6  0  0  0
  5 14  1  0  0  0  0
  5  8  1  0  0  0  0
  6  9  1  6  0  0  0
  6  8  1  0  0  0  0
  6 10  1  0  0  0  0
  7 15  1  0  0  0  0
  8 12  2  0  0  0  0
 10 19  1  1  0  0  0
 10  7  1  0  0  0  0
 12 11  1  0  0  0  0
 12  7  1  0  0  0  0
 14 16  1  1  0  0  0
 14 17  1  0  0  0  0
 15 20  1  0  0  0  0
 15 13  2  0  0  0  0
 17 11  1  0  0  0  0
 19 18  2  0  0  0  0
 20 29  1  6  0  0  0
 21 24  1  0  0  0  0
 21 20  1  0  0  0  0
 22 21  1  0  0  0  0
 23 21  1  0  0  0  0
 25 24  1  0  0  0  0
 27 26  1  0  0  0  0
 27 25  1  0  0  0  0
 28 27  2  0  0  0  0
 29 30  1  0  0  0  0
 32 31  1  0  0  0  0
 33 47  1  6  0  0  0
 33 34  1  0  0  0  0
 33 32  1  0  0  0  0
 34 35  1  0  0  0  0
 35 38  1  0  0  0  0
 36 42  1  0  0  0  0
 38 36  1  0  0  0  0
 38 37  2  0  0  0  0
 39 41  1  0  0  0  0
 40 41  1  0  0  0  0
 42 44  1  0  0  0  0
 42 43  2  0  0  0  0
 43 40  1  0  0  0  0
 44 39  1  0  0  0  0
 45 46  3  0  0  0  0
 46 36  1  0  0  0  0
 48 49  1  0  0  0  0
 49 47  1  0  0  0  0
 50 48  2  0  0  0  0
 51 52  1  6  0  0  0
 51 53  1  0  0  0  0
 51 54  1  0  0  0  0
 53 54  1  0  0  0  0
 54 48  1  1  0  0  0
M  END
>  <MODEL>
5

>  <REMARK>
 VINA RESULT:      -1.7      3.285      9.850
  Name = 
  19 active torsions:
  status: ('A' for Active; 'I' for Inactive)
    1  A    between atoms: C_1  and  C_30
    2  A    between atoms: C_5  and  C_21
    3  A    between atoms: C_5  and  C_29
    4  A    between atoms: C_13  and  C_50
    5  A    between atoms: C_14  and  C_21
    6  A    between atoms: N_16  and  C_20
    7  A    between atoms: N_16  and  C_45
    8  A    between atoms: C_19  and  C_25
    9  A    between atoms: C_21  and  C_41
   10  A    between atoms: C_24  and  C_25
   11  A    between atoms: C_24  and  C_51
   12  A    between atoms: C_29  and  O_53
   13  A    between atoms: C_31  and  C_49
   14  A    between atoms: C_35  and  O_53
   15  A    between atoms: N_36  and  C_42
   16  A    between atoms: C_42  and  C_51
   17  A    between atoms: C_43  and  O_47
   18  A    between atoms: C_43  and  C_54
   19  A    between atoms: O_47  and  C_51
                            x       y       z     vdW  Elec       q    Type
                         _______ _______ _______ _____ _____    ______ ____

>  <TORSDO>
F 19

$$$$
=
 OpenBabel11072410373D

 54 60  0  0  1  0  0  0  0  0999 V2000
  162.8700  209.9580  148.4340 C   0  0  2  0  0  3  0  0  0  0  0  0
  162.6990  210.7310  149.7200 C   0  0  2  0  0  3  0  0  0  0  0  0
  161.6240  209.7010  147.8300 O   0  0  0  0  0  0  0  0  0  0  0  0
  161.6300  209.7600  149.2390 C   0  0  1  0  0  0  0  0  0  0  0  0
  161.6810  208.3600  149.9020 C   0  0  2  0  0  0  0  0  0  0  0  0
  161.6080  206.8510  147.6640 C   0  0  1  0  0  3  0  0  0  0  0  0
  160.9050  204.8830  148.7950 N   0  0  0  0  0  0  0  0  0  0  0  0
  161.3630  207.0870  149.1250 C   0  0  0  0  0  0  0  0  0  0  0  0
  162.9640  207.0120  147.3760 O   0  0  0  0  0  1  0  0  0  0  0  0
  161.2280  205.3790  147.4610 C   0  0  1  0  0  3  0  0  0  0  0  0
  160.8350  205.8420  151.1910 C   0  0  0  0  0  2  0  0  0  0  0  0
  160.9610  205.9720  149.7070 C   0  0  0  0  0  0  0  0  0  0  0  0
  160.4320  203.1290  150.2590 O   0  0  0  0  0  0  0  0  0  0  0  0
  161.1520  208.4180  151.3410 C   0  0  2  0  0  3  0  0  0  0  0  0
  160.9390  203.5000  149.1650 C   0  0  0  0  0  0  0  0  0  0  0  0
  162.6290  208.1610  151.0850 C   0  0  0  0  0  2  0  0  0  0  0  0
  160.3700  207.1650  151.7990 C   0  0  0  0  0  2  0  0  0  0  0  0
  160.0420  205.7660  145.4410 O   0  0  0  0  0  0  0  0  0  0  0  0
  160.0390  205.2590  146.5530 C   0  0  0  0  0  3  0  0  0  0  0  0
  161.6620  202.5040  148.2940 C   0  0  2  0  0  3  0  0  0  0  0  0
  160.8070  201.8350  147.1950 C   0  0  0  0  0  0  0  0  0  0  0  0
  159.4540  201.9400  147.5310 O   0  0  0  0  0  1  0  0  0  0  0  0
  161.0080  202.4700  145.9670 O   0  0  0  0  0  1  0  0  0  0  0  0
  161.1620  200.3570  147.0470 C   0  0  0  0  0  2  0  0  0  0  0  0
  160.8570  199.8870  145.7380 O   0  0  0  0  0  0  0  0  0  0  0  0
  160.4750  197.7810  144.9270 O   0  0  0  0  0  0  0  0  0  0  0  0
  161.3080  198.6510  145.2870 C   0  0  0  0  0  0  0  0  0  0  0  0
  162.6700  198.3740  145.2110 O   0  0  0  0  0  1  0  0  0  0  0  0
  162.4450  201.5050  149.1490 C   0  0  0  0  0  2  0  0  0  0  0  0
  161.5870  200.6080  149.7820 O   0  0  0  0  0  1  0  0  0  0  0  0
  162.3130  212.1620  149.4010 C   0  0  0  0  0  2  0  0  0  0  0  0
  160.9070  212.4420  149.8960 C   0  0  0  0  0  2  0  0  0  0  0  0
  160.6090  213.9330  149.8670 C   0  0  1  0  0  3  0  0  0  0  0  0
  160.8280  214.4520  148.5860 O   0  0  0  0  0  0  0  0  0  0  0  0
  159.6830  214.1110  147.8600 C   0  0  0  0  0  2  0  0  0  0  0  0
  159.1080  213.3100  145.4930 N   0  0  0  0  0  0  0  0  0  0  0  0
  161.1030  214.4530  145.9950 O   0  0  0  0  0  0  0  0  0  0  0  0
  160.0090  213.9810  146.4030 C   0  0  0  0  0  0  0  0  0  0  0  0
  160.9370  212.2050  142.2620 C   0  0  0  0  0  2  0  0  0  0  0  0
  158.9630  213.3470  141.6730 C   0  0  0  0  0  2  0  0  0  0  0  0
  159.7130  212.1100  141.4730 N   0  0  0  0  0  2  0  0  0  0  0  0
  159.4360  213.0780  144.1020 C   0  0  0  0  0  0  0  0  0  0  0  0
  158.6450  213.5540  143.1270 C   0  0  0  0  0  3  0  0  0  0  0  0
  160.5930  212.1640  143.7510 C   0  0  0  0  0  2  0  0  0  0  0  0
  156.9150  212.3540  146.4000 N   0  0  0  0  0  0  0  0  0  0  0  0
  157.9070  212.7850  145.9920 C   0  0  0  0  0  0  0  0  0  0  0  0
  159.1640  214.1920  150.2720 C   0  0  0  0  0  2  0  0  0  0  0  0
  158.6670  213.1840  152.5270 C   0  0  0  0  0  0  0  0  0  0  0  0
  159.0610  214.2990  151.7190 N   0  0  0  0  0  2  0  0  0  0  0  0
  158.2730  212.1170  151.9920 O   0  0  0  0  0  0  0  0  0  0  0  0
  157.9000  212.1280  154.6060 C   0  0  2  0  0  3  0  0  0  0  0  0
  157.2950  212.5320  155.9340 C   0  0  0  0  0  1  0  0  0  0  0  0
  159.4060  212.2170  154.6900 C   0  0  0  0  0  2  0  0  0  0  0  0
  158.6200  213.3240  154.0160 C   0  0  1  0  0  3  0  0  0  0  0  0
  1  3  1  6  0  0  0
  1  4  1  0  0  0  0
  1  2  1  0  0  0  0
  2 31  1  6  0  0  0
  4  3  1  6  0  0  0
  4  2  1  0  0  0  0
  4  5  1  0  0  0  0
  5 16  1  1  0  0  0
  5 14  1  0  0  0  0
  6  9  1  1  0  0  0
  6  8  1  0  0  0  0
  7 15  1  0  0  0  0
  7 12  1  0  0  0  0
  8 12  2  0  0  0  0
  8  5  1  0  0  0  0
 10 19  1  6  0  0  0
 10  6  1  0  0  0  0
 10  7  1  0  0  0  0
 11 17  1  0  0  0  0
 12 11  1  0  0  0  0
 14 16  1  1  0  0  0
 14 17  1  0  0  0  0
 15 13  2  0  0  0  0
 18 19  2  0  0  0  0
 20 29  1  1  0  0  0
 20 15  1  0  0  0  0
 21 22  1  0  0  0  0
 21 20  1  0  0  0  0
 23 21  1  0  0  0  0
 24 21  1  0  0  0  0
 25 24  1  0  0  0  0
 26 27  2  0  0  0  0
 27 25  1  0  0  0  0
 28 27  1  0  0  0  0
 29 30  1  0  0  0  0
 31 32  1  0  0  0  0
 33 32  1  6  0  0  0
 33 47  1  0  0  0  0
 34 33  1  0  0  0  0
 35 34  1  0  0  0  0
 36 46  1  0  0  0  0
 36 38  1  0  0  0  0
 37 38  2  0  0  0  0
 38 35  1  0  0  0  0
 39 44  1  0  0  0  0
 40 43  1  0  0  0  0
 41 40  1  0  0  0  0
 41 39  1  0  0  0  0
 42 36  1  0  0  0  0
 43 42  2  0  0  0  0
 44 42  1  0  0  0  0
 46 45  3  0  0  0  0
 47 49  1  0  0  0  0
 49 48  1  0  0  0  0
 50 48  2  0  0  0  0
 51 53  1  0  0  0  0
 51 52  1  1  0  0  0
 54 48  1  6  0  0  0
 54 51  1  0  0  0  0
 54 53  1  0  0  0  0
M  END
>  <MODEL>
6

>  <REMARK>
 VINA RESULT:      -1.6      2.039      6.465
  Name = 
  19 active torsions:
  status: ('A' for Active; 'I' for Inactive)
    1  A    between atoms: C_1  and  C_30
    2  A    between atoms: C_5  and  C_21
    3  A    between atoms: C_5  and  C_29
    4  A    between atoms: C_13  and  C_50
    5  A    between atoms: C_14  and  C_21
    6  A    between atoms: N_16  and  C_20
    7  A    between atoms: N_16  and  C_45
    8  A    between atoms: C_19  and  C_25
    9  A    between atoms: C_21  and  C_41
   10  A    between atoms: C_24  and  C_25
   11  A    between atoms: C_24  and  C_51
   12  A    between atoms: C_29  and  O_53
   13  A    between atoms: C_31  and  C_49
   14  A    between atoms: C_35  and  O_53
   15  A    between atoms: N_36  and  C_42
   16  A    between atoms: C_42  and  C_51
   17  A    between atoms: C_43  and  O_47
   18  A    between atoms: C_43  and  C_54
   19  A    between atoms: O_47  and  C_51
                            x       y       z     vdW  Elec       q    Type
                         _______ _______ _______ _____ _____    ______ ____

>  <TORSDO>
F 19

$$$$
=
 OpenBabel11072410373D

 54 60  0  0  1  0  0  0  0  0999 V2000
  161.9040  208.2710  152.3840 C   0  0  2  0  0  3  0  0  0  0  0  0
  160.4350  208.5930  152.2500 C   0  0  2  0  0  3  0  0  0  0  0  0
  162.6990  209.3080  151.8590 O   0  0  0  0  0  0  0  0  0  0  0  0
  161.4490  209.1100  151.2380 C   0  0  1  0  0  0  0  0  0  0  0  0
  161.5460  208.2760  149.9350 C   0  0  2  0  0  0  0  0  0  0  0  0
  161.0170  205.8420  150.9760 C   0  0  1  0  0  3  0  0  0  0  0  0
  161.9540  204.6540  149.1430 N   0  0  0  0  0  0  0  0  0  0  0  0
  161.6330  206.7540  149.9560 C   0  0  0  0  0  0  0  0  0  0  0  0
  159.6360  206.0350  151.0160 O   0  0  0  0  0  1  0  0  0  0  0  0
  161.3070  204.4370  150.4340 C   0  0  1  0  0  3  0  0  0  0  0  0
  162.6530  206.6840  147.7090 C   0  0  0  0  0  2  0  0  0  0  0  0
  162.1510  206.0510  148.9680 C   0  0  0  0  0  0  0  0  0  0  0  0
  162.7570  203.8530  147.1040 O   0  0  0  0  0  0  0  0  0  0  0  0
  162.4280  208.9850  148.8980 C   0  0  2  0  0  3  0  0  0  0  0  0
  161.9930  203.6810  148.0930 C   0  0  0  0  0  0  0  0  0  0  0  0
  160.9310  208.8600  148.6630 C   0  0  0  0  0  2  0  0  0  0  0  0
  163.2800  208.0430  148.0160 C   0  0  0  0  0  2  0  0  0  0  0  0
  161.9190  202.5840  151.7870 O   0  0  0  0  0  0  0  0  0  0  0  0
  162.2220  203.6890  151.3600 C   0  0  0  0  0  3  0  0  0  0  0  0
  161.0530  202.5010  148.1230 C   0  0  2  0  0  3  0  0  0  0  0  0
  160.7110  201.8870  146.7480 C   0  0  0  0  0  0  0  0  0  0  0  0
  161.1930  200.5760  146.6910 O   0  0  0  0  0  1  0  0  0  0  0  0
  159.3280  201.8590  146.5570 O   0  0  0  0  0  1  0  0  0  0  0  0
  161.3450  202.6910  145.6140 C   0  0  0  0  0  2  0  0  0  0  0  0
  160.3630  203.4400  144.9060 O   0  0  0  0  0  0  0  0  0  0  0  0
  159.5480  205.5570  145.2060 O   0  0  0  0  0  1  0  0  0  0  0  0
  160.4650  204.8190  144.7640 C   0  0  0  0  0  0  0  0  0  0  0  0
  161.5780  205.3920  144.1540 O   0  0  0  0  0  0  0  0  0  0  0  0
  159.8210  202.8130  148.9750 C   0  0  0  0  0  2  0  0  0  0  0  0
  159.4110  201.6910  149.6920 O   0  0  0  0  0  1  0  0  0  0  0  0
  160.0640  209.6760  153.2450 C   0  0  0  0  0  2  0  0  0  0  0  0
  159.1420  210.6870  152.5910 C   0  0  0  0  0  2  0  0  0  0  0  0
  159.7850  212.0640  152.5570 C   0  0  1  0  0  3  0  0  0  0  0  0
  160.5310  212.2280  151.3850 O   0  0  0  0  0  0  0  0  0  0  0  0
  159.9850  213.3580  150.7670 C   0  0  0  0  0  2  0  0  0  0  0  0
  159.3340  213.3560  148.2870 N   0  0  0  0  0  0  0  0  0  0  0  0
  161.5730  213.4110  149.0100 O   0  0  0  0  0  0  0  0  0  0  0  0
  160.3510  213.3850  149.3150 C   0  0  0  0  0  0  0  0  0  0  0  0
  160.8430  214.0850  144.7950 C   0  0  0  0  0  2  0  0  0  0  0  0
  159.3420  212.2790  144.6190 C   0  0  0  0  0  2  0  0  0  0  0  0
  160.7060  212.7090  144.3300 N   0  0  0  0  0  2  0  0  0  0  0  0
  159.6530  213.2800  146.8770 C   0  0  0  0  0  0  0  0  0  0  0  0
  159.0480  212.3760  146.0900 C   0  0  0  0  0  3  0  0  0  0  0  0
  160.7850  214.1190  146.3220 C   0  0  0  0  0  2  0  0  0  0  0  0
  156.8720  213.2740  148.9800 N   0  0  0  0  0  0  0  0  0  0  0  0
  157.9850  213.3110  148.6700 C   0  0  0  0  0  0  0  0  0  0  0  0
  158.7180  213.1480  152.6280 C   0  0  0  0  0  2  0  0  0  0  0  0
  156.6030  213.4080  153.9720 C   0  0  0  0  0  0  0  0  0  0  0  0
  157.9860  213.0500  153.8810 N   0  0  0  0  0  2  0  0  0  0  0  0
  156.0170  213.9430  152.9950 O   0  0  0  0  0  0  0  0  0  0  0  0
  156.7520  212.4810  156.2390 C   0  0  2  0  0  3  0  0  0  0  0  0
  155.8640  211.7760  157.2440 C   0  0  0  0  0  1  0  0  0  0  0  0
  156.5940  213.9760  156.3880 C   0  0  0  0  0  2  0  0  0  0  0  0
  155.8750  213.2470  155.2690 C   0  0  1  0  0  3  0  0  0  0  0  0
  1  3  1  1  0  0  0
  2  1  1  0  0  0  0
  2 31  1  1  0  0  0
  4  3  1  6  0  0  0
  4  2  1  0  0  0  0
  4  1  1  0  0  0  0
  5 16  1  6  0  0  0
  5  8  1  0  0  0  0
  5  4  1  0  0  0  0
  6  9  1  6  0  0  0
  7 10  1  0  0  0  0
  8  6  1  0  0  0  0
 10  6  1  0  0  0  0
 10 19  1  1  0  0  0
 11 17  1  0  0  0  0
 11 12  1  0  0  0  0
 12  7  1  0  0  0  0
 12  8  2  0  0  0  0
 13 15  2  0  0  0  0
 14 17  1  6  0  0  0
 14  5  1  0  0  0  0
 15 20  1  0  0  0  0
 15  7  1  0  0  0  0
 16 14  1  0  0  0  0
 19 18  2  0  0  0  0
 20 29  1  6  0  0  0
 21 20  1  0  0  0  0
 22 21  1  0  0  0  0
 23 21  1  0  0  0  0
 24 21  1  0  0  0  0
 25 24  1  0  0  0  0
 27 25  1  0  0  0  0
 27 26  1  0  0  0  0
 28 27  2  0  0  0  0
 29 30  1  0  0  0  0
 32 31  1  0  0  0  0
 33 32  1  6  0  0  0
 33 47  1  0  0  0  0
 34 33  1  0  0  0  0
 35 34  1  0  0  0  0
 36 46  1  0  0  0  0
 36 38  1  0  0  0  0
 37 38  2  0  0  0  0
 38 35  1  0  0  0  0
 39 44  1  0  0  0  0
 40 43  1  0  0  0  0
 41 40  1  0  0  0  0
 41 39  1  0  0  0  0
 42 36  1  0  0  0  0
 43 42  2  0  0  0  0
 44 42  1  0  0  0  0
 46 45  3  0  0  0  0
 47 49  1  0  0  0  0
 49 48  1  0  0  0  0
 50 48  2  0  0  0  0
 51 53  1  0  0  0  0
 51 52  1  1  0  0  0
 54 48  1  6  0  0  0
 54 51  1  0  0  0  0
 54 53  1  0  0  0  0
M  END
>  <MODEL>
7

>  <REMARK>
 VINA RESULT:      -1.5      1.688      6.187
  Name = 
  19 active torsions:
  status: ('A' for Active; 'I' for Inactive)
    1  A    between atoms: C_1  and  C_30
    2  A    between atoms: C_5  and  C_21
    3  A    between atoms: C_5  and  C_29
    4  A    between atoms: C_13  and  C_50
    5  A    between atoms: C_14  and  C_21
    6  A    between atoms: N_16  and  C_20
    7  A    between atoms: N_16  and  C_45
    8  A    between atoms: C_19  and  C_25
    9  A    between atoms: C_21  and  C_41
   10  A    between atoms: C_24  and  C_25
   11  A    between atoms: C_24  and  C_51
   12  A    between atoms: C_29  and  O_53
   13  A    between atoms: C_31  and  C_49
   14  A    between atoms: C_35  and  O_53
   15  A    between atoms: N_36  and  C_42
   16  A    between atoms: C_42  and  C_51
   17  A    between atoms: C_43  and  O_47
   18  A    between atoms: C_43  and  C_54
   19  A    between atoms: O_47  and  C_51
                            x       y       z     vdW  Elec       q    Type
                         _______ _______ _______ _____ _____    ______ ____

>  <TORSDO>
F 19

$$$$
=
 OpenBabel11072410373D

 54 60  0  0  1  0  0  0  0  0999 V2000
  160.8410  207.9860  153.6390 C   0  0  2  0  0  3  0  0  0  0  0  0
  160.3740  206.9870  154.6700 C   0  0  2  0  0  3  0  0  0  0  0  0
  162.1420  208.4400  153.9280 O   0  0  0  0  0  0  0  0  0  0  0  0
  161.3420  208.1030  155.0390 C   0  0  1  0  0  0  0  0  0  0  0  0
  160.6830  209.3370  155.7060 C   0  0  2  0  0  0  0  0  0  0  0  0
  159.4950  210.3890  153.5210 C   0  0  1  0  0  3  0  0  0  0  0  0
  159.2450  212.5510  154.4740 N   0  0  0  0  0  0  0  0  0  0  0  0
  160.1110  210.4890  154.8850 C   0  0  0  0  0  0  0  0  0  0  0  0
  158.4100  209.5120  153.5510 O   0  0  0  0  0  1  0  0  0  0  0  0
  158.9810  211.8070  153.2470 C   0  0  1  0  0  3  0  0  0  0  0  0
  160.2890  212.0580  156.7830 C   0  0  0  0  0  2  0  0  0  0  0  0
  159.9610  211.7080  155.3670 C   0  0  0  0  0  0  0  0  0  0  0  0
  158.9860  214.4520  155.8030 O   0  0  0  0  0  0  0  0  0  0  0  0
  161.4340  209.7330  156.9850 C   0  0  2  0  0  3  0  0  0  0  0  0
  158.5510  213.7470  154.8520 C   0  0  0  0  0  0  0  0  0  0  0  0
  160.0320  209.1500  157.0760 C   0  0  0  0  0  2  0  0  0  0  0  0
  161.4980  211.2530  157.2590 C   0  0  0  0  0  2  0  0  0  0  0  0
  159.7000  211.9000  150.9860 O   0  0  0  0  0  0  0  0  0  0  0  0
  159.7140  212.4230  152.0910 C   0  0  0  0  0  3  0  0  0  0  0  0
  157.2520  214.1090  154.1760 C   0  0  2  0  0  3  0  0  0  0  0  0
  155.9910  213.4260  154.7480 C   0  0  0  0  0  0  0  0  0  0  0  0
  154.9870  214.3810  154.9310 O   0  0  0  0  0  1  0  0  0  0  0  0
  155.5200  212.4520  153.8640 O   0  0  0  0  0  1  0  0  0  0  0  0
  156.2880  212.7630  156.0930 C   0  0  0  0  0  2  0  0  0  0  0  0
  156.3690  211.3490  155.9590 O   0  0  0  0  0  0  0  0  0  0  0  0
  154.4790  210.7860  157.1200 O   0  0  0  0  0  1  0  0  0  0  0  0
  155.2630  210.5330  156.1700 C   0  0  0  0  0  0  0  0  0  0  0  0
  155.0030  209.4540  155.3310 O   0  0  0  0  0  0  0  0  0  0  0  0
  157.3780  213.9820  152.6570 C   0  0  0  0  0  2  0  0  0  0  0  0
  156.1600  214.2380  152.0300 O   0  0  0  0  0  1  0  0  0  0  0  0
  161.1100  205.6760  154.4730 C   0  0  0  0  0  2  0  0  0  0  0  0
  161.8400  205.6860  153.1440 C   0  0  0  0  0  2  0  0  0  0  0  0
  160.9600  205.1260  152.0380 C   0  0  1  0  0  3  0  0  0  0  0  0
  161.4970  205.4310  150.7820 O   0  0  0  0  0  0  0  0  0  0  0  0
  160.3920  205.7600  149.9900 C   0  0  0  0  0  2  0  0  0  0  0  0
  161.1460  206.1760  147.5750 N   0  0  0  0  0  0  0  0  0  0  0  0
  160.2740  204.1120  148.2930 O   0  0  0  0  0  0  0  0  0  0  0  0
  160.6040  205.2920  148.5820 C   0  0  0  0  0  0  0  0  0  0  0  0
  160.3870  204.7540  144.0520 C   0  0  0  0  0  2  0  0  0  0  0  0
  162.5980  205.5650  144.0910 C   0  0  0  0  0  2  0  0  0  0  0  0
  161.3280  205.6390  143.3740 N   0  0  0  0  0  2  0  0  0  0  0  0
  161.2700  205.7910  146.1850 C   0  0  0  0  0  0  0  0  0  0  0  0
  162.4280  205.9690  145.5290 C   0  0  0  0  0  3  0  0  0  0  0  0
  160.0420  205.3280  145.4270 C   0  0  0  0  0  2  0  0  0  0  0  0
  161.7610  208.5720  148.2320 N   0  0  0  0  0  0  0  0  0  0  0  0
  161.4860  207.4880  147.9360 C   0  0  0  0  0  0  0  0  0  0  0  0
  160.8330  203.6150  152.1760 C   0  0  0  0  0  2  0  0  0  0  0  0
  161.0150  201.9700  150.2770 C   0  0  0  0  0  0  0  0  0  0  0  0
  161.6050  202.9510  151.1370 N   0  0  0  0  0  2  0  0  0  0  0  0
  159.8430  201.5620  150.4830 O   0  0  0  0  0  0  0  0  0  0  0  0
  160.9190  200.9350  148.0530 C   0  0  2  0  0  3  0  0  0  0  0  0
  161.5650  199.7930  147.2980 C   0  0  0  0  0  1  0  0  0  0  0  0
  161.7740  202.1740  147.9230 C   0  0  0  0  0  2  0  0  0  0  0  0
  161.8330  201.3450  149.1910 C   0  0  1  0  0  3  0  0  0  0  0  0
  1  3  1  6  0  0  0
  1  2  1  0  0  0  0
  1  4  1  0  0  0  0
  2 31  1  6  0  0  0
  2  4  1  0  0  0  0
  4  3  1  1  0  0  0
  4  5  1  0  0  0  0
  5 14  1  0  0  0  0
  5 16  1  1  0  0  0
  6  9  1  1  0  0  0
  6  8  1  0  0  0  0
  7 15  1  0  0  0  0
  7 12  1  0  0  0  0
  8 12  2  0  0  0  0
  8  5  1  0  0  0  0
 10 19  1  6  0  0  0
 10  6  1  0  0  0  0
 10  7  1  0  0  0  0
 11 17  1  0  0  0  0
 12 11  1  0  0  0  0
 14 16  1  1  0  0  0
 14 17  1  0  0  0  0
 15 13  2  0  0  0  0
 18 19  2  0  0  0  0
 20 29  1  6  0  0  0
 20 21  1  0  0  0  0
 20 15  1  0  0  0  0
 21 22  1  0  0  0  0
 21 24  1  0  0  0  0
 23 21  1  0  0  0  0
 25 24  1  0  0  0  0
 25 27  1  0  0  0  0
 27 26  1  0  0  0  0
 28 27  2  0  0  0  0
 30 29  1  0  0  0  0
 32 31  1  0  0  0  0
 33 47  1  1  0  0  0
 33 32  1  0  0  0  0
 34 33  1  0  0  0  0
 35 34  1  0  0  0  0
 36 46  1  0  0  0  0
 36 38  1  0  0  0  0
 37 38  2  0  0  0  0
 38 35  1  0  0  0  0
 39 44  1  0  0  0  0
 40 43  1  0  0  0  0
 41 39  1  0  0  0  0
 41 40  1  0  0  0  0
 42 36  1  0  0  0  0
 43 42  2  0  0  0  0
 44 42  1  0  0  0  0
 46 45  3  0  0  0  0
 48 50  2  0  0  0  0
 48 49  1  0  0  0  0
 49 47  1  0  0  0  0
 51 52  1  6  0  0  0
 51 54  1  0  0  0  0
 53 51  1  0  0  0  0
 53 54  1  0  0  0  0
 54 48  1  1  0  0  0
M  END
>  <MODEL>
8

>  <REMARK>
 VINA RESULT:      -1.4      3.130     10.961
  Name = 
  19 active torsions:
  status: ('A' for Active; 'I' for Inactive)
    1  A    between atoms: C_1  and  C_30
    2  A    between atoms: C_5  and  C_21
    3  A    between atoms: C_5  and  C_29
    4  A    between atoms: C_13  and  C_50
    5  A    between atoms: C_14  and  C_21
    6  A    between atoms: N_16  and  C_20
    7  A    between atoms: N_16  and  C_45
    8  A    between atoms: C_19  and  C_25
    9  A    between atoms: C_21  and  C_41
   10  A    between atoms: C_24  and  C_25
   11  A    between atoms: C_24  and  C_51
   12  A    between atoms: C_29  and  O_53
   13  A    between atoms: C_31  and  C_49
   14  A    between atoms: C_35  and  O_53
   15  A    between atoms: N_36  and  C_42
   16  A    between atoms: C_42  and  C_51
   17  A    between atoms: C_43  and  O_47
   18  A    between atoms: C_43  and  C_54
   19  A    between atoms: O_47  and  C_51
                            x       y       z     vdW  Elec       q    Type
                         _______ _______ _______ _____ _____    ______ ____

>  <TORSDO>
F 19

$$$$
