=
 OpenBabel11072415303D

 59 67  0  0  1  0  0  0  0  0999 V2000
  159.9570  212.0810  150.9000 C   0  0  0  0  0  2  0  0  0  0  0  0
  159.7740  213.3630  150.0890 C   0  0  1  0  0  3  0  0  0  0  0  0
  159.9520  213.4970  145.4300 C   0  0  2  0  0  3  0  0  0  0  0  0
  157.4420  213.0350  145.4020 C   0  0  0  0  0  2  0  0  0  0  0  0
  158.4370  214.4530  147.2740 C   0  0  2  0  0  3  0  0  0  0  0  0
  158.8500  212.4310  145.3530 C   0  0  0  0  0  2  0  0  0  0  0  0
  160.5540  213.7000  147.8360 C   0  0  0  0  0  2  0  0  0  0  0  0
  157.3490  214.3340  146.2090 C   0  0  0  0  0  2  0  0  0  0  0  0
  159.8380  214.3530  146.7070 C   0  0  1  0  0  3  0  0  0  0  0  0
  158.2790  213.4720  148.2710 O   0  0  0  0  0  0  0  0  0  0  0  0
  159.5320  213.0710  148.6600 N   0  0  0  0  0  0  0  0  0  0  0  0
  159.9460  214.3710  144.1780 C   0  0  0  0  0  2  0  0  0  0  0  0
  162.6390  212.8980  143.6750 Cl  0  0  0  0  0  0  0  0  0  0  0  0
  160.1270  211.9160  140.6620 C   0  0  0  0  0  3  0  0  0  0  0  0
  161.2070  212.7830  142.6520 C   0  0  0  0  0  0  0  0  0  0  0  0
  161.2390  211.9610  141.5140 C   0  0  0  0  0  0  0  0  0  0  0  0
  158.9530  213.4760  142.0790 C   0  0  0  0  0  3  0  0  0  0  0  0
  160.0510  213.5340  142.9410 C   0  0  0  0  0  0  0  0  0  0  0  0
  158.9850  212.6760  140.9330 C   0  0  0  0  0  0  0  0  0  0  0  0
  157.8110  212.5980  140.0440 C   0  0  0  0  0  0  0  0  0  0  0  0
  157.3690  211.3320  139.5540 N   0  0  0  0  0  2  0  0  0  0  0  0
  156.1930  211.2020  138.7070 C   0  0  0  0  0  1  0  0  0  0  0  0
  157.1880  213.6470  139.7260 O   0  0  0  0  0  0  0  0  0  0  0  0
  162.6950  210.7030  139.9550 C   0  0  0  0  0  1  0  0  0  0  0  0
  162.3780  211.1910  141.2510 O   0  0  0  0  0  0  0  0  0  0  0  0
  157.3260  213.9770  150.4330 C   0  0  0  0  0  1  0  0  0  0  0  0
  158.7690  214.3170  150.7780 C   0  0  1  0  0  3  0  0  0  0  0  0
  158.9800  214.4530  152.2860 C   0  0  0  0  0  2  0  0  0  0  0  0
  158.3740  213.3950  152.9680 O   0  0  0  0  0  0  0  0  0  0  0  0
  157.5240  214.0170  153.8820 C   0  0  0  0  0  1  0  0  0  0  0  0
  160.5180  210.9600  150.0330 C   0  0  0  0  0  2  0  0  0  0  0  0
  161.4190  209.0820  155.2030 C   0  0  0  0  0  0  0  0  0  0  0  0
  161.0780  206.6320  155.2600 F   0  0  0  0  0  0  0  0  0  0  0  0
  161.3110  210.1800  154.4350 C   0  0  0  0  0  3  0  0  0  0  0  0
  161.0320  209.9630  152.9730 C   0  0  1  0  0  3  0  0  0  0  0  0
  161.3880  207.7440  154.5510 C   0  0  0  0  0  0  0  0  0  0  0  0
  161.8950  210.4460  150.4980 C   0  0  1  0  0  0  0  0  0  0  0  0
  161.5660  209.1960  156.5770 O   0  0  0  0  0  1  0  0  0  0  0  0
  162.1010  210.2880  151.9870 C   0  0  1  0  0  0  0  0  0  0  0  0
  161.6350  207.6630  153.2300 C   0  0  0  0  0  3  0  0  0  0  0  0
  162.1090  208.9190  152.5190 C   0  0  1  0  0  0  0  0  0  0  0  0
  162.0910  209.0120  151.0020 C   0  0  2  0  0  0  0  0  0  0  0  0
  164.2820  211.2170  150.4930 O   0  0  0  0  0  1  0  0  0  0  0  0
  163.0400  211.3410  148.5780 O   0  0  0  0  0  0  0  0  0  0  0  0
  163.0920  211.0300  149.7980 C   0  0  0  0  0  0  0  0  0  0  0  0
  160.8680  208.2210  150.5210 C   0  0  0  0  0  0  0  0  0  0  0  0
  159.7540  208.3810  151.0080 O   0  0  0  0  0  0  0  0  0  0  0  0
  161.3320  203.5230  145.5620 C   0  0  0  0  0  3  0  0  0  0  0  0
  160.9230  205.7840  149.9940 C   0  0  0  0  0  2  0  0  0  0  0  0
  162.3230  207.4950  148.6080 C   0  0  2  0  0  3  0  0  0  0  0  0
  161.1840  206.0310  146.9640 N   0  0  2  0  0  0  0  0  0  0  0  0
  160.9620  204.7250  147.6560 C   0  0  1  0  0  3  0  0  0  0  0  0
  161.1740  205.9730  145.4860 C   0  0  0  0  0  2  0  0  0  0  0  0
  161.0500  207.2100  149.4310 C   0  0  2  0  0  3  0  0  0  0  0  0
  162.4640  206.6240  147.3510 C   0  0  0  0  0  2  0  0  0  0  0  0
  163.4730  207.3770  149.3940 O   0  0  0  0  0  1  0  0  0  0  0  0
  160.6170  204.6650  144.9160 C   0  0  0  0  0  2  0  0  0  0  0  0
  161.5080  203.5550  146.8830 C   0  0  0  0  0  3  0  0  0  0  0  0
  161.4900  204.6830  149.0960 C   0  0  0  0  0  2  0  0  0  0  0  0
  2 27  1  0  0  0  0
  2  1  1  1  0  0  0
  3 12  1  6  0  0  0
  3  9  1  0  0  0  0
  4  8  1  0  0  0  0
  5  8  1  6  0  0  0
  5 10  1  0  0  0  0
  6  4  1  0  0  0  0
  6  3  1  0  0  0  0
  7 11  1  0  0  0  0
  9  5  1  0  0  0  0
  9  7  1  1  0  0  0
 10 11  1  0  0  0  0
 11  2  1  0  0  0  0
 14 19  2  0  0  0  0
 14 16  1  0  0  0  0
 15 18  1  0  0  0  0
 15 13  1  0  0  0  0
 16 15  2  0  0  0  0
 17 18  2  0  0  0  0
 18 12  1  0  0  0  0
 19 17  1  0  0  0  0
 20 19  1  0  0  0  0
 21 20  1  0  0  0  0
 22 21  1  0  0  0  0
 23 20  2  0  0  0  0
 24 25  1  0  0  0  0
 25 16  1  0  0  0  0
 27 26  1  1  0  0  0
 27 28  1  0  0  0  0
 28 29  1  0  0  0  0
 29 30  1  0  0  0  0
 31  1  1  0  0  0  0
 32 38  1  0  0  0  0
 34 32  2  0  0  0  0
 35 34  1  1  0  0  0
 36 32  1  0  0  0  0
 36 33  1  0  0  0  0
 37 31  1  6  0  0  0
 37 42  1  0  0  0  0
 37 39  1  0  0  0  0
 39 41  1  0  0  0  0
 39 35  1  0  0  0  0
 40 36  2  0  0  0  0
 41 35  1  0  0  0  0
 41 40  1  0  0  0  0
 42 39  1  0  0  0  0
 42 41  1  0  0  0  0
 44 45  2  0  0  0  0
 45 43  1  0  0  0  0
 45 37  1  0  0  0  0
 46 42  1  0  0  0  0
 46 47  2  0  0  0  0
 48 58  2  0  0  0  0
 50 56  1  0  0  0  0
 50 54  1  0  0  0  0
 51 55  1  0  0  0  0
 51 52  1  0  0  0  0
 52 59  1  0  0  0  0
 53 51  1  0  0  0  0
 54 49  1  0  0  0  0
 54 46  1  0  0  0  0
 55 50  1  0  0  0  0
 57 53  1  0  0  0  0
 57 48  1  0  0  0  0
 58 52  1  0  0  0  0
 59 49  1  0  0  0  0
M  END
>  <MODEL>
1

>  <REMARK>
 VINA RESULT:      -0.8      0.000      0.000
  Name = 
  14 active torsions:
  status: ('A' for Active; 'I' for Inactive)
    1  A    between atoms: C_3  and  C_55
    2  A    between atoms: C_4  and  C_56
    3  A    between atoms: C_6  and  O_8
    4  A    between atoms: C_6  and  C_38
    5  A    between atoms: C_19  and  C_39
    6  A    between atoms: C_23  and  C_32
    7  A    between atoms: C_23  and  C_44
    8  A    between atoms: C_32  and  C_38
    9  A    between atoms: C_32  and  N_58
   10  A    between atoms: C_33  and  C_44
   11  A    between atoms: C_33  and  C_45
   12  A    between atoms: C_36  and  O_51
   13  A    between atoms: C_39  and  C_54
   14  A    between atoms: C_53  and  C_56
                            x       y       z     vdW  Elec       q    Type
                         _______ _______ _______ _____ _____    ______ ____

>  <TORSDO>
F 14

$$$$
=
 OpenBabel11072415303D

 59 67  0  0  1  0  0  0  0  0999 V2000
  161.7310  209.7440  148.8810 C   0  0  0  0  0  2  0  0  0  0  0  0
  161.1530  208.3650  149.1940 C   0  0  1  0  0  3  0  0  0  0  0  0
  160.3500  204.8980  146.1790 C   0  0  2  0  0  3  0  0  0  0  0  0
  161.5720  206.2670  144.4050 C   0  0  0  0  0  2  0  0  0  0  0  0
  162.3420  206.3870  146.8340 C   0  0  2  0  0  3  0  0  0  0  0  0
  160.2200  205.9140  145.0380 C   0  0  0  0  0  2  0  0  0  0  0  0
  160.5350  206.2270  148.2750 C   0  0  0  0  0  2  0  0  0  0  0  0
  162.7540  206.1870  145.3770 C   0  0  0  0  0  2  0  0  0  0  0  0
  161.2890  205.3990  147.2950 C   0  0  1  0  0  3  0  0  0  0  0  0
  161.8660  207.6930  147.0500 O   0  0  0  0  0  0  0  0  0  0  0  0
  160.8410  207.6150  147.9590 N   0  0  0  0  0  0  0  0  0  0  0  0
  160.8050  203.5410  145.6450 C   0  0  0  0  0  2  0  0  0  0  0  0
  160.7970  200.5310  144.8590 Cl  0  0  0  0  0  0  0  0  0  0  0  0
  161.2420  200.7460  148.8720 C   0  0  0  0  0  3  0  0  0  0  0  0
  160.9840  201.1580  146.4970 C   0  0  0  0  0  0  0  0  0  0  0  0
  161.1580  200.2570  147.5610 C   0  0  0  0  0  0  0  0  0  0  0  0
  161.0060  203.0080  148.0670 C   0  0  0  0  0  3  0  0  0  0  0  0
  160.9210  202.5410  146.7530 C   0  0  0  0  0  0  0  0  0  0  0  0
  161.1590  202.1170  149.1340 C   0  0  0  0  0  0  0  0  0  0  0  0
  161.2770  202.6190  150.5150 C   0  0  0  0  0  0  0  0  0  0  0  0
  161.1790  204.0200  150.7760 N   0  0  0  0  0  2  0  0  0  0  0  0
  161.2500  204.5580  152.1260 C   0  0  0  0  0  1  0  0  0  0  0  0
  161.4500  201.8140  151.4680 O   0  0  0  0  0  0  0  0  0  0  0  0
  161.6260  198.3730  146.0240 C   0  0  0  0  0  1  0  0  0  0  0  0
  161.2540  198.8870  147.2960 O   0  0  0  0  0  0  0  0  0  0  0  0
  163.4330  207.3790  149.7570 C   0  0  0  0  0  1  0  0  0  0  0  0
  162.0140  207.6290  150.2490 C   0  0  1  0  0  3  0  0  0  0  0  0
  161.9930  208.2840  151.6290 C   0  0  0  0  0  2  0  0  0  0  0  0
  160.8620  209.0890  151.7780 O   0  0  0  0  0  0  0  0  0  0  0  0
  160.5490  208.9970  153.1340 C   0  0  0  0  0  1  0  0  0  0  0  0
  160.8510  210.4940  147.8880 C   0  0  0  0  0  2  0  0  0  0  0  0
  159.6520  213.1160  143.1170 C   0  0  0  0  0  0  0  0  0  0  0  0
  157.5890  214.4490  143.4060 F   0  0  0  0  0  0  0  0  0  0  0  0
  160.4610  212.2170  143.7050 C   0  0  0  0  0  3  0  0  0  0  0  0
  160.2240  211.9400  145.1650 C   0  0  1  0  0  3  0  0  0  0  0  0
  158.6780  213.8640  143.9590 C   0  0  0  0  0  0  0  0  0  0  0  0
  161.3370  211.9260  147.5860 C   0  0  1  0  0  0  0  0  0  0  0  0
  159.7330  213.3470  141.7520 O   0  0  0  0  0  1  0  0  0  0  0  0
  161.2440  212.3930  146.1510 C   0  0  1  0  0  0  0  0  0  0  0  0
  158.8780  213.9140  145.2890 C   0  0  0  0  0  3  0  0  0  0  0  0
  160.1850  213.3580  145.8300 C   0  0  1  0  0  0  0  0  0  0  0  0
  160.3550  213.0690  147.3140 C   0  0  2  0  0  0  0  0  0  0  0  0
  163.0380  211.7030  149.4160 O   0  0  0  0  0  1  0  0  0  0  0  0
  163.3230  213.2740  147.7790 O   0  0  0  0  0  0  0  0  0  0  0  0
  162.6150  212.3480  148.2590 C   0  0  0  0  0  0  0  0  0  0  0  0
  158.9930  212.5940  147.8350 C   0  0  0  0  0  0  0  0  0  0  0  0
  158.1770  212.0310  147.1130 O   0  0  0  0  0  0  0  0  0  0  0  0
  157.1030  213.5220  154.3500 C   0  0  0  0  0  3  0  0  0  0  0  0
  157.4450  213.7960  149.3770 C   0  0  0  0  0  2  0  0  0  0  0  0
  159.8940  213.2420  150.0870 C   0  0  2  0  0  3  0  0  0  0  0  0
  158.4490  212.5790  151.9880 N   0  0  2  0  0  0  0  0  0  0  0  0
  157.2370  213.4500  151.9120 C   0  0  1  0  0  3  0  0  0  0  0  0
  158.7200  211.9880  153.3170 C   0  0  0  0  0  2  0  0  0  0  0  0
  158.6470  212.8430  149.2710 C   0  0  2  0  0  3  0  0  0  0  0  0
  159.6540  213.3120  151.6020 C   0  0  0  0  0  2  0  0  0  0  0  0
  160.4280  214.4530  149.6380 O   0  0  0  0  0  1  0  0  0  0  0  0
  157.5510  212.0970  154.2990 C   0  0  0  0  0  2  0  0  0  0  0  0
  156.9610  214.1790  153.1990 C   0  0  0  0  0  3  0  0  0  0  0  0
  157.2590  214.4490  150.7480 C   0  0  0  0  0  2  0  0  0  0  0  0
  2  1  1  6  0  0  0
  2 27  1  0  0  0  0
  3 12  1  6  0  0  0
  3  9  1  0  0  0  0
  4  6  1  0  0  0  0
  4  8  1  0  0  0  0
  5  8  1  6  0  0  0
  5 10  1  0  0  0  0
  5  9  1  0  0  0  0
  6  3  1  0  0  0  0
  9  7  1  1  0  0  0
 10 11  1  0  0  0  0
 11  7  1  0  0  0  0
 11  2  1  0  0  0  0
 12 18  1  0  0  0  0
 13 15  1  0  0  0  0
 14 19  1  0  0  0  0
 15 18  2  0  0  0  0
 15 16  1  0  0  0  0
 16 14  2  0  0  0  0
 17 19  2  0  0  0  0
 18 17  1  0  0  0  0
 19 20  1  0  0  0  0
 20 21  1  0  0  0  0
 20 23  2  0  0  0  0
 21 22  1  0  0  0  0
 24 25  1  0  0  0  0
 25 16  1  0  0  0  0
 27 26  1  6  0  0  0
 27 28  1  0  0  0  0
 28 29  1  0  0  0  0
 29 30  1  0  0  0  0
 31  1  1  0  0  0  0
 32 34  2  0  0  0  0
 32 36  1  0  0  0  0
 33 36  1  0  0  0  0
 35 34  1  6  0  0  0
 35 41  1  0  0  0  0
 35 39  1  0  0  0  0
 36 40  2  0  0  0  0
 37 31  1  1  0  0  0
 37 45  1  0  0  0  0
 38 32  1  0  0  0  0
 39 42  1  0  0  0  0
 39 37  1  0  0  0  0
 40 41  1  0  0  0  0
 41 39  1  0  0  0  0
 41 42  1  0  0  0  0
 42 37  1  0  0  0  0
 42 46  1  0  0  0  0
 44 45  2  0  0  0  0
 45 43  1  0  0  0  0
 46 54  1  0  0  0  0
 47 46  2  0  0  0  0
 49 59  1  0  0  0  0
 50 55  1  0  0  0  0
 51 53  1  0  0  0  0
 52 51  1  0  0  0  0
 52 58  1  0  0  0  0
 53 57  1  0  0  0  0
 54 49  1  0  0  0  0
 54 50  1  0  0  0  0
 55 51  1  0  0  0  0
 56 50  1  0  0  0  0
 57 48  1  0  0  0  0
 58 48  2  0  0  0  0
 59 52  1  0  0  0  0
M  END
>  <MODEL>
2

>  <REMARK>
 VINA RESULT:      -0.8      3.529     10.067
  Name = 
  14 active torsions:
  status: ('A' for Active; 'I' for Inactive)
    1  A    between atoms: C_3  and  C_55
    2  A    between atoms: C_4  and  C_56
    3  A    between atoms: C_6  and  O_8
    4  A    between atoms: C_6  and  C_38
    5  A    between atoms: C_19  and  C_39
    6  A    between atoms: C_23  and  C_32
    7  A    between atoms: C_23  and  C_44
    8  A    between atoms: C_32  and  C_38
    9  A    between atoms: C_32  and  N_58
   10  A    between atoms: C_33  and  C_44
   11  A    between atoms: C_33  and  C_45
   12  A    between atoms: C_36  and  O_51
   13  A    between atoms: C_39  and  C_54
   14  A    between atoms: C_53  and  C_56
                            x       y       z     vdW  Elec       q    Type
                         _______ _______ _______ _____ _____    ______ ____

>  <TORSDO>
F 14

$$$$
=
 OpenBabel11072415303D

 59 68  0  0  1  0  0  0  0  0999 V2000
  160.2720  210.8820  151.0600 C   0  0  0  0  0  2  0  0  0  0  0  0
  161.7760  210.6170  151.0560 C   0  0  1  0  0  3  0  0  0  0  0  0
  161.6990  205.9700  150.6660 C   0  0  2  0  0  3  0  0  0  0  0  0
  162.0630  205.8330  153.1880 C   0  0  0  0  0  2  0  0  0  0  0  0
  160.6650  207.7350  152.2220 C   0  0  2  0  0  3  0  0  0  0  0  0
  162.7210  205.8520  151.8030 C   0  0  0  0  0  2  0  0  0  0  0  0
  161.4940  208.3980  150.1630 C   0  0  0  0  0  2  0  0  0  0  0  0
  160.7530  206.6230  153.2660 C   0  0  0  0  0  2  0  0  0  0  0  0
  160.8250  207.2320  150.8020 C   0  0  1  0  0  3  0  0  0  0  0  0
  161.6290  208.7320  152.4630 O   0  0  0  0  0  0  0  0  0  0  0  0
  162.0730  209.1810  151.2450 N   0  0  0  0  0  0  0  0  0  0  0  0
  160.8380  204.7110  150.5810 C   0  0  0  0  0  2  0  0  0  0  0  0
  160.6810  201.6040  150.6480 Cl  0  0  0  0  0  0  0  0  0  0  0  0
  161.4430  202.7090  146.8330 C   0  0  0  0  0  3  0  0  0  0  0  0
  160.9750  202.5810  149.2080 C   0  0  0  0  0  0  0  0  0  0  0  0
  161.1450  201.9430  147.9690 C   0  0  0  0  0  0  0  0  0  0  0  0
  161.3770  204.7280  148.1520 C   0  0  0  0  0  3  0  0  0  0  0  0
  161.0790  203.9830  149.2950 C   0  0  0  0  0  0  0  0  0  0  0  0
  161.5680  204.0990  146.9180 C   0  0  0  0  0  0  0  0  0  0  0  0
  161.8540  204.8950  145.7100 C   0  0  0  0  0  0  0  0  0  0  0  0
  160.9280  204.9030  144.6240 N   0  0  0  0  0  2  0  0  0  0  0  0
  161.1480  205.7030  143.4290 C   0  0  0  0  0  1  0  0  0  0  0  0
  162.9090  205.5810  145.6410 O   0  0  0  0  0  0  0  0  0  0  0  0
  161.2210  199.8310  146.6790 C   0  0  0  0  0  1  0  0  0  0  0  0
  161.0060  200.5530  147.8830 O   0  0  0  0  0  0  0  0  0  0  0  0
  162.6190  210.3680  148.6650 C   0  0  0  0  0  1  0  0  0  0  0  0
  162.4580  211.3090  149.8510 C   0  0  1  0  0  3  0  0  0  0  0  0
  161.8070  212.6310  149.4480 C   0  0  0  0  0  2  0  0  0  0  0  0
  162.2140  213.0140  148.1680 O   0  0  0  0  0  0  0  0  0  0  0  0
  161.0610  212.9020  147.3920 C   0  0  0  0  0  1  0  0  0  0  0  0
  159.8460  211.6000  152.3350 C   0  0  0  0  0  2  0  0  0  0  0  0
  155.1190  211.0090  155.2300 C   0  0  0  0  0  0  0  0  0  0  0  0
  155.2150  212.4170  157.2610 F   0  0  0  0  0  0  0  0  0  0  0  0
  155.8260  210.5650  154.1760 C   0  0  0  0  0  3  0  0  0  0  0  0
  157.1580  211.2180  153.9270 C   0  0  1  0  0  0  0  0  0  0  0  0
  155.6260  212.1830  155.9910 C   0  0  0  0  0  0  0  0  0  0  0  0
  158.6370  212.5380  152.1460 C   0  0  1  0  0  0  0  0  0  0  0  0
  153.9330  210.3870  155.5920 O   0  0  0  0  0  1  0  0  0  0  0  0
  157.3160  212.0800  152.7230 C   0  0  1  0  0  0  0  0  0  0  0  0
  156.5340  212.9880  155.4090 C   0  0  0  0  0  3  0  0  0  0  0  0
  156.8510  212.7540  153.9420 C   0  0  1  0  0  0  0  0  0  0  0  0
  158.0800  213.3780  153.2990 C   0  0  2  0  0  0  0  0  0  0  0  0
  159.6230  213.6170  150.1070 O   0  0  0  0  0  0  0  0  0  0  0  0
  157.3640  213.2920  150.2450 O   0  0  0  0  0  1  0  0  0  0  0  0
  158.4950  213.1710  150.7870 C   0  0  0  0  0  0  0  0  0  0  0  0
  159.1760  213.4090  154.3710 C   0  0  0  0  0  0  0  0  0  0  0  0
  159.7380  214.4480  154.7010 O   0  0  0  0  0  0  0  0  0  0  0  0
  160.9310  207.3480  157.0300 C   0  0  0  0  0  3  0  0  0  0  0  0
  158.3410  211.2610  155.3240 C   0  0  2  0  0  3  0  0  0  0  0  0
  160.5310  212.3690  156.2120 C   0  0  2  0  0  3  0  0  0  0  0  0
  161.0550  209.9730  155.8580 N   0  0  2  0  0  0  0  0  0  0  0  0
  159.7630  209.2380  156.0130 C   0  0  1  0  0  3  0  0  0  0  0  0
  162.2740  209.1580  156.0510 C   0  0  0  0  0  2  0  0  0  0  0  0
  159.5800  212.1220  155.0230 C   0  0  2  0  0  3  0  0  0  0  0  0
  161.1460  211.0900  156.7980 C   0  0  0  0  0  2  0  0  0  0  0  0
  159.8980  213.0940  157.2250 O   0  0  0  0  0  1  0  0  0  0  0  0
  162.0210  207.6470  156.0520 C   0  0  0  0  0  2  0  0  0  0  0  0
  159.8460  208.1210  157.0190 C   0  0  0  0  0  3  0  0  0  0  0  0
  158.5680  210.1410  156.3410 C   0  0  0  0  0  2  0  0  0  0  0  0
  1 31  1  0  0  0  0
  2  1  1  6  0  0  0
  2 11  1  0  0  0  0
  3 12  1  1  0  0  0
  3  9  1  0  0  0  0
  3  6  1  0  0  0  0
  4  8  1  0  0  0  0
  5 10  1  0  0  0  0
  5  8  1  1  0  0  0
  6  4  1  0  0  0  0
  7 11  1  0  0  0  0
  9  7  1  6  0  0  0
  9  5  1  0  0  0  0
 11 10  1  0  0  0  0
 14 19  2  0  0  0  0
 14 16  1  0  0  0  0
 15 18  1  0  0  0  0
 15 13  1  0  0  0  0
 16 15  2  0  0  0  0
 17 18  2  0  0  0  0
 18 12  1  0  0  0  0
 19 17  1  0  0  0  0
 20 19  1  0  0  0  0
 21 20  1  0  0  0  0
 22 21  1  0  0  0  0
 23 20  2  0  0  0  0
 24 25  1  0  0  0  0
 25 16  1  0  0  0  0
 27 26  1  6  0  0  0
 27  2  1  0  0  0  0
 28 27  1  0  0  0  0
 29 28  1  0  0  0  0
 30 29  1  0  0  0  0
 32 38  1  0  0  0  0
 32 36  1  0  0  0  0
 34 32  2  0  0  0  0
 35 41  1  0  0  0  0
 35 34  1  1  0  0  0
 35 49  1  0  0  0  0
 36 33  1  0  0  0  0
 37 31  1  1  0  0  0
 37 39  1  0  0  0  0
 37 42  1  0  0  0  0
 39 42  1  0  0  0  0
 39 35  1  0  0  0  0
 39 41  1  0  0  0  0
 40 36  2  0  0  0  0
 41 40  1  0  0  0  0
 42 41  1  0  0  0  0
 42 46  1  0  0  0  0
 43 45  2  0  0  0  0
 44 45  1  0  0  0  0
 45 37  1  0  0  0  0
 46 47  2  0  0  0  0
 46 54  1  0  0  0  0
 49 59  1  0  0  0  0
 50 55  1  0  0  0  0
 50 56  1  0  0  0  0
 51 52  1  0  0  0  0
 51 53  1  0  0  0  0
 51 55  1  0  0  0  0
 52 59  1  0  0  0  0
 52 58  1  0  0  0  0
 53 57  1  0  0  0  0
 54 49  1  0  0  0  0
 54 50  1  0  0  0  0
 57 48  1  0  0  0  0
 58 48  2  0  0  0  0
M  END
>  <MODEL>
3

>  <REMARK>
 VINA RESULT:       0.7      4.314      8.836
  Name = 
  14 active torsions:
  status: ('A' for Active; 'I' for Inactive)
    1  A    between atoms: C_3  and  C_55
    2  A    between atoms: C_4  and  C_56
    3  A    between atoms: C_6  and  O_8
    4  A    between atoms: C_6  and  C_38
    5  A    between atoms: C_19  and  C_39
    6  A    between atoms: C_23  and  C_32
    7  A    between atoms: C_23  and  C_44
    8  A    between atoms: C_32  and  C_38
    9  A    between atoms: C_32  and  N_58
   10  A    between atoms: C_33  and  C_44
   11  A    between atoms: C_33  and  C_45
   12  A    between atoms: C_36  and  O_51
   13  A    between atoms: C_39  and  C_54
   14  A    between atoms: C_53  and  C_56
                            x       y       z     vdW  Elec       q    Type
                         _______ _______ _______ _____ _____    ______ ____

>  <TORSDO>
F 14

$$$$
=
 OpenBabel11072415303D

 59 67  0  0  1  0  0  0  0  0999 V2000
  161.3230  208.5000  152.4570 C   0  0  0  0  0  2  0  0  0  0  0  0
  160.6210  207.2480  151.9340 C   0  0  1  0  0  3  0  0  0  0  0  0
  160.3670  205.8440  147.4930 C   0  0  2  0  0  3  0  0  0  0  0  0
  161.9310  207.7650  146.8810 C   0  0  0  0  0  2  0  0  0  0  0  0
  162.2150  206.5790  149.1210 C   0  0  2  0  0  3  0  0  0  0  0  0
  160.4770  207.2990  147.0210 C   0  0  0  0  0  2  0  0  0  0  0  0
  160.1610  205.9300  149.9720 C   0  0  0  0  0  2  0  0  0  0  0  0
  162.9000  207.0820  147.8520 C   0  0  0  0  0  2  0  0  0  0  0  0
  161.0780  205.6180  148.8420 C   0  0  1  0  0  3  0  0  0  0  0  0
  161.7270  207.6510  149.8910 O   0  0  0  0  0  0  0  0  0  0  0  0
  160.5440  207.2490  150.4570 N   0  0  0  0  0  0  0  0  0  0  0  0
  160.8950  204.8880  146.4250 C   0  0  0  0  0  2  0  0  0  0  0  0
  160.5230  202.7600  144.1860 Cl  0  0  0  0  0  0  0  0  0  0  0  0
  160.5270  200.8170  147.7330 C   0  0  0  0  0  3  0  0  0  0  0  0
  160.6110  202.4180  145.9150 C   0  0  0  0  0  0  0  0  0  0  0  0
  160.5230  201.0880  146.3580 C   0  0  0  0  0  0  0  0  0  0  0  0
  160.7320  203.1710  148.2190 C   0  0  0  0  0  3  0  0  0  0  0  0
  160.7290  203.4630  146.8530 C   0  0  0  0  0  0  0  0  0  0  0  0
  160.6230  201.8510  148.6680 C   0  0  0  0  0  0  0  0  0  0  0  0
  160.6550  201.5490  150.1110 C   0  0  0  0  0  0  0  0  0  0  0  0
  161.0410  202.5590  151.0430 N   0  0  0  0  0  2  0  0  0  0  0  0
  161.0500  202.3200  152.4790 C   0  0  0  0  0  1  0  0  0  0  0  0
  160.3280  200.4050  150.5250 O   0  0  0  0  0  0  0  0  0  0  0  0
  160.8130  198.7150  145.7160 C   0  0  0  0  0  1  0  0  0  0  0  0
  160.4400  200.0530  145.4190 O   0  0  0  0  0  0  0  0  0  0  0  0
  162.6160  206.1800  153.1030 C   0  0  0  0  0  1  0  0  0  0  0  0
  161.1970  205.9720  152.5930 C   0  0  1  0  0  3  0  0  0  0  0  0
  160.2870  205.3650  153.6620 C   0  0  0  0  0  2  0  0  0  0  0  0
  159.7630  206.3610  154.4890 O   0  0  0  0  0  0  0  0  0  0  0  0
  160.6330  206.3960  155.5790 C   0  0  0  0  0  1  0  0  0  0  0  0
  160.4040  209.3010  153.3720 C   0  0  0  0  0  2  0  0  0  0  0  0
  160.8620  213.1340  149.3510 C   0  0  0  0  0  0  0  0  0  0  0  0
  158.7720  214.4500  149.2250 F   0  0  0  0  0  0  0  0  0  0  0  0
  161.4500  212.0720  149.9310 C   0  0  0  0  0  3  0  0  0  0  0  0
  160.7220  211.4370  151.0840 C   0  0  1  0  0  3  0  0  0  0  0  0
  159.6190  213.6860  149.9550 C   0  0  0  0  0  0  0  0  0  0  0  0
  160.8980  210.7350  153.6480 C   0  0  1  0  0  0  0  0  0  0  0  0
  161.4140  213.7090  148.2150 O   0  0  0  0  0  1  0  0  0  0  0  0
  161.3010  211.5640  152.4500 C   0  0  1  0  0  0  0  0  0  0  0  0
  159.3290  213.3770  151.2330 C   0  0  0  0  0  3  0  0  0  0  0  0
  160.3810  212.6330  152.0380 C   0  0  1  0  0  0  0  0  0  0  0  0
  160.0250  211.9590  153.3540 C   0  0  2  0  0  0  0  0  0  0  0  0
  163.1860  210.6260  154.6710 O   0  0  0  0  0  0  0  0  0  0  0  0
  161.4050  211.3030  155.9330 O   0  0  0  0  0  1  0  0  0  0  0  0
  161.8310  210.9010  154.8180 C   0  0  0  0  0  0  0  0  0  0  0  0
  158.5910  211.4350  153.2130 C   0  0  0  0  0  0  0  0  0  0  0  0
  158.2730  210.6260  152.3480 O   0  0  0  0  0  0  0  0  0  0  0  0
  153.5490  213.6890  157.2610 C   0  0  0  0  0  3  0  0  0  0  0  0
  157.0020  213.3010  153.6760 C   0  0  0  0  0  2  0  0  0  0  0  0
  158.0360  211.8970  155.6180 C   0  0  2  0  0  3  0  0  0  0  0  0
  155.6080  212.0560  156.0870 N   0  0  2  0  0  0  0  0  0  0  0  0
  155.1430  213.3240  155.4460 C   0  0  1  0  0  3  0  0  0  0  0  0
  154.7440  211.5440  157.1730 C   0  0  0  0  0  2  0  0  0  0  0  0
  157.5440  211.9440  154.1560 C   0  0  2  0  0  3  0  0  0  0  0  0
  156.9470  212.2090  156.6550 C   0  0  0  0  0  2  0  0  0  0  0  0
  159.1290  212.7450  155.8130 O   0  0  0  0  0  1  0  0  0  0  0  0
  153.3650  212.2060  157.2400 C   0  0  0  0  0  2  0  0  0  0  0  0
  154.4150  214.2280  156.4020 C   0  0  0  0  0  3  0  0  0  0  0  0
  156.2550  214.1090  154.7380 C   0  0  0  0  0  2  0  0  0  0  0  0
  1 31  1  0  0  0  0
  2  1  1  6  0  0  0
  2 27  1  0  0  0  0
  3 12  1  6  0  0  0
  3  9  1  0  0  0  0
  4  6  1  0  0  0  0
  4  8  1  0  0  0  0
  5  8  1  6  0  0  0
  5 10  1  0  0  0  0
  6  3  1  0  0  0  0
  7 11  1  0  0  0  0
  9  5  1  0  0  0  0
  9  7  1  1  0  0  0
 10 11  1  0  0  0  0
 11  2  1  0  0  0  0
 12 18  1  0  0  0  0
 13 15  1  0  0  0  0
 14 19  1  0  0  0  0
 15 16  1  0  0  0  0
 15 18  2  0  0  0  0
 16 14  2  0  0  0  0
 17 19  2  0  0  0  0
 18 17  1  0  0  0  0
 19 20  1  0  0  0  0
 20 23  2  0  0  0  0
 20 21  1  0  0  0  0
 21 22  1  0  0  0  0
 25 24  1  0  0  0  0
 25 16  1  0  0  0  0
 27 26  1  1  0  0  0
 27 28  1  0  0  0  0
 28 29  1  0  0  0  0
 29 30  1  0  0  0  0
 32 34  2  0  0  0  0
 32 36  1  0  0  0  0
 33 36  1  0  0  0  0
 35 34  1  6  0  0  0
 35 41  1  0  0  0  0
 35 39  1  0  0  0  0
 36 40  2  0  0  0  0
 37 31  1  6  0  0  0
 37 45  1  0  0  0  0
 38 32  1  0  0  0  0
 39 42  1  0  0  0  0
 39 37  1  0  0  0  0
 40 41  1  0  0  0  0
 41 39  1  0  0  0  0
 41 42  1  0  0  0  0
 42 37  1  0  0  0  0
 43 45  2  0  0  0  0
 45 44  1  0  0  0  0
 46 42  1  0  0  0  0
 46 54  1  0  0  0  0
 47 46  2  0  0  0  0
 49 54  1  0  0  0  0
 49 59  1  0  0  0  0
 50 56  1  0  0  0  0
 50 55  1  0  0  0  0
 51 55  1  0  0  0  0
 51 53  1  0  0  0  0
 52 51  1  0  0  0  0
 52 58  1  0  0  0  0
 53 57  1  0  0  0  0
 54 50  1  0  0  0  0
 57 48  1  0  0  0  0
 58 48  2  0  0  0  0
 59 52  1  0  0  0  0
M  END
>  <MODEL>
4

>  <REMARK>
 VINA RESULT:       1.1      4.798     10.064
  Name = 
  14 active torsions:
  status: ('A' for Active; 'I' for Inactive)
    1  A    between atoms: C_3  and  C_55
    2  A    between atoms: C_4  and  C_56
    3  A    between atoms: C_6  and  O_8
    4  A    between atoms: C_6  and  C_38
    5  A    between atoms: C_19  and  C_39
    6  A    between atoms: C_23  and  C_32
    7  A    between atoms: C_23  and  C_44
    8  A    between atoms: C_32  and  C_38
    9  A    between atoms: C_32  and  N_58
   10  A    between atoms: C_33  and  C_44
   11  A    between atoms: C_33  and  C_45
   12  A    between atoms: C_36  and  O_51
   13  A    between atoms: C_39  and  C_54
   14  A    between atoms: C_53  and  C_56
                            x       y       z     vdW  Elec       q    Type
                         _______ _______ _______ _____ _____    ______ ____

>  <TORSDO>
F 14

$$$$
=
 OpenBabel11072415303D

 59 67  0  0  1  0  0  0  0  0999 V2000
  160.2500  211.3320  150.7510 C   0  0  0  0  0  2  0  0  0  0  0  0
  161.7580  211.0900  150.7190 C   0  0  1  0  0  3  0  0  0  0  0  0
  161.7540  206.4540  150.2030 C   0  0  2  0  0  3  0  0  0  0  0  0
  162.1320  206.2550  152.7190 C   0  0  0  0  0  2  0  0  0  0  0  0
  160.6990  208.1600  151.8110 C   0  0  2  0  0  3  0  0  0  0  0  0
  162.7830  206.3220  151.3320 C   0  0  0  0  0  2  0  0  0  0  0  0
  161.5080  208.8920  149.7680 C   0  0  0  0  0  2  0  0  0  0  0  0
  160.8090  207.0210  152.8230 C   0  0  0  0  0  2  0  0  0  0  0  0
  160.8610  207.6980  150.3770 C   0  0  1  0  0  3  0  0  0  0  0  0
  161.6470  209.1650  152.0750 O   0  0  0  0  0  0  0  0  0  0  0  0
  162.0790  209.6540  150.8680 N   0  0  0  0  0  0  0  0  0  0  0  0
  160.9140  205.1840  150.0870 C   0  0  0  0  0  2  0  0  0  0  0  0
  160.8860  207.1110  147.6460 Cl  0  0  0  0  0  0  0  0  0  0  0  0
  161.4150  203.3580  146.2360 C   0  0  0  0  0  3  0  0  0  0  0  0
  161.1080  205.3630  147.5630 C   0  0  0  0  0  0  0  0  0  0  0  0
  161.3030  204.7530  146.3130 C   0  0  0  0  0  0  0  0  0  0  0  0
  161.1650  203.1840  148.6290 C   0  0  0  0  0  3  0  0  0  0  0  0
  161.0520  204.5730  148.7280 C   0  0  0  0  0  0  0  0  0  0  0  0
  161.3390  202.5670  147.3860 C   0  0  0  0  0  0  0  0  0  0  0  0
  161.4860  201.1030  147.2930 C   0  0  0  0  0  0  0  0  0  0  0  0
  161.1740  200.4300  146.0730 N   0  0  0  0  0  2  0  0  0  0  0  0
  161.3410  198.9920  145.9230 C   0  0  0  0  0  1  0  0  0  0  0  0
  161.9000  200.4450  148.2850 O   0  0  0  0  0  0  0  0  0  0  0  0
  161.2100  205.0290  143.8550 C   0  0  0  0  0  1  0  0  0  0  0  0
  161.3920  205.5480  145.1650 O   0  0  0  0  0  0  0  0  0  0  0  0
  163.3100  210.9010  148.7080 C   0  0  0  0  0  1  0  0  0  0  0  0
  162.4130  211.8220  149.5230 C   0  0  1  0  0  3  0  0  0  0  0  0
  161.4180  212.5780  148.6430 C   0  0  0  0  0  2  0  0  0  0  0  0
  161.3050  211.9710  147.3890 O   0  0  0  0  0  0  0  0  0  0  0  0
  160.5470  212.8690  146.6390 C   0  0  0  0  0  1  0  0  0  0  0  0
  159.8070  211.8520  152.1130 C   0  0  0  0  0  2  0  0  0  0  0  0
  155.2850  210.5420  155.0960 C   0  0  0  0  0  0  0  0  0  0  0  0
  155.3500  211.7370  157.2610 F   0  0  0  0  0  0  0  0  0  0  0  0
  155.9790  210.2740  153.9770 C   0  0  0  0  0  3  0  0  0  0  0  0
  157.2370  211.0670  153.7510 C   0  0  1  0  0  3  0  0  0  0  0  0
  155.7220  211.6730  155.9600 C   0  0  0  0  0  0  0  0  0  0  0  0
  158.5140  212.6900  152.0680 C   0  0  1  0  0  0  0  0  0  0  0  0
  154.1740  209.7820  155.4330 O   0  0  0  0  0  1  0  0  0  0  0  0
  157.2660  212.0580  152.6400 C   0  0  1  0  0  0  0  0  0  0  0  0
  156.5300  212.6120  155.4340 C   0  0  0  0  0  3  0  0  0  0  0  0
  156.8000  212.5590  153.9400 C   0  0  1  0  0  0  0  0  0  0  0  0
  157.9400  213.3540  153.3230 C   0  0  2  0  0  0  0  0  0  0  0  0
  157.0470  213.2930  150.1240 O   0  0  0  0  0  0  0  0  0  0  0  0
  159.1230  214.2300  150.3190 O   0  0  0  0  0  1  0  0  0  0  0  0
  158.2580  213.4450  150.7910 C   0  0  0  0  0  0  0  0  0  0  0  0
  159.0770  213.3740  154.3520 C   0  0  0  0  0  0  0  0  0  0  0  0
  159.6670  214.4060  154.6540 O   0  0  0  0  0  0  0  0  0  0  0  0
  160.7430  207.2980  157.0320 C   0  0  0  0  0  3  0  0  0  0  0  0
  158.2910  211.4450  155.7240 C   0  0  0  0  0  2  0  0  0  0  0  0
  160.7680  212.2580  155.8350 C   0  0  2  0  0  3  0  0  0  0  0  0
  160.8530  209.7920  155.6020 N   0  0  2  0  0  0  0  0  0  0  0  0
  159.5810  209.2760  156.1930 C   0  0  1  0  0  3  0  0  0  0  0  0
  161.9590  208.8130  155.5280 C   0  0  0  0  0  2  0  0  0  0  0  0
  159.4860  212.0850  154.9960 C   0  0  2  0  0  3  0  0  0  0  0  0
  161.3590  210.9400  156.3550 C   0  0  0  0  0  2  0  0  0  0  0  0
  160.5610  213.1350  156.9040 O   0  0  0  0  0  1  0  0  0  0  0  0
  161.5260  207.3630  155.7610 C   0  0  0  0  0  2  0  0  0  0  0  0
  159.8110  208.2260  157.2460 C   0  0  0  0  0  3  0  0  0  0  0  0
  158.6610  210.3710  156.7480 C   0  0  0  0  0  2  0  0  0  0  0  0
  1 31  1  0  0  0  0
  2  1  1  6  0  0  0
  2 11  1  0  0  0  0
  3 12  1  1  0  0  0
  3  9  1  0  0  0  0
  3  6  1  0  0  0  0
  4  8  1  0  0  0  0
  5 10  1  0  0  0  0
  5  8  1  1  0  0  0
  6  4  1  0  0  0  0
  7 11  1  0  0  0  0
  9  7  1  6  0  0  0
  9  5  1  0  0  0  0
 11 10  1  0  0  0  0
 14 16  2  0  0  0  0
 14 19  1  0  0  0  0
 15 13  1  0  0  0  0
 15 18  2  0  0  0  0
 16 15  1  0  0  0  0
 17 18  1  0  0  0  0
 18 12  1  0  0  0  0
 19 17  2  0  0  0  0
 20 19  1  0  0  0  0
 20 23  2  0  0  0  0
 21 20  1  0  0  0  0
 22 21  1  0  0  0  0
 24 25  1  0  0  0  0
 25 16  1  0  0  0  0
 27 26  1  6  0  0  0
 27  2  1  0  0  0  0
 28 27  1  0  0  0  0
 29 28  1  0  0  0  0
 30 29  1  0  0  0  0
 32 38  1  0  0  0  0
 32 36  1  0  0  0  0
 34 32  2  0  0  0  0
 35 41  1  0  0  0  0
 35 34  1  6  0  0  0
 36 33  1  0  0  0  0
 37 31  1  1  0  0  0
 37 39  1  0  0  0  0
 37 42  1  0  0  0  0
 39 42  1  0  0  0  0
 39 35  1  0  0  0  0
 39 41  1  0  0  0  0
 40 36  2  0  0  0  0
 41 40  1  0  0  0  0
 42 41  1  0  0  0  0
 42 46  1  0  0  0  0
 43 45  2  0  0  0  0
 44 45  1  0  0  0  0
 45 37  1  0  0  0  0
 46 47  2  0  0  0  0
 46 54  1  0  0  0  0
 48 58  2  0  0  0  0
 49 59  1  0  0  0  0
 50 55  1  0  0  0  0
 50 56  1  0  0  0  0
 51 52  1  0  0  0  0
 51 55  1  0  0  0  0
 52 59  1  0  0  0  0
 52 58  1  0  0  0  0
 53 51  1  0  0  0  0
 53 57  1  0  0  0  0
 54 49  1  0  0  0  0
 54 50  1  0  0  0  0
 57 48  1  0  0  0  0
M  END
>  <MODEL>
5

>  <REMARK>
 VINA RESULT:       1.5      3.991      8.729
  Name = 
  14 active torsions:
  status: ('A' for Active; 'I' for Inactive)
    1  A    between atoms: C_3  and  C_55
    2  A    between atoms: C_4  and  C_56
    3  A    between atoms: C_6  and  O_8
    4  A    between atoms: C_6  and  C_38
    5  A    between atoms: C_19  and  C_39
    6  A    between atoms: C_23  and  C_32
    7  A    between atoms: C_23  and  C_44
    8  A    between atoms: C_32  and  C_38
    9  A    between atoms: C_32  and  N_58
   10  A    between atoms: C_33  and  C_44
   11  A    between atoms: C_33  and  C_45
   12  A    between atoms: C_36  and  O_51
   13  A    between atoms: C_39  and  C_54
   14  A    between atoms: C_53  and  C_56
                            x       y       z     vdW  Elec       q    Type
                         _______ _______ _______ _____ _____    ______ ____

>  <TORSDO>
F 14

$$$$
=
 OpenBabel11072415303D

 59 67  0  0  1  0  0  0  0  0999 V2000
  160.8750  210.2340  149.1190 C   0  0  0  0  0  2  0  0  0  0  0  0
  161.4730  211.4620  148.4350 C   0  0  1  0  0  3  0  0  0  0  0  0
  160.5970  213.1180  144.1640 C   0  0  2  0  0  3  0  0  0  0  0  0
  158.1180  213.1400  144.7680 C   0  0  0  0  0  2  0  0  0  0  0  0
  159.8540  213.6500  146.5660 C   0  0  2  0  0  3  0  0  0  0  0  0
  159.2690  212.3510  144.1330 C   0  0  0  0  0  2  0  0  0  0  0  0
  161.7710  212.3930  146.2340 C   0  0  0  0  0  2  0  0  0  0  0  0
  158.5570  214.0880  145.8890 C   0  0  0  0  0  2  0  0  0  0  0  0
  161.0100  213.5020  145.5980 C   0  0  1  0  0  3  0  0  0  0  0  0
  159.6800  212.4350  147.2550 O   0  0  0  0  0  0  0  0  0  0  0  0
  160.8390  211.7140  147.1230 N   0  0  0  0  0  0  0  0  0  0  0  0
  160.5310  214.3490  143.2610 C   0  0  0  0  0  2  0  0  0  0  0  0
  163.5300  214.4500  142.4410 Cl  0  0  0  0  0  0  0  0  0  0  0  0
  161.4210  213.2210  139.2170 C   0  0  0  0  0  3  0  0  0  0  0  0
  162.2020  213.9550  141.3920 C   0  0  0  0  0  0  0  0  0  0  0  0
  162.4790  213.5540  140.0750 C   0  0  0  0  0  0  0  0  0  0  0  0
  159.8290  213.6590  140.9760 C   0  0  0  0  0  3  0  0  0  0  0  0
  160.8690  213.9940  141.8470 C   0  0  0  0  0  0  0  0  0  0  0  0
  160.0960  213.2790  139.6570 C   0  0  0  0  0  0  0  0  0  0  0  0
  158.9940  212.9000  138.7530 C   0  0  0  0  0  0  0  0  0  0  0  0
  158.1220  211.8250  139.1020 N   0  0  0  0  0  2  0  0  0  0  0  0
  156.9980  211.4400  138.2610 C   0  0  0  0  0  1  0  0  0  0  0  0
  158.8130  213.5320  137.6770 O   0  0  0  0  0  0  0  0  0  0  0  0
  164.3280  214.3250  138.6200 C   0  0  0  0  0  1  0  0  0  0  0  0
  163.8080  213.4840  139.6400 O   0  0  0  0  0  0  0  0  0  0  0  0
  162.2310  213.8680  148.7850 C   0  0  0  0  0  1  0  0  0  0  0  0
  161.5420  212.6630  149.4090 C   0  0  1  0  0  3  0  0  0  0  0  0
  160.1960  213.0310  150.0310 C   0  0  0  0  0  2  0  0  0  0  0  0
  160.3680  213.9230  151.0920 O   0  0  0  0  0  0  0  0  0  0  0  0
  159.6860  213.3310  152.1540 C   0  0  0  0  0  1  0  0  0  0  0  0
  161.2390  208.9580  148.3710 C   0  0  0  0  0  2  0  0  0  0  0  0
  161.0200  207.1220  153.6290 C   0  0  0  0  0  0  0  0  0  0  0  0
  160.1270  204.8160  153.6600 F   0  0  0  0  0  0  0  0  0  0  0  0
  161.2640  208.1870  152.8460 C   0  0  0  0  0  3  0  0  0  0  0  0
  161.1330  207.9830  151.3610 C   0  0  1  0  0  3  0  0  0  0  0  0
  160.7700  205.8010  152.9900 C   0  0  0  0  0  0  0  0  0  0  0  0
  162.3910  208.1650  149.0190 C   0  0  1  0  0  0  0  0  0  0  0  0
  161.0130  207.2530  155.0110 O   0  0  0  0  0  1  0  0  0  0  0  0
  162.3650  208.0220  150.5240 C   0  0  1  0  0  0  0  0  0  0  0  0
  161.1580  205.6170  151.7140 C   0  0  0  0  0  3  0  0  0  0  0  0
  161.9930  206.7070  151.0630 C   0  0  1  0  0  0  0  0  0  0  0  0
  162.1900  206.7450  149.5560 C   0  0  2  0  0  0  0  0  0  0  0  0
  163.9880  209.5310  147.6490 O   0  0  0  0  0  0  0  0  0  0  0  0
  164.7420  207.6970  148.7850 O   0  0  0  0  0  1  0  0  0  0  0  0
  163.7700  208.4390  148.4800 C   0  0  0  0  0  0  0  0  0  0  0  0
  160.8910  206.2300  148.9230 C   0  0  0  0  0  0  0  0  0  0  0  0
  159.8300  206.8350  149.0270 O   0  0  0  0  0  0  0  0  0  0  0  0
  160.7090  200.2290  145.6310 C   0  0  0  0  0  3  0  0  0  0  0  0
  161.1970  203.7630  149.1240 C   0  0  0  0  0  2  0  0  0  0  0  0
  161.8480  205.0290  146.9360 C   0  0  2  0  0  3  0  0  0  0  0  0
  160.5500  203.0390  146.2310 N   0  0  2  0  0  0  0  0  0  0  0  0
  160.7510  202.0130  147.3000 C   0  0  1  0  0  3  0  0  0  0  0  0
  160.1340  202.5080  144.9150 C   0  0  0  0  0  2  0  0  0  0  0  0
  160.9230  204.9370  148.1680 C   0  0  2  0  0  3  0  0  0  0  0  0
  161.7710  203.8120  146.0040 C   0  0  0  0  0  2  0  0  0  0  0  0
  163.1750  205.2500  147.3140 O   0  0  0  0  0  1  0  0  0  0  0  0
  159.6630  201.0510  144.9500 C   0  0  0  0  0  2  0  0  0  0  0  0
  161.2420  200.6970  146.7600 C   0  0  0  0  0  3  0  0  0  0  0  0
  161.6620  202.4740  148.4440 C   0  0  0  0  0  2  0  0  0  0  0  0
  2  1  1  1  0  0  0
  2 27  1  0  0  0  0
  3 12  1  6  0  0  0
  3  9  1  0  0  0  0
  4  8  1  0  0  0  0
  5  8  1  6  0  0  0
  5 10  1  0  0  0  0
  6  3  1  0  0  0  0
  6  4  1  0  0  0  0
  7 11  1  0  0  0  0
  9  7  1  1  0  0  0
  9  5  1  0  0  0  0
 11 10  1  0  0  0  0
 11  2  1  0  0  0  0
 14 19  2  0  0  0  0
 14 16  1  0  0  0  0
 15 18  1  0  0  0  0
 15 13  1  0  0  0  0
 16 15  2  0  0  0  0
 17 18  2  0  0  0  0
 18 12  1  0  0  0  0
 19 17  1  0  0  0  0
 20 21  1  0  0  0  0
 20 19  1  0  0  0  0
 22 21  1  0  0  0  0
 23 20  2  0  0  0  0
 24 25  1  0  0  0  0
 25 16  1  0  0  0  0
 27 26  1  6  0  0  0
 27 28  1  0  0  0  0
 28 29  1  0  0  0  0
 29 30  1  0  0  0  0
 31  1  1  0  0  0  0
 32 38  1  0  0  0  0
 34 32  2  0  0  0  0
 35 34  1  1  0  0  0
 36 32  1  0  0  0  0
 36 33  1  0  0  0  0
 37 31  1  6  0  0  0
 37 42  1  0  0  0  0
 37 39  1  0  0  0  0
 39 41  1  0  0  0  0
 39 35  1  0  0  0  0
 40 36  2  0  0  0  0
 41 35  1  0  0  0  0
 41 40  1  0  0  0  0
 42 39  1  0  0  0  0
 42 41  1  0  0  0  0
 43 45  2  0  0  0  0
 45 44  1  0  0  0  0
 45 37  1  0  0  0  0
 46 47  2  0  0  0  0
 46 42  1  0  0  0  0
 48 58  2  0  0  0  0
 50 56  1  0  0  0  0
 50 54  1  0  0  0  0
 51 52  1  0  0  0  0
 52 59  1  0  0  0  0
 53 57  1  0  0  0  0
 53 51  1  0  0  0  0
 54 46  1  0  0  0  0
 54 49  1  0  0  0  0
 55 51  1  0  0  0  0
 55 50  1  0  0  0  0
 57 48  1  0  0  0  0
 58 52  1  0  0  0  0
 59 49  1  0  0  0  0
M  END
>  <MODEL>
6

>  <REMARK>
 VINA RESULT:       1.5      1.948      2.662
  Name = 
  14 active torsions:
  status: ('A' for Active; 'I' for Inactive)
    1  A    between atoms: C_3  and  C_55
    2  A    between atoms: C_4  and  C_56
    3  A    between atoms: C_6  and  O_8
    4  A    between atoms: C_6  and  C_38
    5  A    between atoms: C_19  and  C_39
    6  A    between atoms: C_23  and  C_32
    7  A    between atoms: C_23  and  C_44
    8  A    between atoms: C_32  and  C_38
    9  A    between atoms: C_32  and  N_58
   10  A    between atoms: C_33  and  C_44
   11  A    between atoms: C_33  and  C_45
   12  A    between atoms: C_36  and  O_51
   13  A    between atoms: C_39  and  C_54
   14  A    between atoms: C_53  and  C_56
                            x       y       z     vdW  Elec       q    Type
                         _______ _______ _______ _____ _____    ______ ____

>  <TORSDO>
F 14

$$$$
=
 OpenBabel11072415303D

 59 67  0  0  1  0  0  0  0  0999 V2000
  160.6980  207.5320  152.0080 C   0  0  0  0  0  2  0  0  0  0  0  0
  161.2050  207.2660  153.4240 C   0  0  1  0  0  3  0  0  0  0  0  0
  159.4060  211.1640  155.2480 C   0  0  2  0  0  3  0  0  0  0  0  0
  160.9820  210.8670  157.2330 C   0  0  0  0  0  2  0  0  0  0  0  0
  161.7500  210.1680  154.9030 C   0  0  2  0  0  3  0  0  0  0  0  0
  159.5870  210.5930  156.6600 C   0  0  0  0  0  2  0  0  0  0  0  0
  159.9770  209.3220  153.6750 C   0  0  0  0  0  2  0  0  0  0  0  0
  162.0860  210.9480  156.1720 C   0  0  0  0  0  2  0  0  0  0  0  0
  160.4500  210.6060  154.2610 C   0  0  1  0  0  3  0  0  0  0  0  0
  161.6860  208.7860  155.1610 O   0  0  0  0  0  0  0  0  0  0  0  0
  160.6840  208.2650  154.3830 N   0  0  0  0  0  0  0  0  0  0  0  0
  159.4340  212.6910  155.2750 C   0  0  0  0  0  2  0  0  0  0  0  0
  160.0420  213.3040  152.2870 Cl  0  0  0  0  0  0  0  0  0  0  0  0
  156.1640  214.2310  152.9620 C   0  0  0  0  0  3  0  0  0  0  0  0
  158.4790  213.5210  153.0760 C   0  0  0  0  0  0  0  0  0  0  0  0
  157.3900  213.9960  152.3250 C   0  0  0  0  0  0  0  0  0  0  0  0
  157.0920  213.5030  155.0670 C   0  0  0  0  0  3  0  0  0  0  0  0
  158.3220  213.2620  154.4510 C   0  0  0  0  0  0  0  0  0  0  0  0
  156.0090  213.9960  154.3310 C   0  0  0  0  0  0  0  0  0  0  0  0
  154.7050  214.2210  154.9820 C   0  0  0  0  0  0  0  0  0  0  0  0
  154.6040  214.1940  156.4060 N   0  0  0  0  0  2  0  0  0  0  0  0
  153.3480  214.4490  157.0940 C   0  0  0  0  0  1  0  0  0  0  0  0
  153.6820  214.4520  154.2840 O   0  0  0  0  0  0  0  0  0  0  0  0
  156.5580  213.8500  149.9980 C   0  0  0  0  0  1  0  0  0  0  0  0
  157.5440  214.2180  150.9520 O   0  0  0  0  0  0  0  0  0  0  0  0
  160.2550  205.6160  155.1150 C   0  0  0  0  0  1  0  0  0  0  0  0
  161.0220  205.7790  153.8110 C   0  0  1  0  0  3  0  0  0  0  0  0
  160.4380  204.9180  152.6910 C   0  0  0  0  0  2  0  0  0  0  0  0
  160.8480  203.5890  152.8240 O   0  0  0  0  0  0  0  0  0  0  0  0
  160.5500  203.0120  151.5900 C   0  0  0  0  0  1  0  0  0  0  0  0
  160.8370  206.2900  151.1350 C   0  0  0  0  0  2  0  0  0  0  0  0
  161.3270  203.8900  146.1280 C   0  0  0  0  0  0  0  0  0  0  0  0
  161.0590  205.6030  144.3640 F   0  0  0  0  0  0  0  0  0  0  0  0
  161.2540  203.6680  147.4520 C   0  0  0  0  0  3  0  0  0  0  0  0
  161.1150  204.8750  148.3380 C   0  0  1  0  0  3  0  0  0  0  0  0
  161.3970  205.2950  145.6380 C   0  0  0  0  0  0  0  0  0  0  0  0
  162.1820  206.2060  150.3850 C   0  0  1  0  0  0  0  0  0  0  0  0
  161.3460  202.8280  145.2360 O   0  0  0  0  0  1  0  0  0  0  0  0
  162.2580  205.2490  149.2180 C   0  0  1  0  0  0  0  0  0  0  0  0
  161.7640  206.2610  146.5000 C   0  0  0  0  0  3  0  0  0  0  0  0
  162.2610  205.8370  147.8720 C   0  0  1  0  0  0  0  0  0  0  0  0
  162.3770  206.8430  149.0060 C   0  0  2  0  0  0  0  0  0  0  0  0
  164.4650  207.0610  150.9760 O   0  0  0  0  0  0  0  0  0  0  0  0
  163.5170  205.3920  152.2170 O   0  0  0  0  0  1  0  0  0  0  0  0
  163.4190  206.1850  151.2430 C   0  0  0  0  0  0  0  0  0  0  0  0
  161.2270  207.8440  148.8330 C   0  0  0  0  0  0  0  0  0  0  0  0
  160.0530  207.4930  148.8090 O   0  0  0  0  0  0  0  0  0  0  0  0
  162.6430  214.4530  147.7380 C   0  0  0  0  0  3  0  0  0  0  0  0
  162.8470  209.4660  147.8500 C   0  0  0  0  0  2  0  0  0  0  0  0
  161.5260  210.0320  150.0280 C   0  0  2  0  0  3  0  0  0  0  0  0
  161.3420  212.0230  148.5630 N   0  0  2  0  0  0  0  0  0  0  0  0
  162.5580  212.0120  147.6940 C   0  0  1  0  0  3  0  0  0  0  0  0
  160.6810  213.3380  148.7090 C   0  0  0  0  0  2  0  0  0  0  0  0
  161.5580  209.2970  148.6730 C   0  0  2  0  0  3  0  0  0  0  0  0
  161.6530  211.5590  149.9150 C   0  0  0  0  0  2  0  0  0  0  0  0
  162.5050  209.5410  150.8960 O   0  0  0  0  0  1  0  0  0  0  0  0
  161.1500  214.3890  147.6980 C   0  0  0  0  0  2  0  0  0  0  0  0
  163.3230  213.3070  147.7460 C   0  0  0  0  0  3  0  0  0  0  0  0
  163.5090  210.8400  147.9670 C   0  0  0  0  0  2  0  0  0  0  0  0
  2  1  1  6  0  0  0
  2 27  1  0  0  0  0
  2 11  1  0  0  0  0
  3 12  1  1  0  0  0
  3  6  1  0  0  0  0
  5 10  1  0  0  0  0
  5  8  1  1  0  0  0
  6  4  1  0  0  0  0
  7 11  1  0  0  0  0
  8  4  1  0  0  0  0
  9  7  1  1  0  0  0
  9  5  1  0  0  0  0
  9  3  1  0  0  0  0
 11 10  1  0  0  0  0
 13 15  1  0  0  0  0
 14 19  1  0  0  0  0
 15 18  2  0  0  0  0
 16 14  2  0  0  0  0
 16 15  1  0  0  0  0
 18 17  1  0  0  0  0
 18 12  1  0  0  0  0
 19 20  1  0  0  0  0
 19 17  2  0  0  0  0
 20 21  1  0  0  0  0
 21 22  1  0  0  0  0
 23 20  2  0  0  0  0
 24 25  1  0  0  0  0
 25 16  1  0  0  0  0
 27 26  1  1  0  0  0
 28 29  1  0  0  0  0
 28 27  1  0  0  0  0
 30 29  1  0  0  0  0
 31  1  1  0  0  0  0
 32 34  2  0  0  0  0
 33 36  1  0  0  0  0
 35 34  1  6  0  0  0
 35 39  1  0  0  0  0
 36 32  1  0  0  0  0
 36 40  2  0  0  0  0
 37 31  1  1  0  0  0
 37 45  1  0  0  0  0
 38 32  1  0  0  0  0
 39 37  1  0  0  0  0
 40 41  1  0  0  0  0
 41 35  1  0  0  0  0
 41 42  1  0  0  0  0
 41 39  1  0  0  0  0
 42 39  1  0  0  0  0
 42 37  1  0  0  0  0
 43 45  2  0  0  0  0
 45 44  1  0  0  0  0
 46 42  1  0  0  0  0
 47 46  2  0  0  0  0
 48 58  2  0  0  0  0
 49 59  1  0  0  0  0
 49 54  1  0  0  0  0
 50 56  1  0  0  0  0
 51 53  1  0  0  0  0
 51 55  1  0  0  0  0
 52 58  1  0  0  0  0
 52 59  1  0  0  0  0
 52 51  1  0  0  0  0
 54 46  1  0  0  0  0
 54 50  1  0  0  0  0
 55 50  1  0  0  0  0
 57 48  1  0  0  0  0
 57 53  1  0  0  0  0
M  END
>  <MODEL>
7

>  <REMARK>
 VINA RESULT:       2.0      4.505      9.636
  Name = 
  14 active torsions:
  status: ('A' for Active; 'I' for Inactive)
    1  A    between atoms: C_3  and  C_55
    2  A    between atoms: C_4  and  C_56
    3  A    between atoms: C_6  and  O_8
    4  A    between atoms: C_6  and  C_38
    5  A    between atoms: C_19  and  C_39
    6  A    between atoms: C_23  and  C_32
    7  A    between atoms: C_23  and  C_44
    8  A    between atoms: C_32  and  C_38
    9  A    between atoms: C_32  and  N_58
   10  A    between atoms: C_33  and  C_44
   11  A    between atoms: C_33  and  C_45
   12  A    between atoms: C_36  and  O_51
   13  A    between atoms: C_39  and  C_54
   14  A    between atoms: C_53  and  C_56
                            x       y       z     vdW  Elec       q    Type
                         _______ _______ _______ _____ _____    ______ ____

>  <TORSDO>
F 14

$$$$
