=
 OpenBabel11072412043D

 45 51  0  0  1  0  0  0  0  0999 V2000
  159.2860  209.0580  154.8930 C   0  0  0  0  0  2  0  0  0  0  0  0
  161.2590  203.8590  150.8240 C   0  0  0  0  0  2  0  0  0  0  0  0
  160.9020  207.8770  153.8100 C   0  0  2  0  0  0  0  0  0  0  0  0
  162.2560  207.5560  150.2410 C   0  0  0  0  0  2  0  0  0  0  0  0
  161.4990  207.4570  155.1600 C   0  0  0  0  0  2  0  0  0  0  0  0
  161.8750  207.7800  152.6590 C   0  0  2  0  0  3  0  0  0  0  0  0
  159.4330  208.8830  157.2590 O   0  0  0  0  0  1  0  0  0  0  0  0
  161.7300  206.1320  150.2570 C   0  0  2  0  0  3  0  0  0  0  0  0
  160.1280  209.3620  156.1490 C   0  0  1  0  0  0  0  0  0  0  0  0
  160.7010  204.2380  149.5350 N   0  0  0  0  0  0  0  0  0  0  0  0
  161.6320  208.4480  151.3250 C   0  0  0  0  0  2  0  0  0  0  0  0
  161.4980  208.6610  156.0980 C   0  0  0  0  0  2  0  0  0  0  0  0
  161.9540  205.1150  151.3620 C   0  0  1  0  0  3  0  0  0  0  0  0
  161.3620  205.4720  152.7530 C   0  0  0  0  0  2  0  0  0  0  0  0
  161.0310  205.5890  149.2780 C   0  0  0  0  0  0  0  0  0  0  0  0
  160.0880  209.0270  153.7370 O   0  0  0  0  0  0  0  0  0  0  0  0
  160.6810  206.8300  152.7400 C   0  0  1  0  0  3  0  0  0  0  0  0
  160.6540  206.2820  148.0070 C   0  0  0  0  0  2  0  0  0  0  0  0
  160.8930  203.9980  147.0070 C   0  0  0  0  0  3  0  0  0  0  0  0
  161.5780  205.6580  143.1850 N   0  0  0  0  0  1  0  0  0  0  0  0
  161.1310  203.1590  145.9120 C   0  0  0  0  0  0  0  0  0  0  0  0
  161.1170  205.9370  145.5690 C   0  0  0  0  0  3  0  0  0  0  0  0
  161.1260  201.7460  146.0820 N   0  0  0  0  0  1  0  0  0  0  0  0
  161.3540  205.0990  144.4750 C   0  0  0  0  0  0  0  0  0  0  0  0
  161.3580  203.7120  144.6460 C   0  0  0  0  0  3  0  0  0  0  0  0
  160.8800  205.3870  146.8360 C   0  0  0  0  0  0  0  0  0  0  0  0
  160.3260  210.8750  156.3260 C   0  0  0  0  0  2  0  0  0  0  0  0
  161.9650  211.3850  154.6780 O   0  0  0  0  0  0  0  0  0  0  0  0
  160.7860  211.5750  155.0800 C   0  0  0  0  0  0  0  0  0  0  0  0
  159.6830  212.2630  152.9080 N   0  0  0  0  0  0  0  0  0  0  0  0
  159.1140  213.4250  154.7170 C   0  0  2  0  0  3  0  0  0  0  0  0
  158.5450  213.7510  156.3650 S   0  0  0  0  0  0  0  0  0  0  0  0
  155.8350  213.5740  156.7520 C   0  0  0  0  0  1  0  0  0  0  0  0
  156.9270  213.1260  155.8050 C   0  0  1  0  0  3  0  0  0  0  0  0
  156.5480  213.6760  154.0900 S   0  0  0  0  0  0  0  0  0  0  0  0
  158.2900  213.9160  153.6010 C   0  0  2  0  0  3  0  0  0  0  0  0
  159.8970  212.4520  154.2910 C   0  0  0  0  0  0  0  0  0  0  0  0
  158.6310  213.0730  152.4430 N   0  0  0  0  0  0  0  0  0  0  0  0
  159.1880  213.9360  151.4150 C   0  0  0  0  0  2  0  0  0  0  0  0
  160.1930  213.2580  150.7170 O   0  0  0  0  0  0  0  0  0  0  0  0
  160.4340  214.0400  149.5840 C   0  0  0  0  0  2  0  0  0  0  0  0
  160.6120  212.8390  147.3600 C   0  0  0  0  0  0  0  0  0  0  0  0
  159.9510  212.2300  146.2570 N   0  0  0  0  0  1  0  0  0  0  0  0
  161.8730  212.8600  147.3980 O   0  0  0  0  0  0  0  0  0  0  0  0
  159.8390  213.4180  148.4100 N   0  0  0  0  0  2  0  0  0  0  0  0
  1  9  1  0  0  0  0
  3  5  1  1  0  0  0
  4 11  1  0  0  0  0
  5 12  1  0  0  0  0
  6 11  1  6  0  0  0
  6 17  1  0  0  0  0
  6  3  1  0  0  0  0
  8  4  1  6  0  0  0
  8 13  1  0  0  0  0
  9 27  1  0  0  0  0
  9  7  1  1  0  0  0
 10  2  1  0  0  0  0
 12  9  1  0  0  0  0
 13  2  1  6  0  0  0
 13 14  1  0  0  0  0
 15 10  2  0  0  0  0
 15  8  1  0  0  0  0
 16  3  1  0  0  0  0
 16  1  1  0  0  0  0
 17 14  1  1  0  0  0
 17  3  1  0  0  0  0
 18 15  1  0  0  0  0
 20 24  1  0  0  0  0
 21 23  1  0  0  0  0
 21 19  2  0  0  0  0
 22 26  2  0  0  0  0
 24 25  2  0  0  0  0
 24 22  1  0  0  0  0
 25 21  1  0  0  0  0
 26 19  1  0  0  0  0
 26 18  1  0  0  0  0
 28 29  2  0  0  0  0
 29 27  1  0  0  0  0
 30 37  2  0  0  0  0
 31 37  1  6  0  0  0
 31 32  1  0  0  0  0
 34 32  1  0  0  0  0
 34 33  1  1  0  0  0
 35 34  1  0  0  0  0
 36 35  1  1  0  0  0
 36 31  1  0  0  0  0
 37 29  1  0  0  0  0
 38 30  1  0  0  0  0
 38 36  1  0  0  0  0
 39 38  1  0  0  0  0
 40 39  1  0  0  0  0
 41 40  1  0  0  0  0
 42 44  2  0  0  0  0
 42 45  1  0  0  0  0
 43 42  1  0  0  0  0
 45 41  1  0  0  0  0
M  END
>  <MODEL>
1

>  <REMARK>
 VINA RESULT:      -7.1      0.000      0.000
  Name = 
  9 active torsions:
  status: ('A' for Active; 'I' for Inactive)
    1  A    between atoms: C_7  and  C_36
    2  A    between atoms: C_7  and  C_40
    3  A    between atoms: C_15  and  N_28
    4  A    between atoms: C_15  and  O_43
    5  A    between atoms: C_21  and  O_43
    6  A    between atoms: C_21  and  N_44
    7  A    between atoms: C_24  and  C_39
    8  A    between atoms: C_31  and  C_39
    9  A    between atoms: C_31  and  C_42
                            x       y       z     vdW  Elec       q    Type
                         _______ _______ _______ _____ _____    ______ ____

>  <TORSDO>
F 9

$$$$
=
 OpenBabel11072412043D

 45 51  0  0  1  0  0  0  0  0999 V2000
  160.8640  211.8770  147.1290 C   0  0  0  0  0  2  0  0  0  0  0  0
  163.1820  213.6380  140.8850 C   0  0  0  0  0  3  0  0  0  0  0  0
  161.1550  213.4070  145.4700 C   0  0  2  0  0  0  0  0  0  0  0  0
  159.5550  214.2540  142.0940 C   0  0  0  0  0  2  0  0  0  0  0  0
  162.0790  214.2220  146.3840 C   0  0  0  0  0  2  0  0  0  0  0  0
  160.5600  214.2080  144.3370 C   0  0  2  0  0  3  0  0  0  0  0  0
  162.1190  212.3770  149.0860 O   0  0  0  0  0  1  0  0  0  0  0  0
  160.8720  213.8460  141.4600 C   0  0  0  0  0  0  0  0  0  0  0  0
  161.0810  212.8660  148.2930 C   0  0  1  0  0  0  0  0  0  0  0  0
  162.3180  212.8730  139.9990 N   0  0  0  0  0  0  0  0  0  0  0  0
  159.3800  213.7250  143.5260 C   0  0  0  0  0  2  0  0  0  0  0  0
  161.4780  214.2640  147.7860 C   0  0  0  0  0  2  0  0  0  0  0  0
  162.2510  214.3050  141.9020 C   0  0  1  0  0  3  0  0  0  0  0  0
  162.6820  213.8940  143.3370 C   0  0  0  0  0  2  0  0  0  0  0  0
  160.9760  213.0580  140.4060 C   0  0  0  0  0  0  0  0  0  0  0  0
  160.2330  212.5040  146.0390 O   0  0  0  0  0  0  0  0  0  0  0  0
  161.5880  213.1150  144.0490 C   0  0  1  0  0  3  0  0  0  0  0  0
  159.8220  212.4500  139.6750 C   0  0  0  0  0  2  0  0  0  0  0  0
  159.3600  210.3820  138.3370 C   0  0  0  0  0  3  0  0  0  0  0  0
  162.4060  208.2880  140.3770 N   0  0  0  0  0  1  0  0  0  0  0  0
  159.6170  209.0420  138.0260 C   0  0  0  0  0  0  0  0  0  0  0  0
  161.1180  210.3310  140.0060 C   0  0  0  0  0  3  0  0  0  0  0  0
  158.8630  208.3890  137.0120 N   0  0  0  0  0  1  0  0  0  0  0  0
  161.3750  208.9930  139.6950 C   0  0  0  0  0  0  0  0  0  0  0  0
  160.6270  208.3500  138.7040 C   0  0  0  0  0  3  0  0  0  0  0  0
  160.1140  211.0300  139.3240 C   0  0  0  0  0  0  0  0  0  0  0  0
  159.8220  212.9700  149.1680 C   0  0  0  0  0  2  0  0  0  0  0  0
  160.5030  214.4520  150.9010 O   0  0  0  0  0  0  0  0  0  0  0  0
  160.1110  213.2920  150.6070 C   0  0  0  0  0  0  0  0  0  0  0  0
  160.8540  211.2790  151.9500 N   0  0  0  0  0  0  0  0  0  0  0  0
  158.9790  212.2740  152.6150 C   0  0  2  0  0  3  0  0  0  0  0  0
  157.8870  213.5710  153.1330 S   0  0  0  0  0  0  0  0  0  0  0  0
  158.1630  214.4010  155.7330 C   0  0  0  0  0  1  0  0  0  0  0  0
  158.9130  213.6760  154.6360 C   0  0  1  0  0  3  0  0  0  0  0  0
  159.4320  212.0080  155.2160 S   0  0  0  0  0  0  0  0  0  0  0  0
  159.2790  211.2070  153.5830 C   0  0  2  0  0  3  0  0  0  0  0  0
  159.9210  212.3070  151.6910 C   0  0  0  0  0  0  0  0  0  0  0  0
  160.5650  210.6260  153.1610 N   0  0  0  0  0  0  0  0  0  0  0  0
  160.3350  209.2260  152.8400 C   0  0  0  0  0  2  0  0  0  0  0  0
  161.5020  208.4890  153.0640 O   0  0  0  0  0  0  0  0  0  0  0  0
  161.5380  207.5500  152.0290 C   0  0  0  0  0  2  0  0  0  0  0  0
  161.6170  207.7710  149.5060 C   0  0  0  0  0  0  0  0  0  0  0  0
  162.1390  208.4430  148.3660 N   0  0  0  0  0  1  0  0  0  0  0  0
  160.7890  206.8320  149.3520 O   0  0  0  0  0  0  0  0  0  0  0  0
  162.0380  208.1690  150.8100 N   0  0  0  0  0  2  0  0  0  0  0  0
  1  9  1  0  0  0  0
  3 16  1  0  0  0  0
  3  5  1  1  0  0  0
  4 11  1  0  0  0  0
  5 12  1  0  0  0  0
  6 11  1  6  0  0  0
  6  3  1  0  0  0  0
  8 13  1  0  0  0  0
  8  4  1  0  0  0  0
  9  7  1  1  0  0  0
  9 27  1  0  0  0  0
 10 15  1  0  0  0  0
 10  2  2  0  0  0  0
 12  9  1  0  0  0  0
 13  2  1  6  0  0  0
 13 14  1  0  0  0  0
 15  8  2  0  0  0  0
 16  1  1  0  0  0  0
 17 14  1  1  0  0  0
 17  6  1  0  0  0  0
 17  3  1  0  0  0  0
 18 15  1  0  0  0  0
 19 26  1  0  0  0  0
 21 19  2  0  0  0  0
 21 25  1  0  0  0  0
 23 21  1  0  0  0  0
 24 22  1  0  0  0  0
 24 20  1  0  0  0  0
 25 24  2  0  0  0  0
 26 18  1  0  0  0  0
 26 22  2  0  0  0  0
 27 29  1  0  0  0  0
 29 28  2  0  0  0  0
 29 37  1  0  0  0  0
 30 38  1  0  0  0  0
 31 37  1  1  0  0  0
 31 32  1  0  0  0  0
 31 36  1  0  0  0  0
 32 34  1  0  0  0  0
 34 35  1  0  0  0  0
 34 33  1  1  0  0  0
 36 35  1  1  0  0  0
 37 30  2  0  0  0  0
 38 36  1  0  0  0  0
 39 40  1  0  0  0  0
 39 38  1  0  0  0  0
 41 40  1  0  0  0  0
 42 45  1  0  0  0  0
 43 42  1  0  0  0  0
 44 42  2  0  0  0  0
 45 41  1  0  0  0  0
M  END
>  <MODEL>
2

>  <REMARK>
 VINA RESULT:      -7.0      4.429      8.384
  Name = 
  9 active torsions:
  status: ('A' for Active; 'I' for Inactive)
    1  A    between atoms: C_7  and  C_36
    2  A    between atoms: C_7  and  C_40
    3  A    between atoms: C_15  and  N_28
    4  A    between atoms: C_15  and  O_43
    5  A    between atoms: C_21  and  O_43
    6  A    between atoms: C_21  and  N_44
    7  A    between atoms: C_24  and  C_39
    8  A    between atoms: C_31  and  C_39
    9  A    between atoms: C_31  and  C_42
                            x       y       z     vdW  Elec       q    Type
                         _______ _______ _______ _____ _____    ______ ____

>  <TORSDO>
F 9

$$$$
=
 OpenBabel11072412043D

 45 51  0  0  1  0  0  0  0  0999 V2000
  161.2890  209.0830  151.2840 C   0  0  0  0  0  2  0  0  0  0  0  0
  161.2880  212.5120  157.2590 C   0  0  0  0  0  3  0  0  0  0  0  0
  160.7310  209.2540  153.4820 C   0  0  2  0  0  0  0  0  0  0  0  0
  158.1010  211.0670  155.5980 C   0  0  0  0  0  2  0  0  0  0  0  0
  161.6470  208.0670  153.8070 C   0  0  0  0  0  2  0  0  0  0  0  0
  159.6690  209.5060  154.5270 C   0  0  2  0  0  3  0  0  0  0  0  0
  162.8790  207.3670  150.8580 O   0  0  0  0  0  1  0  0  0  0  0  0
  159.2490  211.8600  156.1970 C   0  0  0  0  0  0  0  0  0  0  0  0
  161.5760  207.5680  151.3120 C   0  0  1  0  0  0  0  0  0  0  0  0
  160.4220  213.6460  156.9730 N   0  0  0  0  0  0  0  0  0  0  0  0
  158.4630  210.3800  154.2720 C   0  0  0  0  0  2  0  0  0  0  0  0
  161.4670  206.9950  152.7370 C   0  0  0  0  0  2  0  0  0  0  0  0
  160.5430  211.2780  156.7390 C   0  0  1  0  0  3  0  0  0  0  0  0
  161.4410  210.5330  155.7130 C   0  0  0  0  0  2  0  0  0  0  0  0
  159.2430  213.1700  156.3540 C   0  0  0  0  0  0  0  0  0  0  0  0
  160.2480  209.4220  152.1680 O   0  0  0  0  0  0  0  0  0  0  0  0
  160.8090  210.5050  154.3320 C   0  0  1  0  0  3  0  0  0  0  0  0
  158.1130  214.0740  155.9730 C   0  0  0  0  0  2  0  0  0  0  0  0
  156.6150  214.1840  153.9680 C   0  0  0  0  0  3  0  0  0  0  0  0
  159.9130  213.6800  151.3790 N   0  0  0  0  0  1  0  0  0  0  0  0
  156.4180  214.1440  152.5830 C   0  0  0  0  0  0  0  0  0  0  0  0
  158.9980  213.8820  153.6360 C   0  0  0  0  0  3  0  0  0  0  0  0
  155.1090  214.2890  152.0450 N   0  0  0  0  0  1  0  0  0  0  0  0
  158.8010  213.8430  152.2530 C   0  0  0  0  0  0  0  0  0  0  0  0
  157.5130  213.9760  151.7270 C   0  0  0  0  0  3  0  0  0  0  0  0
  157.9060  214.0590  154.4960 C   0  0  0  0  0  0  0  0  0  0  0  0
  160.6230  206.8090  150.3750 C   0  0  0  0  0  2  0  0  0  0  0  0
  161.4970  207.6780  148.3400 O   0  0  0  0  0  0  0  0  0  0  0  0
  161.1500  206.6490  148.9780 C   0  0  0  0  0  0  0  0  0  0  0  0
  160.6440  204.1740  148.8150 N   0  0  0  0  0  0  0  0  0  0  0  0
  161.9470  205.0230  147.2250 C   0  0  2  0  0  3  0  0  0  0  0  0
  162.4830  206.1000  145.9240 S   0  0  0  0  0  0  0  0  0  0  0  0
  161.3290  205.6780  143.4700 C   0  0  0  0  0  1  0  0  0  0  0  0
  161.1110  205.4070  144.9430 C   0  0  1  0  0  3  0  0  0  0  0  0
  160.9210  203.5990  145.2360 S   0  0  0  0  0  0  0  0  0  0  0  0
  161.6990  203.6120  146.8860 C   0  0  2  0  0  3  0  0  0  0  0  0
  161.3050  205.3270  148.3380 C   0  0  0  0  0  0  0  0  0  0  0  0
  160.7700  203.1060  147.9100 N   0  0  0  0  0  0  0  0  0  0  0  0
  161.4380  202.0280  148.6210 C   0  0  0  0  0  2  0  0  0  0  0  0
  160.5090  201.3160  149.3870 O   0  0  0  0  0  0  0  0  0  0  0  0
  161.1140  201.1670  150.6380 C   0  0  0  0  0  2  0  0  0  0  0  0
  161.1450  203.2940  152.0140 C   0  0  0  0  0  0  0  0  0  0  0  0
  160.4800  204.1470  152.9380 N   0  0  0  0  0  1  0  0  0  0  0  0
  162.2830  203.6150  151.5750 O   0  0  0  0  0  0  0  0  0  0  0  0
  160.5150  202.0840  151.5960 N   0  0  0  0  0  2  0  0  0  0  0  0
  1  9  1  0  0  0  0
  1 16  1  0  0  0  0
  3  5  1  1  0  0  0
  3 17  1  0  0  0  0
  3  6  1  0  0  0  0
  4  8  1  0  0  0  0
  6 11  1  6  0  0  0
  8 15  2  0  0  0  0
  8 13  1  0  0  0  0
  9  7  1  6  0  0  0
  9 12  1  0  0  0  0
 10  2  2  0  0  0  0
 11  4  1  0  0  0  0
 12  5  1  0  0  0  0
 13 14  1  6  0  0  0
 13  2  1  0  0  0  0
 15 10  1  0  0  0  0
 16  3  1  0  0  0  0
 17  6  1  0  0  0  0
 17 14  1  1  0  0  0
 18 15  1  0  0  0  0
 19 26  1  0  0  0  0
 20 24  1  0  0  0  0
 21 19  2  0  0  0  0
 22 26  2  0  0  0  0
 23 21  1  0  0  0  0
 24 22  1  0  0  0  0
 25 24  2  0  0  0  0
 25 21  1  0  0  0  0
 26 18  1  0  0  0  0
 27  9  1  0  0  0  0
 28 29  2  0  0  0  0
 29 27  1  0  0  0  0
 31 32  1  6  0  0  0
 31 37  1  0  0  0  0
 34 33  1  6  0  0  0
 34 35  1  0  0  0  0
 34 32  1  0  0  0  0
 36 35  1  6  0  0  0
 36 31  1  0  0  0  0
 36 38  1  0  0  0  0
 37 30  2  0  0  0  0
 37 29  1  0  0  0  0
 38 39  1  0  0  0  0
 38 30  1  0  0  0  0
 39 40  1  0  0  0  0
 40 41  1  0  0  0  0
 41 45  1  0  0  0  0
 42 43  1  0  0  0  0
 44 42  2  0  0  0  0
 45 42  1  0  0  0  0
M  END
>  <MODEL>
3

>  <REMARK>
 VINA RESULT:      -6.6      3.806     10.283
  Name = 
  9 active torsions:
  status: ('A' for Active; 'I' for Inactive)
    1  A    between atoms: C_7  and  C_36
    2  A    between atoms: C_7  and  C_40
    3  A    between atoms: C_15  and  N_28
    4  A    between atoms: C_15  and  O_43
    5  A    between atoms: C_21  and  O_43
    6  A    between atoms: C_21  and  N_44
    7  A    between atoms: C_24  and  C_39
    8  A    between atoms: C_31  and  C_39
    9  A    between atoms: C_31  and  C_42
                            x       y       z     vdW  Elec       q    Type
                         _______ _______ _______ _____ _____    ______ ____

>  <TORSDO>
F 9

$$$$
=
 OpenBabel11072412043D

 45 51  0  0  1  0  0  0  0  0999 V2000
  161.1950  208.3000  152.8170 C   0  0  0  0  0  2  0  0  0  0  0  0
  160.4780  213.5150  157.2610 C   0  0  0  0  0  3  0  0  0  0  0  0
  160.3790  209.1680  154.7550 C   0  0  2  0  0  0  0  0  0  0  0  0
  157.5140  211.4700  155.8360 C   0  0  0  0  0  2  0  0  0  0  0  0
  161.2530  208.1950  155.5580 C   0  0  0  0  0  2  0  0  0  0  0  0
  159.2010  209.7090  155.5300 C   0  0  2  0  0  3  0  0  0  0  0  0
  162.8270  206.6070  153.1700 O   0  0  0  0  0  1  0  0  0  0  0  0
  158.5810  212.4640  156.2590 C   0  0  0  0  0  0  0  0  0  0  0  0
  161.4780  206.8930  153.3820 C   0  0  1  0  0  0  0  0  0  0  0  0
  159.6510  214.4530  156.5170 N   0  0  0  0  0  0  0  0  0  0  0  0
  158.0320  210.3980  154.8650 C   0  0  0  0  0  2  0  0  0  0  0  0
  161.2030  206.8220  154.8950 C   0  0  0  0  0  2  0  0  0  0  0  0
  159.8030  212.1490  157.1040 C   0  0  1  0  0  3  0  0  0  0  0  0
  160.8180  211.1430  156.4940 C   0  0  0  0  0  2  0  0  0  0  0  0
  158.5540  213.7510  155.9660 C   0  0  0  0  0  0  0  0  0  0  0  0
  160.0560  208.8690  153.4150 O   0  0  0  0  0  0  0  0  0  0  0  0
  160.3540  210.6320  155.1400 C   0  0  1  0  0  3  0  0  0  0  0  0
  157.4760  214.4280  155.1820 C   0  0  0  0  0  2  0  0  0  0  0  0
  158.8170  213.6340  153.2200 C   0  0  0  0  0  3  0  0  0  0  0  0
  155.5290  214.2200  150.6360 N   0  0  0  0  0  1  0  0  0  0  0  0
  158.9420  213.3550  151.8540 C   0  0  0  0  0  0  0  0  0  0  0  0
  156.5140  214.3080  152.8710 C   0  0  0  0  0  3  0  0  0  0  0  0
  160.1720  212.8590  151.3380 N   0  0  0  0  0  1  0  0  0  0  0  0
  156.6390  214.0290  151.5070 C   0  0  0  0  0  0  0  0  0  0  0  0
  157.8510  213.5510  151.0000 C   0  0  0  0  0  3  0  0  0  0  0  0
  157.6010  214.1050  153.7310 C   0  0  0  0  0  0  0  0  0  0  0  0
  160.6450  205.8280  152.6540 C   0  0  0  0  0  2  0  0  0  0  0  0
  161.8420  204.0950  151.5470 O   0  0  0  0  0  0  0  0  0  0  0  0
  161.3290  205.2420  151.4520 C   0  0  0  0  0  0  0  0  0  0  0  0
  162.1370  207.1350  149.9790 N   0  0  0  0  0  0  0  0  0  0  0  0
  160.9030  205.5700  148.9900 C   0  0  2  0  0  3  0  0  0  0  0  0
  160.3730  203.9580  148.4780 S   0  0  0  0  0  0  0  0  0  0  0  0
  161.8020  202.8240  146.4280 C   0  0  0  0  0  1  0  0  0  0  0  0
  161.9060  203.8950  147.4930 C   0  0  1  0  0  3  0  0  0  0  0  0
  162.2790  205.5240  146.7220 S   0  0  0  0  0  0  0  0  0  0  0  0
  161.3470  206.5070  147.9450 C   0  0  2  0  0  3  0  0  0  0  0  0
  161.3940  205.9470  150.1560 C   0  0  0  0  0  0  0  0  0  0  0  0
  162.2260  207.4780  148.6180 N   0  0  0  0  0  0  0  0  0  0  0  0
  161.6240  208.7940  148.4760 C   0  0  0  0  0  2  0  0  0  0  0  0
  162.6240  209.7640  148.3510 O   0  0  0  0  0  0  0  0  0  0  0  0
  162.2100  210.8140  149.1750 C   0  0  0  0  0  2  0  0  0  0  0  0
  161.9760  212.7540  147.5610 C   0  0  0  0  0  0  0  0  0  0  0  0
  161.1190  213.6270  146.8350 N   0  0  0  0  0  1  0  0  0  0  0  0
  163.2270  212.8650  147.4430 O   0  0  0  0  0  0  0  0  0  0  0  0
  161.4080  211.7610  148.4150 N   0  0  0  0  0  2  0  0  0  0  0  0
  1  9  1  0  0  0  0
  1 16  1  0  0  0  0
  3 17  1  0  0  0  0
  3  6  1  0  0  0  0
  3  5  1  1  0  0  0
  4  8  1  0  0  0  0
  6 11  1  6  0  0  0
  8 13  1  0  0  0  0
  9  7  1  6  0  0  0
  9 12  1  0  0  0  0
 10  2  2  0  0  0  0
 11  4  1  0  0  0  0
 12  5  1  0  0  0  0
 13 14  1  6  0  0  0
 13  2  1  0  0  0  0
 15  8  2  0  0  0  0
 15 10  1  0  0  0  0
 16  3  1  0  0  0  0
 17  6  1  0  0  0  0
 17 14  1  1  0  0  0
 18 15  1  0  0  0  0
 19 26  1  0  0  0  0
 20 24  1  0  0  0  0
 21 19  2  0  0  0  0
 22 26  2  0  0  0  0
 23 21  1  0  0  0  0
 24 22  1  0  0  0  0
 25 24  2  0  0  0  0
 25 21  1  0  0  0  0
 26 18  1  0  0  0  0
 27  9  1  0  0  0  0
 29 28  2  0  0  0  0
 29 27  1  0  0  0  0
 30 37  2  0  0  0  0
 31 32  1  6  0  0  0
 31 37  1  0  0  0  0
 34 33  1  6  0  0  0
 34 32  1  0  0  0  0
 35 34  1  0  0  0  0
 36 35  1  6  0  0  0
 36 38  1  0  0  0  0
 36 31  1  0  0  0  0
 37 29  1  0  0  0  0
 38 30  1  0  0  0  0
 39 38  1  0  0  0  0
 40 39  1  0  0  0  0
 40 41  1  0  0  0  0
 42 45  1  0  0  0  0
 43 42  1  0  0  0  0
 44 42  2  0  0  0  0
 45 41  1  0  0  0  0
M  END
>  <MODEL>
4

>  <REMARK>
 VINA RESULT:      -6.5      3.388      8.806
  Name = 
  9 active torsions:
  status: ('A' for Active; 'I' for Inactive)
    1  A    between atoms: C_7  and  C_36
    2  A    between atoms: C_7  and  C_40
    3  A    between atoms: C_15  and  N_28
    4  A    between atoms: C_15  and  O_43
    5  A    between atoms: C_21  and  O_43
    6  A    between atoms: C_21  and  N_44
    7  A    between atoms: C_24  and  C_39
    8  A    between atoms: C_31  and  C_39
    9  A    between atoms: C_31  and  C_42
                            x       y       z     vdW  Elec       q    Type
                         _______ _______ _______ _____ _____    ______ ____

>  <TORSDO>
F 9

$$$$
=
 OpenBabel11072412043D

 45 51  0  0  1  0  0  0  0  0999 V2000
  159.4250  209.1850  154.8980 C   0  0  0  0  0  2  0  0  0  0  0  0
  160.9680  203.7600  150.9420 C   0  0  0  0  0  2  0  0  0  0  0  0
  160.9370  207.7550  153.9790 C   0  0  2  0  0  0  0  0  0  0  0  0
  162.6380  207.2360  150.5860 C   0  0  0  0  0  2  0  0  0  0  0  0
  161.2870  207.2280  155.3770 C   0  0  0  0  0  2  0  0  0  0  0  0
  162.0110  207.5020  152.9480 C   0  0  2  0  0  3  0  0  0  0  0  0
  159.2540  208.9680  157.2600 O   0  0  0  0  0  1  0  0  0  0  0  0
  161.8810  205.9230  150.4990 C   0  0  2  0  0  3  0  0  0  0  0  0
  160.1480  209.3300  156.2520 C   0  0  1  0  0  0  0  0  0  0  0  0
  160.6420  204.2380  149.6070 N   0  0  0  0  0  0  0  0  0  0  0  0
  162.0460  208.2120  151.6140 C   0  0  0  0  0  2  0  0  0  0  0  0
  161.3760  208.4060  156.3420 C   0  0  0  0  0  2  0  0  0  0  0  0
  161.7950  204.8730  151.5930 C   0  0  1  0  0  3  0  0  0  0  0  0
  161.1090  205.3150  152.9150 C   0  0  0  0  0  2  0  0  0  0  0  0
  161.2230  205.5150  149.4300 C   0  0  0  0  0  0  0  0  0  0  0  0
  160.3430  209.0270  153.8430 O   0  0  0  0  0  0  0  0  0  0  0  0
  160.6730  206.7690  152.8610 C   0  0  1  0  0  3  0  0  0  0  0  0
  161.1240  206.2730  148.1440 C   0  0  0  0  0  2  0  0  0  0  0  0
  161.1460  203.9540  147.1980 C   0  0  0  0  0  3  0  0  0  0  0  0
  161.1850  205.4770  143.2590 N   0  0  0  0  0  1  0  0  0  0  0  0
  161.1760  203.0750  146.1080 C   0  0  0  0  0  0  0  0  0  0  0  0
  161.1500  205.8410  145.6760 C   0  0  0  0  0  3  0  0  0  0  0  0
  161.1760  201.6690  146.3250 N   0  0  0  0  0  1  0  0  0  0  0  0
  161.1790  204.9640  144.5880 C   0  0  0  0  0  0  0  0  0  0  0  0
  161.1890  203.5830  144.8030 C   0  0  0  0  0  3  0  0  0  0  0  0
  161.1280  205.3370  146.9830 C   0  0  0  0  0  0  0  0  0  0  0  0
  160.5760  210.7850  156.4950 C   0  0  0  0  0  2  0  0  0  0  0  0
  161.8670  211.4820  154.6210 O   0  0  0  0  0  0  0  0  0  0  0  0
  160.7700  211.5770  155.2340 C   0  0  0  0  0  0  0  0  0  0  0  0
  159.2160  213.5720  155.3500 N   0  0  0  0  0  0  0  0  0  0  0  0
  159.1550  212.3790  153.4740 C   0  0  2  0  0  3  0  0  0  0  0  0
  159.7370  211.5510  152.0190 S   0  0  0  0  0  0  0  0  0  0  0  0
  160.3460  213.1650  149.8850 C   0  0  0  0  0  1  0  0  0  0  0  0
  160.1620  213.2070  151.3880 C   0  0  1  0  0  3  0  0  0  0  0  0
  158.8810  214.4500  151.8370 S   0  0  0  0  0  0  0  0  0  0  0  0
  158.2620  213.5350  153.2910 C   0  0  2  0  0  3  0  0  0  0  0  0
  159.7110  212.4380  154.6690 C   0  0  0  0  0  0  0  0  0  0  0  0
  158.3910  214.3450  154.5140 N   0  0  0  0  0  0  0  0  0  0  0  0
  157.0830  214.3990  155.1480 C   0  0  0  0  0  2  0  0  0  0  0  0
  157.2290  214.3990  156.5400 O   0  0  0  0  0  0  0  0  0  0  0  0
  155.9730  214.0340  157.0320 C   0  0  0  0  0  2  0  0  0  0  0  0
  156.0890  211.6340  156.2250 C   0  0  0  0  0  0  0  0  0  0  0  0
  155.4950  210.5790  155.4790 N   0  0  0  0  0  1  0  0  0  0  0  0
  157.1740  211.4340  156.8360 O   0  0  0  0  0  0  0  0  0  0  0  0
  155.4460  212.9080  156.2750 N   0  0  0  0  0  2  0  0  0  0  0  0
  1  9  1  0  0  0  0
  3  5  1  1  0  0  0
  4 11  1  0  0  0  0
  5 12  1  0  0  0  0
  6 11  1  6  0  0  0
  6  3  1  0  0  0  0
  8  4  1  6  0  0  0
  8 13  1  0  0  0  0
  9 12  1  0  0  0  0
  9 27  1  0  0  0  0
  9  7  1  1  0  0  0
 10  2  1  0  0  0  0
 13  2  1  6  0  0  0
 13 14  1  0  0  0  0
 15 10  2  0  0  0  0
 15  8  1  0  0  0  0
 16  3  1  0  0  0  0
 16  1  1  0  0  0  0
 17 14  1  1  0  0  0
 17  6  1  0  0  0  0
 17  3  1  0  0  0  0
 18 15  1  0  0  0  0
 20 24  1  0  0  0  0
 21 23  1  0  0  0  0
 21 19  2  0  0  0  0
 22 26  2  0  0  0  0
 24 25  2  0  0  0  0
 24 22  1  0  0  0  0
 25 21  1  0  0  0  0
 26 19  1  0  0  0  0
 26 18  1  0  0  0  0
 28 29  2  0  0  0  0
 29 27  1  0  0  0  0
 31 32  1  6  0  0  0
 31 37  1  0  0  0  0
 34 33  1  6  0  0  0
 34 35  1  0  0  0  0
 34 32  1  0  0  0  0
 36 35  1  6  0  0  0
 36 31  1  0  0  0  0
 36 38  1  0  0  0  0
 37 29  1  0  0  0  0
 37 30  2  0  0  0  0
 38 39  1  0  0  0  0
 38 30  1  0  0  0  0
 39 40  1  0  0  0  0
 40 41  1  0  0  0  0
 42 45  1  0  0  0  0
 42 44  2  0  0  0  0
 43 42  1  0  0  0  0
 45 41  1  0  0  0  0
M  END
>  <MODEL>
5

>  <REMARK>
 VINA RESULT:      -6.5      2.279      3.928
  Name = 
  9 active torsions:
  status: ('A' for Active; 'I' for Inactive)
    1  A    between atoms: C_7  and  C_36
    2  A    between atoms: C_7  and  C_40
    3  A    between atoms: C_15  and  N_28
    4  A    between atoms: C_15  and  O_43
    5  A    between atoms: C_21  and  O_43
    6  A    between atoms: C_21  and  N_44
    7  A    between atoms: C_24  and  C_39
    8  A    between atoms: C_31  and  C_39
    9  A    between atoms: C_31  and  C_42
                            x       y       z     vdW  Elec       q    Type
                         _______ _______ _______ _____ _____    ______ ____

>  <TORSDO>
F 9

$$$$
=
 OpenBabel11072412043D

 45 51  0  0  1  0  0  0  0  0999 V2000
  159.0700  209.9650  153.9480 C   0  0  0  0  0  2  0  0  0  0  0  0
  161.7890  203.9680  151.9200 C   0  0  0  0  0  3  0  0  0  0  0  0
  160.8500  208.6950  153.3200 C   0  0  2  0  0  0  0  0  0  0  0  0
  162.3380  207.3250  150.0660 C   0  0  0  0  0  2  0  0  0  0  0  0
  161.4550  208.8510  154.7220 C   0  0  0  0  0  2  0  0  0  0  0  0
  161.8610  208.3270  152.2600 C   0  0  2  0  0  3  0  0  0  0  0  0
  159.1690  210.6460  156.2240 O   0  0  0  0  0  1  0  0  0  0  0  0
  161.9910  205.9420  150.5870 C   0  0  0  0  0  0  0  0  0  0  0  0
  159.8310  210.7910  155.0050 C   0  0  1  0  0  0  0  0  0  0  0  0
  161.2260  203.8000  150.5880 N   0  0  0  0  0  0  0  0  0  0  0  0
  161.5760  208.4520  150.7810 C   0  0  0  0  0  2  0  0  0  0  0  0
  161.2780  210.2950  155.1800 C   0  0  0  0  0  2  0  0  0  0  0  0
  162.3070  205.4090  151.9730 C   0  0  1  0  0  3  0  0  0  0  0  0
  161.6360  206.1510  153.1620 C   0  0  0  0  0  2  0  0  0  0  0  0
  161.3940  205.0080  149.8700 C   0  0  0  0  0  0  0  0  0  0  0  0
  159.9030  209.6350  152.8630 O   0  0  0  0  0  0  0  0  0  0  0  0
  160.7920  207.3220  152.6860 C   0  0  1  0  0  3  0  0  0  0  0  0
  160.9710  205.1610  148.4440 C   0  0  0  0  0  2  0  0  0  0  0  0
  160.5700  203.7490  146.4140 C   0  0  0  0  0  3  0  0  0  0  0  0
  161.5910  200.2520  148.5480 N   0  0  0  0  0  1  0  0  0  0  0  0
  160.5270  202.5030  145.7770 C   0  0  0  0  0  0  0  0  0  0  0  0
  161.2820  202.6750  148.4670 C   0  0  0  0  0  3  0  0  0  0  0  0
  160.1550  202.4160  144.4070 N   0  0  0  0  0  1  0  0  0  0  0  0
  161.2400  201.4310  147.8320 C   0  0  0  0  0  0  0  0  0  0  0  0
  160.8650  201.3450  146.4870 C   0  0  0  0  0  3  0  0  0  0  0  0
  160.9520  203.8370  147.7580 C   0  0  0  0  0  0  0  0  0  0  0  0
  159.8350  212.2830  154.6400 C   0  0  0  0  0  2  0  0  0  0  0  0
  157.5180  212.5240  154.1590 O   0  0  0  0  0  0  0  0  0  0  0  0
  158.6970  212.6910  153.7490 C   0  0  0  0  0  0  0  0  0  0  0  0
  160.0150  212.9830  151.6080 N   0  0  0  0  0  0  0  0  0  0  0  0
  158.1170  214.1310  151.7640 C   0  0  2  0  0  3  0  0  0  0  0  0
  156.3930  214.4530  152.0190 S   0  0  0  0  0  0  0  0  0  0  0  0
  154.7280  213.7570  149.9520 C   0  0  0  0  0  1  0  0  0  0  0  0
  156.1070  213.4730  150.5090 C   0  0  1  0  0  3  0  0  0  0  0  0
  157.3900  213.8100  149.2330 S   0  0  0  0  0  0  0  0  0  0  0  0
  158.6640  214.3630  150.4170 C   0  0  2  0  0  3  0  0  0  0  0  0
  158.9110  213.3100  152.4250 C   0  0  0  0  0  0  0  0  0  0  0  0
  159.8710  213.5260  150.3190 N   0  0  0  0  0  0  0  0  0  0  0  0
  161.0060  214.4080  150.1040 C   0  0  0  0  0  2  0  0  0  0  0  0
  161.6200  214.1050  148.8840 O   0  0  0  0  0  0  0  0  0  0  0  0
  161.3550  212.7490  148.6760 C   0  0  0  0  0  2  0  0  0  0  0  0
  161.4540  213.0410  146.1610 C   0  0  0  0  0  0  0  0  0  0  0  0
  160.8750  212.7760  144.8890 N   0  0  0  0  0  1  0  0  0  0  0  0
  162.5200  213.7090  146.2350 O   0  0  0  0  0  0  0  0  0  0  0  0
  160.8190  212.5440  147.3390 N   0  0  0  0  0  2  0  0  0  0  0  0
  1  9  1  0  0  0  0
  3  5  1  1  0  0  0
  4  8  1  0  0  0  0
  4 11  1  0  0  0  0
  5 12  1  0  0  0  0
  6 11  1  6  0  0  0
  6 17  1  0  0  0  0
  6  3  1  0  0  0  0
  8 13  1  0  0  0  0
  9 12  1  0  0  0  0
  9  7  1  1  0  0  0
 10  2  2  0  0  0  0
 13  2  1  6  0  0  0
 13 14  1  0  0  0  0
 15  8  2  0  0  0  0
 15 10  1  0  0  0  0
 16  3  1  0  0  0  0
 16  1  1  0  0  0  0
 17 14  1  1  0  0  0
 17  3  1  0  0  0  0
 18 15  1  0  0  0  0
 19 26  1  0  0  0  0
 21 19  2  0  0  0  0
 21 25  1  0  0  0  0
 23 21  1  0  0  0  0
 24 22  1  0  0  0  0
 24 20  1  0  0  0  0
 25 24  2  0  0  0  0
 26 18  1  0  0  0  0
 26 22  2  0  0  0  0
 27  9  1  0  0  0  0
 29 28  2  0  0  0  0
 29 27  1  0  0  0  0
 30 37  2  0  0  0  0
 31 32  1  6  0  0  0
 31 37  1  0  0  0  0
 34 33  1  6  0  0  0
 34 32  1  0  0  0  0
 35 34  1  0  0  0  0
 36 35  1  6  0  0  0
 36 31  1  0  0  0  0
 37 29  1  0  0  0  0
 38 36  1  0  0  0  0
 38 30  1  0  0  0  0
 39 38  1  0  0  0  0
 40 39  1  0  0  0  0
 41 40  1  0  0  0  0
 42 44  2  0  0  0  0
 42 45  1  0  0  0  0
 43 42  1  0  0  0  0
 45 41  1  0  0  0  0
M  END
>  <MODEL>
6

>  <REMARK>
 VINA RESULT:      -6.3      1.882      2.841
  Name = 
  9 active torsions:
  status: ('A' for Active; 'I' for Inactive)
    1  A    between atoms: C_7  and  C_36
    2  A    between atoms: C_7  and  C_40
    3  A    between atoms: C_15  and  N_28
    4  A    between atoms: C_15  and  O_43
    5  A    between atoms: C_21  and  O_43
    6  A    between atoms: C_21  and  N_44
    7  A    between atoms: C_24  and  C_39
    8  A    between atoms: C_31  and  C_39
    9  A    between atoms: C_31  and  C_42
                            x       y       z     vdW  Elec       q    Type
                         _______ _______ _______ _____ _____    ______ ____

>  <TORSDO>
F 9

$$$$
=
 OpenBabel11072412043D

 45 51  0  0  1  0  0  0  0  0999 V2000
  161.0590  208.2040  152.8530 C   0  0  0  0  0  2  0  0  0  0  0  0
  160.5660  213.4760  157.2610 C   0  0  0  0  0  3  0  0  0  0  0  0
  160.3020  209.1110  154.7970 C   0  0  2  0  0  0  0  0  0  0  0  0
  157.5210  211.5000  155.9080 C   0  0  0  0  0  2  0  0  0  0  0  0
  161.1640  208.1220  155.5940 C   0  0  0  0  0  2  0  0  0  0  0  0
  159.1530  209.6900  155.5890 C   0  0  2  0  0  3  0  0  0  0  0  0
  162.6500  206.4700  153.1920 O   0  0  0  0  0  1  0  0  0  0  0  0
  158.6220  212.4680  156.3030 C   0  0  0  0  0  0  0  0  0  0  0  0
  161.3140  206.7950  153.4260 C   0  0  1  0  0  0  0  0  0  0  0  0
  159.7510  214.4290  156.5240 N   0  0  0  0  0  0  0  0  0  0  0  0
  157.9920  210.4060  154.9380 C   0  0  0  0  0  2  0  0  0  0  0  0
  161.0640  206.7450  154.9440 C   0  0  0  0  0  2  0  0  0  0  0  0
  159.8500  212.1270  157.1290 C   0  0  1  0  0  3  0  0  0  0  0  0
  160.8260  211.0890  156.5100 C   0  0  0  0  0  2  0  0  0  0  0  0
  158.6250  213.7520  155.9990 C   0  0  0  0  0  0  0  0  0  0  0  0
  159.9460  208.8100  153.4660 O   0  0  0  0  0  0  0  0  0  0  0  0
  160.3240  210.5780  155.1690 C   0  0  1  0  0  3  0  0  0  0  0  0
  157.5520  214.4530  155.2280 C   0  0  0  0  0  2  0  0  0  0  0  0
  156.6200  214.4450  152.9020 C   0  0  0  0  0  3  0  0  0  0  0  0
  160.1730  212.7270  151.4010 N   0  0  0  0  0  1  0  0  0  0  0  0
  156.7350  214.1540  151.5380 C   0  0  0  0  0  0  0  0  0  0  0  0
  158.8580  213.5890  153.2720 C   0  0  0  0  0  3  0  0  0  0  0  0
  155.6600  214.4510  150.6530 N   0  0  0  0  0  1  0  0  0  0  0  0
  158.9730  213.3000  151.9090 C   0  0  0  0  0  0  0  0  0  0  0  0
  157.9130  213.5840  151.0430 C   0  0  0  0  0  3  0  0  0  0  0  0
  157.6840  214.1680  153.7700 C   0  0  0  0  0  0  0  0  0  0  0  0
  160.4390  205.7470  152.7220 C   0  0  0  0  0  2  0  0  0  0  0  0
  161.7950  203.7920  152.7360 O   0  0  0  0  0  0  0  0  0  0  0  0
  161.2230  204.6680  152.0330 C   0  0  0  0  0  0  0  0  0  0  0  0
  160.5540  203.6610  149.8090 N   0  0  0  0  0  0  0  0  0  0  0  0
  162.0030  205.3470  149.7350 C   0  0  2  0  0  3  0  0  0  0  0  0
  162.6880  206.9560  150.0260 S   0  0  0  0  0  0  0  0  0  0  0  0
  161.6500  208.9910  148.5060 C   0  0  0  0  0  1  0  0  0  0  0  0
  161.3290  207.5930  148.9910 C   0  0  1  0  0  3  0  0  0  0  0  0
  160.9950  206.4840  147.5600 S   0  0  0  0  0  0  0  0  0  0  0  0
  161.6760  204.9850  148.3460 C   0  0  2  0  0  3  0  0  0  0  0  0
  161.3210  204.5770  150.5620 C   0  0  0  0  0  0  0  0  0  0  0  0
  160.6560  203.9270  148.4320 N   0  0  0  0  0  0  0  0  0  0  0  0
  161.2050  202.7310  147.8120 C   0  0  0  0  0  2  0  0  0  0  0  0
  160.2260  202.1080  147.0300 O   0  0  0  0  0  0  0  0  0  0  0  0
  160.8120  201.9620  145.7700 C   0  0  0  0  0  2  0  0  0  0  0  0
  160.6550  204.1700  144.5360 C   0  0  0  0  0  0  0  0  0  0  0  0
  161.2730  205.3970  144.1680 N   0  0  0  0  0  1  0  0  0  0  0  0
  159.4770  203.9260  144.1570 O   0  0  0  0  0  0  0  0  0  0  0  0
  161.3770  203.2300  145.3310 N   0  0  0  0  0  2  0  0  0  0  0  0
  1  9  1  0  0  0  0
  1 16  1  0  0  0  0
  3 17  1  0  0  0  0
  3  6  1  0  0  0  0
  3  5  1  1  0  0  0
  4  8  1  0  0  0  0
  6 11  1  6  0  0  0
  8 13  1  0  0  0  0
  9  7  1  6  0  0  0
  9 12  1  0  0  0  0
 10  2  2  0  0  0  0
 11  4  1  0  0  0  0
 12  5  1  0  0  0  0
 13 14  1  6  0  0  0
 13  2  1  0  0  0  0
 15  8  2  0  0  0  0
 15 10  1  0  0  0  0
 16  3  1  0  0  0  0
 17  6  1  0  0  0  0
 17 14  1  1  0  0  0
 18 15  1  0  0  0  0
 19 26  1  0  0  0  0
 20 24  1  0  0  0  0
 21 19  2  0  0  0  0
 22 26  2  0  0  0  0
 23 21  1  0  0  0  0
 24 22  1  0  0  0  0
 25 21  1  0  0  0  0
 25 24  2  0  0  0  0
 26 18  1  0  0  0  0
 27  9  1  0  0  0  0
 29 27  1  0  0  0  0
 29 28  2  0  0  0  0
 30 37  2  0  0  0  0
 31 32  1  1  0  0  0
 31 37  1  0  0  0  0
 34 33  1  6  0  0  0
 34 32  1  0  0  0  0
 35 34  1  0  0  0  0
 36 35  1  6  0  0  0
 36 38  1  0  0  0  0
 36 31  1  0  0  0  0
 37 29  1  0  0  0  0
 38 30  1  0  0  0  0
 39 38  1  0  0  0  0
 40 39  1  0  0  0  0
 41 40  1  0  0  0  0
 42 45  1  0  0  0  0
 43 42  1  0  0  0  0
 44 42  2  0  0  0  0
 45 41  1  0  0  0  0
M  END
>  <MODEL>
7

>  <REMARK>
 VINA RESULT:      -6.2      3.495      9.461
  Name = 
  9 active torsions:
  status: ('A' for Active; 'I' for Inactive)
    1  A    between atoms: C_7  and  C_36
    2  A    between atoms: C_7  and  C_40
    3  A    between atoms: C_15  and  N_28
    4  A    between atoms: C_15  and  O_43
    5  A    between atoms: C_21  and  O_43
    6  A    between atoms: C_21  and  N_44
    7  A    between atoms: C_24  and  C_39
    8  A    between atoms: C_31  and  C_39
    9  A    between atoms: C_31  and  C_42
                            x       y       z     vdW  Elec       q    Type
                         _______ _______ _______ _____ _____    ______ ____

>  <TORSDO>
F 9

$$$$
=
 OpenBabel11072412043D

 45 51  0  0  1  0  0  0  0  0999 V2000
  161.0460  207.2820  151.6410 C   0  0  0  0  0  2  0  0  0  0  0  0
  163.8090  205.0420  145.7400 C   0  0  0  0  0  3  0  0  0  0  0  0
  161.4440  207.5130  149.4130 C   0  0  2  0  0  0  0  0  0  0  0  0
  160.0930  206.0620  146.1350 C   0  0  0  0  0  2  0  0  0  0  0  0
  162.2870  208.7640  149.6930 C   0  0  0  0  0  2  0  0  0  0  0  0
  160.9270  207.4350  147.9960 C   0  0  2  0  0  3  0  0  0  0  0  0
  162.1440  208.9290  152.9580 O   0  0  0  0  0  1  0  0  0  0  0  0
  161.4600  205.4280  145.9480 C   0  0  0  0  0  0  0  0  0  0  0  0
  161.1630  208.7820  151.9780 C   0  0  1  0  0  0  0  0  0  0  0  0
  163.0230  203.8520  145.4540 N   0  0  0  0  0  0  0  0  0  0  0  0
  159.8170  206.4960  147.5820 C   0  0  0  0  0  2  0  0  0  0  0  0
  161.5810  209.6100  150.7490 C   0  0  0  0  0  2  0  0  0  0  0  0
  162.7950  206.1350  146.0940 C   0  0  1  0  0  3  0  0  0  0  0  0
  163.1220  206.6980  147.5050 C   0  0  0  0  0  2  0  0  0  0  0  0
  161.6520  204.1700  145.5950 C   0  0  0  0  0  0  0  0  0  0  0  0
  160.4920  207.0880  150.3620 O   0  0  0  0  0  0  0  0  0  0  0  0
  161.9860  206.4480  148.4840 C   0  0  1  0  0  3  0  0  0  0  0  0
  160.5630  203.1820  145.3210 C   0  0  0  0  0  2  0  0  0  0  0  0
  160.8680  202.0280  147.5240 C   0  0  0  0  0  3  0  0  0  0  0  0
  161.2060  198.2820  145.6040 N   0  0  0  0  0  1  0  0  0  0  0  0
  161.0820  200.8700  148.2810 C   0  0  0  0  0  0  0  0  0  0  0  0
  160.8860  200.7030  145.4930 C   0  0  0  0  0  3  0  0  0  0  0  0
  161.1700  200.9520  149.6990 N   0  0  0  0  0  1  0  0  0  0  0  0
  161.0990  199.5460  146.2490 C   0  0  0  0  0  0  0  0  0  0  0  0
  161.1950  199.6300  147.6420 C   0  0  0  0  0  3  0  0  0  0  0  0
  160.7640  201.9450  146.1300 C   0  0  0  0  0  0  0  0  0  0  0  0
  159.8410  209.3240  152.5420 C   0  0  0  0  0  2  0  0  0  0  0  0
  159.8910  211.6530  152.0550 O   0  0  0  0  0  0  0  0  0  0  0  0
  159.9050  210.7680  152.9520 C   0  0  0  0  0  0  0  0  0  0  0  0
  161.1480  211.5830  155.0000 N   0  0  0  0  0  0  0  0  0  0  0  0
  158.9440  211.3660  155.2030 C   0  0  2  0  0  3  0  0  0  0  0  0
  157.2200  211.5660  154.8400 S   0  0  0  0  0  0  0  0  0  0  0  0
  156.1230  213.9820  155.5350 C   0  0  0  0  0  1  0  0  0  0  0  0
  157.4570  213.3260  155.2510 C   0  0  1  0  0  3  0  0  0  0  0  0
  158.5880  213.5370  156.6880 S   0  0  0  0  0  0  0  0  0  0  0  0
  159.4480  211.9430  156.4600 C   0  0  2  0  0  3  0  0  0  0  0  0
  159.9490  211.1880  154.3670 C   0  0  0  0  0  0  0  0  0  0  0  0
  160.8930  212.1500  156.2610 N   0  0  0  0  0  0  0  0  0  0  0  0
  161.5960  211.3350  157.2390 C   0  0  0  0  0  2  0  0  0  0  0  0
  162.4940  210.4810  156.5900 O   0  0  0  0  0  0  0  0  0  0  0  0
  162.3720  209.2580  157.2560 C   0  0  0  0  0  2  0  0  0  0  0  0
  160.6540  207.8370  156.0520 C   0  0  0  0  0  0  0  0  0  0  0  0
  160.3820  206.8160  155.1000 N   0  0  0  0  0  1  0  0  0  0  0  0
  159.7000  208.4010  156.6530 O   0  0  0  0  0  0  0  0  0  0  0  0
  162.0060  208.2100  156.3150 N   0  0  0  0  0  2  0  0  0  0  0  0
  1  9  1  0  0  0  0
  3  5  1  1  0  0  0
  3 16  1  0  0  0  0
  4 11  1  0  0  0  0
  5 12  1  0  0  0  0
  6 11  1  1  0  0  0
  6 17  1  0  0  0  0
  6  3  1  0  0  0  0
  8 13  1  0  0  0  0
  8  4  1  0  0  0  0
  9 27  1  0  0  0  0
  9  7  1  1  0  0  0
 10 15  1  0  0  0  0
 10  2  2  0  0  0  0
 12  9  1  0  0  0  0
 13  2  1  1  0  0  0
 13 14  1  0  0  0  0
 15  8  2  0  0  0  0
 16  1  1  0  0  0  0
 17 14  1  6  0  0  0
 17  3  1  0  0  0  0
 18 15  1  0  0  0  0
 18 26  1  0  0  0  0
 19 21  1  0  0  0  0
 20 24  1  0  0  0  0
 21 23  1  0  0  0  0
 22 26  1  0  0  0  0
 22 24  2  0  0  0  0
 24 25  1  0  0  0  0
 25 21  2  0  0  0  0
 26 19  2  0  0  0  0
 27 29  1  0  0  0  0
 28 29  2  0  0  0  0
 29 37  1  0  0  0  0
 30 38  1  0  0  0  0
 31 37  1  6  0  0  0
 31 36  1  0  0  0  0
 32 31  1  0  0  0  0
 32 34  1  0  0  0  0
 34 33  1  1  0  0  0
 34 35  1  0  0  0  0
 36 35  1  6  0  0  0
 37 30  2  0  0  0  0
 38 36  1  0  0  0  0
 38 39  1  0  0  0  0
 40 39  1  0  0  0  0
 40 41  1  0  0  0  0
 42 45  1  0  0  0  0
 42 44  2  0  0  0  0
 43 42  1  0  0  0  0
 45 41  1  0  0  0  0
M  END
>  <MODEL>
8

>  <REMARK>
 VINA RESULT:      -5.6      2.811      5.374
  Name = 
  9 active torsions:
  status: ('A' for Active; 'I' for Inactive)
    1  A    between atoms: C_7  and  C_36
    2  A    between atoms: C_7  and  C_40
    3  A    between atoms: C_15  and  N_28
    4  A    between atoms: C_15  and  O_43
    5  A    between atoms: C_21  and  O_43
    6  A    between atoms: C_21  and  N_44
    7  A    between atoms: C_24  and  C_39
    8  A    between atoms: C_31  and  C_39
    9  A    between atoms: C_31  and  C_42
                            x       y       z     vdW  Elec       q    Type
                         _______ _______ _______ _____ _____    ______ ____

>  <TORSDO>
F 9

$$$$
=
 OpenBabel11072412043D

 45 51  0  0  1  0  0  0  0  0999 V2000
  161.8300  211.0660  147.6420 C   0  0  0  0  0  2  0  0  0  0  0  0
  162.1250  214.2110  141.5200 C   0  0  0  0  0  2  0  0  0  0  0  0
  161.3460  212.8220  146.2790 C   0  0  2  0  0  0  0  0  0  0  0  0
  158.8430  213.6320  143.4930 C   0  0  0  0  0  2  0  0  0  0  0  0
  162.2330  213.7330  147.1370 C   0  0  0  0  0  2  0  0  0  0  0  0
  160.3260  213.5700  145.4530 C   0  0  2  0  0  3  0  0  0  0  0  0
  163.3490  211.6310  149.3820 O   0  0  0  0  0  1  0  0  0  0  0  0
  160.0340  213.6930  142.5530 C   0  0  2  0  0  3  0  0  0  0  0  0
  162.0670  211.9130  148.9100 C   0  0  1  0  0  0  0  0  0  0  0  0
  161.2890  213.3610  140.6860 N   0  0  0  0  0  0  0  0  0  0  0  0
  159.1420  212.8910  144.8050 C   0  0  0  0  0  2  0  0  0  0  0  0
  161.9850  213.4200  148.6100 C   0  0  0  0  0  2  0  0  0  0  0  0
  161.3250  214.4530  142.8040 C   0  0  1  0  0  3  0  0  0  0  0  0
  162.1660  213.9910  144.0260 C   0  0  0  0  0  2  0  0  0  0  0  0
  160.0750  213.1110  141.3700 C   0  0  0  0  0  0  0  0  0  0  0  0
  160.8280  211.6320  146.8320 O   0  0  0  0  0  0  0  0  0  0  0  0
  161.4910  212.8530  144.7720 C   0  0  1  0  0  3  0  0  0  0  0  0
  158.9650  212.3090  140.7700 C   0  0  0  0  0  2  0  0  0  0  0  0
  160.7500  210.5990  140.3700 C   0  0  0  0  0  3  0  0  0  0  0  0
  158.5790  208.9750  137.1320 N   0  0  0  0  0  1  0  0  0  0  0  0
  161.2720  209.5180  139.6480 C   0  0  0  0  0  0  0  0  0  0  0  0
  158.7930  210.6070  138.9390 C   0  0  0  0  0  3  0  0  0  0  0  0
  162.5270  208.9560  140.0150 N   0  0  0  0  0  1  0  0  0  0  0  0
  159.3140  209.5280  138.2190 C   0  0  0  0  0  0  0  0  0  0  0  0
  160.5510  208.9820  138.5750 C   0  0  0  0  0  3  0  0  0  0  0  0
  159.5080  211.1410  140.0190 C   0  0  0  0  0  0  0  0  0  0  0  0
  161.0620  211.5480  150.0120 C   0  0  0  0  0  2  0  0  0  0  0  0
  162.2190  211.0760  152.0370 O   0  0  0  0  0  0  0  0  0  0  0  0
  161.6100  210.6010  151.0420 C   0  0  0  0  0  0  0  0  0  0  0  0
  162.1420  208.3520  150.0100 N   0  0  0  0  0  0  0  0  0  0  0  0
  160.7250  208.3430  151.7250 C   0  0  2  0  0  3  0  0  0  0  0  0
  160.0900  208.6600  153.3490 S   0  0  0  0  0  0  0  0  0  0  0  0
  161.0880  207.0750  155.3540 C   0  0  0  0  0  1  0  0  0  0  0  0
  161.4050  207.5520  153.9530 C   0  0  1  0  0  3  0  0  0  0  0  0
  161.6420  206.1120  152.8300 S   0  0  0  0  0  0  0  0  0  0  0  0
  160.9720  206.9410  151.3490 C   0  0  2  0  0  3  0  0  0  0  0  0
  161.4340  209.1390  150.9450 C   0  0  0  0  0  0  0  0  0  0  0  0
  161.9730  206.9800  150.2710 N   0  0  0  0  0  0  0  0  0  0  0  0
  161.3690  206.3980  149.0830 C   0  0  0  0  0  2  0  0  0  0  0  0
  162.1170  206.7410  147.9520 O   0  0  0  0  0  0  0  0  0  0  0  0
  161.3710  206.2620  146.8700 C   0  0  0  0  0  2  0  0  0  0  0  0
  161.1650  204.0190  145.7110 C   0  0  0  0  0  0  0  0  0  0  0  0
  161.1720  202.6000  145.8110 N   0  0  0  0  0  1  0  0  0  0  0  0
  161.0010  204.5650  144.5860 O   0  0  0  0  0  0  0  0  0  0  0  0
  161.3430  204.8070  146.8870 N   0  0  0  0  0  2  0  0  0  0  0  0
  1  9  1  0  0  0  0
  3 16  1  0  0  0  0
  3  5  1  1  0  0  0
  4 11  1  0  0  0  0
  5 12  1  0  0  0  0
  6 11  1  6  0  0  0
  6  3  1  0  0  0  0
  8 13  1  0  0  0  0
  8  4  1  6  0  0  0
  9  7  1  1  0  0  0
  9 27  1  0  0  0  0
 10 15  2  0  0  0  0
 10  2  1  0  0  0  0
 12  9  1  0  0  0  0
 13  2  1  6  0  0  0
 13 14  1  0  0  0  0
 15  8  1  0  0  0  0
 16  1  1  0  0  0  0
 17 14  1  1  0  0  0
 17  6  1  0  0  0  0
 17  3  1  0  0  0  0
 18 15  1  0  0  0  0
 20 24  1  0  0  0  0
 21 23  1  0  0  0  0
 21 19  2  0  0  0  0
 22 26  2  0  0  0  0
 24 25  2  0  0  0  0
 24 22  1  0  0  0  0
 25 21  1  0  0  0  0
 26 19  1  0  0  0  0
 26 18  1  0  0  0  0
 27 29  1  0  0  0  0
 29 28  2  0  0  0  0
 30 38  1  0  0  0  0
 30 37  2  0  0  0  0
 31 37  1  1  0  0  0
 31 32  1  0  0  0  0
 32 34  1  0  0  0  0
 34 33  1  1  0  0  0
 35 34  1  0  0  0  0
 36 31  1  0  0  0  0
 36 35  1  1  0  0  0
 37 29  1  0  0  0  0
 38 36  1  0  0  0  0
 39 38  1  0  0  0  0
 40 39  1  0  0  0  0
 41 45  1  0  0  0  0
 41 40  1  0  0  0  0
 42 43  1  0  0  0  0
 42 45  1  0  0  0  0
 44 42  2  0  0  0  0
M  END
>  <MODEL>
9

>  <REMARK>
 VINA RESULT:      -5.4      4.692      8.838
  Name = 
  9 active torsions:
  status: ('A' for Active; 'I' for Inactive)
    1  A    between atoms: C_7  and  C_36
    2  A    between atoms: C_7  and  C_40
    3  A    between atoms: C_15  and  N_28
    4  A    between atoms: C_15  and  O_43
    5  A    between atoms: C_21  and  O_43
    6  A    between atoms: C_21  and  N_44
    7  A    between atoms: C_24  and  C_39
    8  A    between atoms: C_31  and  C_39
    9  A    between atoms: C_31  and  C_42
                            x       y       z     vdW  Elec       q    Type
                         _______ _______ _______ _____ _____    ______ ____

>  <TORSDO>
F 9

$$$$
