=
 OpenBabel11072412083D

 50 56  0  0  1  0  0  0  0  0999 V2000
  160.5160  211.0710  152.6120 N   0  0  0  0  0  0  0  0  0  0  0  0
  161.1150  209.7820  152.3960 C   0  0  0  0  0  0  0  0  0  0  0  0
  160.2160  211.5220  153.9740 C   0  0  0  0  0  2  0  0  0  0  0  0
  157.6100  213.8290  152.8500 O   0  0  0  0  0  0  0  0  0  0  0  0
  158.8270  212.1560  154.0360 C   0  0  2  0  0  3  0  0  0  0  0  0
  161.3080  209.3600  151.2210 O   0  0  0  0  0  0  0  0  0  0  0  0
  160.2510  211.9390  151.4550 C   0  0  0  0  0  2  0  0  0  0  0  0
  158.6340  213.1590  152.9110 C   0  0  0  0  0  0  0  0  0  0  0  0
  159.7230  213.3180  151.8710 C   0  0  2  0  0  3  0  0  0  0  0  0
  159.2300  214.0230  150.7020 N   0  0  0  0  0  2  0  0  0  0  0  0
  159.8380  213.4260  149.5270 C   0  0  0  0  0  2  0  0  0  0  0  0
  159.8070  212.1800  145.4610 C   0  0  0  0  0  3  0  0  0  0  0  0
  159.8810  214.4520  148.4050 C   0  0  1  0  0  3  0  0  0  0  0  0
  161.2060  214.3450  147.6550 C   0  0  0  0  0  2  0  0  0  0  0  0
  159.5890  214.4530  145.7780 C   0  0  0  0  0  3  0  0  0  0  0  0
  160.0710  212.3230  146.7540 C   0  0  0  0  0  3  0  0  0  0  0  0
  159.9450  213.7760  147.0400 C   0  0  2  0  0  0  0  0  0  0  0  0
  159.5100  213.4930  144.8600 C   0  0  0  0  0  3  0  0  0  0  0  0
  161.5240  208.9170  153.5500 C   0  0  0  0  0  2  0  0  0  0  0  0
  160.7720  207.5950  153.5190 C   0  0  0  0  0  2  0  0  0  0  0  0
  161.6630  206.4300  153.9460 C   0  0  0  0  0  2  0  0  0  0  0  0
  161.2230  205.8160  148.3990 C   0  0  1  0  0  3  0  0  0  0  0  0
  161.9560  203.7190  147.4350 O   0  0  0  0  0  0  0  0  0  0  0  0
  161.0040  204.7410  147.3350 C   0  0  0  0  0  2  0  0  0  0  0  0
  161.6480  206.3010  150.8470 C   0  0  1  0  0  3  0  0  0  0  0  0
  160.7640  205.6630  151.8960 C   0  0  1  0  0  3  0  0  0  0  0  0
  160.3150  204.3090  151.3690 C   0  0  0  0  0  2  0  0  0  0  0  0
  161.2590  203.9480  150.2440 C   0  0  2  0  0  3  0  0  0  0  0  0
  162.7440  206.1490  151.8810 C   0  0  0  0  0  2  0  0  0  0  0  0
  161.5200  202.7290  148.3530 C   0  0  1  0  0  3  0  0  0  0  0  0
  161.8330  205.2830  149.7210 C   0  0  1  0  0  3  0  0  0  0  0  0
  161.8640  205.4980  152.8430 N   0  0  0  0  0  0  0  0  0  0  0  0
  160.5660  203.1960  149.2820 O   0  0  0  0  0  0  0  0  0  0  0  0
  160.4790  201.7100  146.3740 C   0  0  0  0  0  0  0  0  0  0  0  0
  160.6020  201.9800  145.1560 O   0  0  0  0  0  0  0  0  0  0  0  0
  159.6400  201.3830  147.5740 O   0  0  0  0  0  0  0  0  0  0  0  0
  161.6390  200.2820  147.7930 O   0  0  0  0  0  1  0  0  0  0  0  0
  160.9950  201.5010  147.6270 C   0  0  2  0  0  0  0  0  0  0  0  0
  162.1030  208.0430  148.5920 O   0  0  0  0  0  1  0  0  0  0  0  0
  162.1070  206.8970  147.7940 C   0  0  0  0  0  2  0  0  0  0  0  0
  158.5550  212.6900  155.4530 C   0  0  1  0  0  3  0  0  0  0  0  0
  157.5710  211.8610  156.3040 C   0  0  1  0  0  3  0  0  0  0  0  0
  156.5140  212.7290  156.9780 C   0  0  0  0  0  1  0  0  0  0  0  0
  156.9510  210.8220  155.5380 O   0  0  0  0  0  0  0  0  0  0  0  0
  155.0770  211.4900  154.1450 O   0  0  0  0  0  0  0  0  0  0  0  0
  154.8090  210.0980  155.9410 O   0  0  0  0  0  1  0  0  0  0  0  0
  155.5840  210.7900  155.2320 C   0  0  0  0  0  0  0  0  0  0  0  0
  159.8530  213.0680  156.1740 C   0  0  0  0  0  2  0  0  0  0  0  0
  161.0930  210.9560  157.2610 C   0  0  0  0  0  3  0  0  0  0  0  0
  160.5380  211.9090  156.7700 C   0  0  0  0  0  0  0  0  0  0  0  0
  1  3  1  0  0  0  0
  2  1  1  0  0  0  0
  2 19  1  0  0  0  0
  3  5  1  0  0  0  0
  4  8  2  0  0  0  0
  5 41  1  1  0  0  0
  6  2  2  0  0  0  0
  7  9  1  0  0  0  0
  7  1  1  0  0  0  0
  8  5  1  0  0  0  0
  9 10  1  6  0  0  0
  9  8  1  0  0  0  0
 11 10  1  0  0  0  0
 12 16  2  0  0  0  0
 13 11  1  1  0  0  0
 14 13  1  0  0  0  0
 15 17  1  0  0  0  0
 16 17  1  0  0  0  0
 17 14  1  0  0  0  0
 17 13  1  0  0  0  0
 18 12  1  0  0  0  0
 18 15  2  0  0  0  0
 20 19  1  0  0  0  0
 20 21  1  0  0  0  0
 22 40  1  6  0  0  0
 22 31  1  0  0  0  0
 24 23  1  0  0  0  0
 24 22  1  0  0  0  0
 25 29  1  1  0  0  0
 25 26  1  0  0  0  0
 26 27  1  6  0  0  0
 26 32  1  0  0  0  0
 28 27  1  1  0  0  0
 29 32  1  0  0  0  0
 30 23  1  6  0  0  0
 30 33  1  0  0  0  0
 31 28  1  0  0  0  0
 31 25  1  0  0  0  0
 32 21  1  0  0  0  0
 33 28  1  0  0  0  0
 34 36  1  0  0  0  0
 34 38  1  0  0  0  0
 35 34  2  0  0  0  0
 36 38  1  0  0  0  0
 38 37  1  0  0  0  0
 38 30  1  0  0  0  0
 40 39  1  0  0  0  0
 41 48  1  0  0  0  0
 41 42  1  0  0  0  0
 42 43  1  0  0  0  0
 44 42  1  0  0  0  0
 45 47  2  0  0  0  0
 47 44  1  0  0  0  0
 47 46  1  0  0  0  0
 48 50  1  0  0  0  0
 50 49  3  0  0  0  0
M  END
>  <MODEL>
1

>  <REMARK>
 VINA RESULT:      -6.8      0.000      0.000
  Name = 
  15 active torsions:
  status: ('A' for Active; 'I' for Inactive)
    1  A    between atoms: O_3  and  C_20
    2  A    between atoms: O_3  and  C_39
    3  A    between atoms: C_4  and  C_38
    4  A    between atoms: C_4  and  N_40
    5  A    between atoms: C_6  and  C_36
    6  A    between atoms: C_10  and  C_29
    7  A    between atoms: N_12  and  C_18
    8  A    between atoms: N_12  and  C_50
    9  A    between atoms: C_14  and  C_46
   10  A    between atoms: C_15  and  C_44
   11  A    between atoms: C_15  and  C_46
   12  A    between atoms: C_18  and  C_22
   13  A    between atoms: C_33  and  C_43
   14  A    between atoms: C_36  and  C_38
   15  A    between atoms: C_39  and  C_46
                            x       y       z     vdW  Elec       q    Type
                         _______ _______ _______ _____ _____    ______ ____

>  <TORSDO>
F 15

$$$$
=
 OpenBabel11072412083D

 50 56  0  0  1  0  0  0  0  0999 V2000
  161.5770  208.5330  150.3980 N   0  0  0  0  0  0  0  0  0  0  0  0
  161.9530  209.6220  149.5390 C   0  0  0  0  0  0  0  0  0  0  0  0
  161.2400  208.7890  151.8020 C   0  0  0  0  0  2  0  0  0  0  0  0
  162.0580  205.3750  152.8290 O   0  0  0  0  0  0  0  0  0  0  0  0
  161.8990  207.7510  152.7100 C   0  0  2  0  0  3  0  0  0  0  0  0
  162.3140  209.3970  148.3500 O   0  0  0  0  0  0  0  0  0  0  0  0
  161.4950  207.1760  149.8400 C   0  0  0  0  0  2  0  0  0  0  0  0
  161.6730  206.3440  152.1850 C   0  0  0  0  0  0  0  0  0  0  0  0
  160.9670  206.1570  150.8580 C   0  0  2  0  0  3  0  0  0  0  0  0
  161.1610  204.8130  150.3480 N   0  0  0  0  0  2  0  0  0  0  0  0
  160.6800  204.7770  148.9780 C   0  0  0  0  0  2  0  0  0  0  0  0
  160.8600  205.8930  144.8780 C   0  0  0  0  0  3  0  0  0  0  0  0
  161.7690  204.2210  148.0750 C   0  0  1  0  0  3  0  0  0  0  0  0
  161.1540  203.2950  147.0290 C   0  0  0  0  0  2  0  0  0  0  0  0
  162.6680  204.6750  145.6300 C   0  0  0  0  0  3  0  0  0  0  0  0
  160.4620  205.4880  146.0790 C   0  0  0  0  0  3  0  0  0  0  0  0
  161.5870  204.6920  146.6360 C   0  0  2  0  0  0  0  0  0  0  0  0
  162.2190  205.3910  144.6030 C   0  0  0  0  0  3  0  0  0  0  0  0
  161.9240  211.0380  150.0280 C   0  0  0  0  0  2  0  0  0  0  0  0
  161.5040  211.9810  148.9090 C   0  0  0  0  0  2  0  0  0  0  0  0
  160.6810  213.1530  149.4390 C   0  0  0  0  0  2  0  0  0  0  0  0
  156.1690  214.4440  152.4920 C   0  0  1  0  0  3  0  0  0  0  0  0
  155.5660  212.9500  154.3000 O   0  0  0  0  0  0  0  0  0  0  0  0
  155.6050  214.2930  153.9050 C   0  0  0  0  0  2  0  0  0  0  0  0
  158.0100  213.7990  150.8790 C   0  0  1  0  0  3  0  0  0  0  0  0
  159.4540  213.9440  151.3030 C   0  0  1  0  0  3  0  0  0  0  0  0
  159.5280  213.7120  152.8030 C   0  0  0  0  0  2  0  0  0  0  0  0
  158.2500  213.0050  153.1940 C   0  0  2  0  0  3  0  0  0  0  0  0
  158.5030  212.5890  150.1130 C   0  0  0  0  0  2  0  0  0  0  0  0
  156.8040  212.5730  154.8830 C   0  0  1  0  0  3  0  0  0  0  0  0
  157.2120  213.3630  152.1080 C   0  0  1  0  0  3  0  0  0  0  0  0
  159.8740  212.7440  150.5840 N   0  0  0  0  0  0  0  0  0  0  0  0
  157.8870  213.3890  154.4950 O   0  0  0  0  0  0  0  0  0  0  0  0
  155.6080  211.8670  156.9100 C   0  0  0  0  0  0  0  0  0  0  0  0
  154.9450  210.8300  157.1490 O   0  0  0  0  0  0  0  0  0  0  0  0
  155.7890  213.3560  156.9590 O   0  0  0  0  0  0  0  0  0  0  0  0
  157.8590  212.3870  157.1560 O   0  0  0  0  0  1  0  0  0  0  0  0
  156.7010  212.5150  156.3990 C   0  0  2  0  0  0  0  0  0  0  0  0
  155.4490  214.3270  150.2030 O   0  0  0  0  0  1  0  0  0  0  0  0
  154.9970  214.4320  151.5200 C   0  0  0  0  0  2  0  0  0  0  0  0
  161.4780  207.9880  154.1710 C   0  0  1  0  0  3  0  0  0  0  0  0
  161.2020  209.4560  154.5590 C   0  0  1  0  0  3  0  0  0  0  0  0
  159.7210  209.8070  154.4810 C   0  0  0  0  0  1  0  0  0  0  0  0
  161.7240  209.7690  155.8550 O   0  0  0  0  0  0  0  0  0  0  0  0
  162.8680  211.4000  157.2440 O   0  0  0  0  0  1  0  0  0  0  0  0
  163.6870  210.7670  155.2040 O   0  0  0  0  0  0  0  0  0  0  0  0
  162.7850  210.6580  156.0730 C   0  0  0  0  0  0  0  0  0  0  0  0
  160.3940  207.0010  154.6150 C   0  0  0  0  0  2  0  0  0  0  0  0
  159.9700  207.0380  157.2600 C   0  0  0  0  0  3  0  0  0  0  0  0
  160.1620  207.0170  156.0680 C   0  0  0  0  0  0  0  0  0  0  0  0
  1  3  1  0  0  0  0
  2 19  1  0  0  0  0
  2  1  1  0  0  0  0
  3  5  1  0  0  0  0
  5 41  1  1  0  0  0
  6  2  2  0  0  0  0
  7  1  1  0  0  0  0
  7  9  1  0  0  0  0
  8  5  1  0  0  0  0
  8  4  2  0  0  0  0
  9 10  1  6  0  0  0
  9  8  1  0  0  0  0
 11 10  1  0  0  0  0
 12 16  2  0  0  0  0
 13 11  1  1  0  0  0
 14 13  1  0  0  0  0
 15 17  1  0  0  0  0
 16 17  1  0  0  0  0
 17 14  1  0  0  0  0
 17 13  1  0  0  0  0
 18 12  1  0  0  0  0
 18 15  2  0  0  0  0
 20 21  1  0  0  0  0
 20 19  1  0  0  0  0
 21 32  1  0  0  0  0
 22 40  1  6  0  0  0
 22 24  1  0  0  0  0
 24 23  1  0  0  0  0
 25 29  1  6  0  0  0
 25 26  1  0  0  0  0
 25 31  1  0  0  0  0
 26 27  1  1  0  0  0
 28 27  1  6  0  0  0
 28 33  1  0  0  0  0
 29 32  1  0  0  0  0
 30 23  1  6  0  0  0
 30 38  1  0  0  0  0
 31 22  1  0  0  0  0
 31 28  1  0  0  0  0
 32 26  1  0  0  0  0
 33 30  1  0  0  0  0
 34 36  1  0  0  0  0
 34 35  2  0  0  0  0
 38 34  1  0  0  0  0
 38 36  1  0  0  0  0
 38 37  1  0  0  0  0
 39 40  1  0  0  0  0
 41 42  1  0  0  0  0
 41 48  1  0  0  0  0
 42 44  1  0  0  0  0
 43 42  1  0  0  0  0
 44 47  1  0  0  0  0
 46 47  2  0  0  0  0
 47 45  1  0  0  0  0
 48 50  1  0  0  0  0
 50 49  3  0  0  0  0
M  END
>  <MODEL>
2

>  <REMARK>
 VINA RESULT:      -6.8      2.876      9.245
  Name = 
  15 active torsions:
  status: ('A' for Active; 'I' for Inactive)
    1  A    between atoms: O_3  and  C_20
    2  A    between atoms: O_3  and  C_39
    3  A    between atoms: C_4  and  C_38
    4  A    between atoms: C_4  and  N_40
    5  A    between atoms: C_6  and  C_36
    6  A    between atoms: C_10  and  C_29
    7  A    between atoms: N_12  and  C_18
    8  A    between atoms: N_12  and  C_50
    9  A    between atoms: C_14  and  C_46
   10  A    between atoms: C_15  and  C_44
   11  A    between atoms: C_15  and  C_46
   12  A    between atoms: C_18  and  C_22
   13  A    between atoms: C_33  and  C_43
   14  A    between atoms: C_36  and  C_38
   15  A    between atoms: C_39  and  C_46
                            x       y       z     vdW  Elec       q    Type
                         _______ _______ _______ _____ _____    ______ ____

>  <TORSDO>
F 15

$$$$
=
 OpenBabel11072412083D

 50 56  0  0  1  0  0  0  0  0999 V2000
  160.1770  210.5970  153.3430 N   0  0  0  0  0  0  0  0  0  0  0  0
  160.9730  209.4340  153.0610 C   0  0  0  0  0  0  0  0  0  0  0  0
  159.5080  211.3110  152.2510 C   0  0  0  0  0  2  0  0  0  0  0  0
  159.3640  214.4500  154.1250 O   0  0  0  0  0  0  0  0  0  0  0  0
  159.6820  212.8210  152.4110 C   0  0  2  0  0  3  0  0  0  0  0  0
  161.6100  208.8600  153.9880 O   0  0  0  0  0  0  0  0  0  0  0  0
  160.0110  211.0290  154.7380 C   0  0  0  0  0  2  0  0  0  0  0  0
  159.3610  213.2600  153.8300 C   0  0  0  0  0  0  0  0  0  0  0  0
  159.0390  212.2080  154.8720 C   0  0  2  0  0  3  0  0  0  0  0  0
  159.1220  212.7590  156.2120 N   0  0  0  0  0  2  0  0  0  0  0  0
  157.9450  213.5790  156.4340 C   0  0  0  0  0  2  0  0  0  0  0  0
  155.2100  210.9240  154.5490 C   0  0  0  0  0  3  0  0  0  0  0  0
  156.9340  212.7980  157.2600 C   0  0  1  0  0  3  0  0  0  0  0  0
  155.5220  213.2880  156.9510 C   0  0  0  0  0  2  0  0  0  0  0  0
  155.2190  210.8280  156.8520 C   0  0  0  0  0  3  0  0  0  0  0  0
  155.9510  211.9730  154.8830 C   0  0  0  0  0  3  0  0  0  0  0  0
  156.0090  211.9780  156.3680 C   0  0  2  0  0  0  0  0  0  0  0  0
  154.7590  210.2190  155.7620 C   0  0  0  0  0  3  0  0  0  0  0  0
  161.0650  208.8790  151.6720 C   0  0  0  0  0  2  0  0  0  0  0  0
  162.0060  209.7210  150.8210 C   0  0  0  0  0  2  0  0  0  0  0  0
  162.0260  209.2500  149.3690 C   0  0  0  0  0  2  0  0  0  0  0  0
  161.1260  204.7460  146.1670 C   0  0  1  0  0  3  0  0  0  0  0  0
  161.9150  202.6070  146.9830 O   0  0  0  0  0  0  0  0  0  0  0  0
  160.8870  203.2400  146.2730 C   0  0  0  0  0  2  0  0  0  0  0  0
  161.7370  206.8730  147.3970 C   0  0  1  0  0  3  0  0  0  0  0  0
  161.0010  207.2360  148.6670 C   0  0  1  0  0  3  0  0  0  0  0  0
  160.6020  205.9440  149.3620 C   0  0  0  0  0  2  0  0  0  0  0  0
  161.4620  204.8510  148.7690 C   0  0  2  0  0  3  0  0  0  0  0  0
  162.9320  207.5130  148.0740 C   0  0  0  0  0  2  0  0  0  0  0  0
  161.6360  202.6270  148.3740 C   0  0  1  0  0  3  0  0  0  0  0  0
  161.8900  205.3520  147.3720 C   0  0  1  0  0  3  0  0  0  0  0  0
  162.1910  207.8020  149.2950 N   0  0  0  0  0  0  0  0  0  0  0  0
  160.7400  203.6470  148.7590 O   0  0  0  0  0  0  0  0  0  0  0  0
  159.8800  201.2500  149.4020 C   0  0  0  0  0  0  0  0  0  0  0  0
  158.6310  201.3210  149.3190 O   0  0  0  0  0  0  0  0  0  0  0  0
  161.1410  201.0860  150.2000 O   0  0  0  0  0  0  0  0  0  0  0  0
  161.4800  200.1300  148.1440 O   0  0  0  0  0  1  0  0  0  0  0  0
  161.1350  201.2740  148.8520 C   0  0  2  0  0  0  0  0  0  0  0  0
  161.0950  205.7800  143.9990 O   0  0  0  0  0  1  0  0  0  0  0  0
  161.8730  205.0100  144.8670 C   0  0  0  0  0  2  0  0  0  0  0  0
  158.9140  213.5600  151.3010 C   0  0  1  0  0  3  0  0  0  0  0  0
  159.7760  214.1210  150.1500 C   0  0  1  0  0  3  0  0  0  0  0  0
  161.0230  213.2820  149.8980 C   0  0  0  0  0  1  0  0  0  0  0  0
  159.0190  214.2690  148.9440 O   0  0  0  0  0  0  0  0  0  0  0  0
  160.3410  214.2660  146.9070 O   0  0  0  0  0  0  0  0  0  0  0  0
  158.8370  212.6050  147.3720 O   0  0  0  0  0  1  0  0  0  0  0  0
  159.3790  213.6840  147.7230 C   0  0  0  0  0  0  0  0  0  0  0  0
  157.6820  212.7720  150.8440 C   0  0  0  0  0  2  0  0  0  0  0  0
  155.4080  214.1750  151.0240 C   0  0  0  0  0  3  0  0  0  0  0  0
  156.4350  213.5450  150.9450 C   0  0  0  0  0  0  0  0  0  0  0  0
  1  7  1  0  0  0  0
  2  1  1  0  0  0  0
  2  6  2  0  0  0  0
  3  5  1  0  0  0  0
  3  1  1  0  0  0  0
  5 41  1  6  0  0  0
  5  8  1  0  0  0  0
  7  9  1  0  0  0  0
  8  4  2  0  0  0  0
  8  9  1  0  0  0  0
  9 10  1  1  0  0  0
 10 11  1  0  0  0  0
 12 16  2  0  0  0  0
 12 18  1  0  0  0  0
 13 11  1  6  0  0  0
 14 13  1  0  0  0  0
 16 17  1  0  0  0  0
 17 15  1  0  0  0  0
 17 14  1  0  0  0  0
 17 13  1  0  0  0  0
 18 15  2  0  0  0  0
 19  2  1  0  0  0  0
 20 19  1  0  0  0  0
 21 20  1  0  0  0  0
 22 40  1  6  0  0  0
 22 24  1  0  0  0  0
 22 31  1  0  0  0  0
 24 23  1  0  0  0  0
 25 29  1  1  0  0  0
 25 26  1  0  0  0  0
 26 32  1  0  0  0  0
 26 27  1  1  0  0  0
 28 27  1  6  0  0  0
 29 32  1  0  0  0  0
 30 23  1  6  0  0  0
 30 33  1  0  0  0  0
 30 38  1  0  0  0  0
 31 25  1  0  0  0  0
 31 28  1  0  0  0  0
 32 21  1  0  0  0  0
 33 28  1  0  0  0  0
 34 36  1  0  0  0  0
 35 34  2  0  0  0  0
 37 38  1  0  0  0  0
 38 34  1  0  0  0  0
 38 36  1  0  0  0  0
 39 40  1  0  0  0  0
 42 41  1  0  0  0  0
 43 42  1  0  0  0  0
 44 42  1  0  0  0  0
 45 47  2  0  0  0  0
 46 47  1  0  0  0  0
 47 44  1  0  0  0  0
 48 50  1  0  0  0  0
 48 41  1  0  0  0  0
 50 49  3  0  0  0  0
M  END
>  <MODEL>
3

>  <REMARK>
 VINA RESULT:      -6.3      2.383      5.969
  Name = 
  15 active torsions:
  status: ('A' for Active; 'I' for Inactive)
    1  A    between atoms: O_3  and  C_20
    2  A    between atoms: O_3  and  C_39
    3  A    between atoms: C_4  and  C_38
    4  A    between atoms: C_4  and  N_40
    5  A    between atoms: C_6  and  C_36
    6  A    between atoms: C_10  and  C_29
    7  A    between atoms: N_12  and  C_18
    8  A    between atoms: N_12  and  C_50
    9  A    between atoms: C_14  and  C_46
   10  A    between atoms: C_15  and  C_44
   11  A    between atoms: C_15  and  C_46
   12  A    between atoms: C_18  and  C_22
   13  A    between atoms: C_33  and  C_43
   14  A    between atoms: C_36  and  C_38
   15  A    between atoms: C_39  and  C_46
                            x       y       z     vdW  Elec       q    Type
                         _______ _______ _______ _____ _____    ______ ____

>  <TORSDO>
F 15

$$$$
=
 OpenBabel11072412083D

 50 56  0  0  1  0  0  0  0  0999 V2000
  160.7660  211.3490  153.5480 N   0  0  0  0  0  0  0  0  0  0  0  0
  160.9000  211.2630  152.1190 C   0  0  0  0  0  0  0  0  0  0  0  0
  161.4090  210.3500  154.4070 C   0  0  0  0  0  2  0  0  0  0  0  0
  159.0660  210.9160  157.1580 O   0  0  0  0  0  0  0  0  0  0  0  0
  160.4530  209.8950  155.5090 C   0  0  2  0  0  3  0  0  0  0  0  0
  160.2880  212.0780  151.3730 O   0  0  0  0  0  0  0  0  0  0  0  0
  160.0160  212.4720  154.1290 C   0  0  0  0  0  2  0  0  0  0  0  0
  159.8010  211.0850  156.1920 C   0  0  0  0  0  0  0  0  0  0  0  0
  160.0710  212.4780  155.6620 C   0  0  2  0  0  3  0  0  0  0  0  0
  159.1070  213.4300  156.1810 N   0  0  0  0  0  2  0  0  0  0  0  0
  157.9230  213.3730  155.3420 C   0  0  0  0  0  2  0  0  0  0  0  0
  155.2500  210.0720  155.5550 C   0  0  0  0  0  3  0  0  0  0  0  0
  156.6810  213.4420  156.2180 C   0  0  1  0  0  3  0  0  0  0  0  0
  155.4290  213.4460  155.3440 C   0  0  0  0  0  2  0  0  0  0  0  0
  154.8200  211.7640  157.0610 C   0  0  0  0  0  3  0  0  0  0  0  0
  156.0520  211.0460  155.1400 C   0  0  0  0  0  3  0  0  0  0  0  0
  155.8340  212.1820  156.0730 C   0  0  2  0  0  0  0  0  0  0  0  0
  154.4920  210.5150  156.7390 C   0  0  0  0  0  3  0  0  0  0  0  0
  161.7630  210.2140  151.4860 C   0  0  0  0  0  2  0  0  0  0  0  0
  161.1410  209.7240  150.1860 C   0  0  0  0  0  2  0  0  0  0  0  0
  162.2050  209.2830  149.1840 C   0  0  0  0  0  2  0  0  0  0  0  0
  160.9870  204.7200  146.1780 C   0  0  1  0  0  3  0  0  0  0  0  0
  161.7390  202.5790  147.0230 O   0  0  0  0  0  0  0  0  0  0  0  0
  160.7000  203.2280  146.3430 C   0  0  0  0  0  2  0  0  0  0  0  0
  161.7340  206.8590  147.3060 C   0  0  1  0  0  3  0  0  0  0  0  0
  161.0750  207.2880  148.5980 C   0  0  1  0  0  3  0  0  0  0  0  0
  160.6660  206.0340  149.3540 C   0  0  0  0  0  2  0  0  0  0  0  0
  161.4560  204.8910  148.7550 C   0  0  2  0  0  3  0  0  0  0  0  0
  162.9820  207.4750  147.9030 C   0  0  0  0  0  2  0  0  0  0  0  0
  161.5300  202.6520  148.4240 C   0  0  1  0  0  3  0  0  0  0  0  0
  161.8310  205.3330  147.3230 C   0  0  1  0  0  3  0  0  0  0  0  0
  162.3140  207.8280  149.1490 N   0  0  0  0  0  0  0  0  0  0  0  0
  160.6920  203.7150  148.8190 O   0  0  0  0  0  0  0  0  0  0  0  0
  159.6840  201.3080  149.3320 C   0  0  0  0  0  0  0  0  0  0  0  0
  158.4600  201.3120  149.0610 O   0  0  0  0  0  0  0  0  0  0  0  0
  160.8160  201.2870  150.3170 O   0  0  0  0  0  0  0  0  0  0  0  0
  161.4870  200.1390  148.4480 O   0  0  0  0  0  1  0  0  0  0  0  0
  161.0050  201.3330  148.9700 C   0  0  2  0  0  0  0  0  0  0  0  0
  161.0560  205.9310  144.1040 O   0  0  0  0  0  1  0  0  0  0  0  0
  161.6760  204.9150  144.8350 C   0  0  0  0  0  2  0  0  0  0  0  0
  161.1640  208.9020  156.4450 C   0  0  1  0  0  3  0  0  0  0  0  0
  160.9870  207.4090  156.0980 C   0  0  1  0  0  3  0  0  0  0  0  0
  159.5200  207.0130  155.9760 C   0  0  0  0  0  1  0  0  0  0  0  0
  161.7030  207.0520  154.9120 O   0  0  0  0  0  0  0  0  0  0  0  0
  160.8450  205.1190  153.7160 O   0  0  0  0  0  1  0  0  0  0  0  0
  160.7720  207.2230  152.8190 O   0  0  0  0  0  0  0  0  0  0  0  0
  161.1020  206.4830  153.7810 C   0  0  0  0  0  0  0  0  0  0  0  0
  162.6120  209.3210  156.7200 C   0  0  0  0  0  2  0  0  0  0  0  0
  162.8690  211.9320  157.2610 C   0  0  0  0  0  3  0  0  0  0  0  0
  162.7490  210.7550  157.0180 C   0  0  0  0  0  0  0  0  0  0  0  0
  1  7  1  0  0  0  0
  1  3  1  0  0  0  0
  2  1  1  0  0  0  0
  3  5  1  0  0  0  0
  5  8  1  0  0  0  0
  5 41  1  1  0  0  0
  6  2  2  0  0  0  0
  7  9  1  0  0  0  0
  8  4  2  0  0  0  0
  9 10  1  1  0  0  0
  9  8  1  0  0  0  0
 11 10  1  0  0  0  0
 12 18  1  0  0  0  0
 13 11  1  6  0  0  0
 14 17  1  0  0  0  0
 14 13  1  0  0  0  0
 16 12  2  0  0  0  0
 16 17  1  0  0  0  0
 17 13  1  0  0  0  0
 17 15  1  0  0  0  0
 18 15  2  0  0  0  0
 19  2  1  0  0  0  0
 20 19  1  0  0  0  0
 21 20  1  0  0  0  0
 22 40  1  6  0  0  0
 22 24  1  0  0  0  0
 22 31  1  0  0  0  0
 24 23  1  0  0  0  0
 25 31  1  0  0  0  0
 25 29  1  1  0  0  0
 25 26  1  0  0  0  0
 26 32  1  0  0  0  0
 26 27  1  1  0  0  0
 28 33  1  0  0  0  0
 28 27  1  6  0  0  0
 29 32  1  0  0  0  0
 30 23  1  6  0  0  0
 30 33  1  0  0  0  0
 30 38  1  0  0  0  0
 31 28  1  0  0  0  0
 32 21  1  0  0  0  0
 34 36  1  0  0  0  0
 35 34  2  0  0  0  0
 37 38  1  0  0  0  0
 38 34  1  0  0  0  0
 38 36  1  0  0  0  0
 39 40  1  0  0  0  0
 41 48  1  0  0  0  0
 42 41  1  0  0  0  0
 43 42  1  0  0  0  0
 44 42  1  0  0  0  0
 45 47  1  0  0  0  0
 46 47  2  0  0  0  0
 47 44  1  0  0  0  0
 48 50  1  0  0  0  0
 50 49  3  0  0  0  0
M  END
>  <MODEL>
4

>  <REMARK>
 VINA RESULT:      -6.2      2.941      5.556
  Name = 
  15 active torsions:
  status: ('A' for Active; 'I' for Inactive)
    1  A    between atoms: O_3  and  C_20
    2  A    between atoms: O_3  and  C_39
    3  A    between atoms: C_4  and  C_38
    4  A    between atoms: C_4  and  N_40
    5  A    between atoms: C_6  and  C_36
    6  A    between atoms: C_10  and  C_29
    7  A    between atoms: N_12  and  C_18
    8  A    between atoms: N_12  and  C_50
    9  A    between atoms: C_14  and  C_46
   10  A    between atoms: C_15  and  C_44
   11  A    between atoms: C_15  and  C_46
   12  A    between atoms: C_18  and  C_22
   13  A    between atoms: C_33  and  C_43
   14  A    between atoms: C_36  and  C_38
   15  A    between atoms: C_39  and  C_46
                            x       y       z     vdW  Elec       q    Type
                         _______ _______ _______ _____ _____    ______ ____

>  <TORSDO>
F 15

$$$$
=
 OpenBabel11072412083D

 50 56  0  0  1  0  0  0  0  0999 V2000
  159.8070  212.1860  152.3030 N   0  0  0  0  0  0  0  0  0  0  0  0
  160.7630  211.1950  151.8900 C   0  0  0  0  0  0  0  0  0  0  0  0
  159.7280  212.5870  153.7120 C   0  0  0  0  0  2  0  0  0  0  0  0
  156.2560  213.6960  153.4080 O   0  0  0  0  0  0  0  0  0  0  0  0
  158.2710  212.6700  154.1650 C   0  0  2  0  0  3  0  0  0  0  0  0
  160.7850  210.7940  150.6920 O   0  0  0  0  0  0  0  0  0  0  0  0
  158.9470  212.8160  151.2910 C   0  0  0  0  0  2  0  0  0  0  0  0
  157.4330  213.4540  153.1690 C   0  0  0  0  0  0  0  0  0  0  0  0
  158.0730  213.9300  151.8810 C   0  0  2  0  0  3  0  0  0  0  0  0
  157.0670  214.3250  150.9130 N   0  0  0  0  0  2  0  0  0  0  0  0
  157.7100  214.4390  149.6160 C   0  0  0  0  0  2  0  0  0  0  0  0
  159.4380  213.5530  145.8330 C   0  0  0  0  0  3  0  0  0  0  0  0
  156.9530  213.5970  148.6010 C   0  0  1  0  0  3  0  0  0  0  0  0
  156.5740  214.4530  147.3960 C   0  0  0  0  0  2  0  0  0  0  0  0
  157.4790  212.4270  146.2900 C   0  0  0  0  0  3  0  0  0  0  0  0
  159.0000  214.1590  146.9300 C   0  0  0  0  0  3  0  0  0  0  0  0
  157.7290  213.4800  147.2940 C   0  0  2  0  0  0  0  0  0  0  0  0
  158.5010  212.4860  145.4390 C   0  0  0  0  0  3  0  0  0  0  0  0
  161.7490  210.6210  152.8610 C   0  0  0  0  0  2  0  0  0  0  0  0
  162.4850  209.4420  152.2410 C   0  0  0  0  0  2  0  0  0  0  0  0
  162.0450  209.1980  150.7990 C   0  0  0  0  0  2  0  0  0  0  0  0
  161.0710  205.4210  146.7830 C   0  0  1  0  0  3  0  0  0  0  0  0
  161.8140  203.1490  147.1680 O   0  0  0  0  0  0  0  0  0  0  0  0
  160.8020  203.9290  146.5940 C   0  0  0  0  0  2  0  0  0  0  0  0
  161.7180  207.2560  148.4020 C   0  0  1  0  0  3  0  0  0  0  0  0
  160.9830  207.3800  149.7180 C   0  0  1  0  0  3  0  0  0  0  0  0
  160.5560  205.9860  150.1490 C   0  0  0  0  0  2  0  0  0  0  0  0
  161.3970  205.0120  149.3560 C   0  0  2  0  0  3  0  0  0  0  0  0
  162.9220  207.7280  149.1920 C   0  0  0  0  0  2  0  0  0  0  0  0
  161.5290  202.9040  148.5370 C   0  0  1  0  0  3  0  0  0  0  0  0
  161.8410  205.7660  148.0830 C   0  0  1  0  0  3  0  0  0  0  0  0
  162.1810  207.7900  150.4460 N   0  0  0  0  0  0  0  0  0  0  0  0
  160.6520  203.8480  149.1110 O   0  0  0  0  0  0  0  0  0  0  0  0
  160.9590  200.6920  147.6330 C   0  0  0  0  0  0  0  0  0  0  0  0
  161.5120  200.0060  146.7390 O   0  0  0  0  0  0  0  0  0  0  0  0
  159.7370  201.2670  148.2850 O   0  0  0  0  0  0  0  0  0  0  0  0
  161.2740  200.8290  149.9310 O   0  0  0  0  0  1  0  0  0  0  0  0
  160.9990  201.4940  148.7420 C   0  0  2  0  0  0  0  0  0  0  0  0
  161.4180  205.2310  144.4140 O   0  0  0  0  0  1  0  0  0  0  0  0
  161.8280  205.9170  145.5590 C   0  0  0  0  0  2  0  0  0  0  0  0
  158.2000  213.1630  155.6210 C   0  0  1  0  0  3  0  0  0  0  0  0
  157.1760  212.4420  156.5230 C   0  0  1  0  0  3  0  0  0  0  0  0
  155.8960  213.2500  156.7050 C   0  0  0  0  0  1  0  0  0  0  0  0
  156.8750  211.1290  156.0400 O   0  0  0  0  0  0  0  0  0  0  0  0
  154.6530  210.3850  156.6800 O   0  0  0  0  0  1  0  0  0  0  0  0
  155.2610  210.6220  154.4870 O   0  0  0  0  0  0  0  0  0  0  0  0
  155.5850  210.7010  155.6990 C   0  0  0  0  0  0  0  0  0  0  0  0
  159.5950  213.3070  156.2380 C   0  0  0  0  0  2  0  0  0  0  0  0
  160.6790  210.9560  156.9240 C   0  0  0  0  0  3  0  0  0  0  0  0
  160.1930  212.0170  156.6180 C   0  0  0  0  0  0  0  0  0  0  0  0
  1  3  1  0  0  0  0
  2  1  1  0  0  0  0
  2 19  1  0  0  0  0
  3  5  1  0  0  0  0
  5 41  1  1  0  0  0
  6  2  2  0  0  0  0
  7  9  1  0  0  0  0
  7  1  1  0  0  0  0
  8  4  2  0  0  0  0
  8  5  1  0  0  0  0
  9 10  1  6  0  0  0
  9  8  1  0  0  0  0
 11 10  1  0  0  0  0
 12 16  2  0  0  0  0
 13 11  1  1  0  0  0
 14 13  1  0  0  0  0
 15 17  1  0  0  0  0
 16 17  1  0  0  0  0
 17 14  1  0  0  0  0
 17 13  1  0  0  0  0
 18 12  1  0  0  0  0
 18 15  2  0  0  0  0
 20 19  1  0  0  0  0
 21 20  1  0  0  0  0
 22 40  1  6  0  0  0
 22 31  1  0  0  0  0
 24 22  1  0  0  0  0
 24 23  1  0  0  0  0
 25 29  1  1  0  0  0
 25 26  1  0  0  0  0
 26 27  1  1  0  0  0
 26 32  1  0  0  0  0
 28 27  1  1  0  0  0
 29 32  1  0  0  0  0
 30 23  1  6  0  0  0
 30 38  1  0  0  0  0
 30 33  1  0  0  0  0
 31 25  1  0  0  0  0
 31 28  1  0  0  0  0
 32 21  1  0  0  0  0
 33 28  1  0  0  0  0
 34 36  1  0  0  0  0
 34 38  1  0  0  0  0
 35 34  2  0  0  0  0
 36 38  1  0  0  0  0
 38 37  1  0  0  0  0
 39 40  1  0  0  0  0
 41 48  1  0  0  0  0
 41 42  1  0  0  0  0
 42 43  1  0  0  0  0
 44 42  1  0  0  0  0
 46 47  2  0  0  0  0
 47 44  1  0  0  0  0
 47 45  1  0  0  0  0
 48 50  1  0  0  0  0
 50 49  3  0  0  0  0
M  END
>  <MODEL>
5

>  <REMARK>
 VINA RESULT:      -5.7      1.587      2.113
  Name = 
  15 active torsions:
  status: ('A' for Active; 'I' for Inactive)
    1  A    between atoms: O_3  and  C_20
    2  A    between atoms: O_3  and  C_39
    3  A    between atoms: C_4  and  C_38
    4  A    between atoms: C_4  and  N_40
    5  A    between atoms: C_6  and  C_36
    6  A    between atoms: C_10  and  C_29
    7  A    between atoms: N_12  and  C_18
    8  A    between atoms: N_12  and  C_50
    9  A    between atoms: C_14  and  C_46
   10  A    between atoms: C_15  and  C_44
   11  A    between atoms: C_15  and  C_46
   12  A    between atoms: C_18  and  C_22
   13  A    between atoms: C_33  and  C_43
   14  A    between atoms: C_36  and  C_38
   15  A    between atoms: C_39  and  C_46
                            x       y       z     vdW  Elec       q    Type
                         _______ _______ _______ _____ _____    ______ ____

>  <TORSDO>
F 15

$$$$
=
 OpenBabel11072412083D

 50 56  0  0  1  0  0  0  0  0999 V2000
  160.0540  210.4980  153.2650 N   0  0  0  0  0  0  0  0  0  0  0  0
  160.8140  209.2780  153.2890 C   0  0  0  0  0  0  0  0  0  0  0  0
  159.6320  211.0740  151.9840 C   0  0  0  0  0  2  0  0  0  0  0  0
  159.3570  214.4500  153.3660 O   0  0  0  0  0  0  0  0  0  0  0  0
  159.8680  212.5840  151.9710 C   0  0  2  0  0  3  0  0  0  0  0  0
  161.2420  208.8190  154.3850 O   0  0  0  0  0  0  0  0  0  0  0  0
  159.6740  211.1300  154.5370 C   0  0  0  0  0  2  0  0  0  0  0  0
  159.3320  213.2310  153.2370 C   0  0  0  0  0  0  0  0  0  0  0  0
  158.7680  212.3510  154.3330 C   0  0  2  0  0  3  0  0  0  0  0  0
  158.6480  213.0820  155.5800 N   0  0  0  0  0  2  0  0  0  0  0  0
  157.3650  213.7620  155.5820 C   0  0  0  0  0  2  0  0  0  0  0  0
  154.9820  210.2790  155.0560 C   0  0  0  0  0  3  0  0  0  0  0  0
  156.5150  213.2310  156.7250 C   0  0  1  0  0  3  0  0  0  0  0  0
  155.0340  213.3910  156.3880 C   0  0  0  0  0  2  0  0  0  0  0  0
  155.0950  211.0570  157.2240 C   0  0  0  0  0  3  0  0  0  0  0  0
  155.5720  211.4600  154.9150 C   0  0  0  0  0  3  0  0  0  0  0  0
  155.6860  212.0290  156.2830 C   0  0  2  0  0  0  0  0  0  0  0  0
  154.6880  210.0320  156.4800 C   0  0  0  0  0  3  0  0  0  0  0  0
  161.1140  208.5290  152.0270 C   0  0  0  0  0  2  0  0  0  0  0  0
  162.2260  209.2170  151.2480 C   0  0  0  0  0  2  0  0  0  0  0  0
  162.0860  208.9880  149.7450 C   0  0  0  0  0  2  0  0  0  0  0  0
  161.3590  205.1940  145.6930 C   0  0  1  0  0  3  0  0  0  0  0  0
  161.9550  202.8980  146.1790 O   0  0  0  0  0  0  0  0  0  0  0  0
  161.0440  203.7110  145.4930 C   0  0  0  0  0  2  0  0  0  0  0  0
  161.9190  207.0240  147.3490 C   0  0  1  0  0  3  0  0  0  0  0  0
  161.0590  207.2010  148.5810 C   0  0  1  0  0  3  0  0  0  0  0  0
  160.5280  205.8340  148.9810 C   0  0  0  0  0  2  0  0  0  0  0  0
  161.4010  204.8110  148.2900 C   0  0  2  0  0  3  0  0  0  0  0  0
  163.0560  207.4550  148.2530 C   0  0  0  0  0  2  0  0  0  0  0  0
  161.5210  202.6870  147.5130 C   0  0  1  0  0  3  0  0  0  0  0  0
  162.0070  205.5250  147.0610 C   0  0  1  0  0  3  0  0  0  0  0  0
  162.1940  207.5690  149.4230 N   0  0  0  0  0  0  0  0  0  0  0  0
  160.6320  203.6770  147.9830 O   0  0  0  0  0  0  0  0  0  0  0  0
  160.6170  200.9200  148.9600 C   0  0  0  0  0  0  0  0  0  0  0  0
  159.9380  200.9920  150.0130 O   0  0  0  0  0  0  0  0  0  0  0  0
  161.7460  200.3450  148.1570 O   0  0  0  0  0  0  0  0  0  0  0  0
  160.0300  200.8280  146.7140 O   0  0  0  0  0  1  0  0  0  0  0  0
  160.9090  201.3050  147.6790 C   0  0  2  0  0  0  0  0  0  0  0  0
  161.5120  206.2500  143.5410 O   0  0  0  0  0  1  0  0  0  0  0  0
  162.2600  205.6360  144.5480 C   0  0  0  0  0  2  0  0  0  0  0  0
  159.3540  213.1850  150.6510 C   0  0  1  0  0  3  0  0  0  0  0  0
  158.1200  214.1040  150.7700 C   0  0  1  0  0  3  0  0  0  0  0  0
  157.3900  214.2690  149.4420 C   0  0  0  0  0  1  0  0  0  0  0  0
  157.2170  213.6520  151.7850 O   0  0  0  0  0  0  0  0  0  0  0  0
  155.0480  213.9880  150.7430 O   0  0  0  0  0  0  0  0  0  0  0  0
  155.4010  214.4220  152.9620 O   0  0  0  0  0  1  0  0  0  0  0  0
  155.8730  214.0400  151.8600 C   0  0  0  0  0  0  0  0  0  0  0  0
  160.4950  213.7640  149.8090 C   0  0  0  0  0  2  0  0  0  0  0  0
  161.8780  211.8920  148.4820 C   0  0  0  0  0  3  0  0  0  0  0  0
  161.2530  212.7330  149.0820 C   0  0  0  0  0  0  0  0  0  0  0  0
  1  2  1  0  0  0  0
  1  7  1  0  0  0  0
  2  6  2  0  0  0  0
  3  1  1  0  0  0  0
  5 41  1  6  0  0  0
  5  3  1  0  0  0  0
  5  8  1  0  0  0  0
  8  4  2  0  0  0  0
  8  9  1  0  0  0  0
  9  7  1  0  0  0  0
  9 10  1  1  0  0  0
 10 11  1  0  0  0  0
 12 18  1  0  0  0  0
 13 11  1  6  0  0  0
 14 13  1  0  0  0  0
 16 12  2  0  0  0  0
 16 17  1  0  0  0  0
 17 14  1  0  0  0  0
 17 13  1  0  0  0  0
 17 15  1  0  0  0  0
 18 15  2  0  0  0  0
 19  2  1  0  0  0  0
 20 19  1  0  0  0  0
 21 20  1  0  0  0  0
 22 40  1  6  0  0  0
 22 31  1  0  0  0  0
 24 22  1  0  0  0  0
 24 23  1  0  0  0  0
 25 29  1  1  0  0  0
 25 26  1  0  0  0  0
 26 27  1  1  0  0  0
 26 32  1  0  0  0  0
 28 27  1  6  0  0  0
 29 32  1  0  0  0  0
 30 23  1  6  0  0  0
 30 38  1  0  0  0  0
 30 33  1  0  0  0  0
 31 25  1  0  0  0  0
 31 28  1  0  0  0  0
 32 21  1  0  0  0  0
 33 28  1  0  0  0  0
 34 35  2  0  0  0  0
 36 34  1  0  0  0  0
 37 38  1  0  0  0  0
 38 36  1  0  0  0  0
 38 34  1  0  0  0  0
 39 40  1  0  0  0  0
 41 42  1  0  0  0  0
 42 44  1  0  0  0  0
 43 42  1  0  0  0  0
 44 47  1  0  0  0  0
 45 47  2  0  0  0  0
 47 46  1  0  0  0  0
 48 41  1  0  0  0  0
 49 50  3  0  0  0  0
 50 48  1  0  0  0  0
M  END
>  <MODEL>
6

>  <REMARK>
 VINA RESULT:      -5.3      2.433      5.588
  Name = 
  15 active torsions:
  status: ('A' for Active; 'I' for Inactive)
    1  A    between atoms: O_3  and  C_20
    2  A    between atoms: O_3  and  C_39
    3  A    between atoms: C_4  and  C_38
    4  A    between atoms: C_4  and  N_40
    5  A    between atoms: C_6  and  C_36
    6  A    between atoms: C_10  and  C_29
    7  A    between atoms: N_12  and  C_18
    8  A    between atoms: N_12  and  C_50
    9  A    between atoms: C_14  and  C_46
   10  A    between atoms: C_15  and  C_44
   11  A    between atoms: C_15  and  C_46
   12  A    between atoms: C_18  and  C_22
   13  A    between atoms: C_33  and  C_43
   14  A    between atoms: C_36  and  C_38
   15  A    between atoms: C_39  and  C_46
                            x       y       z     vdW  Elec       q    Type
                         _______ _______ _______ _____ _____    ______ ____

>  <TORSDO>
F 15

$$$$
=
 OpenBabel11072412083D

 50 56  0  0  1  0  0  0  0  0999 V2000
  160.1190  210.5150  153.9480 N   0  0  0  0  0  0  0  0  0  0  0  0
  160.9120  209.3200  154.0480 C   0  0  0  0  0  0  0  0  0  0  0  0
  159.6870  211.0010  152.6330 C   0  0  0  0  0  2  0  0  0  0  0  0
  159.3160  214.4450  153.8080 O   0  0  0  0  0  0  0  0  0  0  0  0
  159.8820  212.5130  152.5300 C   0  0  2  0  0  3  0  0  0  0  0  0
  161.3470  208.9380  155.1700 O   0  0  0  0  0  0  0  0  0  0  0  0
  159.7170  211.2110  155.1780 C   0  0  0  0  0  2  0  0  0  0  0  0
  159.3240  213.2200  153.7530 C   0  0  0  0  0  0  0  0  0  0  0  0
  158.7800  212.3930  154.8990 C   0  0  2  0  0  3  0  0  0  0  0  0
  158.6360  213.1950  156.1000 N   0  0  0  0  0  2  0  0  0  0  0  0
  157.3300  213.8290  156.0630 C   0  0  0  0  0  2  0  0  0  0  0  0
  155.0680  210.3840  155.0120 C   0  0  0  0  0  3  0  0  0  0  0  0
  156.4180  213.1640  157.0830 C   0  0  1  0  0  3  0  0  0  0  0  0
  154.9600  213.3360  156.6660 C   0  0  0  0  0  2  0  0  0  0  0  0
  155.0200  210.9270  157.2520 C   0  0  0  0  0  3  0  0  0  0  0  0
  155.6390  211.5830  155.0360 C   0  0  0  0  0  3  0  0  0  0  0  0
  155.6490  212.0030  156.4620 C   0  0  2  0  0  0  0  0  0  0  0  0
  154.6870  209.9810  156.3780 C   0  0  0  0  0  3  0  0  0  0  0  0
  161.2360  208.5040  152.8330 C   0  0  0  0  0  2  0  0  0  0  0  0
  162.0040  207.2490  153.2220 C   0  0  0  0  0  2  0  0  0  0  0  0
  161.1320  206.0000  153.1200 C   0  0  0  0  0  2  0  0  0  0  0  0
  161.5210  202.1040  149.1180 C   0  0  1  0  0  3  0  0  0  0  0  0
  160.5150  202.5910  146.9690 O   0  0  0  0  0  0  0  0  0  0  0  0
  161.5990  201.9640  147.5970 C   0  0  0  0  0  2  0  0  0  0  0  0
  161.1500  203.6700  151.0720 C   0  0  1  0  0  3  0  0  0  0  0  0
  161.9310  204.9630  151.1480 C   0  0  1  0  0  3  0  0  0  0  0  0
  162.1950  205.4350  149.7280 C   0  0  0  0  0  2  0  0  0  0  0  0
  161.2180  204.6980  148.8390 C   0  0  2  0  0  3  0  0  0  0  0  0
  160.0360  204.4690  151.7160 C   0  0  0  0  0  2  0  0  0  0  0  0
  160.8060  203.9600  146.7380 C   0  0  1  0  0  3  0  0  0  0  0  0
  160.8360  203.4080  149.5990 C   0  0  1  0  0  3  0  0  0  0  0  0
  160.8130  205.7020  151.7280 N   0  0  0  0  0  0  0  0  0  0  0  0
  161.8080  204.4790  147.5840 O   0  0  0  0  0  0  0  0  0  0  0  0
  160.6180  205.3190  144.6990 C   0  0  0  0  0  0  0  0  0  0  0  0
  160.5280  206.5620  144.5500 O   0  0  0  0  0  0  0  0  0  0  0  0
  160.1860  203.9190  144.3780 O   0  0  0  0  0  0  0  0  0  0  0  0
  162.4350  203.8770  144.8260 O   0  0  0  0  0  1  0  0  0  0  0  0
  161.1640  204.2050  145.2800 C   0  0  2  0  0  0  0  0  0  0  0  0
  159.4710  201.1910  149.9730 O   0  0  0  0  0  1  0  0  0  0  0  0
  160.7970  200.8810  149.6620 C   0  0  0  0  0  2  0  0  0  0  0  0
  159.3570  213.0200  151.1750 C   0  0  1  0  0  3  0  0  0  0  0  0
  160.4160  213.1800  150.0640 C   0  0  1  0  0  3  0  0  0  0  0  0
  161.2400  214.4520  150.2270 C   0  0  0  0  0  1  0  0  0  0  0  0
  161.2730  212.0360  149.9790 O   0  0  0  0  0  0  0  0  0  0  0  0
  163.1080  212.2900  148.4080 O   0  0  0  0  0  1  0  0  0  0  0  0
  161.4910  210.6950  148.1270 O   0  0  0  0  0  0  0  0  0  0  0  0
  161.9420  211.6500  148.8100 C   0  0  0  0  0  0  0  0  0  0  0  0
  158.0930  212.2710  150.7420 C   0  0  0  0  0  2  0  0  0  0  0  0
  156.6710  213.5870  148.8920 C   0  0  0  0  0  3  0  0  0  0  0  0
  157.3140  212.9970  149.7270 C   0  0  0  0  0  0  0  0  0  0  0  0
  1  2  1  0  0  0  0
  1  7  1  0  0  0  0
  2  6  2  0  0  0  0
  3  1  1  0  0  0  0
  5 41  1  6  0  0  0
  5  3  1  0  0  0  0
  5  8  1  0  0  0  0
  8  4  2  0  0  0  0
  8  9  1  0  0  0  0
  9  7  1  0  0  0  0
  9 10  1  1  0  0  0
 11 10  1  0  0  0  0
 12 16  2  0  0  0  0
 12 18  1  0  0  0  0
 13 11  1  6  0  0  0
 14 13  1  0  0  0  0
 16 17  1  0  0  0  0
 17 14  1  0  0  0  0
 17 13  1  0  0  0  0
 17 15  1  0  0  0  0
 18 15  2  0  0  0  0
 19 20  1  0  0  0  0
 19  2  1  0  0  0  0
 21 20  1  0  0  0  0
 22 31  1  0  0  0  0
 22 40  1  6  0  0  0
 23 24  1  0  0  0  0
 24 22  1  0  0  0  0
 25 26  1  0  0  0  0
 25 29  1  1  0  0  0
 26 27  1  6  0  0  0
 26 32  1  0  0  0  0
 28 31  1  0  0  0  0
 28 27  1  1  0  0  0
 29 32  1  0  0  0  0
 30 23  1  6  0  0  0
 30 33  1  0  0  0  0
 31 25  1  0  0  0  0
 32 21  1  0  0  0  0
 33 28  1  0  0  0  0
 34 38  1  0  0  0  0
 35 34  2  0  0  0  0
 36 34  1  0  0  0  0
 36 38  1  0  0  0  0
 37 38  1  0  0  0  0
 38 30  1  0  0  0  0
 40 39  1  0  0  0  0
 42 43  1  0  0  0  0
 42 41  1  0  0  0  0
 44 42  1  0  0  0  0
 45 47  1  0  0  0  0
 46 47  2  0  0  0  0
 47 44  1  0  0  0  0
 48 41  1  0  0  0  0
 49 50  3  0  0  0  0
 50 48  1  0  0  0  0
M  END
>  <MODEL>
7

>  <REMARK>
 VINA RESULT:      -5.0      2.448      6.209
  Name = 
  15 active torsions:
  status: ('A' for Active; 'I' for Inactive)
    1  A    between atoms: O_3  and  C_20
    2  A    between atoms: O_3  and  C_39
    3  A    between atoms: C_4  and  C_38
    4  A    between atoms: C_4  and  N_40
    5  A    between atoms: C_6  and  C_36
    6  A    between atoms: C_10  and  C_29
    7  A    between atoms: N_12  and  C_18
    8  A    between atoms: N_12  and  C_50
    9  A    between atoms: C_14  and  C_46
   10  A    between atoms: C_15  and  C_44
   11  A    between atoms: C_15  and  C_46
   12  A    between atoms: C_18  and  C_22
   13  A    between atoms: C_33  and  C_43
   14  A    between atoms: C_36  and  C_38
   15  A    between atoms: C_39  and  C_46
                            x       y       z     vdW  Elec       q    Type
                         _______ _______ _______ _____ _____    ______ ____

>  <TORSDO>
F 15

$$$$
=
 OpenBabel11072412083D

 50 56  0  0  1  0  0  0  0  0999 V2000
  160.1160  210.5500  153.9410 N   0  0  0  0  0  0  0  0  0  0  0  0
  160.9030  209.3690  154.1710 C   0  0  0  0  0  0  0  0  0  0  0  0
  159.6760  210.8850  152.5830 C   0  0  0  0  0  2  0  0  0  0  0  0
  159.3340  214.4430  153.3590 O   0  0  0  0  0  0  0  0  0  0  0  0
  159.8780  212.3740  152.3060 C   0  0  2  0  0  3  0  0  0  0  0  0
  161.3460  209.1160  155.3270 O   0  0  0  0  0  0  0  0  0  0  0  0
  159.7290  211.3850  155.0870 C   0  0  0  0  0  2  0  0  0  0  0  0
  159.3340  213.2210  153.4440 C   0  0  0  0  0  0  0  0  0  0  0  0
  158.7960  212.5340  154.6820 C   0  0  2  0  0  3  0  0  0  0  0  0
  158.6670  213.4690  155.7840 N   0  0  0  0  0  2  0  0  0  0  0  0
  157.3850  214.1380  155.6580 C   0  0  0  0  0  2  0  0  0  0  0  0
  155.2260  210.5230  155.0570 C   0  0  0  0  0  3  0  0  0  0  0  0
  156.4370  213.6190  156.7280 C   0  0  1  0  0  3  0  0  0  0  0  0
  154.9970  213.6920  156.2270 C   0  0  0  0  0  2  0  0  0  0  0  0
  155.0660  211.4040  157.1820 C   0  0  0  0  0  3  0  0  0  0  0  0
  155.7770  211.7240  154.9190 C   0  0  0  0  0  3  0  0  0  0  0  0
  155.7150  212.3590  156.2610 C   0  0  2  0  0  0  0  0  0  0  0  0
  154.7890  210.3270  156.4510 C   0  0  0  0  0  3  0  0  0  0  0  0
  161.2120  208.4170  153.0560 C   0  0  0  0  0  2  0  0  0  0  0  0
  161.9190  207.1800  153.5900 C   0  0  0  0  0  2  0  0  0  0  0  0
  161.0700  205.9230  153.4070 C   0  0  0  0  0  2  0  0  0  0  0  0
  161.6670  202.2420  149.2320 C   0  0  1  0  0  3  0  0  0  0  0  0
  160.6960  202.8050  147.0860 O   0  0  0  0  0  0  0  0  0  0  0  0
  161.7840  202.1790  147.7090 C   0  0  0  0  0  2  0  0  0  0  0  0
  161.2050  203.6980  151.2500 C   0  0  1  0  0  3  0  0  0  0  0  0
  161.9450  205.0080  151.4080 C   0  0  1  0  0  3  0  0  0  0  0  0
  162.2270  205.5560  150.0190 C   0  0  0  0  0  2  0  0  0  0  0  0
  161.2930  204.8360  149.0720 C   0  0  2  0  0  3  0  0  0  0  0  0
  160.0530  204.4320  151.9050 C   0  0  0  0  0  2  0  0  0  0  0  0
  160.9510  204.1910  146.9280 C   0  0  1  0  0  3  0  0  0  0  0  0
  160.9320  203.5010  149.7590 C   0  0  1  0  0  3  0  0  0  0  0  0
  160.7920  205.6850  151.9950 N   0  0  0  0  0  0  0  0  0  0  0  0
  161.9180  204.6960  147.8220 O   0  0  0  0  0  0  0  0  0  0  0  0
  160.6930  205.5850  144.9200 C   0  0  0  0  0  0  0  0  0  0  0  0
  160.4750  206.8140  144.8000 O   0  0  0  0  0  0  0  0  0  0  0  0
  160.4280  204.1560  144.5450 O   0  0  0  0  0  0  0  0  0  0  0  0
  162.6500  204.3420  145.0830 O   0  0  0  0  0  1  0  0  0  0  0  0
  161.3340  204.5180  145.4930 C   0  0  2  0  0  0  0  0  0  0  0  0
  159.5980  201.0380  149.4300 O   0  0  0  0  0  1  0  0  0  0  0  0
  160.9670  200.9730  149.6980 C   0  0  0  0  0  2  0  0  0  0  0  0
  159.3440  212.7250  150.9060 C   0  0  1  0  0  3  0  0  0  0  0  0
  157.8620  213.1480  150.8420 C   0  0  1  0  0  3  0  0  0  0  0  0
  157.5970  214.4490  151.5910 C   0  0  0  0  0  1  0  0  0  0  0  0
  157.3950  213.2440  149.4920 O   0  0  0  0  0  0  0  0  0  0  0  0
  155.1140  213.8450  150.0690 O   0  0  0  0  0  1  0  0  0  0  0  0
  155.9440  214.1490  147.9580 O   0  0  0  0  0  0  0  0  0  0  0  0
  156.1390  213.7520  149.1360 C   0  0  0  0  0  0  0  0  0  0  0  0
  160.3010  213.6540  150.1510 C   0  0  0  0  0  2  0  0  0  0  0  0
  161.4810  212.4660  148.0600 C   0  0  0  0  0  3  0  0  0  0  0  0
  160.9520  213.0000  149.0050 C   0  0  0  0  0  0  0  0  0  0  0  0
  1  2  1  0  0  0  0
  1  7  1  0  0  0  0
  2  6  2  0  0  0  0
  3  1  1  0  0  0  0
  4  8  2  0  0  0  0
  5 41  1  6  0  0  0
  5  3  1  0  0  0  0
  5  8  1  0  0  0  0
  8  9  1  0  0  0  0
  9  7  1  0  0  0  0
  9 10  1  1  0  0  0
 11 10  1  0  0  0  0
 12 18  1  0  0  0  0
 13 11  1  6  0  0  0
 14 17  1  0  0  0  0
 14 13  1  0  0  0  0
 16 12  2  0  0  0  0
 16 17  1  0  0  0  0
 17 13  1  0  0  0  0
 17 15  1  0  0  0  0
 18 15  2  0  0  0  0
 19 20  1  0  0  0  0
 19  2  1  0  0  0  0
 21 20  1  0  0  0  0
 22 40  1  6  0  0  0
 22 31  1  0  0  0  0
 23 24  1  0  0  0  0
 24 22  1  0  0  0  0
 25 26  1  0  0  0  0
 25 29  1  1  0  0  0
 26 27  1  6  0  0  0
 26 32  1  0  0  0  0
 28 31  1  0  0  0  0
 28 27  1  1  0  0  0
 29 32  1  0  0  0  0
 30 23  1  6  0  0  0
 30 33  1  0  0  0  0
 31 25  1  0  0  0  0
 32 21  1  0  0  0  0
 33 28  1  0  0  0  0
 34 38  1  0  0  0  0
 35 34  2  0  0  0  0
 36 34  1  0  0  0  0
 36 38  1  0  0  0  0
 37 38  1  0  0  0  0
 38 30  1  0  0  0  0
 39 40  1  0  0  0  0
 42 41  1  0  0  0  0
 42 43  1  0  0  0  0
 44 42  1  0  0  0  0
 46 47  2  0  0  0  0
 47 44  1  0  0  0  0
 47 45  1  0  0  0  0
 48 41  1  0  0  0  0
 49 50  3  0  0  0  0
 50 48  1  0  0  0  0
M  END
>  <MODEL>
8

>  <REMARK>
 VINA RESULT:      -5.0      2.342      5.802
  Name = 
  15 active torsions:
  status: ('A' for Active; 'I' for Inactive)
    1  A    between atoms: O_3  and  C_20
    2  A    between atoms: O_3  and  C_39
    3  A    between atoms: C_4  and  C_38
    4  A    between atoms: C_4  and  N_40
    5  A    between atoms: C_6  and  C_36
    6  A    between atoms: C_10  and  C_29
    7  A    between atoms: N_12  and  C_18
    8  A    between atoms: N_12  and  C_50
    9  A    between atoms: C_14  and  C_46
   10  A    between atoms: C_15  and  C_44
   11  A    between atoms: C_15  and  C_46
   12  A    between atoms: C_18  and  C_22
   13  A    between atoms: C_33  and  C_43
   14  A    between atoms: C_36  and  C_38
   15  A    between atoms: C_39  and  C_46
                            x       y       z     vdW  Elec       q    Type
                         _______ _______ _______ _____ _____    ______ ____

>  <TORSDO>
F 15

$$$$
=
 OpenBabel11072412083D

 50 56  0  0  1  0  0  0  0  0999 V2000
  159.7420  210.6750  153.4810 N   0  0  0  0  0  0  0  0  0  0  0  0
  159.9810  209.9580  154.7040 C   0  0  0  0  0  0  0  0  0  0  0  0
  160.5620  210.3990  152.2970 C   0  0  0  0  0  2  0  0  0  0  0  0
  159.9230  213.6940  150.8420 O   0  0  0  0  0  0  0  0  0  0  0  0
  160.9810  211.7030  151.6190 C   0  0  2  0  0  3  0  0  0  0  0  0
  159.3260  210.2440  155.7460 O   0  0  0  0  0  0  0  0  0  0  0  0
  158.6430  211.6500  153.4260 C   0  0  0  0  0  2  0  0  0  0  0  0
  159.7930  212.6340  151.4440 C   0  0  0  0  0  0  0  0  0  0  0  0
  158.4510  212.2330  152.0210 C   0  0  2  0  0  3  0  0  0  0  0  0
  157.5500  213.3690  152.0830 N   0  0  0  0  0  2  0  0  0  0  0  0
  157.5770  213.8900  153.4380 C   0  0  0  0  0  2  0  0  0  0  0  0
  155.8030  212.8540  157.1620 C   0  0  0  0  0  3  0  0  0  0  0  0
  156.1960  214.4110  153.8050 C   0  0  1  0  0  3  0  0  0  0  0  0
  155.2010  213.2540  153.8540 C   0  0  0  0  0  2  0  0  0  0  0  0
  154.6590  214.4530  155.9570 C   0  0  0  0  0  3  0  0  0  0  0  0
  156.4160  212.8280  155.9840 C   0  0  0  0  0  3  0  0  0  0  0  0
  155.7320  213.8460  155.1430 C   0  0  2  0  0  0  0  0  0  0  0  0
  154.7210  213.8560  157.1440 C   0  0  0  0  0  3  0  0  0  0  0  0
  161.0020  208.8640  154.7720 C   0  0  0  0  0  2  0  0  0  0  0  0
  160.3370  207.5030  154.6180 C   0  0  0  0  0  2  0  0  0  0  0  0
  161.3070  206.4620  154.0620 C   0  0  0  0  0  2  0  0  0  0  0  0
  161.2240  202.5830  150.0260 C   0  0  1  0  0  3  0  0  0  0  0  0
  160.5790  203.2860  147.8010 O   0  0  0  0  0  0  0  0  0  0  0  0
  161.4240  202.4300  148.5190 C   0  0  0  0  0  2  0  0  0  0  0  0
  161.0130  204.1900  151.9710 C   0  0  1  0  0  3  0  0  0  0  0  0
  162.0520  205.2740  152.1560 C   0  0  1  0  0  3  0  0  0  0  0  0
  162.5600  205.6760  150.7810 C   0  0  0  0  0  2  0  0  0  0  0  0
  161.5400  205.1790  149.7810 C   0  0  2  0  0  3  0  0  0  0  0  0
  160.0460  205.2190  152.5200 C   0  0  0  0  0  2  0  0  0  0  0  0
  161.1900  204.5550  147.6320 C   0  0  1  0  0  3  0  0  0  0  0  0
  160.8020  204.0080  150.4680 C   0  0  1  0  0  3  0  0  0  0  0  0
  161.0740  206.2450  152.6390 N   0  0  0  0  0  0  0  0  0  0  0  0
  162.1910  204.8340  148.5860 O   0  0  0  0  0  0  0  0  0  0  0  0
  160.9540  205.3990  145.3360 C   0  0  0  0  0  0  0  0  0  0  0  0
  160.4300  206.4520  144.9020 O   0  0  0  0  0  0  0  0  0  0  0  0
  161.1790  203.9160  145.2770 O   0  0  0  0  0  0  0  0  0  0  0  0
  163.1080  204.8900  146.0430 O   0  0  0  0  0  1  0  0  0  0  0  0
  161.7420  204.7150  146.2240 C   0  0  2  0  0  0  0  0  0  0  0  0
  159.2380  201.3540  149.4650 O   0  0  0  0  0  1  0  0  0  0  0  0
  160.1920  201.5540  150.4660 C   0  0  0  0  0  2  0  0  0  0  0  0
  161.7780  211.3980  150.3390 C   0  0  1  0  0  3  0  0  0  0  0  0
  162.3920  209.9850  150.2540 C   0  0  1  0  0  3  0  0  0  0  0  0
  162.7130  209.4080  151.6280 C   0  0  0  0  0  1  0  0  0  0  0  0
  161.5570  209.0860  149.5160 O   0  0  0  0  0  0  0  0  0  0  0  0
  163.2740  207.8080  148.3690 O   0  0  0  0  0  1  0  0  0  0  0  0
  161.2080  208.1510  147.4480 O   0  0  0  0  0  0  0  0  0  0  0  0
  161.9950  208.3470  148.4090 C   0  0  0  0  0  0  0  0  0  0  0  0
  161.0190  211.8350  149.0820 C   0  0  0  0  0  2  0  0  0  0  0  0
  162.6370  212.6990  147.1290 C   0  0  0  0  0  3  0  0  0  0  0  0
  161.9080  212.3140  148.0110 C   0  0  0  0  0  0  0  0  0  0  0  0
  1  2  1  0  0  0  0
  2 19  1  0  0  0  0
  2  6  2  0  0  0  0
  3  1  1  0  0  0  0
  4  8  2  0  0  0  0
  5 41  1  6  0  0  0
  5  3  1  0  0  0  0
  7  1  1  0  0  0  0
  8  5  1  0  0  0  0
  8  9  1  0  0  0  0
  9 10  1  1  0  0  0
  9  7  1  0  0  0  0
 10 11  1  0  0  0  0
 13 11  1  6  0  0  0
 13 14  1  0  0  0  0
 13 17  1  0  0  0  0
 14 17  1  0  0  0  0
 15 18  2  0  0  0  0
 16 12  2  0  0  0  0
 17 15  1  0  0  0  0
 17 16  1  0  0  0  0
 18 12  1  0  0  0  0
 20 19  1  0  0  0  0
 21 20  1  0  0  0  0
 22 40  1  6  0  0  0
 22 31  1  0  0  0  0
 23 24  1  0  0  0  0
 24 22  1  0  0  0  0
 25 26  1  0  0  0  0
 25 29  1  1  0  0  0
 26 27  1  6  0  0  0
 26 32  1  0  0  0  0
 28 31  1  0  0  0  0
 28 27  1  1  0  0  0
 29 32  1  0  0  0  0
 30 23  1  6  0  0  0
 30 33  1  0  0  0  0
 31 25  1  0  0  0  0
 32 21  1  0  0  0  0
 33 28  1  0  0  0  0
 34 38  1  0  0  0  0
 35 34  2  0  0  0  0
 36 34  1  0  0  0  0
 36 38  1  0  0  0  0
 37 38  1  0  0  0  0
 38 30  1  0  0  0  0
 39 40  1  0  0  0  0
 42 41  1  0  0  0  0
 42 43  1  0  0  0  0
 44 42  1  0  0  0  0
 45 47  1  0  0  0  0
 46 47  2  0  0  0  0
 47 44  1  0  0  0  0
 48 41  1  0  0  0  0
 49 50  3  0  0  0  0
 50 48  1  0  0  0  0
M  END
>  <MODEL>
9

>  <REMARK>
 VINA RESULT:      -4.8      2.154      6.171
  Name = 
  15 active torsions:
  status: ('A' for Active; 'I' for Inactive)
    1  A    between atoms: O_3  and  C_20
    2  A    between atoms: O_3  and  C_39
    3  A    between atoms: C_4  and  C_38
    4  A    between atoms: C_4  and  N_40
    5  A    between atoms: C_6  and  C_36
    6  A    between atoms: C_10  and  C_29
    7  A    between atoms: N_12  and  C_18
    8  A    between atoms: N_12  and  C_50
    9  A    between atoms: C_14  and  C_46
   10  A    between atoms: C_15  and  C_44
   11  A    between atoms: C_15  and  C_46
   12  A    between atoms: C_18  and  C_22
   13  A    between atoms: C_33  and  C_43
   14  A    between atoms: C_36  and  C_38
   15  A    between atoms: C_39  and  C_46
                            x       y       z     vdW  Elec       q    Type
                         _______ _______ _______ _____ _____    ______ ____

>  <TORSDO>
F 15

$$$$
