=
 OpenBabel11072415263D

 25 27  0  0  1  0  0  0  0  0999 V2000
  160.5430  206.3870  146.2250 C   0  0  0  0  0  2  0  0  0  0  0  0
  161.8570  205.2870  147.8930 C   0  0  2  0  0  3  0  0  0  0  0  0
  161.6770  205.7990  145.5280 N   0  0  0  0  0  0  0  0  0  0  0  0
  160.8870  206.4350  147.6950 C   0  0  1  0  0  3  0  0  0  0  0  0
  162.3590  204.9480  146.4960 C   0  0  0  0  0  2  0  0  0  0  0  0
  161.1370  204.9260  144.5020 C   0  0  0  0  0  1  0  0  0  0  0  0
  160.4950  203.0960  150.5680 C   0  0  0  0  0  2  0  0  0  0  0  0
  160.7690  200.8920  149.2830 C   0  0  0  0  0  2  0  0  0  0  0  0
  161.0580  201.6810  150.5670 C   0  0  0  0  0  2  0  0  0  0  0  0
  161.4530  203.9920  149.9340 N   0  0  0  0  0  2  0  0  0  0  0  0
  161.5880  202.7950  147.8010 C   0  0  0  0  0  2  0  0  0  0  0  0
  160.5370  201.7160  148.0120 C   0  0  0  0  0  2  0  0  0  0  0  0
  161.1490  204.0770  148.5090 C   0  0  2  0  0  3  0  0  0  0  0  0
  161.5520  207.6990  147.9870 N   0  0  0  0  0  2  0  0  0  0  0  0
  161.3190  209.6280  151.7810 C   0  0  2  0  0  3  0  0  0  0  0  0
  160.6720  207.4850  152.6600 O   0  0  0  0  0  1  0  0  0  0  0  0
  161.6740  208.2530  149.3020 C   0  0  0  0  0  0  0  0  0  0  0  0
  161.5450  208.1100  151.7690 C   0  0  1  0  0  3  0  0  0  0  0  0
  161.3450  207.5430  150.3900 C   0  0  0  0  0  3  0  0  0  0  0  0
  162.1470  209.6440  149.4500 C   0  0  0  0  0  3  0  0  0  0  0  0
  162.0220  210.2830  150.6180 C   0  0  0  0  0  3  0  0  0  0  0  0
  161.8020  210.2240  153.0950 C   0  0  0  0  0  2  0  0  0  0  0  0
  159.4980  211.1800  153.1110 O   0  0  0  0  0  0  0  0  0  0  0  0
  160.8930  211.4780  154.9070 O   0  0  0  0  0  1  0  0  0  0  0  0
  160.7090  210.9870  153.7630 C   0  0  0  0  0  0  0  0  0  0  0  0
  1  4  1  0  0  0  0
  2  5  1  6  0  0  0
  2 13  1  0  0  0  0
  3  1  1  0  0  0  0
  3  5  1  0  0  0  0
  4  2  1  0  0  0  0
  4 14  1  6  0  0  0
  6  3  1  0  0  0  0
  8  9  1  0  0  0  0
  9  7  1  0  0  0  0
 10  7  1  0  0  0  0
 11 12  1  0  0  0  0
 12  8  1  0  0  0  0
 13 11  1  6  0  0  0
 13 10  1  0  0  0  0
 14 17  1  0  0  0  0
 15 22  1  1  0  0  0
 17 20  1  0  0  0  0
 17 19  2  0  0  0  0
 18 15  1  0  0  0  0
 18 16  1  1  0  0  0
 19 18  1  0  0  0  0
 20 21  2  0  0  0  0
 21 15  1  0  0  0  0
 22 25  1  0  0  0  0
 23 25  2  0  0  0  0
 25 24  1  0  0  0  0
M  END
>  <MODEL>
1

>  <REMARK>
 VINA RESULT:      -8.3      0.000      0.000
  Name = 
  5 active torsions:
  status: ('A' for Active; 'I' for Inactive)
    1  A    between atoms: C_4  and  C_16
    2  A    between atoms: C_6  and  N_19
    3  A    between atoms: C_11  and  C_22
    4  A    between atoms: C_13  and  N_19
    5  A    between atoms: C_16  and  C_25
                            x       y       z     vdW  Elec       q    Type
                         _______ _______ _______ _____ _____    ______ ____

>  <TORSDO>
F 5

$$$$
=
 OpenBabel11072415263D

 25 27  0  0  1  0  0  0  0  0999 V2000
  160.2620  206.6650  147.0910 C   0  0  0  0  0  2  0  0  0  0  0  0
  161.6660  205.2190  148.3770 C   0  0  2  0  0  3  0  0  0  0  0  0
  161.4540  206.4370  146.2890 N   0  0  0  0  0  0  0  0  0  0  0  0
  160.5880  206.2750  148.5130 C   0  0  1  0  0  3  0  0  0  0  0  0
  162.2100  205.3900  146.9650 C   0  0  0  0  0  2  0  0  0  0  0  0
  161.0100  205.8890  145.0200 C   0  0  0  0  0  1  0  0  0  0  0  0
  160.4080  202.2190  150.1740 C   0  0  0  0  0  2  0  0  0  0  0  0
  161.0600  200.5210  148.3620 C   0  0  0  0  0  2  0  0  0  0  0  0
  161.1480  200.9310  149.8390 C   0  0  0  0  0  2  0  0  0  0  0  0
  161.2850  203.3540  149.9210 N   0  0  0  0  0  2  0  0  0  0  0  0
  161.7320  202.8460  147.5670 C   0  0  0  0  0  2  0  0  0  0  0  0
  160.8170  201.6490  147.3540 C   0  0  0  0  0  2  0  0  0  0  0  0
  161.0790  203.8160  148.5510 C   0  0  2  0  0  3  0  0  0  0  0  0
  161.1220  207.4370  149.2150 N   0  0  0  0  0  2  0  0  0  0  0  0
  160.8510  207.7160  153.4600 C   0  0  2  0  0  3  0  0  0  0  0  0
  161.2110  205.3380  153.4860 O   0  0  0  0  0  1  0  0  0  0  0  0
  161.2540  207.5200  150.6380 C   0  0  0  0  0  0  0  0  0  0  0  0
  161.6200  206.5240  152.8740 C   0  0  1  0  0  3  0  0  0  0  0  0
  161.4090  206.4200  151.3890 C   0  0  0  0  0  3  0  0  0  0  0  0
  161.1940  208.8450  151.2860 C   0  0  0  0  0  3  0  0  0  0  0  0
  161.0450  208.9480  152.6110 C   0  0  0  0  0  3  0  0  0  0  0  0
  161.2970  207.9830  154.8900 C   0  0  0  0  0  2  0  0  0  0  0  0
  159.3640  209.1810  155.9140 O   0  0  0  0  0  0  0  0  0  0  0  0
  159.8420  207.0210  156.5140 O   0  0  0  0  0  1  0  0  0  0  0  0
  160.1260  208.0250  155.8110 C   0  0  0  0  0  0  0  0  0  0  0  0
  1  4  1  0  0  0  0
  2  5  1  6  0  0  0
  2  4  1  0  0  0  0
  2 13  1  0  0  0  0
  3  5  1  0  0  0  0
  3  1  1  0  0  0  0
  4 14  1  1  0  0  0
  6  3  1  0  0  0  0
  8  9  1  0  0  0  0
  9  7  1  0  0  0  0
 10  7  1  0  0  0  0
 12 11  1  0  0  0  0
 12  8  1  0  0  0  0
 13 11  1  6  0  0  0
 13 10  1  0  0  0  0
 14 17  1  0  0  0  0
 15 22  1  1  0  0  0
 17 20  1  0  0  0  0
 17 19  2  0  0  0  0
 18 15  1  0  0  0  0
 18 16  1  1  0  0  0
 19 18  1  0  0  0  0
 20 21  2  0  0  0  0
 21 15  1  0  0  0  0
 22 25  1  0  0  0  0
 25 23  2  0  0  0  0
 25 24  1  0  0  0  0
M  END
>  <MODEL>
2

>  <REMARK>
 VINA RESULT:      -8.1      1.712      2.003
  Name = 
  5 active torsions:
  status: ('A' for Active; 'I' for Inactive)
    1  A    between atoms: C_4  and  C_16
    2  A    between atoms: C_6  and  N_19
    3  A    between atoms: C_11  and  C_22
    4  A    between atoms: C_13  and  N_19
    5  A    between atoms: C_16  and  C_25
                            x       y       z     vdW  Elec       q    Type
                         _______ _______ _______ _____ _____    ______ ____

>  <TORSDO>
F 5

$$$$
=
 OpenBabel11072415263D

 25 27  0  0  1  0  0  0  0  0999 V2000
  162.0480  203.2240  151.5380 C   0  0  0  0  0  2  0  0  0  0  0  0
  160.6470  204.7650  150.3650 C   0  0  2  0  0  3  0  0  0  0  0  0
  160.8280  202.5000  151.2160 N   0  0  0  0  0  0  0  0  0  0  0  0
  161.7540  204.6980  151.3970 C   0  0  1  0  0  3  0  0  0  0  0  0
  160.0660  203.3580  150.3170 C   0  0  0  0  0  2  0  0  0  0  0  0
  161.2200  201.3280  150.4540 C   0  0  0  0  0  1  0  0  0  0  0  0
  161.1700  206.8500  147.3330 C   0  0  0  0  0  2  0  0  0  0  0  0
  161.6010  204.8950  145.7270 C   0  0  0  0  0  2  0  0  0  0  0  0
  160.7910  206.1640  146.0270 C   0  0  0  0  0  2  0  0  0  0  0  0
  160.4190  206.2460  148.4250 N   0  0  0  0  0  2  0  0  0  0  0  0
  161.1800  203.9480  148.0540 C   0  0  0  0  0  2  0  0  0  0  0  0
  162.1890  204.1580  146.9350 C   0  0  0  0  0  2  0  0  0  0  0  0
  161.2040  205.1540  148.9930 C   0  0  2  0  0  3  0  0  0  0  0  0
  161.2710  205.2120  152.6730 N   0  0  0  0  0  2  0  0  0  0  0  0
  160.5090  209.3440  153.3870 C   0  0  2  0  0  3  0  0  0  0  0  0
  159.9980  208.7030  155.6470 O   0  0  0  0  0  1  0  0  0  0  0  0
  161.2180  206.6030  153.0070 C   0  0  0  0  0  0  0  0  0  0  0  0
  160.8830  208.4730  154.5930 C   0  0  1  0  0  3  0  0  0  0  0  0
  160.8640  207.0120  154.2330 C   0  0  0  0  0  3  0  0  0  0  0  0
  161.5380  207.6000  151.9660 C   0  0  0  0  0  3  0  0  0  0  0  0
  161.2460  208.8920  152.1500 C   0  0  0  0  0  3  0  0  0  0  0  0
  160.8110  210.8070  153.6770 C   0  0  0  0  0  2  0  0  0  0  0  0
  158.4240  211.4880  153.4270 O   0  0  0  0  0  1  0  0  0  0  0  0
  160.0750  212.6010  152.2900 O   0  0  0  0  0  0  0  0  0  0  0  0
  159.7580  211.6900  153.0970 C   0  0  0  0  0  0  0  0  0  0  0  0
  2  5  1  6  0  0  0
  2  4  1  0  0  0  0
  3  1  1  0  0  0  0
  4  1  1  0  0  0  0
  4 14  1  1  0  0  0
  5  3  1  0  0  0  0
  6  3  1  0  0  0  0
  7 10  1  0  0  0  0
  8  9  1  0  0  0  0
  8 12  1  0  0  0  0
  9  7  1  0  0  0  0
 10 13  1  0  0  0  0
 12 11  1  0  0  0  0
 13 11  1  6  0  0  0
 13  2  1  0  0  0  0
 14 17  1  0  0  0  0
 15 22  1  1  0  0  0
 15 18  1  0  0  0  0
 17 19  2  0  0  0  0
 18 16  1  1  0  0  0
 19 18  1  0  0  0  0
 20 21  2  0  0  0  0
 20 17  1  0  0  0  0
 21 15  1  0  0  0  0
 24 25  2  0  0  0  0
 25 23  1  0  0  0  0
 25 22  1  0  0  0  0
M  END
>  <MODEL>
3

>  <REMARK>
 VINA RESULT:      -7.8      1.761      4.046
  Name = 
  5 active torsions:
  status: ('A' for Active; 'I' for Inactive)
    1  A    between atoms: C_4  and  C_16
    2  A    between atoms: C_6  and  N_19
    3  A    between atoms: C_11  and  C_22
    4  A    between atoms: C_13  and  N_19
    5  A    between atoms: C_16  and  C_25
                            x       y       z     vdW  Elec       q    Type
                         _______ _______ _______ _____ _____    ______ ____

>  <TORSDO>
F 5

$$$$
=
 OpenBabel11072415263D

 25 27  0  0  1  0  0  0  0  0999 V2000
  162.0240  203.1130  151.4840 C   0  0  0  0  0  2  0  0  0  0  0  0
  160.6240  204.6750  150.3360 C   0  0  2  0  0  3  0  0  0  0  0  0
  160.8160  202.3860  151.1200 N   0  0  0  0  0  0  0  0  0  0  0  0
  161.7150  204.5880  151.3840 C   0  0  1  0  0  3  0  0  0  0  0  0
  160.0600  203.2640  150.2350 C   0  0  0  0  0  2  0  0  0  0  0  0
  161.2340  201.2440  150.3290 C   0  0  0  0  0  1  0  0  0  0  0  0
  161.1680  206.8560  147.3770 C   0  0  0  0  0  2  0  0  0  0  0  0
  161.6550  204.9550  145.7210 C   0  0  0  0  0  2  0  0  0  0  0  0
  160.8220  206.2040  146.0450 C   0  0  0  0  0  2  0  0  0  0  0  0
  160.4070  206.2100  148.4370 N   0  0  0  0  0  2  0  0  0  0  0  0
  161.2090  203.9340  148.0120 C   0  0  0  0  0  2  0  0  0  0  0  0
  162.2330  204.1920  146.9170 C   0  0  0  0  0  2  0  0  0  0  0  0
  161.1990  205.1120  148.9860 C   0  0  2  0  0  3  0  0  0  0  0  0
  161.2060  205.0570  152.6680 N   0  0  0  0  0  2  0  0  0  0  0  0
  161.3010  209.1500  153.8510 C   0  0  2  0  0  3  0  0  0  0  0  0
  161.5340  209.6630  151.5130 O   0  0  0  0  0  1  0  0  0  0  0  0
  161.0240  206.4370  152.9990 C   0  0  0  0  0  0  0  0  0  0  0  0
  160.8620  208.8360  152.4150 C   0  0  1  0  0  3  0  0  0  0  0  0
  161.1260  207.3970  152.0690 C   0  0  0  0  0  3  0  0  0  0  0  0
  160.7420  206.8040  154.4010 C   0  0  0  0  0  3  0  0  0  0  0  0
  160.8300  208.0770  154.8020 C   0  0  0  0  0  3  0  0  0  0  0  0
  160.7690  210.5090  154.2830 C   0  0  0  0  0  2  0  0  0  0  0  0
  162.8350  210.8310  155.6430 O   0  0  0  0  0  0  0  0  0  0  0  0
  160.7940  211.4890  156.4550 O   0  0  0  0  0  1  0  0  0  0  0  0
  161.4600  210.9800  155.5170 C   0  0  0  0  0  0  0  0  0  0  0  0
  2  5  1  6  0  0  0
  2  4  1  0  0  0  0
  3  1  1  0  0  0  0
  4  1  1  0  0  0  0
  4 14  1  1  0  0  0
  5  3  1  0  0  0  0
  6  3  1  0  0  0  0
  7 10  1  0  0  0  0
  8  9  1  0  0  0  0
  8 12  1  0  0  0  0
  9  7  1  0  0  0  0
 10 13  1  0  0  0  0
 12 11  1  0  0  0  0
 13 11  1  6  0  0  0
 13  2  1  0  0  0  0
 14 17  1  0  0  0  0
 15 22  1  1  0  0  0
 15 21  1  0  0  0  0
 17 20  1  0  0  0  0
 18 16  1  6  0  0  0
 18 15  1  0  0  0  0
 19 18  1  0  0  0  0
 19 17  2  0  0  0  0
 20 21  2  0  0  0  0
 22 25  1  0  0  0  0
 25 23  2  0  0  0  0
 25 24  1  0  0  0  0
M  END
>  <MODEL>
4

>  <REMARK>
 VINA RESULT:      -7.7      1.805      4.210
  Name = 
  5 active torsions:
  status: ('A' for Active; 'I' for Inactive)
    1  A    between atoms: C_4  and  C_16
    2  A    between atoms: C_6  and  N_19
    3  A    between atoms: C_11  and  C_22
    4  A    between atoms: C_13  and  N_19
    5  A    between atoms: C_16  and  C_25
                            x       y       z     vdW  Elec       q    Type
                         _______ _______ _______ _____ _____    ______ ____

>  <TORSDO>
F 5

$$$$
=
 OpenBabel11072415263D

 25 27  0  0  1  0  0  0  0  0999 V2000
  160.4560  206.9630  154.6470 C   0  0  0  0  0  2  0  0  0  0  0  0
  161.1750  209.1120  153.8850 C   0  0  2  0  0  3  0  0  0  0  0  0
  161.2640  207.5250  155.7190 N   0  0  0  0  0  0  0  0  0  0  0  0
  160.7620  207.7410  153.3900 C   0  0  1  0  0  3  0  0  0  0  0  0
  161.5210  208.9130  155.3550 C   0  0  0  0  0  2  0  0  0  0  0  0
  160.4330  207.5450  156.9080 C   0  0  0  0  0  1  0  0  0  0  0  0
  159.1800  211.8650  152.3850 C   0  0  0  0  0  2  0  0  0  0  0  0
  158.1840  212.7150  154.5920 C   0  0  0  0  0  2  0  0  0  0  0  0
  158.9570  213.0540  153.3100 C   0  0  0  0  0  2  0  0  0  0  0  0
  160.3870  211.1600  152.7950 N   0  0  0  0  0  2  0  0  0  0  0  0
  159.6900  210.7250  155.1020 C   0  0  0  0  0  2  0  0  0  0  0  0
  158.2670  211.2640  155.0780 C   0  0  0  0  0  2  0  0  0  0  0  0
  160.0240  210.1110  153.7430 C   0  0  2  0  0  3  0  0  0  0  0  0
  161.8810  207.1080  152.6990 N   0  0  0  0  0  2  0  0  0  0  0  0
  160.8310  204.2930  149.6760 C   0  0  2  0  0  3  0  0  0  0  0  0
  160.4090  206.1950  148.2650 O   0  0  0  0  0  1  0  0  0  0  0  0
  161.7320  206.2020  151.6000 C   0  0  0  0  0  0  0  0  0  0  0  0
  161.2890  205.6850  149.2210 C   0  0  1  0  0  3  0  0  0  0  0  0
  161.3710  206.6360  150.3840 C   0  0  0  0  0  3  0  0  0  0  0  0
  161.9590  204.7610  151.8260 C   0  0  0  0  0  3  0  0  0  0  0  0
  161.5770  203.8620  150.9140 C   0  0  0  0  0  3  0  0  0  0  0  0
  161.0300  203.2790  148.5580 C   0  0  0  0  0  2  0  0  0  0  0  0
  161.5410  200.8730  148.9730 O   0  0  0  0  0  0  0  0  0  0  0  0
  159.4430  201.7030  149.3810 O   0  0  0  0  0  1  0  0  0  0  0  0
  160.6240  201.9160  149.0030 C   0  0  0  0  0  0  0  0  0  0  0  0
  1  3  1  0  0  0  0
  2  5  1  1  0  0  0
  3  6  1  0  0  0  0
  4 14  1  1  0  0  0
  4  2  1  0  0  0  0
  4  1  1  0  0  0  0
  5  3  1  0  0  0  0
  7 10  1  0  0  0  0
  7  9  1  0  0  0  0
  8 12  1  0  0  0  0
  9  8  1  0  0  0  0
 10 13  1  0  0  0  0
 12 11  1  0  0  0  0
 13  2  1  0  0  0  0
 13 11  1  1  0  0  0
 15 22  1  6  0  0  0
 15 21  1  0  0  0  0
 17 20  1  0  0  0  0
 17 14  1  0  0  0  0
 18 16  1  6  0  0  0
 18 15  1  0  0  0  0
 18 19  1  0  0  0  0
 19 17  2  0  0  0  0
 21 20  2  0  0  0  0
 22 25  1  0  0  0  0
 23 25  2  0  0  0  0
 25 24  1  0  0  0  0
M  END
>  <MODEL>
5

>  <REMARK>
 VINA RESULT:      -7.3      3.618      8.741
  Name = 
  5 active torsions:
  status: ('A' for Active; 'I' for Inactive)
    1  A    between atoms: C_4  and  C_16
    2  A    between atoms: C_6  and  N_19
    3  A    between atoms: C_11  and  C_22
    4  A    between atoms: C_13  and  N_19
    5  A    between atoms: C_16  and  C_25
                            x       y       z     vdW  Elec       q    Type
                         _______ _______ _______ _____ _____    ______ ____

>  <TORSDO>
F 5

$$$$
=
 OpenBabel11072415263D

 25 27  0  0  1  0  0  0  0  0999 V2000
  160.5380  207.3470  154.9740 C   0  0  0  0  0  2  0  0  0  0  0  0
  161.2410  209.3930  153.9570 C   0  0  2  0  0  3  0  0  0  0  0  0
  161.5450  207.9150  155.8580 N   0  0  0  0  0  0  0  0  0  0  0  0
  160.6730  208.0270  153.6330 C   0  0  1  0  0  3  0  0  0  0  0  0
  161.8160  209.2590  155.3610 C   0  0  0  0  0  2  0  0  0  0  0  0
  160.9280  208.0620  157.1630 C   0  0  0  0  0  1  0  0  0  0  0  0
  158.7220  211.7030  152.4990 C   0  0  0  0  0  2  0  0  0  0  0  0
  158.8740  213.4780  154.3480 C   0  0  0  0  0  2  0  0  0  0  0  0
  158.9410  213.1700  152.8450 C   0  0  0  0  0  2  0  0  0  0  0  0
  159.9920  210.9970  152.5870 N   0  0  0  0  0  2  0  0  0  0  0  0
  160.4800  211.5830  154.9150 C   0  0  0  0  0  2  0  0  0  0  0  0
  159.2050  212.3210  155.2970 C   0  0  0  0  0  2  0  0  0  0  0  0
  160.1410  210.4580  153.9360 C   0  0  2  0  0  3  0  0  0  0  0  0
  161.6220  207.2800  152.8140 N   0  0  0  0  0  2  0  0  0  0  0  0
  161.1450  204.0860  150.0320 C   0  0  2  0  0  3  0  0  0  0  0  0
  161.6320  202.6150  151.8710 O   0  0  0  0  0  1  0  0  0  0  0  0
  161.2590  206.1820  151.9710 C   0  0  0  0  0  0  0  0  0  0  0  0
  160.9330  203.7710  151.5190 C   0  0  1  0  0  3  0  0  0  0  0  0
  161.3860  204.9130  152.3860 C   0  0  0  0  0  3  0  0  0  0  0  0
  160.7590  206.4600  150.6100 C   0  0  0  0  0  3  0  0  0  0  0  0
  160.6640  205.4790  149.7070 C   0  0  0  0  0  3  0  0  0  0  0  0
  160.4260  203.0620  149.1660 C   0  0  0  0  0  2  0  0  0  0  0  0
  162.0020  203.6720  147.3310 O   0  0  0  0  0  0  0  0  0  0  0  0
  161.2530  201.5160  147.5510 O   0  0  0  0  0  1  0  0  0  0  0  0
  161.2530  202.6990  147.9800 C   0  0  0  0  0  0  0  0  0  0  0  0
  1  3  1  0  0  0  0
  2  5  1  1  0  0  0
  3  6  1  0  0  0  0
  4 14  1  6  0  0  0
  4  2  1  0  0  0  0
  4  1  1  0  0  0  0
  5  3  1  0  0  0  0
  7 10  1  0  0  0  0
  7  9  1  0  0  0  0
  8 12  1  0  0  0  0
  9  8  1  0  0  0  0
 10 13  1  0  0  0  0
 11 12  1  0  0  0  0
 13  2  1  0  0  0  0
 13 11  1  1  0  0  0
 15 22  1  6  0  0  0
 15 18  1  0  0  0  0
 17 19  2  0  0  0  0
 17 14  1  0  0  0  0
 18 16  1  1  0  0  0
 18 19  1  0  0  0  0
 20 17  1  0  0  0  0
 21 15  1  0  0  0  0
 21 20  2  0  0  0  0
 23 25  2  0  0  0  0
 24 25  1  0  0  0  0
 25 22  1  0  0  0  0
M  END
>  <MODEL>
6

>  <REMARK>
 VINA RESULT:      -7.1      3.989      8.873
  Name = 
  5 active torsions:
  status: ('A' for Active; 'I' for Inactive)
    1  A    between atoms: C_4  and  C_16
    2  A    between atoms: C_6  and  N_19
    3  A    between atoms: C_11  and  C_22
    4  A    between atoms: C_13  and  N_19
    5  A    between atoms: C_16  and  C_25
                            x       y       z     vdW  Elec       q    Type
                         _______ _______ _______ _____ _____    ______ ____

>  <TORSDO>
F 5

$$$$
=
 OpenBabel11072415263D

 25 27  0  0  1  0  0  0  0  0999 V2000
  160.6610  207.3830  154.0550 C   0  0  0  0  0  2  0  0  0  0  0  0
  161.0370  209.6490  153.3940 C   0  0  2  0  0  3  0  0  0  0  0  0
  161.5260  207.9640  155.0710 N   0  0  0  0  0  0  0  0  0  0  0  0
  160.7220  208.2750  152.8390 C   0  0  1  0  0  3  0  0  0  0  0  0
  161.5800  209.3940  154.7940 C   0  0  0  0  0  2  0  0  0  0  0  0
  160.8500  207.8030  156.3440 C   0  0  0  0  0  1  0  0  0  0  0  0
  158.6120  212.2830  152.3990 C   0  0  0  0  0  2  0  0  0  0  0  0
  157.7420  212.7640  154.7660 C   0  0  0  0  0  2  0  0  0  0  0  0
  158.3460  213.3300  153.4730 C   0  0  0  0  0  2  0  0  0  0  0  0
  159.9240  211.6920  152.6220 N   0  0  0  0  0  2  0  0  0  0  0  0
  159.5030  210.9290  154.9120 C   0  0  0  0  0  2  0  0  0  0  0  0
  158.0340  211.2900  155.0680 C   0  0  0  0  0  2  0  0  0  0  0  0
  159.7730  210.5100  153.4660 C   0  0  2  0  0  3  0  0  0  0  0  0
  161.8110  207.8310  151.9760 N   0  0  0  0  0  2  0  0  0  0  0  0
  161.8900  206.0570  148.1010 C   0  0  2  0  0  3  0  0  0  0  0  0
  160.8370  204.1500  149.1200 O   0  0  0  0  0  1  0  0  0  0  0  0
  161.6210  207.2920  150.6630 C   0  0  0  0  0  0  0  0  0  0  0  0
  160.8390  205.5450  149.0950 C   0  0  1  0  0  3  0  0  0  0  0  0
  161.1000  206.0710  150.4800 C   0  0  0  0  0  3  0  0  0  0  0  0
  162.0340  208.0950  149.4950 C   0  0  0  0  0  3  0  0  0  0  0  0
  162.1250  207.5360  148.2840 C   0  0  0  0  0  3  0  0  0  0  0  0
  161.4560  205.7620  146.6730 C   0  0  0  0  0  2  0  0  0  0  0  0
  161.5700  203.4520  145.7380 O   0  0  0  0  0  0  0  0  0  0  0  0
  163.4790  204.6960  145.9990 O   0  0  0  0  0  1  0  0  0  0  0  0
  162.2280  204.6170  146.1110 C   0  0  0  0  0  0  0  0  0  0  0  0
  1  3  1  0  0  0  0
  2 13  1  0  0  0  0
  2  5  1  1  0  0  0
  3  6  1  0  0  0  0
  4 14  1  6  0  0  0
  4  2  1  0  0  0  0
  4  1  1  0  0  0  0
  5  3  1  0  0  0  0
  7 10  1  0  0  0  0
  7  9  1  0  0  0  0
  8 12  1  0  0  0  0
  9  8  1  0  0  0  0
 10 13  1  0  0  0  0
 11 12  1  0  0  0  0
 13 11  1  1  0  0  0
 15 22  1  6  0  0  0
 15 21  1  0  0  0  0
 15 18  1  0  0  0  0
 17 14  1  0  0  0  0
 18 16  1  1  0  0  0
 18 19  1  0  0  0  0
 19 17  2  0  0  0  0
 20 17  1  0  0  0  0
 21 20  2  0  0  0  0
 23 25  2  0  0  0  0
 24 25  1  0  0  0  0
 25 22  1  0  0  0  0
M  END
>  <MODEL>
7

>  <REMARK>
 VINA RESULT:      -7.0      3.758      8.528
  Name = 
  5 active torsions:
  status: ('A' for Active; 'I' for Inactive)
    1  A    between atoms: C_4  and  C_16
    2  A    between atoms: C_6  and  N_19
    3  A    between atoms: C_11  and  C_22
    4  A    between atoms: C_13  and  N_19
    5  A    between atoms: C_16  and  C_25
                            x       y       z     vdW  Elec       q    Type
                         _______ _______ _______ _____ _____    ______ ____

>  <TORSDO>
F 5

$$$$
=
 OpenBabel11072415263D

 25 27  0  0  1  0  0  0  0  0999 V2000
  160.5310  206.0340  146.2120 C   0  0  0  0  0  2  0  0  0  0  0  0
  162.3360  204.9160  147.3110 C   0  0  2  0  0  3  0  0  0  0  0  0
  161.3970  205.5270  145.1580 N   0  0  0  0  0  0  0  0  0  0  0  0
  161.3260  206.0300  147.4960 C   0  0  1  0  0  3  0  0  0  0  0  0
  162.3740  204.6620  145.8090 C   0  0  0  0  0  2  0  0  0  0  0  0
  160.5790  204.6800  144.3100 C   0  0  0  0  0  1  0  0  0  0  0  0
  161.1060  201.4350  147.7320 C   0  0  0  0  0  2  0  0  0  0  0  0
  159.9300  201.8290  149.9790 C   0  0  0  0  0  2  0  0  0  0  0  0
  159.8180  201.3170  148.5360 C   0  0  0  0  0  2  0  0  0  0  0  0
  161.1790  202.7620  147.1370 N   0  0  0  0  0  2  0  0  0  0  0  0
  160.9960  204.0190  149.2320 C   0  0  0  0  0  2  0  0  0  0  0  0
  161.0070  202.8850  150.2470 C   0  0  0  0  0  2  0  0  0  0  0  0
  161.8930  203.6510  148.0500 C   0  0  2  0  0  3  0  0  0  0  0  0
  162.0180  207.3060  147.6330 N   0  0  0  0  0  2  0  0  0  0  0  0
  162.5060  209.6520  151.1580 C   0  0  2  0  0  3  0  0  0  0  0  0
  162.3670  211.5710  149.7160 O   0  0  0  0  0  1  0  0  0  0  0  0
  161.9600  208.1250  148.8050 C   0  0  0  0  0  0  0  0  0  0  0  0
  161.8170  210.3110  149.9560 C   0  0  1  0  0  3  0  0  0  0  0  0
  161.9510  209.4630  148.7210 C   0  0  0  0  0  3  0  0  0  0  0  0
  161.9360  207.4750  150.1300 C   0  0  0  0  0  3  0  0  0  0  0  0
  162.1510  208.1870  151.2410 C   0  0  0  0  0  3  0  0  0  0  0  0
  162.1200  210.3640  152.4460 C   0  0  0  0  0  2  0  0  0  0  0  0
  159.7290  209.6730  152.6210 O   0  0  0  0  0  1  0  0  0  0  0  0
  160.2820  211.8730  152.2900 O   0  0  0  0  0  0  0  0  0  0  0  0
  160.6640  210.6860  152.4570 C   0  0  0  0  0  0  0  0  0  0  0  0
  1  4  1  0  0  0  0
  2  5  1  6  0  0  0
  2  4  1  0  0  0  0
  2 13  1  0  0  0  0
  3  5  1  0  0  0  0
  3  1  1  0  0  0  0
  4 14  1  6  0  0  0
  6  3  1  0  0  0  0
  7  9  1  0  0  0  0
  8 12  1  0  0  0  0
  9  8  1  0  0  0  0
 10  7  1  0  0  0  0
 10 13  1  0  0  0  0
 11 12  1  0  0  0  0
 13 11  1  1  0  0  0
 14 17  1  0  0  0  0
 15 21  1  0  0  0  0
 15 22  1  1  0  0  0
 17 20  1  0  0  0  0
 18 16  1  6  0  0  0
 18 15  1  0  0  0  0
 19 17  2  0  0  0  0
 19 18  1  0  0  0  0
 20 21  2  0  0  0  0
 22 25  1  0  0  0  0
 24 25  2  0  0  0  0
 25 23  1  0  0  0  0
M  END
>  <MODEL>
8

>  <REMARK>
 VINA RESULT:      -6.9      1.375      2.103
  Name = 
  5 active torsions:
  status: ('A' for Active; 'I' for Inactive)
    1  A    between atoms: C_4  and  C_16
    2  A    between atoms: C_6  and  N_19
    3  A    between atoms: C_11  and  C_22
    4  A    between atoms: C_13  and  N_19
    5  A    between atoms: C_16  and  C_25
                            x       y       z     vdW  Elec       q    Type
                         _______ _______ _______ _____ _____    ______ ____

>  <TORSDO>
F 5

$$$$
=
 OpenBabel11072415263D

 25 27  0  0  1  0  0  0  0  0999 V2000
  160.4930  205.4570  150.7610 C   0  0  0  0  0  2  0  0  0  0  0  0
  161.7760  207.1470  151.8630 C   0  0  2  0  0  3  0  0  0  0  0  0
  161.5670  204.7640  151.4560 N   0  0  0  0  0  0  0  0  0  0  0  0
  160.8780  206.9140  150.6650 C   0  0  1  0  0  3  0  0  0  0  0  0
  162.2170  205.7570  152.3020 C   0  0  0  0  0  2  0  0  0  0  0  0
  160.9430  203.7960  152.3400 C   0  0  0  0  0  1  0  0  0  0  0  0
  160.4470  209.9610  153.8940 C   0  0  0  0  0  2  0  0  0  0  0  0
  160.3750  208.6840  156.1190 C   0  0  0  0  0  2  0  0  0  0  0  0
  160.8600  209.9270  155.3600 C   0  0  0  0  0  2  0  0  0  0  0  0
  161.4300  209.2320  153.1040 N   0  0  0  0  0  2  0  0  0  0  0  0
  161.2470  207.1110  154.3150 C   0  0  0  0  0  2  0  0  0  0  0  0
  160.1140  207.4290  155.2790 C   0  0  0  0  0  2  0  0  0  0  0  0
  161.0070  207.8390  152.9920 C   0  0  2  0  0  3  0  0  0  0  0  0
  161.6320  207.1270  149.4340 N   0  0  0  0  0  2  0  0  0  0  0  0
  160.9250  204.2720  146.3490 C   0  0  2  0  0  3  0  0  0  0  0  0
  160.0130  206.0990  145.0780 O   0  0  0  0  0  1  0  0  0  0  0  0
  161.5790  206.2520  148.3020 C   0  0  0  0  0  0  0  0  0  0  0  0
  161.0540  205.7450  145.9380 C   0  0  1  0  0  3  0  0  0  0  0  0
  161.0390  206.6470  147.1410 C   0  0  0  0  0  3  0  0  0  0  0  0
  162.1090  204.8810  148.4340 C   0  0  0  0  0  3  0  0  0  0  0  0
  161.8420  203.9570  147.5050 C   0  0  0  0  0  3  0  0  0  0  0  0
  161.2310  203.3630  145.1670 C   0  0  0  0  0  2  0  0  0  0  0  0
  160.9740  201.0780  146.1340 O   0  0  0  0  0  1  0  0  0  0  0  0
  159.4580  201.8720  144.6070 O   0  0  0  0  0  0  0  0  0  0  0  0
  160.4970  202.0720  145.2890 C   0  0  0  0  0  0  0  0  0  0  0  0
  1  3  1  0  0  0  0
  2  5  1  1  0  0  0
  2 13  1  0  0  0  0
  3  5  1  0  0  0  0
  3  6  1  0  0  0  0
  4 14  1  6  0  0  0
  4  1  1  0  0  0  0
  4  2  1  0  0  0  0
  7  9  1  0  0  0  0
  9  8  1  0  0  0  0
 10  7  1  0  0  0  0
 11 12  1  0  0  0  0
 12  8  1  0  0  0  0
 13 10  1  0  0  0  0
 13 11  1  1  0  0  0
 15 22  1  6  0  0  0
 15 21  1  0  0  0  0
 17 20  1  0  0  0  0
 17 14  1  0  0  0  0
 18 16  1  6  0  0  0
 18 15  1  0  0  0  0
 18 19  1  0  0  0  0
 19 17  2  0  0  0  0
 21 20  2  0  0  0  0
 22 25  1  0  0  0  0
 24 25  2  0  0  0  0
 25 23  1  0  0  0  0
M  END
>  <MODEL>
9

>  <REMARK>
 VINA RESULT:      -6.9      3.885      7.807
  Name = 
  5 active torsions:
  status: ('A' for Active; 'I' for Inactive)
    1  A    between atoms: C_4  and  C_16
    2  A    between atoms: C_6  and  N_19
    3  A    between atoms: C_11  and  C_22
    4  A    between atoms: C_13  and  N_19
    5  A    between atoms: C_16  and  C_25
                            x       y       z     vdW  Elec       q    Type
                         _______ _______ _______ _____ _____    ______ ____

>  <TORSDO>
F 5

$$$$
