=
 OpenBabel11072410223D

 33 35  0  0  1  0  0  0  0  0999 V2000
  161.0810  206.6310  152.0120 C   0  0  0  0  0  0  0  0  0  0  0  0
  160.6070  204.2460  151.9260 C   0  0  0  0  0  3  0  0  0  0  0  0
  160.7450  205.4270  152.6470 C   0  0  0  0  0  3  0  0  0  0  0  0
  161.2380  207.8350  152.7500 C   0  0  0  0  0  0  0  0  0  0  0  0
  161.6540  207.8220  149.9670 C   0  0  0  0  0  3  0  0  0  0  0  0
  161.6040  209.0030  152.0670 C   0  0  0  0  0  3  0  0  0  0  0  0
  161.8060  209.0010  150.6890 C   0  0  0  0  0  0  0  0  0  0  0  0
  161.2810  206.6280  150.5990 C   0  0  0  0  0  0  0  0  0  0  0  0
  160.7990  204.2460  150.5480 C   0  0  0  0  0  3  0  0  0  0  0  0
  161.1300  205.4220  149.8590 C   0  0  0  0  0  0  0  0  0  0  0  0
  161.3020  205.3380  148.3820 C   0  0  0  0  0  0  0  0  0  0  0  0
  160.9050  205.2410  145.3860 C   0  0  1  0  0  3  0  0  0  0  0  0
  162.1390  204.1490  146.1310 P   0  0  2  0  0  0  0  0  0  0  0  0
  161.8330  204.2740  147.8500 N   0  0  0  0  0  0  0  0  0  0  0  0
  163.5360  204.6440  145.8210 O   0  0  0  0  0  0  0  0  0  0  0  0
  160.9180  206.5100  147.5450 C   0  0  0  0  0  3  0  0  0  0  0  0
  160.7780  206.4860  146.2120 C   0  0  0  0  0  3  0  0  0  0  0  0
  161.5770  205.8510  142.8750 C   0  0  0  0  0  0  0  0  0  0  0  0
  161.2710  205.5760  144.0080 C   0  0  0  0  0  0  0  0  0  0  0  0
  161.6400  207.4890  141.0280 C   0  0  0  0  0  1  0  0  0  0  0  0
  161.9320  206.1710  141.5600 N   0  0  0  0  0  2  0  0  0  0  0  0
  161.9340  202.5550  145.5860 O   0  0  0  0  0  0  0  0  0  0  0  0
  160.9450  201.1870  147.1190 O   0  0  0  0  0  1  0  0  0  0  0  0
  159.8740  201.5050  145.0230 C   0  0  0  0  0  1  0  0  0  0  0  0
  160.7140  202.1300  146.1180 C   0  0  2  0  0  3  0  0  0  0  0  0
  160.3710  206.9500  154.9370 O   0  0  0  0  0  1  0  0  0  0  0  0
  161.4880  208.9330  154.8480 O   0  0  0  0  0  0  0  0  0  0  0  0
  161.0430  207.9350  154.2210 C   0  0  0  0  0  0  0  0  0  0  0  0
  162.2260  210.2490  149.9980 C   0  0  0  0  0  2  0  0  0  0  0  0
  161.8800  210.1790  148.6480 O   0  0  0  0  0  0  0  0  0  0  0  0
  161.9430  211.7790  148.1080 P   0  0  0  0  0  0  0  0  0  0  0  0
  163.2810  212.4460  147.8750 O   0  0  0  0  0  0  0  0  0  0  0  0
  160.6640  212.5430  147.8520 O   0  0  0  0  0  0  0  0  0  0  0  0
  1  3  2  0  0  0  0
  1  4  1  0  0  0  0
  2  3  1  0  0  0  0
  4 28  1  0  0  0  0
  5  8  1  0  0  0  0
  5  7  2  0  0  0  0
  6  4  2  0  0  0  0
  7  6  1  0  0  0  0
  8  1  1  0  0  0  0
  9  2  2  0  0  0  0
 10  9  1  0  0  0  0
 10  8  2  0  0  0  0
 11 10  1  0  0  0  0
 12 19  1  6  0  0  0
 12 13  1  0  0  0  0
 12 17  1  0  0  0  0
 13 15  2  6  0  0  0
 13 14  1  0  0  0  0
 14 11  2  0  0  0  0
 16 11  1  0  0  0  0
 17 16  2  0  0  0  0
 18 19  3  0  0  0  0
 20 21  1  0  0  0  0
 21 18  1  0  0  0  0
 22 25  1  0  0  0  0
 22 13  1  0  0  0  0
 25 24  1  6  0  0  0
 25 23  1  0  0  0  0
 28 27  2  0  0  0  0
 28 26  1  0  0  0  0
 29  7  1  0  0  0  0
 30 29  1  0  0  0  0
 31 30  1  0  0  0  0
 32 31  2  0  0  0  0
 33 31  2  0  0  0  0
M  END
>  <MODEL>
1

>  <REMARK>
 VINA RESULT:      -8.0      0.000      0.000
  Name = 
  9 active torsions:
  status: ('A' for Active; 'I' for Inactive)
    1  A    between atoms: O_4  and  P_14
    2  A    between atoms: O_4  and  C_29
    3  A    between atoms: P_7  and  O_17
    4  A    between atoms: C_9  and  O_17
    5  A    between atoms: C_9  and  C_24
    6  A    between atoms: C_10  and  C_28
    7  A    between atoms: C_11  and  C_25
    8  A    between atoms: C_12  and  C_32
    9  A    between atoms: N_21  and  C_23
                            x       y       z     vdW  Elec       q    Type
                         _______ _______ _______ _____ _____    ______ ____

>  <TORSDO>
F 9

$$$$
=
 OpenBabel11072410223D

 33 35  0  0  1  0  0  0  0  0999 V2000
  161.3230  208.5120  153.2830 C   0  0  0  0  0  0  0  0  0  0  0  0
  160.8750  206.4360  154.4680 C   0  0  0  0  0  3  0  0  0  0  0  0
  161.0790  207.8110  154.4720 C   0  0  0  0  0  3  0  0  0  0  0  0
  161.5490  209.9160  153.2880 C   0  0  0  0  0  0  0  0  0  0  0  0
  161.6380  208.4810  150.8680 C   0  0  0  0  0  3  0  0  0  0  0  0
  161.8170  210.5610  152.0730 C   0  0  0  0  0  3  0  0  0  0  0  0
  161.8570  209.8540  150.8730 C   0  0  0  0  0  0  0  0  0  0  0  0
  161.3580  207.7880  152.0550 C   0  0  0  0  0  0  0  0  0  0  0  0
  160.9050  205.7320  153.2690 C   0  0  0  0  0  3  0  0  0  0  0  0
  161.1380  206.3820  152.0480 C   0  0  0  0  0  0  0  0  0  0  0  0
  161.1370  205.5560  150.8090 C   0  0  0  0  0  0  0  0  0  0  0  0
  161.6300  203.4690  148.6770 C   0  0  1  0  0  3  0  0  0  0  0  0
  161.4360  205.1940  148.1700 P   0  0  2  0  0  0  0  0  0  0  0  0
  161.4960  206.0870  149.6750 N   0  0  0  0  0  0  0  0  0  0  0  0
  160.0920  205.3990  147.5050 O   0  0  0  0  0  0  0  0  0  0  0  0
  160.6590  204.1460  150.8830 C   0  0  0  0  0  3  0  0  0  0  0  0
  160.8390  203.2250  149.9270 C   0  0  0  0  0  3  0  0  0  0  0  0
  160.8460  201.8130  146.7350 C   0  0  0  0  0  0  0  0  0  0  0  0
  161.1980  202.5620  147.6110 C   0  0  0  0  0  0  0  0  0  0  0  0
  159.7010  201.4550  144.5770 C   0  0  0  0  0  1  0  0  0  0  0  0
  160.4380  200.9440  145.7170 N   0  0  0  0  0  2  0  0  0  0  0  0
  162.6950  205.6580  147.1310 O   0  0  0  0  0  0  0  0  0  0  0  0
  163.8190  204.3480  145.6420 O   0  0  0  0  0  1  0  0  0  0  0  0
  162.0030  205.6610  144.8550 C   0  0  0  0  0  1  0  0  0  0  0  0
  162.5680  204.8470  146.0010 C   0  0  2  0  0  3  0  0  0  0  0  0
  162.5720  210.7360  155.4320 O   0  0  0  0  0  1  0  0  0  0  0  0
  160.5360  211.4990  154.7510 O   0  0  0  0  0  0  0  0  0  0  0  0
  161.5250  210.7530  154.5170 C   0  0  0  0  0  0  0  0  0  0  0  0
  162.1770  210.5620  149.6050 C   0  0  0  0  0  2  0  0  0  0  0  0
  161.5390  211.8030  149.5860 O   0  0  0  0  0  0  0  0  0  0  0  0
  161.7060  212.3430  147.9920 P   0  0  0  0  0  0  0  0  0  0  0  0
  163.0040  212.9720  147.5400 O   0  0  0  0  0  0  0  0  0  0  0  0
  160.5600  212.1910  147.0180 O   0  0  0  0  0  0  0  0  0  0  0  0
  1  4  1  0  0  0  0
  1  3  2  0  0  0  0
  2  3  1  0  0  0  0
  4 28  1  0  0  0  0
  5  7  2  0  0  0  0
  5  8  1  0  0  0  0
  6  4  2  0  0  0  0
  7  6  1  0  0  0  0
  8  1  1  0  0  0  0
  9  2  2  0  0  0  0
 10  8  2  0  0  0  0
 10  9  1  0  0  0  0
 11 16  1  0  0  0  0
 11 10  1  0  0  0  0
 12 19  1  6  0  0  0
 12 17  1  0  0  0  0
 13 15  2  6  0  0  0
 13 12  1  0  0  0  0
 13 14  1  0  0  0  0
 14 11  2  0  0  0  0
 17 16  2  0  0  0  0
 18 19  3  0  0  0  0
 20 21  1  0  0  0  0
 21 18  1  0  0  0  0
 22 13  1  0  0  0  0
 23 25  1  0  0  0  0
 25 24  1  6  0  0  0
 25 22  1  0  0  0  0
 28 27  2  0  0  0  0
 28 26  1  0  0  0  0
 29  7  1  0  0  0  0
 30 29  1  0  0  0  0
 31 30  1  0  0  0  0
 32 31  2  0  0  0  0
 33 31  2  0  0  0  0
M  END
>  <MODEL>
2

>  <REMARK>
 VINA RESULT:      -7.8      2.228      3.495
  Name = 
  9 active torsions:
  status: ('A' for Active; 'I' for Inactive)
    1  A    between atoms: O_4  and  P_14
    2  A    between atoms: O_4  and  C_29
    3  A    between atoms: P_7  and  O_17
    4  A    between atoms: C_9  and  O_17
    5  A    between atoms: C_9  and  C_24
    6  A    between atoms: C_10  and  C_28
    7  A    between atoms: C_11  and  C_25
    8  A    between atoms: C_12  and  C_32
    9  A    between atoms: N_21  and  C_23
                            x       y       z     vdW  Elec       q    Type
                         _______ _______ _______ _____ _____    ______ ____

>  <TORSDO>
F 9

$$$$
=
 OpenBabel11072410223D

 33 35  0  0  1  0  0  0  0  0999 V2000
  161.1700  207.5800  152.9850 C   0  0  0  0  0  0  0  0  0  0  0  0
  160.8710  205.1870  153.3030 C   0  0  0  0  0  3  0  0  0  0  0  0
  160.9650  206.4740  153.8210 C   0  0  0  0  0  3  0  0  0  0  0  0
  161.2840  208.8940  153.5150 C   0  0  0  0  0  0  0  0  0  0  0  0
  161.5230  208.4660  150.7440 C   0  0  0  0  0  3  0  0  0  0  0  0
  161.5180  209.9600  152.6360 C   0  0  0  0  0  3  0  0  0  0  0  0
  161.6320  209.7520  151.2640 C   0  0  0  0  0  0  0  0  0  0  0  0
  161.2810  207.3660  151.5790 C   0  0  0  0  0  0  0  0  0  0  0  0
  160.9750  204.9810  151.9310 C   0  0  0  0  0  3  0  0  0  0  0  0
  161.1730  206.0510  151.0470 C   0  0  0  0  0  0  0  0  0  0  0  0
  161.2570  205.7440  149.5910 C   0  0  0  0  0  0  0  0  0  0  0  0
  160.7490  205.4380  146.6260 C   0  0  1  0  0  3  0  0  0  0  0  0
  161.5800  204.0930  147.5050 P   0  0  2  0  0  0  0  0  0  0  0  0
  161.3900  204.5100  149.1950 N   0  0  0  0  0  0  0  0  0  0  0  0
  163.0500  204.0590  147.1470 O   0  0  0  0  0  0  0  0  0  0  0  0
  161.2530  206.8720  148.6170 C   0  0  0  0  0  3  0  0  0  0  0  0
  161.0670  206.7410  147.2950 C   0  0  0  0  0  3  0  0  0  0  0  0
  161.4960  205.4940  144.0630 C   0  0  0  0  0  0  0  0  0  0  0  0
  161.1580  205.4710  145.2200 C   0  0  0  0  0  0  0  0  0  0  0  0
  161.5760  206.6710  141.8940 C   0  0  0  0  0  1  0  0  0  0  0  0
  161.8890  205.5210  142.7210 N   0  0  0  0  0  2  0  0  0  0  0  0
  160.8420  202.6050  147.1550 O   0  0  0  0  0  0  0  0  0  0  0  0
  161.5040  200.5330  147.8370 O   0  0  0  0  0  1  0  0  0  0  0  0
  159.8190  201.6530  149.0810 C   0  0  0  0  0  1  0  0  0  0  0  0
  161.0880  201.7930  148.2650 C   0  0  2  0  0  3  0  0  0  0  0  0
  162.2600  209.0830  155.8230 O   0  0  0  0  0  1  0  0  0  0  0  0
  160.0770  209.6100  155.4400 O   0  0  0  0  0  0  0  0  0  0  0  0
  161.1750  209.2140  154.9640 C   0  0  0  0  0  0  0  0  0  0  0  0
  161.9140  210.8990  150.3600 C   0  0  0  0  0  2  0  0  0  0  0  0
  162.0070  210.4480  149.0420 O   0  0  0  0  0  0  0  0  0  0  0  0
  162.0020  211.8570  148.1080 P   0  0  0  0  0  0  0  0  0  0  0  0
  163.3070  212.4460  147.6230 O   0  0  0  0  0  0  0  0  0  0  0  0
  160.6930  212.5250  147.7530 O   0  0  0  0  0  0  0  0  0  0  0  0
  1  4  1  0  0  0  0
  1  3  2  0  0  0  0
  2  3  1  0  0  0  0
  4 28  1  0  0  0  0
  5  7  2  0  0  0  0
  5  8  1  0  0  0  0
  6  4  2  0  0  0  0
  7  6  1  0  0  0  0
  8  1  1  0  0  0  0
  9  2  2  0  0  0  0
 10  8  2  0  0  0  0
 10  9  1  0  0  0  0
 11 10  1  0  0  0  0
 12 19  1  6  0  0  0
 12 17  1  0  0  0  0
 12 13  1  0  0  0  0
 13 15  2  6  0  0  0
 13 14  1  0  0  0  0
 14 11  2  0  0  0  0
 16 11  1  0  0  0  0
 17 16  2  0  0  0  0
 18 19  3  0  0  0  0
 20 21  1  0  0  0  0
 21 18  1  0  0  0  0
 22 13  1  0  0  0  0
 22 25  1  0  0  0  0
 23 25  1  0  0  0  0
 25 24  1  6  0  0  0
 28 27  2  0  0  0  0
 28 26  1  0  0  0  0
 29  7  1  0  0  0  0
 30 29  1  0  0  0  0
 31 30  1  0  0  0  0
 32 31  2  0  0  0  0
 33 31  2  0  0  0  0
M  END
>  <MODEL>
3

>  <REMARK>
 VINA RESULT:      -7.1      1.300      1.536
  Name = 
  9 active torsions:
  status: ('A' for Active; 'I' for Inactive)
    1  A    between atoms: O_4  and  P_14
    2  A    between atoms: O_4  and  C_29
    3  A    between atoms: P_7  and  O_17
    4  A    between atoms: C_9  and  O_17
    5  A    between atoms: C_9  and  C_24
    6  A    between atoms: C_10  and  C_28
    7  A    between atoms: C_11  and  C_25
    8  A    between atoms: C_12  and  C_32
    9  A    between atoms: N_21  and  C_23
                            x       y       z     vdW  Elec       q    Type
                         _______ _______ _______ _____ _____    ______ ____

>  <TORSDO>
F 9

$$$$
=
 OpenBabel11072410223D

 33 35  0  0  1  0  0  0  0  0999 V2000
  160.2500  210.1440  155.1540 C   0  0  0  0  0  0  0  0  0  0  0  0
  160.8890  207.9960  156.1000 C   0  0  0  0  0  3  0  0  0  0  0  0
  160.4850  209.3170  156.2610 C   0  0  0  0  0  3  0  0  0  0  0  0
  159.8540  211.4990  155.3170 C   0  0  0  0  0  0  0  0  0  0  0  0
  160.2330  210.4420  152.7370 C   0  0  0  0  0  3  0  0  0  0  0  0
  159.6610  212.2890  154.1750 C   0  0  0  0  0  3  0  0  0  0  0  0
  159.8430  211.7670  152.8970 C   0  0  0  0  0  0  0  0  0  0  0  0
  160.4310  209.6060  153.8450 C   0  0  0  0  0  0  0  0  0  0  0  0
  161.0610  207.4720  154.8230 C   0  0  0  0  0  3  0  0  0  0  0  0
  160.8340  208.2510  153.6800 C   0  0  0  0  0  0  0  0  0  0  0  0
  161.0260  207.6070  152.3500 C   0  0  0  0  0  0  0  0  0  0  0  0
  160.8550  206.7560  149.4540 C   0  0  1  0  0  3  0  0  0  0  0  0
  161.1670  205.4930  150.7090 P   0  0  2  0  0  0  0  0  0  0  0  0
  160.8730  206.3200  152.2240 N   0  0  0  0  0  0  0  0  0  0  0  0
  162.6080  205.0340  150.6470 O   0  0  0  0  0  0  0  0  0  0  0  0
  161.4560  208.4500  151.1980 C   0  0  0  0  0  3  0  0  0  0  0  0
  161.4190  208.0670  149.9130 C   0  0  0  0  0  3  0  0  0  0  0  0
  161.9220  206.0540  147.1090 C   0  0  0  0  0  0  0  0  0  0  0  0
  161.4420  206.3690  148.1690 C   0  0  0  0  0  0  0  0  0  0  0  0
  162.2760  204.3490  145.3580 C   0  0  0  0  0  1  0  0  0  0  0  0
  162.4800  205.6880  145.8790 N   0  0  0  0  0  2  0  0  0  0  0  0
  160.1100  204.1810  150.5120 O   0  0  0  0  0  0  0  0  0  0  0  0
  160.6030  203.1110  148.5600 O   0  0  0  0  0  1  0  0  0  0  0  0
  160.5260  201.8380  150.5640 C   0  0  0  0  0  1  0  0  0  0  0  0
  160.8740  203.1680  149.9260 C   0  0  2  0  0  3  0  0  0  0  0  0
  158.3840  212.1520  157.2480 O   0  0  0  0  0  1  0  0  0  0  0  0
  160.5940  212.7030  157.2330 O   0  0  0  0  0  0  0  0  0  0  0  0
  159.6340  212.1430  156.6400 C   0  0  0  0  0  0  0  0  0  0  0  0
  159.6630  212.6390  151.7060 C   0  0  0  0  0  2  0  0  0  0  0  0
  160.6440  212.3490  150.7570 O   0  0  0  0  0  0  0  0  0  0  0  0
  160.4260  213.5120  149.5490 P   0  0  0  0  0  0  0  0  0  0  0  0
  159.0610  213.7110  148.9300 O   0  0  0  0  0  0  0  0  0  0  0  0
  161.5940  214.3560  149.0920 O   0  0  0  0  0  0  0  0  0  0  0  0
  1  4  1  0  0  0  0
  1  3  2  0  0  0  0
  2  3  1  0  0  0  0
  4 28  1  0  0  0  0
  5  7  2  0  0  0  0
  5  8  1  0  0  0  0
  6  4  2  0  0  0  0
  7  6  1  0  0  0  0
  8  1  1  0  0  0  0
  9  2  2  0  0  0  0
 10  8  2  0  0  0  0
 10  9  1  0  0  0  0
 11 10  1  0  0  0  0
 12 19  1  6  0  0  0
 12 17  1  0  0  0  0
 12 13  1  0  0  0  0
 13 15  2  6  0  0  0
 13 14  1  0  0  0  0
 14 11  2  0  0  0  0
 16 11  1  0  0  0  0
 17 16  2  0  0  0  0
 18 19  3  0  0  0  0
 20 21  1  0  0  0  0
 21 18  1  0  0  0  0
 22 13  1  0  0  0  0
 23 25  1  0  0  0  0
 25 22  1  0  0  0  0
 25 24  1  1  0  0  0
 28 27  2  0  0  0  0
 28 26  1  0  0  0  0
 29  7  1  0  0  0  0
 30 29  1  0  0  0  0
 31 30  1  0  0  0  0
 32 31  2  0  0  0  0
 33 31  2  0  0  0  0
M  END
>  <MODEL>
4

>  <REMARK>
 VINA RESULT:      -6.8      3.040      4.551
  Name = 
  9 active torsions:
  status: ('A' for Active; 'I' for Inactive)
    1  A    between atoms: O_4  and  P_14
    2  A    between atoms: O_4  and  C_29
    3  A    between atoms: P_7  and  O_17
    4  A    between atoms: C_9  and  O_17
    5  A    between atoms: C_9  and  C_24
    6  A    between atoms: C_10  and  C_28
    7  A    between atoms: C_11  and  C_25
    8  A    between atoms: C_12  and  C_32
    9  A    between atoms: N_21  and  C_23
                            x       y       z     vdW  Elec       q    Type
                         _______ _______ _______ _____ _____    ______ ____

>  <TORSDO>
F 9

$$$$
=
 OpenBabel11072410223D

 33 35  0  0  1  0  0  0  0  0999 V2000
  160.7990  209.2580  154.6610 C   0  0  0  0  0  0  0  0  0  0  0  0
  160.9070  207.2060  155.9620 C   0  0  0  0  0  3  0  0  0  0  0  0
  160.8270  208.5930  155.8940 C   0  0  0  0  0  3  0  0  0  0  0  0
  160.7340  210.6770  154.5900 C   0  0  0  0  0  0  0  0  0  0  0  0
  160.8610  209.1520  152.2290 C   0  0  0  0  0  3  0  0  0  0  0  0
  160.7380  211.2910  153.3310 C   0  0  0  0  0  3  0  0  0  0  0  0
  160.7960  210.5390  152.1600 C   0  0  0  0  0  0  0  0  0  0  0  0
  160.8520  208.4860  153.4630 C   0  0  0  0  0  0  0  0  0  0  0  0
  160.9550  206.4540  154.7930 C   0  0  0  0  0  3  0  0  0  0  0  0
  160.9220  207.0670  153.5320 C   0  0  0  0  0  0  0  0  0  0  0  0
  160.9610  206.1870  152.3300 C   0  0  0  0  0  0  0  0  0  0  0  0
  161.5520  204.0330  150.2920 C   0  0  1  0  0  3  0  0  0  0  0  0
  161.2750  205.7220  149.7090 P   0  0  2  0  0  0  0  0  0  0  0  0
  161.2940  206.6830  151.1730 N   0  0  0  0  0  0  0  0  0  0  0  0
  159.9220  205.8330  149.0400 O   0  0  0  0  0  0  0  0  0  0  0  0
  160.5500  204.7600  152.4690 C   0  0  0  0  0  3  0  0  0  0  0  0
  160.7740  203.8070  151.5540 C   0  0  0  0  0  3  0  0  0  0  0  0
  160.8410  202.2550  148.4310 C   0  0  0  0  0  0  0  0  0  0  0  0
  161.1630  203.0590  149.2690 C   0  0  0  0  0  0  0  0  0  0  0  0
  160.5750  201.6560  146.0500 C   0  0  0  0  0  1  0  0  0  0  0  0
  160.4670  201.3210  147.4580 N   0  0  0  0  0  2  0  0  0  0  0  0
  162.5100  206.1980  148.6480 O   0  0  0  0  0  0  0  0  0  0  0  0
  162.3310  206.5790  146.4070 O   0  0  0  0  0  1  0  0  0  0  0  0
  162.2230  208.4340  147.8860 C   0  0  0  0  0  1  0  0  0  0  0  0
  161.8850  206.9730  147.6680 C   0  0  2  0  0  3  0  0  0  0  0  0
  161.7180  211.6410  156.6920 O   0  0  0  0  0  1  0  0  0  0  0  0
  159.6410  212.2610  155.9920 O   0  0  0  0  0  0  0  0  0  0  0  0
  160.6690  211.5620  155.7840 C   0  0  0  0  0  0  0  0  0  0  0  0
  160.8310  211.2220  150.8400 C   0  0  0  0  0  2  0  0  0  0  0  0
  162.0000  210.8740  150.1610 O   0  0  0  0  0  0  0  0  0  0  0  0
  162.0170  211.8760  148.8000 P   0  0  0  0  0  0  0  0  0  0  0  0
  163.3320  212.3900  148.2570 O   0  0  0  0  0  0  0  0  0  0  0  0
  160.7200  212.2540  148.1210 O   0  0  0  0  0  0  0  0  0  0  0  0
  1  3  2  0  0  0  0
  3  2  1  0  0  0  0
  4  1  1  0  0  0  0
  4 28  1  0  0  0  0
  5  8  1  0  0  0  0
  6  4  2  0  0  0  0
  7  5  2  0  0  0  0
  7  6  1  0  0  0  0
  8 10  2  0  0  0  0
  8  1  1  0  0  0  0
  9  2  2  0  0  0  0
 10  9  1  0  0  0  0
 11 16  1  0  0  0  0
 11 10  1  0  0  0  0
 12 19  1  6  0  0  0
 12 17  1  0  0  0  0
 13 15  2  6  0  0  0
 13 12  1  0  0  0  0
 13 14  1  0  0  0  0
 14 11  2  0  0  0  0
 17 16  2  0  0  0  0
 18 19  3  0  0  0  0
 20 21  1  0  0  0  0
 21 18  1  0  0  0  0
 22 13  1  0  0  0  0
 23 25  1  0  0  0  0
 25 24  1  1  0  0  0
 25 22  1  0  0  0  0
 28 27  2  0  0  0  0
 28 26  1  0  0  0  0
 29  7  1  0  0  0  0
 30 29  1  0  0  0  0
 31 30  1  0  0  0  0
 32 31  2  0  0  0  0
 33 31  2  0  0  0  0
M  END
>  <MODEL>
5

>  <REMARK>
 VINA RESULT:      -6.2      3.030      4.654
  Name = 
  9 active torsions:
  status: ('A' for Active; 'I' for Inactive)
    1  A    between atoms: O_4  and  P_14
    2  A    between atoms: O_4  and  C_29
    3  A    between atoms: P_7  and  O_17
    4  A    between atoms: C_9  and  O_17
    5  A    between atoms: C_9  and  C_24
    6  A    between atoms: C_10  and  C_28
    7  A    between atoms: C_11  and  C_25
    8  A    between atoms: C_12  and  C_32
    9  A    between atoms: N_21  and  C_23
                            x       y       z     vdW  Elec       q    Type
                         _______ _______ _______ _____ _____    ______ ____

>  <TORSDO>
F 9

$$$$
=
 OpenBabel11072410223D

 33 35  0  0  1  0  0  0  0  0999 V2000
  161.7790  206.4680  148.3740 C   0  0  0  0  0  0  0  0  0  0  0  0
  162.4510  208.7550  147.8860 C   0  0  0  0  0  3  0  0  0  0  0  0
  162.2710  207.4350  147.4860 C   0  0  0  0  0  3  0  0  0  0  0  0
  161.6100  205.1160  147.9710 C   0  0  0  0  0  0  0  0  0  0  0  0
  161.0030  205.8880  150.6080 C   0  0  0  0  0  3  0  0  0  0  0  0
  161.1430  204.1850  148.9090 C   0  0  0  0  0  3  0  0  0  0  0  0
  160.8370  204.5650  150.2130 C   0  0  0  0  0  0  0  0  0  0  0  0
  161.4600  206.8610  149.7080 C   0  0  0  0  0  0  0  0  0  0  0  0
  162.1350  209.1370  149.1860 C   0  0  0  0  0  3  0  0  0  0  0  0
  161.6330  208.2130  150.1150 C   0  0  0  0  0  0  0  0  0  0  0  0
  161.3060  208.7090  151.4810 C   0  0  0  0  0  0  0  0  0  0  0  0
  161.2440  210.1430  154.1420 C   0  0  1  0  0  3  0  0  0  0  0  0
  160.8330  208.3820  154.0980 P   0  0  2  0  0  0  0  0  0  0  0  0
  161.2920  207.8800  152.4860 N   0  0  0  0  0  0  0  0  0  0  0  0
  159.3450  208.1840  154.2930 O   0  0  0  0  0  0  0  0  0  0  0  0
  160.9330  210.1410  151.6570 C   0  0  0  0  0  3  0  0  0  0  0  0
  160.8660  210.7760  152.8360 C   0  0  0  0  0  3  0  0  0  0  0  0
  159.9920  211.3550  156.1660 C   0  0  0  0  0  0  0  0  0  0  0  0
  160.5580  210.8100  155.2510 C   0  0  0  0  0  0  0  0  0  0  0  0
  157.8940  212.1500  157.1950 C   0  0  0  0  0  1  0  0  0  0  0  0
  159.3350  211.9870  157.2260 N   0  0  0  0  0  2  0  0  0  0  0  0
  161.7100  207.5350  155.2780 O   0  0  0  0  0  0  0  0  0  0  0  0
  162.3080  208.4940  157.2580 O   0  0  0  0  0  1  0  0  0  0  0  0
  160.5710  206.8740  157.2610 C   0  0  0  0  0  1  0  0  0  0  0  0
  161.2400  208.0060  156.5070 C   0  0  2  0  0  3  0  0  0  0  0  0
  163.1840  204.7080  146.0540 O   0  0  0  0  0  1  0  0  0  0  0  0
  160.9940  204.1000  145.9070 O   0  0  0  0  0  0  0  0  0  0  0  0
  161.9100  204.6170  146.6020 C   0  0  0  0  0  0  0  0  0  0  0  0
  160.3730  203.5470  151.1930 C   0  0  0  0  0  2  0  0  0  0  0  0
  161.2610  202.4700  151.2090 O   0  0  0  0  0  0  0  0  0  0  0  0
  160.7380  201.4690  149.9510 P   0  0  0  0  0  0  0  0  0  0  0  0
  161.7390  200.6310  149.1870 O   0  0  0  0  0  0  0  0  0  0  0  0
  159.2710  201.4060  149.5940 O   0  0  0  0  0  0  0  0  0  0  0  0
  1  8  1  0  0  0  0
  2  9  1  0  0  0  0
  3  2  2  0  0  0  0
  3  1  1  0  0  0  0
  4  1  2  0  0  0  0
  4  6  1  0  0  0  0
  6  7  2  0  0  0  0
  7  5  1  0  0  0  0
  7 29  1  0  0  0  0
  8 10  1  0  0  0  0
  8  5  2  0  0  0  0
  9 10  2  0  0  0  0
 10 11  1  0  0  0  0
 11 16  1  0  0  0  0
 11 14  2  0  0  0  0
 12 19  1  1  0  0  0
 13 12  1  0  0  0  0
 13 15  2  1  0  0  0
 13 22  1  0  0  0  0
 14 13  1  0  0  0  0
 16 17  2  0  0  0  0
 17 12  1  0  0  0  0
 18 21  1  0  0  0  0
 19 18  3  0  0  0  0
 20 21  1  0  0  0  0
 22 25  1  0  0  0  0
 25 23  1  0  0  0  0
 25 24  1  1  0  0  0
 26 28  1  0  0  0  0
 27 28  2  0  0  0  0
 28  4  1  0  0  0  0
 29 30  1  0  0  0  0
 31 30  1  0  0  0  0
 32 31  2  0  0  0  0
 33 31  2  0  0  0  0
M  END
>  <MODEL>
6

>  <REMARK>
 VINA RESULT:      -5.6      3.985      9.466
  Name = 
  9 active torsions:
  status: ('A' for Active; 'I' for Inactive)
    1  A    between atoms: O_4  and  P_14
    2  A    between atoms: O_4  and  C_29
    3  A    between atoms: P_7  and  O_17
    4  A    between atoms: C_9  and  O_17
    5  A    between atoms: C_9  and  C_24
    6  A    between atoms: C_10  and  C_28
    7  A    between atoms: C_11  and  C_25
    8  A    between atoms: C_12  and  C_32
    9  A    between atoms: N_21  and  C_23
                            x       y       z     vdW  Elec       q    Type
                         _______ _______ _______ _____ _____    ______ ____

>  <TORSDO>
F 9

$$$$
=
 OpenBabel11072410223D

 33 35  0  0  1  0  0  0  0  0999 V2000
  161.1860  204.3260  147.5970 C   0  0  0  0  0  0  0  0  0  0  0  0
  161.2920  206.1970  146.0470 C   0  0  0  0  0  3  0  0  0  0  0  0
  161.2180  204.8300  146.2900 C   0  0  0  0  0  3  0  0  0  0  0  0
  161.1280  202.9270  147.8460 C   0  0  0  0  0  0  0  0  0  0  0  0
  161.2340  204.7390  149.9960 C   0  0  0  0  0  3  0  0  0  0  0  0
  161.1280  202.4770  149.1730 C   0  0  0  0  0  3  0  0  0  0  0  0
  161.1750  203.3710  150.2390 C   0  0  0  0  0  0  0  0  0  0  0  0
  161.2280  205.2440  148.6880 C   0  0  0  0  0  0  0  0  0  0  0  0
  161.3290  207.0920  147.1130 C   0  0  0  0  0  3  0  0  0  0  0  0
  161.2920  206.6430  148.4410 C   0  0  0  0  0  0  0  0  0  0  0  0
  161.3190  207.6680  149.5220 C   0  0  0  0  0  0  0  0  0  0  0  0
  160.6320  209.6540  151.6960 C   0  0  1  0  0  3  0  0  0  0  0  0
  161.9550  210.0670  150.5340 P   0  0  2  0  0  0  0  0  0  0  0  0
  161.8170  208.8480  149.2840 N   0  0  0  0  0  0  0  0  0  0  0  0
  163.3030  209.9560  151.2120 O   0  0  0  0  0  0  0  0  0  0  0  0
  160.8320  207.2940  150.8800 C   0  0  0  0  0  3  0  0  0  0  0  0
  160.5610  208.1650  151.8630 C   0  0  0  0  0  3  0  0  0  0  0  0
  161.0340  210.8350  154.0570 C   0  0  0  0  0  0  0  0  0  0  0  0
  160.8530  210.3040  152.9900 C   0  0  0  0  0  0  0  0  0  0  0  0
  162.0510  210.7960  156.3070 C   0  0  0  0  0  1  0  0  0  0  0  0
  161.2440  211.4510  155.2950 N   0  0  0  0  0  2  0  0  0  0  0  0
  161.7280  211.6240  149.9000 O   0  0  0  0  0  0  0  0  0  0  0  0
  163.2480  211.9190  148.2260 O   0  0  0  0  0  1  0  0  0  0  0  0
  160.9610  212.3760  147.7770 C   0  0  0  0  0  1  0  0  0  0  0  0
  161.9500  211.5070  148.5260 C   0  0  2  0  0  3  0  0  0  0  0  0
  160.8320  202.2370  145.4480 O   0  0  0  0  0  0  0  0  0  0  0  0
  161.2450  200.6820  147.0600 O   0  0  0  0  0  1  0  0  0  0  0  0
  161.0740  201.8970  146.7740 C   0  0  0  0  0  0  0  0  0  0  0  0
  161.2060  202.8610  151.6360 C   0  0  0  0  0  2  0  0  0  0  0  0
  160.3460  203.6180  152.4330 O   0  0  0  0  0  0  0  0  0  0  0  0
  161.3280  204.8290  153.0880 P   0  0  0  0  0  0  0  0  0  0  0  0
  160.8310  205.6570  154.2510 O   0  0  0  0  0  0  0  0  0  0  0  0
  162.7040  205.0800  152.5160 O   0  0  0  0  0  0  0  0  0  0  0  0
  1  4  2  0  0  0  0
  1  8  1  0  0  0  0
  2  3  2  0  0  0  0
  2  9  1  0  0  0  0
  3  1  1  0  0  0  0
  4  6  1  0  0  0  0
  5  7  1  0  0  0  0
  6  7  2  0  0  0  0
  7 29  1  0  0  0  0
  8  5  2  0  0  0  0
  9 10  2  0  0  0  0
 10  8  1  0  0  0  0
 10 11  1  0  0  0  0
 11 16  1  0  0  0  0
 12 17  1  0  0  0  0
 12 19  1  1  0  0  0
 13 15  2  1  0  0  0
 13 12  1  0  0  0  0
 14 11  2  0  0  0  0
 14 13  1  0  0  0  0
 16 17  2  0  0  0  0
 18 21  1  0  0  0  0
 19 18  3  0  0  0  0
 21 20  1  0  0  0  0
 22 13  1  0  0  0  0
 23 25  1  0  0  0  0
 25 24  1  6  0  0  0
 25 22  1  0  0  0  0
 26 28  2  0  0  0  0
 28 27  1  0  0  0  0
 28  4  1  0  0  0  0
 29 30  1  0  0  0  0
 30 31  1  0  0  0  0
 31 32  2  0  0  0  0
 33 31  2  0  0  0  0
M  END
>  <MODEL>
7

>  <REMARK>
 VINA RESULT:      -5.5      3.010      8.495
  Name = 
  9 active torsions:
  status: ('A' for Active; 'I' for Inactive)
    1  A    between atoms: O_4  and  P_14
    2  A    between atoms: O_4  and  C_29
    3  A    between atoms: P_7  and  O_17
    4  A    between atoms: C_9  and  O_17
    5  A    between atoms: C_9  and  C_24
    6  A    between atoms: C_10  and  C_28
    7  A    between atoms: C_11  and  C_25
    8  A    between atoms: C_12  and  C_32
    9  A    between atoms: N_21  and  C_23
                            x       y       z     vdW  Elec       q    Type
                         _______ _______ _______ _____ _____    ______ ____

>  <TORSDO>
F 9

$$$$
=
 OpenBabel11072410223D

 33 35  0  0  1  0  0  0  0  0999 V2000
  161.1540  203.0510  146.4340 C   0  0  0  0  0  0  0  0  0  0  0  0
  161.8110  204.7710  144.8450 C   0  0  0  0  0  3  0  0  0  0  0  0
  161.4680  203.4540  145.1290 C   0  0  0  0  0  3  0  0  0  0  0  0
  160.8200  201.7010  146.7290 C   0  0  0  0  0  0  0  0  0  0  0  0
  160.9130  203.6130  148.7920 C   0  0  0  0  0  3  0  0  0  0  0  0
  160.5440  201.3480  148.0570 C   0  0  0  0  0  3  0  0  0  0  0  0
  160.5840  202.2930  149.0790 C   0  0  0  0  0  0  0  0  0  0  0  0
  161.1900  204.0220  147.4790 C   0  0  0  0  0  0  0  0  0  0  0  0
  161.8420  205.7170  145.8640 C   0  0  0  0  0  3  0  0  0  0  0  0
  161.5310  205.3720  147.1870 C   0  0  0  0  0  0  0  0  0  0  0  0
  161.5720  206.4500  148.2150 C   0  0  0  0  0  0  0  0  0  0  0  0
  160.9550  208.4090  150.4340 C   0  0  1  0  0  3  0  0  0  0  0  0
  161.9260  208.9810  149.0200 P   0  0  2  0  0  0  0  0  0  0  0  0
  161.7810  207.6830  147.8540 N   0  0  0  0  0  0  0  0  0  0  0  0
  163.3760  209.1580  149.4140 O   0  0  0  0  0  0  0  0  0  0  0  0
  161.4360  206.0790  149.6530 C   0  0  0  0  0  3  0  0  0  0  0  0
  161.2010  206.9450  150.6480 C   0  0  0  0  0  3  0  0  0  0  0  0
  161.5760  209.7940  152.6300 C   0  0  0  0  0  0  0  0  0  0  0  0
  161.2960  209.1670  151.6400 C   0  0  0  0  0  0  0  0  0  0  0  0
  160.8780  211.2720  154.4810 C   0  0  0  0  0  1  0  0  0  0  0  0
  161.9030  210.5230  153.7800 N   0  0  0  0  0  2  0  0  0  0  0  0
  161.2910  210.4300  148.4070 O   0  0  0  0  0  0  0  0  0  0  0  0
  161.2640  212.3000  149.7110 O   0  0  0  0  0  1  0  0  0  0  0  0
  162.7390  212.2350  147.8500 C   0  0  0  0  0  1  0  0  0  0  0  0
  162.0720  211.4480  148.9600 C   0  0  2  0  0  3  0  0  0  0  0  0
  159.9430  200.7390  144.5800 O   0  0  0  0  0  0  0  0  0  0  0  0
  161.4300  199.5730  145.8520 O   0  0  0  0  0  1  0  0  0  0  0  0
  160.7500  200.6240  145.7060 C   0  0  0  0  0  0  0  0  0  0  0  0
  160.3180  201.8800  150.4830 C   0  0  0  0  0  2  0  0  0  0  0  0
  159.8980  202.9840  151.2260 O   0  0  0  0  0  0  0  0  0  0  0  0
  161.2430  203.4090  152.1570 P   0  0  0  0  0  0  0  0  0  0  0  0
  162.5140  202.5940  152.0630 O   0  0  0  0  0  0  0  0  0  0  0  0
  161.1790  204.6050  153.0790 O   0  0  0  0  0  0  0  0  0  0  0  0
  1  4  2  0  0  0  0
  1  8  1  0  0  0  0
  2  3  2  0  0  0  0
  2  9  1  0  0  0  0
  3  1  1  0  0  0  0
  4  6  1  0  0  0  0
  5  7  1  0  0  0  0
  6  7  2  0  0  0  0
  7 29  1  0  0  0  0
  8  5  2  0  0  0  0
  9 10  2  0  0  0  0
 10  8  1  0  0  0  0
 10 11  1  0  0  0  0
 11 16  1  0  0  0  0
 12 17  1  0  0  0  0
 12 19  1  1  0  0  0
 13 15  2  1  0  0  0
 13 12  1  0  0  0  0
 14 11  2  0  0  0  0
 14 13  1  0  0  0  0
 16 17  2  0  0  0  0
 18 21  1  0  0  0  0
 19 18  3  0  0  0  0
 21 20  1  0  0  0  0
 22 25  1  0  0  0  0
 22 13  1  0  0  0  0
 25 24  1  6  0  0  0
 25 23  1  0  0  0  0
 26 28  2  0  0  0  0
 28 27  1  0  0  0  0
 28  4  1  0  0  0  0
 29 30  1  0  0  0  0
 30 31  1  0  0  0  0
 31 33  2  0  0  0  0
 32 31  2  0  0  0  0
M  END
>  <MODEL>
8

>  <REMARK>
 VINA RESULT:      -5.4      2.870      8.541
  Name = 
  9 active torsions:
  status: ('A' for Active; 'I' for Inactive)
    1  A    between atoms: O_4  and  P_14
    2  A    between atoms: O_4  and  C_29
    3  A    between atoms: P_7  and  O_17
    4  A    between atoms: C_9  and  O_17
    5  A    between atoms: C_9  and  C_24
    6  A    between atoms: C_10  and  C_28
    7  A    between atoms: C_11  and  C_25
    8  A    between atoms: C_12  and  C_32
    9  A    between atoms: N_21  and  C_23
                            x       y       z     vdW  Elec       q    Type
                         _______ _______ _______ _____ _____    ______ ____

>  <TORSDO>
F 9

$$$$
=
 OpenBabel11072410223D

 33 35  0  0  1  0  0  0  0  0999 V2000
  161.6720  209.3850  151.4630 C   0  0  0  0  0  0  0  0  0  0  0  0
  162.1590  210.5980  149.4120 C   0  0  0  0  0  3  0  0  0  0  0  0
  162.0030  210.5710  150.7930 C   0  0  0  0  0  3  0  0  0  0  0  0
  161.4950  209.3590  152.8730 C   0  0  0  0  0  0  0  0  0  0  0  0
  161.1290  207.0130  151.3640 C   0  0  0  0  0  3  0  0  0  0  0  0
  161.1350  208.1520  153.4870 C   0  0  0  0  0  3  0  0  0  0  0  0
  160.9580  206.9880  152.7440 C   0  0  0  0  0  0  0  0  0  0  0  0
  161.4970  208.1920  150.7000 C   0  0  0  0  0  0  0  0  0  0  0  0
  161.9920  209.4330  148.6700 C   0  0  0  0  0  3  0  0  0  0  0  0
  161.6680  208.2160  149.2880 C   0  0  0  0  0  0  0  0  0  0  0  0
  161.5240  207.0130  148.4220 C   0  0  0  0  0  0  0  0  0  0  0  0
  161.8550  204.3560  147.0170 C   0  0  1  0  0  3  0  0  0  0  0  0
  161.2880  205.7780  146.0550 P   0  0  2  0  0  0  0  0  0  0  0  0
  161.5370  207.1410  147.1260 N   0  0  0  0  0  0  0  0  0  0  0  0
  159.8150  205.6410  145.7340 O   0  0  0  0  0  0  0  0  0  0  0  0
  161.3000  205.6860  149.0650 C   0  0  0  0  0  3  0  0  0  0  0  0
  161.4070  204.5050  148.4400 C   0  0  0  0  0  3  0  0  0  0  0  0
  160.9230  202.0800  145.9780 C   0  0  0  0  0  0  0  0  0  0  0  0
  161.3460  203.1060  146.4480 C   0  0  0  0  0  0  0  0  0  0  0  0
  161.0380  199.6200  145.7930 C   0  0  0  0  0  1  0  0  0  0  0  0
  160.4320  200.8880  145.4330 N   0  0  0  0  0  2  0  0  0  0  0  0
  162.1990  205.9400  144.6340 O   0  0  0  0  0  0  0  0  0  0  0  0
  160.7750  204.5210  143.5580 O   0  0  0  0  0  1  0  0  0  0  0  0
  161.9800  206.1120  142.2700 C   0  0  0  0  0  1  0  0  0  0  0  0
  161.2850  205.8180  143.5840 C   0  0  2  0  0  3  0  0  0  0  0  0
  160.7420  211.5920  153.7480 O   0  0  0  0  0  0  0  0  0  0  0  0
  162.6610  210.6320  154.5130 O   0  0  0  0  0  1  0  0  0  0  0  0
  161.6630  210.5500  153.7490 C   0  0  0  0  0  0  0  0  0  0  0  0
  160.5450  205.7300  153.4210 C   0  0  0  0  0  2  0  0  0  0  0  0
  161.5810  204.7980  153.3540 O   0  0  0  0  0  0  0  0  0  0  0  0
  161.0560  203.6580  152.2200 P   0  0  0  0  0  0  0  0  0  0  0  0
  159.7430  203.8620  151.4980 O   0  0  0  0  0  0  0  0  0  0  0  0
  161.9000  202.4400  151.9250 O   0  0  0  0  0  0  0  0  0  0  0  0
  1  4  1  0  0  0  0
  2  3  1  0  0  0  0
  3  1  2  0  0  0  0
  4  6  2  0  0  0  0
  4 28  1  0  0  0  0
  5  7  2  0  0  0  0
  7 29  1  0  0  0  0
  7  6  1  0  0  0  0
  8  5  1  0  0  0  0
  8  1  1  0  0  0  0
  9 10  1  0  0  0  0
  9  2  2  0  0  0  0
 10  8  2  0  0  0  0
 11 16  1  0  0  0  0
 11 10  1  0  0  0  0
 12 19  1  6  0  0  0
 12 17  1  0  0  0  0
 13 15  2  6  0  0  0
 13 12  1  0  0  0  0
 13 14  1  0  0  0  0
 14 11  2  0  0  0  0
 17 16  2  0  0  0  0
 18 19  3  0  0  0  0
 21 20  1  0  0  0  0
 21 18  1  0  0  0  0
 22 13  1  0  0  0  0
 23 25  1  0  0  0  0
 25 24  1  6  0  0  0
 25 22  1  0  0  0  0
 26 28  2  0  0  0  0
 28 27  1  0  0  0  0
 30 29  1  0  0  0  0
 31 30  1  0  0  0  0
 32 31  2  0  0  0  0
 33 31  2  0  0  0  0
M  END
>  <MODEL>
9

>  <REMARK>
 VINA RESULT:      -5.2      2.889      5.152
  Name = 
  9 active torsions:
  status: ('A' for Active; 'I' for Inactive)
    1  A    between atoms: O_4  and  P_14
    2  A    between atoms: O_4  and  C_29
    3  A    between atoms: P_7  and  O_17
    4  A    between atoms: C_9  and  O_17
    5  A    between atoms: C_9  and  C_24
    6  A    between atoms: C_10  and  C_28
    7  A    between atoms: C_11  and  C_25
    8  A    between atoms: C_12  and  C_32
    9  A    between atoms: N_21  and  C_23
                            x       y       z     vdW  Elec       q    Type
                         _______ _______ _______ _____ _____    ______ ____

>  <TORSDO>
F 9

$$$$
