=
 OpenBabel11072410403D

 50 56  0  0  1  0  0  0  0  0999 V2000
  161.3170  209.7900  153.0670 C   0  0  0  0  0  0  0  0  0  0  0  0
  159.5200  210.4640  154.5360 C   0  0  0  0  0  3  0  0  0  0  0  0
  159.8530  211.6370  152.4350 C   0  0  0  0  0  0  0  0  0  0  0  0
  162.4130  209.0070  152.7370 O   0  0  0  0  0  1  0  0  0  0  0  0
  160.9160  210.7690  152.1670 C   0  0  0  0  0  3  0  0  0  0  0  0
  159.1410  211.4920  153.6600 C   0  0  0  0  0  0  0  0  0  0  0  0
  160.6020  209.6170  154.2720 C   0  0  0  0  0  0  0  0  0  0  0  0
  161.0130  214.4530  145.7830 O   0  0  0  0  0  0  0  0  0  0  0  0
  160.5830  213.0560  150.3920 C   0  0  1  0  0  3  0  0  0  0  0  0
  158.7600  214.4530  150.6240 O   0  0  0  0  0  0  0  0  0  0  0  0
  158.5990  213.5610  151.6190 O   0  0  0  0  0  0  0  0  0  0  0  0
  160.5000  212.9080  148.1860 C   0  0  0  0  0  0  0  0  0  0  0  0
  160.6940  212.4130  146.8610 N   0  0  0  0  0  2  0  0  0  0  0  0
  159.4710  212.4900  151.2540 C   0  0  2  0  0  3  0  0  0  0  0  0
  159.6970  214.0400  148.4940 N   0  0  0  0  0  0  0  0  0  0  0  0
  160.7200  213.2380  145.6960 C   0  0  0  0  0  0  0  0  0  0  0  0
  160.3630  212.6720  144.3670 C   0  0  0  0  0  1  0  0  0  0  0  0
  160.9400  212.2600  149.2290 N   0  0  0  0  0  0  0  0  0  0  0  0
  159.7680  214.0730  149.7850 C   0  0  0  0  0  0  0  0  0  0  0  0
  155.6880  212.5780  154.7250 C   0  0  0  0  0  3  0  0  0  0  0  0
  158.3190  213.4950  154.9050 C   0  0  0  0  0  3  0  0  0  0  0  0
  154.9820  214.2940  156.2590 O   0  0  0  0  0  1  0  0  0  0  0  0
  158.0380  212.3700  154.1090 C   0  0  0  0  0  0  0  0  0  0  0  0
  155.9930  213.6520  155.5550 C   0  0  0  0  0  0  0  0  0  0  0  0
  157.2960  214.1510  155.5980 C   0  0  0  0  0  3  0  0  0  0  0  0
  156.7080  211.9250  154.0310 C   0  0  0  0  0  3  0  0  0  0  0  0
  160.8130  208.4360  155.1960 C   0  0  1  0  0  3  0  0  0  0  0  0
  159.6310  207.9780  155.7890 O   0  0  0  0  0  1  0  0  0  0  0  0
  161.5600  207.2640  154.5730 C   0  0  0  0  0  2  0  0  0  0  0  0
  160.5590  206.5120  153.7170 C   0  0  0  0  0  2  0  0  0  0  0  0
  161.1810  205.3490  152.9580 C   0  0  0  0  0  2  0  0  0  0  0  0
  160.6020  205.1890  151.5490 C   0  0  2  0  0  3  0  0  0  0  0  0
  162.7220  206.6060  150.7890 C   0  0  0  0  0  2  0  0  0  0  0  0
  160.7610  203.5540  149.8640 F   0  0  0  0  0  0  0  0  0  0  0  0
  162.6430  207.9370  150.0430 C   0  0  0  0  0  2  0  0  0  0  0  0
  161.5380  204.2950  150.7400 C   0  0  1  0  0  3  0  0  0  0  0  0
  161.7530  206.3510  148.2460 C   0  0  2  0  0  3  0  0  0  0  0  0
  161.4680  205.7750  150.4330 C   0  0  1  0  0  0  0  0  0  0  0  0
  160.7750  206.0700  149.2340 O   0  0  0  0  0  0  0  0  0  0  0  0
  162.4030  207.7150  148.5370 C   0  0  0  0  0  2  0  0  0  0  0  0
  159.8270  205.9130  146.8760 O   0  0  0  0  0  1  0  0  0  0  0  0
  161.1680  206.3190  146.8340 C   0  0  2  0  0  3  0  0  0  0  0  0
  163.3080  205.0050  146.5810 C   0  0  0  0  0  1  0  0  0  0  0  0
  161.9670  205.3540  145.9390 C   0  0  1  0  0  3  0  0  0  0  0  0
  161.3840  202.9550  146.4070 C   0  0  0  0  0  3  0  0  0  0  0  0
  160.6810  201.7990  146.0610 C   0  0  0  0  0  3  0  0  0  0  0  0
  159.6960  202.9230  144.2300 C   0  0  0  0  0  3  0  0  0  0  0  0
  159.8400  201.8110  144.9870 N   0  0  0  0  0  0  0  0  0  0  0  0
  161.2100  204.1060  145.6200 C   0  0  0  0  0  0  0  0  0  0  0  0
  160.3820  204.0580  144.5370 N   0  0  0  0  0  0  0  0  0  0  0  0
  1  7  1  0  0  0  0
  3  6  2  0  0  0  0
  4  1  1  0  0  0  0
  5  3  1  0  0  0  0
  5  1  2  0  0  0  0
  6 23  1  0  0  0  0
  6  2  1  0  0  0  0
  7  2  2  0  0  0  0
  7 27  1  0  0  0  0
  9 18  1  6  0  0  0
  9 14  1  0  0  0  0
 10 11  1  0  0  0  0
 12 15  1  0  0  0  0
 12 18  2  0  0  0  0
 13 12  1  0  0  0  0
 14 11  1  0  0  0  0
 14  3  1  1  0  0  0
 15 19  2  0  0  0  0
 16  8  2  0  0  0  0
 16 13  1  0  0  0  0
 17 16  1  0  0  0  0
 19  9  1  0  0  0  0
 19 10  1  0  0  0  0
 20 24  1  0  0  0  0
 21 25  1  0  0  0  0
 23 21  2  0  0  0  0
 24 25  2  0  0  0  0
 24 22  1  0  0  0  0
 26 23  1  0  0  0  0
 26 20  2  0  0  0  0
 27 28  1  6  0  0  0
 29 27  1  0  0  0  0
 30 29  1  0  0  0  0
 31 30  1  0  0  0  0
 32 31  1  1  0  0  0
 35 33  1  0  0  0  0
 36 34  1  6  0  0  0
 36 32  1  0  0  0  0
 37 42  1  6  0  0  0
 37 40  1  0  0  0  0
 37 39  1  0  0  0  0
 38 36  1  0  0  0  0
 38 33  1  1  0  0  0
 38 32  1  0  0  0  0
 39 38  1  0  0  0  0
 40 35  1  0  0  0  0
 42 41  1  1  0  0  0
 44 43  1  1  0  0  0
 44 42  1  0  0  0  0
 46 45  1  0  0  0  0
 47 50  2  0  0  0  0
 47 48  1  0  0  0  0
 48 46  2  0  0  0  0
 49 44  1  0  0  0  0
 49 45  2  0  0  0  0
 50 49  1  0  0  0  0
M  END
>  <MODEL>
1

>  <REMARK>
 VINA RESULT:      -8.0      0.000      0.000
  Name = 
  10 active torsions:
  status: ('A' for Active; 'I' for Inactive)
    1  A    between atoms: C_1  and  C_12
    2  A    between atoms: C_6  and  C_35
    3  A    between atoms: C_12  and  C_24
    4  A    between atoms: C_16  and  C_28
    5  A    between atoms: C_16  and  C_32
    6  A    between atoms: C_17  and  C_28
    7  A    between atoms: C_18  and  C_27
    8  A    between atoms: C_18  and  C_50
    9  A    between atoms: C_24  and  C_50
   10  A    between atoms: C_25  and  C_42
                            x       y       z     vdW  Elec       q    Type
                         _______ _______ _______ _____ _____    ______ ____

>  <TORSDO>
F 10

$$$$
=
 OpenBabel11072410403D

 50 56  0  0  1  0  0  0  0  0999 V2000
  160.9630  207.3440  153.8930 C   0  0  0  0  0  0  0  0  0  0  0  0
  160.8510  208.3460  151.6960 C   0  0  0  0  0  3  0  0  0  0  0  0
  161.4510  206.0030  151.9150 C   0  0  0  0  0  0  0  0  0  0  0  0
  160.8770  207.3920  155.2760 O   0  0  0  0  0  1  0  0  0  0  0  0
  161.2930  206.1340  153.2980 C   0  0  0  0  0  3  0  0  0  0  0  0
  161.2370  207.1420  151.0880 C   0  0  0  0  0  0  0  0  0  0  0  0
  160.7210  208.4760  153.0840 C   0  0  0  0  0  0  0  0  0  0  0  0
  159.9400  200.2950  147.5940 O   0  0  0  0  0  0  0  0  0  0  0  0
  160.4550  203.8940  150.7830 C   0  0  1  0  0  3  0  0  0  0  0  0
  161.7070  202.4960  152.1270 O   0  0  0  0  0  0  0  0  0  0  0  0
  162.0740  203.7270  152.5290 O   0  0  0  0  0  0  0  0  0  0  0  0
  160.7450  202.7560  148.9070 C   0  0  0  0  0  0  0  0  0  0  0  0
  160.8200  202.4500  147.5150 N   0  0  0  0  0  2  0  0  0  0  0  0
  161.6230  204.5740  151.4700 C   0  0  2  0  0  3  0  0  0  0  0  0
  161.1140  201.8440  149.9340 N   0  0  0  0  0  0  0  0  0  0  0  0
  160.6150  201.1450  146.9710 C   0  0  0  0  0  0  0  0  0  0  0  0
  161.2340  200.7680  145.6710 C   0  0  0  0  0  1  0  0  0  0  0  0
  160.4620  203.9560  149.3300 N   0  0  0  0  0  0  0  0  0  0  0  0
  160.9410  202.5580  150.9990 C   0  0  0  0  0  0  0  0  0  0  0  0
  162.9720  207.0930  147.7380 C   0  0  0  0  0  3  0  0  0  0  0  0
  160.4120  206.6880  148.7750 C   0  0  0  0  0  3  0  0  0  0  0  0
  162.2400  206.2650  145.5990 O   0  0  0  0  0  1  0  0  0  0  0  0
  161.4250  207.1730  149.6210 C   0  0  0  0  0  0  0  0  0  0  0  0
  161.9730  206.5570  146.9310 C   0  0  0  0  0  0  0  0  0  0  0  0
  160.6770  206.4120  147.4300 C   0  0  0  0  0  3  0  0  0  0  0  0
  162.7060  207.3710  149.0800 C   0  0  0  0  0  3  0  0  0  0  0  0
  160.1310  209.7640  153.6170 C   0  0  1  0  0  3  0  0  0  0  0  0
  160.4100  209.9830  154.9710 O   0  0  0  0  0  1  0  0  0  0  0  0
  160.4850  211.0090  152.8130 C   0  0  0  0  0  2  0  0  0  0  0  0
  159.8360  212.1840  153.5180 C   0  0  0  0  0  2  0  0  0  0  0  0
  159.0120  213.0570  152.5830 C   0  0  0  0  0  2  0  0  0  0  0  0
  159.5180  213.0130  151.1380 C   0  0  2  0  0  3  0  0  0  0  0  0
  157.2370  214.2560  150.5650 C   0  0  0  0  0  2  0  0  0  0  0  0
  160.9040  214.3850  149.8210 F   0  0  0  0  0  0  0  0  0  0  0  0
  156.1830  213.7150  149.6000 C   0  0  0  0  0  2  0  0  0  0  0  0
  159.8250  214.4390  150.6890 C   0  0  1  0  0  3  0  0  0  0  0  0
  158.0840  214.2210  147.9660 C   0  0  2  0  0  3  0  0  0  0  0  0
  158.6190  213.7200  150.1240 C   0  0  1  0  0  0  0  0  0  0  0  0
  158.7890  213.3010  148.7830 O   0  0  0  0  0  0  0  0  0  0  0  0
  156.5690  214.0060  148.1370 C   0  0  0  0  0  2  0  0  0  0  0  0
  157.3630  214.2820  145.6740 O   0  0  0  0  0  1  0  0  0  0  0  0
  158.4850  214.1070  146.4960 C   0  0  2  0  0  3  0  0  0  0  0  0
  159.0200  212.3870  144.7270 C   0  0  0  0  0  1  0  0  0  0  0  0
  159.1170  212.7320  146.2120 C   0  0  1  0  0  3  0  0  0  0  0  0
  161.5410  213.3520  145.9810 C   0  0  0  0  0  3  0  0  0  0  0  0
  162.8610  213.2250  146.4190 C   0  0  0  0  0  3  0  0  0  0  0  0
  162.1720  211.7570  148.1370 C   0  0  0  0  0  3  0  0  0  0  0  0
  163.1480  212.4420  147.4970 N   0  0  0  0  0  0  0  0  0  0  0  0
  160.5370  212.6470  146.6670 C   0  0  0  0  0  0  0  0  0  0  0  0
  160.8790  211.8500  147.7210 N   0  0  0  0  0  0  0  0  0  0  0  0
  1  4  1  0  0  0  0
  2  7  1  0  0  0  0
  3  5  2  0  0  0  0
  5  1  1  0  0  0  0
  6  2  2  0  0  0  0
  6  3  1  0  0  0  0
  7 27  1  0  0  0  0
  7  1  2  0  0  0  0
  9 18  1  6  0  0  0
  9 19  1  0  0  0  0
  9 14  1  0  0  0  0
 10 11  1  0  0  0  0
 12 18  2  0  0  0  0
 12 15  1  0  0  0  0
 13 12  1  0  0  0  0
 14  3  1  1  0  0  0
 14 11  1  0  0  0  0
 15 19  2  0  0  0  0
 16 13  1  0  0  0  0
 16  8  2  0  0  0  0
 17 16  1  0  0  0  0
 19 10  1  0  0  0  0
 20 26  1  0  0  0  0
 21 23  1  0  0  0  0
 22 24  1  0  0  0  0
 23  6  1  0  0  0  0
 24 25  1  0  0  0  0
 24 20  2  0  0  0  0
 25 21  2  0  0  0  0
 26 23  2  0  0  0  0
 27 28  1  1  0  0  0
 29 30  1  0  0  0  0
 29 27  1  0  0  0  0
 31 30  1  0  0  0  0
 32 31  1  1  0  0  0
 35 33  1  0  0  0  0
 36 34  1  6  0  0  0
 36 32  1  0  0  0  0
 37 42  1  6  0  0  0
 37 40  1  0  0  0  0
 37 39  1  0  0  0  0
 38 33  1  1  0  0  0
 38 36  1  0  0  0  0
 38 32  1  0  0  0  0
 39 38  1  0  0  0  0
 40 35  1  0  0  0  0
 42 41  1  6  0  0  0
 44 43  1  6  0  0  0
 44 42  1  0  0  0  0
 44 49  1  0  0  0  0
 45 46  2  0  0  0  0
 45 49  1  0  0  0  0
 46 48  1  0  0  0  0
 48 47  2  0  0  0  0
 49 50  2  0  0  0  0
 50 47  1  0  0  0  0
M  END
>  <MODEL>
2

>  <REMARK>
 VINA RESULT:      -7.6      2.794      9.209
  Name = 
  10 active torsions:
  status: ('A' for Active; 'I' for Inactive)
    1  A    between atoms: C_1  and  C_12
    2  A    between atoms: C_6  and  C_35
    3  A    between atoms: C_12  and  C_24
    4  A    between atoms: C_16  and  C_28
    5  A    between atoms: C_16  and  C_32
    6  A    between atoms: C_17  and  C_28
    7  A    between atoms: C_18  and  C_27
    8  A    between atoms: C_18  and  C_50
    9  A    between atoms: C_24  and  C_50
   10  A    between atoms: C_25  and  C_42
                            x       y       z     vdW  Elec       q    Type
                         _______ _______ _______ _____ _____    ______ ____

>  <TORSDO>
F 10

$$$$
=
 OpenBabel11072410403D

 50 56  0  0  1  0  0  0  0  0999 V2000
  160.8330  213.1320  150.1400 C   0  0  0  0  0  0  0  0  0  0  0  0
  161.5570  210.8690  149.6980 C   0  0  0  0  0  3  0  0  0  0  0  0
  160.7930  211.4690  151.9240 C   0  0  0  0  0  0  0  0  0  0  0  0
  160.6030  214.4480  149.7690 O   0  0  0  0  0  1  0  0  0  0  0  0
  160.5480  212.7600  151.4470 C   0  0  0  0  0  3  0  0  0  0  0  0
  161.3250  210.4960  151.0310 C   0  0  0  0  0  0  0  0  0  0  0  0
  161.3340  212.1710  149.2350 C   0  0  0  0  0  0  0  0  0  0  0  0
  155.5090  211.7890  156.9740 O   0  0  0  0  0  0  0  0  0  0  0  0
  159.1410  212.1500  153.8030 C   0  0  1  0  0  3  0  0  0  0  0  0
  160.6130  211.4610  155.4420 O   0  0  0  0  0  0  0  0  0  0  0  0
  161.2670  211.1840  154.2990 O   0  0  0  0  0  0  0  0  0  0  0  0
  157.3170  211.3300  154.7500 C   0  0  0  0  0  0  0  0  0  0  0  0
  155.9900  210.8290  154.9070 N   0  0  0  0  0  2  0  0  0  0  0  0
  160.2410  211.2320  153.3060 C   0  0  2  0  0  3  0  0  0  0  0  0
  158.2790  211.3520  155.7980 N   0  0  0  0  0  0  0  0  0  0  0  0
  155.2430  210.9100  156.1220 C   0  0  0  0  0  0  0  0  0  0  0  0
  154.1630  209.9270  156.4070 C   0  0  0  0  0  1  0  0  0  0  0  0
  157.7840  211.6760  153.5830 N   0  0  0  0  0  0  0  0  0  0  0  0
  159.3210  211.8220  155.1910 C   0  0  0  0  0  0  0  0  0  0  0  0
  161.1800  207.1280  152.7250 C   0  0  0  0  0  3  0  0  0  0  0  0
  162.3580  208.2910  150.4760 C   0  0  0  0  0  3  0  0  0  0  0  0
  161.8510  204.9480  151.9530 O   0  0  0  0  0  1  0  0  0  0  0  0
  161.6920  209.1130  151.4030 C   0  0  0  0  0  0  0  0  0  0  0  0
  161.7900  206.3240  151.7670 C   0  0  0  0  0  0  0  0  0  0  0  0
  162.4340  206.9080  150.6740 C   0  0  0  0  0  3  0  0  0  0  0  0
  161.1080  208.5080  152.5290 C   0  0  0  0  0  3  0  0  0  0  0  0
  161.4500  212.4170  147.7460 C   0  0  1  0  0  3  0  0  0  0  0  0
  162.7630  212.3420  147.2710 O   0  0  0  0  0  1  0  0  0  0  0  0
  160.5430  211.5480  146.8840 C   0  0  0  0  0  2  0  0  0  0  0  0
  159.4920  212.4670  146.2900 C   0  0  0  0  0  2  0  0  0  0  0  0
  159.9860  213.2160  145.0610 C   0  0  0  0  0  2  0  0  0  0  0  0
  160.6880  212.2990  144.0550 C   0  0  2  0  0  3  0  0  0  0  0  0
  159.5260  213.8370  142.2210 C   0  0  0  0  0  2  0  0  0  0  0  0
  162.8160  212.2550  143.0510 F   0  0  0  0  0  0  0  0  0  0  0  0
  158.5700  213.3210  141.1470 C   0  0  0  0  0  2  0  0  0  0  0  0
  161.7590  213.1070  143.3290 C   0  0  1  0  0  3  0  0  0  0  0  0
  160.7570  212.2460  140.3700 C   0  0  2  0  0  3  0  0  0  0  0  0
  160.5030  212.6970  142.5900 C   0  0  1  0  0  0  0  0  0  0  0  0
  160.7130  211.6530  141.6580 O   0  0  0  0  0  0  0  0  0  0  0  0
  159.3450  212.7060  139.9660 C   0  0  0  0  0  2  0  0  0  0  0  0
  161.5460  211.9830  138.1160 O   0  0  0  0  0  1  0  0  0  0  0  0
  161.3410  211.3000  139.3220 C   0  0  2  0  0  3  0  0  0  0  0  0
  159.5930  210.3070  137.7960 C   0  0  0  0  0  1  0  0  0  0  0  0
  160.3940  210.1100  139.0810 C   0  0  1  0  0  3  0  0  0  0  0  0
  161.6010  208.2290  140.2300 C   0  0  0  0  0  3  0  0  0  0  0  0
  162.2930  207.0190  140.1510 C   0  0  0  0  0  3  0  0  0  0  0  0
  162.0080  206.9870  137.8050 C   0  0  0  0  0  3  0  0  0  0  0  0
  162.4700  206.4150  138.9410 N   0  0  0  0  0  0  0  0  0  0  0  0
  161.1130  208.8010  139.0420 C   0  0  0  0  0  0  0  0  0  0  0  0
  161.3440  208.1740  137.8530 N   0  0  0  0  0  0  0  0  0  0  0  0
  1  5  1  0  0  0  0
  2  6  2  0  0  0  0
  4  1  1  0  0  0  0
  5  3  2  0  0  0  0
  6 23  1  0  0  0  0
  6  3  1  0  0  0  0
  7  2  1  0  0  0  0
  7  1  2  0  0  0  0
  9 18  1  6  0  0  0
  9 19  1  0  0  0  0
 11 10  1  0  0  0  0
 12 13  1  0  0  0  0
 12 15  1  0  0  0  0
 13 16  1  0  0  0  0
 14  3  1  6  0  0  0
 14  9  1  0  0  0  0
 14 11  1  0  0  0  0
 16 17  1  0  0  0  0
 16  8  2  0  0  0  0
 18 12  2  0  0  0  0
 19 10  1  0  0  0  0
 19 15  2  0  0  0  0
 21 25  2  0  0  0  0
 21 23  1  0  0  0  0
 23 26  2  0  0  0  0
 24 22  1  0  0  0  0
 24 20  2  0  0  0  0
 25 24  1  0  0  0  0
 26 20  1  0  0  0  0
 27 28  1  6  0  0  0
 27  7  1  0  0  0  0
 29 27  1  0  0  0  0
 30 29  1  0  0  0  0
 31 30  1  0  0  0  0
 32 31  1  1  0  0  0
 35 33  1  0  0  0  0
 36 34  1  6  0  0  0
 36 32  1  0  0  0  0
 37 42  1  6  0  0  0
 37 39  1  0  0  0  0
 38 33  1  6  0  0  0
 38 36  1  0  0  0  0
 38 32  1  0  0  0  0
 39 38  1  0  0  0  0
 40 37  1  0  0  0  0
 40 35  1  0  0  0  0
 42 41  1  6  0  0  0
 44 43  1  6  0  0  0
 44 42  1  0  0  0  0
 46 45  1  0  0  0  0
 47 50  2  0  0  0  0
 47 48  1  0  0  0  0
 48 46  2  0  0  0  0
 49 44  1  0  0  0  0
 49 45  2  0  0  0  0
 50 49  1  0  0  0  0
M  END
>  <MODEL>
3

>  <REMARK>
 VINA RESULT:      -7.5      4.294      8.730
  Name = 
  10 active torsions:
  status: ('A' for Active; 'I' for Inactive)
    1  A    between atoms: C_1  and  C_12
    2  A    between atoms: C_6  and  C_35
    3  A    between atoms: C_12  and  C_24
    4  A    between atoms: C_16  and  C_28
    5  A    between atoms: C_16  and  C_32
    6  A    between atoms: C_17  and  C_28
    7  A    between atoms: C_18  and  C_27
    8  A    between atoms: C_18  and  C_50
    9  A    between atoms: C_24  and  C_50
   10  A    between atoms: C_25  and  C_42
                            x       y       z     vdW  Elec       q    Type
                         _______ _______ _______ _____ _____    ______ ____

>  <TORSDO>
F 10

$$$$
=
 OpenBabel11072410403D

 50 56  0  0  1  0  0  0  0  0999 V2000
  161.8420  206.6870  151.4300 C   0  0  0  0  0  0  0  0  0  0  0  0
  161.6230  207.2730  149.0950 C   0  0  0  0  0  3  0  0  0  0  0  0
  161.5640  204.9360  149.7550 C   0  0  0  0  0  0  0  0  0  0  0  0
  162.0240  207.0010  152.7680 O   0  0  0  0  0  1  0  0  0  0  0  0
  161.7020  205.3500  151.0830 C   0  0  0  0  0  3  0  0  0  0  0  0
  161.5360  205.9210  148.7270 C   0  0  0  0  0  0  0  0  0  0  0  0
  161.7880  207.6780  150.4250 C   0  0  0  0  0  0  0  0  0  0  0  0
  159.9200  198.9530  145.8780 O   0  0  0  0  0  0  0  0  0  0  0  0
  160.4060  203.0280  148.4340 C   0  0  1  0  0  3  0  0  0  0  0  0
  160.0060  201.8370  150.3710 O   0  0  0  0  0  0  0  0  0  0  0  0
  160.6520  202.9350  150.8070 O   0  0  0  0  0  0  0  0  0  0  0  0
  161.0130  201.2950  147.2000 C   0  0  0  0  0  0  0  0  0  0  0  0
  161.6120  200.5290  146.1560 N   0  0  0  0  0  2  0  0  0  0  0  0
  161.2410  203.4710  149.6210 C   0  0  2  0  0  3  0  0  0  0  0  0
  160.3490  200.7170  148.3180 N   0  0  0  0  0  0  0  0  0  0  0  0
  161.1210  199.2650  145.7070 C   0  0  0  0  0  0  0  0  0  0  0  0
  162.0400  198.2860  145.0660 C   0  0  0  0  0  1  0  0  0  0  0  0
  161.1580  202.5890  147.2700 N   0  0  0  0  0  0  0  0  0  0  0  0
  160.0310  201.7650  149.0080 C   0  0  0  0  0  0  0  0  0  0  0  0
  160.3390  206.0550  145.1510 C   0  0  0  0  0  3  0  0  0  0  0  0
  162.6190  205.2860  146.5690 C   0  0  0  0  0  3  0  0  0  0  0  0
  161.5430  205.8150  143.0800 O   0  0  0  0  0  1  0  0  0  0  0  0
  161.4560  205.6350  147.2790 C   0  0  0  0  0  0  0  0  0  0  0  0
  161.5160  205.7650  144.4680 C   0  0  0  0  0  0  0  0  0  0  0  0
  162.6390  205.3200  145.1700 C   0  0  0  0  0  3  0  0  0  0  0  0
  160.3190  206.0170  146.5470 C   0  0  0  0  0  3  0  0  0  0  0  0
  161.6930  209.1580  150.7260 C   0  0  1  0  0  3  0  0  0  0  0  0
  162.5840  209.5800  151.7190 O   0  0  0  0  0  1  0  0  0  0  0  0
  161.8170  210.0650  149.5080 C   0  0  0  0  0  2  0  0  0  0  0  0
  161.9320  211.4850  150.0300 C   0  0  0  0  0  2  0  0  0  0  0  0
  161.2960  212.5110  149.1040 C   0  0  0  0  0  2  0  0  0  0  0  0
  161.4140  212.1240  147.6270 C   0  0  2  0  0  3  0  0  0  0  0  0
  159.3840  213.8080  147.2810 C   0  0  0  0  0  2  0  0  0  0  0  0
  162.6990  212.8840  145.8070 F   0  0  0  0  0  0  0  0  0  0  0  0
  158.0360  213.4170  146.6780 C   0  0  0  0  0  2  0  0  0  0  0  0
  161.9010  213.3400  146.8440 C   0  0  1  0  0  3  0  0  0  0  0  0
  159.5450  213.1700  144.6280 C   0  0  2  0  0  3  0  0  0  0  0  0
  160.4680  212.8770  146.6910 C   0  0  1  0  0  0  0  0  0  0  0  0
  160.2130  212.2330  145.4570 O   0  0  0  0  0  0  0  0  0  0  0  0
  158.1080  213.3770  145.1390 C   0  0  0  0  0  2  0  0  0  0  0  0
  160.1930  211.5080  143.0180 O   0  0  0  0  0  1  0  0  0  0  0  0
  159.5420  212.7400  143.1610 C   0  0  2  0  0  3  0  0  0  0  0  0
  161.4430  214.3950  143.0200 C   0  0  0  0  0  1  0  0  0  0  0  0
  160.2450  213.7950  142.2870 C   0  0  1  0  0  3  0  0  0  0  0  0
  159.7090  212.8520  140.0200 C   0  0  0  0  0  3  0  0  0  0  0  0
  160.1480  212.3230  138.8040 C   0  0  0  0  0  3  0  0  0  0  0  0
  162.3980  212.5910  139.4760 C   0  0  0  0  0  3  0  0  0  0  0  0
  161.4830  212.2160  138.5510 N   0  0  0  0  0  0  0  0  0  0  0  0
  160.6720  213.2520  140.9630 C   0  0  0  0  0  0  0  0  0  0  0  0
  161.9970  213.0950  140.6740 N   0  0  0  0  0  0  0  0  0  0  0  0
  1  4  1  0  0  0  0
  2  7  1  0  0  0  0
  3  5  2  0  0  0  0
  5  1  1  0  0  0  0
  6  2  2  0  0  0  0
  6  3  1  0  0  0  0
  7 27  1  0  0  0  0
  7  1  2  0  0  0  0
  9 18  1  6  0  0  0
  9 19  1  0  0  0  0
  9 14  1  0  0  0  0
 10 11  1  0  0  0  0
 12 18  2  0  0  0  0
 12 15  1  0  0  0  0
 13 12  1  0  0  0  0
 14  3  1  1  0  0  0
 14 11  1  0  0  0  0
 15 19  2  0  0  0  0
 16  8  2  0  0  0  0
 16 13  1  0  0  0  0
 17 16  1  0  0  0  0
 19 10  1  0  0  0  0
 20 26  1  0  0  0  0
 21 23  1  0  0  0  0
 22 24  1  0  0  0  0
 23  6  1  0  0  0  0
 24 20  2  0  0  0  0
 24 25  1  0  0  0  0
 25 21  2  0  0  0  0
 26 23  2  0  0  0  0
 27 28  1  1  0  0  0
 29 30  1  0  0  0  0
 29 27  1  0  0  0  0
 31 30  1  0  0  0  0
 32 31  1  1  0  0  0
 35 33  1  0  0  0  0
 36 34  1  6  0  0  0
 36 32  1  0  0  0  0
 37 42  1  6  0  0  0
 37 40  1  0  0  0  0
 37 39  1  0  0  0  0
 38 36  1  0  0  0  0
 38 33  1  1  0  0  0
 38 32  1  0  0  0  0
 39 38  1  0  0  0  0
 40 35  1  0  0  0  0
 42 41  1  1  0  0  0
 44 43  1  1  0  0  0
 44 42  1  0  0  0  0
 45 49  1  0  0  0  0
 46 45  2  0  0  0  0
 47 50  1  0  0  0  0
 48 46  1  0  0  0  0
 48 47  2  0  0  0  0
 49 44  1  0  0  0  0
 50 49  2  0  0  0  0
M  END
>  <MODEL>
4

>  <REMARK>
 VINA RESULT:      -7.1      4.470     10.209
  Name = 
  10 active torsions:
  status: ('A' for Active; 'I' for Inactive)
    1  A    between atoms: C_1  and  C_12
    2  A    between atoms: C_6  and  C_35
    3  A    between atoms: C_12  and  C_24
    4  A    between atoms: C_16  and  C_28
    5  A    between atoms: C_16  and  C_32
    6  A    between atoms: C_17  and  C_28
    7  A    between atoms: C_18  and  C_27
    8  A    between atoms: C_18  and  C_50
    9  A    between atoms: C_24  and  C_50
   10  A    between atoms: C_25  and  C_42
                            x       y       z     vdW  Elec       q    Type
                         _______ _______ _______ _____ _____    ______ ____

>  <TORSDO>
F 10

$$$$
=
 OpenBabel11072410403D

 50 56  0  0  1  0  0  0  0  0999 V2000
  161.7840  209.4380  151.8870 C   0  0  0  0  0  0  0  0  0  0  0  0
  160.2560  210.2010  153.5980 C   0  0  0  0  0  3  0  0  0  0  0  0
  160.4390  211.4400  151.5160 C   0  0  0  0  0  0  0  0  0  0  0  0
  162.7500  208.5760  151.3910 O   0  0  0  0  0  1  0  0  0  0  0  0
  161.3710  210.4920  151.0830 C   0  0  0  0  0  3  0  0  0  0  0  0
  159.8730  211.3010  152.8150 C   0  0  0  0  0  0  0  0  0  0  0  0
  161.2100  209.2720  153.1660 C   0  0  0  0  0  0  0  0  0  0  0  0
  160.8390  214.2410  144.7690 O   0  0  0  0  0  0  0  0  0  0  0  0
  161.0160  212.7860  149.3770 C   0  0  1  0  0  3  0  0  0  0  0  0
  159.5210  214.4520  149.9390 O   0  0  0  0  0  0  0  0  0  0  0  0
  159.3950  213.5670  150.9450 O   0  0  0  0  0  0  0  0  0  0  0  0
  160.5160  212.7230  147.2230 C   0  0  0  0  0  0  0  0  0  0  0  0
  160.3840  212.2470  145.8840 N   0  0  0  0  0  2  0  0  0  0  0  0
  159.9990  212.3810  150.4260 C   0  0  2  0  0  3  0  0  0  0  0  0
  159.9800  213.9610  147.6730 N   0  0  0  0  0  0  0  0  0  0  0  0
  160.3380  213.0930  144.7340 C   0  0  0  0  0  0  0  0  0  0  0  0
  159.6590  212.6360  143.4910 C   0  0  0  0  0  1  0  0  0  0  0  0
  161.0220  211.9800  148.1670 N   0  0  0  0  0  0  0  0  0  0  0  0
  160.2850  213.9400  148.9300 C   0  0  0  0  0  0  0  0  0  0  0  0
  156.7360  212.6190  154.4470 C   0  0  0  0  0  3  0  0  0  0  0  0
  159.4110  213.3620  154.1470 C   0  0  0  0  0  3  0  0  0  0  0  0
  156.4210  214.3890  156.0480 O   0  0  0  0  0  1  0  0  0  0  0  0
  158.9240  212.2530  153.4340 C   0  0  0  0  0  0  0  0  0  0  0  0
  157.2500  213.6770  155.1910 C   0  0  0  0  0  0  0  0  0  0  0  0
  158.5700  214.0900  154.9960 C   0  0  0  0  0  3  0  0  0  0  0  0
  157.5750  211.8960  153.5970 C   0  0  0  0  0  3  0  0  0  0  0  0
  161.4180  208.0330  154.0120 C   0  0  1  0  0  3  0  0  0  0  0  0
  161.4320  208.2950  155.3860 O   0  0  0  0  0  1  0  0  0  0  0  0
  160.4520  206.8920  153.7180 C   0  0  0  0  0  2  0  0  0  0  0  0
  161.2770  205.6200  153.6790 C   0  0  0  0  0  2  0  0  0  0  0  0
  162.4260  205.6880  152.6840 C   0  0  0  0  0  2  0  0  0  0  0  0
  161.9650  205.4870  151.2370 C   0  0  2  0  0  3  0  0  0  0  0  0
  161.2470  203.0630  152.0660 C   0  0  0  0  0  2  0  0  0  0  0  0
  159.9900  205.9520  150.0430 F   0  0  0  0  0  0  0  0  0  0  0  0
  161.7740  201.7600  151.4670 C   0  0  0  0  0  2  0  0  0  0  0  0
  160.4420  205.3850  151.2240 C   0  0  1  0  0  3  0  0  0  0  0  0
  160.3930  202.6400  149.5030 C   0  0  2  0  0  3  0  0  0  0  0  0
  161.2770  204.1490  150.9650 C   0  0  1  0  0  0  0  0  0  0  0  0
  161.2780  203.7430  149.6090 O   0  0  0  0  0  0  0  0  0  0  0  0
  161.0270  201.4050  150.1670 C   0  0  0  0  0  2  0  0  0  0  0  0
  159.3380  201.1200  147.9700 O   0  0  0  0  0  1  0  0  0  0  0  0
  160.0170  202.3430  148.0530 C   0  0  2  0  0  3  0  0  0  0  0  0
  161.1850  201.1420  146.1650 C   0  0  0  0  0  1  0  0  0  0  0  0
  161.2760  202.2900  147.1680 C   0  0  1  0  0  3  0  0  0  0  0  0
  162.2410  204.6090  147.0920 C   0  0  0  0  0  3  0  0  0  0  0  0
  162.4360  205.8080  146.4030 C   0  0  0  0  0  3  0  0  0  0  0  0
  161.2580  204.9520  144.5410 C   0  0  0  0  0  3  0  0  0  0  0  0
  161.9530  205.9500  145.1360 N   0  0  0  0  0  0  0  0  0  0  0  0
  161.5320  203.5770  146.4530 C   0  0  0  0  0  0  0  0  0  0  0  0
  161.0410  203.7800  145.1970 N   0  0  0  0  0  0  0  0  0  0  0  0
  1  7  1  0  0  0  0
  3  6  2  0  0  0  0
  4  1  1  0  0  0  0
  5  3  1  0  0  0  0
  5  1  2  0  0  0  0
  6 23  1  0  0  0  0
  6  2  1  0  0  0  0
  7  2  2  0  0  0  0
  7 27  1  0  0  0  0
  9 18  1  6  0  0  0
  9 14  1  0  0  0  0
 10 11  1  0  0  0  0
 12 15  1  0  0  0  0
 12 18  2  0  0  0  0
 13 12  1  0  0  0  0
 14 11  1  0  0  0  0
 14  3  1  1  0  0  0
 15 19  2  0  0  0  0
 16  8  2  0  0  0  0
 16 13  1  0  0  0  0
 17 16  1  0  0  0  0
 19  9  1  0  0  0  0
 19 10  1  0  0  0  0
 20 24  1  0  0  0  0
 21 25  1  0  0  0  0
 23 26  1  0  0  0  0
 23 21  2  0  0  0  0
 24 22  1  0  0  0  0
 25 24  2  0  0  0  0
 26 20  2  0  0  0  0
 27 28  1  1  0  0  0
 29 27  1  0  0  0  0
 30 29  1  0  0  0  0
 31 30  1  0  0  0  0
 32 31  1  1  0  0  0
 35 33  1  0  0  0  0
 36 34  1  6  0  0  0
 36 32  1  0  0  0  0
 37 42  1  6  0  0  0
 37 39  1  0  0  0  0
 37 40  1  0  0  0  0
 38 36  1  0  0  0  0
 38 32  1  0  0  0  0
 38 33  1  1  0  0  0
 39 38  1  0  0  0  0
 40 35  1  0  0  0  0
 42 41  1  1  0  0  0
 44 43  1  6  0  0  0
 44 42  1  0  0  0  0
 46 45  2  0  0  0  0
 47 48  2  0  0  0  0
 47 50  1  0  0  0  0
 48 46  1  0  0  0  0
 49 45  1  0  0  0  0
 49 44  1  0  0  0  0
 50 49  2  0  0  0  0
M  END
>  <MODEL>
5

>  <REMARK>
 VINA RESULT:      -6.8      1.514      2.497
  Name = 
  10 active torsions:
  status: ('A' for Active; 'I' for Inactive)
    1  A    between atoms: C_1  and  C_12
    2  A    between atoms: C_6  and  C_35
    3  A    between atoms: C_12  and  C_24
    4  A    between atoms: C_16  and  C_28
    5  A    between atoms: C_16  and  C_32
    6  A    between atoms: C_17  and  C_28
    7  A    between atoms: C_18  and  C_27
    8  A    between atoms: C_18  and  C_50
    9  A    between atoms: C_24  and  C_50
   10  A    between atoms: C_25  and  C_42
                            x       y       z     vdW  Elec       q    Type
                         _______ _______ _______ _____ _____    ______ ____

>  <TORSDO>
F 10

$$$$
=
 OpenBabel11072410403D

 50 56  0  0  1  0  0  0  0  0999 V2000
  156.6310  213.9430  150.4770 C   0  0  0  0  0  0  0  0  0  0  0  0
  159.0370  213.7130  150.5040 C   0  0  0  0  0  3  0  0  0  0  0  0
  157.8360  213.4880  148.4050 C   0  0  0  0  0  0  0  0  0  0  0  0
  155.4040  214.1430  151.0910 O   0  0  0  0  0  1  0  0  0  0  0  0
  156.6520  213.7450  149.1030 C   0  0  0  0  0  3  0  0  0  0  0  0
  159.0640  213.4570  149.1250 C   0  0  0  0  0  0  0  0  0  0  0  0
  157.8440  213.9430  151.2000 C   0  0  0  0  0  0  0  0  0  0  0  0
  160.3580  213.4110  141.5380 O   0  0  0  0  0  0  0  0  0  0  0  0
  158.7690  214.0680  146.0570 C   0  0  1  0  0  3  0  0  0  0  0  0
  156.6470  214.4530  145.2330 O   0  0  0  0  0  0  0  0  0  0  0  0
  156.4260  214.0990  146.5130 O   0  0  0  0  0  0  0  0  0  0  0  0
  159.5270  212.9810  144.2860 C   0  0  0  0  0  0  0  0  0  0  0  0
  160.3220  212.1170  143.4740 N   0  0  0  0  0  2  0  0  0  0  0  0
  157.6560  213.4900  146.9100 C   0  0  2  0  0  3  0  0  0  0  0  0
  158.3590  213.6450  143.8190 N   0  0  0  0  0  0  0  0  0  0  0  0
  160.5050  212.2860  142.0670 C   0  0  0  0  0  0  0  0  0  0  0  0
  160.8370  211.1180  141.2070 C   0  0  0  0  0  1  0  0  0  0  0  0
  159.7430  213.1080  145.5650 N   0  0  0  0  0  0  0  0  0  0  0  0
  157.9520  214.2490  144.8880 C   0  0  0  0  0  0  0  0  0  0  0  0
  162.6490  213.8850  148.0300 C   0  0  0  0  0  3  0  0  0  0  0  0
  160.8500  211.8120  148.5410 C   0  0  0  0  0  3  0  0  0  0  0  0
  164.4450  212.2900  147.8660 O   0  0  0  0  0  1  0  0  0  0  0  0
  160.3840  213.1390  148.5380 C   0  0  0  0  0  0  0  0  0  0  0  0
  163.1050  212.5720  148.0970 C   0  0  0  0  0  0  0  0  0  0  0  0
  162.1970  211.5280  148.2900 C   0  0  0  0  0  3  0  0  0  0  0  0
  161.3040  214.1670  148.2770 C   0  0  0  0  0  3  0  0  0  0  0  0
  157.9470  214.3810  152.6450 C   0  0  1  0  0  3  0  0  0  0  0  0
  156.8490  213.9940  153.4210 O   0  0  0  0  0  1  0  0  0  0  0  0
  159.2370  213.9730  153.3450 C   0  0  0  0  0  2  0  0  0  0  0  0
  158.8390  213.3560  154.6720 C   0  0  0  0  0  2  0  0  0  0  0  0
  159.6700  212.1340  155.0320 C   0  0  0  0  0  2  0  0  0  0  0  0
  160.4620  211.5890  153.8410 C   0  0  2  0  0  3  0  0  0  0  0  0
  159.9960  209.2100  154.9380 C   0  0  0  0  0  2  0  0  0  0  0  0
  159.9290  210.9690  151.6340 F   0  0  0  0  0  0  0  0  0  0  0  0
  161.0890  208.2340  155.3700 C   0  0  0  0  0  2  0  0  0  0  0  0
  159.5100  210.8020  152.9440 C   0  0  1  0  0  3  0  0  0  0  0  0
  161.3920  208.1680  152.8310 C   0  0  2  0  0  3  0  0  0  0  0  0
  160.5420  210.0630  153.7690 C   0  0  1  0  0  0  0  0  0  0  0  0
  161.6190  209.5580  153.0040 O   0  0  0  0  0  0  0  0  0  0  0  0
  161.6290  207.4380  154.1660 C   0  0  0  0  0  2  0  0  0  0  0  0
  162.1750  208.3570  150.5670 O   0  0  0  0  0  1  0  0  0  0  0  0
  162.2670  207.5760  151.7270 C   0  0  2  0  0  3  0  0  0  0  0  0
  160.5860  205.7540  152.2050 C   0  0  0  0  0  1  0  0  0  0  0  0
  161.8330  206.1330  151.4090 C   0  0  1  0  0  3  0  0  0  0  0  0
  161.1770  204.6540  149.4860 C   0  0  0  0  0  3  0  0  0  0  0  0
  160.9950  204.4780  148.1130 C   0  0  0  0  0  3  0  0  0  0  0  0
  161.6300  206.7200  147.7210 C   0  0  0  0  0  3  0  0  0  0  0  0
  161.2110  205.5180  147.2590 N   0  0  0  0  0  0  0  0  0  0  0  0
  161.5970  205.9120  149.9500 C   0  0  0  0  0  0  0  0  0  0  0  0
  161.8310  206.9120  149.0530 N   0  0  0  0  0  0  0  0  0  0  0  0
  1  4  1  0  0  0  0
  1  7  1  0  0  0  0
  2  7  2  0  0  0  0
  3  5  1  0  0  0  0
  3  6  2  0  0  0  0
  5  1  2  0  0  0  0
  6  2  1  0  0  0  0
  7 27  1  0  0  0  0
  8 16  2  0  0  0  0
  9 19  1  6  0  0  0
  9 14  1  0  0  0  0
 10 11  1  0  0  0  0
 11 14  1  0  0  0  0
 12 18  2  0  0  0  0
 13 12  1  0  0  0  0
 14  3  1  1  0  0  0
 15 12  1  0  0  0  0
 15 19  2  0  0  0  0
 16 13  1  0  0  0  0
 17 16  1  0  0  0  0
 18  9  1  0  0  0  0
 19 10  1  0  0  0  0
 20 24  2  0  0  0  0
 20 26  1  0  0  0  0
 22 24  1  0  0  0  0
 23 21  1  0  0  0  0
 23  6  1  0  0  0  0
 24 25  1  0  0  0  0
 25 21  2  0  0  0  0
 26 23  2  0  0  0  0
 27 29  1  0  0  0  0
 27 28  1  1  0  0  0
 29 30  1  0  0  0  0
 30 31  1  0  0  0  0
 32 31  1  1  0  0  0
 33 35  1  0  0  0  0
 36 34  1  6  0  0  0
 36 38  1  0  0  0  0
 36 32  1  0  0  0  0
 37 42  1  6  0  0  0
 37 39  1  0  0  0  0
 37 40  1  0  0  0  0
 38 32  1  0  0  0  0
 38 33  1  1  0  0  0
 39 38  1  0  0  0  0
 40 35  1  0  0  0  0
 42 41  1  6  0  0  0
 44 42  1  0  0  0  0
 44 43  1  1  0  0  0
 45 49  1  0  0  0  0
 46 45  2  0  0  0  0
 47 50  1  0  0  0  0
 48 47  2  0  0  0  0
 48 46  1  0  0  0  0
 49 44  1  0  0  0  0
 50 49  2  0  0  0  0
M  END
>  <MODEL>
6

>  <REMARK>
 VINA RESULT:      -6.5      2.691      6.257
  Name = 
  10 active torsions:
  status: ('A' for Active; 'I' for Inactive)
    1  A    between atoms: C_1  and  C_12
    2  A    between atoms: C_6  and  C_35
    3  A    between atoms: C_12  and  C_24
    4  A    between atoms: C_16  and  C_28
    5  A    between atoms: C_16  and  C_32
    6  A    between atoms: C_17  and  C_28
    7  A    between atoms: C_18  and  C_27
    8  A    between atoms: C_18  and  C_50
    9  A    between atoms: C_24  and  C_50
   10  A    between atoms: C_25  and  C_42
                            x       y       z     vdW  Elec       q    Type
                         _______ _______ _______ _____ _____    ______ ____

>  <TORSDO>
F 10

$$$$
=
 OpenBabel11072410403D

 50 56  0  0  1  0  0  0  0  0999 V2000
  156.9080  213.9790  152.7220 C   0  0  0  0  0  0  0  0  0  0  0  0
  159.2950  213.7700  152.4040 C   0  0  0  0  0  3  0  0  0  0  0  0
  157.8060  213.5110  150.5030 C   0  0  0  0  0  0  0  0  0  0  0  0
  155.7810  214.1740  153.5050 O   0  0  0  0  0  1  0  0  0  0  0  0
  156.7330  213.7660  151.3620 C   0  0  0  0  0  3  0  0  0  0  0  0
  159.1260  213.4990  151.0380 C   0  0  0  0  0  0  0  0  0  0  0  0
  158.2130  213.9980  153.2620 C   0  0  0  0  0  0  0  0  0  0  0  0
  159.1610  214.4440  143.3740 O   0  0  0  0  0  0  0  0  0  0  0  0
  158.1430  214.4270  148.1010 C   0  0  1  0  0  3  0  0  0  0  0  0
  155.9100  214.1220  147.5980 O   0  0  0  0  0  0  0  0  0  0  0  0
  156.0080  213.6810  148.8660 O   0  0  0  0  0  0  0  0  0  0  0  0
  158.9320  213.6930  146.1690 C   0  0  0  0  0  0  0  0  0  0  0  0
  159.8290  213.1570  145.1970 N   0  0  0  0  0  2  0  0  0  0  0  0
  157.4120  213.4950  149.0490 C   0  0  2  0  0  3  0  0  0  0  0  0
  157.5580  213.9540  145.9120 N   0  0  0  0  0  0  0  0  0  0  0  0
  159.7360  213.4140  143.7950 C   0  0  0  0  0  0  0  0  0  0  0  0
  160.2900  212.4410  142.8140 C   0  0  0  0  0  1  0  0  0  0  0  0
  159.2860  213.8490  147.4140 N   0  0  0  0  0  0  0  0  0  0  0  0
  157.1450  214.3630  147.0680 C   0  0  0  0  0  0  0  0  0  0  0  0
  161.4780  211.6930  148.7060 C   0  0  0  0  0  3  0  0  0  0  0  0
  161.1950  214.2270  149.8440 C   0  0  0  0  0  3  0  0  0  0  0  0
  163.2190  212.5300  147.2690 O   0  0  0  0  0  1  0  0  0  0  0  0
  160.3500  213.1860  150.2700 C   0  0  0  0  0  0  0  0  0  0  0  0
  162.2650  212.7480  148.2540 C   0  0  0  0  0  0  0  0  0  0  0  0
  162.1680  214.0000  148.8650 C   0  0  0  0  0  3  0  0  0  0  0  0
  160.5090  211.9190  149.6850 C   0  0  0  0  0  3  0  0  0  0  0  0
  158.5180  214.4520  154.6740 C   0  0  1  0  0  3  0  0  0  0  0  0
  157.4740  214.2090  155.5730 O   0  0  0  0  0  1  0  0  0  0  0  0
  159.8240  213.9170  155.2470 C   0  0  0  0  0  2  0  0  0  0  0  0
  159.4590  213.0820  156.4600 C   0  0  0  0  0  2  0  0  0  0  0  0
  160.1920  211.7500  156.5070 C   0  0  0  0  0  2  0  0  0  0  0  0
  160.4580  211.1760  155.1120 C   0  0  2  0  0  3  0  0  0  0  0  0
  160.2470  208.8140  156.3190 C   0  0  0  0  0  2  0  0  0  0  0  0
  159.1190  210.6410  153.2520 F   0  0  0  0  0  0  0  0  0  0  0  0
  161.3480  207.7540  156.3320 C   0  0  0  0  0  2  0  0  0  0  0  0
  159.1910  210.4770  154.6260 C   0  0  1  0  0  3  0  0  0  0  0  0
  160.7070  207.7200  153.8560 C   0  0  2  0  0  3  0  0  0  0  0  0
  160.3940  209.6500  155.0260 C   0  0  1  0  0  0  0  0  0  0  0  0
  161.0820  209.0860  153.9260 O   0  0  0  0  0  0  0  0  0  0  0  0
  161.3560  206.9470  155.0190 C   0  0  0  0  0  2  0  0  0  0  0  0
  162.4150  206.6740  152.5280 O   0  0  0  0  0  1  0  0  0  0  0  0
  161.0770  207.0900  152.5140 C   0  0  2  0  0  3  0  0  0  0  0  0
  161.7640  209.3210  151.5520 C   0  0  0  0  0  1  0  0  0  0  0  0
  160.8680  208.0980  151.3680 C   0  0  1  0  0  3  0  0  0  0  0  0
  160.6700  206.1800  149.7570 C   0  0  0  0  0  3  0  0  0  0  0  0
  160.9260  205.6380  148.4950 C   0  0  0  0  0  3  0  0  0  0  0  0
  161.9790  207.6450  147.8260 C   0  0  0  0  0  3  0  0  0  0  0  0
  161.5620  206.3870  147.5510 N   0  0  0  0  0  0  0  0  0  0  0  0
  161.0950  207.4930  150.0210 C   0  0  0  0  0  0  0  0  0  0  0  0
  161.7570  208.1900  149.0530 N   0  0  0  0  0  0  0  0  0  0  0  0
  1  7  1  0  0  0  0
  1  4  1  0  0  0  0
  2  7  2  0  0  0  0
  3  6  2  0  0  0  0
  3  5  1  0  0  0  0
  5  1  2  0  0  0  0
  6  2  1  0  0  0  0
  7 27  1  0  0  0  0
  8 16  2  0  0  0  0
  9 19  1  6  0  0  0
  9 14  1  0  0  0  0
 10 11  1  0  0  0  0
 11 14  1  0  0  0  0
 12 18  2  0  0  0  0
 13 12  1  0  0  0  0
 14  3  1  1  0  0  0
 15 12  1  0  0  0  0
 15 19  2  0  0  0  0
 16 13  1  0  0  0  0
 17 16  1  0  0  0  0
 18  9  1  0  0  0  0
 19 10  1  0  0  0  0
 20 26  1  0  0  0  0
 21 23  1  0  0  0  0
 22 24  1  0  0  0  0
 23  6  1  0  0  0  0
 24 20  2  0  0  0  0
 24 25  1  0  0  0  0
 25 21  2  0  0  0  0
 26 23  2  0  0  0  0
 27 29  1  0  0  0  0
 27 28  1  1  0  0  0
 29 30  1  0  0  0  0
 30 31  1  0  0  0  0
 32 31  1  1  0  0  0
 33 35  1  0  0  0  0
 36 34  1  6  0  0  0
 36 38  1  0  0  0  0
 36 32  1  0  0  0  0
 37 42  1  6  0  0  0
 37 39  1  0  0  0  0
 37 40  1  0  0  0  0
 38 32  1  0  0  0  0
 38 33  1  1  0  0  0
 39 38  1  0  0  0  0
 40 35  1  0  0  0  0
 42 41  1  1  0  0  0
 44 43  1  1  0  0  0
 44 42  1  0  0  0  0
 45 49  1  0  0  0  0
 46 45  2  0  0  0  0
 47 50  1  0  0  0  0
 48 47  2  0  0  0  0
 48 46  1  0  0  0  0
 49 44  1  0  0  0  0
 50 49  2  0  0  0  0
M  END
>  <MODEL>
7

>  <REMARK>
 VINA RESULT:      -6.3      2.813      5.950
  Name = 
  10 active torsions:
  status: ('A' for Active; 'I' for Inactive)
    1  A    between atoms: C_1  and  C_12
    2  A    between atoms: C_6  and  C_35
    3  A    between atoms: C_12  and  C_24
    4  A    between atoms: C_16  and  C_28
    5  A    between atoms: C_16  and  C_32
    6  A    between atoms: C_17  and  C_28
    7  A    between atoms: C_18  and  C_27
    8  A    between atoms: C_18  and  C_50
    9  A    between atoms: C_24  and  C_50
   10  A    between atoms: C_25  and  C_42
                            x       y       z     vdW  Elec       q    Type
                         _______ _______ _______ _____ _____    ______ ____

>  <TORSDO>
F 10

$$$$
=
 OpenBabel11072410403D

 50 56  0  0  1  0  0  0  0  0999 V2000
  160.6030  213.1420  150.9300 C   0  0  0  0  0  0  0  0  0  0  0  0
  161.2210  210.8260  150.6130 C   0  0  0  0  0  3  0  0  0  0  0  0
  160.3560  211.5520  152.7640 C   0  0  0  0  0  0  0  0  0  0  0  0
  160.4730  214.4530  150.5000 O   0  0  0  0  0  1  0  0  0  0  0  0
  160.2160  212.8350  152.2280 C   0  0  0  0  0  3  0  0  0  0  0  0
  160.8850  210.5180  151.9400 C   0  0  0  0  0  0  0  0  0  0  0  0
  161.1030  212.1200  150.0930 C   0  0  0  0  0  0  0  0  0  0  0  0
  154.5720  211.4830  157.2430 O   0  0  0  0  0  0  0  0  0  0  0  0
  158.4050  212.1350  154.3690 C   0  0  1  0  0  3  0  0  0  0  0  0
  159.7870  211.9870  156.2130 O   0  0  0  0  0  0  0  0  0  0  0  0
  160.6050  211.6950  155.1850 O   0  0  0  0  0  0  0  0  0  0  0  0
  156.6730  211.1010  155.2770 C   0  0  0  0  0  0  0  0  0  0  0  0
  155.4540  210.3680  155.3990 N   0  0  0  0  0  2  0  0  0  0  0  0
  159.7070  211.3990  154.1140 C   0  0  2  0  0  3  0  0  0  0  0  0
  157.4890  211.4590  156.3850 N   0  0  0  0  0  0  0  0  0  0  0  0
  154.5730  210.4620  156.5190 C   0  0  0  0  0  0  0  0  0  0  0  0
  153.6710  209.3290  156.8630 C   0  0  0  0  0  1  0  0  0  0  0  0
  157.1950  211.3710  154.1130 N   0  0  0  0  0  0  0  0  0  0  0  0
  158.4860  212.0420  155.8020 C   0  0  0  0  0  0  0  0  0  0  0  0
  160.7370  207.3790  154.0290 C   0  0  0  0  0  3  0  0  0  0  0  0
  161.4310  208.1340  151.4320 C   0  0  0  0  0  3  0  0  0  0  0  0
  160.8840  205.0610  153.3970 O   0  0  0  0  0  1  0  0  0  0  0  0
  161.1480  209.1310  152.3830 C   0  0  0  0  0  0  0  0  0  0  0  0
  160.9620  206.4060  153.0600 C   0  0  0  0  0  0  0  0  0  0  0  0
  161.3700  206.7800  151.7780 C   0  0  0  0  0  3  0  0  0  0  0  0
  160.8020  208.7310  153.6840 C   0  0  0  0  0  3  0  0  0  0  0  0
  161.3250  212.3030  148.6060 C   0  0  1  0  0  3  0  0  0  0  0  0
  162.3020  211.4500  148.0820 O   0  0  0  0  0  1  0  0  0  0  0  0
  160.0620  212.2170  147.7580 C   0  0  0  0  0  2  0  0  0  0  0  0
  160.3330  213.0010  146.4890 C   0  0  0  0  0  2  0  0  0  0  0  0
  159.3140  212.7290  145.3930 C   0  0  0  0  0  2  0  0  0  0  0  0
  159.9270  212.0190  144.1820 C   0  0  2  0  0  3  0  0  0  0  0  0
  158.8240  213.9940  142.7810 C   0  0  0  0  0  2  0  0  0  0  0  0
  162.0210  212.0730  143.1090 F   0  0  0  0  0  0  0  0  0  0  0  0
  157.8090  213.7880  141.6580 C   0  0  0  0  0  2  0  0  0  0  0  0
  161.0320  212.9040  143.6100 C   0  0  1  0  0  3  0  0  0  0  0  0
  159.8990  212.7860  140.5770 C   0  0  2  0  0  3  0  0  0  0  0  0
  159.7330  212.7440  142.8500 C   0  0  1  0  0  0  0  0  0  0  0  0
  159.8480  211.9240  141.7020 O   0  0  0  0  0  0  0  0  0  0  0  0
  158.5110  213.4070  140.3400 C   0  0  0  0  0  2  0  0  0  0  0  0
  159.4710  211.0800  138.9400 O   0  0  0  0  0  1  0  0  0  0  0  0
  160.3910  212.0640  139.3230 C   0  0  2  0  0  3  0  0  0  0  0  0
  162.0000  210.2550  138.6090 C   0  0  0  0  0  1  0  0  0  0  0  0
  161.7630  211.4110  139.5780 C   0  0  1  0  0  3  0  0  0  0  0  0
  162.8760  213.5480  140.2930 C   0  0  0  0  0  3  0  0  0  0  0  0
  163.9330  214.4520  140.1690 C   0  0  0  0  0  3  0  0  0  0  0  0
  164.9420  213.0800  138.5300 C   0  0  0  0  0  3  0  0  0  0  0  0
  164.9510  214.1930  139.3010 N   0  0  0  0  0  0  0  0  0  0  0  0
  162.8890  212.3890  139.4970 C   0  0  0  0  0  0  0  0  0  0  0  0
  163.9150  212.1910  138.6200 N   0  0  0  0  0  0  0  0  0  0  0  0
  1  5  1  0  0  0  0
  2  6  2  0  0  0  0
  4  1  1  0  0  0  0
  5  3  2  0  0  0  0
  6 23  1  0  0  0  0
  6  3  1  0  0  0  0
  7  2  1  0  0  0  0
  7  1  2  0  0  0  0
  9 18  1  6  0  0  0
  9 19  1  0  0  0  0
 11 10  1  0  0  0  0
 12 13  1  0  0  0  0
 12 15  1  0  0  0  0
 13 16  1  0  0  0  0
 14  3  1  6  0  0  0
 14  9  1  0  0  0  0
 14 11  1  0  0  0  0
 16 17  1  0  0  0  0
 16  8  2  0  0  0  0
 18 12  2  0  0  0  0
 19 10  1  0  0  0  0
 19 15  2  0  0  0  0
 21 25  2  0  0  0  0
 21 23  1  0  0  0  0
 23 26  2  0  0  0  0
 24 22  1  0  0  0  0
 24 20  2  0  0  0  0
 25 24  1  0  0  0  0
 26 20  1  0  0  0  0
 27 28  1  6  0  0  0
 27  7  1  0  0  0  0
 29 27  1  0  0  0  0
 30 29  1  0  0  0  0
 31 30  1  0  0  0  0
 32 31  1  1  0  0  0
 35 33  1  0  0  0  0
 36 34  1  6  0  0  0
 36 32  1  0  0  0  0
 37 42  1  6  0  0  0
 37 39  1  0  0  0  0
 38 33  1  6  0  0  0
 38 36  1  0  0  0  0
 38 32  1  0  0  0  0
 39 38  1  0  0  0  0
 40 37  1  0  0  0  0
 40 35  1  0  0  0  0
 42 41  1  1  0  0  0
 42 44  1  0  0  0  0
 44 43  1  6  0  0  0
 46 45  1  0  0  0  0
 47 50  2  0  0  0  0
 47 48  1  0  0  0  0
 48 46  2  0  0  0  0
 49 44  1  0  0  0  0
 49 45  2  0  0  0  0
 50 49  1  0  0  0  0
M  END
>  <MODEL>
8

>  <REMARK>
 VINA RESULT:      -6.3      4.615      9.258
  Name = 
  10 active torsions:
  status: ('A' for Active; 'I' for Inactive)
    1  A    between atoms: C_1  and  C_12
    2  A    between atoms: C_6  and  C_35
    3  A    between atoms: C_12  and  C_24
    4  A    between atoms: C_16  and  C_28
    5  A    between atoms: C_16  and  C_32
    6  A    between atoms: C_17  and  C_28
    7  A    between atoms: C_18  and  C_27
    8  A    between atoms: C_18  and  C_50
    9  A    between atoms: C_24  and  C_50
   10  A    between atoms: C_25  and  C_42
                            x       y       z     vdW  Elec       q    Type
                         _______ _______ _______ _____ _____    ______ ____

>  <TORSDO>
F 10

$$$$
=
 OpenBabel11072410403D

 50 56  0  0  1  0  0  0  0  0999 V2000
  157.6870  213.0490  152.6450 C   0  0  0  0  0  0  0  0  0  0  0  0
  160.0210  213.2160  152.0360 C   0  0  0  0  0  3  0  0  0  0  0  0
  158.3310  213.1270  150.2940 C   0  0  0  0  0  0  0  0  0  0  0  0
  156.6580  212.9470  153.5690 O   0  0  0  0  0  1  0  0  0  0  0  0
  157.3580  213.0750  151.2970 C   0  0  0  0  0  3  0  0  0  0  0  0
  159.7030  213.1860  150.6700 C   0  0  0  0  0  0  0  0  0  0  0  0
  159.0420  213.1360  153.0340 C   0  0  0  0  0  0  0  0  0  0  0  0
  158.8970  214.4360  143.1180 O   0  0  0  0  0  0  0  0  0  0  0  0
  158.5380  214.1780  147.9330 C   0  0  1  0  0  3  0  0  0  0  0  0
  156.2470  214.3960  147.7530 O   0  0  0  0  0  0  0  0  0  0  0  0
  156.4130  213.8250  148.9600 O   0  0  0  0  0  0  0  0  0  0  0  0
  158.8820  213.4850  145.8600 C   0  0  0  0  0  0  0  0  0  0  0  0
  159.5020  212.8690  144.7310 N   0  0  0  0  0  2  0  0  0  0  0  0
  157.7530  213.3330  148.9180 C   0  0  2  0  0  3  0  0  0  0  0  0
  157.5780  214.0500  145.8310 N   0  0  0  0  0  0  0  0  0  0  0  0
  159.2820  213.2740  143.3790 C   0  0  0  0  0  0  0  0  0  0  0  0
  159.4720  212.3050  142.2650 C   0  0  0  0  0  1  0  0  0  0  0  0
  159.4240  213.4430  147.0460 N   0  0  0  0  0  0  0  0  0  0  0  0
  157.4230  214.4230  147.0600 C   0  0  0  0  0  0  0  0  0  0  0  0
  162.0020  212.0640  147.8960 C   0  0  0  0  0  3  0  0  0  0  0  0
  161.3990  214.4020  149.2990 C   0  0  0  0  0  3  0  0  0  0  0  0
  163.3250  213.3370  146.3380 O   0  0  0  0  0  1  0  0  0  0  0  0
  160.8420  213.1840  149.7260 C   0  0  0  0  0  0  0  0  0  0  0  0
  162.4970  213.2870  147.4520 C   0  0  0  0  0  0  0  0  0  0  0  0
  162.2480  214.4480  148.1870 C   0  0  0  0  0  3  0  0  0  0  0  0
  161.1590  212.0190  149.0080 C   0  0  0  0  0  3  0  0  0  0  0  0
  159.4800  213.3540  154.4660 C   0  0  1  0  0  3  0  0  0  0  0  0
  158.4160  213.6020  155.3400 O   0  0  0  0  0  1  0  0  0  0  0  0
  160.3650  212.2520  155.0370 C   0  0  0  0  0  2  0  0  0  0  0  0
  159.8050  210.9360  154.5310 C   0  0  0  0  0  2  0  0  0  0  0  0
  160.7730  210.1880  153.6260 C   0  0  0  0  0  2  0  0  0  0  0  0
  160.1860  208.8780  153.0910 C   0  0  2  0  0  3  0  0  0  0  0  0
  162.1740  208.9980  151.3270 C   0  0  0  0  0  2  0  0  0  0  0  0
  160.4460  206.6010  153.6260 F   0  0  0  0  0  0  0  0  0  0  0  0
  161.9770  209.0300  149.8130 C   0  0  0  0  0  2  0  0  0  0  0  0
  161.1760  207.7520  153.3760 C   0  0  1  0  0  3  0  0  0  0  0  0
  161.1850  206.6530  150.3280 C   0  0  2  0  0  3  0  0  0  0  0  0
  160.9830  208.2370  151.9550 C   0  0  1  0  0  0  0  0  0  0  0  0
  160.2490  207.3360  151.1470 O   0  0  0  0  0  0  0  0  0  0  0  0
  161.7300  207.6140  149.2560 C   0  0  0  0  0  2  0  0  0  0  0  0
  159.9460  204.6200  150.6530 O   0  0  0  0  0  1  0  0  0  0  0  0
  160.5810  205.4070  149.6830 C   0  0  2  0  0  3  0  0  0  0  0  0
  161.7330  203.1640  149.5650 C   0  0  0  0  0  1  0  0  0  0  0  0
  161.6740  204.5760  148.9850 C   0  0  1  0  0  3  0  0  0  0  0  0
  161.4100  205.7010  146.7540 C   0  0  0  0  0  3  0  0  0  0  0  0
  161.2120  205.6050  145.3750 C   0  0  0  0  0  3  0  0  0  0  0  0
  161.1820  203.2460  145.5240 C   0  0  0  0  0  3  0  0  0  0  0  0
  161.1160  204.3790  144.7860 N   0  0  0  0  0  0  0  0  0  0  0  0
  161.4930  204.5150  147.5040 C   0  0  0  0  0  0  0  0  0  0  0  0
  161.3590  203.3130  146.8720 N   0  0  0  0  0  0  0  0  0  0  0  0
  1  7  1  0  0  0  0
  1  4  1  0  0  0  0
  2  7  2  0  0  0  0
  3  6  2  0  0  0  0
  3  5  1  0  0  0  0
  5  1  2  0  0  0  0
  6  2  1  0  0  0  0
  7 27  1  0  0  0  0
  8 16  2  0  0  0  0
  9 18  1  6  0  0  0
  9 14  1  0  0  0  0
 10 11  1  0  0  0  0
 12 18  2  0  0  0  0
 13 12  1  0  0  0  0
 14 11  1  0  0  0  0
 14  3  1  1  0  0  0
 15 12  1  0  0  0  0
 15 19  2  0  0  0  0
 16 13  1  0  0  0  0
 17 16  1  0  0  0  0
 19 10  1  0  0  0  0
 19  9  1  0  0  0  0
 20 26  1  0  0  0  0
 21 23  1  0  0  0  0
 22 24  1  0  0  0  0
 23  6  1  0  0  0  0
 24 20  2  0  0  0  0
 24 25  1  0  0  0  0
 25 21  2  0  0  0  0
 26 23  2  0  0  0  0
 27 29  1  0  0  0  0
 27 28  1  1  0  0  0
 30 29  1  0  0  0  0
 31 30  1  0  0  0  0
 32 36  1  0  0  0  0
 32 31  1  1  0  0  0
 35 33  1  0  0  0  0
 36 34  1  6  0  0  0
 37 42  1  6  0  0  0
 37 39  1  0  0  0  0
 38 33  1  6  0  0  0
 38 32  1  0  0  0  0
 38 36  1  0  0  0  0
 39 38  1  0  0  0  0
 40 35  1  0  0  0  0
 40 37  1  0  0  0  0
 42 41  1  1  0  0  0
 44 43  1  1  0  0  0
 44 42  1  0  0  0  0
 45 49  1  0  0  0  0
 46 45  2  0  0  0  0
 47 50  1  0  0  0  0
 48 46  1  0  0  0  0
 48 47  2  0  0  0  0
 49 44  1  0  0  0  0
 50 49  2  0  0  0  0
M  END
>  <MODEL>
9

>  <REMARK>
 VINA RESULT:      -6.1      2.152      4.763
  Name = 
  10 active torsions:
  status: ('A' for Active; 'I' for Inactive)
    1  A    between atoms: C_1  and  C_12
    2  A    between atoms: C_6  and  C_35
    3  A    between atoms: C_12  and  C_24
    4  A    between atoms: C_16  and  C_28
    5  A    between atoms: C_16  and  C_32
    6  A    between atoms: C_17  and  C_28
    7  A    between atoms: C_18  and  C_27
    8  A    between atoms: C_18  and  C_50
    9  A    between atoms: C_24  and  C_50
   10  A    between atoms: C_25  and  C_42
                            x       y       z     vdW  Elec       q    Type
                         _______ _______ _______ _____ _____    ______ ____

>  <TORSDO>
F 10

$$$$
