=
 OpenBabel11072410533D

 40 42  0  0  1  0  0  0  0  0999 V2000
  158.6200  211.4030  154.4230 C   0  0  0  0  0  0  0  0  0  0  0  0
  158.0270  210.7890  155.4600 C   0  0  0  0  0  2  0  0  0  0  0  0
  155.9440  213.8720  153.1620 C   0  0  0  0  0  2  0  0  0  0  0  0
  158.7140  213.0680  152.5200 C   0  0  0  0  0  2  0  0  0  0  0  0
  156.5510  212.5890  153.7220 C   0  0  0  0  0  2  0  0  0  0  0  0
  157.9080  213.9750  151.6210 C   0  0  0  0  0  0  0  0  0  0  0  0
  158.0740  212.7220  153.8830 C   0  0  1  0  0  0  0  0  0  0  0  0
  156.6370  214.3000  151.9070 C   0  0  0  0  0  3  0  0  0  0  0  0
  159.4070  213.4960  155.7550 F   0  0  0  0  0  0  0  0  0  0  0  0
  158.4290  213.8650  154.8450 C   0  0  0  0  0  2  0  0  0  0  0  0
  158.5450  214.4510  150.4640 O   0  0  0  0  0  0  0  0  0  0  0  0
  157.9120  212.6250  147.2760 C   0  0  0  0  0  0  0  0  0  0  0  0
  160.0610  213.4000  148.8980 C   0  0  0  0  0  0  0  0  0  0  0  0
  161.1070  213.7890  149.7290 O   0  0  0  0  0  1  0  0  0  0  0  0
  156.8720  212.2540  146.4900 F   0  0  0  0  0  0  0  0  0  0  0  0
  159.2130  212.2750  146.9210 C   0  0  0  0  0  3  0  0  0  0  0  0
  160.3000  212.6560  147.7150 C   0  0  0  0  0  0  0  0  0  0  0  0
  158.7490  213.7480  149.2610 C   0  0  0  0  0  0  0  0  0  0  0  0
  157.6800  213.3540  148.4410 C   0  0  0  0  0  3  0  0  0  0  0  0
  162.4200  213.0530  146.4470 C   0  0  0  0  0  1  0  0  0  0  0  0
  161.5760  212.2680  147.2800 O   0  0  0  0  0  0  0  0  0  0  0  0
  159.9770  210.9190  153.9450 C   0  0  2  0  0  3  0  0  0  0  0  0
  160.2170  209.0490  152.8900 C   0  0  2  0  0  3  0  0  0  0  0  0
  159.9480  210.4940  152.4820 C   0  0  0  0  0  2  0  0  0  0  0  0
  160.2730  209.4810  154.3620 C   0  0  1  0  0  3  0  0  0  0  0  0
  161.5340  208.5510  152.2990 C   0  0  0  0  0  2  0  0  0  0  0  0
  161.2720  207.5090  151.2050 C   0  0  1  0  0  3  0  0  0  0  0  0
  161.9270  207.9480  149.8710 C   0  0  1  0  0  0  0  0  0  0  0  0
  162.0660  209.4700  149.8240 C   0  0  0  0  0  1  0  0  0  0  0  0
  163.1960  207.3710  149.7640 O   0  0  0  0  0  1  0  0  0  0  0  0
  161.0940  207.4930  148.7520 N   0  0  0  0  0  2  0  0  0  0  0  0
  161.8760  206.7200  147.8790 N   0  0  0  0  0  2  0  0  0  0  0  0
  160.9930  206.2560  146.8240 C   0  0  0  0  0  1  0  0  0  0  0  0
  161.6870  206.0870  151.6660 C   0  0  1  0  0  3  0  0  0  0  0  0
  161.7350  205.9470  153.1830 C   0  0  0  0  0  1  0  0  0  0  0  0
  161.5060  204.1270  150.2790 O   0  0  0  0  0  1  0  0  0  0  0  0
  160.7810  204.9980  151.0980 C   0  0  0  0  0  2  0  0  0  0  0  0
  161.6210  209.3100  155.0930 C   0  0  0  0  0  2  0  0  0  0  0  0
  161.6580  208.1940  156.1350 C   0  0  0  0  0  2  0  0  0  0  0  0
  160.3030  207.5250  156.2320 C   0  0  0  0  0  1  0  0  0  0  0  0
  1  2  2  0  0  0  0
  3  5  1  0  0  0  0
  4  7  1  0  0  0  0
  5  7  1  0  0  0  0
  6  8  2  0  0  0  0
  6  4  1  0  0  0  0
  7  1  1  0  0  0  0
  7 10  1  1  0  0  0
  8  3  1  0  0  0  0
 10  9  1  0  0  0  0
 11  6  1  0  0  0  0
 12 19  1  0  0  0  0
 13 18  1  0  0  0  0
 13 14  1  0  0  0  0
 15 12  1  0  0  0  0
 16 12  2  0  0  0  0
 16 17  1  0  0  0  0
 17 13  2  0  0  0  0
 18 11  1  0  0  0  0
 19 18  2  0  0  0  0
 20 21  1  0  0  0  0
 21 17  1  0  0  0  0
 22 25  1  0  0  0  0
 22  1  1  1  0  0  0
 23 26  1  6  0  0  0
 23 25  1  0  0  0  0
 24 23  1  0  0  0  0
 24 22  1  0  0  0  0
 25 38  1  6  0  0  0
 27 34  1  0  0  0  0
 27 26  1  1  0  0  0
 28 29  1  6  0  0  0
 28 27  1  0  0  0  0
 30 28  1  0  0  0  0
 31 28  1  0  0  0  0
 32 31  1  0  0  0  0
 33 32  1  0  0  0  0
 34 35  1  1  0  0  0
 36 37  1  0  0  0  0
 37 34  1  0  0  0  0
 38 39  1  0  0  0  0
 39 40  1  0  0  0  0
M  END
>  <MODEL>
1

>  <REMARK>
 VINA RESULT:      -5.9      0.000      0.000
  Name = 
  15 active torsions:
  status: ('A' for Active; 'I' for Inactive)
    1  A    between atoms: C_1  and  C_10
    2  A    between atoms: C_1  and  C_28
    3  A    between atoms: C_7  and  C_8
    4  A    between atoms: C_7  and  C_24
    5  A    between atoms: C_7  and  C_30
    6  A    between atoms: C_8  and  C_32
    7  A    between atoms: C_14  and  O_15
    8  A    between atoms: C_16  and  C_24
    9  A    between atoms: N_18  and  N_34
   10  A    between atoms: C_19  and  C_28
   11  A    between atoms: C_22  and  C_29
   12  A    between atoms: C_23  and  O_38
   13  A    between atoms: C_25  and  O_38
   14  A    between atoms: C_29  and  C_35
   15  A    between atoms: C_30  and  N_34
                            x       y       z     vdW  Elec       q    Type
                         _______ _______ _______ _____ _____    ______ ____

>  <TORSDO>
F 15

$$$$
=
 OpenBabel11072410533D

 40 42  0  0  1  0  0  0  0  0999 V2000
  161.2200  206.9690  152.5210 C   0  0  0  0  0  0  0  0  0  0  0  0
  160.4850  206.1740  153.3160 C   0  0  0  0  0  2  0  0  0  0  0  0
  160.9060  206.9310  148.6810 C   0  0  0  0  0  2  0  0  0  0  0  0
  161.3390  205.0290  150.9010 C   0  0  0  0  0  2  0  0  0  0  0  0
  160.6400  207.3250  150.1300 C   0  0  0  0  0  2  0  0  0  0  0  0
  161.0670  204.5710  149.4880 C   0  0  0  0  0  0  0  0  0  0  0  0
  161.5520  206.5480  151.0930 C   0  0  1  0  0  0  0  0  0  0  0  0
  160.8340  205.4470  148.4970 C   0  0  0  0  0  3  0  0  0  0  0  0
  163.8760  206.0920  151.6110 F   0  0  0  0  0  0  0  0  0  0  0  0
  163.0320  206.8300  150.7980 C   0  0  0  0  0  2  0  0  0  0  0  0
  161.0550  203.1860  149.2610 O   0  0  0  0  0  0  0  0  0  0  0  0
  160.6960  202.5450  145.6060 C   0  0  0  0  0  0  0  0  0  0  0  0
  161.2240  201.1430  147.9740 C   0  0  0  0  0  0  0  0  0  0  0  0
  161.4740  200.4730  149.1680 O   0  0  0  0  0  1  0  0  0  0  0  0
  160.4460  203.2240  144.4610 F   0  0  0  0  0  0  0  0  0  0  0  0
  160.8890  201.1650  145.5700 C   0  0  0  0  0  3  0  0  0  0  0  0
  161.1580  200.4480  146.7410 C   0  0  0  0  0  0  0  0  0  0  0  0
  161.0240  202.5340  148.0140 C   0  0  0  0  0  0  0  0  0  0  0  0
  160.7590  203.2250  146.8210 C   0  0  0  0  0  3  0  0  0  0  0  0
  161.3830  198.3640  145.3760 C   0  0  0  0  0  1  0  0  0  0  0  0
  161.3460  199.0640  146.6130 O   0  0  0  0  0  0  0  0  0  0  0  0
  161.5110  208.3950  152.9530 C   0  0  2  0  0  3  0  0  0  0  0  0
  159.9420  209.8650  153.1720 C   0  0  2  0  0  3  0  0  0  0  0  0
  160.6020  208.8430  154.0910 C   0  0  0  0  0  2  0  0  0  0  0  0
  160.8750  209.4330  152.0320 C   0  0  1  0  0  3  0  0  0  0  0  0
  160.1530  211.2850  153.6950 C   0  0  0  0  0  2  0  0  0  0  0  0
  158.8070  212.0000  153.8610 C   0  0  1  0  0  3  0  0  0  0  0  0
  158.4750  212.1840  155.3650 C   0  0  1  0  0  0  0  0  0  0  0  0
  159.7210  211.9440  156.2160 C   0  0  0  0  0  1  0  0  0  0  0  0
  158.0160  213.4860  155.5840 O   0  0  0  0  0  1  0  0  0  0  0  0
  157.4250  211.2320  155.7460 N   0  0  0  0  0  2  0  0  0  0  0  0
  156.3510  211.3460  154.8490 N   0  0  0  0  0  2  0  0  0  0  0  0
  155.3940  210.3150  155.2090 C   0  0  0  0  0  1  0  0  0  0  0  0
  158.7610  213.3200  153.0470 C   0  0  1  0  0  3  0  0  0  0  0  0
  159.7940  213.3590  151.9260 C   0  0  0  0  0  1  0  0  0  0  0  0
  157.4580  213.7480  151.0690 O   0  0  0  0  0  1  0  0  0  0  0  0
  157.3820  213.5970  152.4570 C   0  0  0  0  0  2  0  0  0  0  0  0
  161.8690  210.4880  151.5020 C   0  0  0  0  0  2  0  0  0  0  0  0
  162.2130  210.3700  150.0190 C   0  0  0  0  0  2  0  0  0  0  0  0
  161.8370  211.6450  149.2930 C   0  0  0  0  0  1  0  0  0  0  0  0
  1  2  2  0  0  0  0
  3  5  1  0  0  0  0
  4  7  1  0  0  0  0
  5  7  1  0  0  0  0
  6  4  1  0  0  0  0
  7 10  1  6  0  0  0
  7  1  1  0  0  0  0
  8  3  1  0  0  0  0
  8  6  2  0  0  0  0
 10  9  1  0  0  0  0
 11  6  1  0  0  0  0
 12 19  1  0  0  0  0
 13 18  1  0  0  0  0
 13 14  1  0  0  0  0
 15 12  1  0  0  0  0
 16 12  2  0  0  0  0
 16 17  1  0  0  0  0
 17 13  2  0  0  0  0
 18 11  1  0  0  0  0
 19 18  2  0  0  0  0
 20 21  1  0  0  0  0
 21 17  1  0  0  0  0
 22  1  1  6  0  0  0
 22 24  1  0  0  0  0
 23 26  1  1  0  0  0
 23 24  1  0  0  0  0
 25 38  1  1  0  0  0
 25 22  1  0  0  0  0
 25 23  1  0  0  0  0
 27 26  1  1  0  0  0
 27 28  1  0  0  0  0
 28 30  1  0  0  0  0
 28 31  1  0  0  0  0
 28 29  1  1  0  0  0
 32 33  1  0  0  0  0
 32 31  1  0  0  0  0
 34 35  1  6  0  0  0
 34 27  1  0  0  0  0
 36 37  1  0  0  0  0
 37 34  1  0  0  0  0
 39 38  1  0  0  0  0
 40 39  1  0  0  0  0
M  END
>  <MODEL>
2

>  <REMARK>
 VINA RESULT:      -5.2      4.081      9.144
  Name = 
  15 active torsions:
  status: ('A' for Active; 'I' for Inactive)
    1  A    between atoms: C_1  and  C_10
    2  A    between atoms: C_1  and  C_28
    3  A    between atoms: C_7  and  C_8
    4  A    between atoms: C_7  and  C_24
    5  A    between atoms: C_7  and  C_30
    6  A    between atoms: C_8  and  C_32
    7  A    between atoms: C_14  and  O_15
    8  A    between atoms: C_16  and  C_24
    9  A    between atoms: N_18  and  N_34
   10  A    between atoms: C_19  and  C_28
   11  A    between atoms: C_22  and  C_29
   12  A    between atoms: C_23  and  O_38
   13  A    between atoms: C_25  and  O_38
   14  A    between atoms: C_29  and  C_35
   15  A    between atoms: C_30  and  N_34
                            x       y       z     vdW  Elec       q    Type
                         _______ _______ _______ _____ _____    ______ ____

>  <TORSDO>
F 15

$$$$
=
 OpenBabel11072410533D

 40 42  0  0  1  0  0  0  0  0999 V2000
  161.1330  209.0280  152.4450 C   0  0  0  0  0  0  0  0  0  0  0  0
  161.9060  209.7010  151.5760 C   0  0  0  0  0  2  0  0  0  0  0  0
  162.8240  205.5760  152.7200 C   0  0  0  0  0  2  0  0  0  0  0  0
  160.5780  206.8500  151.2820 C   0  0  0  0  0  2  0  0  0  0  0  0
  162.6800  207.0930  152.6510 C   0  0  0  0  0  2  0  0  0  0  0  0
  161.0640  205.4600  150.9490 C   0  0  0  0  0  0  0  0  0  0  0  0
  161.2050  207.5060  152.5330 C   0  0  1  0  0  0  0  0  0  0  0  0
  162.1110  204.9090  151.5860 C   0  0  0  0  0  3  0  0  0  0  0  0
  161.0880  207.1840  154.9340 F   0  0  0  0  0  0  0  0  0  0  0  0
  160.3970  207.0160  153.7440 C   0  0  0  0  0  2  0  0  0  0  0  0
  160.3810  204.7740  149.9330 O   0  0  0  0  0  0  0  0  0  0  0  0
  161.7930  205.2480  146.5160 C   0  0  0  0  0  0  0  0  0  0  0  0
  160.7210  203.2130  148.1160 C   0  0  0  0  0  0  0  0  0  0  0  0
  160.1740  202.2250  148.9300 O   0  0  0  0  0  1  0  0  0  0  0  0
  162.3150  206.2310  145.7440 F   0  0  0  0  0  0  0  0  0  0  0  0
  161.6650  203.9570  146.0070 C   0  0  0  0  0  3  0  0  0  0  0  0
  161.1370  202.9260  146.7920 C   0  0  0  0  0  0  0  0  0  0  0  0
  160.8420  204.5160  148.6290 C   0  0  0  0  0  0  0  0  0  0  0  0
  161.3800  205.5270  147.8170 C   0  0  0  0  0  3  0  0  0  0  0  0
  160.1440  201.3050  145.1650 C   0  0  0  0  0  1  0  0  0  0  0  0
  161.0510  201.6550  146.2030 O   0  0  0  0  0  0  0  0  0  0  0  0
  160.3720  209.7910  153.5130 C   0  0  2  0  0  3  0  0  0  0  0  0
  160.0890  211.9300  153.4070 C   0  0  2  0  0  3  0  0  0  0  0  0
  159.3160  210.7110  152.9130 C   0  0  0  0  0  2  0  0  0  0  0  0
  161.1390  211.0030  154.0350 C   0  0  1  0  0  3  0  0  0  0  0  0
  159.2530  212.7430  154.3930 C   0  0  0  0  0  2  0  0  0  0  0  0
  157.8670  213.0380  153.8080 C   0  0  1  0  0  3  0  0  0  0  0  0
  156.8630  213.3770  154.9390 C   0  0  1  0  0  0  0  0  0  0  0  0
  157.5460  214.2110  156.0220 C   0  0  0  0  0  1  0  0  0  0  0  0
  155.7930  214.1040  154.4090 O   0  0  0  0  0  1  0  0  0  0  0  0
  156.3550  212.1290  155.5230 N   0  0  0  0  0  2  0  0  0  0  0  0
  155.8690  211.3040  154.4960 N   0  0  0  0  0  2  0  0  0  0  0  0
  155.2690  210.1480  155.1370 C   0  0  0  0  0  1  0  0  0  0  0  0
  157.9390  214.1160  152.6940 C   0  0  1  0  0  3  0  0  0  0  0  0
  159.3690  214.4530  152.2900 C   0  0  0  0  0  1  0  0  0  0  0  0
  158.0160  213.2970  150.4310 O   0  0  0  0  0  1  0  0  0  0  0  0
  157.1540  213.7240  151.4460 C   0  0  0  0  0  2  0  0  0  0  0  0
  161.2770  211.0380  155.5720 C   0  0  0  0  0  2  0  0  0  0  0  0
  162.6500  210.6450  156.1100 C   0  0  0  0  0  2  0  0  0  0  0  0
  162.5330  209.4230  156.9980 C   0  0  0  0  0  1  0  0  0  0  0  0
  1  7  1  0  0  0  0
  2  1  2  0  0  0  0
  4  7  1  0  0  0  0
  5  3  1  0  0  0  0
  6  4  1  0  0  0  0
  6  8  2  0  0  0  0
  7  5  1  0  0  0  0
  7 10  1  1  0  0  0
  8  3  1  0  0  0  0
 10  9  1  0  0  0  0
 11  6  1  0  0  0  0
 12 19  1  0  0  0  0
 13 18  1  0  0  0  0
 13 14  1  0  0  0  0
 15 12  1  0  0  0  0
 16 12  2  0  0  0  0
 16 17  1  0  0  0  0
 17 13  2  0  0  0  0
 18 11  1  0  0  0  0
 19 18  2  0  0  0  0
 20 21  1  0  0  0  0
 21 17  1  0  0  0  0
 22  1  1  6  0  0  0
 22 25  1  0  0  0  0
 23 25  1  0  0  0  0
 23 26  1  1  0  0  0
 24 23  1  0  0  0  0
 24 22  1  0  0  0  0
 25 38  1  1  0  0  0
 27 26  1  1  0  0  0
 27 28  1  0  0  0  0
 28 31  1  0  0  0  0
 28 29  1  1  0  0  0
 30 28  1  0  0  0  0
 32 33  1  0  0  0  0
 32 31  1  0  0  0  0
 34 35  1  6  0  0  0
 34 27  1  0  0  0  0
 36 37  1  0  0  0  0
 37 34  1  0  0  0  0
 38 39  1  0  0  0  0
 39 40  1  0  0  0  0
M  END
>  <MODEL>
3

>  <REMARK>
 VINA RESULT:      -4.9      3.631      8.257
  Name = 
  15 active torsions:
  status: ('A' for Active; 'I' for Inactive)
    1  A    between atoms: C_1  and  C_10
    2  A    between atoms: C_1  and  C_28
    3  A    between atoms: C_7  and  C_8
    4  A    between atoms: C_7  and  C_24
    5  A    between atoms: C_7  and  C_30
    6  A    between atoms: C_8  and  C_32
    7  A    between atoms: C_14  and  O_15
    8  A    between atoms: C_16  and  C_24
    9  A    between atoms: N_18  and  N_34
   10  A    between atoms: C_19  and  C_28
   11  A    between atoms: C_22  and  C_29
   12  A    between atoms: C_23  and  O_38
   13  A    between atoms: C_25  and  O_38
   14  A    between atoms: C_29  and  C_35
   15  A    between atoms: C_30  and  N_34
                            x       y       z     vdW  Elec       q    Type
                         _______ _______ _______ _____ _____    ______ ____

>  <TORSDO>
F 15

$$$$
=
 OpenBabel11072410533D

 40 42  0  0  1  0  0  0  0  0999 V2000
  161.4330  206.8340  153.6360 C   0  0  0  0  0  0  0  0  0  0  0  0
  162.5860  206.1810  153.8600 C   0  0  0  0  0  2  0  0  0  0  0  0
  159.0920  208.7890  155.9910 C   0  0  0  0  0  2  0  0  0  0  0  0
  160.9710  209.3180  153.7720 C   0  0  0  0  0  2  0  0  0  0  0  0
  159.5970  207.6660  155.0900 C   0  0  0  0  0  2  0  0  0  0  0  0
  160.0540  210.3830  154.3240 C   0  0  0  0  0  0  0  0  0  0  0  0
  160.9990  207.9800  154.5450 C   0  0  1  0  0  0  0  0  0  0  0  0
  159.1790  210.1180  155.3070 C   0  0  0  0  0  3  0  0  0  0  0  0
  162.4150  209.4650  155.8370 F   0  0  0  0  0  0  0  0  0  0  0  0
  162.0100  208.1490  155.6890 C   0  0  0  0  0  2  0  0  0  0  0  0
  160.1490  211.6620  153.7520 O   0  0  0  0  0  0  0  0  0  0  0  0
  156.9940  213.6470  153.8050 C   0  0  0  0  0  0  0  0  0  0  0  0
  159.0320  212.9310  152.0200 C   0  0  0  0  0  0  0  0  0  0  0  0
  160.0530  212.5500  151.1550 O   0  0  0  0  0  1  0  0  0  0  0  0
  156.0120  213.9960  154.6690 F   0  0  0  0  0  0  0  0  0  0  0  0
  156.9420  214.0760  152.4800 C   0  0  0  0  0  3  0  0  0  0  0  0
  157.9520  213.7330  151.5750 C   0  0  0  0  0  0  0  0  0  0  0  0
  159.0840  212.4920  153.3540 C   0  0  0  0  0  0  0  0  0  0  0  0
  158.0560  212.8560  154.2390 C   0  0  0  0  0  3  0  0  0  0  0  0
  157.5670  213.4000  149.1250 C   0  0  0  0  0  1  0  0  0  0  0  0
  157.8240  214.2130  150.2630 O   0  0  0  0  0  0  0  0  0  0  0  0
  160.6840  206.6030  152.3370 C   0  0  2  0  0  3  0  0  0  0  0  0
  161.3310  205.1350  150.8900 C   0  0  2  0  0  3  0  0  0  0  0  0
  160.4010  205.1250  152.0980 C   0  0  0  0  0  2  0  0  0  0  0  0
  161.5970  206.6300  151.1150 C   0  0  1  0  0  3  0  0  0  0  0  0
  160.5720  204.7840  149.6120 C   0  0  0  0  0  2  0  0  0  0  0  0
  161.3690  203.7800  148.7720 C   0  0  1  0  0  3  0  0  0  0  0  0
  160.7680  202.3580  148.9150 C   0  0  1  0  0  0  0  0  0  0  0  0
  161.5550  201.5510  149.9480 C   0  0  0  0  0  1  0  0  0  0  0  0
  159.4370  202.4550  149.3300 O   0  0  0  0  0  1  0  0  0  0  0  0
  160.8200  201.6800  147.6140 N   0  0  0  0  0  2  0  0  0  0  0  0
  161.4970  200.4580  147.7570 N   0  0  0  0  0  2  0  0  0  0  0  0
  161.3470  199.7470  146.5010 C   0  0  0  0  0  1  0  0  0  0  0  0
  161.5070  204.2530  147.3010 C   0  0  1  0  0  3  0  0  0  0  0  0
  160.7380  205.5380  147.0200 C   0  0  0  0  0  1  0  0  0  0  0  0
  163.0680  204.5340  145.4900 O   0  0  0  0  0  1  0  0  0  0  0  0
  162.9610  204.4470  146.8810 C   0  0  0  0  0  2  0  0  0  0  0  0
  161.1280  207.5990  150.0080 C   0  0  0  0  0  2  0  0  0  0  0  0
  162.2300  208.1160  149.0870 C   0  0  0  0  0  2  0  0  0  0  0  0
  162.0500  209.5990  148.8380 C   0  0  0  0  0  1  0  0  0  0  0  0
  1  2  2  0  0  0  0
  1  7  1  0  0  0  0
  4  6  1  0  0  0  0
  4  7  1  0  0  0  0
  5  3  1  0  0  0  0
  6  8  2  0  0  0  0
  7  5  1  0  0  0  0
  7 10  1  1  0  0  0
  8  3  1  0  0  0  0
 10  9  1  0  0  0  0
 11  6  1  0  0  0  0
 12 19  1  0  0  0  0
 12 15  1  0  0  0  0
 13 18  1  0  0  0  0
 14 13  1  0  0  0  0
 16 12  2  0  0  0  0
 17 13  2  0  0  0  0
 17 16  1  0  0  0  0
 18 11  1  0  0  0  0
 18 19  2  0  0  0  0
 20 21  1  0  0  0  0
 21 17  1  0  0  0  0
 22  1  1  1  0  0  0
 23 26  1  6  0  0  0
 23 25  1  0  0  0  0
 23 24  1  0  0  0  0
 24 22  1  0  0  0  0
 25 38  1  6  0  0  0
 25 22  1  0  0  0  0
 27 28  1  0  0  0  0
 27 26  1  1  0  0  0
 28 30  1  0  0  0  0
 28 29  1  1  0  0  0
 31 32  1  0  0  0  0
 31 28  1  0  0  0  0
 33 32  1  0  0  0  0
 34 35  1  1  0  0  0
 34 27  1  0  0  0  0
 36 37  1  0  0  0  0
 37 34  1  0  0  0  0
 39 38  1  0  0  0  0
 40 39  1  0  0  0  0
M  END
>  <MODEL>
4

>  <REMARK>
 VINA RESULT:      -4.8      2.644      5.695
  Name = 
  15 active torsions:
  status: ('A' for Active; 'I' for Inactive)
    1  A    between atoms: C_1  and  C_10
    2  A    between atoms: C_1  and  C_28
    3  A    between atoms: C_7  and  C_8
    4  A    between atoms: C_7  and  C_24
    5  A    between atoms: C_7  and  C_30
    6  A    between atoms: C_8  and  C_32
    7  A    between atoms: C_14  and  O_15
    8  A    between atoms: C_16  and  C_24
    9  A    between atoms: N_18  and  N_34
   10  A    between atoms: C_19  and  C_28
   11  A    between atoms: C_22  and  C_29
   12  A    between atoms: C_23  and  O_38
   13  A    between atoms: C_25  and  O_38
   14  A    between atoms: C_29  and  C_35
   15  A    between atoms: C_30  and  N_34
                            x       y       z     vdW  Elec       q    Type
                         _______ _______ _______ _____ _____    ______ ____

>  <TORSDO>
F 15

$$$$
=
 OpenBabel11072410533D

 40 42  0  0  1  0  0  0  0  0999 V2000
  160.3400  207.9380  155.0610 C   0  0  0  0  0  0  0  0  0  0  0  0
  159.4100  207.1660  155.6470 C   0  0  0  0  0  2  0  0  0  0  0  0
  159.4500  211.2310  156.8520 C   0  0  0  0  0  2  0  0  0  0  0  0
  160.3730  210.3160  154.1980 C   0  0  0  0  0  2  0  0  0  0  0  0
  159.3750  209.7620  156.4450 C   0  0  0  0  0  2  0  0  0  0  0  0
  159.9280  211.7370  154.4520 C   0  0  0  0  0  0  0  0  0  0  0  0
  160.4850  209.4080  155.4430 C   0  0  1  0  0  0  0  0  0  0  0  0
  159.4750  212.1280  155.6540 C   0  0  0  0  0  3  0  0  0  0  0  0
  162.6070  210.5740  155.3180 F   0  0  0  0  0  0  0  0  0  0  0  0
  161.8740  209.6540  156.0490 C   0  0  0  0  0  2  0  0  0  0  0  0
  159.9960  212.6270  153.3690 O   0  0  0  0  0  0  0  0  0  0  0  0
  156.6490  214.0160  152.4970 C   0  0  0  0  0  0  0  0  0  0  0  0
  159.0330  213.2520  151.2390 C   0  0  0  0  0  0  0  0  0  0  0  0
  160.2250  212.8550  150.6410 O   0  0  0  0  0  1  0  0  0  0  0  0
  155.4980  214.3900  153.1070 F   0  0  0  0  0  0  0  0  0  0  0  0
  156.7650  214.1090  151.1120 C   0  0  0  0  0  3  0  0  0  0  0  0
  157.9490  213.7370  150.4650 C   0  0  0  0  0  0  0  0  0  0  0  0
  158.9150  213.1520  152.6360 C   0  0  0  0  0  0  0  0  0  0  0  0
  157.7160  213.5370  153.2550 C   0  0  0  0  0  3  0  0  0  0  0  0
  156.8540  213.7240  148.2160 C   0  0  0  0  0  1  0  0  0  0  0  0
  157.9820  213.8690  149.0690 O   0  0  0  0  0  0  0  0  0  0  0  0
  161.4120  207.2940  154.2010 C   0  0  2  0  0  3  0  0  0  0  0  0
  161.3730  207.4160  152.0440 C   0  0  2  0  0  3  0  0  0  0  0  0
  161.9690  208.2610  153.1640 C   0  0  0  0  0  2  0  0  0  0  0  0
  160.8330  206.4260  153.0860 C   0  0  1  0  0  3  0  0  0  0  0  0
  162.4670  206.8750  151.1260 C   0  0  0  0  0  2  0  0  0  0  0  0
  162.3660  207.5140  149.7360 C   0  0  1  0  0  3  0  0  0  0  0  0
  161.6250  206.5660  148.7580 C   0  0  1  0  0  0  0  0  0  0  0  0
  161.7690  205.1150  149.2150 C   0  0  0  0  0  1  0  0  0  0  0  0
  160.2690  206.9010  148.7220 O   0  0  0  0  0  1  0  0  0  0  0  0
  162.1950  206.7200  147.4140 N   0  0  0  0  0  2  0  0  0  0  0  0
  162.3980  205.4500  146.8510 N   0  0  0  0  0  2  0  0  0  0  0  0
  161.8740  205.5020  145.4980 C   0  0  0  0  0  1  0  0  0  0  0  0
  161.7520  208.9370  149.8090 C   0  0  1  0  0  3  0  0  0  0  0  0
  162.4330  209.8220  150.8470 C   0  0  0  0  0  1  0  0  0  0  0  0
  162.1390  210.9940  148.6190 O   0  0  0  0  0  1  0  0  0  0  0  0
  161.7700  209.6540  148.4620 C   0  0  0  0  0  2  0  0  0  0  0  0
  161.4040  204.9920  153.0530 C   0  0  0  0  0  2  0  0  0  0  0  0
  160.5060  203.9510  152.3890 C   0  0  0  0  0  2  0  0  0  0  0  0
  161.3460  202.8360  151.8010 C   0  0  0  0  0  1  0  0  0  0  0  0
  1  7  1  0  0  0  0
  1  2  2  0  0  0  0
  4  6  1  0  0  0  0
  4  7  1  0  0  0  0
  5  3  1  0  0  0  0
  6  8  2  0  0  0  0
  7 10  1  1  0  0  0
  7  5  1  0  0  0  0
  8  3  1  0  0  0  0
  9 10  1  0  0  0  0
 11  6  1  0  0  0  0
 12 15  1  0  0  0  0
 12 19  1  0  0  0  0
 13 18  1  0  0  0  0
 14 13  1  0  0  0  0
 16 12  2  0  0  0  0
 17 16  1  0  0  0  0
 17 13  2  0  0  0  0
 18 19  2  0  0  0  0
 18 11  1  0  0  0  0
 20 21  1  0  0  0  0
 21 17  1  0  0  0  0
 22  1  1  1  0  0  0
 23 26  1  6  0  0  0
 23 25  1  0  0  0  0
 23 24  1  0  0  0  0
 24 22  1  0  0  0  0
 25 38  1  6  0  0  0
 25 22  1  0  0  0  0
 27 34  1  0  0  0  0
 27 26  1  1  0  0  0
 28 29  1  1  0  0  0
 28 27  1  0  0  0  0
 30 28  1  0  0  0  0
 31 28  1  0  0  0  0
 32 31  1  0  0  0  0
 33 32  1  0  0  0  0
 34 35  1  1  0  0  0
 37 36  1  0  0  0  0
 37 34  1  0  0  0  0
 39 38  1  0  0  0  0
 40 39  1  0  0  0  0
M  END
>  <MODEL>
5

>  <REMARK>
 VINA RESULT:      -4.7      2.191      4.328
  Name = 
  15 active torsions:
  status: ('A' for Active; 'I' for Inactive)
    1  A    between atoms: C_1  and  C_10
    2  A    between atoms: C_1  and  C_28
    3  A    between atoms: C_7  and  C_8
    4  A    between atoms: C_7  and  C_24
    5  A    between atoms: C_7  and  C_30
    6  A    between atoms: C_8  and  C_32
    7  A    between atoms: C_14  and  O_15
    8  A    between atoms: C_16  and  C_24
    9  A    between atoms: N_18  and  N_34
   10  A    between atoms: C_19  and  C_28
   11  A    between atoms: C_22  and  C_29
   12  A    between atoms: C_23  and  O_38
   13  A    between atoms: C_25  and  O_38
   14  A    between atoms: C_29  and  C_35
   15  A    between atoms: C_30  and  N_34
                            x       y       z     vdW  Elec       q    Type
                         _______ _______ _______ _____ _____    ______ ____

>  <TORSDO>
F 15

$$$$
=
 OpenBabel11072410533D

 40 42  0  0  1  0  0  0  0  0999 V2000
  160.7630  207.4400  154.0920 C   0  0  0  0  0  0  0  0  0  0  0  0
  159.8090  207.1640  154.9970 C   0  0  0  0  0  2  0  0  0  0  0  0
  163.3880  205.6240  151.9340 C   0  0  0  0  0  2  0  0  0  0  0  0
  160.5010  206.2500  151.8750 C   0  0  0  0  0  2  0  0  0  0  0  0
  162.7810  206.6730  152.8610 C   0  0  0  0  0  2  0  0  0  0  0  0
  161.2230  205.6630  150.6860 C   0  0  0  0  0  0  0  0  0  0  0  0
  161.3150  206.3450  153.1850 C   0  0  1  0  0  0  0  0  0  0  0  0
  162.5440  205.4190  150.7150 C   0  0  0  0  0  3  0  0  0  0  0  0
  160.6590  204.0150  153.0490 F   0  0  0  0  0  0  0  0  0  0  0  0
  161.1960  204.9820  153.8820 C   0  0  0  0  0  2  0  0  0  0  0  0
  160.4530  205.3960  149.5430 O   0  0  0  0  0  0  0  0  0  0  0  0
  161.8500  205.3250  146.0880 C   0  0  0  0  0  0  0  0  0  0  0  0
  160.8290  203.5610  148.0110 C   0  0  0  0  0  0  0  0  0  0  0  0
  160.3070  202.7120  148.9810 O   0  0  0  0  0  1  0  0  0  0  0  0
  162.3490  206.1770  145.1600 F   0  0  0  0  0  0  0  0  0  0  0  0
  161.7530  203.9650  145.8030 C   0  0  0  0  0  3  0  0  0  0  0  0
  161.2500  203.0670  146.7510 C   0  0  0  0  0  0  0  0  0  0  0  0
  160.9200  204.9340  148.2980 C   0  0  0  0  0  0  0  0  0  0  0  0
  161.4330  205.8080  147.3260 C   0  0  0  0  0  3  0  0  0  0  0  0
  160.4780  201.2100  145.2630 C   0  0  0  0  0  1  0  0  0  0  0  0
  161.1940  201.7140  146.3830 O   0  0  0  0  0  0  0  0  0  0  0  0
  161.1170  208.8860  153.7970 C   0  0  2  0  0  3  0  0  0  0  0  0
  159.6700  210.2770  152.9980 C   0  0  2  0  0  3  0  0  0  0  0  0
  160.1060  209.8550  154.3970 C   0  0  0  0  0  2  0  0  0  0  0  0
  160.7070  209.3210  152.3930 C   0  0  1  0  0  3  0  0  0  0  0  0
  159.9320  211.7650  152.7710 C   0  0  0  0  0  2  0  0  0  0  0  0
  158.6100  212.5200  152.5880 C   0  0  1  0  0  3  0  0  0  0  0  0
  158.1220  213.0910  153.9440 C   0  0  1  0  0  0  0  0  0  0  0  0
  159.3140  213.4100  154.8450 C   0  0  0  0  0  1  0  0  0  0  0  0
  157.3930  214.2620  153.7200 O   0  0  0  0  0  1  0  0  0  0  0  0
  157.2570  212.1030  154.6000 N   0  0  0  0  0  2  0  0  0  0  0  0
  155.9610  212.6290  154.7160 N   0  0  0  0  0  2  0  0  0  0  0  0
  155.6470  212.6580  156.1330 C   0  0  0  0  0  1  0  0  0  0  0  0
  158.7170  213.5850  151.4650 C   0  0  1  0  0  3  0  0  0  0  0  0
  160.1020  213.6410  150.8330 C   0  0  0  0  0  1  0  0  0  0  0  0
  156.4550  213.9520  150.7250 O   0  0  0  0  0  1  0  0  0  0  0  0
  157.6800  213.3830  150.3640 C   0  0  0  0  0  2  0  0  0  0  0  0
  161.8540  209.9550  151.5770 C   0  0  0  0  0  2  0  0  0  0  0  0
  162.0580  209.3710  150.1810 C   0  0  0  0  0  2  0  0  0  0  0  0
  161.9650  210.4660  149.1390 C   0  0  0  0  0  1  0  0  0  0  0  0
  1  2  2  0  0  0  0
  3  5  1  0  0  0  0
  4  7  1  0  0  0  0
  5  7  1  0  0  0  0
  6  8  2  0  0  0  0
  6  4  1  0  0  0  0
  7 10  1  1  0  0  0
  7  1  1  0  0  0  0
  8  3  1  0  0  0  0
  9 10  1  0  0  0  0
 11  6  1  0  0  0  0
 12 19  1  0  0  0  0
 13 18  1  0  0  0  0
 13 14  1  0  0  0  0
 15 12  1  0  0  0  0
 16 12  2  0  0  0  0
 16 17  1  0  0  0  0
 17 13  2  0  0  0  0
 18 11  1  0  0  0  0
 19 18  2  0  0  0  0
 20 21  1  0  0  0  0
 21 17  1  0  0  0  0
 22  1  1  6  0  0  0
 22 24  1  0  0  0  0
 23 26  1  1  0  0  0
 23 24  1  0  0  0  0
 25 38  1  1  0  0  0
 25 23  1  0  0  0  0
 25 22  1  0  0  0  0
 27 26  1  1  0  0  0
 27 28  1  0  0  0  0
 28 31  1  0  0  0  0
 28 29  1  1  0  0  0
 30 28  1  0  0  0  0
 31 32  1  0  0  0  0
 32 33  1  0  0  0  0
 34 35  1  6  0  0  0
 34 27  1  0  0  0  0
 37 36  1  0  0  0  0
 37 34  1  0  0  0  0
 39 38  1  0  0  0  0
 40 39  1  0  0  0  0
M  END
>  <MODEL>
6

>  <REMARK>
 VINA RESULT:      -4.6      3.612      8.377
  Name = 
  15 active torsions:
  status: ('A' for Active; 'I' for Inactive)
    1  A    between atoms: C_1  and  C_10
    2  A    between atoms: C_1  and  C_28
    3  A    between atoms: C_7  and  C_8
    4  A    between atoms: C_7  and  C_24
    5  A    between atoms: C_7  and  C_30
    6  A    between atoms: C_8  and  C_32
    7  A    between atoms: C_14  and  O_15
    8  A    between atoms: C_16  and  C_24
    9  A    between atoms: N_18  and  N_34
   10  A    between atoms: C_19  and  C_28
   11  A    between atoms: C_22  and  C_29
   12  A    between atoms: C_23  and  O_38
   13  A    between atoms: C_25  and  O_38
   14  A    between atoms: C_29  and  C_35
   15  A    between atoms: C_30  and  N_34
                            x       y       z     vdW  Elec       q    Type
                         _______ _______ _______ _____ _____    ______ ____

>  <TORSDO>
F 15

$$$$
=
 OpenBabel11072410533D

 40 42  0  0  1  0  0  0  0  0999 V2000
  161.3340  207.8530  152.7390 C   0  0  0  0  0  0  0  0  0  0  0  0
  160.4850  207.1650  153.5220 C   0  0  0  0  0  2  0  0  0  0  0  0
  163.0860  207.7320  149.3100 C   0  0  0  0  0  2  0  0  0  0  0  0
  160.9160  206.3410  150.7540 C   0  0  0  0  0  2  0  0  0  0  0  0
  162.4720  208.3160  150.5790 C   0  0  0  0  0  2  0  0  0  0  0  0
  161.1780  206.1190  149.2830 C   0  0  0  0  0  0  0  0  0  0  0  0
  161.9540  207.2040  151.5050 C   0  0  1  0  0  0  0  0  0  0  0  0
  162.1430  206.7880  148.6320 C   0  0  0  0  0  3  0  0  0  0  0  0
  162.7100  204.9330  151.8900 F   0  0  0  0  0  0  0  0  0  0  0  0
  163.0920  206.2640  151.9280 C   0  0  0  0  0  2  0  0  0  0  0  0
  160.3550  205.1920  148.6240 O   0  0  0  0  0  0  0  0  0  0  0  0
  160.8980  201.6020  149.4650 C   0  0  0  0  0  0  0  0  0  0  0  0
  160.7670  203.2680  147.2160 C   0  0  0  0  0  0  0  0  0  0  0  0
  160.7070  204.1220  146.1190 O   0  0  0  0  0  1  0  0  0  0  0  0
  160.9570  200.7960  150.5520 F   0  0  0  0  0  0  0  0  0  0  0  0
  161.0960  201.0700  148.1920 C   0  0  0  0  0  3  0  0  0  0  0  0
  161.0300  201.8850  147.0570 C   0  0  0  0  0  0  0  0  0  0  0  0
  160.5730  203.8070  148.4990 C   0  0  0  0  0  0  0  0  0  0  0  0
  160.6420  202.9630  149.6180 C   0  0  0  0  0  3  0  0  0  0  0  0
  160.2310  200.5780  145.0780 C   0  0  0  0  0  1  0  0  0  0  0  0
  161.2350  201.2660  145.8140 O   0  0  0  0  0  0  0  0  0  0  0  0
  161.4850  209.3500  152.9370 C   0  0  2  0  0  3  0  0  0  0  0  0
  159.7780  210.6740  152.9840 C   0  0  2  0  0  3  0  0  0  0  0  0
  160.5580  209.8780  154.0250 C   0  0  0  0  0  2  0  0  0  0  0  0
  160.7280  210.1630  151.8910 C   0  0  1  0  0  3  0  0  0  0  0  0
  159.8520  212.1720  153.2750 C   0  0  0  0  0  2  0  0  0  0  0  0
  158.4470  212.7440  153.5000 C   0  0  1  0  0  3  0  0  0  0  0  0
  158.1900  212.9630  155.0140 C   0  0  1  0  0  0  0  0  0  0  0  0
  159.5150  213.1070  155.7610 C   0  0  0  0  0  1  0  0  0  0  0  0
  157.4360  214.1270  155.1930 O   0  0  0  0  0  1  0  0  0  0  0  0
  157.4430  211.8180  155.5460 N   0  0  0  0  0  2  0  0  0  0  0  0
  156.5460  211.3570  154.5690 N   0  0  0  0  0  2  0  0  0  0  0  0
  155.5520  210.5550  155.2580 C   0  0  0  0  0  1  0  0  0  0  0  0
  158.2050  214.0100  152.6370 C   0  0  1  0  0  3  0  0  0  0  0  0
  159.4110  214.3830  151.7830 C   0  0  0  0  0  1  0  0  0  0  0  0
  155.8080  214.1340  152.4460 O   0  0  0  0  0  1  0  0  0  0  0  0
  156.9830  213.8780  151.7330 C   0  0  0  0  0  2  0  0  0  0  0  0
  161.5980  211.2150  151.1700 C   0  0  0  0  0  2  0  0  0  0  0  0
  161.0930  211.6440  149.7940 C   0  0  0  0  0  2  0  0  0  0  0  0
  162.2220  211.5960  148.7860 C   0  0  0  0  0  1  0  0  0  0  0  0
  1  2  2  0  0  0  0
  3  5  1  0  0  0  0
  4  7  1  0  0  0  0
  5  7  1  0  0  0  0
  6  4  1  0  0  0  0
  7 10  1  1  0  0  0
  7  1  1  0  0  0  0
  8  6  2  0  0  0  0
  8  3  1  0  0  0  0
  9 10  1  0  0  0  0
 11  6  1  0  0  0  0
 12 19  1  0  0  0  0
 12 15  1  0  0  0  0
 13 18  1  0  0  0  0
 14 13  1  0  0  0  0
 16 12  2  0  0  0  0
 17 13  2  0  0  0  0
 17 16  1  0  0  0  0
 18 11  1  0  0  0  0
 18 19  2  0  0  0  0
 20 21  1  0  0  0  0
 21 17  1  0  0  0  0
 22  1  1  6  0  0  0
 22 24  1  0  0  0  0
 23 26  1  1  0  0  0
 23 24  1  0  0  0  0
 25 38  1  1  0  0  0
 25 22  1  0  0  0  0
 25 23  1  0  0  0  0
 27 26  1  1  0  0  0
 27 28  1  0  0  0  0
 28 30  1  0  0  0  0
 28 31  1  0  0  0  0
 28 29  1  1  0  0  0
 32 33  1  0  0  0  0
 32 31  1  0  0  0  0
 34 35  1  6  0  0  0
 34 27  1  0  0  0  0
 37 36  1  0  0  0  0
 37 34  1  0  0  0  0
 39 38  1  0  0  0  0
 40 39  1  0  0  0  0
M  END
>  <MODEL>
7

>  <REMARK>
 VINA RESULT:      -4.6      4.083      8.899
  Name = 
  15 active torsions:
  status: ('A' for Active; 'I' for Inactive)
    1  A    between atoms: C_1  and  C_10
    2  A    between atoms: C_1  and  C_28
    3  A    between atoms: C_7  and  C_8
    4  A    between atoms: C_7  and  C_24
    5  A    between atoms: C_7  and  C_30
    6  A    between atoms: C_8  and  C_32
    7  A    between atoms: C_14  and  O_15
    8  A    between atoms: C_16  and  C_24
    9  A    between atoms: N_18  and  N_34
   10  A    between atoms: C_19  and  C_28
   11  A    between atoms: C_22  and  C_29
   12  A    between atoms: C_23  and  O_38
   13  A    between atoms: C_25  and  O_38
   14  A    between atoms: C_29  and  C_35
   15  A    between atoms: C_30  and  N_34
                            x       y       z     vdW  Elec       q    Type
                         _______ _______ _______ _____ _____    ______ ____

>  <TORSDO>
F 15

$$$$
=
 OpenBabel11072410533D

 40 42  0  0  1  0  0  0  0  0999 V2000
  160.7930  208.2490  153.3490 C   0  0  0  0  0  0  0  0  0  0  0  0
  160.1730  207.4050  154.1920 C   0  0  0  0  0  2  0  0  0  0  0  0
  160.2360  211.5040  155.3360 C   0  0  0  0  0  2  0  0  0  0  0  0
  159.7490  210.4370  152.6230 C   0  0  0  0  0  2  0  0  0  0  0  0
  160.3230  210.0090  155.0400 C   0  0  0  0  0  2  0  0  0  0  0  0
  159.1760  211.7550  153.0870 C   0  0  0  0  0  0  0  0  0  0  0  0
  160.7490  209.7560  153.5850 C   0  0  1  0  0  0  0  0  0  0  0  0
  159.3740  212.2080  154.3350 C   0  0  0  0  0  3  0  0  0  0  0  0
  162.8230  210.6510  154.4650 F   0  0  0  0  0  0  0  0  0  0  0  0
  162.1280  210.3680  153.3000 C   0  0  0  0  0  2  0  0  0  0  0  0
  158.4140  212.4790  152.1560 O   0  0  0  0  0  0  0  0  0  0  0  0
  160.5960  213.5430  149.3270 C   0  0  0  0  0  0  0  0  0  0  0  0
  157.8770  213.4300  149.9970 C   0  0  0  0  0  0  0  0  0  0  0  0
  156.5360  213.3720  150.3620 O   0  0  0  0  0  1  0  0  0  0  0  0
  161.9100  213.5920  149.0020 F   0  0  0  0  0  0  0  0  0  0  0  0
  159.6380  214.0130  148.4310 C   0  0  0  0  0  3  0  0  0  0  0  0
  158.2760  213.9620  148.7450 C   0  0  0  0  0  0  0  0  0  0  0  0
  158.8420  212.9610  150.9050 C   0  0  0  0  0  0  0  0  0  0  0  0
  160.2010  213.0230  150.5590 C   0  0  0  0  0  3  0  0  0  0  0  0
  157.0520  213.7840  146.5700 C   0  0  0  0  0  1  0  0  0  0  0  0
  157.3800  214.4510  147.7820 O   0  0  0  0  0  0  0  0  0  0  0  0
  161.7450  207.6970  152.3040 C   0  0  2  0  0  3  0  0  0  0  0  0
  161.0340  206.7390  150.5030 C   0  0  2  0  0  3  0  0  0  0  0  0
  161.3860  208.1680  150.9000 C   0  0  0  0  0  2  0  0  0  0  0  0
  161.4200  206.2590  151.9090 C   0  0  1  0  0  3  0  0  0  0  0  0
  161.9320  206.2490  149.3690 C   0  0  0  0  0  2  0  0  0  0  0  0
  161.1250  205.4190  148.3650 C   0  0  1  0  0  3  0  0  0  0  0  0
  161.3080  205.9780  146.9300 C   0  0  1  0  0  0  0  0  0  0  0  0
  160.9200  207.4550  146.8830 C   0  0  0  0  0  1  0  0  0  0  0  0
  162.6460  205.8450  146.5470 O   0  0  0  0  0  1  0  0  0  0  0  0
  160.4630  205.2140  146.0040 N   0  0  0  0  0  2  0  0  0  0  0  0
  160.2810  205.9570  144.8270 N   0  0  0  0  0  2  0  0  0  0  0  0
  161.2390  205.4520  143.8600 C   0  0  0  0  0  1  0  0  0  0  0  0
  161.4480  203.9060  148.4910 C   0  0  1  0  0  3  0  0  0  0  0  0
  160.4440  203.1580  149.3600 C   0  0  0  0  0  1  0  0  0  0  0  0
  160.9470  201.9460  147.1860 O   0  0  0  0  0  1  0  0  0  0  0  0
  161.5400  203.2110  147.1360 C   0  0  0  0  0  2  0  0  0  0  0  0
  162.6220  205.2970  152.0170 C   0  0  0  0  0  2  0  0  0  0  0  0
  162.2660  203.8120  152.0420 C   0  0  0  0  0  2  0  0  0  0  0  0
  160.8640  203.6210  152.5840 C   0  0  0  0  0  1  0  0  0  0  0  0
  1  7  1  0  0  0  0
  1  2  2  0  0  0  0
  4  6  1  0  0  0  0
  4  7  1  0  0  0  0
  5  3  1  0  0  0  0
  6  8  2  0  0  0  0
  7 10  1  6  0  0  0
  7  5  1  0  0  0  0
  8  3  1  0  0  0  0
 10  9  1  0  0  0  0
 11  6  1  0  0  0  0
 12 19  1  0  0  0  0
 13 14  1  0  0  0  0
 13 18  1  0  0  0  0
 15 12  1  0  0  0  0
 16 17  1  0  0  0  0
 16 12  2  0  0  0  0
 17 13  2  0  0  0  0
 18 11  1  0  0  0  0
 19 18  2  0  0  0  0
 20 21  1  0  0  0  0
 21 17  1  0  0  0  0
 22  1  1  1  0  0  0
 23 26  1  6  0  0  0
 23 24  1  0  0  0  0
 23 25  1  0  0  0  0
 24 22  1  0  0  0  0
 25 38  1  6  0  0  0
 25 22  1  0  0  0  0
 27 34  1  0  0  0  0
 27 26  1  1  0  0  0
 28 29  1  6  0  0  0
 28 27  1  0  0  0  0
 30 28  1  0  0  0  0
 31 28  1  0  0  0  0
 32 31  1  0  0  0  0
 33 32  1  0  0  0  0
 34 35  1  1  0  0  0
 37 36  1  0  0  0  0
 37 34  1  0  0  0  0
 38 39  1  0  0  0  0
 39 40  1  0  0  0  0
M  END
>  <MODEL>
8

>  <REMARK>
 VINA RESULT:      -4.4      2.465      4.079
  Name = 
  15 active torsions:
  status: ('A' for Active; 'I' for Inactive)
    1  A    between atoms: C_1  and  C_10
    2  A    between atoms: C_1  and  C_28
    3  A    between atoms: C_7  and  C_8
    4  A    between atoms: C_7  and  C_24
    5  A    between atoms: C_7  and  C_30
    6  A    between atoms: C_8  and  C_32
    7  A    between atoms: C_14  and  O_15
    8  A    between atoms: C_16  and  C_24
    9  A    between atoms: N_18  and  N_34
   10  A    between atoms: C_19  and  C_28
   11  A    between atoms: C_22  and  C_29
   12  A    between atoms: C_23  and  O_38
   13  A    between atoms: C_25  and  O_38
   14  A    between atoms: C_29  and  C_35
   15  A    between atoms: C_30  and  N_34
                            x       y       z     vdW  Elec       q    Type
                         _______ _______ _______ _____ _____    ______ ____

>  <TORSDO>
F 15

$$$$
=
 OpenBabel11072410533D

 40 42  0  0  1  0  0  0  0  0999 V2000
  160.4010  209.9770  154.0250 C   0  0  0  0  0  0  0  0  0  0  0  0
  160.9830  209.2710  155.0090 C   0  0  0  0  0  2  0  0  0  0  0  0
  157.4870  212.2770  155.0590 C   0  0  0  0  0  2  0  0  0  0  0  0
  159.6800  212.2110  153.0800 C   0  0  0  0  0  2  0  0  0  0  0  0
  158.2560  210.9930  154.7650 C   0  0  0  0  0  2  0  0  0  0  0  0
  158.5780  213.2420  153.0290 C   0  0  0  0  0  0  0  0  0  0  0  0
  159.6970  211.2970  154.3260 C   0  0  1  0  0  0  0  0  0  0  0  0
  157.5670  213.2350  153.9130 C   0  0  0  0  0  3  0  0  0  0  0  0
  159.9870  211.7520  156.6900 F   0  0  0  0  0  0  0  0  0  0  0  0
  160.4590  212.0550  155.4230 C   0  0  0  0  0  2  0  0  0  0  0  0
  158.6500  214.1990  152.0050 O   0  0  0  0  0  0  0  0  0  0  0  0
  156.0410  214.0360  149.3480 C   0  0  0  0  0  0  0  0  0  0  0  0
  158.8310  214.0360  149.5970 C   0  0  0  0  0  0  0  0  0  0  0  0
  160.2140  214.0270  149.7530 O   0  0  0  0  0  1  0  0  0  0  0  0
  154.6910  214.0410  149.2280 F   0  0  0  0  0  0  0  0  0  0  0  0
  156.8400  213.9280  148.2120 C   0  0  0  0  0  3  0  0  0  0  0  0
  158.2360  213.9300  148.3160 C   0  0  0  0  0  0  0  0  0  0  0  0
  158.0260  214.1380  150.7440 C   0  0  0  0  0  0  0  0  0  0  0  0
  156.6290  214.1370  150.6070 C   0  0  0  0  0  3  0  0  0  0  0  0
  159.7350  212.6910  146.7420 C   0  0  0  0  0  1  0  0  0  0  0  0
  158.9640  213.8240  147.1210 O   0  0  0  0  0  0  0  0  0  0  0  0
  160.6550  209.5940  152.5790 C   0  0  2  0  0  3  0  0  0  0  0  0
  161.8010  207.8410  152.0460 C   0  0  2  0  0  3  0  0  0  0  0  0
  160.3280  208.1300  152.3110 C   0  0  0  0  0  2  0  0  0  0  0  0
  162.1290  209.3210  152.2900 C   0  0  1  0  0  3  0  0  0  0  0  0
  162.0120  207.3450  150.6170 C   0  0  0  0  0  2  0  0  0  0  0  0
  161.2500  206.0360  150.3850 C   0  0  1  0  0  3  0  0  0  0  0  0
  161.1050  205.7560  148.8670 C   0  0  1  0  0  0  0  0  0  0  0  0
  161.1880  204.2550  148.5950 C   0  0  0  0  0  1  0  0  0  0  0  0
  159.8690  206.2330  148.4220 O   0  0  0  0  0  1  0  0  0  0  0  0
  162.1780  206.4500  148.1450 N   0  0  0  0  0  2  0  0  0  0  0  0
  162.6560  205.6190  147.1190 N   0  0  0  0  0  2  0  0  0  0  0  0
  162.0840  206.1120  145.8790 C   0  0  0  0  0  1  0  0  0  0  0  0
  161.8830  204.8630  151.1780 C   0  0  1  0  0  3  0  0  0  0  0  0
  163.0730  205.2960  152.0250 C   0  0  0  0  0  1  0  0  0  0  0  0
  160.9390  202.7630  151.8840 O   0  0  0  0  0  1  0  0  0  0  0  0
  160.8760  204.1470  152.0730 C   0  0  0  0  0  2  0  0  0  0  0  0
  162.6870  210.1220  151.0940 C   0  0  0  0  0  2  0  0  0  0  0  0
  161.6410  210.8520  150.2550 C   0  0  0  0  0  2  0  0  0  0  0  0
  161.9550  210.6980  148.7810 C   0  0  0  0  0  1  0  0  0  0  0  0
  1  7  1  0  0  0  0
  1  2  2  0  0  0  0
  4  7  1  0  0  0  0
  5  3  1  0  0  0  0
  6  4  1  0  0  0  0
  6  8  2  0  0  0  0
  7  5  1  0  0  0  0
  7 10  1  1  0  0  0
  8  3  1  0  0  0  0
 10  9  1  0  0  0  0
 11  6  1  0  0  0  0
 12 19  1  0  0  0  0
 13 14  1  0  0  0  0
 13 18  1  0  0  0  0
 15 12  1  0  0  0  0
 16 17  1  0  0  0  0
 16 12  2  0  0  0  0
 17 13  2  0  0  0  0
 18 11  1  0  0  0  0
 19 18  2  0  0  0  0
 20 21  1  0  0  0  0
 21 17  1  0  0  0  0
 22  1  1  1  0  0  0
 23 26  1  6  0  0  0
 23 25  1  0  0  0  0
 23 24  1  0  0  0  0
 24 22  1  0  0  0  0
 25 38  1  6  0  0  0
 25 22  1  0  0  0  0
 27 26  1  6  0  0  0
 27 34  1  0  0  0  0
 28 29  1  6  0  0  0
 28 27  1  0  0  0  0
 30 28  1  0  0  0  0
 31 28  1  0  0  0  0
 32 31  1  0  0  0  0
 33 32  1  0  0  0  0
 34 35  1  1  0  0  0
 34 37  1  0  0  0  0
 36 37  1  0  0  0  0
 39 38  1  0  0  0  0
 40 39  1  0  0  0  0
M  END
>  <MODEL>
9

>  <REMARK>
 VINA RESULT:      -4.3      1.622      2.996
  Name = 
  15 active torsions:
  status: ('A' for Active; 'I' for Inactive)
    1  A    between atoms: C_1  and  C_10
    2  A    between atoms: C_1  and  C_28
    3  A    between atoms: C_7  and  C_8
    4  A    between atoms: C_7  and  C_24
    5  A    between atoms: C_7  and  C_30
    6  A    between atoms: C_8  and  C_32
    7  A    between atoms: C_14  and  O_15
    8  A    between atoms: C_16  and  C_24
    9  A    between atoms: N_18  and  N_34
   10  A    between atoms: C_19  and  C_28
   11  A    between atoms: C_22  and  C_29
   12  A    between atoms: C_23  and  O_38
   13  A    between atoms: C_25  and  O_38
   14  A    between atoms: C_29  and  C_35
   15  A    between atoms: C_30  and  N_34
                            x       y       z     vdW  Elec       q    Type
                         _______ _______ _______ _____ _____    ______ ____

>  <TORSDO>
F 15

$$$$
