=
 OpenBabel11072412073D

 50 56  0  0  1  0  0  0  0  0999 V2000
  159.4370  209.3080  156.4340 N   0  0  0  0  0  0  0  0  0  0  0  0
  160.1680  210.9160  153.8740 C   0  0  2  0  0  3  0  0  0  0  0  0
  160.2280  208.9540  155.4680 C   0  0  0  0  0  0  0  0  0  0  0  0
  158.8610  211.5900  154.2910 C   0  0  1  0  0  3  0  0  0  0  0  0
  160.1670  209.4770  154.1480 N   0  0  0  0  0  0  0  0  0  0  0  0
  161.5760  207.5220  154.2630 C   0  0  0  0  0  3  0  0  0  0  0  0
  161.2630  211.5260  154.4960 O   0  0  0  0  0  1  0  0  0  0  0  0
  160.8680  208.5020  153.3050 C   0  0  2  0  0  3  0  0  0  0  0  0
  161.0830  207.8380  155.5930 N   0  0  0  0  0  0  0  0  0  0  0  0
  158.3040  210.2180  156.3070 C   0  0  0  0  0  2  0  0  0  0  0  0
  158.7010  211.6060  155.8250 C   0  0  2  0  0  3  0  0  0  0  0  0
  154.3570  213.6470  156.8620 N   0  0  0  0  0  1  0  0  0  0  0  0
  157.6650  212.5810  156.3010 C   0  0  0  0  0  0  0  0  0  0  0  0
  156.6240  214.3870  157.2610 C   0  0  0  0  0  3  0  0  0  0  0  0
  155.7690  213.5040  156.7770 C   0  0  0  0  0  0  0  0  0  0  0  0
  156.3960  212.3830  156.1800 N   0  0  0  0  0  0  0  0  0  0  0  0
  157.9960  213.8610  156.9940 C   0  0  0  0  0  2  0  0  0  0  0  0
  159.6260  213.8000  153.9160 O   0  0  0  0  0  0  0  0  0  0  0  0
  158.7820  212.9560  153.6500 C   0  0  0  0  0  0  0  0  0  0  0  0
  157.7090  213.2800  152.6480 C   0  0  1  0  0  3  0  0  0  0  0  0
  156.9660  214.3990  153.0340 O   0  0  0  0  0  1  0  0  0  0  0  0
  159.4020  212.9980  150.9970 O   0  0  0  0  0  0  0  0  0  0  0  0
  157.5450  214.2150  150.2970 N   0  0  0  0  0  2  0  0  0  0  0  0
  158.2690  213.4720  151.2760 C   0  0  0  0  0  0  0  0  0  0  0  0
  158.0430  214.3900  149.0520 O   0  0  0  0  0  1  0  0  0  0  0  0
  161.8400  209.1160  152.2890 C   0  0  0  0  0  2  0  0  0  0  0  0
  161.2730  209.1410  150.8750 C   0  0  0  0  0  2  0  0  0  0  0  0
  162.3930  208.9610  149.8610 C   0  0  0  0  0  2  0  0  0  0  0  0
  161.3360  205.5260  147.0830 C   0  0  2  0  0  0  0  0  0  0  0  0
  160.6390  206.1230  148.3420 C   0  0  2  0  0  0  0  0  0  0  0  0
  162.0460  206.8520  146.8690 C   0  0  0  0  0  2  0  0  0  0  0  0
  160.9670  205.7060  149.7810 C   0  0  2  0  0  3  0  0  0  0  0  0
  160.3860  205.2850  145.9150 C   0  0  0  0  0  1  0  0  0  0  0  0
  159.2630  206.2970  148.1770 O   0  0  0  0  0  1  0  0  0  0  0  0
  162.2070  206.4560  150.2240 C   0  0  0  0  0  2  0  0  0  0  0  0
  162.4110  207.5770  149.2170 C   0  0  1  0  0  3  0  0  0  0  0  0
  161.3740  207.4350  148.1070 C   0  0  2  0  0  3  0  0  0  0  0  0
  161.6780  203.9770  151.4050 C   0  0  0  0  0  2  0  0  0  0  0  0
  161.0420  204.2130  150.0520 C   0  0  0  0  0  3  0  0  0  0  0  0
  160.1790  203.8620  151.2450 C   0  0  0  0  0  2  0  0  0  0  0  0
  162.3370  204.3600  147.1990 C   0  0  2  0  0  3  0  0  0  0  0  0
  163.6480  204.7890  146.9850 O   0  0  0  0  0  1  0  0  0  0  0  0
  162.0260  203.2410  146.3230 N   0  0  0  0  0  2  0  0  0  0  0  0
  160.3830  201.4700  145.9030 C   0  0  0  0  0  2  0  0  0  0  0  0
  160.7630  202.6730  146.7710 C   0  0  1  0  0  3  0  0  0  0  0  0
  161.3570  200.3110  146.1160 C   0  0  2  0  0  3  0  0  0  0  0  0
  160.8530  198.9220  145.1280 Cl  0  0  0  0  0  0  0  0  0  0  0  0
  161.8100  201.0940  148.4440 C   0  0  0  0  0  2  0  0  0  0  0  0
  161.3810  199.9090  147.5870 C   0  0  0  0  0  2  0  0  0  0  0  0
  160.8550  202.2720  148.2450 C   0  0  0  0  0  2  0  0  0  0  0  0
  2  5  1  0  0  0  0
  2  4  1  0  0  0  0
  2  7  1  1  0  0  0
  3  9  1  0  0  0  0
  3  1  2  0  0  0  0
  4 19  1  1  0  0  0
  4 11  1  0  0  0  0
  5  3  1  0  0  0  0
  6  9  2  0  0  0  0
  8 26  1  6  0  0  0
  8  5  1  0  0  0  0
  8  6  1  0  0  0  0
 10  1  1  0  0  0  0
 11 13  1  6  0  0  0
 11 10  1  0  0  0  0
 13 17  1  0  0  0  0
 15 12  1  0  0  0  0
 15 14  2  0  0  0  0
 16 13  2  0  0  0  0
 16 15  1  0  0  0  0
 17 14  1  0  0  0  0
 19 18  2  0  0  0  0
 20 21  1  1  0  0  0
 20 19  1  0  0  0  0
 22 24  2  0  0  0  0
 23 24  1  0  0  0  0
 24 20  1  0  0  0  0
 25 23  1  0  0  0  0
 27 26  1  0  0  0  0
 28 27  1  0  0  0  0
 29 33  1  6  0  0  0
 29 41  1  0  0  0  0
 29 30  1  0  0  0  0
 30 34  1  6  0  0  0
 30 32  1  0  0  0  0
 31 29  1  0  0  0  0
 32 39  1  6  0  0  0
 32 35  1  0  0  0  0
 36 28  1  1  0  0  0
 36 35  1  0  0  0  0
 37 31  1  6  0  0  0
 37 30  1  0  0  0  0
 37 36  1  0  0  0  0
 39 40  1  0  0  0  0
 39 38  1  0  0  0  0
 40 38  1  0  0  0  0
 41 42  1  6  0  0  0
 43 41  1  0  0  0  0
 44 46  1  0  0  0  0
 44 45  1  0  0  0  0
 45 43  1  6  0  0  0
 45 50  1  0  0  0  0
 46 47  1  6  0  0  0
 46 49  1  0  0  0  0
 49 48  1  0  0  0  0
 50 48  1  0  0  0  0
M  END
>  <MODEL>
1

>  <REMARK>
 VINA RESULT:      -5.6      0.000      0.000
  Name = 
  12 active torsions:
  status: ('A' for Active; 'I' for Inactive)
    1  A    between atoms: C_3  and  C_10
    2  A    between atoms: C_3  and  N_48
    3  A    between atoms: C_5  and  C_50
    4  A    between atoms: C_13  and  N_48
    5  A    between atoms: C_14  and  C_16
    6  A    between atoms: C_16  and  C_44
    7  A    between atoms: C_20  and  C_23
    8  A    between atoms: C_28  and  C_44
    9  A    between atoms: C_31  and  C_38
   10  A    between atoms: C_31  and  C_49
   11  A    between atoms: C_38  and  C_43
   12  A    between atoms: C_39  and  C_49
                            x       y       z     vdW  Elec       q    Type
                         _______ _______ _______ _____ _____    ______ ____

>  <TORSDO>
F 12

$$$$
=
 OpenBabel11072412073D

 50 56  0  0  1  0  0  0  0  0999 V2000
  161.1860  204.9680  145.3600 N   0  0  0  0  0  0  0  0  0  0  0  0
  161.1630  204.1380  148.3580 C   0  0  2  0  0  3  0  0  0  0  0  0
  161.2640  205.7380  146.4020 C   0  0  0  0  0  0  0  0  0  0  0  0
  160.5210  202.9160  147.7020 C   0  0  1  0  0  3  0  0  0  0  0  0
  160.7870  205.3890  147.6950 N   0  0  0  0  0  0  0  0  0  0  0  0
  161.3110  207.7400  147.5460 C   0  0  0  0  0  3  0  0  0  0  0  0
  162.5550  204.0100  148.3970 O   0  0  0  0  0  1  0  0  0  0  0  0
  160.6320  206.6600  148.4130 C   0  0  2  0  0  3  0  0  0  0  0  0
  161.6310  207.0950  146.2840 N   0  0  0  0  0  0  0  0  0  0  0  0
  160.5200  203.6710  145.3170 C   0  0  0  0  0  2  0  0  0  0  0  0
  161.1040  202.6630  146.2960 C   0  0  2  0  0  3  0  0  0  0  0  0
  161.5100  197.8580  145.3720 N   0  0  0  0  0  1  0  0  0  0  0  0
  160.8160  201.2850  145.7760 C   0  0  0  0  0  0  0  0  0  0  0  0
  159.8060  199.4730  144.7950 C   0  0  0  0  0  3  0  0  0  0  0  0
  160.9630  199.1690  145.3570 C   0  0  0  0  0  0  0  0  0  0  0  0
  161.6000  200.2780  145.9670 N   0  0  0  0  0  2  0  0  0  0  0  0
  159.5800  200.9320  145.0170 C   0  0  0  0  0  3  0  0  0  0  0  0
  161.2800  200.7510  148.2950 O   0  0  0  0  0  0  0  0  0  0  0  0
  160.6370  201.7340  148.6360 C   0  0  0  0  0  0  0  0  0  0  0  0
  160.0160  201.7680  150.0060 C   0  0  1  0  0  3  0  0  0  0  0  0
  159.6950  200.4840  150.4560 O   0  0  0  0  0  1  0  0  0  0  0  0
  161.9600  201.9190  151.3720 O   0  0  0  0  0  0  0  0  0  0  0  0
  160.5030  203.7280  151.5380 N   0  0  0  0  0  2  0  0  0  0  0  0
  160.8900  202.4670  150.9950 C   0  0  0  0  0  0  0  0  0  0  0  0
  161.2910  204.3690  152.4320 O   0  0  0  0  0  1  0  0  0  0  0  0
  161.1710  206.6530  149.8500 C   0  0  0  0  0  2  0  0  0  0  0  0
  162.1340  207.8010  150.1210 C   0  0  0  0  0  2  0  0  0  0  0  0
  162.3970  207.9190  151.6150 C   0  0  0  0  0  2  0  0  0  0  0  0
  160.1260  211.0140  154.0440 C   0  0  2  0  0  0  0  0  0  0  0  0
  161.1990  209.9500  154.4230 C   0  0  2  0  0  0  0  0  0  0  0  0
  160.6290  210.9860  152.6110 C   0  0  0  0  0  2  0  0  0  0  0  0
  160.8740  208.4930  154.7750 C   0  0  2  0  0  3  0  0  0  0  0  0
  160.3990  212.3950  154.6320 C   0  0  0  0  0  1  0  0  0  0  0  0
  162.1990  210.4520  155.2600 O   0  0  0  0  0  1  0  0  0  0  0  0
  160.6920  207.7190  153.4850 C   0  0  0  0  0  2  0  0  0  0  0  0
  161.2590  208.5950  152.3790 C   0  0  1  0  0  3  0  0  0  0  0  0
  161.6720  209.9360  152.9760 C   0  0  2  0  0  3  0  0  0  0  0  0
  160.0990  207.1260  156.6900 C   0  0  0  0  0  2  0  0  0  0  0  0
  159.7450  208.2740  155.7680 C   0  0  0  0  0  3  0  0  0  0  0  0
  160.2340  208.5530  157.1730 C   0  0  0  0  0  2  0  0  0  0  0  0
  158.6200  210.6960  154.1230 C   0  0  2  0  0  3  0  0  0  0  0  0
  157.9580  211.0710  152.9530 O   0  0  0  0  0  1  0  0  0  0  0  0
  157.9640  211.2840  155.2820 N   0  0  0  0  0  2  0  0  0  0  0  0
  155.5240  211.0480  155.2690 C   0  0  0  0  0  2  0  0  0  0  0  0
  156.7240  211.8880  154.8210 C   0  0  1  0  0  3  0  0  0  0  0  0
  155.3630  211.0890  156.7890 C   0  0  2  0  0  3  0  0  0  0  0  0
  153.9350  210.1420  157.2610 Cl  0  0  0  0  0  0  0  0  0  0  0  0
  156.4190  213.3520  156.8590 C   0  0  0  0  0  2  0  0  0  0  0  0
  155.2000  212.5300  157.2610 C   0  0  0  0  0  2  0  0  0  0  0  0
  156.6070  213.3230  155.3420 C   0  0  0  0  0  2  0  0  0  0  0  0
  1  3  2  0  0  0  0
  2  7  1  6  0  0  0
  3  5  1  0  0  0  0
  4  2  1  0  0  0  0
  4 19  1  1  0  0  0
  5  2  1  0  0  0  0
  5  8  1  0  0  0  0
  6  8  1  0  0  0  0
  8 26  1  1  0  0  0
  9  3  1  0  0  0  0
  9  6  2  0  0  0  0
 10  1  1  0  0  0  0
 10 11  1  0  0  0  0
 11 13  1  6  0  0  0
 11  4  1  0  0  0  0
 13 16  1  0  0  0  0
 14 17  1  0  0  0  0
 14 15  2  0  0  0  0
 15 12  1  0  0  0  0
 15 16  1  0  0  0  0
 17 13  2  0  0  0  0
 18 19  2  0  0  0  0
 19 20  1  0  0  0  0
 20 21  1  1  0  0  0
 20 24  1  0  0  0  0
 23 25  1  0  0  0  0
 24 22  2  0  0  0  0
 24 23  1  0  0  0  0
 26 27  1  0  0  0  0
 27 28  1  0  0  0  0
 29 41  1  0  0  0  0
 29 30  1  0  0  0  0
 29 33  1  1  0  0  0
 30 32  1  0  0  0  0
 30 34  1  1  0  0  0
 31 29  1  0  0  0  0
 32 39  1  1  0  0  0
 35 32  1  0  0  0  0
 36 28  1  1  0  0  0
 36 37  1  0  0  0  0
 36 35  1  0  0  0  0
 37 31  1  6  0  0  0
 37 30  1  0  0  0  0
 38 40  1  0  0  0  0
 39 38  1  0  0  0  0
 39 40  1  0  0  0  0
 41 42  1  6  0  0  0
 41 43  1  0  0  0  0
 44 46  1  0  0  0  0
 45 44  1  0  0  0  0
 45 43  1  1  0  0  0
 45 50  1  0  0  0  0
 46 47  1  6  0  0  0
 46 49  1  0  0  0  0
 48 49  1  0  0  0  0
 50 48  1  0  0  0  0
M  END
>  <MODEL>
2

>  <REMARK>
 VINA RESULT:      -5.2      3.543     11.861
  Name = 
  12 active torsions:
  status: ('A' for Active; 'I' for Inactive)
    1  A    between atoms: C_3  and  C_10
    2  A    between atoms: C_3  and  N_48
    3  A    between atoms: C_5  and  C_50
    4  A    between atoms: C_13  and  N_48
    5  A    between atoms: C_14  and  C_16
    6  A    between atoms: C_16  and  C_44
    7  A    between atoms: C_20  and  C_23
    8  A    between atoms: C_28  and  C_44
    9  A    between atoms: C_31  and  C_38
   10  A    between atoms: C_31  and  C_49
   11  A    between atoms: C_38  and  C_43
   12  A    between atoms: C_39  and  C_49
                            x       y       z     vdW  Elec       q    Type
                         _______ _______ _______ _____ _____    ______ ____

>  <TORSDO>
F 12

$$$$
=
 OpenBabel11072412073D

 50 56  0  0  1  0  0  0  0  0999 V2000
  160.3780  202.4150  151.1120 N   0  0  0  0  0  0  0  0  0  0  0  0
  161.4870  204.9320  149.6590 C   0  0  2  0  0  3  0  0  0  0  0  0
  160.7360  203.5470  151.6370 C   0  0  0  0  0  0  0  0  0  0  0  0
  161.7740  203.8380  148.6300 C   0  0  1  0  0  3  0  0  0  0  0  0
  161.6460  204.4580  151.0360 N   0  0  0  0  0  0  0  0  0  0  0  0
  161.2210  205.0200  153.3440 C   0  0  0  0  0  3  0  0  0  0  0  0
  160.2070  205.4660  149.4750 O   0  0  0  0  0  1  0  0  0  0  0  0
  162.1220  205.3160  152.1270 C   0  0  2  0  0  3  0  0  0  0  0  0
  160.4180  203.8660  152.9740 N   0  0  0  0  0  0  0  0  0  0  0  0
  160.9160  201.8490  149.8800 C   0  0  0  0  0  2  0  0  0  0  0  0
  160.6940  202.7370  148.6640 C   0  0  2  0  0  3  0  0  0  0  0  0
  161.4930  198.9440  145.6520 N   0  0  0  0  0  1  0  0  0  0  0  0
  160.6970  201.8680  147.4420 C   0  0  0  0  0  0  0  0  0  0  0  0
  160.2950  201.0210  145.3470 C   0  0  0  0  0  3  0  0  0  0  0  0
  161.0260  200.2110  146.0920 C   0  0  0  0  0  0  0  0  0  0  0  0
  161.2840  200.7200  147.3890 N   0  0  0  0  0  2  0  0  0  0  0  0
  159.9910  202.2260  146.1750 C   0  0  0  0  0  3  0  0  0  0  0  0
  162.5670  203.8720  146.3980 O   0  0  0  0  0  0  0  0  0  0  0  0
  161.9600  204.4740  147.2720 C   0  0  0  0  0  0  0  0  0  0  0  0
  161.3640  205.8190  146.9600 C   0  0  1  0  0  3  0  0  0  0  0  0
  162.2090  206.8600  147.3560 O   0  0  0  0  0  1  0  0  0  0  0  0
  159.9880  206.5990  145.1790 O   0  0  0  0  0  0  0  0  0  0  0  0
  161.8160  205.3180  144.5160 N   0  0  0  0  0  2  0  0  0  0  0  0
  161.0150  205.9500  145.5130 C   0  0  0  0  0  0  0  0  0  0  0  0
  161.5100  205.4350  143.2030 O   0  0  0  0  0  1  0  0  0  0  0  0
  162.1630  206.8140  151.7920 C   0  0  0  0  0  2  0  0  0  0  0  0
  161.0660  207.6020  152.4950 C   0  0  0  0  0  2  0  0  0  0  0  0
  160.8810  208.9530  151.8190 C   0  0  0  0  0  2  0  0  0  0  0  0
  160.4750  211.3420  155.6620 C   0  0  2  0  0  0  0  0  0  0  0  0
  159.7780  210.0500  155.1400 C   0  0  2  0  0  0  0  0  0  0  0  0
  161.6430  211.0680  154.7290 C   0  0  0  0  0  2  0  0  0  0  0  0
  158.5290  210.0500  154.2490 C   0  0  2  0  0  3  0  0  0  0  0  0
  160.9630  211.2340  157.1030 C   0  0  0  0  0  1  0  0  0  0  0  0
  159.7010  209.0400  156.1020 O   0  0  0  0  0  1  0  0  0  0  0  0
  158.9650  210.2860  152.8170 C   0  0  0  0  0  2  0  0  0  0  0  0
  160.4690  210.0620  152.7850 C   0  0  1  0  0  3  0  0  0  0  0  0
  160.9580  209.8100  154.2080 C   0  0  2  0  0  3  0  0  0  0  0  0
  156.1530  210.1210  154.9430 C   0  0  0  0  0  2  0  0  0  0  0  0
  157.3900  210.9550  154.6840 C   0  0  0  0  0  3  0  0  0  0  0  0
  156.9820  210.6240  156.1040 C   0  0  0  0  0  2  0  0  0  0  0  0
  159.8660  212.7360  155.4140 C   0  0  2  0  0  3  0  0  0  0  0  0
  159.3260  213.2720  156.5850 O   0  0  0  0  0  1  0  0  0  0  0  0
  158.8730  212.7530  154.3500 N   0  0  0  0  0  2  0  0  0  0  0  0
  158.6460  214.4520  152.5980 C   0  0  0  0  0  2  0  0  0  0  0  0
  158.5320  214.1440  154.0930 C   0  0  1  0  0  3  0  0  0  0  0  0
  157.5800  213.7010  151.8010 C   0  0  2  0  0  3  0  0  0  0  0  0
  157.7180  214.1220  150.0790 Cl  0  0  0  0  0  0  0  0  0  0  0  0
  156.0610  213.7140  153.7830 C   0  0  0  0  0  2  0  0  0  0  0  0
  156.1900  214.0690  152.3070 C   0  0  0  0  0  2  0  0  0  0  0  0
  157.1220  214.4480  154.6050 C   0  0  0  0  0  2  0  0  0  0  0  0
  1  3  2  0  0  0  0
  2  7  1  1  0  0  0
  2  5  1  0  0  0  0
  3  9  1  0  0  0  0
  4 19  1  6  0  0  0
  4 11  1  0  0  0  0
  4  2  1  0  0  0  0
  5  3  1  0  0  0  0
  5  8  1  0  0  0  0
  8 26  1  6  0  0  0
  8  6  1  0  0  0  0
  9  6  2  0  0  0  0
 10  1  1  0  0  0  0
 11 13  1  6  0  0  0
 11 10  1  0  0  0  0
 12 15  1  0  0  0  0
 14 15  2  0  0  0  0
 14 17  1  0  0  0  0
 15 16  1  0  0  0  0
 16 13  1  0  0  0  0
 17 13  2  0  0  0  0
 18 19  2  0  0  0  0
 20 19  1  0  0  0  0
 20 21  1  6  0  0  0
 22 24  2  0  0  0  0
 23 24  1  0  0  0  0
 24 20  1  0  0  0  0
 25 23  1  0  0  0  0
 26 27  1  0  0  0  0
 28 27  1  0  0  0  0
 29 33  1  1  0  0  0
 30 29  1  0  0  0  0
 30 34  1  1  0  0  0
 31 29  1  0  0  0  0
 32 39  1  1  0  0  0
 32 30  1  0  0  0  0
 35 32  1  0  0  0  0
 36 28  1  6  0  0  0
 36 35  1  0  0  0  0
 36 37  1  0  0  0  0
 37 31  1  1  0  0  0
 37 30  1  0  0  0  0
 38 40  1  0  0  0  0
 39 38  1  0  0  0  0
 39 40  1  0  0  0  0
 41 29  1  0  0  0  0
 41 42  1  1  0  0  0
 43 41  1  0  0  0  0
 44 45  1  0  0  0  0
 45 43  1  6  0  0  0
 45 50  1  0  0  0  0
 46 47  1  6  0  0  0
 46 49  1  0  0  0  0
 46 44  1  0  0  0  0
 48 50  1  0  0  0  0
 49 48  1  0  0  0  0
M  END
>  <MODEL>
3

>  <REMARK>
 VINA RESULT:      -5.0      3.466     11.218
  Name = 
  12 active torsions:
  status: ('A' for Active; 'I' for Inactive)
    1  A    between atoms: C_3  and  C_10
    2  A    between atoms: C_3  and  N_48
    3  A    between atoms: C_5  and  C_50
    4  A    between atoms: C_13  and  N_48
    5  A    between atoms: C_14  and  C_16
    6  A    between atoms: C_16  and  C_44
    7  A    between atoms: C_20  and  C_23
    8  A    between atoms: C_28  and  C_44
    9  A    between atoms: C_31  and  C_38
   10  A    between atoms: C_31  and  C_49
   11  A    between atoms: C_38  and  C_43
   12  A    between atoms: C_39  and  C_49
                            x       y       z     vdW  Elec       q    Type
                         _______ _______ _______ _____ _____    ______ ____

>  <TORSDO>
F 12

$$$$
=
 OpenBabel11072412073D

 50 56  0  0  1  0  0  0  0  0999 V2000
  158.5660  214.0280  151.8890 N   0  0  0  0  0  0  0  0  0  0  0  0
  159.2780  211.2720  153.1410 C   0  0  2  0  0  3  0  0  0  0  0  0
  159.3380  213.1060  151.4020 C   0  0  0  0  0  0  0  0  0  0  0  0
  158.8180  212.0530  154.3720 C   0  0  1  0  0  3  0  0  0  0  0  0
  159.9940  212.1150  152.1810 N   0  0  0  0  0  0  0  0  0  0  0  0
  160.8580  212.1890  149.9290 C   0  0  0  0  0  3  0  0  0  0  0  0
  158.1960  210.6400  152.5190 O   0  0  0  0  0  1  0  0  0  0  0  0
  161.0910  211.6180  151.3430 C   0  0  2  0  0  3  0  0  0  0  0  0
  159.7760  213.1510  150.0620 N   0  0  0  0  0  0  0  0  0  0  0  0
  158.3190  214.2610  153.3080 C   0  0  0  0  0  2  0  0  0  0  0  0
  157.7060  213.0610  154.0150 C   0  0  2  0  0  3  0  0  0  0  0  0
  154.0400  214.0290  157.1340 N   0  0  0  0  0  1  0  0  0  0  0  0
  156.9520  213.5580  155.2120 C   0  0  0  0  0  0  0  0  0  0  0  0
  156.4170  214.4530  157.2560 C   0  0  0  0  0  3  0  0  0  0  0  0
  155.3610  213.9930  156.6100 C   0  0  0  0  0  0  0  0  0  0  0  0
  155.6740  213.4370  155.3450 N   0  0  0  0  0  0  0  0  0  0  0  0
  157.6060  214.2090  156.3860 C   0  0  0  0  0  2  0  0  0  0  0  0
  157.2650  210.7560  155.6050 O   0  0  0  0  0  0  0  0  0  0  0  0
  158.4360  211.0780  155.4620 C   0  0  0  0  0  0  0  0  0  0  0  0
  159.4840  210.4560  156.3440 C   0  0  1  0  0  3  0  0  0  0  0  0
  159.0290  209.2660  156.9210 O   0  0  0  0  0  1  0  0  0  0  0  0
  160.8280  209.3100  154.7470 O   0  0  0  0  0  0  0  0  0  0  0  0
  161.9170  211.0120  155.9030 N   0  0  0  0  0  2  0  0  0  0  0  0
  160.7640  210.2260  155.6090 C   0  0  0  0  0  0  0  0  0  0  0  0
  163.0790  210.8130  155.2400 O   0  0  0  0  0  1  0  0  0  0  0  0
  161.2450  210.0900  151.3290 C   0  0  0  0  0  2  0  0  0  0  0  0
  162.5520  209.6390  150.6910 C   0  0  0  0  0  2  0  0  0  0  0  0
  162.3590  209.4350  149.1950 C   0  0  0  0  0  2  0  0  0  0  0  0
  161.4060  205.5470  147.0480 C   0  0  2  0  0  0  0  0  0  0  0  0
  160.7400  206.2840  148.2470 C   0  0  2  0  0  0  0  0  0  0  0  0
  161.9990  206.8670  146.5870 C   0  0  0  0  0  2  0  0  0  0  0  0
  161.1820  206.1200  149.7070 C   0  0  2  0  0  3  0  0  0  0  0  0
  160.4110  205.0640  145.9980 C   0  0  0  0  0  1  0  0  0  0  0  0
  159.3470  206.3390  148.1540 O   0  0  0  0  0  1  0  0  0  0  0  0
  162.3850  207.0100  149.9440 C   0  0  0  0  0  2  0  0  0  0  0  0
  162.4440  207.9710  148.7670 C   0  0  1  0  0  3  0  0  0  0  0  0
  161.3580  207.5900  147.7660 C   0  0  2  0  0  3  0  0  0  0  0  0
  161.8710  204.7170  151.6280 C   0  0  0  0  0  2  0  0  0  0  0  0
  161.3860  204.6950  150.1940 C   0  0  0  0  0  3  0  0  0  0  0  0
  160.4250  204.3950  151.3250 C   0  0  0  0  0  2  0  0  0  0  0  0
  162.4970  204.4810  147.2690 C   0  0  2  0  0  3  0  0  0  0  0  0
  163.7510  204.9450  146.8660 O   0  0  0  0  0  1  0  0  0  0  0  0
  162.2020  203.2080  146.6290 N   0  0  0  0  0  2  0  0  0  0  0  0
  160.1200  202.0030  146.1550 C   0  0  0  0  0  2  0  0  0  0  0  0
  160.9760  202.6960  147.2200 C   0  0  1  0  0  3  0  0  0  0  0  0
  160.7980  200.7280  145.6520 C   0  0  2  0  0  3  0  0  0  0  0  0
  159.7530  199.9330  144.4540 Cl  0  0  0  0  0  0  0  0  0  0  0  0
  161.9520  200.4510  147.8490 C   0  0  0  0  0  2  0  0  0  0  0  0
  161.0580  199.7780  146.8150 C   0  0  0  0  0  2  0  0  0  0  0  0
  161.3000  201.7340  148.3660 C   0  0  0  0  0  2  0  0  0  0  0  0
  1 10  1  0  0  0  0
  2  7  1  6  0  0  0
  2  4  1  0  0  0  0
  3  1  2  0  0  0  0
  3  5  1  0  0  0  0
  4 19  1  1  0  0  0
  5  2  1  0  0  0  0
  6  9  2  0  0  0  0
  6  8  1  0  0  0  0
  8 26  1  6  0  0  0
  8  5  1  0  0  0  0
  9  3  1  0  0  0  0
 10 11  1  0  0  0  0
 11  4  1  0  0  0  0
 11 13  1  1  0  0  0
 13 16  2  0  0  0  0
 13 17  1  0  0  0  0
 15 12  1  0  0  0  0
 15 14  2  0  0  0  0
 16 15  1  0  0  0  0
 17 14  1  0  0  0  0
 19 18  2  0  0  0  0
 19 20  1  0  0  0  0
 20 21  1  6  0  0  0
 22 24  2  0  0  0  0
 24 23  1  0  0  0  0
 24 20  1  0  0  0  0
 25 23  1  0  0  0  0
 27 26  1  0  0  0  0
 28 27  1  0  0  0  0
 29 33  1  6  0  0  0
 29 41  1  0  0  0  0
 29 30  1  0  0  0  0
 30 34  1  6  0  0  0
 30 32  1  0  0  0  0
 31 29  1  0  0  0  0
 32 35  1  0  0  0  0
 32 39  1  6  0  0  0
 36 28  1  1  0  0  0
 36 35  1  0  0  0  0
 37 31  1  6  0  0  0
 37 30  1  0  0  0  0
 37 36  1  0  0  0  0
 39 40  1  0  0  0  0
 39 38  1  0  0  0  0
 40 38  1  0  0  0  0
 41 42  1  6  0  0  0
 43 41  1  0  0  0  0
 44 45  1  0  0  0  0
 45 43  1  6  0  0  0
 45 50  1  0  0  0  0
 46 47  1  6  0  0  0
 46 44  1  0  0  0  0
 46 49  1  0  0  0  0
 48 50  1  0  0  0  0
 49 48  1  0  0  0  0
M  END
>  <MODEL>
4

>  <REMARK>
 VINA RESULT:      -3.3      1.718      3.375
  Name = 
  12 active torsions:
  status: ('A' for Active; 'I' for Inactive)
    1  A    between atoms: C_3  and  C_10
    2  A    between atoms: C_3  and  N_48
    3  A    between atoms: C_5  and  C_50
    4  A    between atoms: C_13  and  N_48
    5  A    between atoms: C_14  and  C_16
    6  A    between atoms: C_16  and  C_44
    7  A    between atoms: C_20  and  C_23
    8  A    between atoms: C_28  and  C_44
    9  A    between atoms: C_31  and  C_38
   10  A    between atoms: C_31  and  C_49
   11  A    between atoms: C_38  and  C_43
   12  A    between atoms: C_39  and  C_49
                            x       y       z     vdW  Elec       q    Type
                         _______ _______ _______ _____ _____    ______ ____

>  <TORSDO>
F 12

$$$$
=
 OpenBabel11072412073D

 50 56  0  0  1  0  0  0  0  0999 V2000
  159.1640  210.8820  155.5440 N   0  0  0  0  0  0  0  0  0  0  0  0
  160.8550  209.1260  153.6130 C   0  0  2  0  0  3  0  0  0  0  0  0
  159.7210  209.7360  155.7890 C   0  0  0  0  0  0  0  0  0  0  0  0
  160.0810  210.0000  152.6260 C   0  0  1  0  0  3  0  0  0  0  0  0
  160.0600  208.7800  154.7940 N   0  0  0  0  0  0  0  0  0  0  0  0
  160.1890  207.8370  157.0110 C   0  0  0  0  0  3  0  0  0  0  0  0
  162.0490  209.7450  153.9960 O   0  0  0  0  0  1  0  0  0  0  0  0
  160.1990  207.5040  155.5050 C   0  0  2  0  0  3  0  0  0  0  0  0
  159.8320  209.2430  157.1060 N   0  0  0  0  0  0  0  0  0  0  0  0
  158.7090  211.3370  154.2340 C   0  0  0  0  0  2  0  0  0  0  0  0
  159.8260  211.4070  153.2030 C   0  0  2  0  0  3  0  0  0  0  0  0
  157.4780  213.5770  149.4760 N   0  0  0  0  0  1  0  0  0  0  0  0
  159.4360  212.4130  152.1590 C   0  0  0  0  0  0  0  0  0  0  0  0
  159.2920  214.3200  150.8910 C   0  0  0  0  0  3  0  0  0  0  0  0
  158.4190  213.3980  150.5250 C   0  0  0  0  0  0  0  0  0  0  0  0
  158.4960  212.2130  151.2980 N   0  0  0  0  0  0  0  0  0  0  0  0
  160.0730  213.7570  152.0330 C   0  0  0  0  0  2  0  0  0  0  0  0
  160.5140  209.1650  150.4510 O   0  0  0  0  0  0  0  0  0  0  0  0
  160.8000  210.0010  151.2970 C   0  0  0  0  0  0  0  0  0  0  0  0
  161.8290  211.0500  150.9760 C   0  0  1  0  0  3  0  0  0  0  0  0
  163.0830  210.7150  151.4960 O   0  0  0  0  0  1  0  0  0  0  0  0
  162.3430  210.3940  148.7450 O   0  0  0  0  0  0  0  0  0  0  0  0
  161.5740  212.5800  148.9710 N   0  0  0  0  0  2  0  0  0  0  0  0
  161.9230  211.3050  149.5070 C   0  0  0  0  0  0  0  0  0  0  0  0
  161.6520  212.8190  147.6420 O   0  0  0  0  0  1  0  0  0  0  0  0
  161.4310  206.6790  155.1070 C   0  0  0  0  0  2  0  0  0  0  0  0
  161.2640  205.9910  153.7580 C   0  0  0  0  0  2  0  0  0  0  0  0
  162.6130  205.8690  153.0650 C   0  0  0  0  0  2  0  0  0  0  0  0
  161.4590  205.9830  148.6730 C   0  0  2  0  0  0  0  0  0  0  0  0
  160.6800  205.5890  149.9620 C   0  0  2  0  0  0  0  0  0  0  0  0
  162.4020  206.8210  149.5200 C   0  0  0  0  0  2  0  0  0  0  0  0
  160.7030  204.1860  150.5840 C   0  0  2  0  0  3  0  0  0  0  0  0
  160.6790  206.9080  147.7450 C   0  0  0  0  0  1  0  0  0  0  0  0
  159.3940  206.1330  150.0150 O   0  0  0  0  0  1  0  0  0  0  0  0
  161.9640  204.0540  151.4140 C   0  0  0  0  0  2  0  0  0  0  0  0
  162.5060  205.4630  151.5970 C   0  0  1  0  0  3  0  0  0  0  0  0
  161.6470  206.4280  150.7840 C   0  0  2  0  0  3  0  0  0  0  0  0
  161.2300  201.8060  150.1460 C   0  0  0  0  0  2  0  0  0  0  0  0
  160.4890  203.0220  149.6320 C   0  0  0  0  0  3  0  0  0  0  0  0
  159.7330  201.9150  150.3340 C   0  0  0  0  0  2  0  0  0  0  0  0
  162.2240  204.9300  147.8470 C   0  0  2  0  0  3  0  0  0  0  0  0
  163.0370  205.5310  146.8830 O   0  0  0  0  0  1  0  0  0  0  0  0
  161.3570  203.9400  147.2260 N   0  0  0  0  0  2  0  0  0  0  0  0
  161.5520  202.1420  145.5710 C   0  0  0  0  0  2  0  0  0  0  0  0
  161.9600  203.5670  145.9550 C   0  0  1  0  0  3  0  0  0  0  0  0
  160.0580  202.0640  145.2590 C   0  0  2  0  0  3  0  0  0  0  0  0
  159.6380  200.4060  144.7740 Cl  0  0  0  0  0  0  0  0  0  0  0  0
  160.0630  204.4560  144.5400 C   0  0  0  0  0  2  0  0  0  0  0  0
  159.7050  203.0310  144.1340 C   0  0  0  0  0  2  0  0  0  0  0  0
  161.5540  204.5610  144.8630 C   0  0  0  0  0  2  0  0  0  0  0  0
  1  3  2  0  0  0  0
  2  7  1  1  0  0  0
  2  5  1  0  0  0  0
  3  9  1  0  0  0  0
  4 19  1  6  0  0  0
  4 11  1  0  0  0  0
  4  2  1  0  0  0  0
  5  8  1  0  0  0  0
  5  3  1  0  0  0  0
  6  9  2  0  0  0  0
  8 26  1  6  0  0  0
  8  6  1  0  0  0  0
 10  1  1  0  0  0  0
 11 13  1  6  0  0  0
 11 10  1  0  0  0  0
 12 15  1  0  0  0  0
 14 17  1  0  0  0  0
 15 14  2  0  0  0  0
 15 16  1  0  0  0  0
 16 13  2  0  0  0  0
 17 13  1  0  0  0  0
 18 19  2  0  0  0  0
 20 19  1  0  0  0  0
 20 21  1  6  0  0  0
 22 24  2  0  0  0  0
 23 24  1  0  0  0  0
 24 20  1  0  0  0  0
 25 23  1  0  0  0  0
 27 26  1  0  0  0  0
 28 27  1  0  0  0  0
 29 33  1  6  0  0  0
 29 31  1  0  0  0  0
 29 30  1  0  0  0  0
 30 34  1  1  0  0  0
 30 32  1  0  0  0  0
 30 37  1  0  0  0  0
 32 39  1  6  0  0  0
 32 35  1  0  0  0  0
 35 36  1  0  0  0  0
 36 28  1  1  0  0  0
 37 31  1  6  0  0  0
 37 36  1  0  0  0  0
 38 40  1  0  0  0  0
 39 38  1  0  0  0  0
 39 40  1  0  0  0  0
 41 42  1  6  0  0  0
 41 29  1  0  0  0  0
 43 41  1  0  0  0  0
 44 45  1  0  0  0  0
 45 43  1  1  0  0  0
 46 47  1  6  0  0  0
 46 44  1  0  0  0  0
 48 50  1  0  0  0  0
 49 48  1  0  0  0  0
 49 46  1  0  0  0  0
 50 45  1  0  0  0  0
M  END
>  <MODEL>
5

>  <REMARK>
 VINA RESULT:      -2.9      2.401      3.760
  Name = 
  12 active torsions:
  status: ('A' for Active; 'I' for Inactive)
    1  A    between atoms: C_3  and  C_10
    2  A    between atoms: C_3  and  N_48
    3  A    between atoms: C_5  and  C_50
    4  A    between atoms: C_13  and  N_48
    5  A    between atoms: C_14  and  C_16
    6  A    between atoms: C_16  and  C_44
    7  A    between atoms: C_20  and  C_23
    8  A    between atoms: C_28  and  C_44
    9  A    between atoms: C_31  and  C_38
   10  A    between atoms: C_31  and  C_49
   11  A    between atoms: C_38  and  C_43
   12  A    between atoms: C_39  and  C_49
                            x       y       z     vdW  Elec       q    Type
                         _______ _______ _______ _____ _____    ______ ____

>  <TORSDO>
F 12

$$$$
