=
 OpenBabel11072414263D

 47 52  0  0  1  0  0  0  0  0999 V2000
  161.2550  206.1540  151.9580 C   0  0  0  0  0  0  0  0  0  0  0  0
  160.9440  208.3010  153.6950 C   0  0  0  0  0  0  0  0  0  0  0  0
  160.8460  208.4940  152.3460 C   0  0  0  0  0  0  0  0  0  0  0  0
  160.5990  210.3650  153.3100 C   0  0  0  0  0  0  0  0  0  0  0  0
  161.2110  207.0500  154.2460 C   0  0  0  0  0  3  0  0  0  0  0  0
  160.7730  209.4770  154.3250 N   0  0  0  0  0  0  0  0  0  0  0  0
  160.6340  209.7960  152.0780 N   0  0  0  0  0  0  0  0  0  0  0  0
  161.3640  205.9720  153.3600 C   0  0  0  0  0  3  0  0  0  0  0  0
  160.9880  207.4390  151.4320 C   0  0  0  0  0  0  0  0  0  0  0  0
  162.2820  209.8900  156.0470 F   0  0  0  0  0  0  0  0  0  0  0  0
  160.2860  210.9380  156.0870 F   0  0  0  0  0  0  0  0  0  0  0  0
  160.4010  208.7410  156.5180 F   0  0  0  0  0  0  0  0  0  0  0  0
  160.9380  209.7630  155.7550 C   0  0  0  0  0  0  0  0  0  0  0  0
  160.8800  207.6420  149.9400 C   0  0  2  0  0  3  0  0  0  0  0  0
  160.0760  206.6650  149.3480 O   0  0  0  0  0  1  0  0  0  0  0  0
  162.2220  207.7750  149.1960 C   0  0  1  0  0  3  0  0  0  0  0  0
  162.2910  206.9070  147.9350 C   0  0  2  0  0  3  0  0  0  0  0  0
  161.2400  207.2360  147.0750 O   0  0  0  0  0  1  0  0  0  0  0  0
  161.8450  204.9150  147.0820 C   0  0  0  0  0  1  0  0  0  0  0  0
  162.1960  205.5540  148.2710 O   0  0  0  0  0  0  0  0  0  0  0  0
  162.6600  209.2240  148.9580 C   0  0  0  0  0  2  0  0  0  0  0  0
  161.5760  210.0240  148.5890 O   0  0  0  0  0  0  0  0  0  0  0  0
  162.0740  211.3270  148.6290 C   0  0  0  0  0  1  0  0  0  0  0  0
  160.4690  211.8400  153.5000 C   0  0  0  0  0  2  0  0  0  0  0  0
  159.3800  213.1040  151.8320 C   0  0  2  0  0  3  0  0  0  0  0  0
  159.1670  212.2800  153.0170 N   0  0  0  0  0  0  0  0  0  0  0  0
  159.2090  214.4530  154.3950 C   0  0  0  0  0  2  0  0  0  0  0  0
  158.5640  214.3750  151.9850 C   0  0  0  0  0  2  0  0  0  0  0  0
  158.5480  213.1290  154.0370 C   0  0  1  0  0  0  0  0  0  0  0  0
  158.9460  212.3840  150.6500 N   0  0  0  0  0  1  0  0  0  0  0  0
  158.0450  214.4070  153.4080 C   0  0  1  0  0  3  0  0  0  0  0  0
  156.7510  211.4620  154.5870 C   0  0  0  0  0  3  0  0  0  0  0  0
  157.5930  212.8920  156.3450 C   0  0  0  0  0  3  0  0  0  0  0  0
  154.9890  209.7670  155.0870 C   0  0  0  0  0  1  0  0  0  0  0  0
  155.8950  210.8640  155.5140 C   0  0  0  0  0  0  0  0  0  0  0  0
  157.6000  212.4940  155.0050 C   0  0  0  0  0  0  0  0  0  0  0  0
  155.8940  211.2780  156.8100 N   0  0  0  0  0  0  0  0  0  0  0  0
  156.7210  212.2690  157.2410 C   0  0  0  0  0  3  0  0  0  0  0  0
  161.4200  205.0740  151.0830 O   0  0  0  0  0  0  0  0  0  0  0  0
  161.0950  202.8610  151.9520 C   0  0  0  0  0  2  0  0  0  0  0  0
  160.5440  203.9560  151.0620 C   0  0  2  0  0  3  0  0  0  0  0  0
  161.2690  202.7770  150.4500 C   0  0  2  0  0  3  0  0  0  0  0  0
  160.2440  201.8250  149.8670 C   0  0  0  0  0  2  0  0  0  0  0  0
  160.1480  202.0260  148.4310 N   0  0  0  0  0  2  0  0  0  0  0  0
  161.5880  200.2620  147.9080 O   0  0  0  0  0  1  0  0  0  0  0  0
  160.8570  201.2050  147.5030 C   0  0  0  0  0  0  0  0  0  0  0  0
  160.7330  201.4450  146.1410 O   0  0  0  0  0  0  0  0  0  0  0  0
  1  8  1  0  0  0  0
  2  5  1  0  0  0  0
  2  6  1  0  0  0  0
  3  2  2  0  0  0  0
  4 24  1  0  0  0  0
  4  6  1  0  0  0  0
  6 13  1  0  0  0  0
  7  3  1  0  0  0  0
  7  4  2  0  0  0  0
  8  5  2  0  0  0  0
  9  1  2  0  0  0  0
  9  3  1  0  0  0  0
 13 10  1  0  0  0  0
 13 11  1  0  0  0  0
 13 12  1  0  0  0  0
 14 15  1  6  0  0  0
 14  9  1  0  0  0  0
 16 21  1  6  0  0  0
 16 14  1  0  0  0  0
 17 18  1  6  0  0  0
 17 20  1  0  0  0  0
 17 16  1  0  0  0  0
 19 20  1  0  0  0  0
 22 23  1  0  0  0  0
 22 21  1  0  0  0  0
 25 30  1  6  0  0  0
 25 28  1  0  0  0  0
 25 26  1  0  0  0  0
 26 24  1  0  0  0  0
 26 29  1  0  0  0  0
 29 27  1  0  0  0  0
 29 36  1  1  0  0  0
 31 28  1  6  0  0  0
 31 29  1  0  0  0  0
 31 27  1  0  0  0  0
 32 36  2  0  0  0  0
 32 35  1  0  0  0  0
 33 38  2  0  0  0  0
 34 35  1  0  0  0  0
 35 37  2  0  0  0  0
 36 33  1  0  0  0  0
 37 38  1  0  0  0  0
 39  1  1  0  0  0  0
 41 39  1  1  0  0  0
 41 40  1  0  0  0  0
 42 43  1  6  0  0  0
 42 41  1  0  0  0  0
 42 40  1  0  0  0  0
 44 43  1  0  0  0  0
 46 45  1  0  0  0  0
 46 44  1  0  0  0  0
 47 46  2  0  0  0  0
M  END
>  <MODEL>
1

>  <REMARK>
 VINA RESULT:      -7.0      0.000      0.000
  Name = 
  14 active torsions:
  status: ('A' for Active; 'I' for Inactive)
    1  A    between atoms: O_2  and  C_43
    2  A    between atoms: C_3  and  O_47
    3  A    between atoms: C_6  and  C_9
    4  A    between atoms: C_6  and  C_46
    5  A    between atoms: C_8  and  C_11
    6  A    between atoms: C_9  and  C_41
    7  A    between atoms: C_9  and  C_43
    8  A    between atoms: C_11  and  N_13
    9  A    between atoms: N_12  and  C_26
   10  A    between atoms: N_17  and  C_29
   11  A    between atoms: C_27  and  O_47
   12  A    between atoms: O_28  and  C_41
   13  A    between atoms: C_29  and  C_40
   14  A    between atoms: C_34  and  C_37
                            x       y       z     vdW  Elec       q    Type
                         _______ _______ _______ _____ _____    ______ ____

>  <TORSDO>
F 14

$$$$
=
 OpenBabel11072414263D

 47 52  0  0  1  0  0  0  0  0999 V2000
  161.6740  205.9330  151.1650 C   0  0  0  0  0  0  0  0  0  0  0  0
  161.2360  208.6190  151.7280 C   0  0  0  0  0  0  0  0  0  0  0  0
  161.7210  208.2470  150.5060 C   0  0  0  0  0  0  0  0  0  0  0  0
  161.5750  210.3610  150.5540 C   0  0  0  0  0  0  0  0  0  0  0  0
  160.9580  207.6900  152.7270 C   0  0  0  0  0  3  0  0  0  0  0  0
  161.1200  209.9580  151.7710 N   0  0  0  0  0  0  0  0  0  0  0  0
  161.9500  209.3350  149.7470 N   0  0  0  0  0  0  0  0  0  0  0  0
  161.1800  206.3350  152.4320 C   0  0  0  0  0  3  0  0  0  0  0  0
  161.9510  206.9030  150.1750 C   0  0  0  0  0  0  0  0  0  0  0  0
  160.4350  212.0610  152.4940 F   0  0  0  0  0  0  0  0  0  0  0  0
  159.7120  210.2450  153.6180 F   0  0  0  0  0  0  0  0  0  0  0  0
  161.8530  210.8860  153.7930 F   0  0  0  0  0  0  0  0  0  0  0  0
  160.7780  210.7940  152.9270 C   0  0  0  0  0  0  0  0  0  0  0  0
  162.4860  206.4830  148.8270 C   0  0  2  0  0  3  0  0  0  0  0  0
  162.8390  207.5880  148.0490 O   0  0  0  0  0  1  0  0  0  0  0  0
  161.5870  205.5170  148.0340 C   0  0  1  0  0  3  0  0  0  0  0  0
  160.6020  206.2430  147.1120 C   0  0  2  0  0  3  0  0  0  0  0  0
  159.4390  206.5630  147.8180 O   0  0  0  0  0  1  0  0  0  0  0  0
  160.4940  206.2240  144.9030 C   0  0  0  0  0  1  0  0  0  0  0  0
  160.2650  205.4300  146.0270 O   0  0  0  0  0  0  0  0  0  0  0  0
  162.3510  204.3880  147.3340 C   0  0  0  0  0  2  0  0  0  0  0  0
  163.4490  204.8850  146.6280 O   0  0  0  0  0  0  0  0  0  0  0  0
  163.4490  204.1660  145.4310 C   0  0  0  0  0  1  0  0  0  0  0  0
  161.7390  211.7890  150.1520 C   0  0  0  0  0  2  0  0  0  0  0  0
  163.1860  212.0200  148.3040 C   0  0  2  0  0  3  0  0  0  0  0  0
  161.7890  211.8830  148.6990 N   0  0  0  0  0  0  0  0  0  0  0  0
  161.6560  214.4530  148.6980 C   0  0  0  0  0  2  0  0  0  0  0  0
  163.2900  213.1680  147.3160 C   0  0  0  0  0  2  0  0  0  0  0  0
  161.0930  213.1010  148.2810 C   0  0  1  0  0  0  0  0  0  0  0  0
  163.6410  210.7930  147.6760 N   0  0  0  0  0  1  0  0  0  0  0  0
  161.9530  213.8800  147.3140 C   0  0  1  0  0  3  0  0  0  0  0  0
  158.6470  213.3550  148.7930 C   0  0  0  0  0  3  0  0  0  0  0  0
  159.3040  212.5770  146.6010 C   0  0  0  0  0  3  0  0  0  0  0  0
  156.2310  213.6560  149.3450 C   0  0  0  0  0  1  0  0  0  0  0  0
  157.3100  213.2730  148.3980 C   0  0  0  0  0  0  0  0  0  0  0  0
  159.6530  212.9930  147.8890 C   0  0  0  0  0  0  0  0  0  0  0  0
  156.9940  212.8500  147.1440 N   0  0  0  0  0  0  0  0  0  0  0  0
  157.9550  212.5070  146.2450 C   0  0  0  0  0  3  0  0  0  0  0  0
  161.9030  204.5800  150.8850 O   0  0  0  0  0  0  0  0  0  0  0  0
  160.8580  202.7500  152.0310 C   0  0  0  0  0  2  0  0  0  0  0  0
  160.8580  203.6230  150.7930 C   0  0  2  0  0  3  0  0  0  0  0  0
  161.4660  202.2380  150.7430 C   0  0  2  0  0  3  0  0  0  0  0  0
  160.4920  201.3050  150.0520 C   0  0  0  0  0  2  0  0  0  0  0  0
  160.2630  201.7560  148.6890 N   0  0  0  0  0  2  0  0  0  0  0  0
  161.6300  200.1230  147.7290 O   0  0  0  0  0  1  0  0  0  0  0  0
  160.8730  201.1170  147.5680 C   0  0  0  0  0  0  0  0  0  0  0  0
  160.6230  201.5930  146.2880 O   0  0  0  0  0  0  0  0  0  0  0  0
  1  8  1  0  0  0  0
  2  6  1  0  0  0  0
  2  5  1  0  0  0  0
  3  2  2  0  0  0  0
  4  6  1  0  0  0  0
  6 13  1  0  0  0  0
  7  3  1  0  0  0  0
  7  4  2  0  0  0  0
  8  5  2  0  0  0  0
  9  3  1  0  0  0  0
  9  1  2  0  0  0  0
 10 13  1  0  0  0  0
 13 11  1  0  0  0  0
 13 12  1  0  0  0  0
 14 15  1  6  0  0  0
 14  9  1  0  0  0  0
 16 21  1  6  0  0  0
 16 14  1  0  0  0  0
 17 18  1  1  0  0  0
 17 16  1  0  0  0  0
 19 20  1  0  0  0  0
 20 17  1  0  0  0  0
 22 21  1  0  0  0  0
 23 22  1  0  0  0  0
 24  4  1  0  0  0  0
 25 30  1  6  0  0  0
 25 26  1  0  0  0  0
 26 24  1  0  0  0  0
 28 25  1  0  0  0  0
 29 36  1  6  0  0  0
 29 27  1  0  0  0  0
 29 26  1  0  0  0  0
 31 28  1  1  0  0  0
 31 29  1  0  0  0  0
 31 27  1  0  0  0  0
 33 36  1  0  0  0  0
 35 32  1  0  0  0  0
 35 34  1  0  0  0  0
 36 32  2  0  0  0  0
 37 35  2  0  0  0  0
 38 33  2  0  0  0  0
 38 37  1  0  0  0  0
 39  1  1  0  0  0  0
 41 39  1  1  0  0  0
 41 40  1  0  0  0  0
 42 43  1  6  0  0  0
 42 41  1  0  0  0  0
 42 40  1  0  0  0  0
 44 43  1  0  0  0  0
 46 45  1  0  0  0  0
 46 44  1  0  0  0  0
 47 46  2  0  0  0  0
M  END
>  <MODEL>
2

>  <REMARK>
 VINA RESULT:      -6.1      2.911      4.749
  Name = 
  14 active torsions:
  status: ('A' for Active; 'I' for Inactive)
    1  A    between atoms: O_2  and  C_43
    2  A    between atoms: C_3  and  O_47
    3  A    between atoms: C_6  and  C_9
    4  A    between atoms: C_6  and  C_46
    5  A    between atoms: C_8  and  C_11
    6  A    between atoms: C_9  and  C_41
    7  A    between atoms: C_9  and  C_43
    8  A    between atoms: C_11  and  N_13
    9  A    between atoms: N_12  and  C_26
   10  A    between atoms: N_17  and  C_29
   11  A    between atoms: C_27  and  O_47
   12  A    between atoms: O_28  and  C_41
   13  A    between atoms: C_29  and  C_40
   14  A    between atoms: C_34  and  C_37
                            x       y       z     vdW  Elec       q    Type
                         _______ _______ _______ _____ _____    ______ ____

>  <TORSDO>
F 14

$$$$
=
 OpenBabel11072414263D

 47 52  0  0  1  0  0  0  0  0999 V2000
  162.2340  208.6780  148.9880 C   0  0  0  0  0  0  0  0  0  0  0  0
  161.3620  211.0990  150.0380 C   0  0  0  0  0  0  0  0  0  0  0  0
  161.5760  210.0340  150.8650 C   0  0  0  0  0  0  0  0  0  0  0  0
  160.8780  211.6590  152.0330 C   0  0  0  0  0  0  0  0  0  0  0  0
  161.5550  211.0170  148.6610 C   0  0  0  0  0  3  0  0  0  0  0  0
  160.9340  212.1470  150.7640 N   0  0  0  0  0  0  0  0  0  0  0  0
  161.2690  210.3630  152.1340 N   0  0  0  0  0  0  0  0  0  0  0  0
  161.9980  209.7900  148.1420 C   0  0  0  0  0  3  0  0  0  0  0  0
  162.0240  208.7950  150.3820 C   0  0  0  0  0  0  0  0  0  0  0  0
  161.3950  214.0020  149.4380 F   0  0  0  0  0  0  0  0  0  0  0  0
  159.2640  213.2800  149.5800 F   0  0  0  0  0  0  0  0  0  0  0  0
  160.2140  214.3020  151.3340 F   0  0  0  0  0  0  0  0  0  0  0  0
  160.4490  213.4430  150.2750 C   0  0  0  0  0  0  0  0  0  0  0  0
  162.2640  207.6120  151.2890 C   0  0  2  0  0  3  0  0  0  0  0  0
  163.4350  206.9340  150.9440 O   0  0  0  0  0  1  0  0  0  0  0  0
  161.0820  206.6350  151.4230 C   0  0  1  0  0  3  0  0  0  0  0  0
  161.3880  205.2480  150.8470 C   0  0  2  0  0  3  0  0  0  0  0  0
  160.2190  204.6770  150.3390 O   0  0  0  0  0  1  0  0  0  0  0  0
  161.1440  203.2480  151.7610 C   0  0  0  0  0  1  0  0  0  0  0  0
  161.9060  204.4140  151.8410 O   0  0  0  0  0  0  0  0  0  0  0  0
  160.4710  206.5860  152.8270 C   0  0  0  0  0  2  0  0  0  0  0  0
  161.2310  207.3290  153.7330 O   0  0  0  0  0  0  0  0  0  0  0  0
  161.8930  206.3710  154.5030 C   0  0  0  0  0  1  0  0  0  0  0  0
  160.3570  212.4250  153.2030 C   0  0  0  0  0  2  0  0  0  0  0  0
  158.0580  212.1820  153.6720 C   0  0  2  0  0  3  0  0  0  0  0  0
  159.3790  211.6160  153.9180 N   0  0  0  0  0  0  0  0  0  0  0  0
  159.4820  213.0730  156.0370 C   0  0  0  0  0  2  0  0  0  0  0  0
  157.3410  212.3120  155.0040 C   0  0  0  0  0  2  0  0  0  0  0  0
  159.6410  211.7210  155.3550 C   0  0  1  0  0  0  0  0  0  0  0  0
  157.3050  211.3050  152.7950 N   0  0  0  0  0  1  0  0  0  0  0  0
  158.3610  212.0390  156.0910 C   0  0  1  0  0  3  0  0  0  0  0  0
  159.9350  209.4250  156.3310 C   0  0  0  0  0  3  0  0  0  0  0  0
  161.8470  210.9000  156.2240 C   0  0  0  0  0  3  0  0  0  0  0  0
  160.1780  207.1210  157.2610 C   0  0  0  0  0  1  0  0  0  0  0  0
  160.7490  208.4460  156.9040 C   0  0  0  0  0  0  0  0  0  0  0  0
  160.4870  210.6670  155.9980 C   0  0  0  0  0  0  0  0  0  0  0  0
  162.0660  208.6990  157.1290 N   0  0  0  0  0  0  0  0  0  0  0  0
  162.6270  209.8940  156.8010 C   0  0  0  0  0  3  0  0  0  0  0  0
  162.6650  207.4560  148.4590 O   0  0  0  0  0  0  0  0  0  0  0  0
  160.8940  206.2000  147.4380 C   0  0  0  0  0  2  0  0  0  0  0  0
  162.1960  206.9430  147.2200 C   0  0  2  0  0  3  0  0  0  0  0  0
  162.1900  205.4310  147.2870 C   0  0  2  0  0  3  0  0  0  0  0  0
  162.2990  204.8810  145.8800 C   0  0  0  0  0  2  0  0  0  0  0  0
  161.8020  203.5160  145.8470 N   0  0  0  0  0  2  0  0  0  0  0  0
  160.0270  204.0060  144.4100 O   0  0  0  0  0  0  0  0  0  0  0  0
  160.6500  203.1470  145.0900 C   0  0  0  0  0  0  0  0  0  0  0  0
  160.2160  201.8290  145.0990 O   0  0  0  0  0  1  0  0  0  0  0  0
  1  9  1  0  0  0  0
  2  6  1  0  0  0  0
  2  3  1  0  0  0  0
  3  7  1  0  0  0  0
  4  7  2  0  0  0  0
  4 24  1  0  0  0  0
  5  2  2  0  0  0  0
  6  4  1  0  0  0  0
  8  5  1  0  0  0  0
  8  1  2  0  0  0  0
  9  3  2  0  0  0  0
  9 14  1  0  0  0  0
 10 13  1  0  0  0  0
 11 13  1  0  0  0  0
 13  6  1  0  0  0  0
 13 12  1  0  0  0  0
 14 15  1  6  0  0  0
 14 16  1  0  0  0  0
 16 21  1  1  0  0  0
 17 18  1  1  0  0  0
 17 16  1  0  0  0  0
 17 20  1  0  0  0  0
 19 20  1  0  0  0  0
 21 22  1  0  0  0  0
 22 23  1  0  0  0  0
 24 26  1  0  0  0  0
 25 30  1  6  0  0  0
 25 26  1  0  0  0  0
 25 28  1  0  0  0  0
 26 29  1  0  0  0  0
 27 31  1  0  0  0  0
 29 36  1  1  0  0  0
 29 27  1  0  0  0  0
 29 31  1  0  0  0  0
 31 28  1  6  0  0  0
 32 35  1  0  0  0  0
 33 38  2  0  0  0  0
 35 37  2  0  0  0  0
 35 34  1  0  0  0  0
 36 33  1  0  0  0  0
 36 32  2  0  0  0  0
 38 37  1  0  0  0  0
 39  1  1  0  0  0  0
 41 42  1  0  0  0  0
 41 40  1  0  0  0  0
 41 39  1  1  0  0  0
 42 43  1  6  0  0  0
 42 40  1  0  0  0  0
 44 43  1  0  0  0  0
 45 46  2  0  0  0  0
 46 47  1  0  0  0  0
 46 44  1  0  0  0  0
M  END
>  <MODEL>
3

>  <REMARK>
 VINA RESULT:      -5.2      2.532      4.655
  Name = 
  14 active torsions:
  status: ('A' for Active; 'I' for Inactive)
    1  A    between atoms: O_2  and  C_43
    2  A    between atoms: C_3  and  O_47
    3  A    between atoms: C_6  and  C_9
    4  A    between atoms: C_6  and  C_46
    5  A    between atoms: C_8  and  C_11
    6  A    between atoms: C_9  and  C_41
    7  A    between atoms: C_9  and  C_43
    8  A    between atoms: C_11  and  N_13
    9  A    between atoms: N_12  and  C_26
   10  A    between atoms: N_17  and  C_29
   11  A    between atoms: C_27  and  O_47
   12  A    between atoms: O_28  and  C_41
   13  A    between atoms: C_29  and  C_40
   14  A    between atoms: C_34  and  C_37
                            x       y       z     vdW  Elec       q    Type
                         _______ _______ _______ _____ _____    ______ ____

>  <TORSDO>
F 14

$$$$
=
 OpenBabel11072414263D

 47 52  0  0  1  0  0  0  0  0999 V2000
  160.8660  209.7990  154.6600 C   0  0  0  0  0  0  0  0  0  0  0  0
  161.1010  207.5110  153.0990 C   0  0  0  0  0  0  0  0  0  0  0  0
  160.5960  208.6590  152.5580 C   0  0  0  0  0  0  0  0  0  0  0  0
  160.5650  207.1480  151.0730 C   0  0  0  0  0  0  0  0  0  0  0  0
  161.5010  207.4360  154.4310 C   0  0  0  0  0  3  0  0  0  0  0  0
  161.1060  206.5440  152.1650 N   0  0  0  0  0  0  0  0  0  0  0  0
  160.2420  208.4500  151.2750 N   0  0  0  0  0  0  0  0  0  0  0  0
  161.3800  208.5970  155.2100 C   0  0  0  0  0  3  0  0  0  0  0  0
  160.4650  209.8390  153.3050 C   0  0  0  0  0  0  0  0  0  0  0  0
  160.4760  204.3520  151.7030 F   0  0  0  0  0  0  0  0  0  0  0  0
  162.6740  204.8430  151.8130 F   0  0  0  0  0  0  0  0  0  0  0  0
  161.4470  204.7960  153.6880 F   0  0  0  0  0  0  0  0  0  0  0  0
  161.4270  205.1230  152.3430 C   0  0  0  0  0  0  0  0  0  0  0  0
  159.9080  211.1120  152.7150 C   0  0  2  0  0  3  0  0  0  0  0  0
  158.5110  211.1010  152.7020 O   0  0  0  0  0  1  0  0  0  0  0  0
  160.4680  211.4980  151.3340 C   0  0  1  0  0  3  0  0  0  0  0  0
  160.1370  212.9420  150.9400 C   0  0  2  0  0  3  0  0  0  0  0  0
  159.9440  213.7140  152.0890 O   0  0  0  0  0  1  0  0  0  0  0  0
  159.3940  213.4210  148.9120 C   0  0  0  0  0  1  0  0  0  0  0  0
  158.9740  212.9790  150.1670 O   0  0  0  0  0  0  0  0  0  0  0  0
  161.9460  211.1420  151.1400 C   0  0  0  0  0  2  0  0  0  0  0  0
  162.1350  210.3890  149.9790 O   0  0  0  0  0  0  0  0  0  0  0  0
  162.2150  211.3370  148.9580 C   0  0  0  0  0  1  0  0  0  0  0  0
  160.2630  206.4450  149.7910 C   0  0  0  0  0  2  0  0  0  0  0  0
  162.2470  207.2830  148.8290 C   0  0  2  0  0  3  0  0  0  0  0  0
  161.5090  206.0640  149.1400 N   0  0  0  0  0  0  0  0  0  0  0  0
  160.5060  206.2050  146.7740 C   0  0  0  0  0  2  0  0  0  0  0  0
  162.7110  207.2020  147.3860 C   0  0  0  0  0  2  0  0  0  0  0  0
  161.1950  205.4050  147.8700 C   0  0  1  0  0  0  0  0  0  0  0  0
  163.3980  207.3960  149.7060 N   0  0  0  0  0  1  0  0  0  0  0  0
  162.0200  206.0090  146.7580 C   0  0  1  0  0  3  0  0  0  0  0  0
  160.9820  203.1950  149.0450 C   0  0  0  0  0  3  0  0  0  0  0  0
  161.1290  203.2220  146.6330 C   0  0  0  0  0  3  0  0  0  0  0  0
  160.7370  201.0290  150.2620 C   0  0  0  0  0  1  0  0  0  0  0  0
  160.8830  201.8030  149.0020 C   0  0  0  0  0  0  0  0  0  0  0  0
  161.1170  203.9100  147.8500 C   0  0  0  0  0  0  0  0  0  0  0  0
  160.9120  201.1530  147.8070 N   0  0  0  0  0  0  0  0  0  0  0  0
  161.0290  201.8290  146.6320 C   0  0  0  0  0  3  0  0  0  0  0  0
  160.7400  210.9480  155.4490 O   0  0  0  0  0  0  0  0  0  0  0  0
  158.4560  210.4990  156.0320 C   0  0  0  0  0  2  0  0  0  0  0  0
  159.7820  211.0670  156.4920 C   0  0  2  0  0  3  0  0  0  0  0  0
  158.6770  211.9960  156.0380 C   0  0  2  0  0  3  0  0  0  0  0  0
  158.0220  212.6070  157.2610 C   0  0  0  0  0  2  0  0  0  0  0  0
  157.1120  213.6640  156.8530 N   0  0  0  0  0  2  0  0  0  0  0  0
  155.3920  212.2000  156.2580 O   0  0  0  0  0  1  0  0  0  0  0  0
  155.8050  213.3870  156.3520 C   0  0  0  0  0  0  0  0  0  0  0  0
  154.9790  214.4360  155.9720 O   0  0  0  0  0  0  0  0  0  0  0  0
  1  8  1  0  0  0  0
  1 39  1  0  0  0  0
  2  5  1  0  0  0  0
  3  2  2  0  0  0  0
  3  9  1  0  0  0  0
  4  7  2  0  0  0  0
  4  6  1  0  0  0  0
  5  8  2  0  0  0  0
  6 13  1  0  0  0  0
  6  2  1  0  0  0  0
  7  3  1  0  0  0  0
  9  1  2  0  0  0  0
 10 13  1  0  0  0  0
 11 13  1  0  0  0  0
 13 12  1  0  0  0  0
 14 15  1  6  0  0  0
 14  9  1  0  0  0  0
 16 21  1  1  0  0  0
 16 14  1  0  0  0  0
 17 16  1  0  0  0  0
 17 18  1  1  0  0  0
 19 20  1  0  0  0  0
 20 17  1  0  0  0  0
 22 21  1  0  0  0  0
 23 22  1  0  0  0  0
 24  4  1  0  0  0  0
 25 26  1  0  0  0  0
 25 30  1  1  0  0  0
 26 24  1  0  0  0  0
 27 29  1  0  0  0  0
 28 25  1  0  0  0  0
 29 36  1  1  0  0  0
 29 26  1  0  0  0  0
 31 27  1  6  0  0  0
 31 28  1  0  0  0  0
 31 29  1  0  0  0  0
 33 36  1  0  0  0  0
 35 32  1  0  0  0  0
 35 34  1  0  0  0  0
 36 32  2  0  0  0  0
 37 35  2  0  0  0  0
 38 33  2  0  0  0  0
 38 37  1  0  0  0  0
 40 42  1  0  0  0  0
 40 41  1  0  0  0  0
 41 39  1  6  0  0  0
 42 41  1  0  0  0  0
 42 43  1  1  0  0  0
 44 43  1  0  0  0  0
 45 46  1  0  0  0  0
 46 44  1  0  0  0  0
 47 46  2  0  0  0  0
M  END
>  <MODEL>
4

>  <REMARK>
 VINA RESULT:      -4.8      3.502      9.192
  Name = 
  14 active torsions:
  status: ('A' for Active; 'I' for Inactive)
    1  A    between atoms: O_2  and  C_43
    2  A    between atoms: C_3  and  O_47
    3  A    between atoms: C_6  and  C_9
    4  A    between atoms: C_6  and  C_46
    5  A    between atoms: C_8  and  C_11
    6  A    between atoms: C_9  and  C_41
    7  A    between atoms: C_9  and  C_43
    8  A    between atoms: C_11  and  N_13
    9  A    between atoms: N_12  and  C_26
   10  A    between atoms: N_17  and  C_29
   11  A    between atoms: C_27  and  O_47
   12  A    between atoms: O_28  and  C_41
   13  A    between atoms: C_29  and  C_40
   14  A    between atoms: C_34  and  C_37
                            x       y       z     vdW  Elec       q    Type
                         _______ _______ _______ _____ _____    ______ ____

>  <TORSDO>
F 14

$$$$
=
 OpenBabel11072414263D

 47 52  0  0  1  0  0  0  0  0999 V2000
  160.8090  210.9270  152.4800 C   0  0  0  0  0  0  0  0  0  0  0  0
  161.5800  208.9210  150.7170 C   0  0  0  0  0  0  0  0  0  0  0  0
  161.3100  208.6180  152.0210 C   0  0  0  0  0  0  0  0  0  0  0  0
  161.9030  206.8420  151.0290 C   0  0  0  0  0  0  0  0  0  0  0  0
  161.4960  210.2220  150.2280 C   0  0  0  0  0  3  0  0  0  0  0  0
  161.9430  207.8020  150.0660 N   0  0  0  0  0  0  0  0  0  0  0  0
  161.5140  207.3060  152.2440 N   0  0  0  0  0  0  0  0  0  0  0  0
  161.1030  211.2280  151.1260 C   0  0  0  0  0  3  0  0  0  0  0  0
  160.9100  209.5950  152.9450 C   0  0  0  0  0  0  0  0  0  0  0  0
  161.4490  207.2260  147.8670 F   0  0  0  0  0  0  0  0  0  0  0  0
  162.8970  208.9130  148.2420 F   0  0  0  0  0  0  0  0  0  0  0  0
  163.5190  206.7990  148.6520 F   0  0  0  0  0  0  0  0  0  0  0  0
  162.4550  207.6840  148.6960 C   0  0  0  0  0  0  0  0  0  0  0  0
  160.6080  209.2690  154.3880 C   0  0  2  0  0  3  0  0  0  0  0  0
  159.5700  210.0600  154.8840 O   0  0  0  0  0  1  0  0  0  0  0  0
  161.8210  209.2950  155.3360 C   0  0  1  0  0  3  0  0  0  0  0  0
  162.0750  210.6810  155.9390 C   0  0  2  0  0  3  0  0  0  0  0  0
  163.4420  210.8540  156.1710 O   0  0  0  0  0  1  0  0  0  0  0  0
  161.1310  212.1830  157.2600 C   0  0  0  0  0  1  0  0  0  0  0  0
  161.3880  210.8170  157.1480 O   0  0  0  0  0  0  0  0  0  0  0  0
  161.8200  208.1720  156.3790 C   0  0  0  0  0  2  0  0  0  0  0  0
  160.8860  207.1850  156.0550 O   0  0  0  0  0  0  0  0  0  0  0  0
  160.0840  207.0770  157.1930 C   0  0  0  0  0  1  0  0  0  0  0  0
  162.3270  205.4260  150.8180 C   0  0  0  0  0  2  0  0  0  0  0  0
  160.7080  204.3130  152.1240 C   0  0  2  0  0  3  0  0  0  0  0  0
  161.1500  204.5700  150.7570 N   0  0  0  0  0  0  0  0  0  0  0  0
  162.5210  202.3980  150.9160 C   0  0  0  0  0  2  0  0  0  0  0  0
  160.4700  202.8220  152.2740 C   0  0  0  0  0  2  0  0  0  0  0  0
  161.5320  203.2830  150.1710 C   0  0  1  0  0  0  0  0  0  0  0  0
  159.4750  205.0330  152.3830 N   0  0  0  0  0  1  0  0  0  0  0  0
  161.0190  202.1520  151.0300 C   0  0  1  0  0  3  0  0  0  0  0  0
  161.6970  204.1020  147.8020 C   0  0  0  0  0  3  0  0  0  0  0  0
  160.8330  201.8810  148.2100 C   0  0  0  0  0  3  0  0  0  0  0  0
  161.9120  204.9530  145.4650 C   0  0  0  0  0  1  0  0  0  0  0  0
  161.5300  203.8900  146.4310 C   0  0  0  0  0  0  0  0  0  0  0  0
  161.3350  203.0910  148.7000 C   0  0  0  0  0  0  0  0  0  0  0  0
  161.0260  202.7110  145.9780 N   0  0  0  0  0  0  0  0  0  0  0  0
  160.6810  201.7100  146.8320 C   0  0  0  0  0  3  0  0  0  0  0  0
  160.4290  211.9380  153.3700 O   0  0  0  0  0  0  0  0  0  0  0  0
  158.4150  213.1800  153.7680 C   0  0  0  0  0  2  0  0  0  0  0  0
  159.6970  213.0870  152.9670 C   0  0  2  0  0  3  0  0  0  0  0  0
  158.3870  212.6410  152.3530 C   0  0  2  0  0  3  0  0  0  0  0  0
  157.9030  213.7190  151.4040 C   0  0  0  0  0  2  0  0  0  0  0  0
  158.0030  213.2450  150.0330 N   0  0  0  0  0  2  0  0  0  0  0  0
  159.9470  214.4530  149.5690 O   0  0  0  0  0  1  0  0  0  0  0  0
  159.0560  213.6610  149.1640 C   0  0  0  0  0  0  0  0  0  0  0  0
  159.0990  213.1810  147.8620 O   0  0  0  0  0  0  0  0  0  0  0  0
  1  9  1  0  0  0  0
  1 39  1  0  0  0  0
  2  3  1  0  0  0  0
  3  7  1  0  0  0  0
  3  9  2  0  0  0  0
  4  7  2  0  0  0  0
  5  2  2  0  0  0  0
  5  8  1  0  0  0  0
  6  2  1  0  0  0  0
  6  4  1  0  0  0  0
  8  1  2  0  0  0  0
  9 14  1  0  0  0  0
 10 13  1  0  0  0  0
 11 13  1  0  0  0  0
 12 13  1  0  0  0  0
 13  6  1  0  0  0  0
 14 15  1  1  0  0  0
 14 16  1  0  0  0  0
 16 17  1  0  0  0  0
 16 21  1  1  0  0  0
 17 18  1  1  0  0  0
 17 20  1  0  0  0  0
 20 19  1  0  0  0  0
 22 21  1  0  0  0  0
 22 23  1  0  0  0  0
 24  4  1  0  0  0  0
 25 28  1  0  0  0  0
 25 30  1  6  0  0  0
 26 24  1  0  0  0  0
 26 25  1  0  0  0  0
 29 36  1  6  0  0  0
 29 26  1  0  0  0  0
 29 27  1  0  0  0  0
 29 31  1  0  0  0  0
 31 27  1  1  0  0  0
 31 28  1  0  0  0  0
 32 36  1  0  0  0  0
 33 36  2  0  0  0  0
 34 35  1  0  0  0  0
 35 32  2  0  0  0  0
 37 35  1  0  0  0  0
 37 38  2  0  0  0  0
 38 33  1  0  0  0  0
 41 39  1  1  0  0  0
 41 40  1  0  0  0  0
 42 43  1  6  0  0  0
 42 41  1  0  0  0  0
 42 40  1  0  0  0  0
 44 43  1  0  0  0  0
 46 45  1  0  0  0  0
 46 44  1  0  0  0  0
 47 46  2  0  0  0  0
M  END
>  <MODEL>
5

>  <REMARK>
 VINA RESULT:      -4.6      4.268      9.724
  Name = 
  14 active torsions:
  status: ('A' for Active; 'I' for Inactive)
    1  A    between atoms: O_2  and  C_43
    2  A    between atoms: C_3  and  O_47
    3  A    between atoms: C_6  and  C_9
    4  A    between atoms: C_6  and  C_46
    5  A    between atoms: C_8  and  C_11
    6  A    between atoms: C_9  and  C_41
    7  A    between atoms: C_9  and  C_43
    8  A    between atoms: C_11  and  N_13
    9  A    between atoms: N_12  and  C_26
   10  A    between atoms: N_17  and  C_29
   11  A    between atoms: C_27  and  O_47
   12  A    between atoms: O_28  and  C_41
   13  A    between atoms: C_29  and  C_40
   14  A    between atoms: C_34  and  C_37
                            x       y       z     vdW  Elec       q    Type
                         _______ _______ _______ _____ _____    ______ ____

>  <TORSDO>
F 14

$$$$
=
 OpenBabel11072414263D

 47 52  0  0  1  0  0  0  0  0999 V2000
  161.8300  206.4530  152.4700 C   0  0  0  0  0  0  0  0  0  0  0  0
  160.5920  207.8980  154.4950 C   0  0  0  0  0  0  0  0  0  0  0  0
  160.4540  208.2900  153.1950 C   0  0  0  0  0  0  0  0  0  0  0  0
  159.4100  209.6660  154.4220 C   0  0  0  0  0  0  0  0  0  0  0  0
  161.3530  206.7900  154.8570 C   0  0  0  0  0  3  0  0  0  0  0  0
  159.9220  208.7510  155.2900 N   0  0  0  0  0  0  0  0  0  0  0  0
  159.7140  209.4130  153.1240 N   0  0  0  0  0  0  0  0  0  0  0  0
  161.9730  206.0650  153.8260 C   0  0  0  0  0  3  0  0  0  0  0  0
  161.0540  207.5880  152.1380 C   0  0  0  0  0  0  0  0  0  0  0  0
  159.7630  207.5190  157.2570 F   0  0  0  0  0  0  0  0  0  0  0  0
  161.1000  209.3330  157.2260 F   0  0  0  0  0  0  0  0  0  0  0  0
  158.8740  209.5890  157.2100 F   0  0  0  0  0  0  0  0  0  0  0  0
  159.9140  208.7980  156.7570 C   0  0  0  0  0  0  0  0  0  0  0  0
  160.9070  208.0120  150.6970 C   0  0  2  0  0  3  0  0  0  0  0  0
  160.4120  206.9730  149.9060 O   0  0  0  0  0  1  0  0  0  0  0  0
  162.1630  208.6360  150.0630 C   0  0  1  0  0  3  0  0  0  0  0  0
  162.3070  208.3020  148.5750 C   0  0  2  0  0  3  0  0  0  0  0  0
  161.0500  208.2990  147.9660 O   0  0  0  0  0  1  0  0  0  0  0  0
  162.3910  206.5680  147.2030 C   0  0  0  0  0  1  0  0  0  0  0  0
  162.8920  207.0420  148.4150 O   0  0  0  0  0  0  0  0  0  0  0  0
  162.3390  210.1280  150.3680 C   0  0  0  0  0  2  0  0  0  0  0  0
  161.6570  210.9160  149.4370 O   0  0  0  0  0  0  0  0  0  0  0  0
  162.6450  211.7260  148.8750 C   0  0  0  0  0  1  0  0  0  0  0  0
  158.6590  210.8870  154.8390 C   0  0  0  0  0  2  0  0  0  0  0  0
  159.9200  212.4800  156.0360 C   0  0  2  0  0  3  0  0  0  0  0  0
  159.5170  212.0560  154.7000 N   0  0  0  0  0  0  0  0  0  0  0  0
  157.5590  213.7160  154.8900 C   0  0  0  0  0  2  0  0  0  0  0  0
  159.7000  213.9780  156.1450 C   0  0  0  0  0  2  0  0  0  0  0  0
  158.7360  213.1460  154.1110 C   0  0  1  0  0  0  0  0  0  0  0  0
  161.3240  212.1760  156.2440 N   0  0  0  0  0  1  0  0  0  0  0  0
  158.9190  214.4080  154.9200 C   0  0  1  0  0  3  0  0  0  0  0  0
  157.6290  213.3150  151.8620 C   0  0  0  0  0  3  0  0  0  0  0  0
  160.0260  213.5940  152.0050 C   0  0  0  0  0  3  0  0  0  0  0  0
  156.4740  213.5050  149.6580 C   0  0  0  0  0  1  0  0  0  0  0  0
  157.7090  213.5250  150.4840 C   0  0  0  0  0  0  0  0  0  0  0  0
  158.8000  213.3390  152.6280 C   0  0  0  0  0  0  0  0  0  0  0  0
  158.9140  213.7560  149.8970 N   0  0  0  0  0  0  0  0  0  0  0  0
  160.0630  213.7970  150.6230 C   0  0  0  0  0  3  0  0  0  0  0  0
  162.4610  205.7300  151.4510 O   0  0  0  0  0  0  0  0  0  0  0  0
  161.7220  204.0450  149.9110 C   0  0  0  0  0  2  0  0  0  0  0  0
  162.2980  204.3290  151.2830 C   0  0  2  0  0  3  0  0  0  0  0  0
  160.8240  204.0230  151.1300 C   0  0  2  0  0  3  0  0  0  0  0  0
  160.5780  202.5910  151.5600 C   0  0  0  0  0  2  0  0  0  0  0  0
  161.1520  201.6800  150.5840 N   0  0  0  0  0  2  0  0  0  0  0  0
  159.2930  201.7380  149.1700 O   0  0  0  0  0  1  0  0  0  0  0  0
  160.4470  201.2890  149.4060 C   0  0  0  0  0  0  0  0  0  0  0  0
  161.0420  200.4120  148.5090 O   0  0  0  0  0  0  0  0  0  0  0  0
  1  8  1  0  0  0  0
  2  5  1  0  0  0  0
  2  6  1  0  0  0  0
  3  2  2  0  0  0  0
  4 24  1  0  0  0  0
  4  6  1  0  0  0  0
  6 13  1  0  0  0  0
  7  3  1  0  0  0  0
  7  4  2  0  0  0  0
  8  5  2  0  0  0  0
  9  1  2  0  0  0  0
  9  3  1  0  0  0  0
 13 12  1  0  0  0  0
 13 11  1  0  0  0  0
 13 10  1  0  0  0  0
 14 15  1  6  0  0  0
 14  9  1  0  0  0  0
 16 21  1  6  0  0  0
 16 14  1  0  0  0  0
 17 18  1  1  0  0  0
 17 16  1  0  0  0  0
 19 20  1  0  0  0  0
 20 17  1  0  0  0  0
 22 21  1  0  0  0  0
 23 22  1  0  0  0  0
 25 28  1  0  0  0  0
 25 30  1  6  0  0  0
 26 24  1  0  0  0  0
 26 25  1  0  0  0  0
 29 36  1  6  0  0  0
 29 26  1  0  0  0  0
 29 27  1  0  0  0  0
 29 31  1  0  0  0  0
 31 27  1  1  0  0  0
 31 28  1  0  0  0  0
 32 36  1  0  0  0  0
 33 36  2  0  0  0  0
 34 35  1  0  0  0  0
 35 32  2  0  0  0  0
 37 35  1  0  0  0  0
 37 38  2  0  0  0  0
 38 33  1  0  0  0  0
 39  1  1  0  0  0  0
 40 42  1  0  0  0  0
 40 41  1  0  0  0  0
 41 39  1  6  0  0  0
 42 41  1  0  0  0  0
 42 43  1  1  0  0  0
 44 43  1  0  0  0  0
 45 46  1  0  0  0  0
 46 44  1  0  0  0  0
 47 46  2  0  0  0  0
M  END
>  <MODEL>
6

>  <REMARK>
 VINA RESULT:      -4.2      1.671      3.031
  Name = 
  14 active torsions:
  status: ('A' for Active; 'I' for Inactive)
    1  A    between atoms: O_2  and  C_43
    2  A    between atoms: C_3  and  O_47
    3  A    between atoms: C_6  and  C_9
    4  A    between atoms: C_6  and  C_46
    5  A    between atoms: C_8  and  C_11
    6  A    between atoms: C_9  and  C_41
    7  A    between atoms: C_9  and  C_43
    8  A    between atoms: C_11  and  N_13
    9  A    between atoms: N_12  and  C_26
   10  A    between atoms: N_17  and  C_29
   11  A    between atoms: C_27  and  O_47
   12  A    between atoms: O_28  and  C_41
   13  A    between atoms: C_29  and  C_40
   14  A    between atoms: C_34  and  C_37
                            x       y       z     vdW  Elec       q    Type
                         _______ _______ _______ _____ _____    ______ ____

>  <TORSDO>
F 14

$$$$
