=
 OpenBabel11072413053D

 37 40  0  0  1  0  0  0  0  0999 V2000
  161.4870  211.6840  148.8470 C   0  0  2  0  0  0  0  0  0  0  0  0
  162.0970  207.3690  150.5020 C   0  0  1  0  0  0  0  0  0  0  0  0
  161.6680  207.3290  153.0480 C   0  0  0  0  0  1  0  0  0  0  0  0
  163.3130  206.7490  150.7340 F   0  0  0  0  0  0  0  0  0  0  0  0
  159.9210  214.4530  147.6050 O   0  0  0  0  0  1  0  0  0  0  0  0
  161.9600  210.4490  148.2990 O   0  0  0  0  0  0  0  0  0  0  0  0
  160.6530  213.3220  147.2390 C   0  0  1  0  0  3  0  0  0  0  0  0
  161.6770  208.1230  151.7760 C   0  0  0  0  0  0  0  0  0  0  0  0
  161.4700  210.1690  150.4960 C   0  0  0  0  0  0  0  0  0  0  0  0
  162.5320  212.7690  148.7020 C   0  0  0  0  0  2  0  0  0  0  0  0
  161.1970  211.4110  150.2650 N   0  0  0  0  0  0  0  0  0  0  0  0
  162.1330  213.5760  147.4790 C   0  0  1  0  0  3  0  0  0  0  0  0
  161.3400  209.4450  151.7730 C   0  0  0  0  0  0  0  0  0  0  0  0
  161.9320  209.5270  149.3220 C   0  0  0  0  0  0  0  0  0  0  0  0
  162.2530  208.2440  149.2730 C   0  0  0  0  0  3  0  0  0  0  0  0
  160.2420  212.1530  148.1190 C   0  0  0  0  0  2  0  0  0  0  0  0
  159.6530  210.5190  153.1320 N   0  0  0  0  0  2  0  0  0  0  0  0
  160.8920  210.1760  152.9880 C   0  0  0  0  0  0  0  0  0  0  0  0
  161.8440  210.6230  153.9480 N   0  0  0  0  0  1  0  0  0  0  0  0
  162.6170  213.7200  145.0070 N   0  0  0  0  0  2  0  0  0  0  0  0
  163.8970  212.3570  146.4060 O   0  0  0  0  0  0  0  0  0  0  0  0
  162.9400  213.1720  146.2850 C   0  0  0  0  0  0  0  0  0  0  0  0
  163.3670  213.3780  143.8100 C   0  0  0  0  0  2  0  0  0  0  0  0
  161.8200  212.0390  142.1680 N   0  0  0  0  0  0  0  0  0  0  0  0
  162.5030  212.6320  142.8910 C   0  0  0  0  0  0  0  0  0  0  0  0
  161.0480  206.2970  150.2070 C   0  0  0  0  0  2  0  0  0  0  0  0
  161.6510  205.0540  149.9820 O   0  0  0  0  0  0  0  0  0  0  0  0
  160.9360  204.4960  148.9180 C   0  0  1  0  0  3  0  0  0  0  0  0
  160.1930  206.5340  146.8920 N   0  0  0  0  0  1  0  0  0  0  0  0
  161.6040  204.7830  147.6510 N   0  0  0  0  0  0  0  0  0  0  0  0
  161.2560  205.8130  146.7560 C   0  0  0  0  0  0  0  0  0  0  0  0
  162.9440  204.6660  145.6860 C   0  0  0  0  0  3  0  0  0  0  0  0
  161.9900  205.7630  145.5530 N   0  0  0  0  0  0  0  0  0  0  0  0
  162.6410  203.9760  147.0310 C   0  0  0  0  0  3  0  0  0  0  0  0
  160.7770  203.0230  149.1140 C   0  0  0  0  0  0  0  0  0  0  0  0
  160.8200  202.5250  150.2700 O   0  0  0  0  0  1  0  0  0  0  0  0
  160.6040  202.1960  148.0120 O   0  0  0  0  0  0  0  0  0  0  0  0
  1 16  1  6  0  0  0
  1 11  1  0  0  0  0
  2  4  1  1  0  0  0
  2  8  1  0  0  0  0
  6  1  1  0  0  0  0
  6 14  1  0  0  0  0
  7 12  1  0  0  0  0
  7  5  1  1  0  0  0
  7 16  1  0  0  0  0
  8  3  1  0  0  0  0
  9 13  1  0  0  0  0
 10  1  1  0  0  0  0
 11  9  2  0  0  0  0
 12 22  1  6  0  0  0
 12 10  1  0  0  0  0
 13  8  2  0  0  0  0
 13 18  1  0  0  0  0
 14  9  1  0  0  0  0
 15 14  2  0  0  0  0
 15  2  1  0  0  0  0
 18 17  2  0  0  0  0
 18 19  1  0  0  0  0
 20 22  1  0  0  0  0
 22 21  2  0  0  0  0
 23 20  1  0  0  0  0
 24 25  3  0  0  0  0
 25 23  1  0  0  0  0
 26  2  1  0  0  0  0
 27 26  1  0  0  0  0
 28 35  1  1  0  0  0
 28 27  1  0  0  0  0
 30 28  1  0  0  0  0
 31 29  1  0  0  0  0
 31 30  1  0  0  0  0
 32 34  2  0  0  0  0
 33 32  1  0  0  0  0
 33 31  2  0  0  0  0
 34 30  1  0  0  0  0
 35 36  1  0  0  0  0
 37 35  2  0  0  0  0
M  END
>  <MODEL>
1

>  <REMARK>
 VINA RESULT:      -6.1      0.000      0.000
  Name = 
  9 active torsions:
  status: ('A' for Active; 'I' for Inactive)
    1  A    between atoms: N_4  and  C_31
    2  A    between atoms: C_5  and  C_35
    3  A    between atoms: N_9  and  C_13
    4  A    between atoms: C_13  and  C_24
    5  A    between atoms: C_20  and  C_29
    6  A    between atoms: C_25  and  C_31
    7  A    between atoms: C_27  and  C_30
    8  A    between atoms: C_31  and  O_36
    9  A    between atoms: C_35  and  O_36
                            x       y       z     vdW  Elec       q    Type
                         _______ _______ _______ _____ _____    ______ ____

>  <TORSDO>
F 9

$$$$
=
 OpenBabel11072413053D

 37 40  0  0  1  0  0  0  0  0999 V2000
  159.5660  211.1720  152.8010 C   0  0  2  0  0  0  0  0  0  0  0  0
  161.6340  207.1100  151.8250 C   0  0  1  0  0  0  0  0  0  0  0  0
  162.1470  205.8300  154.0090 C   0  0  0  0  0  1  0  0  0  0  0  0
  162.9580  206.9370  151.4560 F   0  0  0  0  0  0  0  0  0  0  0  0
  157.1060  213.4310  153.5120 O   0  0  0  0  0  1  0  0  0  0  0  0
  160.0710  210.5550  151.6120 O   0  0  0  0  0  0  0  0  0  0  0  0
  157.8870  212.9160  152.4770 C   0  0  1  0  0  3  0  0  0  0  0  0
  161.5370  207.0370  153.3590 C   0  0  0  0  0  0  0  0  0  0  0  0
  160.4570  209.2040  153.3940 C   0  0  0  0  0  0  0  0  0  0  0  0
  160.2330  212.5110  153.0360 C   0  0  0  0  0  2  0  0  0  0  0  0
  159.8590  210.2330  153.8980 N   0  0  0  0  0  0  0  0  0  0  0  0
  159.2650  213.5580  152.5150 C   0  0  1  0  0  3  0  0  0  0  0  0
  160.9430  208.0110  154.1080 C   0  0  0  0  0  0  0  0  0  0  0  0
  160.6040  209.3430  151.9920 C   0  0  0  0  0  0  0  0  0  0  0  0
  161.1560  208.4180  151.2240 C   0  0  0  0  0  3  0  0  0  0  0  0
  158.0750  211.4220  152.6860 C   0  0  0  0  0  2  0  0  0  0  0  0
  159.7600  207.3910  156.1220 N   0  0  0  0  0  2  0  0  0  0  0  0
  160.8040  207.9330  155.5860 C   0  0  0  0  0  0  0  0  0  0  0  0
  161.7570  208.5700  156.4300 N   0  0  0  0  0  1  0  0  0  0  0  0
  158.7120  213.9960  150.0930 N   0  0  0  0  0  2  0  0  0  0  0  0
  160.8400  214.4470  150.9410 O   0  0  0  0  0  0  0  0  0  0  0  0
  159.6690  214.0280  151.1520 C   0  0  0  0  0  0  0  0  0  0  0  0
  159.0360  214.4470  148.7480 C   0  0  0  0  0  2  0  0  0  0  0  0
  160.1730  212.4910  147.4230 N   0  0  0  0  0  0  0  0  0  0  0  0
  159.6680  213.3530  148.0080 C   0  0  0  0  0  0  0  0  0  0  0  0
  160.8070  205.9700  151.2320 C   0  0  0  0  0  2  0  0  0  0  0  0
  161.6230  205.0590  150.5520 O   0  0  0  0  0  0  0  0  0  0  0  0
  160.7590  204.3780  149.6890 C   0  0  1  0  0  3  0  0  0  0  0  0
  160.7950  206.7920  147.9610 N   0  0  0  0  0  1  0  0  0  0  0  0
  161.2300  204.4850  148.3100 N   0  0  0  0  0  0  0  0  0  0  0  0
  161.2960  205.6730  147.5560 C   0  0  0  0  0  0  0  0  0  0  0  0
  161.9300  204.0180  146.0830 C   0  0  0  0  0  3  0  0  0  0  0  0
  161.6630  205.4470  146.2130 N   0  0  0  0  0  0  0  0  0  0  0  0
  161.5750  203.3750  147.4390 C   0  0  0  0  0  3  0  0  0  0  0  0
  160.6340  202.9470  150.0990 C   0  0  0  0  0  0  0  0  0  0  0  0
  161.3850  202.4720  150.9930 O   0  0  0  0  0  1  0  0  0  0  0  0
  159.7000  202.1310  149.4760 O   0  0  0  0  0  0  0  0  0  0  0  0
  1 16  1  6  0  0  0
  1 10  1  0  0  0  0
  1 11  1  0  0  0  0
  2  4  1  6  0  0  0
  2  8  1  0  0  0  0
  6 14  1  0  0  0  0
  6  1  1  0  0  0  0
  7 12  1  0  0  0  0
  7 16  1  0  0  0  0
  7  5  1  1  0  0  0
  8  3  1  0  0  0  0
  8 13  2  0  0  0  0
  9 11  2  0  0  0  0
  9 13  1  0  0  0  0
 12 22  1  6  0  0  0
 12 10  1  0  0  0  0
 13 18  1  0  0  0  0
 14  9  1  0  0  0  0
 15  2  1  0  0  0  0
 15 14  2  0  0  0  0
 18 17  2  0  0  0  0
 18 19  1  0  0  0  0
 20 22  1  0  0  0  0
 21 22  2  0  0  0  0
 23 20  1  0  0  0  0
 24 25  3  0  0  0  0
 25 23  1  0  0  0  0
 26  2  1  0  0  0  0
 27 26  1  0  0  0  0
 28 35  1  1  0  0  0
 28 27  1  0  0  0  0
 30 28  1  0  0  0  0
 31 29  1  0  0  0  0
 31 30  1  0  0  0  0
 32 33  1  0  0  0  0
 32 34  2  0  0  0  0
 33 31  2  0  0  0  0
 34 30  1  0  0  0  0
 35 36  1  0  0  0  0
 37 35  2  0  0  0  0
M  END
>  <MODEL>
2

>  <REMARK>
 VINA RESULT:      -5.9      2.642      3.785
  Name = 
  9 active torsions:
  status: ('A' for Active; 'I' for Inactive)
    1  A    between atoms: N_4  and  C_31
    2  A    between atoms: C_5  and  C_35
    3  A    between atoms: N_9  and  C_13
    4  A    between atoms: C_13  and  C_24
    5  A    between atoms: C_20  and  C_29
    6  A    between atoms: C_25  and  C_31
    7  A    between atoms: C_27  and  C_30
    8  A    between atoms: C_31  and  O_36
    9  A    between atoms: C_35  and  O_36
                            x       y       z     vdW  Elec       q    Type
                         _______ _______ _______ _____ _____    ______ ____

>  <TORSDO>
F 9

$$$$
=
 OpenBabel11072413053D

 37 40  0  0  1  0  0  0  0  0999 V2000
  159.5150  211.1970  152.8210 C   0  0  2  0  0  0  0  0  0  0  0  0
  161.5620  207.1340  151.8090 C   0  0  1  0  0  0  0  0  0  0  0  0
  162.1650  205.8800  153.9850 C   0  0  0  0  0  1  0  0  0  0  0  0
  162.8710  206.9610  151.3900 F   0  0  0  0  0  0  0  0  0  0  0  0
  157.0740  213.4540  153.6030 O   0  0  0  0  0  1  0  0  0  0  0  0
  159.9760  210.5700  151.6200 O   0  0  0  0  0  0  0  0  0  0  0  0
  157.8170  212.9310  152.5440 C   0  0  1  0  0  3  0  0  0  0  0  0
  161.5260  207.0770  153.3460 C   0  0  0  0  0  0  0  0  0  0  0  0
  160.4380  209.2400  153.4000 C   0  0  0  0  0  0  0  0  0  0  0  0
  160.1840  212.5420  153.0140 C   0  0  0  0  0  2  0  0  0  0  0  0
  159.8550  210.2720  153.9160 N   0  0  0  0  0  0  0  0  0  0  0  0
  159.1920  213.5790  152.5200 C   0  0  1  0  0  3  0  0  0  0  0  0
  160.9570  208.0570  154.1070 C   0  0  0  0  0  0  0  0  0  0  0  0
  160.5290  209.3640  151.9920 C   0  0  0  0  0  0  0  0  0  0  0  0
  161.0540  208.4330  151.2130 C   0  0  0  0  0  3  0  0  0  0  0  0
  158.0190  211.4400  152.7620 C   0  0  0  0  0  2  0  0  0  0  0  0
  161.7250  208.6360  156.3250 N   0  0  0  0  0  1  0  0  0  0  0  0
  160.8760  207.9950  155.5900 C   0  0  0  0  0  0  0  0  0  0  0  0
  159.9430  207.1230  156.2210 N   0  0  0  0  0  2  0  0  0  0  0  0
  158.5380  214.0050  150.1210 N   0  0  0  0  0  2  0  0  0  0  0  0
  160.7050  214.4420  150.8730 O   0  0  0  0  0  0  0  0  0  0  0  0
  159.5400  214.0350  151.1370 C   0  0  0  0  0  0  0  0  0  0  0  0
  158.8060  214.4430  148.7610 C   0  0  0  0  0  2  0  0  0  0  0  0
  160.0070  212.5200  147.4420 N   0  0  0  0  0  0  0  0  0  0  0  0
  159.4760  213.3680  148.0270 C   0  0  0  0  0  0  0  0  0  0  0  0
  160.7170  205.9840  151.2620 C   0  0  0  0  0  2  0  0  0  0  0  0
  160.3860  206.1990  149.9190 O   0  0  0  0  0  0  0  0  0  0  0  0
  161.4880  205.7320  149.1980 C   0  0  1  0  0  3  0  0  0  0  0  0
  161.0360  203.2310  150.7310 N   0  0  0  0  0  1  0  0  0  0  0  0
  161.2210  204.3960  148.6710 N   0  0  0  0  0  0  0  0  0  0  0  0
  160.9380  203.2520  149.4430 C   0  0  0  0  0  0  0  0  0  0  0  0
  161.0280  202.4770  147.2740 C   0  0  0  0  0  3  0  0  0  0  0  0
  160.8580  202.0760  148.6680 N   0  0  0  0  0  0  0  0  0  0  0  0
  161.3400  203.9870  147.2820 C   0  0  0  0  0  3  0  0  0  0  0  0
  161.8290  206.6800  148.0950 C   0  0  0  0  0  0  0  0  0  0  0  0
  161.1500  206.6940  147.0330 O   0  0  0  0  0  0  0  0  0  0  0  0
  162.9140  207.5360  148.2320 O   0  0  0  0  0  1  0  0  0  0  0  0
  1 16  1  6  0  0  0
  1 10  1  0  0  0  0
  1 11  1  0  0  0  0
  2  4  1  6  0  0  0
  2  8  1  0  0  0  0
  6 14  1  0  0  0  0
  6  1  1  0  0  0  0
  7 16  1  0  0  0  0
  7  5  1  1  0  0  0
  8  3  1  0  0  0  0
  8 13  2  0  0  0  0
  9 11  2  0  0  0  0
  9 13  1  0  0  0  0
 12 22  1  6  0  0  0
 12  7  1  0  0  0  0
 12 10  1  0  0  0  0
 13 18  1  0  0  0  0
 14  9  1  0  0  0  0
 15  2  1  0  0  0  0
 15 14  2  0  0  0  0
 18 19  2  0  0  0  0
 18 17  1  0  0  0  0
 20 22  1  0  0  0  0
 21 22  2  0  0  0  0
 23 20  1  0  0  0  0
 24 25  3  0  0  0  0
 25 23  1  0  0  0  0
 26  2  1  0  0  0  0
 27 26  1  0  0  0  0
 28 35  1  6  0  0  0
 28 27  1  0  0  0  0
 30 28  1  0  0  0  0
 30 31  1  0  0  0  0
 31 29  1  0  0  0  0
 32 34  2  0  0  0  0
 32 33  1  0  0  0  0
 33 31  2  0  0  0  0
 34 30  1  0  0  0  0
 35 37  1  0  0  0  0
 36 35  2  0  0  0  0
M  END
>  <MODEL>
3

>  <REMARK>
 VINA RESULT:      -4.9      2.911      4.349
  Name = 
  9 active torsions:
  status: ('A' for Active; 'I' for Inactive)
    1  A    between atoms: N_4  and  C_31
    2  A    between atoms: C_5  and  C_35
    3  A    between atoms: N_9  and  C_13
    4  A    between atoms: C_13  and  C_24
    5  A    between atoms: C_20  and  C_29
    6  A    between atoms: C_25  and  C_31
    7  A    between atoms: C_27  and  C_30
    8  A    between atoms: C_31  and  O_36
    9  A    between atoms: C_35  and  O_36
                            x       y       z     vdW  Elec       q    Type
                         _______ _______ _______ _____ _____    ______ ____

>  <TORSDO>
F 9

$$$$
=
 OpenBabel11072413053D

 37 40  0  0  1  0  0  0  0  0999 V2000
  161.3650  206.6950  147.5050 C   0  0  2  0  0  0  0  0  0  0  0  0
  161.5870  208.6010  151.7530 C   0  0  1  0  0  0  0  0  0  0  0  0
  162.2980  211.0780  151.5760 C   0  0  0  0  0  1  0  0  0  0  0  0
  162.6000  208.4150  152.6790 F   0  0  0  0  0  0  0  0  0  0  0  0
  160.1230  205.7840  144.4580 O   0  0  0  0  0  1  0  0  0  0  0  0
  161.2500  206.1990  148.8430 O   0  0  0  0  0  0  0  0  0  0  0  0
  160.3350  205.3310  145.7610 C   0  0  1  0  0  3  0  0  0  0  0  0
  161.9470  209.8050  150.8650 C   0  0  0  0  0  0  0  0  0  0  0  0
  161.7010  208.4220  148.8920 C   0  0  0  0  0  0  0  0  0  0  0  0
  162.4710  205.9770  146.7600 C   0  0  0  0  0  2  0  0  0  0  0  0
  161.6570  208.1330  147.6330 N   0  0  0  0  0  0  0  0  0  0  0  0
  161.7880  204.9120  145.9210 C   0  0  1  0  0  3  0  0  0  0  0  0
  161.9650  209.7370  149.5020 C   0  0  0  0  0  0  0  0  0  0  0  0
  161.4470  207.2740  149.6810 C   0  0  0  0  0  0  0  0  0  0  0  0
  161.4020  207.2960  151.0040 C   0  0  0  0  0  3  0  0  0  0  0  0
  160.0790  206.4700  146.7350 C   0  0  0  0  0  2  0  0  0  0  0  0
  163.4910  211.2640  148.4160 N   0  0  0  0  0  1  0  0  0  0  0  0
  162.2680  210.9020  148.6300 C   0  0  0  0  0  0  0  0  0  0  0  0
  161.2130  211.7140  148.1250 N   0  0  0  0  0  2  0  0  0  0  0  0
  161.0280  202.5170  146.1380 N   0  0  0  0  0  2  0  0  0  0  0  0
  162.7110  203.3740  147.5110 O   0  0  0  0  0  0  0  0  0  0  0  0
  161.8840  203.5710  146.5790 C   0  0  0  0  0  0  0  0  0  0  0  0
  161.0760  201.1880  146.7270 C   0  0  0  0  0  2  0  0  0  0  0  0
  160.3500  201.3270  149.2440 N   0  0  0  0  0  0  0  0  0  0  0  0
  160.6690  201.2630  148.1320 C   0  0  0  0  0  0  0  0  0  0  0  0
  160.2930  208.9220  152.5010 C   0  0  0  0  0  2  0  0  0  0  0  0
  160.4590  208.7640  153.8810 O   0  0  0  0  0  0  0  0  0  0  0  0
  160.6740  210.0570  154.3670 C   0  0  1  0  0  3  0  0  0  0  0  0
  159.5610  212.5340  153.1680 N   0  0  0  0  0  1  0  0  0  0  0  0
  159.4000  210.7030  154.6710 N   0  0  0  0  0  0  0  0  0  0  0  0
  158.8810  211.8400  154.0200 C   0  0  0  0  0  0  0  0  0  0  0  0
  157.3660  211.3950  155.6980 C   0  0  0  0  0  3  0  0  0  0  0  0
  157.6970  212.3190  154.6180 N   0  0  0  0  0  0  0  0  0  0  0  0
  158.5210  210.3770  155.7810 C   0  0  0  0  0  3  0  0  0  0  0  0
  161.5530  210.0200  155.5750 C   0  0  0  0  0  0  0  0  0  0  0  0
  161.9650  211.0900  156.0970 O   0  0  0  0  0  0  0  0  0  0  0  0
  161.9360  208.7980  156.1110 O   0  0  0  0  0  1  0  0  0  0  0  0
  1 16  1  6  0  0  0
  1 11  1  0  0  0  0
  1  6  1  0  0  0  0
  2 26  1  0  0  0  0
  2  4  1  1  0  0  0
  6 14  1  0  0  0  0
  7  5  1  6  0  0  0
  7 12  1  0  0  0  0
  7 16  1  0  0  0  0
  8  3  1  0  0  0  0
  8  2  1  0  0  0  0
  9 13  1  0  0  0  0
  9 14  1  0  0  0  0
 10  1  1  0  0  0  0
 11  9  2  0  0  0  0
 12 22  1  1  0  0  0
 12 10  1  0  0  0  0
 13  8  2  0  0  0  0
 14 15  2  0  0  0  0
 15  2  1  0  0  0  0
 17 18  1  0  0  0  0
 18 13  1  0  0  0  0
 19 18  2  0  0  0  0
 20 22  1  0  0  0  0
 20 23  1  0  0  0  0
 22 21  2  0  0  0  0
 23 25  1  0  0  0  0
 25 24  3  0  0  0  0
 26 27  1  0  0  0  0
 28 27  1  1  0  0  0
 28 30  1  0  0  0  0
 28 35  1  0  0  0  0
 29 31  1  0  0  0  0
 30 34  1  0  0  0  0
 31 33  2  0  0  0  0
 31 30  1  0  0  0  0
 32 34  2  0  0  0  0
 33 32  1  0  0  0  0
 35 36  2  0  0  0  0
 35 37  1  0  0  0  0
M  END
>  <MODEL>
4

>  <REMARK>
 VINA RESULT:      -4.2      3.242      8.133
  Name = 
  9 active torsions:
  status: ('A' for Active; 'I' for Inactive)
    1  A    between atoms: N_4  and  C_31
    2  A    between atoms: C_5  and  C_35
    3  A    between atoms: N_9  and  C_13
    4  A    between atoms: C_13  and  C_24
    5  A    between atoms: C_20  and  C_29
    6  A    between atoms: C_25  and  C_31
    7  A    between atoms: C_27  and  C_30
    8  A    between atoms: C_31  and  O_36
    9  A    between atoms: C_35  and  O_36
                            x       y       z     vdW  Elec       q    Type
                         _______ _______ _______ _____ _____    ______ ____

>  <TORSDO>
F 9

$$$$
=
 OpenBabel11072413053D

 37 40  0  0  1  0  0  0  0  0999 V2000
  157.5880  212.2790  154.7980 C   0  0  2  0  0  0  0  0  0  0  0  0
  161.0130  210.0900  152.5150 C   0  0  1  0  0  0  0  0  0  0  0  0
  163.0970  209.8910  154.0270 C   0  0  0  0  0  1  0  0  0  0  0  0
  161.8220  210.6410  151.5350 F   0  0  0  0  0  0  0  0  0  0  0  0
  154.9020  212.7730  156.8470 O   0  0  0  0  0  1  0  0  0  0  0  0
  157.7750  211.8200  153.4550 O   0  0  0  0  0  0  0  0  0  0  0  0
  155.2740  212.5890  155.5150 C   0  0  1  0  0  3  0  0  0  0  0  0
  161.6700  210.3290  153.8860 C   0  0  0  0  0  0  0  0  0  0  0  0
  159.6440  211.3990  154.6710 C   0  0  0  0  0  0  0  0  0  0  0  0
  157.3010  213.7660  154.8200 C   0  0  0  0  0  2  0  0  0  0  0  0
  158.8410  211.9690  155.5080 N   0  0  0  0  0  0  0  0  0  0  0  0
  155.7950  213.9010  154.9480 C   0  0  1  0  0  3  0  0  0  0  0  0
  161.0110  210.9140  154.9280 C   0  0  0  0  0  0  0  0  0  0  0  0
  159.0370  211.2710  153.3970 C   0  0  0  0  0  0  0  0  0  0  0  0
  159.6290  210.6940  152.3640 C   0  0  0  0  0  3  0  0  0  0  0  0
  156.4100  211.5810  155.4470 C   0  0  0  0  0  2  0  0  0  0  0  0
  161.6640  212.2870  156.8080 N   0  0  0  0  0  2  0  0  0  0  0  0
  161.6180  211.1120  156.2700 C   0  0  0  0  0  0  0  0  0  0  0  0
  162.2750  210.0310  156.9260 N   0  0  0  0  0  1  0  0  0  0  0  0
  155.9870  214.1880  152.4490 N   0  0  0  0  0  2  0  0  0  0  0  0
  153.9330  214.4300  153.5330 O   0  0  0  0  0  0  0  0  0  0  0  0
  155.1690  214.1890  153.6190 C   0  0  0  0  0  0  0  0  0  0  0  0
  155.4410  214.4510  151.1270 C   0  0  0  0  0  2  0  0  0  0  0  0
  156.9080  213.2390  149.3220 N   0  0  0  0  0  0  0  0  0  0  0  0
  156.2580  213.7730  150.1190 C   0  0  0  0  0  0  0  0  0  0  0  0
  160.9140  208.5830  152.2810 C   0  0  0  0  0  2  0  0  0  0  0  0
  161.2830  208.2550  150.9710 O   0  0  0  0  0  0  0  0  0  0  0  0
  161.1820  206.8620  150.9090 C   0  0  1  0  0  3  0  0  0  0  0  0
  160.4250  204.2410  149.7390 N   0  0  0  0  0  1  0  0  0  0  0  0
  161.3940  206.3980  149.5400 N   0  0  0  0  0  0  0  0  0  0  0  0
  160.9500  205.1710  149.0110 C   0  0  0  0  0  0  0  0  0  0  0  0
  162.1700  206.1240  147.3060 C   0  0  0  0  0  3  0  0  0  0  0  0
  161.4200  204.9370  147.7030 N   0  0  0  0  0  0  0  0  0  0  0  0
  162.2170  207.0510  148.5360 C   0  0  0  0  0  3  0  0  0  0  0  0
  162.1590  206.2260  151.8440 C   0  0  0  0  0  0  0  0  0  0  0  0
  161.7670  205.7250  152.9310 O   0  0  0  0  0  1  0  0  0  0  0  0
  163.5090  206.2080  151.5210 O   0  0  0  0  0  0  0  0  0  0  0  0
  1 10  1  1  0  0  0
  1 16  1  0  0  0  0
  1 11  1  0  0  0  0
  2  4  1  6  0  0  0
  2  8  1  0  0  0  0
  6  1  1  0  0  0  0
  7  5  1  1  0  0  0
  8  3  1  0  0  0  0
  8 13  2  0  0  0  0
  9 13  1  0  0  0  0
  9 11  2  0  0  0  0
 10 12  1  0  0  0  0
 12 22  1  6  0  0  0
 12  7  1  0  0  0  0
 13 18  1  0  0  0  0
 14  6  1  0  0  0  0
 14  9  1  0  0  0  0
 15  2  1  0  0  0  0
 15 14  2  0  0  0  0
 16  7  1  0  0  0  0
 18 17  2  0  0  0  0
 18 19  1  0  0  0  0
 20 22  1  0  0  0  0
 21 22  2  0  0  0  0
 23 20  1  0  0  0  0
 24 25  3  0  0  0  0
 25 23  1  0  0  0  0
 26  2  1  0  0  0  0
 27 26  1  0  0  0  0
 28 27  1  6  0  0  0
 28 35  1  0  0  0  0
 30 28  1  0  0  0  0
 31 30  1  0  0  0  0
 31 29  1  0  0  0  0
 32 33  1  0  0  0  0
 32 34  2  0  0  0  0
 33 31  2  0  0  0  0
 34 30  1  0  0  0  0
 35 36  1  0  0  0  0
 37 35  2  0  0  0  0
M  END
>  <MODEL>
5

>  <REMARK>
 VINA RESULT:      -4.2      4.333      6.490
  Name = 
  9 active torsions:
  status: ('A' for Active; 'I' for Inactive)
    1  A    between atoms: N_4  and  C_31
    2  A    between atoms: C_5  and  C_35
    3  A    between atoms: N_9  and  C_13
    4  A    between atoms: C_13  and  C_24
    5  A    between atoms: C_20  and  C_29
    6  A    between atoms: C_25  and  C_31
    7  A    between atoms: C_27  and  C_30
    8  A    between atoms: C_31  and  O_36
    9  A    between atoms: C_35  and  O_36
                            x       y       z     vdW  Elec       q    Type
                         _______ _______ _______ _____ _____    ______ ____

>  <TORSDO>
F 9

$$$$
=
 OpenBabel11072413053D

 37 40  0  0  1  0  0  0  0  0999 V2000
  161.3770  206.7580  147.5950 C   0  0  2  0  0  0  0  0  0  0  0  0
  161.4070  208.7990  151.7850 C   0  0  1  0  0  0  0  0  0  0  0  0
  162.1960  211.2490  151.5710 C   0  0  0  0  0  1  0  0  0  0  0  0
  162.3590  208.6170  152.7740 F   0  0  0  0  0  0  0  0  0  0  0  0
  160.2870  205.7780  144.5110 O   0  0  0  0  0  1  0  0  0  0  0  0
  161.1710  206.3090  148.9380 O   0  0  0  0  0  0  0  0  0  0  0  0
  160.4110  205.3630  145.8370 C   0  0  1  0  0  3  0  0  0  0  0  0
  161.8520  209.9630  150.8810 C   0  0  0  0  0  0  0  0  0  0  0  0
  161.6800  208.5210  148.9430 C   0  0  0  0  0  0  0  0  0  0  0  0
  162.5030  205.9870  146.9390 C   0  0  0  0  0  2  0  0  0  0  0  0
  161.7010  208.1910  147.6930 N   0  0  0  0  0  0  0  0  0  0  0  0
  161.8400  204.9120  146.0960 C   0  0  1  0  0  3  0  0  0  0  0  0
  161.9450  209.8480  149.5250 C   0  0  0  0  0  0  0  0  0  0  0  0
  161.3490  207.4070  149.7520 C   0  0  0  0  0  0  0  0  0  0  0  0
  161.2290  207.4740  151.0680 C   0  0  0  0  0  3  0  0  0  0  0  0
  160.1310  206.5400  146.7580 C   0  0  0  0  0  2  0  0  0  0  0  0
  163.5760  211.2560  148.4300 N   0  0  0  0  0  1  0  0  0  0  0  0
  162.3310  210.9750  148.6350 C   0  0  0  0  0  0  0  0  0  0  0  0
  161.3350  211.8410  148.1020 N   0  0  0  0  0  2  0  0  0  0  0  0
  161.1490  202.4900  146.2360 N   0  0  0  0  0  2  0  0  0  0  0  0
  162.4990  203.4530  147.8800 O   0  0  0  0  0  0  0  0  0  0  0  0
  161.8600  203.5920  146.8000 C   0  0  0  0  0  0  0  0  0  0  0  0
  161.1350  201.1790  146.8640 C   0  0  0  0  0  2  0  0  0  0  0  0
  160.0810  201.3740  149.2580 N   0  0  0  0  0  0  0  0  0  0  0  0
  160.5470  201.2850  148.2010 C   0  0  0  0  0  0  0  0  0  0  0  0
  160.0810  209.1780  152.4450 C   0  0  0  0  0  2  0  0  0  0  0  0
  160.2100  210.3570  153.1870 O   0  0  0  0  0  0  0  0  0  0  0  0
  159.7200  210.0370  154.4570 C   0  0  1  0  0  3  0  0  0  0  0  0
  160.1350  207.6200  156.1290 N   0  0  0  0  0  1  0  0  0  0  0  0
  160.8250  209.7610  155.3720 N   0  0  0  0  0  0  0  0  0  0  0  0
  161.0160  208.5640  156.0890 C   0  0  0  0  0  0  0  0  0  0  0  0
  162.7060  209.9500  156.8190 C   0  0  0  0  0  3  0  0  0  0  0  0
  162.0930  208.6370  156.9970 N   0  0  0  0  0  0  0  0  0  0  0  0
  161.8300  210.7150  155.8070 C   0  0  0  0  0  3  0  0  0  0  0  0
  158.8610  211.1430  154.9780 C   0  0  0  0  0  0  0  0  0  0  0  0
  158.6050  212.1450  154.2570 O   0  0  0  0  0  0  0  0  0  0  0  0
  158.3620  211.0770  156.2720 O   0  0  0  0  0  1  0  0  0  0  0  0
  1 16  1  6  0  0  0
  1 11  1  0  0  0  0
  1  6  1  0  0  0  0
  2 26  1  0  0  0  0
  2  4  1  1  0  0  0
  6 14  1  0  0  0  0
  7  5  1  6  0  0  0
  7 12  1  0  0  0  0
  7 16  1  0  0  0  0
  8  3  1  0  0  0  0
  8  2  1  0  0  0  0
  9 13  1  0  0  0  0
  9 14  1  0  0  0  0
 10  1  1  0  0  0  0
 11  9  2  0  0  0  0
 12 22  1  1  0  0  0
 12 10  1  0  0  0  0
 13  8  2  0  0  0  0
 14 15  2  0  0  0  0
 15  2  1  0  0  0  0
 17 18  1  0  0  0  0
 18 13  1  0  0  0  0
 19 18  2  0  0  0  0
 20 22  1  0  0  0  0
 20 23  1  0  0  0  0
 22 21  2  0  0  0  0
 23 25  1  0  0  0  0
 25 24  3  0  0  0  0
 26 27  1  0  0  0  0
 28 27  1  6  0  0  0
 28 35  1  0  0  0  0
 28 30  1  0  0  0  0
 30 34  1  0  0  0  0
 30 31  1  0  0  0  0
 31 29  1  0  0  0  0
 31 33  2  0  0  0  0
 32 33  1  0  0  0  0
 34 32  2  0  0  0  0
 35 37  1  0  0  0  0
 36 35  2  0  0  0  0
M  END
>  <MODEL>
6

>  <REMARK>
 VINA RESULT:      -4.1      3.128      8.199
  Name = 
  9 active torsions:
  status: ('A' for Active; 'I' for Inactive)
    1  A    between atoms: N_4  and  C_31
    2  A    between atoms: C_5  and  C_35
    3  A    between atoms: N_9  and  C_13
    4  A    between atoms: C_13  and  C_24
    5  A    between atoms: C_20  and  C_29
    6  A    between atoms: C_25  and  C_31
    7  A    between atoms: C_27  and  C_30
    8  A    between atoms: C_31  and  O_36
    9  A    between atoms: C_35  and  O_36
                            x       y       z     vdW  Elec       q    Type
                         _______ _______ _______ _____ _____    ______ ____

>  <TORSDO>
F 9

$$$$
=
 OpenBabel11072413053D

 37 40  0  0  1  0  0  0  0  0999 V2000
  161.2910  204.8200  152.1480 C   0  0  2  0  0  0  0  0  0  0  0  0
  160.7650  209.4500  152.2900 C   0  0  1  0  0  0  0  0  0  0  0  0
  160.4000  210.2240  154.7270 C   0  0  0  0  0  1  0  0  0  0  0  0
  159.6260  210.1530  151.9350 F   0  0  0  0  0  0  0  0  0  0  0  0
  162.7910  201.7560  152.2800 O   0  0  0  0  0  1  0  0  0  0  0  0
  161.1700  205.8540  151.1650 O   0  0  0  0  0  0  0  0  0  0  0  0
  162.3580  202.7520  151.4050 C   0  0  1  0  0  3  0  0  0  0  0  0
  160.6760  209.0910  153.7840 C   0  0  0  0  0  0  0  0  0  0  0  0
  160.9990  206.7530  153.2420 C   0  0  0  0  0  0  0  0  0  0  0  0
  160.2090  203.7770  151.9640 C   0  0  0  0  0  2  0  0  0  0  0  0
  161.1680  205.4890  153.4540 N   0  0  0  0  0  0  0  0  0  0  0  0
  160.8550  202.6320  151.2040 C   0  0  1  0  0  3  0  0  0  0  0  0
  160.8260  207.8160  154.2470 C   0  0  0  0  0  0  0  0  0  0  0  0
  161.0030  207.0350  151.8540 C   0  0  0  0  0  0  0  0  0  0  0  0
  160.8800  208.2570  151.3600 C   0  0  0  0  0  3  0  0  0  0  0  0
  162.6270  204.1140  152.0240 C   0  0  0  0  0  2  0  0  0  0  0  0
  159.7060  206.9900  156.2230 N   0  0  0  0  0  2  0  0  0  0  0  0
  160.7850  207.4610  155.6900 C   0  0  0  0  0  0  0  0  0  0  0  0
  161.8940  207.7580  156.5330 N   0  0  0  0  0  1  0  0  0  0  0  0
  161.2170  203.5980  148.9020 N   0  0  0  0  0  2  0  0  0  0  0  0
  159.6010  201.9540  149.2770 O   0  0  0  0  0  0  0  0  0  0  0  0
  160.5080  202.6930  149.7490 C   0  0  0  0  0  0  0  0  0  0  0  0
  160.9360  203.7000  147.4790 C   0  0  0  0  0  2  0  0  0  0  0  0
  162.3200  205.6770  146.4520 N   0  0  0  0  0  0  0  0  0  0  0  0
  161.7100  204.8040  146.9080 C   0  0  0  0  0  0  0  0  0  0  0  0
  161.9830  210.3500  152.0800 C   0  0  0  0  0  2  0  0  0  0  0  0
  162.7030  209.9620  150.9440 O   0  0  0  0  0  0  0  0  0  0  0  0
  161.8380  210.2030  149.8730 C   0  0  1  0  0  3  0  0  0  0  0  0
  160.2160  212.6760  150.1300 N   0  0  0  0  0  1  0  0  0  0  0  0
  162.1070  211.5140  149.2870 N   0  0  0  0  0  0  0  0  0  0  0  0
  161.3440  212.6790  149.5000 C   0  0  0  0  0  0  0  0  0  0  0  0
  162.9310  213.3040  147.9510 C   0  0  0  0  0  3  0  0  0  0  0  0
  161.7630  213.7600  148.6980 N   0  0  0  0  0  0  0  0  0  0  0  0
  163.1120  211.8090  148.2810 C   0  0  0  0  0  3  0  0  0  0  0  0
  161.9690  209.1250  148.8460 C   0  0  0  0  0  0  0  0  0  0  0  0
  161.2280  209.1220  147.8260 O   0  0  0  0  0  0  0  0  0  0  0  0
  162.8970  208.1090  149.0290 O   0  0  0  0  0  1  0  0  0  0  0  0
  1 10  1  6  0  0  0
  1 11  1  0  0  0  0
  2  4  1  6  0  0  0
  2  8  1  0  0  0  0
  6 14  1  0  0  0  0
  6  1  1  0  0  0  0
  7 16  1  0  0  0  0
  7  5  1  1  0  0  0
  8 13  2  0  0  0  0
  8  3  1  0  0  0  0
  9 11  2  0  0  0  0
  9 13  1  0  0  0  0
 12 22  1  6  0  0  0
 12  7  1  0  0  0  0
 12 10  1  0  0  0  0
 13 18  1  0  0  0  0
 14  9  1  0  0  0  0
 15 14  2  0  0  0  0
 15  2  1  0  0  0  0
 16  1  1  0  0  0  0
 18 17  2  0  0  0  0
 18 19  1  0  0  0  0
 20 22  1  0  0  0  0
 21 22  2  0  0  0  0
 23 20  1  0  0  0  0
 24 25  3  0  0  0  0
 25 23  1  0  0  0  0
 26  2  1  0  0  0  0
 27 26  1  0  0  0  0
 28 35  1  6  0  0  0
 28 27  1  0  0  0  0
 30 31  1  0  0  0  0
 30 28  1  0  0  0  0
 31 29  1  0  0  0  0
 32 34  2  0  0  0  0
 32 33  1  0  0  0  0
 33 31  2  0  0  0  0
 34 30  1  0  0  0  0
 35 37  1  0  0  0  0
 36 35  2  0  0  0  0
M  END
>  <MODEL>
7

>  <REMARK>
 VINA RESULT:      -4.0      2.681      7.605
  Name = 
  9 active torsions:
  status: ('A' for Active; 'I' for Inactive)
    1  A    between atoms: N_4  and  C_31
    2  A    between atoms: C_5  and  C_35
    3  A    between atoms: N_9  and  C_13
    4  A    between atoms: C_13  and  C_24
    5  A    between atoms: C_20  and  C_29
    6  A    between atoms: C_25  and  C_31
    7  A    between atoms: C_27  and  C_30
    8  A    between atoms: C_31  and  O_36
    9  A    between atoms: C_35  and  O_36
                            x       y       z     vdW  Elec       q    Type
                         _______ _______ _______ _____ _____    ______ ____

>  <TORSDO>
F 9

$$$$
=
 OpenBabel11072413053D

 37 40  0  0  1  0  0  0  0  0999 V2000
  161.3280  206.6850  147.7990 C   0  0  2  0  0  0  0  0  0  0  0  0
  161.3400  209.0050  151.8410 C   0  0  1  0  0  0  0  0  0  0  0  0
  162.1510  211.4280  151.4680 C   0  0  0  0  0  1  0  0  0  0  0  0
  162.2830  208.8840  152.8490 F   0  0  0  0  0  0  0  0  0  0  0  0
  160.2550  205.5050  144.7790 O   0  0  0  0  0  1  0  0  0  0  0  0
  161.1080  206.3300  149.1680 O   0  0  0  0  0  0  0  0  0  0  0  0
  160.3660  205.1810  146.1310 C   0  0  1  0  0  3  0  0  0  0  0  0
  161.8020  210.1010  150.8640 C   0  0  0  0  0  0  0  0  0  0  0  0
  161.6350  208.5320  149.0270 C   0  0  0  0  0  0  0  0  0  0  0  0
  162.4530  205.8620  147.2060 C   0  0  0  0  0  2  0  0  0  0  0  0
  161.6630  208.1190  147.8020 N   0  0  0  0  0  0  0  0  0  0  0  0
  161.7890  204.7380  146.4320 C   0  0  1  0  0  3  0  0  0  0  0  0
  161.9060  209.8940  149.5200 C   0  0  0  0  0  0  0  0  0  0  0  0
  161.2880  207.4780  149.9070 C   0  0  0  0  0  0  0  0  0  0  0  0
  161.1580  207.6360  151.2140 C   0  0  0  0  0  3  0  0  0  0  0  0
  160.0870  206.4200  146.9680 C   0  0  0  0  0  2  0  0  0  0  0  0
  163.5530  211.2650  148.4030 N   0  0  0  0  0  1  0  0  0  0  0  0
  162.3080  210.9550  148.5590 C   0  0  0  0  0  0  0  0  0  0  0  0
  161.3180  211.7340  147.8950 N   0  0  0  0  0  2  0  0  0  0  0  0
  161.2310  202.2870  146.6520 N   0  0  0  0  0  2  0  0  0  0  0  0
  162.2860  203.4410  148.3860 O   0  0  0  0  0  0  0  0  0  0  0  0
  161.7920  203.4680  147.2250 C   0  0  0  0  0  0  0  0  0  0  0  0
  161.2110  201.0200  147.3630 C   0  0  0  0  0  2  0  0  0  0  0  0
  161.2070  199.0470  145.6360 N   0  0  0  0  0  0  0  0  0  0  0  0
  161.2060  199.9190  146.3980 C   0  0  0  0  0  0  0  0  0  0  0  0
  160.0130  209.4370  152.4620 C   0  0  0  0  0  2  0  0  0  0  0  0
  160.1950  210.5180  153.3330 O   0  0  0  0  0  0  0  0  0  0  0  0
  158.9290  211.0970  153.4560 C   0  0  1  0  0  3  0  0  0  0  0  0
  156.2120  211.2740  154.6390 N   0  0  0  0  0  1  0  0  0  0  0  0
  158.5750  211.2500  154.8650 N   0  0  0  0  0  0  0  0  0  0  0  0
  157.2660  211.2540  155.3860 C   0  0  0  0  0  0  0  0  0  0  0  0
  158.6120  211.6920  157.2040 C   0  0  0  0  0  3  0  0  0  0  0  0
  157.2270  211.5570  156.7630 N   0  0  0  0  0  0  0  0  0  0  0  0
  159.4930  211.5650  155.9460 C   0  0  0  0  0  3  0  0  0  0  0  0
  158.8880  212.4140  152.7510 C   0  0  0  0  0  0  0  0  0  0  0  0
  159.3760  213.4420  153.2930 O   0  0  0  0  0  1  0  0  0  0  0  0
  158.2890  212.5090  151.5030 O   0  0  0  0  0  0  0  0  0  0  0  0
  1 16  1  6  0  0  0
  1 11  1  0  0  0  0
  1  6  1  0  0  0  0
  2 26  1  0  0  0  0
  2  4  1  1  0  0  0
  6 14  1  0  0  0  0
  7  5  1  6  0  0  0
  7 12  1  0  0  0  0
  7 16  1  0  0  0  0
  8  3  1  0  0  0  0
  8  2  1  0  0  0  0
  9 13  1  0  0  0  0
  9 14  1  0  0  0  0
 10  1  1  0  0  0  0
 11  9  2  0  0  0  0
 12 10  1  0  0  0  0
 12 22  1  1  0  0  0
 13  8  2  0  0  0  0
 14 15  2  0  0  0  0
 15  2  1  0  0  0  0
 17 18  1  0  0  0  0
 18 13  1  0  0  0  0
 19 18  2  0  0  0  0
 20 22  1  0  0  0  0
 20 23  1  0  0  0  0
 22 21  2  0  0  0  0
 24 25  3  0  0  0  0
 25 23  1  0  0  0  0
 26 27  1  0  0  0  0
 27 28  1  0  0  0  0
 28 35  1  1  0  0  0
 28 30  1  0  0  0  0
 29 31  1  0  0  0  0
 30 31  1  0  0  0  0
 30 34  1  0  0  0  0
 31 33  2  0  0  0  0
 33 32  1  0  0  0  0
 34 32  2  0  0  0  0
 35 36  1  0  0  0  0
 37 35  2  0  0  0  0
M  END
>  <MODEL>
8

>  <REMARK>
 VINA RESULT:      -3.4      3.038      8.577
  Name = 
  9 active torsions:
  status: ('A' for Active; 'I' for Inactive)
    1  A    between atoms: N_4  and  C_31
    2  A    between atoms: C_5  and  C_35
    3  A    between atoms: N_9  and  C_13
    4  A    between atoms: C_13  and  C_24
    5  A    between atoms: C_20  and  C_29
    6  A    between atoms: C_25  and  C_31
    7  A    between atoms: C_27  and  C_30
    8  A    between atoms: C_31  and  O_36
    9  A    between atoms: C_35  and  O_36
                            x       y       z     vdW  Elec       q    Type
                         _______ _______ _______ _____ _____    ______ ____

>  <TORSDO>
F 9

$$$$
=
 OpenBabel11072413053D

 37 40  0  0  1  0  0  0  0  0999 V2000
  161.9370  210.8120  149.6240 C   0  0  2  0  0  0  0  0  0  0  0  0
  160.5140  209.3320  153.8100 C   0  0  1  0  0  0  0  0  0  0  0  0
  160.8360  206.7770  154.0010 C   0  0  0  0  0  1  0  0  0  0  0  0
  159.2000  209.1600  154.2100 F   0  0  0  0  0  0  0  0  0  0  0  0
  164.0110  211.9040  147.1420 O   0  0  0  0  0  1  0  0  0  0  0  0
  161.2730  211.4180  150.7380 O   0  0  0  0  0  0  0  0  0  0  0  0
  163.1060  212.3330  148.1130 C   0  0  1  0  0  3  0  0  0  0  0  0
  161.0130  208.0190  153.1800 C   0  0  0  0  0  0  0  0  0  0  0  0
  161.6260  209.2180  151.1670 C   0  0  0  0  0  0  0  0  0  0  0  0
  161.1060  210.9500  148.3660 C   0  0  0  0  0  2  0  0  0  0  0  0
  162.1220  209.3960  149.9860 N   0  0  0  0  0  0  0  0  0  0  0  0
  161.6860  212.1290  147.6070 C   0  0  1  0  0  3  0  0  0  0  0  0
  161.5790  207.9650  151.9400 C   0  0  0  0  0  0  0  0  0  0  0  0
  161.1010  210.4280  151.6810 C   0  0  0  0  0  0  0  0  0  0  0  0
  160.5600  210.5330  152.8840 C   0  0  0  0  0  3  0  0  0  0  0  0
  163.2710  211.4830  149.3620 C   0  0  0  0  0  2  0  0  0  0  0  0
  163.2550  206.2400  151.6920 N   0  0  0  0  0  1  0  0  0  0  0  0
  162.1050  206.7110  151.3370 C   0  0  0  0  0  0  0  0  0  0  0  0
  161.4070  206.0830  150.2660 N   0  0  0  0  0  2  0  0  0  0  0  0
  159.4500  213.2970  147.6420 N   0  0  0  0  0  2  0  0  0  0  0  0
  161.4140  214.4450  148.1680 O   0  0  0  0  0  0  0  0  0  0  0  0
  160.8640  213.3610  147.8250 C   0  0  0  0  0  0  0  0  0  0  0  0
  158.5930  214.4530  147.8460 C   0  0  0  0  0  2  0  0  0  0  0  0
  156.3390  213.6860  148.9460 N   0  0  0  0  0  0  0  0  0  0  0  0
  157.3330  214.0240  148.4580 C   0  0  0  0  0  0  0  0  0  0  0  0
  161.3670  209.6330  155.0420 C   0  0  0  0  0  2  0  0  0  0  0  0
  160.5680  210.0360  156.1180 O   0  0  0  0  0  0  0  0  0  0  0  0
  160.3560  211.4030  155.9160 C   0  0  1  0  0  3  0  0  0  0  0  0
  158.7160  213.3480  154.3870 N   0  0  0  0  0  1  0  0  0  0  0  0
  158.9460  211.7320  156.1100 N   0  0  0  0  0  0  0  0  0  0  0  0
  158.1910  212.6100  155.3080 C   0  0  0  0  0  0  0  0  0  0  0  0
  156.7540  211.9950  157.0010 C   0  0  0  0  0  3  0  0  0  0  0  0
  156.8960  212.8380  155.8170 N   0  0  0  0  0  0  0  0  0  0  0  0
  158.1230  211.3270  157.2360 C   0  0  0  0  0  3  0  0  0  0  0  0
  161.2210  212.2050  156.8330 C   0  0  0  0  0  0  0  0  0  0  0  0
  160.8320  213.3260  157.2590 O   0  0  0  0  0  1  0  0  0  0  0  0
  162.4700  211.7230  157.2000 O   0  0  0  0  0  0  0  0  0  0  0  0
  1 10  1  6  0  0  0
  1 11  1  0  0  0  0
  1  6  1  0  0  0  0
  2  4  1  1  0  0  0
  2 26  1  0  0  0  0
  6 14  1  0  0  0  0
  7  5  1  6  0  0  0
  7 16  1  0  0  0  0
  8  2  1  0  0  0  0
  8  3  1  0  0  0  0
  9 14  1  0  0  0  0
  9 13  1  0  0  0  0
 11  9  2  0  0  0  0
 12 22  1  1  0  0  0
 12  7  1  0  0  0  0
 12 10  1  0  0  0  0
 13  8  2  0  0  0  0
 14 15  2  0  0  0  0
 15  2  1  0  0  0  0
 16  1  1  0  0  0  0
 18 17  1  0  0  0  0
 18 13  1  0  0  0  0
 19 18  2  0  0  0  0
 20 22  1  0  0  0  0
 20 23  1  0  0  0  0
 22 21  2  0  0  0  0
 23 25  1  0  0  0  0
 25 24  3  0  0  0  0
 26 27  1  0  0  0  0
 28 30  1  0  0  0  0
 28 27  1  1  0  0  0
 28 35  1  0  0  0  0
 29 31  1  0  0  0  0
 30 34  1  0  0  0  0
 31 33  2  0  0  0  0
 31 30  1  0  0  0  0
 32 34  2  0  0  0  0
 33 32  1  0  0  0  0
 35 37  2  0  0  0  0
 35 36  1  0  0  0  0
M  END
>  <MODEL>
9

>  <REMARK>
 VINA RESULT:      -3.1      3.928      7.491
  Name = 
  9 active torsions:
  status: ('A' for Active; 'I' for Inactive)
    1  A    between atoms: N_4  and  C_31
    2  A    between atoms: C_5  and  C_35
    3  A    between atoms: N_9  and  C_13
    4  A    between atoms: C_13  and  C_24
    5  A    between atoms: C_20  and  C_29
    6  A    between atoms: C_25  and  C_31
    7  A    between atoms: C_27  and  C_30
    8  A    between atoms: C_31  and  O_36
    9  A    between atoms: C_35  and  O_36
                            x       y       z     vdW  Elec       q    Type
                         _______ _______ _______ _____ _____    ______ ____

>  <TORSDO>
F 9

$$$$
