=
 OpenBabel11072412573D

 48 53  0  0  1  0  0  0  0  0999 V2000
  159.3030  211.8840  153.5700 C   0  0  2  0  0  3  0  0  0  0  0  0
  163.2150  211.8370  148.5690 C   0  0  0  0  0  2  0  0  0  0  0  0
  157.6550  213.5730  152.7630 C   0  0  0  0  0  3  0  0  0  0  0  0
  160.2710  208.7970  153.1870 C   0  0  0  0  0  2  0  0  0  0  0  0
  160.2960  213.3390  150.1360 C   0  0  1  0  0  3  0  0  0  0  0  0
  161.9270  211.1060  155.2220 O   0  0  0  0  0  0  0  0  0  0  0  0
  159.6830  213.8610  148.8310 C   0  0  1  0  0  3  0  0  0  0  0  0
  161.0410  210.4300  150.5160 C   0  0  2  0  0  3  0  0  0  0  0  0
  161.9080  212.0460  147.8190 C   0  0  0  0  0  2  0  0  0  0  0  0
  160.0630  208.8660  154.6950 C   0  0  0  0  0  2  0  0  0  0  0  0
  158.3650  213.7850  151.6550 C   0  0  0  0  0  3  0  0  0  0  0  0
  160.7040  211.6930  155.5500 C   0  0  0  0  0  0  0  0  0  0  0  0
  161.0330  214.3490  150.7610 O   0  0  0  0  0  1  0  0  0  0  0  0
  162.2470  209.8180  155.5630 O   0  0  0  0  0  0  0  0  0  0  0  0
  162.5500  210.6570  150.6950 C   0  0  0  0  0  2  0  0  0  0  0  0
  160.0350  211.8930  152.2070 C   0  0  1  0  0  3  0  0  0  0  0  0
  160.2900  210.4990  151.7860 N   0  0  2  0  0  0  0  0  0  0  0  0
  161.6900  207.6180  155.8990 O   0  0  0  0  0  0  0  0  0  0  0  0
  163.0210  211.9650  150.0740 C   0  0  0  0  0  2  0  0  0  0  0  0
  161.0300  209.8920  152.7570 O   0  0  0  0  0  0  0  0  0  0  0  0
  157.8170  212.2680  153.4780 C   0  0  2  0  0  3  0  0  0  0  0  0
  159.2910  212.7200  151.1100 C   0  0  2  0  0  3  0  0  0  0  0  0
  161.7420  213.4670  147.3760 C   0  0  0  0  0  0  0  0  0  0  0  0
  160.0810  211.3360  156.5830 O   0  0  0  0  0  0  0  0  0  0  0  0
  161.3600  208.7410  155.4360 C   0  0  0  0  0  0  0  0  0  0  0  0
  160.0870  212.6690  154.6130 C   0  0  0  0  0  2  0  0  0  0  0  0
  160.7440  214.2450  147.8240 C   0  0  0  0  0  3  0  0  0  0  0  0
  157.2480  213.6500  148.3460 C   0  0  0  0  0  0  0  0  0  0  0  0
  156.8820  211.7780  145.6620 C   0  0  0  0  0  1  0  0  0  0  0  0
  156.7110  214.1010  149.3920 O   0  0  0  0  0  0  0  0  0  0  0  0
  157.5390  213.0320  146.2080 C   0  0  0  0  0  0  0  0  0  0  0  0
  156.6650  213.6720  147.1190 O   0  0  0  0  0  0  0  0  0  0  0  0
  157.8580  213.9690  145.0610 C   0  0  0  0  0  1  0  0  0  0  0  0
  158.5510  212.9860  148.2650 C   0  0  1  0  0  3  0  0  0  0  0  0
  158.7390  212.6830  146.8940 O   0  0  0  0  0  0  0  0  0  0  0  0
  155.7880  211.9730  157.2610 C   0  0  0  0  0  3  0  0  0  0  0  0
  157.3940  213.0940  155.8390 C   0  0  0  0  0  3  0  0  0  0  0  0
  156.7390  212.9790  157.0670 C   0  0  0  0  0  3  0  0  0  0  0  0
  154.3090  209.8190  156.4690 Cl  0  0  0  0  0  0  0  0  0  0  0  0
  157.0970  212.2050  154.7930 C   0  0  0  0  0  0  0  0  0  0  0  0
  155.4960  211.0800  156.2270 C   0  0  0  0  0  0  0  0  0  0  0  0
  156.1520  211.1930  154.9970 C   0  0  0  0  0  3  0  0  0  0  0  0
  161.9320  208.7390  148.9970 C   0  0  2  0  0  3  0  0  0  0  0  0
  160.8090  209.0730  149.8660 C   0  0  1  0  0  3  0  0  0  0  0  0
  161.5110  207.8270  148.0300 O   0  0  0  0  0  1  0  0  0  0  0  0
  161.8300  208.1190  150.3260 N   0  0  0  0  0  2  0  0  0  0  0  0
  162.6810  213.5270  145.1340 O   0  0  0  0  0  1  0  0  0  0  0  0
  162.6590  213.9840  146.4090 N   0  0  0  0  0  2  0  0  0  0  0  0
  1 26  1  1  0  0  0
  2 19  1  0  0  0  0
  3 21  1  0  0  0  0
  4 10  1  0  0  0  0
  5 13  1  1  0  0  0
  5 22  1  0  0  0  0
  6 12  1  0  0  0  0
  6 14  1  0  0  0  0
  7 27  1  6  0  0  0
  7  5  1  0  0  0  0
  8 15  1  1  0  0  0
  8 17  1  0  0  0  0
  9  2  1  0  0  0  0
 10 25  1  0  0  0  0
 11  3  2  0  0  0  0
 12 24  2  0  0  0  0
 16  1  1  0  0  0  0
 17 16  1  0  0  0  0
 17 20  1  0  0  0  0
 19 15  1  0  0  0  0
 20  4  1  0  0  0  0
 21  1  1  0  0  0  0
 21 40  1  0  0  0  0
 22 11  1  0  0  0  0
 22 16  1  0  0  0  0
 23  9  1  0  0  0  0
 23 27  2  0  0  0  0
 25 14  1  0  0  0  0
 25 18  2  0  0  0  0
 26 12  1  0  0  0  0
 28 30  2  0  0  0  0
 29 31  1  0  0  0  0
 31 35  1  0  0  0  0
 31 32  1  0  0  0  0
 32 28  1  0  0  0  0
 33 31  1  0  0  0  0
 34 28  1  0  0  0  0
 34  7  1  0  0  0  0
 35 34  1  0  0  0  0
 37 38  2  0  0  0  0
 38 36  1  0  0  0  0
 40 42  2  0  0  0  0
 40 37  1  0  0  0  0
 41 39  1  0  0  0  0
 41 36  2  0  0  0  0
 42 41  1  0  0  0  0
 43 44  1  0  0  0  0
 43 46  1  0  0  0  0
 44 46  1  0  0  0  0
 44  8  1  0  0  0  0
 45 43  1  0  0  0  0
 47 48  1  0  0  0  0
 48 23  1  0  0  0  0
M  END
>  <MODEL>
1

>  <REMARK>
 VINA RESULT:      -0.4      0.000      0.000
  Name = 
  4 active torsions:
  status: ('A' for Active; 'I' for Inactive)
    1  A    between atoms: CA_16  and  C_19
    2  A    between atoms: C_18  and  C_34
    3  A    between atoms: N_27  and  C_40
    4  A    between atoms: C_30  and  C_37
                            x       y       z     vdW  Elec       q    Type
                         _______ _______ _______ _____ _____    ______ ____

>  <TORSDO>
F 4

$$$$
