=
 OpenBabel11072412073D

 50 54  0  0  1  0  0  0  0  0999 V2000
  160.4050  210.5090  152.6760 C   0  0  1  0  0  3  0  0  0  0  0  0
  159.9200  209.5900  157.0540 C   0  0  0  0  0  2  0  0  0  0  0  0
  161.2150  210.0310  155.1130 C   0  0  1  0  0  0  0  0  0  0  0  0
  162.6140  210.1130  155.7000 C   0  0  0  0  0  2  0  0  0  0  0  0
  158.7650  211.8020  154.1230 C   0  0  0  0  0  2  0  0  0  0  0  0
  160.0310  211.8760  153.2650 C   0  0  2  0  0  3  0  0  0  0  0  0
  161.1700  208.9850  157.2450 O   0  0  0  0  0  0  0  0  0  0  0  0
  161.7480  208.8970  155.9650 C   0  0  1  0  0  3  0  0  0  0  0  0
  160.0630  210.5830  155.9280 C   0  0  1  0  0  3  0  0  0  0  0  0
  161.9100  210.3340  152.7200 C   0  0  1  0  0  3  0  0  0  0  0  0
  161.0390  209.5240  153.6690 C   0  0  2  0  0  3  0  0  0  0  0  0
  158.7600  210.6550  155.1370 C   0  0  0  0  0  2  0  0  0  0  0  0
  159.7810  212.8630  152.1370 C   0  0  0  0  0  2  0  0  0  0  0  0
  158.9040  214.0150  152.6060 C   0  0  0  0  0  2  0  0  0  0  0  0
  155.6110  214.4520  151.0710 O   0  0  0  0  0  0  0  0  0  0  0  0
  157.9070  214.3210  151.5870 N   0  0  0  0  0  0  0  0  0  0  0  0
  156.5110  214.4080  151.9530 C   0  0  0  0  0  0  0  0  0  0  0  0
  156.8750  214.3000  148.1250 C   0  0  0  0  0  3  0  0  0  0  0  0
  157.6350  214.3600  149.1820 C   0  0  0  0  0  0  0  0  0  0  0  0
  158.4000  214.4230  150.2410 C   0  0  0  0  0  3  0  0  0  0  0  0
  156.7230  213.0170  147.3860 C   0  0  0  0  0  2  0  0  0  0  0  0
  157.9800  212.7110  146.6510 C   0  0  0  0  0  0  0  0  0  0  0  0
  157.9590  212.6050  145.3950 O   0  0  0  0  0  0  0  0  0  0  0  0
  159.1620  212.5050  147.3680 O   0  0  0  0  0  0  0  0  0  0  0  0
  160.4460  212.6240  146.7700 C   0  0  0  0  0  2  0  0  0  0  0  0
  161.5250  212.7060  147.8350 C   0  0  0  0  0  2  0  0  0  0  0  0
  162.8320  212.8120  147.2100 N   0  0  0  0  0  1  0  0  0  0  0  0
  156.0980  214.4530  153.3870 C   0  0  0  0  0  2  0  0  0  0  0  0
  155.0810  213.0000  153.7830 S   0  0  0  0  0  0  0  0  0  0  0  0
  154.9720  213.4780  155.5300 C   0  0  0  0  0  2  0  0  0  0  0  0
  156.2560  213.0970  156.2400 C   0  0  0  0  0  1  0  0  0  0  0  0
  162.3620  209.4950  151.5270 C   0  0  0  0  0  2  0  0  0  0  0  0
  160.6630  206.2360  148.4650 N   0  0  0  0  0  0  0  0  0  0  0  0
  161.3060  205.4570  147.6590 C   0  0  0  0  0  0  0  0  0  0  0  0
  161.5870  207.2650  148.7750 C   0  0  0  0  0  0  0  0  0  0  0  0
  161.2160  208.9380  150.7420 C   0  0  0  0  0  3  0  0  0  0  0  0
  162.6760  205.9130  147.4010 C   0  0  0  0  0  3  0  0  0  0  0  0
  162.8570  207.0270  148.1040 C   0  0  0  0  0  3  0  0  0  0  0  0
  161.4060  208.1160  149.7460 C   0  0  0  0  0  0  0  0  0  0  0  0
  160.6840  204.2510  147.0470 C   0  0  0  0  0  2  0  0  0  0  0  0
  161.5790  203.0440  147.2660 C   0  0  0  0  0  2  0  0  0  0  0  0
  160.9260  202.1020  148.2240 C   0  0  0  0  0  0  0  0  0  0  0  0
  160.5250  200.9840  147.8050 O   0  0  0  0  0  0  0  0  0  0  0  0
  160.1210  201.7360  150.4140 O   0  0  0  0  0  0  0  0  0  0  0  0
  160.7700  202.4920  149.6460 C   0  0  0  0  0  0  0  0  0  0  0  0
  161.4320  203.9410  151.4640 C   0  0  0  0  0  3  0  0  0  0  0  0
  161.3270  203.6960  150.1950 N   0  0  0  0  0  0  0  0  0  0  0  0
  162.0320  205.2220  151.9370 C   0  0  0  0  0  2  0  0  0  0  0  0
  160.6820  206.1660  154.0380 C   0  0  0  0  0  3  0  0  0  0  0  0
  161.2930  205.7380  153.0900 C   0  0  0  0  0  0  0  0  0  0  0  0
  1 10  1  0  0  0  0
  1  6  1  0  0  0  0
  1 11  1  0  0  0  0
  2  7  1  0  0  0  0
  3  4  1  0  0  0  0
  3  9  1  0  0  0  0
  3  8  1  0  0  0  0
  4  8  1  0  0  0  0
  5 12  1  0  0  0  0
  6  5  1  0  0  0  0
  8  7  1  0  0  0  0
  9  2  1  0  0  0  0
 10 11  1  0  0  0  0
 11  3  1  0  0  0  0
 12  9  1  0  0  0  0
 13 14  1  0  0  0  0
 13  6  1  0  0  0  0
 15 17  2  0  0  0  0
 16 17  1  0  0  0  0
 16 14  1  0  0  0  0
 17 28  1  0  0  0  0
 18 19  2  0  0  0  0
 19 20  2  0  0  0  0
 20 16  1  0  0  0  0
 21 18  1  0  0  0  0
 22 24  1  0  0  0  0
 22 21  1  0  0  0  0
 23 22  2  0  0  0  0
 25 24  1  0  0  0  0
 25 26  1  0  0  0  0
 27 26  1  0  0  0  0
 28 29  1  0  0  0  0
 29 30  1  0  0  0  0
 30 31  1  0  0  0  0
 32 10  1  0  0  0  0
 33 35  1  0  0  0  0
 34 33  2  0  0  0  0
 35 39  2  0  0  0  0
 36 32  1  0  0  0  0
 37 34  1  0  0  0  0
 37 38  2  0  0  0  0
 38 35  1  0  0  0  0
 39 36  2  0  0  0  0
 40 41  1  0  0  0  0
 40 34  1  0  0  0  0
 41 42  1  0  0  0  0
 42 45  1  0  0  0  0
 43 42  2  0  0  0  0
 45 47  1  0  0  0  0
 45 44  2  0  0  0  0
 46 48  1  0  0  0  0
 47 46  2  0  0  0  0
 48 50  1  0  0  0  0
 50 49  3  0  0  0  0
M  END
>  <MODEL>
1

>  <REMARK>
 VINA RESULT:      -5.6      0.000      0.000
  Name = 
  21 active torsions:
  status: ('A' for Active; 'I' for Inactive)
    1  A    between atoms: C_2  and  C_22
    2  A    between atoms: C_2  and  C_40
    3  A    between atoms: C_5  and  C_9
    4  A    between atoms: C_5  and  C_19
    5  A    between atoms: N_7  and  C_14
    6  A    between atoms: N_7  and  C_35
    7  A    between atoms: C_9  and  C_26
    8  A    between atoms: C_10  and  C_44
    9  A    between atoms: O_11  and  C_33
   10  A    between atoms: O_11  and  C_38
   11  A    between atoms: C_12  and  S_29
   12  A    between atoms: C_13  and  C_26
   13  A    between atoms: C_14  and  C_42
   14  A    between atoms: C_18  and  C_27
   15  A    between atoms: C_19  and  N_39
   16  A    between atoms: C_24  and  C_42
   17  A    between atoms: C_25  and  C_33
   18  A    between atoms: C_27  and  S_29
   19  A    between atoms: C_31  and  C_36
   20  A    between atoms: C_36  and  C_43
   21  A    between atoms: C_38  and  C_44
                            x       y       z     vdW  Elec       q    Type
                         _______ _______ _______ _____ _____    ______ ____

>  <TORSDO>
F 21

$$$$
=
 OpenBabel11072412073D

 50 54  0  0  1  0  0  0  0  0999 V2000
  158.4500  212.1190  152.9300 C   0  0  1  0  0  3  0  0  0  0  0  0
  156.2220  213.9200  156.4000 C   0  0  0  0  0  2  0  0  0  0  0  0
  158.1770  213.5350  155.1080 C   0  0  1  0  0  0  0  0  0  0  0  0
  159.1740  214.4520  155.7960 C   0  0  0  0  0  2  0  0  0  0  0  0
  156.2350  213.3190  152.5980 C   0  0  0  0  0  2  0  0  0  0  0  0
  157.7340  213.3120  152.2840 C   0  0  2  0  0  3  0  0  0  0  0  0
  157.3190  214.0550  157.2610 O   0  0  0  0  0  0  0  0  0  0  0  0
  158.3960  213.4310  156.6040 C   0  0  1  0  0  3  0  0  0  0  0  0
  156.7410  214.0020  154.9860 C   0  0  1  0  0  3  0  0  0  0  0  0
  159.7990  212.5640  153.4580 C   0  0  1  0  0  3  0  0  0  0  0  0
  158.6850  212.2420  154.4430 C   0  0  2  0  0  3  0  0  0  0  0  0
  155.9030  213.1080  154.0780 C   0  0  0  0  0  2  0  0  0  0  0  0
  157.9010  213.2480  150.7750 C   0  0  0  0  0  2  0  0  0  0  0  0
  159.1270  214.0300  150.3280 C   0  0  0  0  0  2  0  0  0  0  0  0
  160.5280  214.4520  146.9740 O   0  0  0  0  0  0  0  0  0  0  0  0
  159.1850  214.0670  148.8720 N   0  0  0  0  0  0  0  0  0  0  0  0
  160.4610  214.1990  148.2070 C   0  0  0  0  0  0  0  0  0  0  0  0
  157.4120  212.6340  146.0690 C   0  0  0  0  0  3  0  0  0  0  0  0
  157.6650  213.3460  147.1300 C   0  0  0  0  0  0  0  0  0  0  0  0
  157.9160  214.0610  148.1970 C   0  0  0  0  0  3  0  0  0  0  0  0
  157.5070  213.2480  144.7160 C   0  0  0  0  0  2  0  0  0  0  0  0
  158.8540  212.9830  144.1410 C   0  0  0  0  0  0  0  0  0  0  0  0
  159.6000  212.1160  144.6710 O   0  0  0  0  0  0  0  0  0  0  0  0
  159.2900  213.7280  143.0410 O   0  0  0  0  0  0  0  0  0  0  0  0
  158.6710  213.6370  141.7650 C   0  0  0  0  0  2  0  0  0  0  0  0
  159.6630  213.1520  140.7240 C   0  0  0  0  0  2  0  0  0  0  0  0
  160.9590  213.7680  140.9460 N   0  0  0  0  0  1  0  0  0  0  0  0
  161.7380  214.0340  148.9640 C   0  0  0  0  0  2  0  0  0  0  0  0
  163.0960  213.6720  147.8130 S   0  0  0  0  0  0  0  0  0  0  0  0
  163.0830  211.9130  148.2580 C   0  0  0  0  0  2  0  0  0  0  0  0
  161.6550  211.4060  148.2740 C   0  0  0  0  0  1  0  0  0  0  0  0
  160.7960  211.4120  153.3490 C   0  0  0  0  0  2  0  0  0  0  0  0
  160.8690  206.7390  152.3290 N   0  0  0  0  0  0  0  0  0  0  0  0
  161.5940  206.1000  151.4720 C   0  0  0  0  0  0  0  0  0  0  0  0
  160.9250  208.0890  151.9030 C   0  0  0  0  0  0  0  0  0  0  0  0
  160.1390  210.0690  153.4100 C   0  0  0  0  0  3  0  0  0  0  0  0
  162.1710  206.9790  150.4490 C   0  0  0  0  0  3  0  0  0  0  0  0
  161.7680  208.2160  150.7230 C   0  0  0  0  0  3  0  0  0  0  0  0
  160.5210  209.0850  152.6410 C   0  0  0  0  0  0  0  0  0  0  0  0
  161.7780  204.6230  151.5220 C   0  0  0  0  0  2  0  0  0  0  0  0
  160.5720  203.9340  150.9080 C   0  0  0  0  0  2  0  0  0  0  0  0
  160.9500  202.5570  150.4690 C   0  0  0  0  0  0  0  0  0  0  0  0
  161.3820  201.7390  151.3240 O   0  0  0  0  0  0  0  0  0  0  0  0
  160.6750  200.9570  148.7530 O   0  0  0  0  0  0  0  0  0  0  0  0
  160.8040  202.1750  149.0440 C   0  0  0  0  0  0  0  0  0  0  0  0
  161.6660  203.1480  147.0060 C   0  0  0  0  0  3  0  0  0  0  0  0
  160.8010  203.1300  147.9720 N   0  0  0  0  0  0  0  0  0  0  0  0
  161.5750  204.1790  145.9330 C   0  0  0  0  0  2  0  0  0  0  0  0
  160.9880  206.5650  146.9780 C   0  0  0  0  0  3  0  0  0  0  0  0
  161.2550  205.4880  146.5060 C   0  0  0  0  0  0  0  0  0  0  0  0
  1 10  1  0  0  0  0
  1 11  1  0  0  0  0
  2  7  1  0  0  0  0
  3  4  1  0  0  0  0
  3  8  1  0  0  0  0
  4  8  1  0  0  0  0
  5 12  1  0  0  0  0
  6  5  1  0  0  0  0
  6  1  1  0  0  0  0
  8  7  1  0  0  0  0
  9  3  1  0  0  0  0
  9  2  1  0  0  0  0
 10 11  1  0  0  0  0
 11  3  1  0  0  0  0
 12  9  1  0  0  0  0
 13  6  1  0  0  0  0
 14 13  1  0  0  0  0
 15 17  2  0  0  0  0
 16 14  1  0  0  0  0
 17 16  1  0  0  0  0
 17 28  1  0  0  0  0
 18 19  2  0  0  0  0
 19 20  2  0  0  0  0
 20 16  1  0  0  0  0
 21 18  1  0  0  0  0
 22 23  2  0  0  0  0
 22 21  1  0  0  0  0
 24 22  1  0  0  0  0
 25 24  1  0  0  0  0
 26 27  1  0  0  0  0
 26 25  1  0  0  0  0
 29 30  1  0  0  0  0
 29 28  1  0  0  0  0
 30 31  1  0  0  0  0
 32 36  1  0  0  0  0
 32 10  1  0  0  0  0
 34 40  1  0  0  0  0
 34 33  2  0  0  0  0
 35 33  1  0  0  0  0
 35 39  2  0  0  0  0
 37 38  2  0  0  0  0
 37 34  1  0  0  0  0
 38 35  1  0  0  0  0
 39 36  2  0  0  0  0
 41 40  1  0  0  0  0
 42 41  1  0  0  0  0
 42 43  2  0  0  0  0
 44 45  2  0  0  0  0
 45 42  1  0  0  0  0
 46 47  2  0  0  0  0
 47 45  1  0  0  0  0
 48 50  1  0  0  0  0
 48 46  1  0  0  0  0
 50 49  3  0  0  0  0
M  END
>  <MODEL>
2

>  <REMARK>
 VINA RESULT:      -5.6      2.735      4.888
  Name = 
  21 active torsions:
  status: ('A' for Active; 'I' for Inactive)
    1  A    between atoms: C_2  and  C_22
    2  A    between atoms: C_2  and  C_40
    3  A    between atoms: C_5  and  C_9
    4  A    between atoms: C_5  and  C_19
    5  A    between atoms: N_7  and  C_14
    6  A    between atoms: N_7  and  C_35
    7  A    between atoms: C_9  and  C_26
    8  A    between atoms: C_10  and  C_44
    9  A    between atoms: O_11  and  C_33
   10  A    between atoms: O_11  and  C_38
   11  A    between atoms: C_12  and  S_29
   12  A    between atoms: C_13  and  C_26
   13  A    between atoms: C_14  and  C_42
   14  A    between atoms: C_18  and  C_27
   15  A    between atoms: C_19  and  N_39
   16  A    between atoms: C_24  and  C_42
   17  A    between atoms: C_25  and  C_33
   18  A    between atoms: C_27  and  S_29
   19  A    between atoms: C_31  and  C_36
   20  A    between atoms: C_36  and  C_43
   21  A    between atoms: C_38  and  C_44
                            x       y       z     vdW  Elec       q    Type
                         _______ _______ _______ _____ _____    ______ ____

>  <TORSDO>
F 21

$$$$
=
 OpenBabel11072412073D

 50 54  0  0  1  0  0  0  0  0999 V2000
  160.6050  211.8820  146.7010 C   0  0  1  0  0  3  0  0  0  0  0  0
  157.5020  214.1360  149.0540 C   0  0  0  0  0  2  0  0  0  0  0  0
  159.7380  213.5230  148.5390 C   0  0  1  0  0  0  0  0  0  0  0  0
  160.5200  214.4530  149.4520 C   0  0  0  0  0  2  0  0  0  0  0  0
  158.7350  213.1540  145.5430 C   0  0  0  0  0  2  0  0  0  0  0  0
  160.2470  213.0390  145.7590 C   0  0  2  0  0  3  0  0  0  0  0  0
  158.2560  214.3010  150.2240 O   0  0  0  0  0  0  0  0  0  0  0  0
  159.4350  213.5600  150.0230 C   0  0  1  0  0  3  0  0  0  0  0  0
  158.4680  214.0490  147.9000 C   0  0  1  0  0  3  0  0  0  0  0  0
  161.7320  212.3080  147.6200 C   0  0  1  0  0  3  0  0  0  0  0  0
  160.3300  212.1450  148.1890 C   0  0  2  0  0  3  0  0  0  0  0  0
  157.9110  213.1120  146.8330 C   0  0  0  0  0  2  0  0  0  0  0  0
  160.9020  212.8140  144.4070 C   0  0  0  0  0  2  0  0  0  0  0  0
  159.8650  212.8040  143.2930 C   0  0  0  0  0  2  0  0  0  0  0  0
  160.2190  213.4720  139.7130 O   0  0  0  0  0  0  0  0  0  0  0  0
  160.5160  213.0390  142.0110 N   0  0  0  0  0  0  0  0  0  0  0  0
  159.7320  213.4710  140.8760 C   0  0  0  0  0  0  0  0  0  0  0  0
  163.3130  212.7040  139.7480 C   0  0  0  0  0  3  0  0  0  0  0  0
  162.6150  212.7130  140.8480 C   0  0  0  0  0  0  0  0  0  0  0  0
  161.9170  212.7230  141.9550 C   0  0  0  0  0  3  0  0  0  0  0  0
  163.5580  211.4240  139.0280 C   0  0  0  0  0  2  0  0  0  0  0  0
  162.3750  211.0870  138.1920 C   0  0  0  0  0  0  0  0  0  0  0  0
  162.2070  211.6660  137.0850 O   0  0  0  0  0  0  0  0  0  0  0  0
  161.4420  210.1590  138.6640 O   0  0  0  0  0  0  0  0  0  0  0  0
  161.7560  209.2070  139.6720 C   0  0  0  0  0  2  0  0  0  0  0  0
  161.4390  207.8010  139.1960 C   0  0  0  0  0  2  0  0  0  0  0  0
  162.3680  206.8550  139.7870 N   0  0  0  0  0  1  0  0  0  0  0  0
  158.3230  213.9340  141.0520 C   0  0  0  0  0  2  0  0  0  0  0  0
  157.2090  212.9180  140.0390 S   0  0  0  0  0  0  0  0  0  0  0  0
  156.9980  214.2520  138.8260 C   0  0  0  0  0  2  0  0  0  0  0  0
  157.4000  213.7550  137.4520 C   0  0  0  0  0  1  0  0  0  0  0  0
  162.6100  211.1020  147.9470 C   0  0  0  0  0  2  0  0  0  0  0  0
  161.4720  206.7020  149.4390 N   0  0  0  0  0  0  0  0  0  0  0  0
  161.3850  205.6050  148.7620 C   0  0  0  0  0  0  0  0  0  0  0  0
  161.3890  207.7270  148.4640 C   0  0  0  0  0  0  0  0  0  0  0  0
  162.0040  210.2090  148.9840 C   0  0  0  0  0  3  0  0  0  0  0  0
  161.2500  205.8380  147.3190 C   0  0  0  0  0  3  0  0  0  0  0  0
  161.2670  207.1540  147.1320 C   0  0  0  0  0  3  0  0  0  0  0  0
  161.6790  208.9720  148.7160 C   0  0  0  0  0  0  0  0  0  0  0  0
  161.3880  204.2630  149.4070 C   0  0  0  0  0  2  0  0  0  0  0  0
  160.3300  204.2130  150.4950 C   0  0  0  0  0  2  0  0  0  0  0  0
  160.9870  204.0680  151.8280 C   0  0  0  0  0  0  0  0  0  0  0  0
  160.9860  202.9410  152.3910 O   0  0  0  0  0  0  0  0  0  0  0  0
  162.8390  205.4850  152.2010 O   0  0  0  0  0  0  0  0  0  0  0  0
  161.6320  205.2440  152.4610 C   0  0  0  0  0  0  0  0  0  0  0  0
  161.3380  207.3290  153.6470 C   0  0  0  0  0  3  0  0  0  0  0  0
  160.9440  206.1280  153.3590 N   0  0  0  0  0  0  0  0  0  0  0  0
  160.5510  208.1740  154.5900 C   0  0  0  0  0  2  0  0  0  0  0  0
  161.6780  208.1790  157.0100 C   0  0  0  0  0  3  0  0  0  0  0  0
  161.1700  208.1750  155.9160 C   0  0  0  0  0  0  0  0  0  0  0  0
  1 10  1  0  0  0  0
  1 11  1  0  0  0  0
  2  7  1  0  0  0  0
  3  4  1  0  0  0  0
  3  8  1  0  0  0  0
  4  8  1  0  0  0  0
  5  6  1  0  0  0  0
  5 12  1  0  0  0  0
  6  1  1  0  0  0  0
  8  7  1  0  0  0  0
  9  3  1  0  0  0  0
  9  2  1  0  0  0  0
 10 32  1  0  0  0  0
 10 11  1  0  0  0  0
 11  3  1  0  0  0  0
 12  9  1  0  0  0  0
 13  6  1  0  0  0  0
 14 13  1  0  0  0  0
 15 17  2  0  0  0  0
 16 14  1  0  0  0  0
 17 28  1  0  0  0  0
 17 16  1  0  0  0  0
 18 19  2  0  0  0  0
 19 20  2  0  0  0  0
 20 16  1  0  0  0  0
 21 18  1  0  0  0  0
 22 24  1  0  0  0  0
 22 21  1  0  0  0  0
 23 22  2  0  0  0  0
 24 25  1  0  0  0  0
 26 25  1  0  0  0  0
 26 27  1  0  0  0  0
 29 28  1  0  0  0  0
 30 29  1  0  0  0  0
 31 30  1  0  0  0  0
 32 36  1  0  0  0  0
 34 40  1  0  0  0  0
 34 33  2  0  0  0  0
 35 39  2  0  0  0  0
 35 33  1  0  0  0  0
 37 34  1  0  0  0  0
 38 37  2  0  0  0  0
 38 35  1  0  0  0  0
 39 36  2  0  0  0  0
 40 41  1  0  0  0  0
 41 42  1  0  0  0  0
 42 43  2  0  0  0  0
 42 45  1  0  0  0  0
 44 45  2  0  0  0  0
 45 47  1  0  0  0  0
 46 48  1  0  0  0  0
 47 46  2  0  0  0  0
 48 50  1  0  0  0  0
 50 49  3  0  0  0  0
M  END
>  <MODEL>
3

>  <REMARK>
 VINA RESULT:      -5.2      4.995      8.275
  Name = 
  21 active torsions:
  status: ('A' for Active; 'I' for Inactive)
    1  A    between atoms: C_2  and  C_22
    2  A    between atoms: C_2  and  C_40
    3  A    between atoms: C_5  and  C_9
    4  A    between atoms: C_5  and  C_19
    5  A    between atoms: N_7  and  C_14
    6  A    between atoms: N_7  and  C_35
    7  A    between atoms: C_9  and  C_26
    8  A    between atoms: C_10  and  C_44
    9  A    between atoms: O_11  and  C_33
   10  A    between atoms: O_11  and  C_38
   11  A    between atoms: C_12  and  S_29
   12  A    between atoms: C_13  and  C_26
   13  A    between atoms: C_14  and  C_42
   14  A    between atoms: C_18  and  C_27
   15  A    between atoms: C_19  and  N_39
   16  A    between atoms: C_24  and  C_42
   17  A    between atoms: C_25  and  C_33
   18  A    between atoms: C_27  and  S_29
   19  A    between atoms: C_31  and  C_36
   20  A    between atoms: C_36  and  C_43
   21  A    between atoms: C_38  and  C_44
                            x       y       z     vdW  Elec       q    Type
                         _______ _______ _______ _____ _____    ______ ____

>  <TORSDO>
F 21

$$$$
=
 OpenBabel11072412073D

 50 54  0  0  1  0  0  0  0  0999 V2000
  160.4920  210.4540  152.3100 C   0  0  1  0  0  3  0  0  0  0  0  0
  159.4380  209.7800  156.6320 C   0  0  0  0  0  2  0  0  0  0  0  0
  160.9710  209.9370  154.8250 C   0  0  1  0  0  0  0  0  0  0  0  0
  162.3000  209.8130  155.5510 C   0  0  0  0  0  2  0  0  0  0  0  0
  158.9540  212.0460  153.5570 C   0  0  0  0  0  2  0  0  0  0  0  0
  160.2930  211.8830  152.8320 C   0  0  2  0  0  3  0  0  0  0  0  0
  160.5460  208.9880  156.9600 O   0  0  0  0  0  0  0  0  0  0  0  0
  161.2240  208.7620  155.7480 C   0  0  1  0  0  3  0  0  0  0  0  0
  159.8510  210.6960  155.5080 C   0  0  1  0  0  3  0  0  0  0  0  0
  161.9360  210.0390  152.5110 C   0  0  1  0  0  3  0  0  0  0  0  0
  160.8550  209.4150  153.3800 C   0  0  2  0  0  3  0  0  0  0  0  0
  158.6620  210.9510  154.5870 C   0  0  0  0  0  2  0  0  0  0  0  0
  160.3190  212.8570  151.6660 C   0  0  0  0  0  2  0  0  0  0  0  0
  159.2790  213.9530  151.8470 C   0  0  0  0  0  2  0  0  0  0  0  0
  156.6890  214.4490  149.3100 O   0  0  0  0  0  0  0  0  0  0  0  0
  158.6810  214.2830  150.5590 N   0  0  0  0  0  0  0  0  0  0  0  0
  157.2440  214.3840  150.4400 C   0  0  0  0  0  0  0  0  0  0  0  0
  160.3040  212.3760  147.9540 C   0  0  0  0  0  3  0  0  0  0  0  0
  159.9500  213.3810  148.7050 C   0  0  0  0  0  0  0  0  0  0  0  0
  159.5960  214.3920  149.4560 C   0  0  0  0  0  3  0  0  0  0  0  0
  161.5770  211.6530  148.2230 C   0  0  0  0  0  2  0  0  0  0  0  0
  162.6950  212.3310  147.5140 C   0  0  0  0  0  0  0  0  0  0  0  0
  163.8170  212.4430  148.0810 O   0  0  0  0  0  0  0  0  0  0  0  0
  162.4770  212.8700  146.2430 O   0  0  0  0  0  0  0  0  0  0  0  0
  161.1740  213.1270  145.7380 C   0  0  0  0  0  2  0  0  0  0  0  0
  161.0660  212.6860  144.2890 C   0  0  0  0  0  2  0  0  0  0  0  0
  159.8770  211.8730  144.1050 N   0  0  0  0  0  1  0  0  0  0  0  0
  156.3770  214.4190  151.6560 C   0  0  0  0  0  2  0  0  0  0  0  0
  154.7650  213.6670  151.2870 S   0  0  0  0  0  0  0  0  0  0  0  0
  154.4380  213.3610  153.0460 C   0  0  0  0  0  2  0  0  0  0  0  0
  155.2020  214.3670  153.8840 C   0  0  0  0  0  1  0  0  0  0  0  0
  162.3590  209.0970  151.3860 C   0  0  0  0  0  2  0  0  0  0  0  0
  160.6190  206.0350  148.1480 N   0  0  0  0  0  0  0  0  0  0  0  0
  161.2480  205.3350  147.2640 C   0  0  0  0  0  0  0  0  0  0  0  0
  161.5310  207.0600  148.5020 C   0  0  0  0  0  0  0  0  0  0  0  0
  161.1970  208.5710  150.6030 C   0  0  0  0  0  3  0  0  0  0  0  0
  162.5970  205.8430  146.9920 C   0  0  0  0  0  3  0  0  0  0  0  0
  162.7800  206.9050  147.7700 C   0  0  0  0  0  3  0  0  0  0  0  0
  161.3670  207.8310  149.5400 C   0  0  0  0  0  0  0  0  0  0  0  0
  160.6310  204.1630  146.5840 C   0  0  0  0  0  2  0  0  0  0  0  0
  161.5790  202.9780  146.6390 C   0  0  0  0  0  2  0  0  0  0  0  0
  160.9940  201.9050  147.4980 C   0  0  0  0  0  0  0  0  0  0  0  0
  160.7480  200.7800  146.9890 O   0  0  0  0  0  0  0  0  0  0  0  0
  159.6940  201.6800  149.4580 O   0  0  0  0  0  0  0  0  0  0  0  0
  160.7230  202.1780  148.9300 C   0  0  0  0  0  0  0  0  0  0  0  0
  161.1570  203.8710  150.6000 C   0  0  0  0  0  3  0  0  0  0  0  0
  161.5790  202.9860  149.7510 N   0  0  0  0  0  0  0  0  0  0  0  0
  162.1280  204.6570  151.4130 C   0  0  0  0  0  2  0  0  0  0  0  0
  160.8940  205.8070  153.4840 C   0  0  0  0  0  3  0  0  0  0  0  0
  161.4520  205.2900  152.5480 C   0  0  0  0  0  0  0  0  0  0  0  0
  1 10  1  0  0  0  0
  1  6  1  0  0  0  0
  1 11  1  0  0  0  0
  2  7  1  0  0  0  0
  3  9  1  0  0  0  0
  3  4  1  0  0  0  0
  3  8  1  0  0  0  0
  4  8  1  0  0  0  0
  5 12  1  0  0  0  0
  6  5  1  0  0  0  0
  8  7  1  0  0  0  0
  9  2  1  0  0  0  0
 10 11  1  0  0  0  0
 11  3  1  0  0  0  0
 12  9  1  0  0  0  0
 13 14  1  0  0  0  0
 13  6  1  0  0  0  0
 15 17  2  0  0  0  0
 16 14  1  0  0  0  0
 17 16  1  0  0  0  0
 17 28  1  0  0  0  0
 18 21  1  0  0  0  0
 18 19  2  0  0  0  0
 19 20  2  0  0  0  0
 20 16  1  0  0  0  0
 22 23  2  0  0  0  0
 22 21  1  0  0  0  0
 24 22  1  0  0  0  0
 25 24  1  0  0  0  0
 26 25  1  0  0  0  0
 27 26  1  0  0  0  0
 29 28  1  0  0  0  0
 29 30  1  0  0  0  0
 30 31  1  0  0  0  0
 32 10  1  0  0  0  0
 33 35  1  0  0  0  0
 34 33  2  0  0  0  0
 35 39  2  0  0  0  0
 36 32  1  0  0  0  0
 37 34  1  0  0  0  0
 37 38  2  0  0  0  0
 38 35  1  0  0  0  0
 39 36  2  0  0  0  0
 40 41  1  0  0  0  0
 40 34  1  0  0  0  0
 41 42  1  0  0  0  0
 42 45  1  0  0  0  0
 43 42  2  0  0  0  0
 45 44  2  0  0  0  0
 45 47  1  0  0  0  0
 46 48  1  0  0  0  0
 47 46  2  0  0  0  0
 48 50  1  0  0  0  0
 50 49  3  0  0  0  0
M  END
>  <MODEL>
4

>  <REMARK>
 VINA RESULT:      -5.2      1.550      2.035
  Name = 
  21 active torsions:
  status: ('A' for Active; 'I' for Inactive)
    1  A    between atoms: C_2  and  C_22
    2  A    between atoms: C_2  and  C_40
    3  A    between atoms: C_5  and  C_9
    4  A    between atoms: C_5  and  C_19
    5  A    between atoms: N_7  and  C_14
    6  A    between atoms: N_7  and  C_35
    7  A    between atoms: C_9  and  C_26
    8  A    between atoms: C_10  and  C_44
    9  A    between atoms: O_11  and  C_33
   10  A    between atoms: O_11  and  C_38
   11  A    between atoms: C_12  and  S_29
   12  A    between atoms: C_13  and  C_26
   13  A    between atoms: C_14  and  C_42
   14  A    between atoms: C_18  and  C_27
   15  A    between atoms: C_19  and  N_39
   16  A    between atoms: C_24  and  C_42
   17  A    between atoms: C_25  and  C_33
   18  A    between atoms: C_27  and  S_29
   19  A    between atoms: C_31  and  C_36
   20  A    between atoms: C_36  and  C_43
   21  A    between atoms: C_38  and  C_44
                            x       y       z     vdW  Elec       q    Type
                         _______ _______ _______ _____ _____    ______ ____

>  <TORSDO>
F 21

$$$$
=
 OpenBabel11072412073D

 50 54  0  0  1  0  0  0  0  0999 V2000
  160.9480  211.7610  151.5970 C   0  0  1  0  0  3  0  0  0  0  0  0
  161.4600  214.4530  148.0290 C   0  0  0  0  0  2  0  0  0  0  0  0
  161.2200  212.3290  149.0630 C   0  0  1  0  0  0  0  0  0  0  0  0
  161.1110  211.4190  147.8510 C   0  0  0  0  0  2  0  0  0  0  0  0
  159.5000  213.8240  151.2820 C   0  0  0  0  0  2  0  0  0  0  0  0
  159.5270  212.2960  151.3760 C   0  0  2  0  0  3  0  0  0  0  0  0
  162.0680  213.5130  147.1870 O   0  0  0  0  0  0  0  0  0  0  0  0
  162.2820  212.3730  147.9830 C   0  0  1  0  0  3  0  0  0  0  0  0
  160.5760  213.6990  148.9890 C   0  0  1  0  0  3  0  0  0  0  0  0
  161.1460  210.5000  150.7800 C   0  0  1  0  0  3  0  0  0  0  0  0
  161.8520  211.7800  150.3560 C   0  0  2  0  0  3  0  0  0  0  0  0
  160.5510  214.4130  150.3370 C   0  0  0  0  0  2  0  0  0  0  0  0
  158.6410  211.8790  152.5380 C   0  0  0  0  0  2  0  0  0  0  0  0
  158.0810  213.0960  153.2610 C   0  0  0  0  0  2  0  0  0  0  0  0
  157.1840  212.7470  156.7910 O   0  0  0  0  0  0  0  0  0  0  0  0
  158.2530  212.9370  154.7000 N   0  0  0  0  0  0  0  0  0  0  0  0
  157.1040  212.6720  155.5360 C   0  0  0  0  0  0  0  0  0  0  0  0
  161.3340  211.2490  155.5440 C   0  0  0  0  0  3  0  0  0  0  0  0
  160.4600  212.1990  155.3710 C   0  0  0  0  0  0  0  0  0  0  0  0
  159.5840  213.1560  155.1960 C   0  0  0  0  0  3  0  0  0  0  0  0
  161.5240  210.6440  156.8900 C   0  0  0  0  0  2  0  0  0  0  0  0
  160.5800  209.5060  157.0640 C   0  0  0  0  0  0  0  0  0  0  0  0
  159.3380  209.7210  157.0670 O   0  0  0  0  0  0  0  0  0  0  0  0
  161.0860  208.2180  157.2610 O   0  0  0  0  0  0  0  0  0  0  0  0
  160.7240  207.1230  156.4310 C   0  0  0  0  0  2  0  0  0  0  0  0
  160.8950  207.4830  154.9660 C   0  0  0  0  0  2  0  0  0  0  0  0
  160.8220  206.2850  154.1480 N   0  0  0  0  0  1  0  0  0  0  0  0
  155.7900  212.2970  154.9320 C   0  0  0  0  0  2  0  0  0  0  0  0
  155.4600  210.5340  155.2210 S   0  0  0  0  0  0  0  0  0  0  0  0
  154.8770  210.8590  156.9090 C   0  0  0  0  0  2  0  0  0  0  0  0
  153.7310  209.9220  157.2370 C   0  0  0  0  0  1  0  0  0  0  0  0
  162.0970  209.5580  151.5150 C   0  0  0  0  0  2  0  0  0  0  0  0
  161.6920  205.6080  148.8470 N   0  0  0  0  0  0  0  0  0  0  0  0
  161.7090  205.4840  147.5620 C   0  0  0  0  0  0  0  0  0  0  0  0
  161.3970  206.9760  149.0670 C   0  0  0  0  0  0  0  0  0  0  0  0
  161.6980  208.1200  151.3920 C   0  0  0  0  0  3  0  0  0  0  0  0
  161.4390  206.7470  146.8660 C   0  0  0  0  0  3  0  0  0  0  0  0
  161.2590  207.6770  147.7980 C   0  0  0  0  0  3  0  0  0  0  0  0
  161.5290  207.5550  150.2270 C   0  0  0  0  0  0  0  0  0  0  0  0
  161.9450  204.1780  146.8860 C   0  0  0  0  0  2  0  0  0  0  0  0
  160.6600  203.6940  146.2390 C   0  0  0  0  0  2  0  0  0  0  0  0
  160.7140  202.2110  146.0620 C   0  0  0  0  0  0  0  0  0  0  0  0
  160.4350  201.7190  144.9370 O   0  0  0  0  0  0  0  0  0  0  0  0
  161.4930  200.1760  146.9730 O   0  0  0  0  0  0  0  0  0  0  0  0
  161.1010  201.3490  147.2050 C   0  0  0  0  0  0  0  0  0  0  0  0
  161.2100  201.0090  149.5950 C   0  0  0  0  0  3  0  0  0  0  0  0
  161.0520  201.7880  148.5710 N   0  0  0  0  0  0  0  0  0  0  0  0
  161.1480  201.5620  150.9780 C   0  0  0  0  0  2  0  0  0  0  0  0
  160.3970  204.1240  150.9240 C   0  0  0  0  0  3  0  0  0  0  0  0
  160.7370  202.9670  150.9500 C   0  0  0  0  0  0  0  0  0  0  0  0
  2  9  1  0  0  0  0
  3 11  1  0  0  0  0
  4  8  1  0  0  0  0
  4  3  1  0  0  0  0
  5  6  1  0  0  0  0
  6  1  1  0  0  0  0
  6 13  1  0  0  0  0
  7  8  1  0  0  0  0
  7  2  1  0  0  0  0
  8  3  1  0  0  0  0
  9  3  1  0  0  0  0
  9 12  1  0  0  0  0
 10 32  1  0  0  0  0
 10  1  1  0  0  0  0
 11 10  1  0  0  0  0
 11  1  1  0  0  0  0
 12  5  1  0  0  0  0
 13 14  1  0  0  0  0
 14 16  1  0  0  0  0
 16 20  1  0  0  0  0
 16 17  1  0  0  0  0
 17 15  2  0  0  0  0
 18 21  1  0  0  0  0
 19 18  2  0  0  0  0
 20 19  2  0  0  0  0
 21 22  1  0  0  0  0
 22 23  2  0  0  0  0
 22 24  1  0  0  0  0
 25 24  1  0  0  0  0
 26 25  1  0  0  0  0
 27 26  1  0  0  0  0
 28 29  1  0  0  0  0
 28 17  1  0  0  0  0
 29 30  1  0  0  0  0
 30 31  1  0  0  0  0
 33 35  1  0  0  0  0
 34 33  2  0  0  0  0
 35 39  2  0  0  0  0
 36 32  1  0  0  0  0
 37 34  1  0  0  0  0
 37 38  2  0  0  0  0
 38 35  1  0  0  0  0
 39 36  2  0  0  0  0
 40 34  1  0  0  0  0
 41 40  1  0  0  0  0
 42 41  1  0  0  0  0
 42 45  1  0  0  0  0
 43 42  2  0  0  0  0
 44 45  2  0  0  0  0
 45 47  1  0  0  0  0
 46 48  1  0  0  0  0
 47 46  2  0  0  0  0
 49 50  3  0  0  0  0
 50 48  1  0  0  0  0
M  END
>  <MODEL>
5

>  <REMARK>
 VINA RESULT:      -5.1      2.486      5.909
  Name = 
  21 active torsions:
  status: ('A' for Active; 'I' for Inactive)
    1  A    between atoms: C_2  and  C_22
    2  A    between atoms: C_2  and  C_40
    3  A    between atoms: C_5  and  C_9
    4  A    between atoms: C_5  and  C_19
    5  A    between atoms: N_7  and  C_14
    6  A    between atoms: N_7  and  C_35
    7  A    between atoms: C_9  and  C_26
    8  A    between atoms: C_10  and  C_44
    9  A    between atoms: O_11  and  C_33
   10  A    between atoms: O_11  and  C_38
   11  A    between atoms: C_12  and  S_29
   12  A    between atoms: C_13  and  C_26
   13  A    between atoms: C_14  and  C_42
   14  A    between atoms: C_18  and  C_27
   15  A    between atoms: C_19  and  N_39
   16  A    between atoms: C_24  and  C_42
   17  A    between atoms: C_25  and  C_33
   18  A    between atoms: C_27  and  S_29
   19  A    between atoms: C_31  and  C_36
   20  A    between atoms: C_36  and  C_43
   21  A    between atoms: C_38  and  C_44
                            x       y       z     vdW  Elec       q    Type
                         _______ _______ _______ _____ _____    ______ ____

>  <TORSDO>
F 21

$$$$
=
 OpenBabel11072412073D

 50 54  0  0  1  0  0  0  0  0999 V2000
  160.9550  205.1470  146.7800 C   0  0  1  0  0  3  0  0  0  0  0  0
  160.3250  201.7870  149.7060 C   0  0  0  0  0  2  0  0  0  0  0  0
  161.2900  202.7500  147.7620 C   0  0  1  0  0  0  0  0  0  0  0  0
  162.2620  201.6600  147.3410 C   0  0  0  0  0  2  0  0  0  0  0  0
  161.0980  205.5340  149.2870 C   0  0  0  0  0  2  0  0  0  0  0  0
  161.8530  205.5540  147.9560 C   0  0  2  0  0  3  0  0  0  0  0  0
  160.6300  200.7350  148.8320 O   0  0  0  0  0  0  0  0  0  0  0  0
  160.7990  201.3290  147.5680 C   0  0  1  0  0  3  0  0  0  0  0  0
  161.0920  202.9990  149.2430 C   0  0  1  0  0  3  0  0  0  0  0  0
  161.7400  204.2750  145.8210 C   0  0  1  0  0  3  0  0  0  0  0  0
  160.6550  203.6440  146.6800 C   0  0  2  0  0  3  0  0  0  0  0  0
  160.2830  204.2600  149.5280 C   0  0  0  0  0  2  0  0  0  0  0  0
  162.3760  206.9630  147.7300 C   0  0  0  0  0  2  0  0  0  0  0  0
  161.3460  208.0000  148.1500 C   0  0  0  0  0  2  0  0  0  0  0  0
  162.6620  210.9520  149.8660 O   0  0  0  0  0  0  0  0  0  0  0  0
  161.8840  208.8210  149.2280 N   0  0  0  0  0  0  0  0  0  0  0  0
  162.0050  210.2500  149.0500 C   0  0  0  0  0  0  0  0  0  0  0  0
  160.8760  207.6160  152.4820 C   0  0  0  0  0  3  0  0  0  0  0  0
  161.6110  207.8610  151.4340 C   0  0  0  0  0  0  0  0  0  0  0  0
  162.3520  208.1050  150.3830 C   0  0  0  0  0  3  0  0  0  0  0  0
  160.9600  208.4980  153.6770 C   0  0  0  0  0  2  0  0  0  0  0  0
  160.8640  209.9220  153.2550 C   0  0  0  0  0  0  0  0  0  0  0  0
  161.8240  210.7070  153.4870 O   0  0  0  0  0  0  0  0  0  0  0  0
  159.6950  210.3800  152.6410 O   0  0  0  0  0  0  0  0  0  0  0  0
  158.8620  211.3690  153.2310 C   0  0  0  0  0  2  0  0  0  0  0  0
  158.5260  212.4550  152.2240 C   0  0  0  0  0  2  0  0  0  0  0  0
  159.7090  213.2470  151.9350 N   0  0  0  0  0  1  0  0  0  0  0  0
  161.3510  210.9350  147.8960 C   0  0  0  0  0  2  0  0  0  0  0  0
  162.0780  212.5840  147.6620 S   0  0  0  0  0  0  0  0  0  0  0  0
  160.6770  213.3850  148.4910 C   0  0  0  0  0  2  0  0  0  0  0  0
  160.0230  214.3680  147.5410 C   0  0  0  0  0  1  0  0  0  0  0  0
  161.2510  204.5160  144.3940 C   0  0  0  0  0  2  0  0  0  0  0  0
  161.4700  207.7600  140.8860 N   0  0  0  0  0  0  0  0  0  0  0  0
  161.6980  207.5890  139.6260 C   0  0  0  0  0  0  0  0  0  0  0  0
  161.9590  206.5800  141.4980 C   0  0  0  0  0  0  0  0  0  0  0  0
  161.3970  205.9420  143.9640 C   0  0  0  0  0  3  0  0  0  0  0  0
  162.3330  206.2990  139.3340 C   0  0  0  0  0  3  0  0  0  0  0  0
  162.4830  205.6650  140.4930 C   0  0  0  0  0  3  0  0  0  0  0  0
  161.6970  206.2580  142.7330 C   0  0  0  0  0  0  0  0  0  0  0  0
  161.3720  208.6230  138.6050 C   0  0  0  0  0  2  0  0  0  0  0  0
  160.5250  209.7150  139.2330 C   0  0  0  0  0  2  0  0  0  0  0  0
  161.0900  211.0530  138.8820 C   0  0  0  0  0  0  0  0  0  0  0  0
  160.5120  211.7500  138.0060 O   0  0  0  0  0  0  0  0  0  0  0  0
  163.4310  211.3220  139.0450 O   0  0  0  0  0  0  0  0  0  0  0  0
  162.3090  211.5390  139.5720 C   0  0  0  0  0  0  0  0  0  0  0  0
  161.7950  211.7690  141.9220 C   0  0  0  0  0  3  0  0  0  0  0  0
  162.2740  212.2510  140.8180 N   0  0  0  0  0  0  0  0  0  0  0  0
  161.8100  212.5860  143.1690 C   0  0  0  0  0  2  0  0  0  0  0  0
  159.4000  212.5750  144.3190 C   0  0  0  0  0  3  0  0  0  0  0  0
  160.4880  212.5820  143.8000 C   0  0  0  0  0  0  0  0  0  0  0  0
  1  6  1  0  0  0  0
  3  9  1  0  0  0  0
  4  8  1  0  0  0  0
  4  3  1  0  0  0  0
  5 12  1  0  0  0  0
  6  5  1  0  0  0  0
  7  2  1  0  0  0  0
  8  3  1  0  0  0  0
  8  7  1  0  0  0  0
  9 12  1  0  0  0  0
  9  2  1  0  0  0  0
 10 11  1  0  0  0  0
 10  1  1  0  0  0  0
 11  1  1  0  0  0  0
 11  3  1  0  0  0  0
 13  6  1  0  0  0  0
 13 14  1  0  0  0  0
 14 16  1  0  0  0  0
 16 20  1  0  0  0  0
 17 16  1  0  0  0  0
 17 15  2  0  0  0  0
 18 21  1  0  0  0  0
 19 18  2  0  0  0  0
 20 19  2  0  0  0  0
 22 23  2  0  0  0  0
 22 21  1  0  0  0  0
 24 25  1  0  0  0  0
 24 22  1  0  0  0  0
 26 25  1  0  0  0  0
 27 26  1  0  0  0  0
 28 17  1  0  0  0  0
 29 28  1  0  0  0  0
 29 30  1  0  0  0  0
 31 30  1  0  0  0  0
 32 10  1  0  0  0  0
 33 35  1  0  0  0  0
 34 33  2  0  0  0  0
 35 39  2  0  0  0  0
 36 32  1  0  0  0  0
 37 34  1  0  0  0  0
 37 38  2  0  0  0  0
 38 35  1  0  0  0  0
 39 36  2  0  0  0  0
 40 41  1  0  0  0  0
 40 34  1  0  0  0  0
 42 41  1  0  0  0  0
 42 45  1  0  0  0  0
 43 42  2  0  0  0  0
 44 45  2  0  0  0  0
 45 47  1  0  0  0  0
 46 48  1  0  0  0  0
 47 46  2  0  0  0  0
 48 50  1  0  0  0  0
 50 49  3  0  0  0  0
M  END
>  <MODEL>
6

>  <REMARK>
 VINA RESULT:      -4.8      4.530      9.562
  Name = 
  21 active torsions:
  status: ('A' for Active; 'I' for Inactive)
    1  A    between atoms: C_2  and  C_22
    2  A    between atoms: C_2  and  C_40
    3  A    between atoms: C_5  and  C_9
    4  A    between atoms: C_5  and  C_19
    5  A    between atoms: N_7  and  C_14
    6  A    between atoms: N_7  and  C_35
    7  A    between atoms: C_9  and  C_26
    8  A    between atoms: C_10  and  C_44
    9  A    between atoms: O_11  and  C_33
   10  A    between atoms: O_11  and  C_38
   11  A    between atoms: C_12  and  S_29
   12  A    between atoms: C_13  and  C_26
   13  A    between atoms: C_14  and  C_42
   14  A    between atoms: C_18  and  C_27
   15  A    between atoms: C_19  and  N_39
   16  A    between atoms: C_24  and  C_42
   17  A    between atoms: C_25  and  C_33
   18  A    between atoms: C_27  and  S_29
   19  A    between atoms: C_31  and  C_36
   20  A    between atoms: C_36  and  C_43
   21  A    between atoms: C_38  and  C_44
                            x       y       z     vdW  Elec       q    Type
                         _______ _______ _______ _____ _____    ______ ____

>  <TORSDO>
F 21

$$$$
=
 OpenBabel11072412073D

 50 54  0  0  1  0  0  0  0  0999 V2000
  160.2620  212.1330  146.0140 C   0  0  1  0  0  3  0  0  0  0  0  0
  156.5920  213.4040  148.2860 C   0  0  0  0  0  2  0  0  0  0  0  0
  158.9300  213.3970  147.8710 C   0  0  1  0  0  0  0  0  0  0  0  0
  159.4130  214.4370  148.8690 C   0  0  0  0  0  2  0  0  0  0  0  0
  158.1850  212.9650  144.8100 C   0  0  0  0  0  2  0  0  0  0  0  0
  159.6650  213.2170  145.1060 C   0  0  2  0  0  3  0  0  0  0  0  0
  157.2280  213.6820  149.5030 O   0  0  0  0  0  0  0  0  0  0  0  0
  158.5640  213.2710  149.3360 C   0  0  1  0  0  3  0  0  0  0  0  0
  157.5980  213.6270  147.1860 C   0  0  1  0  0  3  0  0  0  0  0  0
  161.2040  212.7720  147.0140 C   0  0  1  0  0  3  0  0  0  0  0  0
  159.8650  212.2320  147.4940 C   0  0  2  0  0  3  0  0  0  0  0  0
  157.3420  212.6440  146.0470 C   0  0  0  0  0  2  0  0  0  0  0  0
  160.4150  213.2410  143.7840 C   0  0  0  0  0  2  0  0  0  0  0  0
  159.4620  213.4740  142.6210 C   0  0  0  0  0  2  0  0  0  0  0  0
  160.1260  213.9800  139.0590 O   0  0  0  0  0  0  0  0  0  0  0  0
  160.2220  213.6720  141.3930 N   0  0  0  0  0  0  0  0  0  0  0  0
  159.5330  214.0170  140.1700 C   0  0  0  0  0  0  0  0  0  0  0  0
  163.2030  213.2010  139.4070 C   0  0  0  0  0  3  0  0  0  0  0  0
  162.4180  213.3040  140.4420 C   0  0  0  0  0  0  0  0  0  0  0  0
  161.6320  213.4080  141.4830 C   0  0  0  0  0  3  0  0  0  0  0  0
  163.5460  211.8600  138.8590 C   0  0  0  0  0  2  0  0  0  0  0  0
  162.2980  211.1320  138.5010 C   0  0  0  0  0  0  0  0  0  0  0  0
  161.5600  211.5760  137.5800 O   0  0  0  0  0  0  0  0  0  0  0  0
  161.9400  209.9870  139.2190 O   0  0  0  0  0  0  0  0  0  0  0  0
  161.8270  208.7100  138.6070 C   0  0  0  0  0  2  0  0  0  0  0  0
  161.2980  208.8400  137.1900 C   0  0  0  0  0  2  0  0  0  0  0  0
  160.1100  208.0220  137.0260 N   0  0  0  0  0  1  0  0  0  0  0  0
  158.0990  214.4330  140.1920 C   0  0  0  0  0  2  0  0  0  0  0  0
  157.0740  213.1550  139.4070 S   0  0  0  0  0  0  0  0  0  0  0  0
  156.1400  214.3960  138.4680 C   0  0  0  0  0  2  0  0  0  0  0  0
  154.6600  214.2340  138.7500 C   0  0  0  0  0  1  0  0  0  0  0  0
  162.3420  211.8050  147.3350 C   0  0  0  0  0  2  0  0  0  0  0  0
  162.3280  208.5900  150.8760 N   0  0  0  0  0  0  0  0  0  0  0  0
  161.8940  207.3730  150.8750 C   0  0  0  0  0  0  0  0  0  0  0  0
  161.6900  209.1950  149.7650 C   0  0  0  0  0  0  0  0  0  0  0  0
  162.4450  211.4960  148.7950 C   0  0  0  0  0  3  0  0  0  0  0  0
  160.9640  207.1030  149.7730 C   0  0  0  0  0  3  0  0  0  0  0  0
  160.8470  208.2290  149.0740 C   0  0  0  0  0  3  0  0  0  0  0  0
  162.0480  210.3500  149.2810 C   0  0  0  0  0  0  0  0  0  0  0  0
  162.2860  206.3820  151.9140 C   0  0  0  0  0  2  0  0  0  0  0  0
  162.5040  205.0230  151.2740 C   0  0  0  0  0  2  0  0  0  0  0  0
  161.3220  204.1480  151.5360 C   0  0  0  0  0  0  0  0  0  0  0  0
  160.5420  204.4410  152.4810 O   0  0  0  0  0  0  0  0  0  0  0  0
  161.0420  201.8240  151.2180 O   0  0  0  0  0  0  0  0  0  0  0  0
  161.0820  202.9610  150.6800 C   0  0  0  0  0  0  0  0  0  0  0  0
  161.0770  202.0590  148.4380 C   0  0  0  0  0  3  0  0  0  0  0  0
  160.8900  203.0440  149.2600 N   0  0  0  0  0  0  0  0  0  0  0  0
  160.8450  202.2430  146.9770 C   0  0  0  0  0  2  0  0  0  0  0  0
  162.1590  204.3880  146.0820 C   0  0  0  0  0  3  0  0  0  0  0  0
  161.5670  203.4190  146.4870 C   0  0  0  0  0  0  0  0  0  0  0  0
  1 10  1  0  0  0  0
  1 11  1  0  0  0  0
  2  7  1  0  0  0  0
  3  4  1  0  0  0  0
  3  8  1  0  0  0  0
  4  8  1  0  0  0  0
  5  6  1  0  0  0  0
  5 12  1  0  0  0  0
  6  1  1  0  0  0  0
  8  7  1  0  0  0  0
  9  3  1  0  0  0  0
  9  2  1  0  0  0  0
 10 32  1  0  0  0  0
 10 11  1  0  0  0  0
 11  3  1  0  0  0  0
 12  9  1  0  0  0  0
 13  6  1  0  0  0  0
 14 13  1  0  0  0  0
 15 17  2  0  0  0  0
 16 20  1  0  0  0  0
 16 14  1  0  0  0  0
 17 28  1  0  0  0  0
 17 16  1  0  0  0  0
 18 19  2  0  0  0  0
 19 20  2  0  0  0  0
 21 18  1  0  0  0  0
 22 21  1  0  0  0  0
 22 24  1  0  0  0  0
 23 22  2  0  0  0  0
 25 24  1  0  0  0  0
 26 25  1  0  0  0  0
 27 26  1  0  0  0  0
 29 28  1  0  0  0  0
 30 31  1  0  0  0  0
 30 29  1  0  0  0  0
 32 36  1  0  0  0  0
 34 33  2  0  0  0  0
 34 40  1  0  0  0  0
 35 33  1  0  0  0  0
 36 39  2  0  0  0  0
 37 34  1  0  0  0  0
 38 35  1  0  0  0  0
 38 37  2  0  0  0  0
 39 35  2  0  0  0  0
 41 42  1  0  0  0  0
 41 40  1  0  0  0  0
 42 43  2  0  0  0  0
 45 44  2  0  0  0  0
 45 42  1  0  0  0  0
 46 47  2  0  0  0  0
 47 45  1  0  0  0  0
 48 46  1  0  0  0  0
 49 50  3  0  0  0  0
 50 48  1  0  0  0  0
M  END
>  <MODEL>
7

>  <REMARK>
 VINA RESULT:      -3.9      5.272      8.774
  Name = 
  21 active torsions:
  status: ('A' for Active; 'I' for Inactive)
    1  A    between atoms: C_2  and  C_22
    2  A    between atoms: C_2  and  C_40
    3  A    between atoms: C_5  and  C_9
    4  A    between atoms: C_5  and  C_19
    5  A    between atoms: N_7  and  C_14
    6  A    between atoms: N_7  and  C_35
    7  A    between atoms: C_9  and  C_26
    8  A    between atoms: C_10  and  C_44
    9  A    between atoms: O_11  and  C_33
   10  A    between atoms: O_11  and  C_38
   11  A    between atoms: C_12  and  S_29
   12  A    between atoms: C_13  and  C_26
   13  A    between atoms: C_14  and  C_42
   14  A    between atoms: C_18  and  C_27
   15  A    between atoms: C_19  and  N_39
   16  A    between atoms: C_24  and  C_42
   17  A    between atoms: C_25  and  C_33
   18  A    between atoms: C_27  and  S_29
   19  A    between atoms: C_31  and  C_36
   20  A    between atoms: C_36  and  C_43
   21  A    between atoms: C_38  and  C_44
                            x       y       z     vdW  Elec       q    Type
                         _______ _______ _______ _____ _____    ______ ____

>  <TORSDO>
F 21

$$$$
=
 OpenBabel11072412073D

 50 54  0  0  1  0  0  0  0  0999 V2000
  159.7270  212.5300  146.6380 C   0  0  1  0  0  3  0  0  0  0  0  0
  156.3380  214.3200  148.9930 C   0  0  0  0  0  2  0  0  0  0  0  0
  158.6210  213.7640  148.6560 C   0  0  1  0  0  0  0  0  0  0  0  0
  159.2740  214.4530  149.8440 C   0  0  0  0  0  2  0  0  0  0  0  0
  158.0330  214.0760  145.5460 C   0  0  0  0  0  2  0  0  0  0  0  0
  159.5010  213.8720  145.9300 C   0  0  2  0  0  3  0  0  0  0  0  0
  156.9260  214.2080  150.2600 O   0  0  0  0  0  0  0  0  0  0  0  0
  158.1210  213.4910  150.0600 C   0  0  1  0  0  3  0  0  0  0  0  0
  157.4500  214.4530  147.9850 C   0  0  1  0  0  3  0  0  0  0  0  0
  160.7210  212.7150  147.7670 C   0  0  1  0  0  3  0  0  0  0  0  0
  159.2540  212.4760  148.0980 C   0  0  2  0  0  3  0  0  0  0  0  0
  157.0420  213.7840  146.6760 C   0  0  0  0  0  2  0  0  0  0  0  0
  160.3330  213.9220  144.6590 C   0  0  0  0  0  2  0  0  0  0  0  0
  159.4560  214.1860  143.4430 C   0  0  0  0  0  2  0  0  0  0  0  0
  159.5730  212.7140  140.0950 O   0  0  0  0  0  0  0  0  0  0  0  0
  159.9840  213.4670  142.2900 N   0  0  0  0  0  0  0  0  0  0  0  0
  159.2640  213.4930  141.0370 C   0  0  0  0  0  0  0  0  0  0  0  0
  162.8780  212.0420  140.6620 C   0  0  0  0  0  3  0  0  0  0  0  0
  162.0240  212.3650  141.5920 C   0  0  0  0  0  0  0  0  0  0  0  0
  161.1700  212.6900  142.5280 C   0  0  0  0  0  3  0  0  0  0  0  0
  162.8000  210.7070  140.0070 C   0  0  0  0  0  2  0  0  0  0  0  0
  162.9600  210.8630  138.5360 C   0  0  0  0  0  0  0  0  0  0  0  0
  163.8180  211.6690  138.0840 O   0  0  0  0  0  0  0  0  0  0  0  0
  162.1290  210.1410  137.6740 O   0  0  0  0  0  0  0  0  0  0  0  0
  161.3170  209.0650  138.1230 C   0  0  0  0  0  2  0  0  0  0  0  0
  159.8470  209.4380  138.0510 C   0  0  0  0  0  2  0  0  0  0  0  0
  159.1370  208.4970  137.2020 N   0  0  0  0  0  1  0  0  0  0  0  0
  158.1370  214.4490  140.8220 C   0  0  0  0  0  2  0  0  0  0  0  0
  157.0760  213.8590  139.4710 S   0  0  0  0  0  0  0  0  0  0  0  0
  155.5690  214.2490  140.4050 C   0  0  0  0  0  2  0  0  0  0  0  0
  154.4570  213.3090  139.9840 C   0  0  0  0  0  1  0  0  0  0  0  0
  161.5450  211.4400  147.9380 C   0  0  0  0  0  2  0  0  0  0  0  0
  161.5220  210.5930  152.6460 N   0  0  0  0  0  0  0  0  0  0  0  0
  160.5200  210.5080  153.4570 C   0  0  0  0  0  0  0  0  0  0  0  0
  161.0090  211.2850  151.5200 C   0  0  0  0  0  0  0  0  0  0  0  0
  162.2760  211.3930  149.2430 C   0  0  0  0  0  3  0  0  0  0  0  0
  159.3010  211.1210  152.9190 C   0  0  0  0  0  3  0  0  0  0  0  0
  159.5990  211.5910  151.7120 C   0  0  0  0  0  3  0  0  0  0  0  0
  161.6390  211.3580  150.3830 C   0  0  0  0  0  0  0  0  0  0  0  0
  160.6310  209.8790  154.8020 C   0  0  0  0  0  2  0  0  0  0  0  0
  161.5190  208.6500  154.7250 C   0  0  0  0  0  2  0  0  0  0  0  0
  160.6810  207.4390  154.4750 C   0  0  0  0  0  0  0  0  0  0  0  0
  159.5350  207.3710  154.9930 O   0  0  0  0  0  0  0  0  0  0  0  0
  161.3780  205.2090  154.1280 O   0  0  0  0  0  0  0  0  0  0  0  0
  161.2060  206.3470  153.6190 C   0  0  0  0  0  0  0  0  0  0  0  0
  161.8210  207.6630  151.6870 C   0  0  0  0  0  3  0  0  0  0  0  0
  161.5280  206.5230  152.2320 N   0  0  0  0  0  0  0  0  0  0  0  0
  162.1480  207.7420  150.2350 C   0  0  0  0  0  2  0  0  0  0  0  0
  160.4680  206.2310  148.8130 C   0  0  0  0  0  3  0  0  0  0  0  0
  161.2270  206.9120  149.4570 C   0  0  0  0  0  0  0  0  0  0  0  0
  1 10  1  0  0  0  0
  1 11  1  0  0  0  0
  2  7  1  0  0  0  0
  3  4  1  0  0  0  0
  3  8  1  0  0  0  0
  4  8  1  0  0  0  0
  5  6  1  0  0  0  0
  5 12  1  0  0  0  0
  6  1  1  0  0  0  0
  8  7  1  0  0  0  0
  9  3  1  0  0  0  0
  9  2  1  0  0  0  0
 10 32  1  0  0  0  0
 10 11  1  0  0  0  0
 11  3  1  0  0  0  0
 12  9  1  0  0  0  0
 13  6  1  0  0  0  0
 14 13  1  0  0  0  0
 15 17  2  0  0  0  0
 16 20  1  0  0  0  0
 16 14  1  0  0  0  0
 17 16  1  0  0  0  0
 18 19  2  0  0  0  0
 19 20  2  0  0  0  0
 21 18  1  0  0  0  0
 22 21  1  0  0  0  0
 23 22  2  0  0  0  0
 24 25  1  0  0  0  0
 24 22  1  0  0  0  0
 26 25  1  0  0  0  0
 27 26  1  0  0  0  0
 28 17  1  0  0  0  0
 29 30  1  0  0  0  0
 29 28  1  0  0  0  0
 31 30  1  0  0  0  0
 32 36  1  0  0  0  0
 33 34  2  0  0  0  0
 34 40  1  0  0  0  0
 35 38  1  0  0  0  0
 35 33  1  0  0  0  0
 36 39  2  0  0  0  0
 37 34  1  0  0  0  0
 38 37  2  0  0  0  0
 39 35  2  0  0  0  0
 41 40  1  0  0  0  0
 42 41  1  0  0  0  0
 42 43  2  0  0  0  0
 45 44  2  0  0  0  0
 45 42  1  0  0  0  0
 46 47  2  0  0  0  0
 47 45  1  0  0  0  0
 48 46  1  0  0  0  0
 49 50  3  0  0  0  0
 50 48  1  0  0  0  0
M  END
>  <MODEL>
8

>  <REMARK>
 VINA RESULT:      -3.9      5.087      8.825
  Name = 
  21 active torsions:
  status: ('A' for Active; 'I' for Inactive)
    1  A    between atoms: C_2  and  C_22
    2  A    between atoms: C_2  and  C_40
    3  A    between atoms: C_5  and  C_9
    4  A    between atoms: C_5  and  C_19
    5  A    between atoms: N_7  and  C_14
    6  A    between atoms: N_7  and  C_35
    7  A    between atoms: C_9  and  C_26
    8  A    between atoms: C_10  and  C_44
    9  A    between atoms: O_11  and  C_33
   10  A    between atoms: O_11  and  C_38
   11  A    between atoms: C_12  and  S_29
   12  A    between atoms: C_13  and  C_26
   13  A    between atoms: C_14  and  C_42
   14  A    between atoms: C_18  and  C_27
   15  A    between atoms: C_19  and  N_39
   16  A    between atoms: C_24  and  C_42
   17  A    between atoms: C_25  and  C_33
   18  A    between atoms: C_27  and  S_29
   19  A    between atoms: C_31  and  C_36
   20  A    between atoms: C_36  and  C_43
   21  A    between atoms: C_38  and  C_44
                            x       y       z     vdW  Elec       q    Type
                         _______ _______ _______ _____ _____    ______ ____

>  <TORSDO>
F 21

$$$$
=
 OpenBabel11072412073D

 50 54  0  0  1  0  0  0  0  0999 V2000
  161.0530  212.2790  150.8640 C   0  0  1  0  0  3  0  0  0  0  0  0
  161.1060  213.8990  146.6670 C   0  0  0  0  0  2  0  0  0  0  0  0
  161.1480  212.1370  148.2580 C   0  0  1  0  0  0  0  0  0  0  0  0
  161.0860  210.9170  147.3530 C   0  0  0  0  0  2  0  0  0  0  0  0
  159.3730  214.0260  150.1020 C   0  0  0  0  0  2  0  0  0  0  0  0
  159.5730  212.5960  150.6100 C   0  0  2  0  0  3  0  0  0  0  0  0
  161.7760  212.8220  146.0730 O   0  0  0  0  0  0  0  0  0  0  0  0
  162.1500  211.9760  147.1330 C   0  0  1  0  0  3  0  0  0  0  0  0
  160.3540  213.3650  147.8590 C   0  0  1  0  0  3  0  0  0  0  0  0
  161.3530  210.8640  150.4110 C   0  0  1  0  0  3  0  0  0  0  0  0
  161.8930  212.0340  149.6020 C   0  0  2  0  0  3  0  0  0  0  0  0
  160.3100  214.4230  148.9580 C   0  0  0  0  0  2  0  0  0  0  0  0
  158.7920  212.4390  151.9040 C   0  0  0  0  0  2  0  0  0  0  0  0
  159.2790  213.4230  152.9570 C   0  0  0  0  0  2  0  0  0  0  0  0
  158.7950  212.8000  156.5310 O   0  0  0  0  0  0  0  0  0  0  0  0
  159.3800  212.7530  154.2480 N   0  0  0  0  0  0  0  0  0  0  0  0
  158.5750  213.2090  155.3590 C   0  0  0  0  0  0  0  0  0  0  0  0
  159.8110  209.1680  154.3660 C   0  0  0  0  0  3  0  0  0  0  0  0
  160.0900  210.4400  154.3530 C   0  0  0  0  0  0  0  0  0  0  0  0
  160.3730  211.7180  154.3380 C   0  0  0  0  0  3  0  0  0  0  0  0
  159.7250  208.4350  155.6590 C   0  0  0  0  0  2  0  0  0  0  0  0
  160.9760  207.6610  155.8800 C   0  0  0  0  0  0  0  0  0  0  0  0
  161.2040  206.6320  155.1880 O   0  0  0  0  0  0  0  0  0  0  0  0
  161.8670  208.0650  156.8790 O   0  0  0  0  0  0  0  0  0  0  0  0
  162.0290  209.4270  157.2510 C   0  0  0  0  0  2  0  0  0  0  0  0
  163.0730  210.0990  156.3770 C   0  0  0  0  0  2  0  0  0  0  0  0
  163.7690  211.1240  157.1340 N   0  0  0  0  0  1  0  0  0  0  0  0
  157.4560  214.1750  155.1450 C   0  0  0  0  0  2  0  0  0  0  0  0
  156.2330  214.0060  156.4780 S   0  0  0  0  0  0  0  0  0  0  0  0
  155.7590  212.3470  155.9150 C   0  0  0  0  0  2  0  0  0  0  0  0
  155.2510  211.5400  157.0930 C   0  0  0  0  0  1  0  0  0  0  0  0
  162.4340  210.2590  151.3050 C   0  0  0  0  0  2  0  0  0  0  0  0
  161.3280  205.6110  151.0780 N   0  0  0  0  0  0  0  0  0  0  0  0
  161.0410  204.8880  150.0470 C   0  0  0  0  0  0  0  0  0  0  0  0
  161.1230  206.9440  150.6440 C   0  0  0  0  0  0  0  0  0  0  0  0
  161.9860  209.0060  151.9890 C   0  0  0  0  0  3  0  0  0  0  0  0
  160.6440  205.6890  148.8840 C   0  0  0  0  0  3  0  0  0  0  0  0
  160.7080  206.9660  149.2480 C   0  0  0  0  0  3  0  0  0  0  0  0
  161.5360  207.9820  151.3140 C   0  0  0  0  0  0  0  0  0  0  0  0
  161.0840  203.4000  150.0760 C   0  0  0  0  0  2  0  0  0  0  0  0
  161.6620  202.8760  148.7730 C   0  0  0  0  0  2  0  0  0  0  0  0
  160.8310  201.7400  148.2740 C   0  0  0  0  0  0  0  0  0  0  0  0
  160.1890  201.0420  149.1030 O   0  0  0  0  0  0  0  0  0  0  0  0
  160.2330  200.3890  146.4310 O   0  0  0  0  0  0  0  0  0  0  0  0
  160.7680  201.4600  146.8190 C   0  0  0  0  0  0  0  0  0  0  0  0
  161.3030  203.6460  145.9380 C   0  0  0  0  0  3  0  0  0  0  0  0
  161.2880  202.3540  145.8240 N   0  0  0  0  0  0  0  0  0  0  0  0
  161.8710  204.4910  144.8500 C   0  0  0  0  0  2  0  0  0  0  0  0
  160.5130  206.7810  144.6450 C   0  0  0  0  0  3  0  0  0  0  0  0
  161.1280  205.7480  144.7360 C   0  0  0  0  0  0  0  0  0  0  0  0
  2  9  1  0  0  0  0
  3 11  1  0  0  0  0
  4  3  1  0  0  0  0
  5  6  1  0  0  0  0
  6  1  1  0  0  0  0
  6 13  1  0  0  0  0
  7  2  1  0  0  0  0
  7  8  1  0  0  0  0
  8  4  1  0  0  0  0
  8  3  1  0  0  0  0
  9  3  1  0  0  0  0
  9 12  1  0  0  0  0
 10  1  1  0  0  0  0
 10 32  1  0  0  0  0
 11 10  1  0  0  0  0
 11  1  1  0  0  0  0
 12  5  1  0  0  0  0
 13 14  1  0  0  0  0
 14 16  1  0  0  0  0
 16 20  1  0  0  0  0
 16 17  1  0  0  0  0
 17 15  2  0  0  0  0
 18 21  1  0  0  0  0
 19 18  2  0  0  0  0
 20 19  2  0  0  0  0
 21 22  1  0  0  0  0
 22 24  1  0  0  0  0
 23 22  2  0  0  0  0
 24 25  1  0  0  0  0
 26 27  1  0  0  0  0
 26 25  1  0  0  0  0
 28 17  1  0  0  0  0
 28 29  1  0  0  0  0
 30 29  1  0  0  0  0
 30 31  1  0  0  0  0
 32 36  1  0  0  0  0
 34 40  1  0  0  0  0
 34 33  2  0  0  0  0
 35 33  1  0  0  0  0
 35 39  2  0  0  0  0
 37 38  2  0  0  0  0
 37 34  1  0  0  0  0
 38 35  1  0  0  0  0
 39 36  2  0  0  0  0
 41 40  1  0  0  0  0
 42 41  1  0  0  0  0
 42 43  2  0  0  0  0
 44 45  2  0  0  0  0
 45 42  1  0  0  0  0
 47 46  2  0  0  0  0
 47 45  1  0  0  0  0
 48 46  1  0  0  0  0
 49 50  3  0  0  0  0
 50 48  1  0  0  0  0
M  END
>  <MODEL>
9

>  <REMARK>
 VINA RESULT:      -3.7      2.423      6.386
  Name = 
  21 active torsions:
  status: ('A' for Active; 'I' for Inactive)
    1  A    between atoms: C_2  and  C_22
    2  A    between atoms: C_2  and  C_40
    3  A    between atoms: C_5  and  C_9
    4  A    between atoms: C_5  and  C_19
    5  A    between atoms: N_7  and  C_14
    6  A    between atoms: N_7  and  C_35
    7  A    between atoms: C_9  and  C_26
    8  A    between atoms: C_10  and  C_44
    9  A    between atoms: O_11  and  C_33
   10  A    between atoms: O_11  and  C_38
   11  A    between atoms: C_12  and  S_29
   12  A    between atoms: C_13  and  C_26
   13  A    between atoms: C_14  and  C_42
   14  A    between atoms: C_18  and  C_27
   15  A    between atoms: C_19  and  N_39
   16  A    between atoms: C_24  and  C_42
   17  A    between atoms: C_25  and  C_33
   18  A    between atoms: C_27  and  S_29
   19  A    between atoms: C_31  and  C_36
   20  A    between atoms: C_36  and  C_43
   21  A    between atoms: C_38  and  C_44
                            x       y       z     vdW  Elec       q    Type
                         _______ _______ _______ _____ _____    ______ ____

>  <TORSDO>
F 21

$$$$
