=
 OpenBabel11072414233D

 26 29  0  0  1  0  0  0  0  0999 V2000
  160.0630  211.6890  155.8220 C   0  0  1  0  0  3  0  0  0  0  0  0
  160.2860  210.3790  156.3050 O   0  0  0  0  0  0  0  0  0  0  0  0
  160.8550  210.6790  155.0550 C   0  0  1  0  0  0  0  0  0  0  0  0
  160.9040  210.0380  152.6030 C   0  0  0  0  0  2  0  0  0  0  0  0
  161.9260  205.9210  150.5920 C   0  0  0  0  0  1  0  0  0  0  0  0
  161.1020  206.1220  154.2120 N   0  0  0  0  0  2  0  0  0  0  0  0
  161.7110  207.6720  152.4650 C   0  0  2  0  0  3  0  0  0  0  0  0
  161.5650  209.1030  150.4140 C   0  0  0  0  0  1  0  0  0  0  0  0
  160.1160  208.3390  154.3720 C   0  0  0  0  0  2  0  0  0  0  0  0
  160.9210  208.7770  151.7480 C   0  0  2  0  0  3  0  0  0  0  0  0
  161.1470  205.4850  152.9540 C   0  0  0  0  0  0  0  0  0  0  0  0
  161.4390  206.3620  151.8890 N   0  0  0  0  0  0  0  0  0  0  0  0
  160.9640  204.2480  152.8060 O   0  0  0  0  0  0  0  0  0  0  0  0
  161.3610  207.5380  153.9810 C   0  0  1  0  0  3  0  0  0  0  0  0
  160.2170  209.8150  153.9570 C   0  0  1  0  0  3  0  0  0  0  0  0
  159.2700  213.5450  153.6840 N   0  0  0  0  0  1  0  0  0  0  0  0
  157.6740  211.0550  155.8990 N   0  0  0  0  0  0  0  0  0  0  0  0
  158.2900  212.7330  154.3230 C   0  0  0  0  0  0  0  0  0  0  0  0
  156.9930  212.8060  153.9190 N   0  0  0  0  0  0  0  0  0  0  0  0
  156.0320  212.0290  154.4830 C   0  0  0  0  0  3  0  0  0  0  0  0
  156.3800  211.1320  155.4930 C   0  0  0  0  0  3  0  0  0  0  0  0
  158.6410  211.8440  155.3560 C   0  0  0  0  0  0  0  0  0  0  0  0
  162.3720  210.7720  155.1720 C   0  0  0  0  0  2  0  0  0  0  0  0
  162.8450  210.2710  156.4940 C   0  0  0  0  0  0  0  0  0  0  0  0
  162.5850  208.9620  156.8720 O   0  0  0  0  0  0  0  0  0  0  0  0
  163.4950  211.0290  157.2610 O   0  0  0  0  0  1  0  0  0  0  0  0
  1 22  1  6  0  0  0
  1  2  1  0  0  0  0
  3 23  1  6  0  0  0
  3  1  1  0  0  0  0
  3  2  1  0  0  0  0
  5 12  1  0  0  0  0
  7 12  1  6  0  0  0
  7 14  1  0  0  0  0
 10  8  1  6  0  0  0
 10  7  1  0  0  0  0
 10  4  1  0  0  0  0
 11  6  1  0  0  0  0
 12 11  1  0  0  0  0
 13 11  2  0  0  0  0
 14  6  1  0  0  0  0
 14  9  1  6  0  0  0
 15  4  1  6  0  0  0
 15  9  1  0  0  0  0
 15  3  1  0  0  0  0
 16 18  1  0  0  0  0
 18 22  1  0  0  0  0
 19 18  2  0  0  0  0
 19 20  1  0  0  0  0
 20 21  2  0  0  0  0
 21 17  1  0  0  0  0
 22 17  2  0  0  0  0
 23 24  1  0  0  0  0
 24 25  2  0  0  0  0
 24 26  1  0  0  0  0
M  END
>  <MODEL>
1

>  <REMARK>
 VINA RESULT:      -5.2      0.000      0.000
  Name = 
  4 active torsions:
  status: ('A' for Active; 'I' for Inactive)
    1  A    between atoms: C_1  and  C_24
    2  A    between atoms: C_6  and  C_9
    3  A    between atoms: C_9  and  C_26
    4  A    between atoms: C_23  and  C_26
                            x       y       z     vdW  Elec       q    Type
                         _______ _______ _______ _____ _____    ______ ____

>  <TORSDO>
F 4

$$$$
=
 OpenBabel11072414233D

 26 29  0  0  1  0  0  0  0  0999 V2000
  162.2170  207.7160  150.2690 C   0  0  1  0  0  3  0  0  0  0  0  0
  161.1540  208.5530  149.8590 O   0  0  0  0  0  0  0  0  0  0  0  0
  161.7570  208.8800  151.0860 C   0  0  1  0  0  0  0  0  0  0  0  0
  161.4400  208.2020  153.5080 C   0  0  0  0  0  2  0  0  0  0  0  0
  160.1660  210.7900  157.2120 C   0  0  0  0  0  1  0  0  0  0  0  0
  159.6060  212.0150  153.7470 N   0  0  0  0  0  2  0  0  0  0  0  0
  160.9080  210.2790  154.8020 C   0  0  2  0  0  3  0  0  0  0  0  0
  161.4970  208.1460  155.9770 C   0  0  0  0  0  1  0  0  0  0  0  0
  159.9090  209.9820  152.4480 C   0  0  0  0  0  2  0  0  0  0  0  0
  160.7930  208.7470  154.7760 C   0  0  2  0  0  3  0  0  0  0  0  0
  159.3010  211.9090  155.1200 C   0  0  0  0  0  0  0  0  0  0  0  0
  159.9920  210.8660  155.7700 N   0  0  0  0  0  0  0  0  0  0  0  0
  158.5040  212.6880  155.7070 O   0  0  0  0  0  0  0  0  0  0  0  0
  160.5560  210.9530  153.4380 C   0  0  1  0  0  3  0  0  0  0  0  0
  160.7530  208.7160  152.2360 C   0  0  1  0  0  3  0  0  0  0  0  0
  160.2700  206.1320  148.7350 N   0  0  0  0  0  1  0  0  0  0  0  0
  162.1700  205.8500  151.8910 N   0  0  0  0  0  0  0  0  0  0  0  0
  160.7670  205.6430  149.9770 C   0  0  0  0  0  0  0  0  0  0  0  0
  160.3520  204.4310  150.4320 N   0  0  0  0  0  0  0  0  0  0  0  0
  160.8210  203.9160  151.5980 C   0  0  0  0  0  3  0  0  0  0  0  0
  161.7520  204.6390  152.3430 C   0  0  0  0  0  3  0  0  0  0  0  0
  161.6900  206.3860  150.7360 C   0  0  0  0  0  0  0  0  0  0  0  0
  162.5660  210.1660  150.9530 C   0  0  0  0  0  2  0  0  0  0  0  0
  162.0620  211.0090  149.8330 C   0  0  0  0  0  0  0  0  0  0  0  0
  162.5160  210.7880  148.5400 O   0  0  0  0  0  0  0  0  0  0  0  0
  161.2130  211.9120  150.0530 O   0  0  0  0  0  1  0  0  0  0  0  0
  1 22  1  1  0  0  0
  1  3  1  0  0  0  0
  2  1  1  0  0  0  0
  2  3  1  0  0  0  0
  3 23  1  1  0  0  0
  3 15  1  0  0  0  0
  4 10  1  0  0  0  0
  6 11  1  0  0  0  0
  7 12  1  1  0  0  0
 10  7  1  0  0  0  0
 10  8  1  1  0  0  0
 11 13  2  0  0  0  0
 11 12  1  0  0  0  0
 12  5  1  0  0  0  0
 14  9  1  6  0  0  0
 14  6  1  0  0  0  0
 14  7  1  0  0  0  0
 15  9  1  1  0  0  0
 15  4  1  0  0  0  0
 16 18  1  0  0  0  0
 17 21  1  0  0  0  0
 18 19  2  0  0  0  0
 18 22  1  0  0  0  0
 19 20  1  0  0  0  0
 20 21  2  0  0  0  0
 22 17  2  0  0  0  0
 24 26  1  0  0  0  0
 24 23  1  0  0  0  0
 25 24  2  0  0  0  0
M  END
>  <MODEL>
2

>  <REMARK>
 VINA RESULT:      -4.6      2.764      6.863
  Name = 
  4 active torsions:
  status: ('A' for Active; 'I' for Inactive)
    1  A    between atoms: C_1  and  C_24
    2  A    between atoms: C_6  and  C_9
    3  A    between atoms: C_9  and  C_26
    4  A    between atoms: C_23  and  C_26
                            x       y       z     vdW  Elec       q    Type
                         _______ _______ _______ _____ _____    ______ ____

>  <TORSDO>
F 4

$$$$
=
 OpenBabel11072414233D

 26 29  0  0  1  0  0  0  0  0999 V2000
  162.3240  209.3480  153.6930 C   0  0  1  0  0  3  0  0  0  0  0  0
  162.2040  210.7170  153.3630 O   0  0  0  0  0  0  0  0  0  0  0  0
  161.2500  210.2160  154.2650 C   0  0  1  0  0  0  0  0  0  0  0  0
  158.7880  210.6380  154.7000 C   0  0  0  0  0  2  0  0  0  0  0  0
  155.9990  214.0640  153.1140 C   0  0  0  0  0  1  0  0  0  0  0  0
  159.2640  213.3550  151.4840 N   0  0  0  0  0  2  0  0  0  0  0  0
  158.1860  212.7870  153.5670 C   0  0  2  0  0  3  0  0  0  0  0  0
  156.6250  211.7180  155.2100 C   0  0  0  0  0  1  0  0  0  0  0  0
  159.8060  211.1670  152.3950 C   0  0  0  0  0  2  0  0  0  0  0  0
  157.6450  211.4580  154.1170 C   0  0  2  0  0  3  0  0  0  0  0  0
  157.9210  213.7870  151.5000 C   0  0  0  0  0  0  0  0  0  0  0  0
  157.2280  213.4250  152.6740 N   0  0  0  0  0  0  0  0  0  0  0  0
  157.4030  214.4510  150.5640 O   0  0  0  0  0  0  0  0  0  0  0  0
  159.4920  212.6280  152.7260 C   0  0  1  0  0  3  0  0  0  0  0  0
  159.8450  210.2790  153.6470 C   0  0  1  0  0  3  0  0  0  0  0  0
  161.0060  206.7440  154.0570 N   0  0  0  0  0  1  0  0  0  0  0  0
  162.0300  208.9450  151.2710 N   0  0  0  0  0  0  0  0  0  0  0  0
  161.2390  207.2490  152.7450 C   0  0  0  0  0  0  0  0  0  0  0  0
  160.8250  206.5290  151.6690 N   0  0  0  0  0  0  0  0  0  0  0  0
  161.0030  206.9860  150.4020 C   0  0  0  0  0  3  0  0  0  0  0  0
  161.6160  208.2220  150.1980 C   0  0  0  0  0  3  0  0  0  0  0  0
  161.8770  208.4860  152.5440 C   0  0  0  0  0  0  0  0  0  0  0  0
  161.4970  210.7750  155.6620 C   0  0  0  0  0  2  0  0  0  0  0  0
  161.8010  209.6870  156.6340 C   0  0  0  0  0  0  0  0  0  0  0  0
  160.8610  208.6970  156.8820 O   0  0  0  0  0  0  0  0  0  0  0  0
  162.9150  209.6560  157.2200 O   0  0  0  0  0  1  0  0  0  0  0  0
  1 22  1  6  0  0  0
  1  3  1  0  0  0  0
  2  1  1  0  0  0  0
  2  3  1  0  0  0  0
  3 23  1  1  0  0  0
  6 11  1  0  0  0  0
  6 14  1  0  0  0  0
  7 12  1  6  0  0  0
  7 10  1  0  0  0  0
 10  4  1  0  0  0  0
 10  8  1  1  0  0  0
 11 12  1  0  0  0  0
 12  5  1  0  0  0  0
 13 11  2  0  0  0  0
 14  9  1  6  0  0  0
 14  7  1  0  0  0  0
 15  9  1  6  0  0  0
 15  3  1  0  0  0  0
 15  4  1  0  0  0  0
 17 22  1  0  0  0  0
 18 16  1  0  0  0  0
 19 18  1  0  0  0  0
 20 19  2  0  0  0  0
 21 20  1  0  0  0  0
 21 17  2  0  0  0  0
 22 18  2  0  0  0  0
 23 24  1  0  0  0  0
 24 25  2  0  0  0  0
 24 26  1  0  0  0  0
M  END
>  <MODEL>
3

>  <REMARK>
 VINA RESULT:      -4.2      2.214      6.214
  Name = 
  4 active torsions:
  status: ('A' for Active; 'I' for Inactive)
    1  A    between atoms: C_1  and  C_24
    2  A    between atoms: C_6  and  C_9
    3  A    between atoms: C_9  and  C_26
    4  A    between atoms: C_23  and  C_26
                            x       y       z     vdW  Elec       q    Type
                         _______ _______ _______ _____ _____    ______ ____

>  <TORSDO>
F 4

$$$$
=
 OpenBabel11072414233D

 26 29  0  0  1  0  0  0  0  0999 V2000
  159.4010  211.0270  156.1050 C   0  0  1  0  0  3  0  0  0  0  0  0
  159.3330  209.6550  155.7770 O   0  0  0  0  0  0  0  0  0  0  0  0
  160.2050  210.4310  154.9950 C   0  0  1  0  0  0  0  0  0  0  0  0
  159.9720  211.8460  152.9040 C   0  0  0  0  0  2  0  0  0  0  0  0
  162.0230  211.3710  148.7090 C   0  0  0  0  0  1  0  0  0  0  0  0
  161.9720  208.5550  151.1350 N   0  0  0  0  0  2  0  0  0  0  0  0
  161.5650  210.9330  151.2020 C   0  0  2  0  0  3  0  0  0  0  0  0
  160.4560  213.1550  150.8650 C   0  0  0  0  0  1  0  0  0  0  0  0
  160.2790  209.2960  152.7160 C   0  0  0  0  0  2  0  0  0  0  0  0
  160.2820  211.7520  151.4150 C   0  0  2  0  0  3  0  0  0  0  0  0
  161.9870  209.1140  149.8400 C   0  0  0  0  0  0  0  0  0  0  0  0
  161.6930  210.4930  149.8200 N   0  0  0  0  0  0  0  0  0  0  0  0
  162.2590  208.4450  148.8090 O   0  0  0  0  0  0  0  0  0  0  0  0
  161.6210  209.6280  152.0580 C   0  0  1  0  0  3  0  0  0  0  0  0
  159.7250  210.4700  153.5370 C   0  0  1  0  0  3  0  0  0  0  0  0
  159.2540  213.9460  155.7720 N   0  0  0  0  0  1  0  0  0  0  0  0
  157.0550  211.0110  155.3250 N   0  0  0  0  0  0  0  0  0  0  0  0
  158.1150  213.1380  155.4920 C   0  0  0  0  0  0  0  0  0  0  0  0
  156.9720  213.7250  155.0480 N   0  0  0  0  0  0  0  0  0  0  0  0
  155.8720  212.9890  154.7440 C   0  0  0  0  0  3  0  0  0  0  0  0
  155.9150  211.6020  154.8820 C   0  0  0  0  0  3  0  0  0  0  0  0
  158.1560  211.7410  155.6530 C   0  0  0  0  0  0  0  0  0  0  0  0
  161.6550  210.0840  155.3140 C   0  0  0  0  0  2  0  0  0  0  0  0
  161.7550  208.7800  156.0280 C   0  0  0  0  0  0  0  0  0  0  0  0
  161.5810  207.5930  155.3310 O   0  0  0  0  0  0  0  0  0  0  0  0
  162.0120  208.7520  157.2610 O   0  0  0  0  0  1  0  0  0  0  0  0
  1 22  1  6  0  0  0
  2  1  1  0  0  0  0
  3 23  1  1  0  0  0
  3  2  1  0  0  0  0
  3  1  1  0  0  0  0
  4 15  1  0  0  0  0
  5 12  1  0  0  0  0
  6 14  1  0  0  0  0
  7 12  1  6  0  0  0
  7 10  1  0  0  0  0
  7 14  1  0  0  0  0
 10  8  1  1  0  0  0
 10  4  1  0  0  0  0
 11  6  1  0  0  0  0
 12 11  1  0  0  0  0
 13 11  2  0  0  0  0
 14  9  1  6  0  0  0
 15  9  1  6  0  0  0
 15  3  1  0  0  0  0
 17 22  1  0  0  0  0
 18 22  2  0  0  0  0
 18 16  1  0  0  0  0
 19 18  1  0  0  0  0
 20 21  1  0  0  0  0
 20 19  2  0  0  0  0
 21 17  2  0  0  0  0
 23 24  1  0  0  0  0
 24 26  1  0  0  0  0
 25 24  2  0  0  0  0
M  END
>  <MODEL>
4

>  <REMARK>
 VINA RESULT:      -4.1      2.177      2.893
  Name = 
  4 active torsions:
  status: ('A' for Active; 'I' for Inactive)
    1  A    between atoms: C_1  and  C_24
    2  A    between atoms: C_6  and  C_9
    3  A    between atoms: C_9  and  C_26
    4  A    between atoms: C_23  and  C_26
                            x       y       z     vdW  Elec       q    Type
                         _______ _______ _______ _____ _____    ______ ____

>  <TORSDO>
F 4

$$$$
=
 OpenBabel11072414233D

 26 29  0  0  1  0  0  0  0  0999 V2000
  161.8130  210.7000  152.9090 C   0  0  1  0  0  3  0  0  0  0  0  0
  162.5800  209.5130  152.9400 O   0  0  0  0  0  0  0  0  0  0  0  0
  161.8830  209.7650  151.7450 C   0  0  1  0  0  0  0  0  0  0  0  0
  160.8230  208.2020  150.0530 C   0  0  0  0  0  2  0  0  0  0  0  0
  160.8250  203.5110  149.8800 C   0  0  0  0  0  1  0  0  0  0  0  0
  161.7170  205.3030  153.0120 N   0  0  0  0  0  2  0  0  0  0  0  0
  161.4780  205.8680  150.6790 C   0  0  2  0  0  3  0  0  0  0  0  0
  160.4260  206.3590  148.4570 C   0  0  0  0  0  1  0  0  0  0  0  0
  160.9120  207.5490  152.5430 C   0  0  0  0  0  2  0  0  0  0  0  0
  160.4510  206.7300  149.9280 C   0  0  2  0  0  3  0  0  0  0  0  0
  161.1900  204.2220  152.2750 C   0  0  0  0  0  0  0  0  0  0  0  0
  160.9740  204.5220  150.9140 N   0  0  0  0  0  0  0  0  0  0  0  0
  160.9590  203.0940  152.7840 O   0  0  0  0  0  0  0  0  0  0  0  0
  161.8460  206.4250  152.0900 C   0  0  1  0  0  3  0  0  0  0  0  0
  160.8180  208.6830  151.5110 C   0  0  1  0  0  3  0  0  0  0  0  0
  159.2480  211.9730  152.2360 N   0  0  0  0  0  1  0  0  0  0  0  0
  160.6110  209.7420  154.8470 N   0  0  0  0  0  0  0  0  0  0  0  0
  159.3570  211.1600  153.4010 C   0  0  0  0  0  0  0  0  0  0  0  0
  158.2620  210.9600  154.1810 N   0  0  0  0  0  0  0  0  0  0  0  0
  158.3150  210.1700  155.2850 C   0  0  0  0  0  3  0  0  0  0  0  0
  159.5150  209.5450  155.6240 C   0  0  0  0  0  3  0  0  0  0  0  0
  160.5750  210.5480  153.7520 C   0  0  0  0  0  0  0  0  0  0  0  0
  162.8550  210.1360  150.6320 C   0  0  0  0  0  2  0  0  0  0  0  0
  162.1840  210.9400  149.5720 C   0  0  0  0  0  0  0  0  0  0  0  0
  161.3810  212.0160  149.9220 O   0  0  0  0  0  1  0  0  0  0  0  0
  162.3570  210.6550  148.3580 O   0  0  0  0  0  0  0  0  0  0  0  0
  1  2  1  0  0  0  0
  1 22  1  1  0  0  0
  3 23  1  6  0  0  0
  3  1  1  0  0  0  0
  3  2  1  0  0  0  0
  5 12  1  0  0  0  0
  7 12  1  1  0  0  0
  7 14  1  0  0  0  0
 10  8  1  6  0  0  0
 10  4  1  0  0  0  0
 10  7  1  0  0  0  0
 11 13  2  0  0  0  0
 11  6  1  0  0  0  0
 12 11  1  0  0  0  0
 14  9  1  1  0  0  0
 14  6  1  0  0  0  0
 15  4  1  6  0  0  0
 15  3  1  0  0  0  0
 15  9  1  0  0  0  0
 16 18  1  0  0  0  0
 17 21  1  0  0  0  0
 18 22  1  0  0  0  0
 18 19  2  0  0  0  0
 19 20  1  0  0  0  0
 20 21  2  0  0  0  0
 22 17  2  0  0  0  0
 24 25  1  0  0  0  0
 24 23  1  0  0  0  0
 26 24  2  0  0  0  0
M  END
>  <MODEL>
5

>  <REMARK>
 VINA RESULT:      -3.4      2.739      3.822
  Name = 
  4 active torsions:
  status: ('A' for Active; 'I' for Inactive)
    1  A    between atoms: C_1  and  C_24
    2  A    between atoms: C_6  and  C_9
    3  A    between atoms: C_9  and  C_26
    4  A    between atoms: C_23  and  C_26
                            x       y       z     vdW  Elec       q    Type
                         _______ _______ _______ _____ _____    ______ ____

>  <TORSDO>
F 4

$$$$
=
 OpenBabel11072414233D

 26 29  0  0  1  0  0  0  0  0999 V2000
  162.0680  205.8600  152.6570 C   0  0  1  0  0  3  0  0  0  0  0  0
  160.8780  205.1010  152.7260 O   0  0  0  0  0  0  0  0  0  0  0  0
  161.6640  204.9080  151.5770 C   0  0  1  0  0  0  0  0  0  0  0  0
  161.6570  206.5090  149.6120 C   0  0  0  0  0  2  0  0  0  0  0  0
  161.9530  205.6220  145.0120 C   0  0  0  0  0  1  0  0  0  0  0  0
  161.0880  202.9270  147.4210 N   0  0  0  0  0  2  0  0  0  0  0  0
  162.0170  205.1500  147.5400 C   0  0  2  0  0  3  0  0  0  0  0  0
  162.1890  207.6500  147.4860 C   0  0  0  0  0  1  0  0  0  0  0  0
  160.5240  204.2050  149.4110 C   0  0  0  0  0  2  0  0  0  0  0  0
  161.4620  206.4690  148.1010 C   0  0  2  0  0  3  0  0  0  0  0  0
  161.0470  203.5670  146.1650 C   0  0  0  0  0  0  0  0  0  0  0  0
  161.5230  204.8940  146.1940 N   0  0  0  0  0  0  0  0  0  0  0  0
  160.6430  202.9960  145.1180 O   0  0  0  0  0  0  0  0  0  0  0  0
  161.6090  203.8970  148.3760 C   0  0  1  0  0  3  0  0  0  0  0  0
  160.9060  205.3770  150.3270 C   0  0  1  0  0  3  0  0  0  0  0  0
  160.1810  207.4580  154.2490 N   0  0  0  0  0  1  0  0  0  0  0  0
  162.4160  207.9270  151.3440 N   0  0  0  0  0  0  0  0  0  0  0  0
  160.8580  208.0470  153.1430 C   0  0  0  0  0  0  0  0  0  0  0  0
  160.6430  209.3570  152.8470 N   0  0  0  0  0  0  0  0  0  0  0  0
  161.2880  209.9650  151.8190 C   0  0  0  0  0  3  0  0  0  0  0  0
  162.1970  209.2350  151.0520 C   0  0  0  0  0  3  0  0  0  0  0  0
  161.7580  207.3020  152.3590 C   0  0  0  0  0  0  0  0  0  0  0  0
  162.3160  203.5300  151.6060 C   0  0  0  0  0  2  0  0  0  0  0  0
  161.2920  202.4480  151.6600 C   0  0  0  0  0  0  0  0  0  0  0  0
  161.3870  201.3610  150.8030 O   0  0  0  0  0  0  0  0  0  0  0  0
  160.3510  202.5110  152.4940 O   0  0  0  0  0  1  0  0  0  0  0  0
  1 22  1  6  0  0  0
  1  2  1  0  0  0  0
  3 23  1  6  0  0  0
  3  1  1  0  0  0  0
  3  2  1  0  0  0  0
  4 15  1  0  0  0  0
  5 12  1  0  0  0  0
  6 14  1  0  0  0  0
  7 12  1  6  0  0  0
  7 10  1  0  0  0  0
  7 14  1  0  0  0  0
 10  8  1  6  0  0  0
 10  4  1  0  0  0  0
 11 12  1  0  0  0  0
 11  6  1  0  0  0  0
 13 11  2  0  0  0  0
 14  9  1  1  0  0  0
 15  9  1  6  0  0  0
 15  3  1  0  0  0  0
 17 22  1  0  0  0  0
 18 16  1  0  0  0  0
 19 18  1  0  0  0  0
 20 19  2  0  0  0  0
 21 17  2  0  0  0  0
 21 20  1  0  0  0  0
 22 18  2  0  0  0  0
 23 24  1  0  0  0  0
 24 26  1  0  0  0  0
 25 24  2  0  0  0  0
M  END
>  <MODEL>
6

>  <REMARK>
 VINA RESULT:      -3.3      3.975      6.813
  Name = 
  4 active torsions:
  status: ('A' for Active; 'I' for Inactive)
    1  A    between atoms: C_1  and  C_24
    2  A    between atoms: C_6  and  C_9
    3  A    between atoms: C_9  and  C_26
    4  A    between atoms: C_23  and  C_26
                            x       y       z     vdW  Elec       q    Type
                         _______ _______ _______ _____ _____    ______ ____

>  <TORSDO>
F 4

$$$$
=
 OpenBabel11072414233D

 26 29  0  0  1  0  0  0  0  0999 V2000
  161.0270  207.0740  153.1260 C   0  0  1  0  0  3  0  0  0  0  0  0
  161.9640  207.5390  154.0760 O   0  0  0  0  0  0  0  0  0  0  0  0
  160.7170  208.1870  154.0730 C   0  0  1  0  0  0  0  0  0  0  0  0
  159.6400  210.1810  152.9370 C   0  0  0  0  0  2  0  0  0  0  0  0
  158.2790  214.2960  154.7410 C   0  0  0  0  0  1  0  0  0  0  0  0
  160.6160  212.0800  156.5980 N   0  0  0  0  0  2  0  0  0  0  0  0
  159.1210  211.8650  154.7160 C   0  0  2  0  0  3  0  0  0  0  0  0
  158.1720  212.0970  152.4080 C   0  0  0  0  0  1  0  0  0  0  0  0
  161.3200  210.5340  154.8570 C   0  0  0  0  0  2  0  0  0  0  0  0
  159.3790  211.6560  153.2150 C   0  0  2  0  0  3  0  0  0  0  0  0
  160.0800  213.3300  156.2240 C   0  0  0  0  0  0  0  0  0  0  0  0
  159.2460  213.2670  155.0880 N   0  0  0  0  0  0  0  0  0  0  0  0
  160.3100  214.3920  156.8600 O   0  0  0  0  0  0  0  0  0  0  0  0
  160.1280  211.1020  155.6330 C   0  0  1  0  0  3  0  0  0  0  0  0
  160.8830  209.6600  153.6720 C   0  0  1  0  0  3  0  0  0  0  0  0
  160.4620  205.4970  150.7080 N   0  0  0  0  0  1  0  0  0  0  0  0
  161.9930  208.7450  151.5800 N   0  0  0  0  0  0  0  0  0  0  0  0
  161.1180  206.7570  150.6010 C   0  0  0  0  0  0  0  0  0  0  0  0
  161.4570  207.2330  149.3730 N   0  0  0  0  0  0  0  0  0  0  0  0
  162.0590  208.4410  149.2240 C   0  0  0  0  0  3  0  0  0  0  0  0
  162.3310  209.2160  150.3510 C   0  0  0  0  0  3  0  0  0  0  0  0
  161.4100  207.5260  151.7420 C   0  0  0  0  0  0  0  0  0  0  0  0
  159.9250  207.8180  155.3220 C   0  0  0  0  0  2  0  0  0  0  0  0
  160.8290  207.4850  156.4590 C   0  0  0  0  0  0  0  0  0  0  0  0
  161.9680  208.2450  156.6840 O   0  0  0  0  0  0  0  0  0  0  0  0
  160.5530  206.5240  157.2250 O   0  0  0  0  0  1  0  0  0  0  0  0
  1 22  1  6  0  0  0
  1  3  1  0  0  0  0
  1  2  1  0  0  0  0
  3  2  1  0  0  0  0
  3 23  1  1  0  0  0
  4 10  1  0  0  0  0
  5 12  1  0  0  0  0
  7 12  1  6  0  0  0
  7 14  1  0  0  0  0
 10  8  1  6  0  0  0
 10  7  1  0  0  0  0
 11  6  1  0  0  0  0
 11 13  2  0  0  0  0
 12 11  1  0  0  0  0
 14  9  1  6  0  0  0
 14  6  1  0  0  0  0
 15  4  1  1  0  0  0
 15  3  1  0  0  0  0
 15  9  1  0  0  0  0
 17 22  1  0  0  0  0
 18 16  1  0  0  0  0
 18 22  2  0  0  0  0
 19 18  1  0  0  0  0
 20 19  2  0  0  0  0
 20 21  1  0  0  0  0
 21 17  2  0  0  0  0
 23 24  1  0  0  0  0
 24 25  2  0  0  0  0
 24 26  1  0  0  0  0
M  END
>  <MODEL>
7

>  <REMARK>
 VINA RESULT:      -3.2      1.982      6.288
  Name = 
  4 active torsions:
  status: ('A' for Active; 'I' for Inactive)
    1  A    between atoms: C_1  and  C_24
    2  A    between atoms: C_6  and  C_9
    3  A    between atoms: C_9  and  C_26
    4  A    between atoms: C_23  and  C_26
                            x       y       z     vdW  Elec       q    Type
                         _______ _______ _______ _____ _____    ______ ____

>  <TORSDO>
F 4

$$$$
=
 OpenBabel11072414233D

 26 29  0  0  1  0  0  0  0  0999 V2000
  161.7750  203.6610  148.0810 C   0  0  1  0  0  3  0  0  0  0  0  0
  160.6750  204.0970  147.3080 O   0  0  0  0  0  0  0  0  0  0  0  0
  161.5530  205.1010  147.7500 C   0  0  1  0  0  0  0  0  0  0  0  0
  161.3310  205.8640  150.1570 C   0  0  0  0  0  2  0  0  0  0  0  0
  162.3280  210.0210  152.0970 C   0  0  0  0  0  1  0  0  0  0  0  0
  161.9550  209.6770  148.4140 N   0  0  0  0  0  2  0  0  0  0  0  0
  162.2500  208.1900  150.2920 C   0  0  2  0  0  3  0  0  0  0  0  0
  161.7640  206.8750  152.3700 C   0  0  0  0  0  1  0  0  0  0  0  0
  160.8710  207.5080  148.2280 C   0  0  0  0  0  2  0  0  0  0  0  0
  161.3130  207.1650  150.9510 C   0  0  2  0  0  3  0  0  0  0  0  0
  161.8780  210.3750  149.6380 C   0  0  0  0  0  0  0  0  0  0  0  0
  161.9840  209.5400  150.7690 N   0  0  0  0  0  0  0  0  0  0  0  0
  161.7500  211.6260  149.7060 O   0  0  0  0  0  0  0  0  0  0  0  0
  162.1000  208.2630  148.7400 C   0  0  1  0  0  3  0  0  0  0  0  0
  160.8340  206.0530  148.7170 C   0  0  1  0  0  3  0  0  0  0  0  0
  159.6770  201.6600  148.5770 N   0  0  0  0  0  1  0  0  0  0  0  0
  161.9500  203.8100  150.5430 N   0  0  0  0  0  0  0  0  0  0  0  0
  160.3270  202.2980  149.6720 C   0  0  0  0  0  0  0  0  0  0  0  0
  159.9870  201.9570  150.9440 N   0  0  0  0  0  0  0  0  0  0  0  0
  160.6010  202.5210  152.0160 C   0  0  0  0  0  3  0  0  0  0  0  0
  161.6070  203.4660  151.8110 C   0  0  0  0  0  3  0  0  0  0  0  0
  161.3260  203.2670  149.4620 C   0  0  0  0  0  0  0  0  0  0  0  0
  162.3510  205.6610  146.5770 C   0  0  0  0  0  2  0  0  0  0  0  0
  161.5870  205.5540  145.3020 C   0  0  0  0  0  0  0  0  0  0  0  0
  160.4940  206.3780  145.0770 O   0  0  0  0  0  1  0  0  0  0  0  0
  161.9420  204.7270  144.4210 O   0  0  0  0  0  0  0  0  0  0  0  0
  1 22  1  1  0  0  0
  2  3  1  0  0  0  0
  2  1  1  0  0  0  0
  3 23  1  6  0  0  0
  3  1  1  0  0  0  0
  3 15  1  0  0  0  0
  4 10  1  0  0  0  0
  6 14  1  0  0  0  0
  6 11  1  0  0  0  0
  7 12  1  1  0  0  0
  7 10  1  0  0  0  0
 10  8  1  1  0  0  0
 11 13  2  0  0  0  0
 11 12  1  0  0  0  0
 12  5  1  0  0  0  0
 14  9  1  1  0  0  0
 14  7  1  0  0  0  0
 15  9  1  6  0  0  0
 15  4  1  0  0  0  0
 16 18  1  0  0  0  0
 17 21  1  0  0  0  0
 18 19  2  0  0  0  0
 19 20  1  0  0  0  0
 21 20  2  0  0  0  0
 22 18  1  0  0  0  0
 22 17  2  0  0  0  0
 24 23  1  0  0  0  0
 25 24  1  0  0  0  0
 26 24  2  0  0  0  0
M  END
>  <MODEL>
8

>  <REMARK>
 VINA RESULT:      -2.7      4.793      9.067
  Name = 
  4 active torsions:
  status: ('A' for Active; 'I' for Inactive)
    1  A    between atoms: C_1  and  C_24
    2  A    between atoms: C_6  and  C_9
    3  A    between atoms: C_9  and  C_26
    4  A    between atoms: C_23  and  C_26
                            x       y       z     vdW  Elec       q    Type
                         _______ _______ _______ _____ _____    ______ ____

>  <TORSDO>
F 4

$$$$
=
 OpenBabel11072414233D

 26 29  0  0  1  0  0  0  0  0999 V2000
  160.8610  207.7310  147.9420 C   0  0  1  0  0  3  0  0  0  0  0  0
  161.9720  207.3830  147.1420 O   0  0  0  0  0  0  0  0  0  0  0  0
  161.0770  206.3410  147.4370 C   0  0  1  0  0  0  0  0  0  0  0  0
  161.0020  205.0120  149.5940 C   0  0  0  0  0  2  0  0  0  0  0  0
  160.4140  200.4040  150.2680 C   0  0  0  0  0  1  0  0  0  0  0  0
  161.3630  201.7370  146.9300 N   0  0  0  0  0  2  0  0  0  0  0  0
  160.4900  202.6370  148.9920 C   0  0  2  0  0  3  0  0  0  0  0  0
  160.3700  203.4160  151.3710 C   0  0  0  0  0  1  0  0  0  0  0  0
  162.0710  203.9960  147.4830 C   0  0  0  0  0  2  0  0  0  0  0  0
  161.1060  203.5630  150.0530 C   0  0  2  0  0  3  0  0  0  0  0  0
  161.3430  200.7600  147.9470 C   0  0  0  0  0  0  0  0  0  0  0  0
  160.8980  201.2530  149.1910 N   0  0  0  0  0  0  0  0  0  0  0  0
  161.6720  199.5600  147.7510 O   0  0  0  0  0  0  0  0  0  0  0  0
  160.9200  202.9880  147.5330 C   0  0  1  0  0  3  0  0  0  0  0  0
  161.7690  205.2680  148.2900 C   0  0  1  0  0  3  0  0  0  0  0  0
  162.5490  209.9820  148.7980 N   0  0  0  0  0  1  0  0  0  0  0  0
  160.8270  207.0950  150.3320 N   0  0  0  0  0  0  0  0  0  0  0  0
  162.0850  209.0350  149.7550 C   0  0  0  0  0  0  0  0  0  0  0  0
  162.4080  209.1950  151.0660 N   0  0  0  0  0  0  0  0  0  0  0  0
  161.9630  208.3300  152.0150 C   0  0  0  0  0  3  0  0  0  0  0  0
  161.1530  207.2590  151.6400 C   0  0  0  0  0  3  0  0  0  0  0  0
  161.2850  207.9430  149.3710 C   0  0  0  0  0  0  0  0  0  0  0  0
  160.2990  205.9420  146.1880 C   0  0  0  0  0  2  0  0  0  0  0  0
  161.2130  205.5070  145.0950 C   0  0  0  0  0  0  0  0  0  0  0  0
  162.5020  206.0170  145.0250 O   0  0  0  0  0  1  0  0  0  0  0  0
  160.8250  204.6650  144.2430 O   0  0  0  0  0  0  0  0  0  0  0  0
  1 22  1  1  0  0  0
  2  3  1  0  0  0  0
  2  1  1  0  0  0  0
  3 23  1  6  0  0  0
  3  1  1  0  0  0  0
  3 15  1  0  0  0  0
  4 10  1  0  0  0  0
  6 14  1  0  0  0  0
  6 11  1  0  0  0  0
  7 12  1  1  0  0  0
  7 10  1  0  0  0  0
 10  8  1  1  0  0  0
 11 12  1  0  0  0  0
 12  5  1  0  0  0  0
 13 11  2  0  0  0  0
 14  9  1  1  0  0  0
 14  7  1  0  0  0  0
 15  9  1  6  0  0  0
 15  4  1  0  0  0  0
 16 18  1  0  0  0  0
 17 21  1  0  0  0  0
 18 19  2  0  0  0  0
 19 20  1  0  0  0  0
 21 20  2  0  0  0  0
 22 18  1  0  0  0  0
 22 17  2  0  0  0  0
 24 23  1  0  0  0  0
 25 24  1  0  0  0  0
 26 24  2  0  0  0  0
M  END
>  <MODEL>
9

>  <REMARK>
 VINA RESULT:      -2.4      5.587      8.343
  Name = 
  4 active torsions:
  status: ('A' for Active; 'I' for Inactive)
    1  A    between atoms: C_1  and  C_24
    2  A    between atoms: C_6  and  C_9
    3  A    between atoms: C_9  and  C_26
    4  A    between atoms: C_23  and  C_26
                            x       y       z     vdW  Elec       q    Type
                         _______ _______ _______ _____ _____    ______ ____

>  <TORSDO>
F 4

$$$$
