=
 OpenBabel11072413073D

 35 38  0  0  1  0  0  0  0  0999 V2000
  160.7370  203.2480  149.3440 C   0  0  0  0  0  1  0  0  0  0  0  0
  160.9550  203.2260  151.8030 C   0  0  0  0  0  3  0  0  0  0  0  0
  161.0780  205.3800  150.7000 C   0  0  0  0  0  0  0  0  0  0  0  0
  161.1820  205.1860  153.1240 C   0  0  0  0  0  0  0  0  0  0  0  0
  161.0800  203.8370  153.0070 N   0  0  0  0  0  0  0  0  0  0  0  0
  161.2720  205.7550  154.4300 N   0  0  0  0  0  1  0  0  0  0  0  0
  161.1710  206.0020  151.9690 C   0  0  0  0  0  0  0  0  0  0  0  0
  160.9440  203.9750  150.6290 C   0  0  0  0  0  0  0  0  0  0  0  0
  162.0440  208.1160  151.2930 O   0  0  0  0  0  0  0  0  0  0  0  0
  160.5460  208.1900  153.0750 N   0  0  0  0  0  2  0  0  0  0  0  0
  161.2920  207.4800  152.0790 C   0  0  0  0  0  0  0  0  0  0  0  0
  158.5280  211.9230  153.6740 C   0  0  0  0  0  2  0  0  0  0  0  0
  160.3000  210.4160  151.8810 C   0  0  0  0  0  2  0  0  0  0  0  0
  161.5980  210.1770  154.1270 C   0  0  0  0  0  2  0  0  0  0  0  0
  159.5270  211.5960  154.7880 C   0  0  2  0  0  0  0  0  0  0  0  0
  159.1630  212.6020  152.4570 C   0  0  1  0  0  3  0  0  0  0  0  0
  160.5260  209.6450  153.1940 C   0  0  2  0  0  0  0  0  0  0  0  0
  160.1360  210.1720  154.5870 C   0  0  1  0  0  0  0  0  0  0  0  0
  160.4510  211.9290  151.9860 C   0  0  0  0  0  2  0  0  0  0  0  0
  159.9150  209.1130  155.6660 C   0  0  0  0  0  1  0  0  0  0  0  0
  158.7520  211.6820  156.0950 C   0  0  0  0  0  1  0  0  0  0  0  0
  158.2420  212.6540  151.4110 O   0  0  0  0  0  1  0  0  0  0  0  0
  160.5220  212.5640  154.8490 F   0  0  0  0  0  0  0  0  0  0  0  0
  161.1220  206.1850  149.5470 O   0  0  0  0  0  0  0  0  0  0  0  0
  162.7600  205.4520  147.9760 C   0  0  0  0  0  3  0  0  0  0  0  0
  162.4260  204.6740  145.6410 C   0  0  0  0  0  3  0  0  0  0  0  0
  161.2900  205.2810  145.2490 C   0  0  0  0  0  0  0  0  0  0  0  0
  160.7190  206.4590  145.9410 C   0  0  0  0  0  3  0  0  0  0  0  0
  163.2490  204.9820  146.8280 C   0  0  0  0  0  0  0  0  0  0  0  0
  161.3060  205.6920  148.2250 C   0  0  2  0  0  3  0  0  0  0  0  0
  160.7490  206.6760  147.2560 C   0  0  0  0  0  3  0  0  0  0  0  0
  164.5750  204.7130  146.7640 F   0  0  0  0  0  0  0  0  0  0  0  0
  161.0860  205.4040  142.7770 O   0  0  0  0  0  0  0  0  0  0  0  0
  160.6600  204.8590  143.9840 C   0  0  0  0  0  0  0  0  0  0  0  0
  159.7360  204.0020  143.9770 O   0  0  0  0  0  1  0  0  0  0  0  0
  1  8  1  0  0  0  0
  2  5  1  0  0  0  0
  3  7  2  0  0  0  0
  4  6  1  0  0  0  0
  5  4  2  0  0  0  0
  7 11  1  0  0  0  0
  7  4  1  0  0  0  0
  8  3  1  0  0  0  0
  8  2  2  0  0  0  0
  9 11  2  0  0  0  0
 11 10  1  0  0  0  0
 12 15  1  0  0  0  0
 13 19  1  0  0  0  0
 13 17  1  0  0  0  0
 14 18  1  0  0  0  0
 15 23  1  0  0  0  0
 15 21  1  1  0  0  0
 16 22  1  6  0  0  0
 16 12  1  0  0  0  0
 17 10  1  6  0  0  0
 17 14  1  0  0  0  0
 17 18  1  0  0  0  0
 18 15  1  0  0  0  0
 18 20  1  1  0  0  0
 19 16  1  0  0  0  0
 24  3  1  0  0  0  0
 25 30  1  0  0  0  0
 26 29  1  0  0  0  0
 27 26  2  0  0  0  0
 27 28  1  0  0  0  0
 28 31  2  0  0  0  0
 29 25  2  0  0  0  0
 30 24  1  1  0  0  0
 31 30  1  0  0  0  0
 32 29  1  0  0  0  0
 33 34  2  0  0  0  0
 34 27  1  0  0  0  0
 35 34  1  0  0  0  0
M  END
>  <MODEL>
1

>  <REMARK>
 VINA RESULT:      -7.0      0.000      0.000
  Name = 
  5 active torsions:
  status: ('A' for Active; 'I' for Inactive)
    1  A    between atoms: C_8  and  O_16
    2  A    between atoms: C_10  and  C_14
    3  A    between atoms: O_16  and  C_25
    4  A    between atoms: C_22  and  N_28
    5  A    between atoms: C_29  and  C_34
                            x       y       z     vdW  Elec       q    Type
                         _______ _______ _______ _____ _____    ______ ____

>  <TORSDO>
F 5

$$$$
=
 OpenBabel11072413073D

 35 38  0  0  1  0  0  0  0  0999 V2000
  160.8370  204.7030  151.6420 C   0  0  0  0  0  1  0  0  0  0  0  0
  161.2830  205.2350  154.0110 C   0  0  0  0  0  3  0  0  0  0  0  0
  160.8540  207.0960  152.5200 C   0  0  0  0  0  0  0  0  0  0  0  0
  161.2220  207.4350  154.9030 C   0  0  0  0  0  0  0  0  0  0  0  0
  161.3910  206.0960  155.0530 N   0  0  0  0  0  0  0  0  0  0  0  0
  161.3130  208.2700  156.0560 N   0  0  0  0  0  1  0  0  0  0  0  0
  160.9340  207.9760  153.6280 C   0  0  0  0  0  0  0  0  0  0  0  0
  161.0080  205.7070  152.7300 C   0  0  0  0  0  0  0  0  0  0  0  0
  161.7210  210.1560  153.0670 O   0  0  0  0  0  0  0  0  0  0  0  0
  159.4790  210.0450  153.6870 N   0  0  0  0  0  2  0  0  0  0  0  0
  160.7550  209.4410  153.4440 C   0  0  0  0  0  0  0  0  0  0  0  0
  156.9430  213.2060  152.2940 C   0  0  0  0  0  2  0  0  0  0  0  0
  159.6040  211.9870  152.0590 C   0  0  0  0  0  2  0  0  0  0  0  0
  159.4800  212.3390  154.6370 C   0  0  0  0  0  2  0  0  0  0  0  0
  157.2040  213.2680  153.8020 C   0  0  2  0  0  0  0  0  0  0  0  0
  158.0330  213.8760  151.4520 C   0  0  1  0  0  3  0  0  0  0  0  0
  159.1850  211.4530  153.4400 C   0  0  2  0  0  0  0  0  0  0  0  0
  158.0230  212.0250  154.2740 C   0  0  1  0  0  0  0  0  0  0  0  0
  159.4510  213.4920  151.8740 C   0  0  0  0  0  2  0  0  0  0  0  0
  157.4060  211.0760  155.3000 C   0  0  0  0  0  1  0  0  0  0  0  0
  155.8380  213.3100  154.4710 C   0  0  0  0  0  1  0  0  0  0  0  0
  157.8400  213.5770  150.1040 O   0  0  0  0  0  1  0  0  0  0  0  0
  157.8490  214.4520  154.1370 F   0  0  0  0  0  0  0  0  0  0  0  0
  160.6220  207.6370  151.2420 O   0  0  0  0  0  0  0  0  0  0  0  0
  161.9260  208.3530  149.3790 C   0  0  0  0  0  3  0  0  0  0  0  0
  162.7810  207.0020  147.4770 C   0  0  0  0  0  3  0  0  0  0  0  0
  161.9120  205.9780  147.3830 C   0  0  0  0  0  0  0  0  0  0  0  0
  160.5640  205.9980  147.9950 C   0  0  0  0  0  3  0  0  0  0  0  0
  162.6160  208.2550  148.2420 C   0  0  0  0  0  0  0  0  0  0  0  0
  161.2620  207.1950  150.0510 C   0  0  2  0  0  3  0  0  0  0  0  0
  160.2490  206.5650  149.1590 C   0  0  0  0  0  3  0  0  0  0  0  0
  163.2560  209.3600  147.7890 F   0  0  0  0  0  0  0  0  0  0  0  0
  161.2900  203.8760  146.2130 O   0  0  0  0  0  1  0  0  0  0  0  0
  162.2470  204.8430  146.5020 C   0  0  0  0  0  0  0  0  0  0  0  0
  163.3980  204.7350  145.9990 O   0  0  0  0  0  0  0  0  0  0  0  0
  1  8  1  0  0  0  0
  2  5  1  0  0  0  0
  3  8  1  0  0  0  0
  3  7  2  0  0  0  0
  4  5  2  0  0  0  0
  4  6  1  0  0  0  0
  7  4  1  0  0  0  0
  8  2  2  0  0  0  0
  9 11  2  0  0  0  0
 11  7  1  0  0  0  0
 11 10  1  0  0  0  0
 12 15  1  0  0  0  0
 13 17  1  0  0  0  0
 15 23  1  0  0  0  0
 15 18  1  0  0  0  0
 15 21  1  1  0  0  0
 16 22  1  6  0  0  0
 16 19  1  0  0  0  0
 16 12  1  0  0  0  0
 17 10  1  1  0  0  0
 17 18  1  0  0  0  0
 17 14  1  0  0  0  0
 18 14  1  0  0  0  0
 18 20  1  1  0  0  0
 19 13  1  0  0  0  0
 24  3  1  0  0  0  0
 25 30  1  0  0  0  0
 26 29  1  0  0  0  0
 27 26  2  0  0  0  0
 27 28  1  0  0  0  0
 28 31  2  0  0  0  0
 29 25  2  0  0  0  0
 30 24  1  1  0  0  0
 31 30  1  0  0  0  0
 32 29  1  0  0  0  0
 33 34  1  0  0  0  0
 34 27  1  0  0  0  0
 35 34  2  0  0  0  0
M  END
>  <MODEL>
2

>  <REMARK>
 VINA RESULT:      -6.9      2.096      2.884
  Name = 
  5 active torsions:
  status: ('A' for Active; 'I' for Inactive)
    1  A    between atoms: C_8  and  O_16
    2  A    between atoms: C_10  and  C_14
    3  A    between atoms: O_16  and  C_25
    4  A    between atoms: C_22  and  N_28
    5  A    between atoms: C_29  and  C_34
                            x       y       z     vdW  Elec       q    Type
                         _______ _______ _______ _____ _____    ______ ____

>  <TORSDO>
F 5

$$$$
=
 OpenBabel11072413073D

 35 38  0  0  1  0  0  0  0  0999 V2000
  160.6160  206.2990  147.3130 C   0  0  0  0  0  1  0  0  0  0  0  0
  161.8050  208.4070  147.8020 C   0  0  0  0  0  3  0  0  0  0  0  0
  160.9010  207.1830  149.6880 C   0  0  0  0  0  0  0  0  0  0  0  0
  162.1800  209.2310  149.9980 C   0  0  0  0  0  0  0  0  0  0  0  0
  162.3170  209.3320  148.6510 N   0  0  0  0  0  0  0  0  0  0  0  0
  162.7820  210.2260  150.8240 N   0  0  0  0  0  1  0  0  0  0  0  0
  161.4760  208.1410  150.5590 C   0  0  0  0  0  0  0  0  0  0  0  0
  161.0950  207.3140  148.2940 C   0  0  0  0  0  0  0  0  0  0  0  0
  161.9210  207.1210  152.6690 O   0  0  0  0  0  0  0  0  0  0  0  0
  160.4550  208.9290  152.7360 N   0  0  0  0  0  2  0  0  0  0  0  0
  161.3080  208.0190  152.0320 C   0  0  0  0  0  0  0  0  0  0  0  0
  161.9630  208.4260  156.7150 C   0  0  0  0  0  2  0  0  0  0  0  0
  159.8640  207.6170  154.8260 C   0  0  0  0  0  2  0  0  0  0  0  0
  159.6330  210.2090  154.6980 C   0  0  0  0  0  2  0  0  0  0  0  0
  161.5580  209.8700  156.4060 C   0  0  2  0  0  0  0  0  0  0  0  0
  160.7980  207.5450  157.1770 C   0  0  1  0  0  3  0  0  0  0  0  0
  160.3040  208.9480  154.1870 C   0  0  2  0  0  0  0  0  0  0  0  0
  161.1400  210.0210  154.9090 C   0  0  1  0  0  0  0  0  0  0  0  0
  159.5440  207.6900  156.3140 C   0  0  0  0  0  2  0  0  0  0  0  0
  161.9320  210.9680  154.0100 C   0  0  0  0  0  1  0  0  0  0  0  0
  162.7720  210.7310  156.7250 C   0  0  0  0  0  1  0  0  0  0  0  0
  161.1990  206.2110  157.2130 O   0  0  0  0  0  1  0  0  0  0  0  0
  160.5400  210.2840  157.2560 F   0  0  0  0  0  0  0  0  0  0  0  0
  160.1540  206.1270  150.2400 O   0  0  0  0  0  0  0  0  0  0  0  0
  160.6560  203.9700  151.1260 C   0  0  0  0  0  3  0  0  0  0  0  0
  160.8300  201.8050  149.9220 C   0  0  0  0  0  3  0  0  0  0  0  0
  161.1680  202.1520  148.6660 C   0  0  0  0  0  0  0  0  0  0  0  0
  161.7300  203.4750  148.3120 C   0  0  0  0  0  3  0  0  0  0  0  0
  160.8640  202.6540  151.1310 C   0  0  0  0  0  0  0  0  0  0  0  0
  160.3200  204.7560  149.9000 C   0  0  2  0  0  3  0  0  0  0  0  0
  161.3930  204.6350  148.8740 C   0  0  0  0  0  3  0  0  0  0  0  0
  161.0600  202.0440  152.3240 F   0  0  0  0  0  0  0  0  0  0  0  0
  161.5840  199.8340  147.8730 O   0  0  0  0  0  1  0  0  0  0  0  0
  161.1260  201.1210  147.6110 C   0  0  0  0  0  0  0  0  0  0  0  0
  160.6750  201.3890  146.4650 O   0  0  0  0  0  0  0  0  0  0  0  0
  1  8  1  0  0  0  0
  2  8  2  0  0  0  0
  2  5  1  0  0  0  0
  3 24  1  0  0  0  0
  3  7  2  0  0  0  0
  4  7  1  0  0  0  0
  4  6  1  0  0  0  0
  5  4  2  0  0  0  0
  7 11  1  0  0  0  0
  8  3  1  0  0  0  0
 11  9  2  0  0  0  0
 11 10  1  0  0  0  0
 12 16  1  0  0  0  0
 13 19  1  0  0  0  0
 14 18  1  0  0  0  0
 15 12  1  0  0  0  0
 15 21  1  1  0  0  0
 15 23  1  0  0  0  0
 16 22  1  6  0  0  0
 17 10  1  6  0  0  0
 17 14  1  0  0  0  0
 17 13  1  0  0  0  0
 17 18  1  0  0  0  0
 18 20  1  6  0  0  0
 18 15  1  0  0  0  0
 19 16  1  0  0  0  0
 25 29  2  0  0  0  0
 26 29  1  0  0  0  0
 27 26  2  0  0  0  0
 28 27  1  0  0  0  0
 28 31  2  0  0  0  0
 29 32  1  0  0  0  0
 30 24  1  1  0  0  0
 30 25  1  0  0  0  0
 31 30  1  0  0  0  0
 34 33  1  0  0  0  0
 34 27  1  0  0  0  0
 35 34  2  0  0  0  0
M  END
>  <MODEL>
3

>  <REMARK>
 VINA RESULT:      -6.7      2.897      4.639
  Name = 
  5 active torsions:
  status: ('A' for Active; 'I' for Inactive)
    1  A    between atoms: C_8  and  O_16
    2  A    between atoms: C_10  and  C_14
    3  A    between atoms: O_16  and  C_25
    4  A    between atoms: C_22  and  N_28
    5  A    between atoms: C_29  and  C_34
                            x       y       z     vdW  Elec       q    Type
                         _______ _______ _______ _____ _____    ______ ____

>  <TORSDO>
F 5

$$$$
=
 OpenBabel11072413073D

 35 38  0  0  1  0  0  0  0  0999 V2000
  160.5110  206.2640  147.4300 C   0  0  0  0  0  1  0  0  0  0  0  0
  161.6350  208.4260  147.8270 C   0  0  0  0  0  3  0  0  0  0  0  0
  160.8400  207.2180  149.7710 C   0  0  0  0  0  0  0  0  0  0  0  0
  162.0490  209.3200  149.9870 C   0  0  0  0  0  0  0  0  0  0  0  0
  162.1390  209.3910  148.6350 N   0  0  0  0  0  0  0  0  0  0  0  0
  162.6390  210.3580  150.7680 N   0  0  0  0  0  1  0  0  0  0  0  0
  161.4060  208.2190  150.5990 C   0  0  0  0  0  0  0  0  0  0  0  0
  160.9840  207.3210  148.3690 C   0  0  0  0  0  0  0  0  0  0  0  0
  161.6690  207.0910  152.6840 O   0  0  0  0  0  0  0  0  0  0  0  0
  160.7550  209.2280  152.8260 N   0  0  0  0  0  2  0  0  0  0  0  0
  161.2900  208.1290  152.0790 C   0  0  0  0  0  0  0  0  0  0  0  0
  161.3500  211.1740  156.5980 C   0  0  0  0  0  2  0  0  0  0  0  0
  161.9550  208.7740  155.0150 C   0  0  0  0  0  2  0  0  0  0  0  0
  159.3560  208.8090  154.8330 C   0  0  0  0  0  2  0  0  0  0  0  0
  159.8760  210.8910  156.2950 C   0  0  2  0  0  0  0  0  0  0  0  0
  162.0870  209.9900  157.2310 C   0  0  1  0  0  3  0  0  0  0  0  0
  160.6940  209.2690  154.2830 C   0  0  2  0  0  0  0  0  0  0  0  0
  159.7070  210.3020  154.8590 C   0  0  1  0  0  0  0  0  0  0  0  0
  161.8190  208.6590  156.5290 C   0  0  0  0  0  2  0  0  0  0  0  0
  158.8700  211.0690  153.8370 C   0  0  0  0  0  1  0  0  0  0  0  0
  159.1490  212.2220  156.4300 C   0  0  0  0  0  1  0  0  0  0  0  0
  163.4570  210.2460  157.2600 O   0  0  0  0  0  1  0  0  0  0  0  0
  159.3350  210.0420  157.2530 F   0  0  0  0  0  0  0  0  0  0  0  0
  160.1510  206.1500  150.3740 O   0  0  0  0  0  0  0  0  0  0  0  0
  160.6810  203.9880  151.2300 C   0  0  0  0  0  3  0  0  0  0  0  0
  160.8310  201.8330  150.0050 C   0  0  0  0  0  3  0  0  0  0  0  0
  161.1380  202.1900  148.7440 C   0  0  0  0  0  0  0  0  0  0  0  0
  161.6870  203.5180  148.3870 C   0  0  0  0  0  3  0  0  0  0  0  0
  160.8920  202.6720  151.2190 C   0  0  0  0  0  0  0  0  0  0  0  0
  160.3130  204.7830  150.0190 C   0  0  2  0  0  3  0  0  0  0  0  0
  161.3610  204.6730  148.9660 C   0  0  0  0  0  3  0  0  0  0  0  0
  161.1190  202.0540  152.4030 F   0  0  0  0  0  0  0  0  0  0  0  0
  160.4480  201.4560  146.4730 O   0  0  0  0  0  0  0  0  0  0  0  0
  161.0730  201.1680  147.6820 C   0  0  0  0  0  0  0  0  0  0  0  0
  161.5820  200.0280  147.8520 O   0  0  0  0  0  1  0  0  0  0  0  0
  1  8  1  0  0  0  0
  2  8  2  0  0  0  0
  2  5  1  0  0  0  0
  3 24  1  0  0  0  0
  3  7  2  0  0  0  0
  4  7  1  0  0  0  0
  4  6  1  0  0  0  0
  5  4  2  0  0  0  0
  7 11  1  0  0  0  0
  8  3  1  0  0  0  0
 11  9  2  0  0  0  0
 11 10  1  0  0  0  0
 12 16  1  0  0  0  0
 13 19  1  0  0  0  0
 14 18  1  0  0  0  0
 15 21  1  1  0  0  0
 15 12  1  0  0  0  0
 15 23  1  0  0  0  0
 16 22  1  6  0  0  0
 17 10  1  6  0  0  0
 17 14  1  0  0  0  0
 17 18  1  0  0  0  0
 17 13  1  0  0  0  0
 18 20  1  6  0  0  0
 18 15  1  0  0  0  0
 19 16  1  0  0  0  0
 26 29  1  0  0  0  0
 27 26  2  0  0  0  0
 28 27  1  0  0  0  0
 28 31  2  0  0  0  0
 29 25  2  0  0  0  0
 29 32  1  0  0  0  0
 30 24  1  1  0  0  0
 30 25  1  0  0  0  0
 31 30  1  0  0  0  0
 33 34  2  0  0  0  0
 34 35  1  0  0  0  0
 34 27  1  0  0  0  0
M  END
>  <MODEL>
4

>  <REMARK>
 VINA RESULT:      -6.1      2.853      4.405
  Name = 
  5 active torsions:
  status: ('A' for Active; 'I' for Inactive)
    1  A    between atoms: C_8  and  O_16
    2  A    between atoms: C_10  and  C_14
    3  A    between atoms: O_16  and  C_25
    4  A    between atoms: C_22  and  N_28
    5  A    between atoms: C_29  and  C_34
                            x       y       z     vdW  Elec       q    Type
                         _______ _______ _______ _____ _____    ______ ____

>  <TORSDO>
F 5

$$$$
=
 OpenBabel11072413073D

 35 38  0  0  1  0  0  0  0  0999 V2000
  158.9150  214.2970  151.7920 C   0  0  0  0  0  1  0  0  0  0  0  0
  160.1670  213.9660  149.6900 C   0  0  0  0  0  3  0  0  0  0  0  0
  160.4290  212.2810  151.4110 C   0  0  0  0  0  0  0  0  0  0  0  0
  161.5170  212.0650  149.2450 C   0  0  0  0  0  0  0  0  0  0  0  0
  160.9790  213.2540  148.8710 N   0  0  0  0  0  0  0  0  0  0  0  0
  162.3320  211.3580  148.3100 N   0  0  0  0  0  1  0  0  0  0  0  0
  161.2460  211.5340  150.5270 C   0  0  0  0  0  0  0  0  0  0  0  0
  159.8670  213.5000  150.9680 C   0  0  0  0  0  0  0  0  0  0  0  0
  162.9190  210.2140  151.5980 O   0  0  0  0  0  0  0  0  0  0  0  0
  161.1660  209.0080  150.6490 N   0  0  0  0  0  2  0  0  0  0  0  0
  161.8350  210.2370  150.9560 C   0  0  0  0  0  0  0  0  0  0  0  0
  160.4560  204.9590  151.8580 C   0  0  0  0  0  2  0  0  0  0  0  0
  161.6710  207.5170  152.6380 C   0  0  0  0  0  2  0  0  0  0  0  0
  162.7900  207.1600  150.3130 C   0  0  0  0  0  2  0  0  0  0  0  0
  161.2800  205.0640  150.5710 C   0  0  2  0  0  0  0  0  0  0  0  0
  161.2940  205.0640  153.1360 C   0  0  1  0  0  3  0  0  0  0  0  0
  161.6170  207.6990  151.1100 C   0  0  2  0  0  0  0  0  0  0  0  0
  161.3980  206.5510  150.1080 C   0  0  1  0  0  0  0  0  0  0  0  0
  162.3030  206.2130  153.1110 C   0  0  0  0  0  2  0  0  0  0  0  0
  160.8300  206.9500  148.7470 C   0  0  0  0  0  1  0  0  0  0  0  0
  160.5550  204.2220  149.5310 C   0  0  0  0  0  1  0  0  0  0  0  0
  160.4560  205.1910  154.2430 O   0  0  0  0  0  1  0  0  0  0  0  0
  162.5330  204.4920  150.7460 F   0  0  0  0  0  0  0  0  0  0  0  0
  160.2020  211.7830  152.7070 O   0  0  0  0  0  0  0  0  0  0  0  0
  159.9700  212.5120  154.9650 C   0  0  0  0  0  3  0  0  0  0  0  0
  157.9700  213.4680  156.0860 C   0  0  0  0  0  3  0  0  0  0  0  0
  156.9310  212.9640  155.3940 C   0  0  0  0  0  0  0  0  0  0  0  0
  157.0420  211.7810  154.5100 C   0  0  0  0  0  3  0  0  0  0  0  0
  159.3790  213.0270  156.0440 C   0  0  0  0  0  0  0  0  0  0  0  0
  159.2940  212.3510  153.6420 C   0  0  2  0  0  3  0  0  0  0  0  0
  158.0960  211.4740  153.7540 C   0  0  0  0  0  3  0  0  0  0  0  0
  160.1320  213.2120  157.1540 F   0  0  0  0  0  0  0  0  0  0  0  0
  155.0070  213.4050  156.9010 O   0  0  0  0  0  1  0  0  0  0  0  0
  155.5840  213.5110  155.6400 C   0  0  0  0  0  0  0  0  0  0  0  0
  154.9410  214.0820  154.7180 O   0  0  0  0  0  0  0  0  0  0  0  0
  2  8  1  0  0  0  0
  3 24  1  0  0  0  0
  4  7  2  0  0  0  0
  5  4  1  0  0  0  0
  5  2  2  0  0  0  0
  6  4  1  0  0  0  0
  7 11  1  0  0  0  0
  7  3  1  0  0  0  0
  8  3  2  0  0  0  0
  8  1  1  0  0  0  0
 10 11  1  0  0  0  0
 11  9  2  0  0  0  0
 12 16  1  0  0  0  0
 13 19  1  0  0  0  0
 14 17  1  0  0  0  0
 15 21  1  6  0  0  0
 15 23  1  0  0  0  0
 15 12  1  0  0  0  0
 16 22  1  1  0  0  0
 17 10  1  6  0  0  0
 17 13  1  0  0  0  0
 18 20  1  6  0  0  0
 18 14  1  0  0  0  0
 18 15  1  0  0  0  0
 18 17  1  0  0  0  0
 19 16  1  0  0  0  0
 25 29  2  0  0  0  0
 27 34  1  0  0  0  0
 27 26  2  0  0  0  0
 28 27  1  0  0  0  0
 29 26  1  0  0  0  0
 29 32  1  0  0  0  0
 30 24  1  6  0  0  0
 30 31  1  0  0  0  0
 30 25  1  0  0  0  0
 31 28  2  0  0  0  0
 34 33  1  0  0  0  0
 35 34  2  0  0  0  0
M  END
>  <MODEL>
5

>  <REMARK>
 VINA RESULT:      -6.0      3.694      9.615
  Name = 
  5 active torsions:
  status: ('A' for Active; 'I' for Inactive)
    1  A    between atoms: C_8  and  O_16
    2  A    between atoms: C_10  and  C_14
    3  A    between atoms: O_16  and  C_25
    4  A    between atoms: C_22  and  N_28
    5  A    between atoms: C_29  and  C_34
                            x       y       z     vdW  Elec       q    Type
                         _______ _______ _______ _____ _____    ______ ____

>  <TORSDO>
F 5

$$$$
=
 OpenBabel11072413073D

 35 38  0  0  1  0  0  0  0  0999 V2000
  158.6950  213.9690  150.9660 C   0  0  0  0  0  1  0  0  0  0  0  0
  160.5020  214.0740  149.2870 C   0  0  0  0  0  3  0  0  0  0  0  0
  160.3950  212.0910  150.6760 C   0  0  0  0  0  0  0  0  0  0  0  0
  162.0560  212.3180  148.9110 C   0  0  0  0  0  0  0  0  0  0  0  0
  161.5590  213.5480  148.6210 N   0  0  0  0  0  0  0  0  0  0  0  0
  163.1460  211.8200  148.1370 N   0  0  0  0  0  1  0  0  0  0  0  0
  161.4770  211.5440  149.9430 C   0  0  0  0  0  0  0  0  0  0  0  0
  159.8930  213.3630  150.3190 C   0  0  0  0  0  0  0  0  0  0  0  0
  162.8930  210.0720  151.1750 O   0  0  0  0  0  0  0  0  0  0  0  0
  161.5270  209.0380  149.5970 N   0  0  0  0  0  2  0  0  0  0  0  0
  162.0140  210.1990  150.2810 C   0  0  0  0  0  0  0  0  0  0  0  0
  160.6440  204.9610  150.5780 C   0  0  0  0  0  2  0  0  0  0  0  0
  162.0890  207.3740  151.4270 C   0  0  0  0  0  2  0  0  0  0  0  0
  162.9890  207.1240  148.9960 C   0  0  0  0  0  2  0  0  0  0  0  0
  161.3660  205.1120  149.2360 C   0  0  2  0  0  0  0  0  0  0  0  0
  161.5880  204.9190  151.7830 C   0  0  1  0  0  3  0  0  0  0  0  0
  161.9230  207.6730  149.9260 C   0  0  2  0  0  0  0  0  0  0  0  0
  161.5470  206.6190  148.8690 C   0  0  1  0  0  0  0  0  0  0  0  0
  162.6670  206.0010  151.7530 C   0  0  0  0  0  2  0  0  0  0  0  0
  160.9000  207.1540  147.5920 C   0  0  0  0  0  1  0  0  0  0  0  0
  160.5050  204.3960  148.2050 C   0  0  0  0  0  1  0  0  0  0  0  0
  160.8520  205.0140  152.9640 O   0  0  0  0  0  1  0  0  0  0  0  0
  162.5880  204.4520  149.2630 F   0  0  0  0  0  0  0  0  0  0  0  0
  159.8520  211.3470  151.7400 O   0  0  0  0  0  0  0  0  0  0  0  0
  160.8400  211.1780  153.9040 C   0  0  0  0  0  3  0  0  0  0  0  0
  160.1550  212.3040  156.0100 C   0  0  0  0  0  3  0  0  0  0  0  0
  158.8390  212.5360  155.8470 C   0  0  0  0  0  0  0  0  0  0  0  0
  158.0100  211.8390  154.8380 C   0  0  0  0  0  3  0  0  0  0  0  0
  161.0200  211.4180  155.2030 C   0  0  0  0  0  0  0  0  0  0  0  0
  159.7610  211.8070  153.0820 C   0  0  2  0  0  3  0  0  0  0  0  0
  158.4130  211.4750  153.6210 C   0  0  0  0  0  3  0  0  0  0  0  0
  162.0960  210.8640  155.8090 F   0  0  0  0  0  0  0  0  0  0  0  0
  156.8720  213.0860  157.2610 O   0  0  0  0  0  1  0  0  0  0  0  0
  158.1490  213.4100  156.8160 C   0  0  0  0  0  0  0  0  0  0  0  0
  158.7050  214.4530  157.2530 O   0  0  0  0  0  0  0  0  0  0  0  0
  2  8  1  0  0  0  0
  3 24  1  0  0  0  0
  4  7  2  0  0  0  0
  5  4  1  0  0  0  0
  5  2  2  0  0  0  0
  6  4  1  0  0  0  0
  7 11  1  0  0  0  0
  7  3  1  0  0  0  0
  8  3  2  0  0  0  0
  8  1  1  0  0  0  0
 10 11  1  0  0  0  0
 11  9  2  0  0  0  0
 12 16  1  0  0  0  0
 13 19  1  0  0  0  0
 14 17  1  0  0  0  0
 15 21  1  6  0  0  0
 15 23  1  0  0  0  0
 15 12  1  0  0  0  0
 16 22  1  1  0  0  0
 17 10  1  6  0  0  0
 17 13  1  0  0  0  0
 18 20  1  6  0  0  0
 18 14  1  0  0  0  0
 18 15  1  0  0  0  0
 18 17  1  0  0  0  0
 19 16  1  0  0  0  0
 25 29  2  0  0  0  0
 27 26  2  0  0  0  0
 27 34  1  0  0  0  0
 28 27  1  0  0  0  0
 29 32  1  0  0  0  0
 29 26  1  0  0  0  0
 30 24  1  6  0  0  0
 30 31  1  0  0  0  0
 30 25  1  0  0  0  0
 31 28  2  0  0  0  0
 34 35  2  0  0  0  0
 34 33  1  0  0  0  0
M  END
>  <MODEL>
6

>  <REMARK>
 VINA RESULT:      -5.9      3.359      9.528
  Name = 
  5 active torsions:
  status: ('A' for Active; 'I' for Inactive)
    1  A    between atoms: C_8  and  O_16
    2  A    between atoms: C_10  and  C_14
    3  A    between atoms: O_16  and  C_25
    4  A    between atoms: C_22  and  N_28
    5  A    between atoms: C_29  and  C_34
                            x       y       z     vdW  Elec       q    Type
                         _______ _______ _______ _____ _____    ______ ____

>  <TORSDO>
F 5

$$$$
=
 OpenBabel11072413073D

 35 38  0  0  1  0  0  0  0  0999 V2000
  158.2630  214.4530  154.5090 C   0  0  0  0  0  1  0  0  0  0  0  0
  157.8800  212.4980  155.9680 C   0  0  0  0  0  3  0  0  0  0  0  0
  159.4330  212.2200  154.1290 C   0  0  0  0  0  0  0  0  0  0  0  0
  159.0090  210.4240  155.7170 C   0  0  0  0  0  0  0  0  0  0  0  0
  158.1260  211.2250  156.3650 N   0  0  0  0  0  0  0  0  0  0  0  0
  159.2390  209.1090  156.2210 N   0  0  0  0  0  1  0  0  0  0  0  0
  159.7030  210.9050  154.5820 C   0  0  0  0  0  0  0  0  0  0  0  0
  158.5270  213.0270  154.8540 C   0  0  0  0  0  0  0  0  0  0  0  0
  161.8910  210.0570  154.1570 O   0  0  0  0  0  0  0  0  0  0  0  0
  160.2090  209.1700  152.8120 N   0  0  0  0  0  2  0  0  0  0  0  0
  160.6680  210.0380  153.8550 C   0  0  0  0  0  0  0  0  0  0  0  0
  161.0510  206.4950  149.5720 C   0  0  0  0  0  2  0  0  0  0  0  0
  160.8610  206.7390  152.4930 C   0  0  0  0  0  2  0  0  0  0  0  0
  162.4950  208.6980  151.9670 C   0  0  0  0  0  2  0  0  0  0  0  0
  162.0060  207.6910  149.6250 C   0  0  2  0  0  0  0  0  0  0  0  0
  161.4680  205.3330  150.4780 C   0  0  1  0  0  3  0  0  0  0  0  0
  161.0640  208.2170  152.1110 C   0  0  2  0  0  0  0  0  0  0  0  0
  161.5760  208.6950  150.7400 C   0  0  1  0  0  0  0  0  0  0  0  0
  161.8700  205.7710  151.8860 C   0  0  0  0  0  2  0  0  0  0  0  0
  161.1990  210.1230  150.3470 C   0  0  0  0  0  1  0  0  0  0  0  0
  161.9510  208.3410  148.2500 C   0  0  0  0  0  1  0  0  0  0  0  0
  160.4400  204.3940  150.5480 O   0  0  0  0  0  1  0  0  0  0  0  0
  163.3140  207.2620  149.8120 F   0  0  0  0  0  0  0  0  0  0  0  0
  160.0810  212.6820  152.9690 O   0  0  0  0  0  0  0  0  0  0  0  0
  160.4520  213.2610  150.6850 C   0  0  0  0  0  3  0  0  0  0  0  0
  158.7790  213.5680  148.8750 C   0  0  0  0  0  3  0  0  0  0  0  0
  157.6540  213.9230  149.5220 C   0  0  0  0  0  0  0  0  0  0  0  0
  157.6420  214.4320  150.9120 C   0  0  0  0  0  3  0  0  0  0  0  0
  160.1540  213.5300  149.4140 C   0  0  0  0  0  0  0  0  0  0  0  0
  159.4330  212.9210  151.7250 C   0  0  2  0  0  3  0  0  0  0  0  0
  158.4480  214.0260  151.8930 C   0  0  0  0  0  3  0  0  0  0  0  0
  161.1780  213.7220  148.5480 F   0  0  0  0  0  0  0  0  0  0  0  0
  155.1800  214.1400  149.4400 O   0  0  0  0  0  1  0  0  0  0  0  0
  156.3850  213.9580  148.7690 C   0  0  0  0  0  0  0  0  0  0  0  0
  156.3750  213.8260  147.5160 O   0  0  0  0  0  0  0  0  0  0  0  0
  1  8  1  0  0  0  0
  2  5  1  0  0  0  0
  3  7  2  0  0  0  0
  3  8  1  0  0  0  0
  4  6  1  0  0  0  0
  4  5  2  0  0  0  0
  7  4  1  0  0  0  0
  8  2  2  0  0  0  0
 10 11  1  0  0  0  0
 11  9  2  0  0  0  0
 11  7  1  0  0  0  0
 12 15  1  0  0  0  0
 12 16  1  0  0  0  0
 14 17  1  0  0  0  0
 15 21  1  6  0  0  0
 15 23  1  0  0  0  0
 15 18  1  0  0  0  0
 16 22  1  1  0  0  0
 16 19  1  0  0  0  0
 17 13  1  0  0  0  0
 17 10  1  1  0  0  0
 18 20  1  6  0  0  0
 18 14  1  0  0  0  0
 18 17  1  0  0  0  0
 19 13  1  0  0  0  0
 24  3  1  0  0  0  0
 25 30  1  0  0  0  0
 26 29  1  0  0  0  0
 26 27  2  0  0  0  0
 27 28  1  0  0  0  0
 28 31  2  0  0  0  0
 29 25  2  0  0  0  0
 30 31  1  0  0  0  0
 30 24  1  1  0  0  0
 32 29  1  0  0  0  0
 34 33  1  0  0  0  0
 34 27  1  0  0  0  0
 35 34  2  0  0  0  0
M  END
>  <MODEL>
7

>  <REMARK>
 VINA RESULT:      -5.7      3.277      8.092
  Name = 
  5 active torsions:
  status: ('A' for Active; 'I' for Inactive)
    1  A    between atoms: C_8  and  O_16
    2  A    between atoms: C_10  and  C_14
    3  A    between atoms: O_16  and  C_25
    4  A    between atoms: C_22  and  N_28
    5  A    between atoms: C_29  and  C_34
                            x       y       z     vdW  Elec       q    Type
                         _______ _______ _______ _____ _____    ______ ____

>  <TORSDO>
F 5

$$$$
=
 OpenBabel11072413073D

 35 38  0  0  1  0  0  0  0  0999 V2000
  158.5940  213.9400  151.2920 C   0  0  0  0  0  1  0  0  0  0  0  0
  160.3740  214.1320  149.5920 C   0  0  0  0  0  3  0  0  0  0  0  0
  160.2780  212.0740  150.8670 C   0  0  0  0  0  0  0  0  0  0  0  0
  161.9110  212.3940  149.0900 C   0  0  0  0  0  0  0  0  0  0  0  0
  161.4170  213.6400  148.8790 N   0  0  0  0  0  0  0  0  0  0  0  0
  162.9860  211.9360  148.2710 N   0  0  0  0  0  1  0  0  0  0  0  0
  161.3450  211.5640  150.0860 C   0  0  0  0  0  0  0  0  0  0  0  0
  159.7780  213.3670  150.5910 C   0  0  0  0  0  0  0  0  0  0  0  0
  162.6650  209.9930  151.3000 O   0  0  0  0  0  0  0  0  0  0  0  0
  161.4980  209.1110  149.4880 N   0  0  0  0  0  2  0  0  0  0  0  0
  161.8800  210.1990  150.3360 C   0  0  0  0  0  0  0  0  0  0  0  0
  160.6150  204.9700  150.1500 C   0  0  0  0  0  2  0  0  0  0  0  0
  162.0530  207.3110  151.1880 C   0  0  0  0  0  2  0  0  0  0  0  0
  162.9640  207.2490  148.7480 C   0  0  0  0  0  2  0  0  0  0  0  0
  161.3420  205.2240  148.8260 C   0  0  2  0  0  0  0  0  0  0  0  0
  161.5530  204.8360  151.3520 C   0  0  1  0  0  3  0  0  0  0  0  0
  161.8940  207.7250  149.7130 C   0  0  2  0  0  0  0  0  0  0  0  0
  161.5230  206.7540  148.5760 C   0  0  1  0  0  0  0  0  0  0  0  0
  162.6310  205.9180  151.4090 C   0  0  0  0  0  2  0  0  0  0  0  0
  160.8810  207.3850  147.3420 C   0  0  0  0  0  1  0  0  0  0  0  0
  160.4860  204.5880  147.7400 C   0  0  0  0  0  1  0  0  0  0  0  0
  160.8120  204.8390  152.5340 O   0  0  0  0  0  1  0  0  0  0  0  0
  162.5650  204.5640  148.8080 F   0  0  0  0  0  0  0  0  0  0  0  0
  159.7490  211.2720  151.8940 O   0  0  0  0  0  0  0  0  0  0  0  0
  160.1270  209.4180  153.3450 C   0  0  0  0  0  3  0  0  0  0  0  0
  161.6230  209.2800  155.3240 C   0  0  0  0  0  3  0  0  0  0  0  0
  161.7120  210.5500  155.7590 C   0  0  0  0  0  0  0  0  0  0  0  0
  160.7520  211.6100  155.3750 C   0  0  0  0  0  3  0  0  0  0  0  0
  160.6540  208.7250  154.3550 C   0  0  0  0  0  0  0  0  0  0  0  0
  160.4790  210.8370  153.0350 C   0  0  2  0  0  3  0  0  0  0  0  0
  160.1670  211.7310  154.1840 C   0  0  0  0  0  3  0  0  0  0  0  0
  160.3290  207.4160  154.4680 F   0  0  0  0  0  0  0  0  0  0  0  0
  162.8410  212.1820  157.2540 O   0  0  0  0  0  0  0  0  0  0  0  0
  162.7170  210.8770  156.7880 C   0  0  0  0  0  0  0  0  0  0  0  0
  163.4720  209.9840  157.2600 O   0  0  0  0  0  1  0  0  0  0  0  0
  2  8  1  0  0  0  0
  3 24  1  0  0  0  0
  4  7  2  0  0  0  0
  5  4  1  0  0  0  0
  5  2  2  0  0  0  0
  6  4  1  0  0  0  0
  7 11  1  0  0  0  0
  7  3  1  0  0  0  0
  8  3  2  0  0  0  0
  8  1  1  0  0  0  0
 10 11  1  0  0  0  0
 11  9  2  0  0  0  0
 12 16  1  0  0  0  0
 13 19  1  0  0  0  0
 14 17  1  0  0  0  0
 15 21  1  6  0  0  0
 15 12  1  0  0  0  0
 16 19  1  0  0  0  0
 16 22  1  1  0  0  0
 17 10  1  6  0  0  0
 17 13  1  0  0  0  0
 18 20  1  6  0  0  0
 18 14  1  0  0  0  0
 18 15  1  0  0  0  0
 18 17  1  0  0  0  0
 23 15  1  0  0  0  0
 25 29  2  0  0  0  0
 26 27  2  0  0  0  0
 27 34  1  0  0  0  0
 28 27  1  0  0  0  0
 29 32  1  0  0  0  0
 29 26  1  0  0  0  0
 30 24  1  6  0  0  0
 30 25  1  0  0  0  0
 30 31  1  0  0  0  0
 31 28  2  0  0  0  0
 34 33  2  0  0  0  0
 34 35  1  0  0  0  0
M  END
>  <MODEL>
8

>  <REMARK>
 VINA RESULT:      -5.7      3.367      9.070
  Name = 
  5 active torsions:
  status: ('A' for Active; 'I' for Inactive)
    1  A    between atoms: C_8  and  O_16
    2  A    between atoms: C_10  and  C_14
    3  A    between atoms: O_16  and  C_25
    4  A    between atoms: C_22  and  N_28
    5  A    between atoms: C_29  and  C_34
                            x       y       z     vdW  Elec       q    Type
                         _______ _______ _______ _____ _____    ______ ____

>  <TORSDO>
F 5

$$$$
=
 OpenBabel11072413073D

 35 38  0  0  1  0  0  0  0  0999 V2000
  160.6980  212.1370  155.3620 C   0  0  0  0  0  1  0  0  0  0  0  0
  159.3870  210.2840  156.3330 C   0  0  0  0  0  3  0  0  0  0  0  0
  160.9490  209.7270  154.5680 C   0  0  0  0  0  0  0  0  0  0  0  0
  159.6430  208.0110  155.6970 C   0  0  0  0  0  0  0  0  0  0  0  0
  159.0590  208.9740  156.4550 N   0  0  0  0  0  0  0  0  0  0  0  0
  159.2710  206.6510  155.9140 N   0  0  0  0  0  1  0  0  0  0  0  0
  160.6200  208.3590  154.7360 C   0  0  0  0  0  0  0  0  0  0  0  0
  160.3360  210.6910  155.4000 C   0  0  0  0  0  0  0  0  0  0  0  0
  162.2260  206.6410  154.3410 O   0  0  0  0  0  0  0  0  0  0  0  0
  160.7840  207.0720  152.5640 N   0  0  0  0  0  2  0  0  0  0  0  0
  161.2630  207.3180  153.8910 C   0  0  0  0  0  0  0  0  0  0  0  0
  160.2870  204.1110  149.5060 C   0  0  0  0  0  2  0  0  0  0  0  0
  161.1720  204.5830  152.2670 C   0  0  0  0  0  2  0  0  0  0  0  0
  162.5900  206.3710  151.0120 C   0  0  0  0  0  2  0  0  0  0  0  0
  161.2470  205.2340  149.1030 C   0  0  2  0  0  0  0  0  0  0  0  0
  160.9520  202.9910  150.3120 C   0  0  1  0  0  3  0  0  0  0  0  0
  161.2870  206.0090  151.7000 C   0  0  2  0  0  0  0  0  0  0  0  0
  161.2910  206.3470  150.1970 C   0  0  1  0  0  0  0  0  0  0  0  0
  161.8530  203.5010  151.4370 C   0  0  0  0  0  2  0  0  0  0  0  0
  160.8600  207.7650  149.8290 C   0  0  0  0  0  1  0  0  0  0  0  0
  160.7300  205.7840  147.7820 C   0  0  0  0  0  1  0  0  0  0  0  0
  159.9780  202.1390  150.8310 O   0  0  0  0  0  1  0  0  0  0  0  0
  162.5160  204.7240  148.8540 F   0  0  0  0  0  0  0  0  0  0  0  0
  161.8800  210.0820  153.5750 O   0  0  0  0  0  0  0  0  0  0  0  0
  160.1310  211.2260  152.4270 C   0  0  0  0  0  3  0  0  0  0  0  0
  160.2800  212.6300  150.3830 C   0  0  0  0  0  3  0  0  0  0  0  0
  161.3620  212.1570  149.7360 C   0  0  0  0  0  0  0  0  0  0  0  0
  161.9600  210.8320  150.0150 C   0  0  0  0  0  3  0  0  0  0  0  0
  159.5560  212.0000  151.5060 C   0  0  0  0  0  0  0  0  0  0  0  0
  161.5950  210.9270  152.4660 C   0  0  2  0  0  3  0  0  0  0  0  0
  162.0390  210.2550  151.2140 C   0  0  0  0  0  3  0  0  0  0  0  0
  158.2370  212.2770  151.6400 F   0  0  0  0  0  0  0  0  0  0  0  0
  163.0060  212.4580  147.8980 O   0  0  0  0  0  0  0  0  0  0  0  0
  161.8890  212.9180  148.5870 C   0  0  0  0  0  0  0  0  0  0  0  0
  161.3380  213.9890  148.2140 O   0  0  0  0  0  1  0  0  0  0  0  0
  1  8  1  0  0  0  0
  2  5  1  0  0  0  0
  3  7  2  0  0  0  0
  3  8  1  0  0  0  0
  4  6  1  0  0  0  0
  4  5  2  0  0  0  0
  7  4  1  0  0  0  0
  8  2  2  0  0  0  0
 10 11  1  0  0  0  0
 11  9  2  0  0  0  0
 11  7  1  0  0  0  0
 12 16  1  0  0  0  0
 14 17  1  0  0  0  0
 15 21  1  6  0  0  0
 15 12  1  0  0  0  0
 15 18  1  0  0  0  0
 16 22  1  1  0  0  0
 16 19  1  0  0  0  0
 17 13  1  0  0  0  0
 17 10  1  1  0  0  0
 18 20  1  6  0  0  0
 18 14  1  0  0  0  0
 18 17  1  0  0  0  0
 19 13  1  0  0  0  0
 23 15  1  0  0  0  0
 24  3  1  0  0  0  0
 25 30  1  0  0  0  0
 26 29  1  0  0  0  0
 27 28  1  0  0  0  0
 27 26  2  0  0  0  0
 28 31  2  0  0  0  0
 29 32  1  0  0  0  0
 29 25  2  0  0  0  0
 30 24  1  1  0  0  0
 31 30  1  0  0  0  0
 33 34  2  0  0  0  0
 34 27  1  0  0  0  0
 35 34  1  0  0  0  0
M  END
>  <MODEL>
9

>  <REMARK>
 VINA RESULT:      -5.6      2.889      7.643
  Name = 
  5 active torsions:
  status: ('A' for Active; 'I' for Inactive)
    1  A    between atoms: C_8  and  O_16
    2  A    between atoms: C_10  and  C_14
    3  A    between atoms: O_16  and  C_25
    4  A    between atoms: C_22  and  N_28
    5  A    between atoms: C_29  and  C_34
                            x       y       z     vdW  Elec       q    Type
                         _______ _______ _______ _____ _____    ______ ____

>  <TORSDO>
F 5

$$$$
