=
 OpenBabel11072411183D

 28 31  0  0  1  0  0  0  0  0999 V2000
  160.8960  203.6940  148.4270 C   0  0  0  0  0  3  0  0  0  0  0  0
  161.1700  205.7330  149.8550 C   0  0  0  0  0  0  0  0  0  0  0  0
  161.4770  207.8380  151.2160 C   0  0  0  0  0  0  0  0  0  0  0  0
  161.7920  207.8520  148.8030 C   0  0  0  0  0  0  0  0  0  0  0  0
  161.7930  207.2280  147.5560 C   0  0  0  0  0  3  0  0  0  0  0  0
  160.7300  204.8740  151.0170 C   0  0  0  0  0  2  0  0  0  0  0  0
  161.1850  205.1290  148.5770 C   0  0  0  0  0  0  0  0  0  0  0  0
  161.4690  207.1220  149.9830 C   0  0  0  0  0  0  0  0  0  0  0  0
  161.8030  209.1950  151.2260 C   0  0  0  0  0  3  0  0  0  0  0  0
  161.4890  205.8760  147.4430 C   0  0  0  0  0  3  0  0  0  0  0  0
  162.1150  209.8510  150.0410 C   0  0  0  0  0  3  0  0  0  0  0  0
  162.1000  209.1730  148.8680 N   0  0  0  0  0  0  0  0  0  0  0  0
  160.8350  202.8860  149.4930 C   0  0  0  0  0  0  0  0  0  0  0  0
  161.1810  203.4210  150.8550 C   0  0  0  0  0  2  0  0  0  0  0  0
  160.5500  201.4520  149.3260 C   0  0  0  0  0  0  0  0  0  0  0  0
  161.4400  200.6420  148.6290 O   0  0  0  0  0  0  0  0  0  0  0  0
  159.5050  200.9420  149.8140 O   0  0  0  0  0  1  0  0  0  0  0  0
  161.1240  207.2370  152.5410 C   0  0  0  0  0  2  0  0  0  0  0  0
  160.7330  208.3820  154.7730 C   0  0  0  0  0  0  0  0  0  0  0  0
  161.4990  207.5720  155.3640 O   0  0  0  0  0  0  0  0  0  0  0  0
  160.1380  209.4670  155.4930 N   0  0  0  0  0  0  0  0  0  0  0  0
  159.3450  210.3640  154.8380 O   0  0  0  0  0  0  0  0  0  0  0  0
  160.1250  211.1400  157.2610 C   0  0  0  0  0  2  0  0  0  0  0  0
  160.4540  208.2210  153.3800 N   0  0  0  0  0  2  0  0  0  0  0  0
  160.4660  209.6980  156.8990 C   0  0  0  0  0  2  0  0  0  0  0  0
  161.1510  211.4310  153.8870 F   0  0  0  0  0  0  0  0  0  0  0  0
  160.5570  212.0750  156.1280 C   0  0  0  0  0  2  0  0  0  0  0  0
  160.0780  211.5700  154.7510 C   0  0  2  0  0  3  0  0  0  0  0  0
  1  7  1  0  0  0  0
  1 13  2  0  0  0  0
  2  8  1  0  0  0  0
  2  6  1  0  0  0  0
  3  9  1  0  0  0  0
  3 18  1  0  0  0  0
  4 12  2  0  0  0  0
  4  8  1  0  0  0  0
  5  4  1  0  0  0  0
  7  2  2  0  0  0  0
  8  3  2  0  0  0  0
 10  5  2  0  0  0  0
 10  7  1  0  0  0  0
 11  9  2  0  0  0  0
 12 11  1  0  0  0  0
 13 14  1  0  0  0  0
 14  6  1  0  0  0  0
 15 13  1  0  0  0  0
 15 17  1  0  0  0  0
 16 15  2  0  0  0  0
 18 24  1  0  0  0  0
 19 20  2  0  0  0  0
 19 21  1  0  0  0  0
 21 25  1  0  0  0  0
 22 21  1  0  0  0  0
 24 19  1  0  0  0  0
 25 23  1  0  0  0  0
 27 23  1  0  0  0  0
 28 26  1  6  0  0  0
 28 22  1  0  0  0  0
 28 27  1  0  0  0  0
M  END
>  <MODEL>
1

>  <REMARK>
 VINA RESULT:      -9.8      0.000      0.000
  Name = 
  3 active torsions:
  status: ('A' for Active; 'I' for Inactive)
    1  A    between atoms: C_3  and  C_7
    2  A    between atoms: C_7  and  N_14
    3  A    between atoms: C_13  and  C_26
                            x       y       z     vdW  Elec       q    Type
                         _______ _______ _______ _____ _____    ______ ____

>  <TORSDO>
F 3

$$$$
=
 OpenBabel11072411183D

 28 31  0  0  1  0  0  0  0  0999 V2000
  161.2510  204.3900  147.5280 C   0  0  0  0  0  3  0  0  0  0  0  0
  161.2890  205.6760  149.6760 C   0  0  0  0  0  0  0  0  0  0  0  0
  161.3060  206.8890  151.8910 C   0  0  0  0  0  0  0  0  0  0  0  0
  161.0710  204.4690  151.7930 C   0  0  0  0  0  0  0  0  0  0  0  0
  161.0020  203.2640  151.0940 C   0  0  0  0  0  3  0  0  0  0  0  0
  161.5390  206.9060  148.8370 C   0  0  0  0  0  2  0  0  0  0  0  0
  161.2090  204.4380  148.9980 C   0  0  0  0  0  0  0  0  0  0  0  0
  161.2280  205.7040  151.1020 C   0  0  0  0  0  0  0  0  0  0  0  0
  161.2180  206.8010  153.2820 C   0  0  0  0  0  3  0  0  0  0  0  0
  161.0720  203.2480  149.7070 C   0  0  0  0  0  3  0  0  0  0  0  0
  161.0590  205.5660  153.8980 C   0  0  0  0  0  3  0  0  0  0  0  0
  160.9930  204.4390  153.1490 N   0  0  0  0  0  0  0  0  0  0  0  0
  161.1410  205.5050  146.7960 C   0  0  0  0  0  0  0  0  0  0  0  0
  160.8500  206.8170  147.4740 C   0  0  0  0  0  2  0  0  0  0  0  0
  161.1800  205.4400  145.3260 C   0  0  0  0  0  0  0  0  0  0  0  0
  161.9980  204.5120  144.6930 O   0  0  0  0  0  1  0  0  0  0  0  0
  160.4740  206.2180  144.6280 O   0  0  0  0  0  0  0  0  0  0  0  0
  161.5100  208.2620  151.3310 C   0  0  0  0  0  2  0  0  0  0  0  0
  160.8530  210.1480  152.8990 C   0  0  0  0  0  0  0  0  0  0  0  0
  159.7360  210.2810  152.3300 O   0  0  0  0  0  0  0  0  0  0  0  0
  161.1750  210.9400  154.0480 N   0  0  0  0  0  0  0  0  0  0  0  0
  162.3680  210.7600  154.6860 O   0  0  0  0  0  0  0  0  0  0  0  0
  160.5800  212.1670  156.0640 C   0  0  0  0  0  2  0  0  0  0  0  0
  161.8060  209.2050  152.4010 N   0  0  0  0  0  2  0  0  0  0  0  0
  160.1900  211.8560  154.6230 C   0  0  0  0  0  2  0  0  0  0  0  0
  161.6580  208.8170  155.6990 F   0  0  0  0  0  0  0  0  0  0  0  0
  161.0510  210.8890  156.7620 C   0  0  0  0  0  2  0  0  0  0  0  0
  162.0830  210.1170  155.9130 C   0  0  2  0  0  3  0  0  0  0  0  0
  1  7  1  0  0  0  0
  2  8  1  0  0  0  0
  3  9  1  0  0  0  0
  4 12  2  0  0  0  0
  5  4  1  0  0  0  0
  6  2  1  0  0  0  0
  7  2  2  0  0  0  0
  7 10  1  0  0  0  0
  8  4  1  0  0  0  0
  8  3  2  0  0  0  0
  9 11  2  0  0  0  0
 10  5  2  0  0  0  0
 12 11  1  0  0  0  0
 13 14  1  0  0  0  0
 13  1  2  0  0  0  0
 14  6  1  0  0  0  0
 15 13  1  0  0  0  0
 16 15  1  0  0  0  0
 17 15  2  0  0  0  0
 18  3  1  0  0  0  0
 18 24  1  0  0  0  0
 19 21  1  0  0  0  0
 20 19  2  0  0  0  0
 21 25  1  0  0  0  0
 21 22  1  0  0  0  0
 22 28  1  0  0  0  0
 23 27  1  0  0  0  0
 24 19  1  0  0  0  0
 25 23  1  0  0  0  0
 28 26  1  6  0  0  0
 28 27  1  0  0  0  0
M  END
>  <MODEL>
2

>  <REMARK>
 VINA RESULT:      -9.7      2.362      3.784
  Name = 
  3 active torsions:
  status: ('A' for Active; 'I' for Inactive)
    1  A    between atoms: C_3  and  C_7
    2  A    between atoms: C_7  and  N_14
    3  A    between atoms: C_13  and  C_26
                            x       y       z     vdW  Elec       q    Type
                         _______ _______ _______ _____ _____    ______ ____

>  <TORSDO>
F 3

$$$$
=
 OpenBabel11072411183D

 28 31  0  0  1  0  0  0  0  0999 V2000
  161.2920  204.5780  147.8530 C   0  0  0  0  0  3  0  0  0  0  0  0
  161.2900  205.9430  149.9520 C   0  0  0  0  0  0  0  0  0  0  0  0
  161.2710  207.2390  152.1200 C   0  0  0  0  0  0  0  0  0  0  0  0
  161.1280  204.8090  152.1130 C   0  0  0  0  0  0  0  0  0  0  0  0
  161.1010  203.5780  151.4600 C   0  0  0  0  0  3  0  0  0  0  0  0
  161.4900  207.1500  149.0660 C   0  0  0  0  0  2  0  0  0  0  0  0
  161.2540  204.6790  149.3200 C   0  0  0  0  0  0  0  0  0  0  0  0
  161.2350  206.0230  151.3750 C   0  0  0  0  0  0  0  0  0  0  0  0
  161.1920  207.1990  153.5140 C   0  0  0  0  0  3  0  0  0  0  0  0
  161.1660  203.5120  150.0740 C   0  0  0  0  0  3  0  0  0  0  0  0
  161.0830  205.9820  154.1760 C   0  0  0  0  0  3  0  0  0  0  0  0
  161.0560  204.8270  153.4700 N   0  0  0  0  0  0  0  0  0  0  0  0
  161.1360  205.6610  147.0800 C   0  0  0  0  0  0  0  0  0  0  0  0
  160.7990  206.9840  147.7110 C   0  0  0  0  0  2  0  0  0  0  0  0
  161.1710  205.5420  145.6140 C   0  0  0  0  0  0  0  0  0  0  0  0
  162.0740  204.6770  145.0080 O   0  0  0  0  0  1  0  0  0  0  0  0
  160.3850  206.2160  144.8950 O   0  0  0  0  0  0  0  0  0  0  0  0
  161.4200  208.5970  151.5080 C   0  0  0  0  0  2  0  0  0  0  0  0
  160.6580  210.4220  153.1000 C   0  0  0  0  0  0  0  0  0  0  0  0
  161.7570  210.3940  153.7170 O   0  0  0  0  0  0  0  0  0  0  0  0
  159.6540  211.3770  153.4600 N   0  0  0  0  0  0  0  0  0  0  0  0
  158.4840  211.4320  152.7600 O   0  0  0  0  0  0  0  0  0  0  0  0
  158.9330  213.5350  154.3260 C   0  0  0  0  0  2  0  0  0  0  0  0
  160.4080  209.5020  152.0350 N   0  0  0  0  0  2  0  0  0  0  0  0
  159.9130  212.3790  154.4940 C   0  0  0  0  0  2  0  0  0  0  0  0
  159.4720  212.5130  150.9820 F   0  0  0  0  0  0  0  0  0  0  0  0
  158.7800  213.8740  152.8420 C   0  0  0  0  0  2  0  0  0  0  0  0
  158.5250  212.6150  151.9860 C   0  0  2  0  0  3  0  0  0  0  0  0
  1  7  1  0  0  0  0
  2  8  1  0  0  0  0
  3  9  1  0  0  0  0
  4 12  2  0  0  0  0
  5  4  1  0  0  0  0
  6  2  1  0  0  0  0
  7  2  2  0  0  0  0
  7 10  1  0  0  0  0
  8  4  1  0  0  0  0
  8  3  2  0  0  0  0
  9 11  2  0  0  0  0
 10  5  2  0  0  0  0
 12 11  1  0  0  0  0
 13 14  1  0  0  0  0
 13  1  2  0  0  0  0
 14  6  1  0  0  0  0
 15 13  1  0  0  0  0
 16 15  1  0  0  0  0
 17 15  2  0  0  0  0
 18 24  1  0  0  0  0
 18  3  1  0  0  0  0
 19 21  1  0  0  0  0
 19 20  2  0  0  0  0
 21 25  1  0  0  0  0
 22 21  1  0  0  0  0
 23 25  1  0  0  0  0
 24 19  1  0  0  0  0
 27 23  1  0  0  0  0
 28 26  1  6  0  0  0
 28 22  1  0  0  0  0
 28 27  1  0  0  0  0
M  END
>  <MODEL>
3

>  <REMARK>
 VINA RESULT:      -9.2      2.502      3.874
  Name = 
  3 active torsions:
  status: ('A' for Active; 'I' for Inactive)
    1  A    between atoms: C_3  and  C_7
    2  A    between atoms: C_7  and  N_14
    3  A    between atoms: C_13  and  C_26
                            x       y       z     vdW  Elec       q    Type
                         _______ _______ _______ _____ _____    ______ ____

>  <TORSDO>
F 3

$$$$
=
 OpenBabel11072411183D

 28 31  0  0  1  0  0  0  0  0999 V2000
  161.2080  204.1640  147.9210 C   0  0  0  0  0  3  0  0  0  0  0  0
  161.4410  205.8340  149.7730 C   0  0  0  0  0  0  0  0  0  0  0  0
  161.6470  207.4490  151.7040 C   0  0  0  0  0  0  0  0  0  0  0  0
  161.1310  205.1020  152.0860 C   0  0  0  0  0  0  0  0  0  0  0  0
  160.9070  203.8000  151.6400 C   0  0  0  0  0  3  0  0  0  0  0  0
  161.8140  206.8370  148.7070 C   0  0  0  0  0  2  0  0  0  0  0  0
  161.2030  204.5060  149.3530 C   0  0  0  0  0  0  0  0  0  0  0  0
  161.4150  206.1500  151.1640 C   0  0  0  0  0  0  0  0  0  0  0  0
  161.5790  207.6470  153.0850 C   0  0  0  0  0  3  0  0  0  0  0  0
  160.9450  203.5030  150.2830 C   0  0  0  0  0  3  0  0  0  0  0  0
  161.2910  206.5850  153.9330 C   0  0  0  0  0  3  0  0  0  0  0  0
  161.0780  205.3480  153.4210 N   0  0  0  0  0  0  0  0  0  0  0  0
  161.2120  205.1200  146.9830 C   0  0  0  0  0  0  0  0  0  0  0  0
  161.0900  206.5640  147.3880 C   0  0  0  0  0  2  0  0  0  0  0  0
  161.2110  204.7630  145.5550 C   0  0  0  0  0  0  0  0  0  0  0  0
  161.1000  205.7560  144.5890 O   0  0  0  0  0  0  0  0  0  0  0  0
  161.3160  203.5590  145.1930 O   0  0  0  0  0  1  0  0  0  0  0  0
  161.9960  208.6510  150.8840 C   0  0  0  0  0  2  0  0  0  0  0  0
  161.2270  211.0700  150.8300 C   0  0  0  0  0  0  0  0  0  0  0  0
  161.4890  211.1650  149.6000 O   0  0  0  0  0  0  0  0  0  0  0  0
  160.6300  212.1700  151.5260 N   0  0  0  0  0  0  0  0  0  0  0  0
  160.3090  212.0460  152.8460 O   0  0  0  0  0  0  0  0  0  0  0  0
  159.2150  214.1480  151.6360 C   0  0  0  0  0  2  0  0  0  0  0  0
  161.5240  209.8640  151.5380 N   0  0  0  0  0  2  0  0  0  0  0  0
  160.2470  213.3870  150.8100 C   0  0  0  0  0  2  0  0  0  0  0  0
  158.4420  210.7780  152.3860 F   0  0  0  0  0  0  0  0  0  0  0  0
  158.2040  213.1670  152.2350 C   0  0  0  0  0  2  0  0  0  0  0  0
  158.8990  211.9710  152.9190 C   0  0  2  0  0  3  0  0  0  0  0  0
  1  7  1  0  0  0  0
  2  8  1  0  0  0  0
  3  9  1  0  0  0  0
  4 12  2  0  0  0  0
  5  4  1  0  0  0  0
  6  2  1  0  0  0  0
  7  2  2  0  0  0  0
  7 10  1  0  0  0  0
  8  3  2  0  0  0  0
  8  4  1  0  0  0  0
  9 11  2  0  0  0  0
 10  5  2  0  0  0  0
 12 11  1  0  0  0  0
 13 14  1  0  0  0  0
 13  1  2  0  0  0  0
 14  6  1  0  0  0  0
 15 13  1  0  0  0  0
 16 15  2  0  0  0  0
 17 15  1  0  0  0  0
 18 24  1  0  0  0  0
 18  3  1  0  0  0  0
 19 21  1  0  0  0  0
 19 24  1  0  0  0  0
 20 19  2  0  0  0  0
 21 22  1  0  0  0  0
 22 28  1  0  0  0  0
 23 27  1  0  0  0  0
 25 21  1  0  0  0  0
 25 23  1  0  0  0  0
 27 28  1  0  0  0  0
 28 26  1  6  0  0  0
M  END
>  <MODEL>
4

>  <REMARK>
 VINA RESULT:      -9.0      2.796      4.312
  Name = 
  3 active torsions:
  status: ('A' for Active; 'I' for Inactive)
    1  A    between atoms: C_3  and  C_7
    2  A    between atoms: C_7  and  N_14
    3  A    between atoms: C_13  and  C_26
                            x       y       z     vdW  Elec       q    Type
                         _______ _______ _______ _____ _____    ______ ____

>  <TORSDO>
F 3

$$$$
=
 OpenBabel11072411183D

 28 31  0  0  1  0  0  0  0  0999 V2000
  161.2900  203.6890  146.5890 C   0  0  0  0  0  3  0  0  0  0  0  0
  161.2610  204.5190  148.9520 C   0  0  0  0  0  0  0  0  0  0  0  0
  161.2060  205.2660  151.3640 C   0  0  0  0  0  0  0  0  0  0  0  0
  160.9130  202.9230  150.7730 C   0  0  0  0  0  0  0  0  0  0  0  0
  160.8440  201.8850  149.8450 C   0  0  0  0  0  3  0  0  0  0  0  0
  161.5820  205.8820  148.3880 C   0  0  0  0  0  2  0  0  0  0  0  0
  161.1800  203.4450  148.0370 C   0  0  0  0  0  0  0  0  0  0  0  0
  161.1350  204.2650  150.3500 C   0  0  0  0  0  0  0  0  0  0  0  0
  161.0510  204.9050  152.7040 C   0  0  0  0  0  3  0  0  0  0  0  0
  160.9790  202.1430  148.4860 C   0  0  0  0  0  3  0  0  0  0  0  0
  160.8310  203.5780  153.0530 C   0  0  0  0  0  3  0  0  0  0  0  0
  160.7700  202.6260  152.0910 N   0  0  0  0  0  0  0  0  0  0  0  0
  161.2430  204.9320  146.0920 C   0  0  0  0  0  0  0  0  0  0  0  0
  160.9550  206.0910  147.0080 C   0  0  0  0  0  2  0  0  0  0  0  0
  161.3490  205.1590  144.6420 C   0  0  0  0  0  0  0  0  0  0  0  0
  162.4440  205.8400  144.1230 O   0  0  0  0  0  1  0  0  0  0  0  0
  160.4560  204.7390  143.8580 O   0  0  0  0  0  0  0  0  0  0  0  0
  161.4720  206.7150  151.1000 C   0  0  0  0  0  2  0  0  0  0  0  0
  161.0180  208.7260  152.5820 C   0  0  0  0  0  0  0  0  0  0  0  0
  160.4560  209.3420  151.6360 O   0  0  0  0  0  0  0  0  0  0  0  0
  161.0710  209.3070  153.8890 N   0  0  0  0  0  0  0  0  0  0  0  0
  161.6410  208.6160  154.9190 O   0  0  0  0  0  0  0  0  0  0  0  0
  160.1860  210.7140  155.6680 C   0  0  0  0  0  2  0  0  0  0  0  0
  161.6040  207.4410  152.3550 N   0  0  0  0  0  2  0  0  0  0  0  0
  160.4130  210.5840  154.1650 C   0  0  0  0  0  2  0  0  0  0  0  0
  159.8130  207.2340  155.1480 F   0  0  0  0  0  0  0  0  0  0  0  0
  159.7070  209.3770  156.2380 C   0  0  0  0  0  2  0  0  0  0  0  0
  160.5880  208.2010  155.7650 C   0  0  2  0  0  3  0  0  0  0  0  0
  1  7  1  0  0  0  0
  2  8  1  0  0  0  0
  3  9  1  0  0  0  0
  4 12  2  0  0  0  0
  5  4  1  0  0  0  0
  6  2  1  0  0  0  0
  7 10  1  0  0  0  0
  7  2  2  0  0  0  0
  8  4  1  0  0  0  0
  8  3  2  0  0  0  0
  9 11  2  0  0  0  0
 10  5  2  0  0  0  0
 12 11  1  0  0  0  0
 13  1  2  0  0  0  0
 13 14  1  0  0  0  0
 14  6  1  0  0  0  0
 15 13  1  0  0  0  0
 16 15  1  0  0  0  0
 17 15  2  0  0  0  0
 18  3  1  0  0  0  0
 18 24  1  0  0  0  0
 19 21  1  0  0  0  0
 20 19  2  0  0  0  0
 21 25  1  0  0  0  0
 21 22  1  0  0  0  0
 22 28  1  0  0  0  0
 23 27  1  0  0  0  0
 24 19  1  0  0  0  0
 25 23  1  0  0  0  0
 28 26  1  6  0  0  0
 28 27  1  0  0  0  0
M  END
>  <MODEL>
5

>  <REMARK>
 VINA RESULT:      -8.9      2.663      4.244
  Name = 
  3 active torsions:
  status: ('A' for Active; 'I' for Inactive)
    1  A    between atoms: C_3  and  C_7
    2  A    between atoms: C_7  and  N_14
    3  A    between atoms: C_13  and  C_26
                            x       y       z     vdW  Elec       q    Type
                         _______ _______ _______ _____ _____    ______ ____

>  <TORSDO>
F 3

$$$$
=
 OpenBabel11072411183D

 28 31  0  0  1  0  0  0  0  0999 V2000
  161.4670  204.9340  148.4070 C   0  0  0  0  0  3  0  0  0  0  0  0
  161.3530  206.3500  150.4700 C   0  0  0  0  0  0  0  0  0  0  0  0
  161.2180  207.6960  152.6030 C   0  0  0  0  0  0  0  0  0  0  0  0
  161.0920  205.2660  152.6480 C   0  0  0  0  0  0  0  0  0  0  0  0
  161.1050  204.0190  152.0240 C   0  0  0  0  0  3  0  0  0  0  0  0
  161.5880  207.5370  149.5660 C   0  0  0  0  0  2  0  0  0  0  0  0
  161.3570  205.0710  149.8680 C   0  0  0  0  0  0  0  0  0  0  0  0
  161.2270  206.4630  151.8870 C   0  0  0  0  0  0  0  0  0  0  0  0
  161.0710  207.6890  153.9910 C   0  0  0  0  0  3  0  0  0  0  0  0
  161.2390  203.9210  150.6440 C   0  0  0  0  0  3  0  0  0  0  0  0
  160.9380  206.4880  154.6770 C   0  0  0  0  0  3  0  0  0  0  0  0
  160.9530  205.3150  153.9980 N   0  0  0  0  0  0  0  0  0  0  0  0
  161.3420  205.9970  147.6020 C   0  0  0  0  0  0  0  0  0  0  0  0
  160.9660  207.3330  148.1840 C   0  0  0  0  0  2  0  0  0  0  0  0
  161.4510  205.8440  146.1430 C   0  0  0  0  0  0  0  0  0  0  0  0
  162.6120  205.3240  145.5820 O   0  0  0  0  0  1  0  0  0  0  0  0
  160.4970  206.1760  145.3880 O   0  0  0  0  0  0  0  0  0  0  0  0
  161.3890  209.0400  151.9670 C   0  0  0  0  0  2  0  0  0  0  0  0
  160.1690  211.0360  152.9540 C   0  0  0  0  0  0  0  0  0  0  0  0
  159.3590  211.0660  151.9870 O   0  0  0  0  0  0  0  0  0  0  0  0
  160.0170  211.9470  154.0480 N   0  0  0  0  0  0  0  0  0  0  0  0
  160.8700  211.8810  155.1110 O   0  0  0  0  0  0  0  0  0  0  0  0
  158.6830  213.3330  155.5390 C   0  0  0  0  0  2  0  0  0  0  0  0
  161.2430  210.0930  152.9630 N   0  0  0  0  0  2  0  0  0  0  0  0
  158.8840  212.8700  154.1000 C   0  0  0  0  0  2  0  0  0  0  0  0
  159.8300  210.0140  155.9700 F   0  0  0  0  0  0  0  0  0  0  0  0
  158.8520  212.1490  156.4940 C   0  0  0  0  0  2  0  0  0  0  0  0
  160.1350  211.3460  156.1940 C   0  0  2  0  0  3  0  0  0  0  0  0
  1  7  1  0  0  0  0
  2  8  1  0  0  0  0
  3  9  1  0  0  0  0
  4 12  2  0  0  0  0
  5  4  1  0  0  0  0
  6  2  1  0  0  0  0
  7  2  2  0  0  0  0
  7 10  1  0  0  0  0
  8  3  2  0  0  0  0
  8  4  1  0  0  0  0
  9 11  2  0  0  0  0
 10  5  2  0  0  0  0
 12 11  1  0  0  0  0
 13 14  1  0  0  0  0
 13  1  2  0  0  0  0
 14  6  1  0  0  0  0
 15 13  1  0  0  0  0
 16 15  1  0  0  0  0
 17 15  2  0  0  0  0
 18  3  1  0  0  0  0
 18 24  1  0  0  0  0
 19 24  1  0  0  0  0
 19 21  1  0  0  0  0
 20 19  2  0  0  0  0
 21 25  1  0  0  0  0
 21 22  1  0  0  0  0
 22 28  1  0  0  0  0
 23 27  1  0  0  0  0
 25 23  1  0  0  0  0
 28 26  1  6  0  0  0
 28 27  1  0  0  0  0
M  END
>  <MODEL>
6

>  <REMARK>
 VINA RESULT:      -8.7      2.503      3.893
  Name = 
  3 active torsions:
  status: ('A' for Active; 'I' for Inactive)
    1  A    between atoms: C_3  and  C_7
    2  A    between atoms: C_7  and  N_14
    3  A    between atoms: C_13  and  C_26
                            x       y       z     vdW  Elec       q    Type
                         _______ _______ _______ _____ _____    ______ ____

>  <TORSDO>
F 3

$$$$
=
 OpenBabel11072411183D

 28 31  0  0  1  0  0  0  0  0999 V2000
  161.1910  204.0200  150.2050 C   0  0  0  0  0  3  0  0  0  0  0  0
  161.5760  206.4910  150.3470 C   0  0  0  0  0  0  0  0  0  0  0  0
  161.9380  208.9790  150.5830 C   0  0  0  0  0  0  0  0  0  0  0  0
  161.4000  207.6040  152.5180 C   0  0  0  0  0  0  0  0  0  0  0  0
  161.1210  206.3770  153.1190 C   0  0  0  0  0  3  0  0  0  0  0  0
  161.9010  206.4390  148.8730 C   0  0  0  0  0  2  0  0  0  0  0  0
  161.2850  205.2640  150.9860 C   0  0  0  0  0  0  0  0  0  0  0  0
  161.6460  207.6890  151.1170 C   0  0  0  0  0  0  0  0  0  0  0  0
  161.9630  210.0890  151.4300 C   0  0  0  0  0  3  0  0  0  0  0  0
  161.0660  205.2150  152.3590 C   0  0  0  0  0  3  0  0  0  0  0  0
  161.7080  209.9410  152.7880 C   0  0  0  0  0  3  0  0  0  0  0  0
  161.4380  208.7150  153.2980 N   0  0  0  0  0  0  0  0  0  0  0  0
  161.1540  204.0450  148.8670 C   0  0  0  0  0  0  0  0  0  0  0  0
  161.0880  205.3650  148.1470 C   0  0  0  0  0  2  0  0  0  0  0  0
  161.0550  202.7930  148.1000 C   0  0  0  0  0  0  0  0  0  0  0  0
  160.7370  201.6040  148.7470 O   0  0  0  0  0  1  0  0  0  0  0  0
  161.2520  202.7830  146.8550 O   0  0  0  0  0  0  0  0  0  0  0  0
  162.2590  209.2420  149.1450 C   0  0  0  0  0  2  0  0  0  0  0  0
  162.3320  211.5220  148.0300 C   0  0  0  0  0  0  0  0  0  0  0  0
  163.5850  211.4600  147.9020 O   0  0  0  0  0  0  0  0  0  0  0  0
  161.6080  212.6380  147.5010 N   0  0  0  0  0  0  0  0  0  0  0  0
  160.2480  212.6780  147.6040 O   0  0  0  0  0  0  0  0  0  0  0  0
  161.2780  214.4350  145.8920 C   0  0  0  0  0  2  0  0  0  0  0  0
  161.6260  210.4770  148.7040 N   0  0  0  0  0  2  0  0  0  0  0  0
  162.2960  213.6810  146.7410 C   0  0  0  0  0  2  0  0  0  0  0  0
  159.9650  211.1500  145.9040 F   0  0  0  0  0  0  0  0  0  0  0  0
  160.2910  213.4470  145.2660 C   0  0  0  0  0  2  0  0  0  0  0  0
  159.7320  212.4540  146.3070 C   0  0  2  0  0  3  0  0  0  0  0  0
  1  7  1  0  0  0  0
  2  7  2  0  0  0  0
  2  8  1  0  0  0  0
  3  8  2  0  0  0  0
  3  9  1  0  0  0  0
  4  5  1  0  0  0  0
  4 12  2  0  0  0  0
  6  2  1  0  0  0  0
  7 10  1  0  0  0  0
  8  4  1  0  0  0  0
  9 11  2  0  0  0  0
 10  5  2  0  0  0  0
 11 12  1  0  0  0  0
 13  1  2  0  0  0  0
 14 13  1  0  0  0  0
 14  6  1  0  0  0  0
 15 16  1  0  0  0  0
 15 13  1  0  0  0  0
 17 15  2  0  0  0  0
 18  3  1  0  0  0  0
 19 24  1  0  0  0  0
 20 19  2  0  0  0  0
 21 22  1  0  0  0  0
 21 19  1  0  0  0  0
 23 25  1  0  0  0  0
 24 18  1  0  0  0  0
 25 21  1  0  0  0  0
 27 23  1  0  0  0  0
 27 28  1  0  0  0  0
 28 26  1  6  0  0  0
 28 22  1  0  0  0  0
M  END
>  <MODEL>
7

>  <REMARK>
 VINA RESULT:      -8.7      3.628      5.943
  Name = 
  3 active torsions:
  status: ('A' for Active; 'I' for Inactive)
    1  A    between atoms: C_3  and  C_7
    2  A    between atoms: C_7  and  N_14
    3  A    between atoms: C_13  and  C_26
                            x       y       z     vdW  Elec       q    Type
                         _______ _______ _______ _____ _____    ______ ____

>  <TORSDO>
F 3

$$$$
=
 OpenBabel11072411183D

 28 31  0  0  1  0  0  0  0  0999 V2000
  160.9770  203.5340  148.5230 C   0  0  0  0  0  3  0  0  0  0  0  0
  161.2670  205.7240  149.7030 C   0  0  0  0  0  0  0  0  0  0  0  0
  161.5940  207.9710  150.8090 C   0  0  0  0  0  0  0  0  0  0  0  0
  161.9730  207.6850  148.4220 C   0  0  0  0  0  0  0  0  0  0  0  0
  161.9890  206.9150  147.2600 C   0  0  0  0  0  3  0  0  0  0  0  0
  160.7740  205.0230  150.9460 C   0  0  0  0  0  2  0  0  0  0  0  0
  161.2990  204.9700  148.5080 C   0  0  0  0  0  0  0  0  0  0  0  0
  161.6000  207.1110  149.6710 C   0  0  0  0  0  0  0  0  0  0  0  0
  161.9560  209.3120  150.6650 C   0  0  0  0  0  3  0  0  0  0  0  0
  161.6530  205.5680  147.3010 C   0  0  0  0  0  3  0  0  0  0  0  0
  162.3160  209.8110  149.4190 C   0  0  0  0  0  3  0  0  0  0  0  0
  162.3140  208.9970  148.3360 N   0  0  0  0  0  0  0  0  0  0  0  0
  160.8660  202.8630  149.6760 C   0  0  0  0  0  0  0  0  0  0  0  0
  161.1910  203.5510  150.9740 C   0  0  0  0  0  2  0  0  0  0  0  0
  160.5480  201.4260  149.6750 C   0  0  0  0  0  0  0  0  0  0  0  0
  161.0290  200.6080  148.6590 O   0  0  0  0  0  0  0  0  0  0  0  0
  159.8430  200.9220  150.5910 O   0  0  0  0  0  1  0  0  0  0  0  0
  161.1910  207.5430  152.1860 C   0  0  0  0  0  2  0  0  0  0  0  0
  160.7590  209.6740  153.4970 C   0  0  0  0  0  0  0  0  0  0  0  0
  159.7000  209.9000  152.8520 O   0  0  0  0  0  0  0  0  0  0  0  0
  161.1470  210.5390  154.5700 N   0  0  0  0  0  0  0  0  0  0  0  0
  162.2720  210.2640  155.2930 O   0  0  0  0  0  0  0  0  0  0  0  0
  160.6580  212.0650  156.4020 C   0  0  0  0  0  2  0  0  0  0  0  0
  161.5800  208.5510  153.1620 N   0  0  0  0  0  2  0  0  0  0  0  0
  160.2880  211.6480  154.9820 C   0  0  0  0  0  2  0  0  0  0  0  0
  161.2360  208.5750  156.4680 F   0  0  0  0  0  0  0  0  0  0  0  0
  160.9030  210.8230  157.2610 C   0  0  0  0  0  2  0  0  0  0  0  0
  161.8420  209.8160  156.5630 C   0  0  2  0  0  3  0  0  0  0  0  0
  1 13  2  0  0  0  0
  2  6  1  0  0  0  0
  3 18  1  0  0  0  0
  4  8  1  0  0  0  0
  5 10  2  0  0  0  0
  5  4  1  0  0  0  0
  6 14  1  0  0  0  0
  7  1  1  0  0  0  0
  7  2  2  0  0  0  0
  8  2  1  0  0  0  0
  8  3  2  0  0  0  0
  9  3  1  0  0  0  0
 10  7  1  0  0  0  0
 11  9  2  0  0  0  0
 12  4  2  0  0  0  0
 12 11  1  0  0  0  0
 13 14  1  0  0  0  0
 15 13  1  0  0  0  0
 15 17  1  0  0  0  0
 16 15  2  0  0  0  0
 18 24  1  0  0  0  0
 19 21  1  0  0  0  0
 20 19  2  0  0  0  0
 21 25  1  0  0  0  0
 21 22  1  0  0  0  0
 22 28  1  0  0  0  0
 23 27  1  0  0  0  0
 24 19  1  0  0  0  0
 25 23  1  0  0  0  0
 28 26  1  6  0  0  0
 28 27  1  0  0  0  0
M  END
>  <MODEL>
8

>  <REMARK>
 VINA RESULT:      -8.6      1.211      1.599
  Name = 
  3 active torsions:
  status: ('A' for Active; 'I' for Inactive)
    1  A    between atoms: C_3  and  C_7
    2  A    between atoms: C_7  and  N_14
    3  A    between atoms: C_13  and  C_26
                            x       y       z     vdW  Elec       q    Type
                         _______ _______ _______ _____ _____    ______ ____

>  <TORSDO>
F 3

$$$$
=
 OpenBabel11072411183D

 28 31  0  0  1  0  0  0  0  0999 V2000
  161.5730  210.6990  150.6800 C   0  0  0  0  0  3  0  0  0  0  0  0
  161.4920  208.1980  150.5810 C   0  0  0  0  0  0  0  0  0  0  0  0
  161.4100  205.6730  150.5790 C   0  0  0  0  0  0  0  0  0  0  0  0
  161.2040  206.9300  152.6530 C   0  0  0  0  0  0  0  0  0  0  0  0
  161.1410  208.1240  153.3700 C   0  0  0  0  0  3  0  0  0  0  0  0
  161.5860  208.3390  149.0800 C   0  0  0  0  0  2  0  0  0  0  0  0
  161.4300  209.3900  151.3380 C   0  0  0  0  0  0  0  0  0  0  0  0
  161.3700  206.9370  151.2390 C   0  0  0  0  0  0  0  0  0  0  0  0
  161.2970  204.4990  151.3270 C   0  0  0  0  0  3  0  0  0  0  0  0
  161.2510  209.3460  152.7170 C   0  0  0  0  0  3  0  0  0  0  0  0
  161.1430  204.5580  152.7070 C   0  0  0  0  0  3  0  0  0  0  0  0
  161.0980  205.7590  153.3330 N   0  0  0  0  0  0  0  0  0  0  0  0
  161.9830  210.7930  149.4090 C   0  0  0  0  0  0  0  0  0  0  0  0
  162.4190  209.5550  148.6720 C   0  0  0  0  0  2  0  0  0  0  0  0
  162.1250  212.1090  148.7660 C   0  0  0  0  0  0  0  0  0  0  0  0
  163.2220  212.3720  147.9550 O   0  0  0  0  0  0  0  0  0  0  0  0
  161.2570  213.0070  148.9390 O   0  0  0  0  0  1  0  0  0  0  0  0
  161.5380  205.5000  149.0980 C   0  0  0  0  0  2  0  0  0  0  0  0
  161.1220  203.6900  147.3660 C   0  0  0  0  0  0  0  0  0  0  0  0
  161.6170  204.4020  146.4500 O   0  0  0  0  0  0  0  0  0  0  0  0
  160.6880  202.3560  147.0850 N   0  0  0  0  0  0  0  0  0  0  0  0
  160.1940  201.5750  148.0900 O   0  0  0  0  0  0  0  0  0  0  0  0
  160.8110  200.2520  145.8660 C   0  0  0  0  0  2  0  0  0  0  0  0
  160.9940  204.2110  148.6920 N   0  0  0  0  0  2  0  0  0  0  0  0
  160.8770  201.7720  145.7580 C   0  0  0  0  0  2  0  0  0  0  0  0
  162.2920  201.1620  148.9470 F   0  0  0  0  0  0  0  0  0  0  0  0
  161.5710  199.7870  147.1090 C   0  0  0  0  0  2  0  0  0  0  0  0
  161.1730  200.5920  148.3640 C   0  0  2  0  0  3  0  0  0  0  0  0
  1  7  1  0  0  0  0
  2  8  2  0  0  0  0
  2  7  1  0  0  0  0
  3  8  1  0  0  0  0
  3  9  2  0  0  0  0
  4 12  1  0  0  0  0
  4  5  2  0  0  0  0
  6  2  1  0  0  0  0
  7 10  2  0  0  0  0
  8  4  1  0  0  0  0
  9 11  1  0  0  0  0
 10  5  1  0  0  0  0
 11 12  2  0  0  0  0
 13  1  2  0  0  0  0
 14  6  1  0  0  0  0
 14 13  1  0  0  0  0
 15 17  1  0  0  0  0
 15 13  1  0  0  0  0
 16 15  2  0  0  0  0
 18  3  1  0  0  0  0
 19 24  1  0  0  0  0
 20 19  2  0  0  0  0
 21 19  1  0  0  0  0
 21 22  1  0  0  0  0
 22 28  1  0  0  0  0
 23 27  1  0  0  0  0
 24 18  1  0  0  0  0
 25 23  1  0  0  0  0
 25 21  1  0  0  0  0
 27 28  1  0  0  0  0
 28 26  1  6  0  0  0
M  END
>  <MODEL>
9

>  <REMARK>
 VINA RESULT:      -8.5      3.814      8.934
  Name = 
  3 active torsions:
  status: ('A' for Active; 'I' for Inactive)
    1  A    between atoms: C_3  and  C_7
    2  A    between atoms: C_7  and  N_14
    3  A    between atoms: C_13  and  C_26
                            x       y       z     vdW  Elec       q    Type
                         _______ _______ _______ _____ _____    ______ ____

>  <TORSDO>
F 3

$$$$
