=
 OpenBabel11072410483D

 38 43  0  0  1  0  0  0  0  0999 V2000
  159.4150  213.9220  155.1010 O   0  0  0  0  0  0  0  0  0  0  0  0
  157.7410  214.4530  157.2590 C   0  0  0  0  0  1  0  0  0  0  0  0
  162.2120  206.9600  151.3010 C   0  0  0  0  0  3  0  0  0  0  0  0
  161.7720  208.1240  150.7820 C   0  0  0  0  0  0  0  0  0  0  0  0
  159.4740  206.6050  156.6200 O   0  0  0  0  0  0  0  0  0  0  0  0
  161.4040  210.7690  155.1300 C   0  0  0  0  0  3  0  0  0  0  0  0
  161.8530  206.6510  152.6880 C   0  0  1  0  0  3  0  0  0  0  0  0
  159.6420  212.1720  152.2780 C   0  0  0  0  0  2  0  0  0  0  0  0
  160.6540  211.9400  154.5640 C   0  0  1  0  0  3  0  0  0  0  0  0
  157.0720  212.3700  153.5470 C   0  0  0  0  0  2  0  0  0  0  0  0
  161.4460  207.7280  153.6210 C   0  0  2  0  0  3  0  0  0  0  0  0
  159.5130  211.4980  153.6460 C   0  0  1  0  0  3  0  0  0  0  0  0
  160.8050  209.7890  155.7600 C   0  0  0  0  0  0  0  0  0  0  0  0
  155.7360  212.1590  154.2510 C   0  0  0  0  0  2  0  0  0  0  0  0
  160.7530  205.6520  154.3640 N   0  0  0  0  0  0  0  0  0  0  0  0
  161.4320  205.4790  153.1240 C   0  0  0  0  0  2  0  0  0  0  0  0
  160.0710  210.0950  150.9270 C   0  0  0  0  0  2  0  0  0  0  0  0
  160.8200  208.9730  151.5710 C   0  0  0  0  0  0  0  0  0  0  0  0
  155.5900  213.0310  155.4930 C   0  0  0  0  0  2  0  0  0  0  0  0
  160.1030  207.4210  155.8970 C   0  0  0  0  0  0  0  0  0  0  0  0
  160.0700  212.8100  155.6750 C   0  0  2  0  0  3  0  0  0  0  0  0
  160.1920  208.8160  156.3800 C   0  0  0  0  0  3  0  0  0  0  0  0
  157.7890  213.0090  156.7780 C   0  0  1  0  0  3  0  0  0  0  0  0
  156.3700  212.4430  156.6660 C   0  0  0  0  0  2  0  0  0  0  0  0
  160.7110  206.9180  154.6390 C   0  0  0  0  0  0  0  0  0  0  0  0
  160.5940  208.7130  152.8710 C   0  0  0  0  0  3  0  0  0  0  0  0
  158.2280  211.8500  154.3970 C   0  0  1  0  0  3  0  0  0  0  0  0
  158.6080  212.8360  155.4880 C   0  0  1  0  0  0  0  0  0  0  0  0
  160.6320  211.4380  151.3820 C   0  0  0  0  0  2  0  0  0  0  0  0
  162.0880  208.4890  149.3560 C   0  0  1  0  0  3  0  0  0  0  0  0
  162.7420  209.8580  149.2200 C   0  0  0  0  0  1  0  0  0  0  0  0
  162.8600  207.3940  148.6200 C   0  0  0  0  0  2  0  0  0  0  0  0
  162.1890  206.9790  147.3180 C   0  0  0  0  0  2  0  0  0  0  0  0
  160.9140  206.2010  147.6010 C   0  0  1  0  0  3  0  0  0  0  0  0
  160.1540  206.1280  146.4350 O   0  0  0  0  0  1  0  0  0  0  0  0
  161.8870  204.0590  147.3950 O   0  0  0  0  0  0  0  0  0  0  0  0
  161.2340  204.8190  148.0920 C   0  0  0  0  0  0  0  0  0  0  0  0
  160.8220  204.4110  149.3210 F   0  0  0  0  0  0  0  0  0  0  0  0
  4  3  2  0  0  0  0
  4 18  1  0  0  0  0
  6 13  2  0  0  0  0
  7  3  1  6  0  0  0
  7 16  1  0  0  0  0
  7 11  1  0  0  0  0
  9  6  1  1  0  0  0
  9 21  1  0  0  0  0
 10 14  1  0  0  0  0
 11 26  1  6  0  0  0
 11 25  1  0  0  0  0
 12  8  1  6  0  0  0
 12 27  1  0  0  0  0
 12  9  1  0  0  0  0
 13 22  2  0  0  0  0
 14 19  1  0  0  0  0
 15 25  2  0  0  0  0
 16 15  1  0  0  0  0
 17 29  1  0  0  0  0
 17 18  1  0  0  0  0
 18 26  2  0  0  0  0
 19 24  1  0  0  0  0
 20 22  1  0  0  0  0
 20  5  2  0  0  0  0
 21  1  1  6  0  0  0
 23  2  1  6  0  0  0
 24 23  1  0  0  0  0
 25 20  1  0  0  0  0
 27 10  1  6  0  0  0
 27 28  1  0  0  0  0
 28  1  1  6  0  0  0
 28 21  1  0  0  0  0
 28 23  1  0  0  0  0
 29  8  1  0  0  0  0
 30 31  1  1  0  0  0
 30  4  1  0  0  0  0
 32 30  1  0  0  0  0
 33 34  1  0  0  0  0
 33 32  1  0  0  0  0
 34 35  1  6  0  0  0
 34 37  1  0  0  0  0
 36 37  2  0  0  0  0
 37 38  1  0  0  0  0
M  END
>  <MODEL>
1

>  <REMARK>
 VINA RESULT:      -4.3      0.000      0.000
  Name = 
  5 active torsions:
  status: ('A' for Active; 'I' for Inactive)
    1  A    between atoms: C_4  and  C_6
    2  A    between atoms: C_6  and  C_28
    3  A    between atoms: C_11  and  C_22
    4  A    between atoms: C_11  and  C_24
    5  A    between atoms: C_24  and  C_28
                            x       y       z     vdW  Elec       q    Type
                         _______ _______ _______ _____ _____    ______ ____

>  <TORSDO>
F 5

$$$$
=
 OpenBabel11072410483D

 38 43  0  0  1  0  0  0  0  0999 V2000
  159.3620  210.1350  156.2680 O   0  0  0  0  0  0  0  0  0  0  0  0
  159.9620  212.6810  157.2160 C   0  0  0  0  0  1  0  0  0  0  0  0
  161.4300  205.6790  149.4410 C   0  0  0  0  0  3  0  0  0  0  0  0
  161.3440  205.3100  150.7350 C   0  0  0  0  0  0  0  0  0  0  0  0
  162.5820  211.5560  149.6750 O   0  0  0  0  0  0  0  0  0  0  0  0
  159.2690  209.5900  152.5810 C   0  0  0  0  0  3  0  0  0  0  0  0
  161.5430  207.1100  149.1450 C   0  0  1  0  0  3  0  0  0  0  0  0
  160.7360  207.3590  155.0460 C   0  0  0  0  0  2  0  0  0  0  0  0
  159.4490  209.2630  154.0350 C   0  0  1  0  0  3  0  0  0  0  0  0
  162.4650  209.3060  156.2610 C   0  0  0  0  0  2  0  0  0  0  0  0
  161.1170  208.1230  150.1390 C   0  0  2  0  0  3  0  0  0  0  0  0
  160.8440  208.7050  154.3270 C   0  0  1  0  0  3  0  0  0  0  0  0
  160.1010  210.3620  151.9260 C   0  0  0  0  0  0  0  0  0  0  0  0
  163.5090  210.3600  156.6130 C   0  0  0  0  0  2  0  0  0  0  0  0
  162.5450  209.0270  148.5620 N   0  0  0  0  0  0  0  0  0  0  0  0
  162.3700  207.6450  148.2660 C   0  0  0  0  0  2  0  0  0  0  0  0
  161.7430  205.9360  153.2340 C   0  0  0  0  0  2  0  0  0  0  0  0
  161.5200  206.3380  151.8110 C   0  0  0  0  0  0  0  0  0  0  0  0
  162.8930  211.5950  157.2610 C   0  0  0  0  0  2  0  0  0  0  0  0
  161.8290  210.6850  150.1870 C   0  0  0  0  0  0  0  0  0  0  0  0
  159.2300  210.4970  154.9080 C   0  0  2  0  0  3  0  0  0  0  0  0
  160.9430  211.1270  151.2840 C   0  0  0  0  0  3  0  0  0  0  0  0
  160.7590  212.2030  156.0100 C   0  0  1  0  0  3  0  0  0  0  0  0
  162.2490  212.4970  156.2100 C   0  0  0  0  0  2  0  0  0  0  0  0
  161.8820  209.3060  149.6410 C   0  0  0  0  0  0  0  0  0  0  0  0
  161.5200  207.6480  151.5070 C   0  0  0  0  0  3  0  0  0  0  0  0
  161.5530  209.7910  155.1370 C   0  0  1  0  0  3  0  0  0  0  0  0
  160.4800  210.7330  155.6540 C   0  0  1  0  0  0  0  0  0  0  0  0
  160.4970  206.2170  154.0670 C   0  0  0  0  0  2  0  0  0  0  0  0
  161.2490  203.8540  151.1060 C   0  0  1  0  0  3  0  0  0  0  0  0
  160.8410  203.6310  152.5560 C   0  0  0  0  0  1  0  0  0  0  0  0
  160.3970  203.0460  150.1260 C   0  0  0  0  0  2  0  0  0  0  0  0
  161.2350  202.1650  149.2090 C   0  0  0  0  0  2  0  0  0  0  0  0
  160.9590  202.5000  147.7530 C   0  0  1  0  0  3  0  0  0  0  0  0
  161.9280  203.3940  147.2970 O   0  0  0  0  0  1  0  0  0  0  0  0
  160.5330  201.2860  145.7730 O   0  0  0  0  0  0  0  0  0  0  0  0
  160.9730  201.2580  146.9110 C   0  0  0  0  0  0  0  0  0  0  0  0
  161.4940  200.1000  147.3970 F   0  0  0  0  0  0  0  0  0  0  0  0
  3  4  2  0  0  0  0
  4 30  1  0  0  0  0
  4 18  1  0  0  0  0
  5 20  2  0  0  0  0
  7 16  1  1  0  0  0
  7  3  1  0  0  0  0
  7 11  1  0  0  0  0
  9  6  1  6  0  0  0
  9 12  1  0  0  0  0
  9 21  1  0  0  0  0
 10 14  1  0  0  0  0
 11 26  1  1  0  0  0
 12  8  1  1  0  0  0
 12 27  1  0  0  0  0
 13  6  2  0  0  0  0
 14 19  1  0  0  0  0
 15 25  2  0  0  0  0
 16 15  1  0  0  0  0
 17 29  1  0  0  0  0
 18 17  1  0  0  0  0
 20 22  1  0  0  0  0
 21 28  1  0  0  0  0
 21  1  1  1  0  0  0
 22 13  2  0  0  0  0
 23 24  1  0  0  0  0
 23  2  1  1  0  0  0
 24 19  1  0  0  0  0
 25 11  1  0  0  0  0
 25 20  1  0  0  0  0
 26 18  2  0  0  0  0
 27 28  1  0  0  0  0
 27 10  1  1  0  0  0
 28 23  1  0  0  0  0
 28  1  1  1  0  0  0
 29  8  1  0  0  0  0
 30 31  1  1  0  0  0
 32 30  1  0  0  0  0
 33 32  1  0  0  0  0
 34 35  1  6  0  0  0
 34 33  1  0  0  0  0
 36 37  2  0  0  0  0
 37 38  1  0  0  0  0
 37 34  1  0  0  0  0
M  END
>  <MODEL>
2

>  <REMARK>
 VINA RESULT:      -2.7      2.531      4.973
  Name = 
  5 active torsions:
  status: ('A' for Active; 'I' for Inactive)
    1  A    between atoms: C_4  and  C_6
    2  A    between atoms: C_6  and  C_28
    3  A    between atoms: C_11  and  C_22
    4  A    between atoms: C_11  and  C_24
    5  A    between atoms: C_24  and  C_28
                            x       y       z     vdW  Elec       q    Type
                         _______ _______ _______ _____ _____    ______ ____

>  <TORSDO>
F 5

$$$$
=
 OpenBabel11072410483D

 38 43  0  0  1  0  0  0  0  0999 V2000
  162.5150  210.4790  153.2120 O   0  0  0  0  0  0  0  0  0  0  0  0
  161.5430  211.0790  155.7490 C   0  0  0  0  0  1  0  0  0  0  0  0
  161.5230  204.1170  147.8000 C   0  0  0  0  0  3  0  0  0  0  0  0
  161.5550  205.4490  147.5900 C   0  0  0  0  0  0  0  0  0  0  0  0
  159.6570  203.5780  153.4700 O   0  0  0  0  0  0  0  0  0  0  0  0
  162.9530  206.8960  152.2800 C   0  0  0  0  0  3  0  0  0  0  0  0
  161.2610  203.6470  149.1630 C   0  0  0  0  0  0  0  0  0  0  0  0
  161.5830  209.5150  150.1650 C   0  0  0  0  0  2  0  0  0  0  0  0
  162.7040  208.3650  152.0950 C   0  0  1  0  0  3  0  0  0  0  0  0
  159.5450  210.3810  151.9950 C   0  0  0  0  0  2  0  0  0  0  0  0
  161.4860  204.5380  150.3260 C   0  0  2  0  0  3  0  0  0  0  0  0
  161.3690  208.6350  151.3980 C   0  0  1  0  0  3  0  0  0  0  0  0
  162.0860  206.1040  152.8610 C   0  0  0  0  0  0  0  0  0  0  0  0
  158.3570  210.5390  152.9390 C   0  0  0  0  0  2  0  0  0  0  0  0
  160.0830  202.7790  150.8600 N   0  0  0  0  0  0  0  0  0  0  0  0
  160.4450  202.6610  149.4870 C   0  0  0  0  0  3  0  0  0  0  0  0
  160.8950  207.8260  148.4330 C   0  0  0  0  0  2  0  0  0  0  0  0
  161.1750  206.3820  148.7010 C   0  0  0  0  0  0  0  0  0  0  0  0
  158.7690  211.0720  154.3070 C   0  0  0  0  0  2  0  0  0  0  0  0
  160.4680  204.2360  152.7660 C   0  0  0  0  0  0  0  0  0  0  0  0
  162.7060  209.0970  153.4360 C   0  0  2  0  0  3  0  0  0  0  0  0
  161.2090  205.3250  153.4360 C   0  0  0  0  0  3  0  0  0  0  0  0
  160.9030  209.8910  155.0420 C   0  0  1  0  0  3  0  0  0  0  0  0
  159.3780  209.9640  155.1620 C   0  0  0  0  0  2  0  0  0  0  0  0
  160.6240  203.8560  151.3390 C   0  0  0  0  0  0  0  0  0  0  0  0
  161.0410  205.9250  149.9580 C   0  0  0  0  0  3  0  0  0  0  0  0
  160.4740  209.2640  152.4670 C   0  0  1  0  0  3  0  0  0  0  0  0
  161.3840  209.7310  153.5900 C   0  0  1  0  0  0  0  0  0  0  0  0
  162.0320  208.6940  148.9610 C   0  0  0  0  0  2  0  0  0  0  0  0
  161.7970  205.9960  146.2090 C   0  0  1  0  0  3  0  0  0  0  0  0
  163.0710  205.4610  145.5680 C   0  0  0  0  0  1  0  0  0  0  0  0
  160.5790  205.8590  145.2950 C   0  0  0  0  0  2  0  0  0  0  0  0
  160.6680  204.6450  144.3780 C   0  0  0  0  0  2  0  0  0  0  0  0
  159.6530  203.5920  144.7910 C   0  0  1  0  0  3  0  0  0  0  0  0
  158.7290  203.4200  143.7610 O   0  0  0  0  0  1  0  0  0  0  0  0
  159.7760  201.2340  144.8320 O   0  0  0  0  0  0  0  0  0  0  0  0
  160.3330  202.2890  145.0930 C   0  0  0  0  0  0  0  0  0  0  0  0
  161.5790  202.2700  145.6360 F   0  0  0  0  0  0  0  0  0  0  0  0
  3  7  1  0  0  0  0
  4  3  2  0  0  0  0
  4 18  1  0  0  0  0
  6 13  2  0  0  0  0
  7 16  2  0  0  0  0
  7 11  1  0  0  0  0
  9  6  1  1  0  0  0
  9 21  1  0  0  0  0
 10 14  1  0  0  0  0
 11 26  1  6  0  0  0
 11 25  1  0  0  0  0
 12  8  1  6  0  0  0
 12  9  1  0  0  0  0
 12 27  1  0  0  0  0
 13 22  2  0  0  0  0
 14 19  1  0  0  0  0
 15 25  2  0  0  0  0
 16 15  1  0  0  0  0
 17 18  1  0  0  0  0
 17 29  1  0  0  0  0
 18 26  2  0  0  0  0
 19 24  1  0  0  0  0
 20 22  1  0  0  0  0
 20  5  2  0  0  0  0
 21  1  1  6  0  0  0
 21 28  1  0  0  0  0
 23 24  1  0  0  0  0
 23  2  1  6  0  0  0
 25 20  1  0  0  0  0
 27 10  1  6  0  0  0
 27 28  1  0  0  0  0
 28  1  1  6  0  0  0
 28 23  1  0  0  0  0
 29  8  1  0  0  0  0
 30 31  1  6  0  0  0
 30  4  1  0  0  0  0
 32 30  1  0  0  0  0
 33 34  1  0  0  0  0
 33 32  1  0  0  0  0
 34 35  1  6  0  0  0
 34 37  1  0  0  0  0
 36 37  2  0  0  0  0
 37 38  1  0  0  0  0
M  END
>  <MODEL>
3

>  <REMARK>
 VINA RESULT:      -2.5      2.564      4.394
  Name = 
  5 active torsions:
  status: ('A' for Active; 'I' for Inactive)
    1  A    between atoms: C_4  and  C_6
    2  A    between atoms: C_6  and  C_28
    3  A    between atoms: C_11  and  C_22
    4  A    between atoms: C_11  and  C_24
    5  A    between atoms: C_24  and  C_28
                            x       y       z     vdW  Elec       q    Type
                         _______ _______ _______ _____ _____    ______ ____

>  <TORSDO>
F 5

$$$$
