=
 OpenBabel11072410453D

 38 40  0  0  1  0  0  0  0  0999 V2000
  161.9340  211.1590  155.2500 O   0  0  0  0  0  0  0  0  0  0  0  0
  157.3660  210.5070  155.6060 O   0  0  0  0  0  0  0  0  0  0  0  0
  160.8200  210.5770  155.3370 C   0  0  0  0  0  0  0  0  0  0  0  0
  159.5790  211.2670  155.3380 N   0  0  0  0  0  0  0  0  0  0  0  0
  158.6040  210.2830  155.6410 C   0  0  0  0  0  0  0  0  0  0  0  0
  160.6700  209.0990  155.4920 C   0  0  1  0  0  3  0  0  0  0  0  0
  159.1970  208.9430  155.9350 C   0  0  0  0  0  2  0  0  0  0  0  0
  161.1290  207.0020  151.7720 N   0  0  0  0  0  0  0  0  0  0  0  0
  160.9360  208.4250  154.1650 C   0  0  0  0  0  0  0  0  0  0  0  0
  161.3870  207.0190  154.1590 C   0  0  0  0  0  3  0  0  0  0  0  0
  161.1480  208.4610  151.6800 C   0  0  0  0  0  2  0  0  0  0  0  0
  160.8240  209.0950  153.0070 C   0  0  0  0  0  3  0  0  0  0  0  0
  161.4770  206.3500  153.0070 C   0  0  0  0  0  3  0  0  0  0  0  0
  160.8090  206.2460  150.5630 C   0  0  1  0  0  3  0  0  0  0  0  0
  160.9710  207.2400  149.0590 S   0  0  0  0  0  3  0  0  0  0  0  0
  160.3860  206.3350  147.9850 O   0  0  0  0  0  1  0  0  0  0  0  0
  162.6460  207.1870  148.7400 O   0  0  0  0  0  1  0  0  0  0  0  0
  161.5790  204.9250  150.4770 C   0  0  0  0  0  2  0  0  0  0  0  0
  160.6780  203.7020  150.5030 C   0  0  2  0  0  3  0  0  0  0  0  0
  161.0380  202.8520  151.7050 C   0  0  0  0  0  1  0  0  0  0  0  0
  161.0760  200.8330  148.2380 N   0  0  0  0  0  2  0  0  0  0  0  0
  160.9490  201.5120  149.3270 C   0  0  0  0  0  3  0  0  0  0  0  0
  160.8650  202.9360  149.2790 N   0  0  0  0  0  2  0  0  0  0  0  0
  159.2820  212.5690  154.7370 C   0  0  1  0  0  3  0  0  0  0  0  0
  159.8400  213.7240  155.5590 C   0  0  0  0  0  1  0  0  0  0  0  0
  159.6300  212.5990  153.2380 C   0  0  0  0  0  2  0  0  0  0  0  0
  158.6490  213.3050  152.4190 N   0  0  0  0  0  0  0  0  0  0  0  0
  157.7400  213.3600  150.1590 C   0  0  0  0  0  3  0  0  0  0  0  0
  162.1520  212.1290  148.9720 Cl  0  0  0  0  0  0  0  0  0  0  0  0
  160.6760  212.9920  149.3320 C   0  0  0  0  0  0  0  0  0  0  0  0
  158.8400  214.1760  148.0910 C   0  0  0  0  0  3  0  0  0  0  0  0
  156.5110  213.4990  148.2190 F   0  0  0  0  0  0  0  0  0  0  0  0
  160.1420  212.8360  150.5440 C   0  0  0  0  0  3  0  0  0  0  0  0
  160.1320  213.8940  148.2970 C   0  0  0  0  0  3  0  0  0  0  0  0
  158.9460  213.6000  151.0180 C   0  0  2  0  0  3  0  0  0  0  0  0
  157.6930  213.6510  148.8600 C   0  0  0  0  0  0  0  0  0  0  0  0
  157.3570  213.4900  152.9410 C   0  0  0  0  0  0  0  0  0  0  0  0
  156.2910  213.6450  153.3680 N   0  0  0  0  0  0  0  0  0  0  0  0
  1  3  2  0  0  0  0
  2  5  2  0  0  0  0
  3  4  1  0  0  0  0
  3  6  1  0  0  0  0
  4  5  1  0  0  0  0
  5  7  1  0  0  0  0
  6  9  1  6  0  0  0
  6  7  1  0  0  0  0
  8 13  1  0  0  0  0
 10  9  1  0  0  0  0
 11  8  1  0  0  0  0
 11 12  1  0  0  0  0
 12  9  2  0  0  0  0
 13 10  2  0  0  0  0
 14 18  1  6  0  0  0
 14  8  1  0  0  0  0
 15 14  1  0  0  0  0
 16 15  1  0  0  0  0
 17 15  1  0  0  0  0
 18 19  1  0  0  0  0
 19 20  1  1  0  0  0
 21 22  2  0  0  0  0
 23 22  1  0  0  0  0
 23 19  1  0  0  0  0
 24  4  1  0  0  0  0
 24 25  1  1  0  0  0
 26 24  1  0  0  0  0
 27 37  1  0  0  0  0
 27 26  1  0  0  0  0
 28 35  1  0  0  0  0
 29 30  1  0  0  0  0
 30 33  2  0  0  0  0
 31 34  2  0  0  0  0
 31 36  1  0  0  0  0
 32 36  1  0  0  0  0
 33 35  1  0  0  0  0
 34 30  1  0  0  0  0
 35 27  1  1  0  0  0
 36 28  2  0  0  0  0
 37 38  3  0  0  0  0
M  END
>  <MODEL>
1

>  <REMARK>
 VINA RESULT:      -6.8      0.000      0.000
  Name = 
  11 active torsions:
  status: ('A' for Active; 'I' for Inactive)
    1  A    between atoms: C_1  and  C_15
    2  A    between atoms: C_1  and  C_19
    3  A    between atoms: N_3  and  C_15
    4  A    between atoms: S_4  and  C_15
    5  A    between atoms: C_6  and  C_37
    6  A    between atoms: N_11  and  C_14
    7  A    between atoms: N_11  and  C_22
    8  A    between atoms: N_11  and  C_31
    9  A    between atoms: C_12  and  N_29
   10  A    between atoms: C_12  and  C_31
   11  A    between atoms: C_19  and  N_32
                            x       y       z     vdW  Elec       q    Type
                         _______ _______ _______ _____ _____    ______ ____

>  <TORSDO>
F 11

$$$$
=
 OpenBabel11072410453D

 38 40  0  0  1  0  0  0  0  0999 V2000
  161.4410  206.9160  153.3960 O   0  0  0  0  0  0  0  0  0  0  0  0
  162.2150  208.9310  149.3010 O   0  0  0  0  0  0  0  0  0  0  0  0
  161.6690  207.8060  152.5330 C   0  0  0  0  0  0  0  0  0  0  0  0
  161.7050  207.5470  151.1370 N   0  0  0  0  0  0  0  0  0  0  0  0
  162.1730  208.7480  150.5460 C   0  0  0  0  0  0  0  0  0  0  0  0
  161.9700  209.2290  152.8750 C   0  0  1  0  0  3  0  0  0  0  0  0
  162.5400  209.7910  151.5520 C   0  0  0  0  0  2  0  0  0  0  0  0
  158.5410  211.4400  154.2170 N   0  0  0  0  0  0  0  0  0  0  0  0
  160.6930  209.9280  153.2820 C   0  0  0  0  0  0  0  0  0  0  0  0
  160.2060  209.7700  154.6680 C   0  0  0  0  0  3  0  0  0  0  0  0
  158.6650  211.2850  152.7680 C   0  0  0  0  0  2  0  0  0  0  0  0
  159.9730  210.6380  152.3990 C   0  0  0  0  0  3  0  0  0  0  0  0
  159.1760  210.4980  155.1010 C   0  0  0  0  0  3  0  0  0  0  0  0
  157.7120  212.5320  154.7180 C   0  0  1  0  0  3  0  0  0  0  0  0
  158.1630  213.0330  156.3990 S   0  0  0  0  0  3  0  0  0  0  0  0
  157.2510  214.2220  156.6590 O   0  0  0  0  0  1  0  0  0  0  0  0
  159.6930  213.7580  156.1870 O   0  0  0  0  0  1  0  0  0  0  0  0
  157.6560  213.7180  153.7500 C   0  0  0  0  0  2  0  0  0  0  0  0
  156.2430  214.1970  153.4680 C   0  0  2  0  0  3  0  0  0  0  0  0
  155.2630  213.1290  153.9120 C   0  0  0  0  0  1  0  0  0  0  0  0
  156.9770  214.2760  149.8660 N   0  0  0  0  0  2  0  0  0  0  0  0
  157.1280  214.0870  151.1330 C   0  0  0  0  0  3  0  0  0  0  0  0
  156.0910  214.4490  152.0430 N   0  0  0  0  0  2  0  0  0  0  0  0
  161.0130  206.4810  150.4100 C   0  0  1  0  0  3  0  0  0  0  0  0
  160.2700  207.0060  149.1880 C   0  0  0  0  0  1  0  0  0  0  0  0
  161.9330  205.2750  150.1520 C   0  0  0  0  0  2  0  0  0  0  0  0
  161.2200  204.0080  150.0150 N   0  0  0  0  0  0  0  0  0  0  0  0
  161.3720  201.9560  148.7120 C   0  0  0  0  0  3  0  0  0  0  0  0
  162.5760  204.9330  145.2360 Cl  0  0  0  0  0  0  0  0  0  0  0  0
  161.7270  203.8840  146.3460 C   0  0  0  0  0  0  0  0  0  0  0  0
  160.6970  201.5920  146.3520 C   0  0  0  0  0  3  0  0  0  0  0  0
  161.4240  199.8230  147.8490 F   0  0  0  0  0  0  0  0  0  0  0  0
  161.7980  204.1640  147.6480 C   0  0  0  0  0  3  0  0  0  0  0  0
  160.9270  202.7800  145.7800 C   0  0  0  0  0  3  0  0  0  0  0  0
  161.0320  203.4160  148.6920 C   0  0  2  0  0  3  0  0  0  0  0  0
  161.1890  201.1440  147.6710 C   0  0  0  0  0  0  0  0  0  0  0  0
  160.9230  203.2830  151.1830 C   0  0  0  0  0  0  0  0  0  0  0  0
  160.6770  202.6890  152.1470 N   0  0  0  0  0  0  0  0  0  0  0  0
  2  5  2  0  0  0  0
  3  6  1  0  0  0  0
  3  1  2  0  0  0  0
  4  3  1  0  0  0  0
  5  4  1  0  0  0  0
  5  7  1  0  0  0  0
  6  9  1  6  0  0  0
  7  6  1  0  0  0  0
  8 14  1  0  0  0  0
  8 13  1  0  0  0  0
  9 10  1  0  0  0  0
 10 13  2  0  0  0  0
 11  8  1  0  0  0  0
 12 11  1  0  0  0  0
 12  9  2  0  0  0  0
 14 18  1  6  0  0  0
 14 15  1  0  0  0  0
 15 16  1  0  0  0  0
 17 15  1  0  0  0  0
 19 18  1  0  0  0  0
 19 20  1  6  0  0  0
 21 22  2  0  0  0  0
 22 23  1  0  0  0  0
 23 19  1  0  0  0  0
 24 25  1  6  0  0  0
 24  4  1  0  0  0  0
 26 24  1  0  0  0  0
 27 26  1  0  0  0  0
 27 37  1  0  0  0  0
 29 30  1  0  0  0  0
 30 33  2  0  0  0  0
 31 36  1  0  0  0  0
 33 35  1  0  0  0  0
 34 30  1  0  0  0  0
 34 31  2  0  0  0  0
 35 28  1  0  0  0  0
 35 27  1  1  0  0  0
 36 32  1  0  0  0  0
 36 28  2  0  0  0  0
 37 38  3  0  0  0  0
M  END
>  <MODEL>
2

>  <REMARK>
 VINA RESULT:      -6.6      3.770      9.467
  Name = 
  11 active torsions:
  status: ('A' for Active; 'I' for Inactive)
    1  A    between atoms: C_1  and  C_15
    2  A    between atoms: C_1  and  C_19
    3  A    between atoms: N_3  and  C_15
    4  A    between atoms: S_4  and  C_15
    5  A    between atoms: C_6  and  C_37
    6  A    between atoms: N_11  and  C_14
    7  A    between atoms: N_11  and  C_22
    8  A    between atoms: N_11  and  C_31
    9  A    between atoms: C_12  and  N_29
   10  A    between atoms: C_12  and  C_31
   11  A    between atoms: C_19  and  N_32
                            x       y       z     vdW  Elec       q    Type
                         _______ _______ _______ _____ _____    ______ ____

>  <TORSDO>
F 11

$$$$
=
 OpenBabel11072410453D

 38 40  0  0  1  0  0  0  0  0999 V2000
  162.3590  210.7330  154.5650 O   0  0  0  0  0  0  0  0  0  0  0  0
  158.3320  210.1030  156.7580 O   0  0  0  0  0  0  0  0  0  0  0  0
  161.3960  210.1580  155.1400 C   0  0  0  0  0  0  0  0  0  0  0  0
  160.2250  210.8400  155.5680 N   0  0  0  0  0  0  0  0  0  0  0  0
  159.4930  209.8880  156.3220 C   0  0  0  0  0  0  0  0  0  0  0  0
  161.3850  208.7030  155.4780 C   0  0  1  0  0  3  0  0  0  0  0  0
  160.2130  208.5880  156.4800 C   0  0  0  0  0  2  0  0  0  0  0  0
  161.0000  206.5100  151.8060 N   0  0  0  0  0  0  0  0  0  0  0  0
  161.1370  207.8980  154.2240 C   0  0  0  0  0  0  0  0  0  0  0  0
  160.8850  208.6140  152.9560 C   0  0  0  0  0  3  0  0  0  0  0  0
  160.7740  205.7390  153.0280 C   0  0  0  0  0  2  0  0  0  0  0  0
  161.0870  206.5560  154.2530 C   0  0  0  0  0  3  0  0  0  0  0  0
  160.8200  207.9380  151.8080 C   0  0  0  0  0  3  0  0  0  0  0  0
  161.3500  205.7770  150.5910 C   0  0  1  0  0  3  0  0  0  0  0  0
  160.7490  204.0690  150.6130 S   0  0  0  0  0  3  0  0  0  0  0  0
  161.8330  203.3350  151.3880 O   0  0  0  0  0  1  0  0  0  0  0  0
  161.0020  203.5510  149.0070 O   0  0  0  0  0  1  0  0  0  0  0  0
  160.9420  206.5240  149.3180 C   0  0  0  0  0  2  0  0  0  0  0  0
  162.1260  207.0360  148.5170 C   0  0  2  0  0  3  0  0  0  0  0  0
  162.1460  208.5510  148.5810 C   0  0  0  0  0  1  0  0  0  0  0  0
  160.6030  206.0100  145.3310 N   0  0  0  0  0  2  0  0  0  0  0  0
  160.7140  206.3600  146.5670 C   0  0  0  0  0  3  0  0  0  0  0  0
  162.0020  206.6000  147.1330 N   0  0  0  0  0  2  0  0  0  0  0  0
  159.6580  212.0710  155.0150 C   0  0  1  0  0  3  0  0  0  0  0  0
  160.1120  213.3090  155.7790 C   0  0  0  0  0  1  0  0  0  0  0  0
  159.8280  212.1430  153.4870 C   0  0  0  0  0  2  0  0  0  0  0  0
  158.7990  212.9320  152.8150 N   0  0  0  0  0  0  0  0  0  0  0  0
  157.7650  213.3740  150.6550 C   0  0  0  0  0  3  0  0  0  0  0  0
  162.0310  212.1580  149.0090 Cl  0  0  0  0  0  0  0  0  0  0  0  0
  160.6240  213.0160  149.5910 C   0  0  0  0  0  0  0  0  0  0  0  0
  158.7820  214.4520  148.6660 C   0  0  0  0  0  3  0  0  0  0  0  0
  156.4330  213.8610  148.8420 F   0  0  0  0  0  0  0  0  0  0  0  0
  160.1540  212.6970  150.7980 C   0  0  0  0  0  3  0  0  0  0  0  0
  160.0680  214.0880  148.7430 C   0  0  0  0  0  3  0  0  0  0  0  0
  159.0280  213.4270  151.4600 C   0  0  2  0  0  3  0  0  0  0  0  0
  157.6570  213.8630  149.4200 C   0  0  0  0  0  0  0  0  0  0  0  0
  157.5270  213.0110  153.4110 C   0  0  0  0  0  0  0  0  0  0  0  0
  156.4780  213.0750  153.8980 N   0  0  0  0  0  0  0  0  0  0  0  0
  1  3  2  0  0  0  0
  3  6  1  0  0  0  0
  3  4  1  0  0  0  0
  4  5  1  0  0  0  0
  5  7  1  0  0  0  0
  5  2  2  0  0  0  0
  6  9  1  6  0  0  0
  6  7  1  0  0  0  0
  8 13  1  0  0  0  0
  8 11  1  0  0  0  0
  9 12  2  0  0  0  0
 10  9  1  0  0  0  0
 11 12  1  0  0  0  0
 13 10  2  0  0  0  0
 14 18  1  6  0  0  0
 14 15  1  0  0  0  0
 14  8  1  0  0  0  0
 15 16  1  0  0  0  0
 17 15  1  0  0  0  0
 19 20  1  6  0  0  0
 19 18  1  0  0  0  0
 21 22  2  0  0  0  0
 22 23  1  0  0  0  0
 23 19  1  0  0  0  0
 24  4  1  0  0  0  0
 24 25  1  1  0  0  0
 26 24  1  0  0  0  0
 27 37  1  0  0  0  0
 27 26  1  0  0  0  0
 28 35  1  0  0  0  0
 29 30  1  0  0  0  0
 30 33  2  0  0  0  0
 31 34  2  0  0  0  0
 31 36  1  0  0  0  0
 32 36  1  0  0  0  0
 33 35  1  0  0  0  0
 34 30  1  0  0  0  0
 35 27  1  1  0  0  0
 36 28  2  0  0  0  0
 37 38  3  0  0  0  0
M  END
>  <MODEL>
3

>  <REMARK>
 VINA RESULT:      -6.4      1.939      2.523
  Name = 
  11 active torsions:
  status: ('A' for Active; 'I' for Inactive)
    1  A    between atoms: C_1  and  C_15
    2  A    between atoms: C_1  and  C_19
    3  A    between atoms: N_3  and  C_15
    4  A    between atoms: S_4  and  C_15
    5  A    between atoms: C_6  and  C_37
    6  A    between atoms: N_11  and  C_14
    7  A    between atoms: N_11  and  C_22
    8  A    between atoms: N_11  and  C_31
    9  A    between atoms: C_12  and  N_29
   10  A    between atoms: C_12  and  C_31
   11  A    between atoms: C_19  and  N_32
                            x       y       z     vdW  Elec       q    Type
                         _______ _______ _______ _____ _____    ______ ____

>  <TORSDO>
F 11

$$$$
=
 OpenBabel11072410453D

 38 40  0  0  1  0  0  0  0  0999 V2000
  163.4490  206.3010  152.1220 O   0  0  0  0  0  0  0  0  0  0  0  0
  159.9970  206.2240  149.0390 O   0  0  0  0  0  0  0  0  0  0  0  0
  162.5610  206.7000  151.3210 C   0  0  0  0  0  0  0  0  0  0  0  0
  161.6600  205.8250  150.6580 N   0  0  0  0  0  0  0  0  0  0  0  0
  160.9690  206.6380  149.7240 C   0  0  0  0  0  0  0  0  0  0  0  0
  162.3750  208.1330  150.9420 C   0  0  1  0  0  3  0  0  0  0  0  0
  161.4670  208.0470  149.6930 C   0  0  0  0  0  2  0  0  0  0  0  0
  160.7490  210.1490  154.3670 N   0  0  0  0  0  0  0  0  0  0  0  0
  161.7050  208.8710  152.0780 C   0  0  0  0  0  0  0  0  0  0  0  0
  161.1320  208.0900  153.1940 C   0  0  0  0  0  3  0  0  0  0  0  0
  160.8490  210.9540  153.1510 C   0  0  0  0  0  2  0  0  0  0  0  0
  161.5720  210.2070  152.0620 C   0  0  0  0  0  3  0  0  0  0  0  0
  160.6780  208.7140  154.2820 C   0  0  0  0  0  3  0  0  0  0  0  0
  160.6630  210.8520  155.6450 C   0  0  1  0  0  3  0  0  0  0  0  0
  162.1960  210.7430  156.6020 S   0  0  0  0  0  3  0  0  0  0  0  0
  163.2740  210.8020  155.5300 O   0  0  0  0  0  1  0  0  0  0  0  0
  162.2280  209.1090  157.0930 O   0  0  0  0  0  1  0  0  0  0  0  0
  160.1730  212.2950  155.4890 C   0  0  0  0  0  2  0  0  0  0  0  0
  158.7460  212.4990  155.9680 C   0  0  2  0  0  3  0  0  0  0  0  0
  158.0230  211.1670  155.9390 C   0  0  0  0  0  1  0  0  0  0  0  0
  156.5970  213.8280  153.2960 N   0  0  0  0  0  2  0  0  0  0  0  0
  157.2230  212.9860  154.0450 C   0  0  0  0  0  3  0  0  0  0  0  0
  158.0720  213.4490  155.0940 N   0  0  0  0  0  2  0  0  0  0  0  0
  161.2040  204.5080  151.1060 C   0  0  1  0  0  3  0  0  0  0  0  0
  160.9130  204.4750  152.6010 C   0  0  0  0  0  1  0  0  0  0  0  0
  160.0840  203.9550  150.2060 C   0  0  0  0  0  2  0  0  0  0  0  0
  160.4630  202.7570  149.4600 N   0  0  0  0  0  0  0  0  0  0  0  0
  160.7650  201.4250  147.4430 C   0  0  0  0  0  3  0  0  0  0  0  0
  162.8490  205.3610  145.8460 Cl  0  0  0  0  0  0  0  0  0  0  0  0
  161.7240  204.0830  146.2370 C   0  0  0  0  0  0  0  0  0  0  0  0
  160.5820  202.1660  145.0830 C   0  0  0  0  0  3  0  0  0  0  0  0
  160.8700  199.8530  145.7670 F   0  0  0  0  0  0  0  0  0  0  0  0
  161.5360  203.7890  147.5240 C   0  0  0  0  0  3  0  0  0  0  0  0
  160.9970  203.4370  145.1260 C   0  0  0  0  0  3  0  0  0  0  0  0
  160.5230  202.7960  148.0010 C   0  0  2  0  0  3  0  0  0  0  0  0
  160.7570  201.1490  146.1400 C   0  0  0  0  0  0  0  0  0  0  0  0
  160.9700  201.6600  150.1780 C   0  0  0  0  0  0  0  0  0  0  0  0
  161.3850  200.7540  150.7690 N   0  0  0  0  0  0  0  0  0  0  0  0
  2  5  2  0  0  0  0
  3  1  2  0  0  0  0
  4 24  1  0  0  0  0
  4  3  1  0  0  0  0
  5  4  1  0  0  0  0
  6  3  1  0  0  0  0
  6  9  1  1  0  0  0
  7  5  1  0  0  0  0
  7  6  1  0  0  0  0
  8 14  1  0  0  0  0
  9 10  1  0  0  0  0
 10 13  2  0  0  0  0
 11  8  1  0  0  0  0
 12  9  2  0  0  0  0
 12 11  1  0  0  0  0
 13  8  1  0  0  0  0
 14 18  1  6  0  0  0
 14 15  1  0  0  0  0
 15 17  1  0  0  0  0
 16 15  1  0  0  0  0
 18 19  1  0  0  0  0
 19 20  1  6  0  0  0
 21 22  2  0  0  0  0
 22 23  1  0  0  0  0
 23 19  1  0  0  0  0
 24 25  1  1  0  0  0
 26 24  1  0  0  0  0
 27 37  1  0  0  0  0
 27 26  1  0  0  0  0
 28 35  1  0  0  0  0
 29 30  1  0  0  0  0
 30 33  2  0  0  0  0
 31 34  2  0  0  0  0
 31 36  1  0  0  0  0
 32 36  1  0  0  0  0
 33 35  1  0  0  0  0
 34 30  1  0  0  0  0
 35 27  1  1  0  0  0
 36 28  2  0  0  0  0
 37 38  3  0  0  0  0
M  END
>  <MODEL>
4

>  <REMARK>
 VINA RESULT:      -6.4      3.895      9.447
  Name = 
  11 active torsions:
  status: ('A' for Active; 'I' for Inactive)
    1  A    between atoms: C_1  and  C_15
    2  A    between atoms: C_1  and  C_19
    3  A    between atoms: N_3  and  C_15
    4  A    between atoms: S_4  and  C_15
    5  A    between atoms: C_6  and  C_37
    6  A    between atoms: N_11  and  C_14
    7  A    between atoms: N_11  and  C_22
    8  A    between atoms: N_11  and  C_31
    9  A    between atoms: C_12  and  N_29
   10  A    between atoms: C_12  and  C_31
   11  A    between atoms: C_19  and  N_32
                            x       y       z     vdW  Elec       q    Type
                         _______ _______ _______ _____ _____    ______ ____

>  <TORSDO>
F 11

$$$$
=
 OpenBabel11072410453D

 38 40  0  0  1  0  0  0  0  0999 V2000
  163.0830  206.3760  151.8430 O   0  0  0  0  0  0  0  0  0  0  0  0
  161.0950  207.8700  147.9400 O   0  0  0  0  0  0  0  0  0  0  0  0
  162.5830  207.1530  150.9860 C   0  0  0  0  0  0  0  0  0  0  0  0
  161.9910  206.7000  149.7770 N   0  0  0  0  0  0  0  0  0  0  0  0
  161.7340  207.8740  149.0240 C   0  0  0  0  0  0  0  0  0  0  0  0
  162.5910  208.6400  151.1150 C   0  0  1  0  0  3  0  0  0  0  0  0
  162.2360  209.1160  149.6870 C   0  0  0  0  0  2  0  0  0  0  0  0
  159.8920  209.8790  154.2180 N   0  0  0  0  0  0  0  0  0  0  0  0
  161.5490  209.0620  152.1260 C   0  0  0  0  0  0  0  0  0  0  0  0
  161.2030  208.1320  153.2210 C   0  0  0  0  0  3  0  0  0  0  0  0
  159.8120  210.6390  152.9720 C   0  0  0  0  0  2  0  0  0  0  0  0
  160.8990  210.2310  152.0140 C   0  0  0  0  0  3  0  0  0  0  0  0
  160.4090  208.5350  154.2140 C   0  0  0  0  0  3  0  0  0  0  0  0
  159.3790  210.5060  155.4340 C   0  0  1  0  0  3  0  0  0  0  0  0
  160.7000  211.1090  156.5150 S   0  0  0  0  0  3  0  0  0  0  0  0
  160.4570  212.6110  156.5460 O   0  0  0  0  0  1  0  0  0  0  0  0
  162.0930  210.9630  155.5410 O   0  0  0  0  0  1  0  0  0  0  0  0
  158.3270  211.5790  155.1410 C   0  0  0  0  0  2  0  0  0  0  0  0
  157.0870  211.4570  156.0090 C   0  0  2  0  0  3  0  0  0  0  0  0
  155.9370  210.9580  155.1570 C   0  0  0  0  0  1  0  0  0  0  0  0
  155.1060  214.2980  157.2460 N   0  0  0  0  0  2  0  0  0  0  0  0
  155.3960  213.1610  156.7120 C   0  0  0  0  0  3  0  0  0  0  0  0
  156.7580  212.7590  156.5720 N   0  0  0  0  0  2  0  0  0  0  0  0
  161.3680  205.4000  149.5200 C   0  0  1  0  0  3  0  0  0  0  0  0
  160.4430  204.9710  150.6520 C   0  0  0  0  0  1  0  0  0  0  0  0
  160.7590  205.3270  148.1090 C   0  0  0  0  0  2  0  0  0  0  0  0
  161.5640  204.5640  147.1580 N   0  0  0  0  0  0  0  0  0  0  0  0
  160.7390  202.5800  146.0110 C   0  0  0  0  0  3  0  0  0  0  0  0
  160.4570  200.8560  150.4080 Cl  0  0  0  0  0  0  0  0  0  0  0  0
  160.9560  201.2930  148.7920 C   0  0  0  0  0  0  0  0  0  0  0  0
  161.2070  200.2030  146.5420 C   0  0  0  0  0  3  0  0  0  0  0  0
  159.9940  200.9450  144.5740 F   0  0  0  0  0  0  0  0  0  0  0  0
  161.0080  202.5900  148.4840 C   0  0  0  0  0  3  0  0  0  0  0  0
  161.3520  200.2080  147.8720 C   0  0  0  0  0  3  0  0  0  0  0  0
  161.5230  203.1030  147.1760 C   0  0  2  0  0  3  0  0  0  0  0  0
  160.6300  201.2850  145.7180 C   0  0  0  0  0  0  0  0  0  0  0  0
  162.1900  205.2590  146.1090 C   0  0  0  0  0  0  0  0  0  0  0  0
  162.7080  205.8300  145.2430 N   0  0  0  0  0  0  0  0  0  0  0  0
  2  5  2  0  0  0  0
  3  6  1  0  0  0  0
  3  1  2  0  0  0  0
  4  3  1  0  0  0  0
  5  7  1  0  0  0  0
  5  4  1  0  0  0  0
  6  9  1  1  0  0  0
  7  6  1  0  0  0  0
  8 14  1  0  0  0  0
  9 10  1  0  0  0  0
 10 13  2  0  0  0  0
 11  8  1  0  0  0  0
 12  9  2  0  0  0  0
 12 11  1  0  0  0  0
 13  8  1  0  0  0  0
 14 18  1  6  0  0  0
 14 15  1  0  0  0  0
 15 16  1  0  0  0  0
 17 15  1  0  0  0  0
 18 19  1  0  0  0  0
 19 20  1  6  0  0  0
 19 23  1  0  0  0  0
 22 21  2  0  0  0  0
 23 22  1  0  0  0  0
 24  4  1  0  0  0  0
 24 25  1  1  0  0  0
 26 24  1  0  0  0  0
 27 26  1  0  0  0  0
 28 35  1  0  0  0  0
 30 29  1  0  0  0  0
 31 34  2  0  0  0  0
 32 36  1  0  0  0  0
 33 30  2  0  0  0  0
 34 30  1  0  0  0  0
 35 27  1  1  0  0  0
 35 33  1  0  0  0  0
 36 28  2  0  0  0  0
 36 31  1  0  0  0  0
 37 27  1  0  0  0  0
 38 37  3  0  0  0  0
M  END
>  <MODEL>
5

>  <REMARK>
 VINA RESULT:      -6.4      4.184      9.892
  Name = 
  11 active torsions:
  status: ('A' for Active; 'I' for Inactive)
    1  A    between atoms: C_1  and  C_15
    2  A    between atoms: C_1  and  C_19
    3  A    between atoms: N_3  and  C_15
    4  A    between atoms: S_4  and  C_15
    5  A    between atoms: C_6  and  C_37
    6  A    between atoms: N_11  and  C_14
    7  A    between atoms: N_11  and  C_22
    8  A    between atoms: N_11  and  C_31
    9  A    between atoms: C_12  and  N_29
   10  A    between atoms: C_12  and  C_31
   11  A    between atoms: C_19  and  N_32
                            x       y       z     vdW  Elec       q    Type
                         _______ _______ _______ _____ _____    ______ ____

>  <TORSDO>
F 11

$$$$
=
 OpenBabel11072410453D

 38 40  0  0  1  0  0  0  0  0999 V2000
  162.1200  207.3200  152.5070 O   0  0  0  0  0  0  0  0  0  0  0  0
  161.6790  209.2020  148.3010 O   0  0  0  0  0  0  0  0  0  0  0  0
  162.0300  208.1860  151.5950 C   0  0  0  0  0  0  0  0  0  0  0  0
  161.7810  207.8620  150.2350 N   0  0  0  0  0  0  0  0  0  0  0  0
  161.9450  209.0790  149.5260 C   0  0  0  0  0  0  0  0  0  0  0  0
  162.2160  209.6500  151.8270 C   0  0  1  0  0  3  0  0  0  0  0  0
  162.3940  210.2080  150.3950 C   0  0  0  0  0  2  0  0  0  0  0  0
  158.9340  211.3610  154.0050 N   0  0  0  0  0  0  0  0  0  0  0  0
  160.9870  210.2120  152.5030 C   0  0  0  0  0  0  0  0  0  0  0  0
  160.4700  209.5390  153.7120 C   0  0  0  0  0  3  0  0  0  0  0  0
  159.0670  211.8000  152.6160 C   0  0  0  0  0  2  0  0  0  0  0  0
  160.3310  211.2680  151.9960 C   0  0  0  0  0  3  0  0  0  0  0  0
  159.4870  210.0980  154.4200 C   0  0  0  0  0  3  0  0  0  0  0  0
  158.1770  212.2110  154.9200 C   0  0  1  0  0  3  0  0  0  0  0  0
  156.3880  212.0710  154.6810 S   0  0  0  0  0  3  0  0  0  0  0  0
  155.8530  213.3260  155.3530 O   0  0  0  0  0  1  0  0  0  0  0  0
  155.9500  210.8320  155.7690 O   0  0  0  0  0  1  0  0  0  0  0  0
  158.5890  212.0120  156.3820 C   0  0  0  0  0  2  0  0  0  0  0  0
  159.3600  213.1890  156.9550 C   0  0  2  0  0  3  0  0  0  0  0  0
  159.2890  214.3450  155.9770 C   0  0  0  0  0  1  0  0  0  0  0  0
  162.3660  211.0930  157.2600 N   0  0  0  0  0  2  0  0  0  0  0  0
  161.1310  211.4300  157.1080 C   0  0  0  0  0  3  0  0  0  0  0  0
  160.7470  212.8030  157.1690 N   0  0  0  0  0  2  0  0  0  0  0  0
  161.0840  206.6860  149.7110 C   0  0  1  0  0  3  0  0  0  0  0  0
  160.4560  206.9470  148.3480 C   0  0  0  0  0  1  0  0  0  0  0  0
  161.9530  205.4190  149.8030 C   0  0  0  0  0  2  0  0  0  0  0  0
  161.1860  204.1760  149.7960 N   0  0  0  0  0  0  0  0  0  0  0  0
  161.3860  202.0140  148.6920 C   0  0  0  0  0  3  0  0  0  0  0  0
  162.3640  204.6820  144.9090 Cl  0  0  0  0  0  0  0  0  0  0  0  0
  161.5920  203.7150  146.1410 C   0  0  0  0  0  0  0  0  0  0  0  0
  160.6600  201.3960  146.4020 C   0  0  0  0  0  3  0  0  0  0  0  0
  161.5020  199.8110  148.0380 F   0  0  0  0  0  0  0  0  0  0  0  0
  161.6890  204.1230  147.4070 C   0  0  0  0  0  3  0  0  0  0  0  0
  160.8220  202.5300  145.7110 C   0  0  0  0  0  3  0  0  0  0  0  0
  160.9840  203.4510  148.5430 C   0  0  2  0  0  3  0  0  0  0  0  0
  161.2070  201.0980  147.7410 C   0  0  0  0  0  0  0  0  0  0  0  0
  160.8450  203.5980  151.0320 C   0  0  0  0  0  0  0  0  0  0  0  0
  160.5670  203.1220  152.0510 N   0  0  0  0  0  0  0  0  0  0  0  0
  2  5  2  0  0  0  0
  3  6  1  0  0  0  0
  3  1  2  0  0  0  0
  4  3  1  0  0  0  0
  5  4  1  0  0  0  0
  5  7  1  0  0  0  0
  6  9  1  6  0  0  0
  7  6  1  0  0  0  0
  8 13  1  0  0  0  0
  8 14  1  0  0  0  0
  9 10  1  0  0  0  0
 10 13  2  0  0  0  0
 11  8  1  0  0  0  0
 12  9  2  0  0  0  0
 12 11  1  0  0  0  0
 14 18  1  1  0  0  0
 15 14  1  0  0  0  0
 15 16  1  0  0  0  0
 15 17  1  0  0  0  0
 18 19  1  0  0  0  0
 19 20  1  6  0  0  0
 19 23  1  0  0  0  0
 22 23  1  0  0  0  0
 22 21  2  0  0  0  0
 24 25  1  6  0  0  0
 24 26  1  0  0  0  0
 24  4  1  0  0  0  0
 27 26  1  0  0  0  0
 27 37  1  0  0  0  0
 29 30  1  0  0  0  0
 30 33  2  0  0  0  0
 31 36  1  0  0  0  0
 33 35  1  0  0  0  0
 34 30  1  0  0  0  0
 34 31  2  0  0  0  0
 35 28  1  0  0  0  0
 35 27  1  1  0  0  0
 36 32  1  0  0  0  0
 36 28  2  0  0  0  0
 37 38  3  0  0  0  0
M  END
>  <MODEL>
6

>  <REMARK>
 VINA RESULT:      -6.1      3.904      9.437
  Name = 
  11 active torsions:
  status: ('A' for Active; 'I' for Inactive)
    1  A    between atoms: C_1  and  C_15
    2  A    between atoms: C_1  and  C_19
    3  A    between atoms: N_3  and  C_15
    4  A    between atoms: S_4  and  C_15
    5  A    between atoms: C_6  and  C_37
    6  A    between atoms: N_11  and  C_14
    7  A    between atoms: N_11  and  C_22
    8  A    between atoms: N_11  and  C_31
    9  A    between atoms: C_12  and  N_29
   10  A    between atoms: C_12  and  C_31
   11  A    between atoms: C_19  and  N_32
                            x       y       z     vdW  Elec       q    Type
                         _______ _______ _______ _____ _____    ______ ____

>  <TORSDO>
F 11

$$$$
=
 OpenBabel11072410453D

 38 40  0  0  1  0  0  0  0  0999 V2000
  161.6570  210.9060  151.0420 O   0  0  0  0  0  0  0  0  0  0  0  0
  159.3560  210.5050  155.0380 O   0  0  0  0  0  0  0  0  0  0  0  0
  161.2860  210.4580  152.1600 C   0  0  0  0  0  0  0  0  0  0  0  0
  160.2100  211.0130  152.9030 N   0  0  0  0  0  0  0  0  0  0  0  0
  160.2450  210.3560  154.1590 C   0  0  0  0  0  0  0  0  0  0  0  0
  161.9580  209.3210  152.8590 C   0  0  1  0  0  3  0  0  0  0  0  0
  161.4030  209.4210  154.2990 C   0  0  0  0  0  2  0  0  0  0  0  0
  161.1480  205.6500  150.7820 N   0  0  0  0  0  0  0  0  0  0  0  0
  161.5680  208.0220  152.1920 C   0  0  0  0  0  0  0  0  0  0  0  0
  161.1180  208.0510  150.7850 C   0  0  0  0  0  3  0  0  0  0  0  0
  161.1200  205.5690  152.2420 C   0  0  0  0  0  2  0  0  0  0  0  0
  161.5690  206.8620  152.8680 C   0  0  0  0  0  3  0  0  0  0  0  0
  160.9200  206.9100  150.1230 C   0  0  0  0  0  3  0  0  0  0  0  0
  161.3520  204.4120  150.0340 C   0  0  1  0  0  3  0  0  0  0  0  0
  160.7150  202.9600  150.9060 S   0  0  0  0  0  3  0  0  0  0  0  0
  161.9430  202.4290  151.6310 O   0  0  0  0  0  1  0  0  0  0  0  0
  160.4870  201.8260  149.6510 O   0  0  0  0  0  1  0  0  0  0  0  0
  160.8340  204.5050  148.5960 C   0  0  0  0  0  2  0  0  0  0  0  0
  161.9280  204.3620  147.5520 C   0  0  2  0  0  3  0  0  0  0  0  0
  162.3810  205.7430  147.1220 C   0  0  0  0  0  1  0  0  0  0  0  0
  160.4560  201.6520  145.5500 N   0  0  0  0  0  2  0  0  0  0  0  0
  160.9470  202.2880  146.5580 C   0  0  0  0  0  3  0  0  0  0  0  0
  161.4130  203.6280  146.4060 N   0  0  0  0  0  2  0  0  0  0  0  0
  159.0540  211.7470  152.3850 C   0  0  1  0  0  3  0  0  0  0  0  0
  157.8310  211.6050  153.2830 C   0  0  0  0  0  1  0  0  0  0  0  0
  159.4210  213.1910  151.9970 C   0  0  0  0  0  2  0  0  0  0  0  0
  158.5410  213.7720  150.9870 N   0  0  0  0  0  0  0  0  0  0  0  0
  158.0010  212.9910  148.7440 C   0  0  0  0  0  3  0  0  0  0  0  0
  162.7070  212.9010  148.2620 Cl  0  0  0  0  0  0  0  0  0  0  0  0
  161.0150  213.3370  148.2620 C   0  0  0  0  0  0  0  0  0  0  0  0
  159.1330  213.5640  146.6120 C   0  0  0  0  0  3  0  0  0  0  0  0
  157.0850  212.2680  146.7600 F   0  0  0  0  0  0  0  0  0  0  0  0
  160.3680  213.3300  149.4280 C   0  0  0  0  0  3  0  0  0  0  0  0
  160.4070  213.7470  146.9800 C   0  0  0  0  0  3  0  0  0  0  0  0
  158.9530  213.7880  149.5840 C   0  0  2  0  0  3  0  0  0  0  0  0
  158.0720  212.9230  147.4150 C   0  0  0  0  0  0  0  0  0  0  0  0
  157.2280  214.1060  151.3610 C   0  0  0  0  0  0  0  0  0  0  0  0
  156.1450  214.3830  151.6670 N   0  0  0  0  0  0  0  0  0  0  0  0
  1  3  2  0  0  0  0
  3  6  1  0  0  0  0
  3  4  1  0  0  0  0
  4  5  1  0  0  0  0
  5  7  1  0  0  0  0
  5  2  2  0  0  0  0
  6  9  1  6  0  0  0
  6  7  1  0  0  0  0
  8 11  1  0  0  0  0
  9 12  2  0  0  0  0
 10  9  1  0  0  0  0
 11 12  1  0  0  0  0
 13  8  1  0  0  0  0
 13 10  2  0  0  0  0
 14 18  1  6  0  0  0
 14  8  1  0  0  0  0
 14 15  1  0  0  0  0
 15 16  1  0  0  0  0
 17 15  1  0  0  0  0
 19 20  1  6  0  0  0
 19 18  1  0  0  0  0
 21 22  2  0  0  0  0
 23 22  1  0  0  0  0
 23 19  1  0  0  0  0
 24  4  1  0  0  0  0
 24 25  1  1  0  0  0
 26 24  1  0  0  0  0
 27 37  1  0  0  0  0
 27 26  1  0  0  0  0
 28 35  1  0  0  0  0
 30 29  1  0  0  0  0
 30 33  2  0  0  0  0
 31 34  2  0  0  0  0
 31 36  1  0  0  0  0
 32 36  1  0  0  0  0
 33 35  1  0  0  0  0
 34 30  1  0  0  0  0
 35 27  1  1  0  0  0
 36 28  2  0  0  0  0
 37 38  3  0  0  0  0
M  END
>  <MODEL>
7

>  <REMARK>
 VINA RESULT:      -6.0      2.303      2.884
  Name = 
  11 active torsions:
  status: ('A' for Active; 'I' for Inactive)
    1  A    between atoms: C_1  and  C_15
    2  A    between atoms: C_1  and  C_19
    3  A    between atoms: N_3  and  C_15
    4  A    between atoms: S_4  and  C_15
    5  A    between atoms: C_6  and  C_37
    6  A    between atoms: N_11  and  C_14
    7  A    between atoms: N_11  and  C_22
    8  A    between atoms: N_11  and  C_31
    9  A    between atoms: C_12  and  N_29
   10  A    between atoms: C_12  and  C_31
   11  A    between atoms: C_19  and  N_32
                            x       y       z     vdW  Elec       q    Type
                         _______ _______ _______ _____ _____    ______ ____

>  <TORSDO>
F 11

$$$$
=
 OpenBabel11072410453D

 38 40  0  0  1  0  0  0  0  0999 V2000
  160.4550  213.1080  152.1430 O   0  0  0  0  0  0  0  0  0  0  0  0
  157.1230  211.2700  154.7790 O   0  0  0  0  0  0  0  0  0  0  0  0
  159.8690  212.3480  152.9600 C   0  0  0  0  0  0  0  0  0  0  0  0
  158.4800  212.4320  153.2440 N   0  0  0  0  0  0  0  0  0  0  0  0
  158.2670  211.5490  154.3330 C   0  0  0  0  0  0  0  0  0  0  0  0
  160.5700  211.2970  153.7580 C   0  0  1  0  0  3  0  0  0  0  0  0
  159.5300  210.9350  154.8450 C   0  0  0  0  0  2  0  0  0  0  0  0
  161.1300  207.8880  151.2080 N   0  0  0  0  0  0  0  0  0  0  0  0
  160.8880  210.1190  152.8670 C   0  0  0  0  0  0  0  0  0  0  0  0
  160.7410  208.7540  153.4130 C   0  0  0  0  0  3  0  0  0  0  0  0
  161.7400  209.1320  150.7400 C   0  0  0  0  0  2  0  0  0  0  0  0
  161.3530  210.2910  151.6200 C   0  0  0  0  0  3  0  0  0  0  0  0
  160.8600  207.6960  152.6090 C   0  0  0  0  0  3  0  0  0  0  0  0
  160.8690  206.8430  150.2200 C   0  0  1  0  0  3  0  0  0  0  0  0
  161.2060  207.3870  148.5270 S   0  0  0  0  0  3  0  0  0  0  0  0
  160.4700  206.3570  147.6830 O   0  0  0  0  0  1  0  0  0  0  0  0
  162.8460  206.9680  148.3070 O   0  0  0  0  0  1  0  0  0  0  0  0
  161.5710  205.5250  150.5620 C   0  0  0  0  0  2  0  0  0  0  0  0
  160.6220  204.3420  150.6390 C   0  0  2  0  0  3  0  0  0  0  0  0
  160.8650  203.6010  151.9400 C   0  0  0  0  0  1  0  0  0  0  0  0
  160.6270  201.3130  148.5540 N   0  0  0  0  0  2  0  0  0  0  0  0
  160.4500  202.0880  149.5690 C   0  0  0  0  0  3  0  0  0  0  0  0
  160.8600  203.4540  149.5100 N   0  0  0  0  0  2  0  0  0  0  0  0
  157.4200  212.9400  152.3710 C   0  0  1  0  0  3  0  0  0  0  0  0
  156.1690  213.3280  153.1490 C   0  0  0  0  0  1  0  0  0  0  0  0
  157.9470  214.0100  151.3970 C   0  0  0  0  0  2  0  0  0  0  0  0
  157.2370  214.0450  150.1210 N   0  0  0  0  0  0  0  0  0  0  0  0
  157.2030  212.8860  147.9790 C   0  0  0  0  0  3  0  0  0  0  0  0
  161.8830  212.7060  148.6540 Cl  0  0  0  0  0  0  0  0  0  0  0  0
  160.2590  213.1380  148.1770 C   0  0  0  0  0  0  0  0  0  0  0  0
  158.8270  213.0770  146.1140 C   0  0  0  0  0  3  0  0  0  0  0  0
  156.7480  211.8290  145.9870 F   0  0  0  0  0  0  0  0  0  0  0  0
  159.3570  213.3360  149.1400 C   0  0  0  0  0  3  0  0  0  0  0  0
  159.9860  213.3190  146.7380 C   0  0  0  0  0  3  0  0  0  0  0  0
  157.9650  213.8160  148.8750 C   0  0  2  0  0  3  0  0  0  0  0  0
  157.5800  212.5870  146.7370 C   0  0  0  0  0  0  0  0  0  0  0  0
  155.8310  214.0850  150.1430 C   0  0  0  0  0  0  0  0  0  0  0  0
  154.6730  214.1160  150.1630 N   0  0  0  0  0  0  0  0  0  0  0  0
  1  3  2  0  0  0  0
  3  4  1  0  0  0  0
  3  6  1  0  0  0  0
  4  5  1  0  0  0  0
  5  2  2  0  0  0  0
  5  7  1  0  0  0  0
  6  9  1  6  0  0  0
  6  7  1  0  0  0  0
  8 13  1  0  0  0  0
  9 10  1  0  0  0  0
 11  8  1  0  0  0  0
 11 12  1  0  0  0  0
 12  9  2  0  0  0  0
 13 10  2  0  0  0  0
 14 18  1  1  0  0  0
 14  8  1  0  0  0  0
 15 14  1  0  0  0  0
 16 15  1  0  0  0  0
 17 15  1  0  0  0  0
 18 19  1  0  0  0  0
 19 20  1  1  0  0  0
 21 22  2  0  0  0  0
 23 22  1  0  0  0  0
 23 19  1  0  0  0  0
 24 25  1  1  0  0  0
 24  4  1  0  0  0  0
 26 24  1  0  0  0  0
 27 37  1  0  0  0  0
 27 26  1  0  0  0  0
 28 35  1  0  0  0  0
 30 29  1  0  0  0  0
 30 33  2  0  0  0  0
 31 36  1  0  0  0  0
 31 34  2  0  0  0  0
 32 36  1  0  0  0  0
 34 30  1  0  0  0  0
 35 33  1  0  0  0  0
 35 27  1  1  0  0  0
 36 28  2  0  0  0  0
 37 38  3  0  0  0  0
M  END
>  <MODEL>
8

>  <REMARK>
 VINA RESULT:      -5.9      1.566      2.158
  Name = 
  11 active torsions:
  status: ('A' for Active; 'I' for Inactive)
    1  A    between atoms: C_1  and  C_15
    2  A    between atoms: C_1  and  C_19
    3  A    between atoms: N_3  and  C_15
    4  A    between atoms: S_4  and  C_15
    5  A    between atoms: C_6  and  C_37
    6  A    between atoms: N_11  and  C_14
    7  A    between atoms: N_11  and  C_22
    8  A    between atoms: N_11  and  C_31
    9  A    between atoms: C_12  and  N_29
   10  A    between atoms: C_12  and  C_31
   11  A    between atoms: C_19  and  N_32
                            x       y       z     vdW  Elec       q    Type
                         _______ _______ _______ _____ _____    ______ ____

>  <TORSDO>
F 11

$$$$
=
 OpenBabel11072410453D

 38 40  0  0  1  0  0  0  0  0999 V2000
  160.5520  207.4380  154.8890 O   0  0  0  0  0  0  0  0  0  0  0  0
  163.0670  209.8950  151.8790 O   0  0  0  0  0  0  0  0  0  0  0  0
  161.0980  208.4210  154.3210 C   0  0  0  0  0  0  0  0  0  0  0  0
  161.8390  208.3090  153.1140 N   0  0  0  0  0  0  0  0  0  0  0  0
  162.4330  209.5820  152.9210 C   0  0  0  0  0  0  0  0  0  0  0  0
  161.0690  209.8110  154.8660 C   0  0  1  0  0  3  0  0  0  0  0  0
  162.1670  210.5290  154.0470 C   0  0  0  0  0  2  0  0  0  0  0  0
  157.2880  211.7940  154.4030 N   0  0  0  0  0  0  0  0  0  0  0  0
  159.7040  210.4150  154.6310 C   0  0  0  0  0  0  0  0  0  0  0  0
  158.7210  210.4030  155.7350 C   0  0  0  0  0  3  0  0  0  0  0  0
  157.9760  211.4490  153.1590 C   0  0  0  0  0  2  0  0  0  0  0  0
  159.3530  210.9050  153.4320 C   0  0  0  0  0  3  0  0  0  0  0  0
  157.5700  211.0650  155.6120 C   0  0  0  0  0  3  0  0  0  0  0  0
  156.2780  212.8480  154.3540 C   0  0  1  0  0  3  0  0  0  0  0  0
  155.5180  213.1590  155.9680 S   0  0  0  0  0  3  0  0  0  0  0  0
  154.3560  214.0790  155.6280 O   0  0  0  0  0  1  0  0  0  0  0  0
  156.6340  214.2060  156.7230 O   0  0  0  0  0  1  0  0  0  0  0  0
  156.7990  214.1290  153.6960 C   0  0  0  0  0  2  0  0  0  0  0  0
  156.1090  214.4530  152.3820 C   0  0  2  0  0  3  0  0  0  0  0  0
  154.7340  213.8160  152.3780 C   0  0  0  0  0  1  0  0  0  0  0  0
  157.0730  213.4640  148.9740 N   0  0  0  0  0  2  0  0  0  0  0  0
  156.3570  213.8900  149.9580 C   0  0  0  0  0  3  0  0  0  0  0  0
  156.9010  213.9330  151.2770 N   0  0  0  0  0  2  0  0  0  0  0  0
  161.6880  207.2990  152.0650 C   0  0  1  0  0  3  0  0  0  0  0  0
  161.2860  205.9410  152.6260 C   0  0  0  0  0  1  0  0  0  0  0  0
  160.8240  207.8110  150.8980 C   0  0  0  0  0  2  0  0  0  0  0  0
  161.5150  207.8170  149.6120 N   0  0  0  0  0  0  0  0  0  0  0  0
  160.9240  206.8000  147.4790 C   0  0  0  0  0  3  0  0  0  0  0  0
  160.4340  202.9080  150.1240 Cl  0  0  0  0  0  0  0  0  0  0  0  0
  161.0220  204.1820  149.0840 C   0  0  0  0  0  0  0  0  0  0  0  0
  161.5210  204.5400  146.6470 C   0  0  0  0  0  3  0  0  0  0  0  0
  160.4100  206.2350  145.3080 F   0  0  0  0  0  0  0  0  0  0  0  0
  161.0040  205.4300  149.5540 C   0  0  0  0  0  3  0  0  0  0  0  0
  161.5640  203.8030  147.7630 C   0  0  0  0  0  3  0  0  0  0  0  0
  161.5790  206.5960  148.8120 C   0  0  2  0  0  3  0  0  0  0  0  0
  160.9320  205.8880  146.5080 C   0  0  0  0  0  0  0  0  0  0  0  0
  161.9150  209.0550  149.0780 C   0  0  0  0  0  0  0  0  0  0  0  0
  162.2410  210.0770  148.6390 N   0  0  0  0  0  0  0  0  0  0  0  0
  2  5  2  0  0  0  0
  3  6  1  0  0  0  0
  3  1  2  0  0  0  0
  4  3  1  0  0  0  0
  5  4  1  0  0  0  0
  5  7  1  0  0  0  0
  6  9  1  6  0  0  0
  7  6  1  0  0  0  0
  8 13  1  0  0  0  0
  9 10  1  0  0  0  0
 11 12  1  0  0  0  0
 11  8  1  0  0  0  0
 12  9  2  0  0  0  0
 13 10  2  0  0  0  0
 14 18  1  1  0  0  0
 14  8  1  0  0  0  0
 14 15  1  0  0  0  0
 15 17  1  0  0  0  0
 16 15  1  0  0  0  0
 19 20  1  1  0  0  0
 19 18  1  0  0  0  0
 21 22  2  0  0  0  0
 22 23  1  0  0  0  0
 23 19  1  0  0  0  0
 24 25  1  1  0  0  0
 24  4  1  0  0  0  0
 26 24  1  0  0  0  0
 27 26  1  0  0  0  0
 28 35  1  0  0  0  0
 30 33  2  0  0  0  0
 30 29  1  0  0  0  0
 31 34  2  0  0  0  0
 32 36  1  0  0  0  0
 34 30  1  0  0  0  0
 35 33  1  0  0  0  0
 35 27  1  1  0  0  0
 36 31  1  0  0  0  0
 36 28  2  0  0  0  0
 37 27  1  0  0  0  0
 38 37  3  0  0  0  0
M  END
>  <MODEL>
9

>  <REMARK>
 VINA RESULT:      -5.9      3.898      8.415
  Name = 
  11 active torsions:
  status: ('A' for Active; 'I' for Inactive)
    1  A    between atoms: C_1  and  C_15
    2  A    between atoms: C_1  and  C_19
    3  A    between atoms: N_3  and  C_15
    4  A    between atoms: S_4  and  C_15
    5  A    between atoms: C_6  and  C_37
    6  A    between atoms: N_11  and  C_14
    7  A    between atoms: N_11  and  C_22
    8  A    between atoms: N_11  and  C_31
    9  A    between atoms: C_12  and  N_29
   10  A    between atoms: C_12  and  C_31
   11  A    between atoms: C_19  and  N_32
                            x       y       z     vdW  Elec       q    Type
                         _______ _______ _______ _____ _____    ______ ____

>  <TORSDO>
F 11

$$$$
