=
 OpenBabel11072410053D

 55 58  0  0  1  0  0  0  0  0999 V2000
  161.9390  209.2610  149.1140 C   0  0  0  0  0  2  0  0  0  0  0  0
  162.2280  210.4960  151.4600 C   0  0  0  0  0  0  0  0  0  0  0  0
  161.1990  209.5070  151.9730 C   0  0  1  0  0  3  0  0  0  0  0  0
  161.0340  208.3290  151.1950 O   0  0  0  0  0  0  0  0  0  0  0  0
  162.0550  208.1860  150.2180 C   0  0  1  0  0  3  0  0  0  0  0  0
  163.2030  210.8210  152.1200 O   0  0  0  0  0  0  0  0  0  0  0  0
  162.0830  210.9910  149.7440 S   0  0  0  0  0  0  0  0  0  0  0  0
  160.2290  205.4440  148.8040 O   0  0  0  0  0  0  0  0  0  0  0  0
  162.0330  206.7660  149.6480 C   0  0  2  0  0  3  0  0  0  0  0  0
  162.0870  206.7570  148.1580 C   0  0  0  0  0  2  0  0  0  0  0  0
  160.7620  206.0070  149.9800 C   0  0  0  0  0  2  0  0  0  0  0  0
  161.2240  205.5640  147.8140 C   0  0  2  0  0  3  0  0  0  0  0  0
  160.4480  207.1910  146.0620 C   0  0  0  0  0  1  0  0  0  0  0  0
  160.5900  205.7200  146.4280 C   0  0  1  0  0  3  0  0  0  0  0  0
  162.3310  205.8940  144.3870 O   0  0  0  0  0  0  0  0  0  0  0  0
  162.5320  203.9370  145.8230 O   0  0  0  0  0  0  0  0  0  0  0  0
  161.5530  204.8780  145.1730 S   0  0  0  0  0  0  0  0  0  0  0  0
  159.7370  202.9560  144.3840 C   0  0  0  0  0  3  0  0  0  0  0  0
  160.5100  203.9970  144.0510 C   0  0  0  0  0  3  0  0  0  0  0  0
  159.6330  202.4100  145.7730 C   0  0  1  0  0  3  0  0  0  0  0  0
  158.6540  201.4150  145.8150 O   0  0  0  0  0  1  0  0  0  0  0  0
  161.2360  200.0360  147.6580 N   0  0  0  0  0  0  0  0  0  0  0  0
  160.9180  201.3950  147.6040 N   0  0  0  0  0  0  0  0  0  0  0  0
  160.9840  201.8620  146.2260 C   0  0  1  0  0  3  0  0  0  0  0  0
  161.3150  200.6710  145.5170 O   0  0  0  0  0  0  0  0  0  0  0  0
  161.4560  199.6490  146.4490 C   0  0  0  0  0  0  0  0  0  0  0  0
  161.7830  198.2470  146.0930 C   0  0  0  0  0  2  0  0  0  0  0  0
  160.9350  197.8130  145.0820 O   0  0  0  0  0  1  0  0  0  0  0  0
  160.7410  202.2250  148.7870 C   0  0  0  0  0  2  0  0  0  0  0  0
  161.0210  201.4250  150.0530 C   0  0  2  0  0  3  0  0  0  0  0  0
  159.8570  200.8020  150.5070 O   0  0  0  0  0  1  0  0  0  0  0  0
  161.5870  202.3270  151.1390 C   0  0  0  0  0  2  0  0  0  0  0  0
  160.5190  202.9410  151.9130 N   0  0  0  0  0  2  0  0  0  0  0  0
  161.0930  204.0930  152.5840 C   0  0  0  0  0  1  0  0  0  0  0  0
  161.2370  209.1940  153.4710 C   0  0  2  0  0  3  0  0  0  0  0  0
  161.1860  207.6850  153.7010 C   0  0  0  0  0  2  0  0  0  0  0  0
  160.0750  207.3350  154.6760 C   0  0  0  0  0  2  0  0  0  0  0  0
  161.8990  207.7090  156.3770 C   0  0  0  0  0  1  0  0  0  0  0  0
  160.6670  206.8800  156.0110 C   0  0  0  0  0  3  0  0  0  0  0  0
  159.6220  207.0180  157.0960 C   0  0  0  0  0  1  0  0  0  0  0  0
  160.1830  209.8300  154.1500 O   0  0  0  0  0  0  0  0  0  0  0  0
  160.7500  210.9600  154.7660 C   0  0  2  0  0  3  0  0  0  0  0  0
  162.4640  210.9880  156.2890 C   0  0  0  0  0  1  0  0  0  0  0  0
  162.1490  210.8300  154.9300 O   0  0  0  0  0  0  0  0  0  0  0  0
  160.0590  211.2840  156.0940 C   0  0  0  0  0  2  0  0  0  0  0  0
  155.4300  210.3240  154.9980 O   0  0  0  0  0  0  0  0  0  0  0  0
  158.6270  212.9060  154.8480 C   0  0  1  0  0  3  0  0  0  0  0  0
  156.2590  212.3960  154.4520 O   0  0  0  0  0  0  0  0  0  0  0  0
  158.6380  211.7870  155.8890 C   0  0  1  0  0  3  0  0  0  0  0  0
  157.7550  210.6310  155.4330 C   0  0  0  0  0  2  0  0  0  0  0  0
  157.2040  213.4430  154.6860 C   0  0  2  0  0  3  0  0  0  0  0  0
  156.4120  211.1120  154.9820 C   0  0  0  0  0  0  0  0  0  0  0  0
  159.4670  213.9440  155.2600 O   0  0  0  0  0  1  0  0  0  0  0  0
  157.1400  214.4490  153.5500 C   0  0  0  0  0  2  0  0  0  0  0  0
  157.5580  213.7860  152.2490 C   0  0  0  0  0  1  0  0  0  0  0  0
  1  7  1  0  0  0  0
  2  3  1  0  0  0  0
  2  6  2  0  0  0  0
  3 35  1  1  0  0  0
  4  3  1  0  0  0  0
  5  1  1  6  0  0  0
  5  4  1  0  0  0  0
  7  2  1  0  0  0  0
  8 11  1  0  0  0  0
  9 10  1  6  0  0  0
  9 11  1  0  0  0  0
  9  5  1  0  0  0  0
 12 14  1  6  0  0  0
 12 10  1  0  0  0  0
 12  8  1  0  0  0  0
 14 13  1  6  0  0  0
 15 17  2  0  0  0  0
 17 16  2  0  0  0  0
 17 14  1  0  0  0  0
 18 20  1  0  0  0  0
 19 18  2  0  0  0  0
 19 17  1  0  0  0  0
 20 21  1  6  0  0  0
 23 22  1  0  0  0  0
 23 29  1  0  0  0  0
 24 20  1  6  0  0  0
 24 23  1  0  0  0  0
 25 24  1  0  0  0  0
 25 26  1  0  0  0  0
 26 22  2  0  0  0  0
 27 26  1  0  0  0  0
 28 27  1  0  0  0  0
 29 30  1  0  0  0  0
 30 31  1  1  0  0  0
 30 32  1  0  0  0  0
 32 33  1  0  0  0  0
 33 34  1  0  0  0  0
 35 36  1  6  0  0  0
 35 41  1  0  0  0  0
 36 37  1  0  0  0  0
 37 39  1  0  0  0  0
 39 38  1  0  0  0  0
 39 40  1  0  0  0  0
 41 42  1  0  0  0  0
 42 44  1  0  0  0  0
 42 45  1  1  0  0  0
 44 43  1  0  0  0  0
 47 53  1  1  0  0  0
 47 49  1  0  0  0  0
 48 51  1  0  0  0  0
 48 52  1  0  0  0  0
 49 45  1  6  0  0  0
 50 49  1  0  0  0  0
 51 54  1  6  0  0  0
 51 47  1  0  0  0  0
 52 46  2  0  0  0  0
 52 50  1  0  0  0  0
 55 54  1  0  0  0  0
M  END
>  <MODEL>
1

>  <REMARK>
 VINA RESULT:      -2.7      0.000      0.000
  Name = 
  21 active torsions:
  status: ('A' for Active; 'I' for Inactive)
    1  A    between atoms: C_2  and  C_9
    2  A    between atoms: N_7  and  C_38
    3  A    between atoms: C_9  and  C_43
    4  A    between atoms: C_10  and  C_44
    5  A    between atoms: C_11  and  C_25
    6  A    between atoms: C_12  and  C_23
    7  A    between atoms: C_12  and  C_25
    8  A    between atoms: N_13  and  C_21
    9  A    between atoms: C_16  and  S_34
   10  A    between atoms: C_16  and  C_52
   11  A    between atoms: C_21  and  C_28
   12  A    between atoms: C_23  and  C_42
   13  A    between atoms: O_24  and  C_25
   14  A    between atoms: O_24  and  C_37
   15  A    between atoms: C_26  and  C_30
   16  A    between atoms: C_28  and  C_38
   17  A    between atoms: C_29  and  C_55
   18  A    between atoms: C_32  and  C_46
   19  A    between atoms: S_34  and  C_54
   20  A    between atoms: C_37  and  O_39
   21  A    between atoms: C_37  and  C_46
                            x       y       z     vdW  Elec       q    Type
                         _______ _______ _______ _____ _____    ______ ____

>  <TORSDO>
F 21

$$$$
=
 OpenBabel11072410053D

 55 58  0  0  1  0  0  0  0  0999 V2000
  160.3110  214.3090  144.1400 C   0  0  0  0  0  2  0  0  0  0  0  0
  159.3730  213.2970  141.8580 C   0  0  0  0  0  0  0  0  0  0  0  0
  160.7740  213.5200  141.3210 C   0  0  1  0  0  3  0  0  0  0  0  0
  161.7960  213.6530  142.3010 O   0  0  0  0  0  0  0  0  0  0  0  0
  161.3430  213.2940  143.5990 C   0  0  1  0  0  3  0  0  0  0  0  0
  158.7260  212.2970  141.5900 O   0  0  0  0  0  0  0  0  0  0  0  0
  158.7930  214.4530  143.0990 S   0  0  0  0  0  0  0  0  0  0  0  0
  163.2590  214.4320  146.4070 O   0  0  0  0  0  0  0  0  0  0  0  0
  162.5390  213.1280  144.5370 C   0  0  2  0  0  3  0  0  0  0  0  0
  162.1720  212.4220  145.7980 C   0  0  0  0  0  2  0  0  0  0  0  0
  163.1230  214.4480  145.0050 C   0  0  0  0  0  2  0  0  0  0  0  0
  163.0640  213.0980  146.8150 C   0  0  2  0  0  3  0  0  0  0  0  0
  162.0610  214.4420  148.6870 C   0  0  0  0  0  1  0  0  0  0  0  0
  162.4450  213.0460  148.2150 C   0  0  1  0  0  3  0  0  0  0  0  0
  160.1490  212.3520  149.4280 O   0  0  0  0  0  0  0  0  0  0  0  0
  160.1930  212.1740  147.0000 O   0  0  0  0  0  0  0  0  0  0  0  0
  161.0050  211.9810  148.2520 S   0  0  0  0  0  0  0  0  0  0  0  0
  161.8810  209.7180  149.5670 C   0  0  0  0  0  3  0  0  0  0  0  0
  161.4690  210.2840  148.4260 C   0  0  0  0  0  3  0  0  0  0  0  0
  161.9770  210.4480  150.8690 C   0  0  1  0  0  3  0  0  0  0  0  0
  160.7580  211.0660  151.1520 O   0  0  0  0  0  1  0  0  0  0  0  0
  160.8690  208.0440  153.0490 N   0  0  0  0  0  0  0  0  0  0  0  0
  161.3000  209.3700  152.9710 N   0  0  0  0  0  0  0  0  0  0  0  0
  162.3680  209.4830  151.9860 C   0  0  1  0  0  3  0  0  0  0  0  0
  162.4720  208.1490  151.4960 O   0  0  0  0  0  0  0  0  0  0  0  0
  161.5550  207.3700  152.1930 C   0  0  0  0  0  0  0  0  0  0  0  0
  161.3530  205.9200  151.9520 C   0  0  0  0  0  2  0  0  0  0  0  0
  160.7480  205.7340  150.7150 O   0  0  0  0  0  1  0  0  0  0  0  0
  160.8580  210.4130  153.8850 C   0  0  0  0  0  2  0  0  0  0  0  0
  161.6680  210.3790  155.1750 C   0  0  2  0  0  3  0  0  0  0  0  0
  161.5050  209.1520  155.8220 O   0  0  0  0  0  1  0  0  0  0  0  0
  161.2520  211.5150  156.0960 C   0  0  0  0  0  2  0  0  0  0  0  0
  160.1430  212.2650  155.5260 N   0  0  0  0  0  2  0  0  0  0  0  0
  159.9490  213.4340  156.3660 C   0  0  0  0  0  1  0  0  0  0  0  0
  161.2140  212.6220  140.1630 C   0  0  2  0  0  3  0  0  0  0  0  0
  161.9170  211.3740  140.6950 C   0  0  0  0  0  2  0  0  0  0  0  0
  162.5070  210.5700  139.5500 C   0  0  0  0  0  2  0  0  0  0  0  0
  161.7060  209.1170  137.6500 C   0  0  0  0  0  1  0  0  0  0  0  0
  161.5430  209.4580  139.1320 C   0  0  0  0  0  3  0  0  0  0  0  0
  161.8060  208.2250  139.9690 C   0  0  0  0  0  1  0  0  0  0  0  0
  162.0520  213.3140  139.2720 O   0  0  0  0  0  0  0  0  0  0  0  0
  161.2960  213.4990  138.1010 C   0  0  2  0  0  3  0  0  0  0  0  0
  163.4390  213.6540  137.2990 C   0  0  0  0  0  1  0  0  0  0  0  0
  162.0920  213.9360  137.0170 O   0  0  0  0  0  0  0  0  0  0  0  0
  160.1100  214.4390  138.3390 C   0  0  0  0  0  2  0  0  0  0  0  0
  155.2900  214.0630  138.7600 O   0  0  0  0  0  0  0  0  0  0  0  0
  158.8950  212.3200  137.8240 C   0  0  1  0  0  3  0  0  0  0  0  0
  156.4440  212.2550  137.9370 O   0  0  0  0  0  0  0  0  0  0  0  0
  158.8020  213.8450  137.8390 C   0  0  1  0  0  3  0  0  0  0  0  0
  157.6630  214.2970  138.7470 C   0  0  0  0  0  2  0  0  0  0  0  0
  157.5960  211.7300  137.2720 C   0  0  2  0  0  3  0  0  0  0  0  0
  156.4000  213.5520  138.4550 C   0  0  0  0  0  0  0  0  0  0  0  0
  159.9630  211.9190  137.0170 O   0  0  0  0  0  1  0  0  0  0  0  0
  157.6050  210.2170  137.3880 C   0  0  0  0  0  2  0  0  0  0  0  0
  157.2640  209.8060  138.8110 C   0  0  0  0  0  1  0  0  0  0  0  0
  2  7  1  0  0  0  0
  3 35  1  6  0  0  0
  3  2  1  0  0  0  0
  3  4  1  0  0  0  0
  4  5  1  0  0  0  0
  5  1  1  1  0  0  0
  5  9  1  0  0  0  0
  6  2  2  0  0  0  0
  7  1  1  0  0  0  0
  8 12  1  0  0  0  0
  9 11  1  1  0  0  0
  9 10  1  0  0  0  0
 10 12  1  0  0  0  0
 11  8  1  0  0  0  0
 12 14  1  1  0  0  0
 14 17  1  0  0  0  0
 14 13  1  6  0  0  0
 16 17  2  0  0  0  0
 17 19  1  0  0  0  0
 17 15  2  0  0  0  0
 18 20  1  0  0  0  0
 19 18  2  0  0  0  0
 20 21  1  1  0  0  0
 23 22  1  0  0  0  0
 23 29  1  0  0  0  0
 24 20  1  6  0  0  0
 24 23  1  0  0  0  0
 25 24  1  0  0  0  0
 25 26  1  0  0  0  0
 26 22  2  0  0  0  0
 27 26  1  0  0  0  0
 28 27  1  0  0  0  0
 29 30  1  0  0  0  0
 30 31  1  1  0  0  0
 30 32  1  0  0  0  0
 33 32  1  0  0  0  0
 33 34  1  0  0  0  0
 35 36  1  1  0  0  0
 37 36  1  0  0  0  0
 38 39  1  0  0  0  0
 39 37  1  0  0  0  0
 39 40  1  0  0  0  0
 41 35  1  0  0  0  0
 42 45  1  1  0  0  0
 42 41  1  0  0  0  0
 44 43  1  0  0  0  0
 44 42  1  0  0  0  0
 47 53  1  6  0  0  0
 47 49  1  0  0  0  0
 48 52  1  0  0  0  0
 49 45  1  1  0  0  0
 49 50  1  0  0  0  0
 51 54  1  1  0  0  0
 51 47  1  0  0  0  0
 51 48  1  0  0  0  0
 52 50  1  0  0  0  0
 52 46  2  0  0  0  0
 54 55  1  0  0  0  0
M  END
>  <MODEL>
2

>  <REMARK>
 VINA RESULT:      -1.7      7.161     12.760
  Name = 
  21 active torsions:
  status: ('A' for Active; 'I' for Inactive)
    1  A    between atoms: C_2  and  C_9
    2  A    between atoms: N_7  and  C_38
    3  A    between atoms: C_9  and  C_43
    4  A    between atoms: C_10  and  C_44
    5  A    between atoms: C_11  and  C_25
    6  A    between atoms: C_12  and  C_23
    7  A    between atoms: C_12  and  C_25
    8  A    between atoms: N_13  and  C_21
    9  A    between atoms: C_16  and  S_34
   10  A    between atoms: C_16  and  C_52
   11  A    between atoms: C_21  and  C_28
   12  A    between atoms: C_23  and  C_42
   13  A    between atoms: O_24  and  C_25
   14  A    between atoms: O_24  and  C_37
   15  A    between atoms: C_26  and  C_30
   16  A    between atoms: C_28  and  C_38
   17  A    between atoms: C_29  and  C_55
   18  A    between atoms: C_32  and  C_46
   19  A    between atoms: S_34  and  C_54
   20  A    between atoms: C_37  and  O_39
   21  A    between atoms: C_37  and  C_46
                            x       y       z     vdW  Elec       q    Type
                         _______ _______ _______ _____ _____    ______ ____

>  <TORSDO>
F 21

$$$$
=
 OpenBabel11072410053D

 55 58  0  0  1  0  0  0  0  0999 V2000
  160.9150  204.7290  152.4020 C   0  0  0  0  0  2  0  0  0  0  0  0
  161.0330  204.1540  149.8010 C   0  0  0  0  0  0  0  0  0  0  0  0
  160.7670  205.6310  149.5830 C   0  0  1  0  0  3  0  0  0  0  0  0
  161.0530  206.4790  150.6880 O   0  0  0  0  0  0  0  0  0  0  0  0
  161.7800  205.8050  151.7060 C   0  0  1  0  0  3  0  0  0  0  0  0
  161.8300  203.5290  149.1170 O   0  0  0  0  0  0  0  0  0  0  0  0
  160.3060  203.4120  151.2610 S   0  0  0  0  0  0  0  0  0  0  0  0
  161.7700  209.1040  153.1070 O   0  0  0  0  0  0  0  0  0  0  0  0
  162.3490  206.8220  152.6960 C   0  0  2  0  0  3  0  0  0  0  0  0
  161.5380  206.9050  153.9450 C   0  0  0  0  0  2  0  0  0  0  0  0
  162.3570  208.2410  152.1610 C   0  0  0  0  0  2  0  0  0  0  0  0
  161.6520  208.3700  154.3030 C   0  0  2  0  0  3  0  0  0  0  0  0
  159.8250  207.6830  155.8870 C   0  0  0  0  0  1  0  0  0  0  0  0
  160.4360  208.8390  155.1070 C   0  0  1  0  0  3  0  0  0  0  0  0
  161.8380  209.6370  157.2590 O   0  0  0  0  0  0  0  0  0  0  0  0
  161.5460  211.2770  155.4820 O   0  0  0  0  0  0  0  0  0  0  0  0
  160.8720  210.1620  156.2360 S   0  0  0  0  0  0  0  0  0  0  0  0
  158.6630  211.7630  156.6490 C   0  0  0  0  0  3  0  0  0  0  0  0
  159.4480  210.7710  157.0870 C   0  0  0  0  0  3  0  0  0  0  0  0
  158.8740  212.4790  155.3530 C   0  0  1  0  0  3  0  0  0  0  0  0
  158.3720  211.7080  154.3030 O   0  0  0  0  0  1  0  0  0  0  0  0
  156.1960  214.3460  154.3020 N   0  0  0  0  0  0  0  0  0  0  0  0
  157.5670  214.1510  154.1150 N   0  0  0  0  0  0  0  0  0  0  0  0
  158.2000  213.8480  155.3910 C   0  0  1  0  0  3  0  0  0  0  0  0
  157.0930  213.8470  156.2880 O   0  0  0  0  0  0  0  0  0  0  0  0
  155.9540  214.1640  155.5540 C   0  0  0  0  0  0  0  0  0  0  0  0
  154.5930  214.2440  156.1370 C   0  0  0  0  0  2  0  0  0  0  0  0
  154.2300  213.0020  156.6430 O   0  0  0  0  0  1  0  0  0  0  0  0
  158.2480  214.4060  152.8540 C   0  0  0  0  0  2  0  0  0  0  0  0
  158.2080  213.1730  151.9600 C   0  0  2  0  0  3  0  0  0  0  0  0
  159.5010  212.7910  151.5950 O   0  0  0  0  0  1  0  0  0  0  0  0
  157.3740  213.4430  150.7180 C   0  0  0  0  0  2  0  0  0  0  0  0
  156.3530  214.4440  150.9850 N   0  0  0  0  0  2  0  0  0  0  0  0
  155.1080  213.9350  150.4400 C   0  0  0  0  0  1  0  0  0  0  0  0
  161.2670  206.2300  148.2660 C   0  0  2  0  0  3  0  0  0  0  0  0
  161.0630  207.7440  148.2590 C   0  0  0  0  0  2  0  0  0  0  0  0
  162.3750  208.4540  147.9740 C   0  0  0  0  0  2  0  0  0  0  0  0
  161.5370  210.8040  147.6060 C   0  0  0  0  0  1  0  0  0  0  0  0
  162.3360  209.8790  148.5270 C   0  0  0  0  0  3  0  0  0  0  0  0
  161.7060  209.8670  149.9020 C   0  0  0  0  0  1  0  0  0  0  0  0
  160.6240  205.6430  147.1630 O   0  0  0  0  0  0  0  0  0  0  0  0
  161.4420  204.5690  146.7700 C   0  0  2  0  0  3  0  0  0  0  0  0
  162.3460  205.7270  145.0100 C   0  0  0  0  0  1  0  0  0  0  0  0
  162.6480  205.0080  146.1780 O   0  0  0  0  0  0  0  0  0  0  0  0
  160.6910  203.5950  145.8560 C   0  0  0  0  0  2  0  0  0  0  0  0
  161.6740  200.5770  149.5260 O   0  0  0  0  0  0  0  0  0  0  0  0
  160.9600  201.1360  145.5160 C   0  0  1  0  0  3  0  0  0  0  0  0
  161.3240  199.6660  147.4460 O   0  0  0  0  0  0  0  0  0  0  0  0
  160.5240  202.2250  146.4960 C   0  0  1  0  0  3  0  0  0  0  0  0
  161.3600  202.1580  147.7690 C   0  0  0  0  0  2  0  0  0  0  0  0
  160.7400  199.7600  146.1450 C   0  0  2  0  0  3  0  0  0  0  0  0
  161.4300  200.7630  148.3050 C   0  0  0  0  0  0  0  0  0  0  0  0
  160.2100  201.2310  144.3400 O   0  0  0  0  0  1  0  0  0  0  0  0
  161.3040  198.6690  145.2530 C   0  0  0  0  0  2  0  0  0  0  0  0
  160.2500  197.6010  145.0140 C   0  0  0  0  0  1  0  0  0  0  0  0
  2  7  1  0  0  0  0
  3 35  1  6  0  0  0
  3  2  1  0  0  0  0
  3  4  1  0  0  0  0
  4  5  1  0  0  0  0
  5  1  1  1  0  0  0
  5  9  1  0  0  0  0
  6  2  2  0  0  0  0
  7  1  1  0  0  0  0
  8 12  1  0  0  0  0
  9 11  1  6  0  0  0
  9 10  1  0  0  0  0
 10 12  1  0  0  0  0
 11  8  1  0  0  0  0
 12 14  1  6  0  0  0
 14 13  1  1  0  0  0
 14 17  1  0  0  0  0
 16 17  2  0  0  0  0
 17 19  1  0  0  0  0
 17 15  2  0  0  0  0
 18 19  2  0  0  0  0
 20 21  1  6  0  0  0
 20 18  1  0  0  0  0
 22 26  2  0  0  0  0
 23 22  1  0  0  0  0
 23 24  1  0  0  0  0
 24 20  1  6  0  0  0
 24 25  1  0  0  0  0
 26 27  1  0  0  0  0
 26 25  1  0  0  0  0
 27 28  1  0  0  0  0
 29 23  1  0  0  0  0
 30 31  1  6  0  0  0
 30 29  1  0  0  0  0
 32 33  1  0  0  0  0
 32 30  1  0  0  0  0
 34 33  1  0  0  0  0
 35 36  1  1  0  0  0
 37 36  1  0  0  0  0
 37 39  1  0  0  0  0
 38 39  1  0  0  0  0
 39 40  1  0  0  0  0
 41 35  1  0  0  0  0
 42 45  1  6  0  0  0
 42 41  1  0  0  0  0
 43 44  1  0  0  0  0
 44 42  1  0  0  0  0
 47 53  1  6  0  0  0
 47 51  1  0  0  0  0
 47 49  1  0  0  0  0
 48 52  1  0  0  0  0
 49 45  1  6  0  0  0
 49 50  1  0  0  0  0
 50 52  1  0  0  0  0
 51 54  1  6  0  0  0
 51 48  1  0  0  0  0
 52 46  2  0  0  0  0
 55 54  1  0  0  0  0
M  END
>  <MODEL>
3

>  <REMARK>
 VINA RESULT:      -1.1      3.872     12.217
  Name = 
  21 active torsions:
  status: ('A' for Active; 'I' for Inactive)
    1  A    between atoms: C_2  and  C_9
    2  A    between atoms: N_7  and  C_38
    3  A    between atoms: C_9  and  C_43
    4  A    between atoms: C_10  and  C_44
    5  A    between atoms: C_11  and  C_25
    6  A    between atoms: C_12  and  C_23
    7  A    between atoms: C_12  and  C_25
    8  A    between atoms: N_13  and  C_21
    9  A    between atoms: C_16  and  S_34
   10  A    between atoms: C_16  and  C_52
   11  A    between atoms: C_21  and  C_28
   12  A    between atoms: C_23  and  C_42
   13  A    between atoms: O_24  and  C_25
   14  A    between atoms: O_24  and  C_37
   15  A    between atoms: C_26  and  C_30
   16  A    between atoms: C_28  and  C_38
   17  A    between atoms: C_29  and  C_55
   18  A    between atoms: C_32  and  C_46
   19  A    between atoms: S_34  and  C_54
   20  A    between atoms: C_37  and  O_39
   21  A    between atoms: C_37  and  C_46
                            x       y       z     vdW  Elec       q    Type
                         _______ _______ _______ _____ _____    ______ ____

>  <TORSDO>
F 21

$$$$
=
 OpenBabel11072410053D

 55 58  0  0  1  0  0  0  0  0999 V2000
  161.5170  209.7220  149.2410 C   0  0  0  0  0  2  0  0  0  0  0  0
  162.4500  210.7480  151.5190 C   0  0  0  0  0  0  0  0  0  0  0  0
  161.3190  209.9880  152.1860 C   0  0  1  0  0  3  0  0  0  0  0  0
  160.7690  208.9140  151.4340 O   0  0  0  0  0  0  0  0  0  0  0  0
  161.5610  208.5950  150.2990 C   0  0  1  0  0  3  0  0  0  0  0  0
  163.5660  210.8160  152.0110 O   0  0  0  0  0  0  0  0  0  0  0  0
  162.1480  211.3440  149.8570 S   0  0  0  0  0  0  0  0  0  0  0  0
  162.3550  205.2280  149.3620 O   0  0  0  0  0  0  0  0  0  0  0  0
  161.1270  207.2450  149.7260 C   0  0  2  0  0  3  0  0  0  0  0  0
  160.7860  206.2630  150.7950 C   0  0  0  0  0  2  0  0  0  0  0  0
  162.2130  206.5580  148.9200 C   0  0  0  0  0  2  0  0  0  0  0  0
  161.2490  204.9570  150.1900 C   0  0  2  0  0  3  0  0  0  0  0  0
  161.6680  204.6130  152.6440 C   0  0  0  0  0  1  0  0  0  0  0  0
  161.6220  203.9450  151.2760 C   0  0  1  0  0  3  0  0  0  0  0  0
  160.1120  202.2710  152.7410 O   0  0  0  0  0  0  0  0  0  0  0  0
  159.2050  202.9480  150.5850 O   0  0  0  0  0  0  0  0  0  0  0  0
  160.4680  202.5740  151.3150 S   0  0  0  0  0  0  0  0  0  0  0  0
  161.2870  200.8870  149.2900 C   0  0  0  0  0  3  0  0  0  0  0  0
  161.1780  201.1200  150.6040 C   0  0  0  0  0  3  0  0  0  0  0  0
  160.8400  201.8500  148.2360 C   0  0  1  0  0  3  0  0  0  0  0  0
  161.9360  202.5770  147.7680 O   0  0  0  0  0  1  0  0  0  0  0  0
  161.1510  200.7070  145.0180 N   0  0  0  0  0  0  0  0  0  0  0  0
  160.5240  201.6760  145.8060 N   0  0  0  0  0  0  0  0  0  0  0  0
  160.1590  201.1010  147.0940 C   0  0  1  0  0  3  0  0  0  0  0  0
  160.6570  199.7700  146.9860 O   0  0  0  0  0  0  0  0  0  0  0  0
  161.2150  199.6290  145.7190 C   0  0  0  0  0  0  0  0  0  0  0  0
  161.8560  198.3830  145.2350 C   0  0  0  0  0  2  0  0  0  0  0  0
  160.8850  197.5220  144.7390 O   0  0  0  0  0  1  0  0  0  0  0  0
  160.1430  202.9890  145.3100 C   0  0  0  0  0  2  0  0  0  0  0  0
  161.3490  203.7190  144.7330 C   0  0  2  0  0  3  0  0  0  0  0  0
  162.3660  203.8120  145.6860 O   0  0  0  0  0  1  0  0  0  0  0  0
  160.9540  205.1070  144.2540 C   0  0  0  0  0  2  0  0  0  0  0  0
  159.9350  205.6840  145.1170 N   0  0  0  0  0  2  0  0  0  0  0  0
  160.6090  206.6210  145.9980 C   0  0  0  0  0  1  0  0  0  0  0  0
  161.5250  209.6030  153.6540 C   0  0  2  0  0  3  0  0  0  0  0  0
  161.5750  208.0840  153.8030 C   0  0  0  0  0  2  0  0  0  0  0  0
  161.4430  207.6910  155.2650 C   0  0  0  0  0  2  0  0  0  0  0  0
  159.0790  206.8140  155.2720 C   0  0  0  0  0  1  0  0  0  0  0  0
  160.0120  207.9280  155.7490 C   0  0  0  0  0  3  0  0  0  0  0  0
  159.9970  207.9880  157.2610 C   0  0  0  0  0  1  0  0  0  0  0  0
  160.5140  210.1430  154.4680 O   0  0  0  0  0  0  0  0  0  0  0  0
  161.1110  211.2100  155.1630 C   0  0  2  0  0  3  0  0  0  0  0  0
  163.0340  211.0920  156.4060 C   0  0  0  0  0  1  0  0  0  0  0  0
  161.6600  210.7970  156.3990 O   0  0  0  0  0  0  0  0  0  0  0  0
  160.1370  212.3780  155.3460 C   0  0  0  0  0  2  0  0  0  0  0  0
  158.7980  213.3130  150.7760 O   0  0  0  0  0  0  0  0  0  0  0  0
  157.8460  213.1920  154.7740 C   0  0  1  0  0  3  0  0  0  0  0  0
  157.2110  213.5130  152.4260 O   0  0  0  0  0  0  0  0  0  0  0  0
  159.0480  212.3850  154.2830 C   0  0  1  0  0  3  0  0  0  0  0  0
  159.6020  212.9890  152.9980 C   0  0  0  0  0  2  0  0  0  0  0  0
  156.7350  213.1510  153.7240 C   0  0  2  0  0  3  0  0  0  0  0  0
  158.5160  213.2480  152.0010 C   0  0  0  0  0  0  0  0  0  0  0  0
  157.3700  212.6490  155.9710 O   0  0  0  0  0  1  0  0  0  0  0  0
  155.5920  214.0680  154.1210 C   0  0  0  0  0  2  0  0  0  0  0  0
  154.5350  214.0760  153.0290 C   0  0  0  0  0  1  0  0  0  0  0  0
  1  7  1  0  0  0  0
  2  6  2  0  0  0  0
  2  3  1  0  0  0  0
  3 35  1  1  0  0  0
  4  3  1  0  0  0  0
  5  1  1  6  0  0  0
  5  4  1  0  0  0  0
  7  2  1  0  0  0  0
  8 12  1  0  0  0  0
  9 11  1  1  0  0  0
  9  5  1  0  0  0  0
  9 10  1  0  0  0  0
 11  8  1  0  0  0  0
 12 10  1  0  0  0  0
 12 14  1  1  0  0  0
 14 17  1  0  0  0  0
 14 13  1  1  0  0  0
 16 17  2  0  0  0  0
 17 15  2  0  0  0  0
 18 19  2  0  0  0  0
 19 17  1  0  0  0  0
 20 21  1  6  0  0  0
 20 18  1  0  0  0  0
 22 26  2  0  0  0  0
 22 23  1  0  0  0  0
 23 24  1  0  0  0  0
 24 20  1  1  0  0  0
 25 24  1  0  0  0  0
 26 25  1  0  0  0  0
 27 26  1  0  0  0  0
 28 27  1  0  0  0  0
 29 23  1  0  0  0  0
 30 29  1  0  0  0  0
 30 31  1  1  0  0  0
 32 30  1  0  0  0  0
 32 33  1  0  0  0  0
 33 34  1  0  0  0  0
 35 36  1  6  0  0  0
 35 41  1  0  0  0  0
 36 37  1  0  0  0  0
 37 39  1  0  0  0  0
 38 39  1  0  0  0  0
 39 40  1  0  0  0  0
 41 42  1  0  0  0  0
 42 45  1  1  0  0  0
 42 44  1  0  0  0  0
 44 43  1  0  0  0  0
 46 52  2  0  0  0  0
 47 53  1  1  0  0  0
 48 51  1  0  0  0  0
 49 47  1  0  0  0  0
 49 45  1  1  0  0  0
 50 49  1  0  0  0  0
 51 54  1  1  0  0  0
 51 47  1  0  0  0  0
 52 48  1  0  0  0  0
 52 50  1  0  0  0  0
 55 54  1  0  0  0  0
M  END
>  <MODEL>
4

>  <REMARK>
 VINA RESULT:      -0.5      1.859      3.726
  Name = 
  21 active torsions:
  status: ('A' for Active; 'I' for Inactive)
    1  A    between atoms: C_2  and  C_9
    2  A    between atoms: N_7  and  C_38
    3  A    between atoms: C_9  and  C_43
    4  A    between atoms: C_10  and  C_44
    5  A    between atoms: C_11  and  C_25
    6  A    between atoms: C_12  and  C_23
    7  A    between atoms: C_12  and  C_25
    8  A    between atoms: N_13  and  C_21
    9  A    between atoms: C_16  and  S_34
   10  A    between atoms: C_16  and  C_52
   11  A    between atoms: C_21  and  C_28
   12  A    between atoms: C_23  and  C_42
   13  A    between atoms: O_24  and  C_25
   14  A    between atoms: O_24  and  C_37
   15  A    between atoms: C_26  and  C_30
   16  A    between atoms: C_28  and  C_38
   17  A    between atoms: C_29  and  C_55
   18  A    between atoms: C_32  and  C_46
   19  A    between atoms: S_34  and  C_54
   20  A    between atoms: C_37  and  O_39
   21  A    between atoms: C_37  and  C_46
                            x       y       z     vdW  Elec       q    Type
                         _______ _______ _______ _____ _____    ______ ____

>  <TORSDO>
F 21

$$$$
=
 OpenBabel11072410053D

 55 58  0  0  1  0  0  0  0  0999 V2000
  161.7890  208.2210  147.8160 C   0  0  0  0  0  2  0  0  0  0  0  0
  161.9760  209.2110  150.2860 C   0  0  0  0  0  0  0  0  0  0  0  0
  161.3230  207.9150  150.7270 C   0  0  1  0  0  3  0  0  0  0  0  0
  161.4080  206.8360  149.8050 O   0  0  0  0  0  0  0  0  0  0  0  0
  162.3180  207.1060  148.7480 C   0  0  1  0  0  3  0  0  0  0  0  0
  162.8890  209.7260  150.9140 O   0  0  0  0  0  0  0  0  0  0  0  0
  161.5160  209.8350  148.6700 S   0  0  0  0  0  0  0  0  0  0  0  0
  161.1910  204.0700  147.2100 O   0  0  0  0  0  0  0  0  0  0  0  0
  162.6280  205.8150  147.9880 C   0  0  2  0  0  3  0  0  0  0  0  0
  162.4260  205.9640  146.5180 C   0  0  0  0  0  2  0  0  0  0  0  0
  161.7220  204.6600  148.3740 C   0  0  0  0  0  2  0  0  0  0  0  0
  161.9190  204.5960  146.1240 C   0  0  2  0  0  3  0  0  0  0  0  0
  159.5890  204.9390  145.2450 C   0  0  0  0  0  1  0  0  0  0  0  0
  161.0410  204.6710  144.8720 C   0  0  1  0  0  3  0  0  0  0  0  0
  160.8080  207.1870  143.9560 O   0  0  0  0  0  0  0  0  0  0  0  0
  163.0600  206.2620  144.0330 O   0  0  0  0  0  0  0  0  0  0  0  0
  161.6170  205.9410  143.7460 S   0  0  0  0  0  0  0  0  0  0  0  0
  161.7470  206.1860  141.0000 C   0  0  0  0  0  3  0  0  0  0  0  0
  161.4250  205.4370  142.0630 C   0  0  0  0  0  3  0  0  0  0  0  0
  162.3440  207.5550  141.0980 C   0  0  1  0  0  3  0  0  0  0  0  0
  163.5570  207.5880  140.4090 O   0  0  0  0  0  1  0  0  0  0  0  0
  161.7070  209.7430  138.5360 N   0  0  0  0  0  0  0  0  0  0  0  0
  162.0950  209.6710  139.8770 N   0  0  0  0  0  0  0  0  0  0  0  0
  161.3740  208.5930  140.5400 C   0  0  1  0  0  3  0  0  0  0  0  0
  160.5970  208.0470  139.4780 O   0  0  0  0  0  0  0  0  0  0  0  0
  160.8520  208.8010  138.3370 C   0  0  0  0  0  0  0  0  0  0  0  0
  160.2380  208.5280  137.0150 C   0  0  0  0  0  2  0  0  0  0  0  0
  158.8720  208.3240  137.1680 O   0  0  0  0  0  1  0  0  0  0  0  0
  162.9470  210.6600  140.5190 C   0  0  0  0  0  2  0  0  0  0  0  0
  162.3640  212.0590  140.3610 C   0  0  2  0  0  3  0  0  0  0  0  0
  163.3840  213.0020  140.2220 O   0  0  0  0  0  1  0  0  0  0  0  0
  161.4890  212.4090  141.5550 C   0  0  0  0  0  2  0  0  0  0  0  0
  161.0880  213.8070  141.5120 N   0  0  0  0  0  2  0  0  0  0  0  0
  159.9180  213.8840  140.6550 C   0  0  0  0  0  1  0  0  0  0  0  0
  161.6070  207.4580  152.1600 C   0  0  2  0  0  3  0  0  0  0  0  0
  162.0210  205.9880  152.1780 C   0  0  0  0  0  2  0  0  0  0  0  0
  160.7980  205.0930  152.0830 C   0  0  0  0  0  2  0  0  0  0  0  0
  161.4010  202.6620  152.3750 C   0  0  0  0  0  1  0  0  0  0  0  0
  161.1520  203.7870  151.3700 C   0  0  0  0  0  3  0  0  0  0  0  0
  160.0190  203.3980  150.4450 C   0  0  0  0  0  1  0  0  0  0  0  0
  160.4920  207.6640  152.9900 O   0  0  0  0  0  0  0  0  0  0  0  0
  161.0100  208.0530  154.2380 C   0  0  2  0  0  3  0  0  0  0  0  0
  161.1110  207.5280  156.4680 C   0  0  0  0  0  1  0  0  0  0  0  0
  160.3140  207.4540  155.3140 O   0  0  0  0  0  0  0  0  0  0  0  0
  161.0520  209.5780  154.3790 C   0  0  0  0  0  2  0  0  0  0  0  0
  158.4440  212.3070  151.3300 O   0  0  0  0  0  0  0  0  0  0  0  0
  159.2380  211.0950  155.1780 C   0  0  1  0  0  3  0  0  0  0  0  0
  157.8800  212.3400  153.5570 O   0  0  0  0  0  0  0  0  0  0  0  0
  159.7210  210.2210  154.0220 C   0  0  1  0  0  3  0  0  0  0  0  0
  159.8890  211.0600  152.7590 C   0  0  0  0  0  2  0  0  0  0  0  0
  157.8750  211.6970  154.8340 C   0  0  2  0  0  3  0  0  0  0  0  0
  158.6840  211.9080  152.5000 C   0  0  0  0  0  0  0  0  0  0  0  0
  159.1210  210.3240  156.3380 O   0  0  0  0  0  1  0  0  0  0  0  0
  157.4430  212.6880  155.9010 C   0  0  0  0  0  2  0  0  0  0  0  0
  155.9670  212.5020  156.2110 C   0  0  0  0  0  1  0  0  0  0  0  0
  1  7  1  0  0  0  0
  2  3  1  0  0  0  0
  2  6  2  0  0  0  0
  3 35  1  1  0  0  0
  4  3  1  0  0  0  0
  5  1  1  6  0  0  0
  5  4  1  0  0  0  0
  7  2  1  0  0  0  0
  8 11  1  0  0  0  0
  9 10  1  6  0  0  0
  9 11  1  0  0  0  0
  9  5  1  0  0  0  0
 12 14  1  6  0  0  0
 12 10  1  0  0  0  0
 12  8  1  0  0  0  0
 14 13  1  1  0  0  0
 17 15  2  0  0  0  0
 17 16  2  0  0  0  0
 17 14  1  0  0  0  0
 18 20  1  0  0  0  0
 18 19  2  0  0  0  0
 19 17  1  0  0  0  0
 20 21  1  6  0  0  0
 22 23  1  0  0  0  0
 23 29  1  0  0  0  0
 23 24  1  0  0  0  0
 24 20  1  6  0  0  0
 25 24  1  0  0  0  0
 26 22  2  0  0  0  0
 26 25  1  0  0  0  0
 27 28  1  0  0  0  0
 27 26  1  0  0  0  0
 30 31  1  1  0  0  0
 30 29  1  0  0  0  0
 30 32  1  0  0  0  0
 33 32  1  0  0  0  0
 34 33  1  0  0  0  0
 35 36  1  6  0  0  0
 35 41  1  0  0  0  0
 37 36  1  0  0  0  0
 39 37  1  0  0  0  0
 39 38  1  0  0  0  0
 40 39  1  0  0  0  0
 41 42  1  0  0  0  0
 42 45  1  1  0  0  0
 42 44  1  0  0  0  0
 44 43  1  0  0  0  0
 46 52  2  0  0  0  0
 47 53  1  1  0  0  0
 48 51  1  0  0  0  0
 49 45  1  1  0  0  0
 49 47  1  0  0  0  0
 50 49  1  0  0  0  0
 51 47  1  0  0  0  0
 51 54  1  1  0  0  0
 52 50  1  0  0  0  0
 52 48  1  0  0  0  0
 54 55  1  0  0  0  0
M  END
>  <MODEL>
5

>  <REMARK>
 VINA RESULT:      -0.5      4.702      7.187
  Name = 
  21 active torsions:
  status: ('A' for Active; 'I' for Inactive)
    1  A    between atoms: C_2  and  C_9
    2  A    between atoms: N_7  and  C_38
    3  A    between atoms: C_9  and  C_43
    4  A    between atoms: C_10  and  C_44
    5  A    between atoms: C_11  and  C_25
    6  A    between atoms: C_12  and  C_23
    7  A    between atoms: C_12  and  C_25
    8  A    between atoms: N_13  and  C_21
    9  A    between atoms: C_16  and  S_34
   10  A    between atoms: C_16  and  C_52
   11  A    between atoms: C_21  and  C_28
   12  A    between atoms: C_23  and  C_42
   13  A    between atoms: O_24  and  C_25
   14  A    between atoms: O_24  and  C_37
   15  A    between atoms: C_26  and  C_30
   16  A    between atoms: C_28  and  C_38
   17  A    between atoms: C_29  and  C_55
   18  A    between atoms: C_32  and  C_46
   19  A    between atoms: S_34  and  C_54
   20  A    between atoms: C_37  and  O_39
   21  A    between atoms: C_37  and  C_46
                            x       y       z     vdW  Elec       q    Type
                         _______ _______ _______ _____ _____    ______ ____

>  <TORSDO>
F 21

$$$$
=
 OpenBabel11072410053D

 55 58  0  0  1  0  0  0  0  0999 V2000
  161.6740  206.2010  145.9490 C   0  0  0  0  0  2  0  0  0  0  0  0
  161.6310  203.5480  145.6810 C   0  0  0  0  0  0  0  0  0  0  0  0
  161.9510  203.5120  147.1640 C   0  0  1  0  0  3  0  0  0  0  0  0
  161.6520  204.6980  147.8880 O   0  0  0  0  0  0  0  0  0  0  0  0
  160.8690  205.6070  147.1280 C   0  0  1  0  0  3  0  0  0  0  0  0
  160.8400  202.7720  145.1680 O   0  0  0  0  0  0  0  0  0  0  0  0
  162.2810  204.9350  144.7510 S   0  0  0  0  0  0  0  0  0  0  0  0
  160.8220  207.2740  150.3010 O   0  0  0  0  0  0  0  0  0  0  0  0
  160.2970  206.6910  148.0430 C   0  0  2  0  0  3  0  0  0  0  0  0
  161.1360  207.9230  148.0500 C   0  0  0  0  0  2  0  0  0  0  0  0
  160.2350  206.2740  149.5000 C   0  0  0  0  0  2  0  0  0  0  0  0
  160.9910  208.4030  149.4760 C   0  0  2  0  0  3  0  0  0  0  0  0
  162.7170  210.0900  148.7760 C   0  0  0  0  0  1  0  0  0  0  0  0
  162.2130  209.2140  149.9150 C   0  0  1  0  0  3  0  0  0  0  0  0
  163.1000  210.4680  152.1220 O   0  0  0  0  0  0  0  0  0  0  0  0
  161.3140  211.5720  150.8880 O   0  0  0  0  0  0  0  0  0  0  0  0
  161.8400  210.2360  151.3400 S   0  0  0  0  0  0  0  0  0  0  0  0
  159.7600  210.0870  153.1470 C   0  0  0  0  0  3  0  0  0  0  0  0
  160.6700  209.4460  152.4040 C   0  0  0  0  0  3  0  0  0  0  0  0
  159.5920  211.5730  153.1560 C   0  0  1  0  0  3  0  0  0  0  0  0
  158.2350  211.8930  153.0870 O   0  0  0  0  0  1  0  0  0  0  0  0
  160.0790  211.1970  156.5300 N   0  0  0  0  0  0  0  0  0  0  0  0
  159.3800  211.9410  155.5760 N   0  0  0  0  0  0  0  0  0  0  0  0
  160.2260  212.1670  154.4120 C   0  0  1  0  0  3  0  0  0  0  0  0
  161.4180  211.4700  154.7610 O   0  0  0  0  0  0  0  0  0  0  0  0
  161.2400  210.9400  156.0350 C   0  0  0  0  0  0  0  0  0  0  0  0
  162.2610  210.1280  156.7400 C   0  0  0  0  0  2  0  0  0  0  0  0
  163.5110  210.7150  156.5850 O   0  0  0  0  0  1  0  0  0  0  0  0
  158.0770  212.5410  155.8240 C   0  0  0  0  0  2  0  0  0  0  0  0
  157.0670  211.4810  156.2470 C   0  0  2  0  0  3  0  0  0  0  0  0
  157.5380  210.2040  155.9340 O   0  0  0  0  0  1  0  0  0  0  0  0
  155.7260  211.7230  155.5710 C   0  0  0  0  0  2  0  0  0  0  0  0
  155.0050  210.4730  155.3860 N   0  0  0  0  0  2  0  0  0  0  0  0
  154.3260  210.1890  156.6370 C   0  0  0  0  0  1  0  0  0  0  0  0
  161.5170  202.2590  147.9280 C   0  0  2  0  0  3  0  0  0  0  0  0
  160.7610  201.3070  147.0020 C   0  0  0  0  0  2  0  0  0  0  0  0
  161.5790  200.0520  146.7520 C   0  0  0  0  0  2  0  0  0  0  0  0
  160.1290  199.8870  144.6950 C   0  0  0  0  0  1  0  0  0  0  0  0
  160.8260  199.1090  145.8120 C   0  0  0  0  0  3  0  0  0  0  0  0
  161.8000  198.1200  145.2090 C   0  0  0  0  0  1  0  0  0  0  0  0
  160.7260  202.5900  149.0420 O   0  0  0  0  0  0  0  0  0  0  0  0
  160.8930  201.5350  149.9570 C   0  0  2  0  0  3  0  0  0  0  0  0
  158.6700  201.4050  149.4100 C   0  0  0  0  0  1  0  0  0  0  0  0
  159.6740  200.8790  150.2400 O   0  0  0  0  0  0  0  0  0  0  0  0
  161.5860  202.0080  151.2390 C   0  0  0  0  0  2  0  0  0  0  0  0
  163.5350  206.4510  151.1600 O   0  0  0  0  0  0  0  0  0  0  0  0
  160.9310  203.7730  152.8790 C   0  0  1  0  0  3  0  0  0  0  0  0
  161.8680  206.0330  152.6850 O   0  0  0  0  0  0  0  0  0  0  0  0
  161.4240  203.5040  151.4570 C   0  0  1  0  0  3  0  0  0  0  0  0
  162.7630  204.1960  151.2220 C   0  0  0  0  0  2  0  0  0  0  0  0
  160.7200  205.2750  153.0750 C   0  0  2  0  0  3  0  0  0  0  0  0
  162.7250  205.6260  151.6590 C   0  0  0  0  0  0  0  0  0  0  0  0
  159.7210  203.1060  153.0930 O   0  0  0  0  0  1  0  0  0  0  0  0
  160.3760  205.5810  154.5220 C   0  0  0  0  0  2  0  0  0  0  0  0
  160.5870  207.0600  154.8000 C   0  0  0  0  0  1  0  0  0  0  0  0
  2  3  1  0  0  0  0
  3  4  1  0  0  0  0
  3 35  1  1  0  0  0
  5  1  1  6  0  0  0
  5  4  1  0  0  0  0
  5  9  1  0  0  0  0
  6  2  2  0  0  0  0
  7  2  1  0  0  0  0
  7  1  1  0  0  0  0
  9 10  1  1  0  0  0
  9 11  1  0  0  0  0
 10 12  1  0  0  0  0
 11  8  1  0  0  0  0
 12 14  1  1  0  0  0
 12  8  1  0  0  0  0
 14 13  1  6  0  0  0
 14 17  1  0  0  0  0
 16 17  2  0  0  0  0
 17 15  2  0  0  0  0
 17 19  1  0  0  0  0
 18 20  1  0  0  0  0
 19 18  2  0  0  0  0
 20 21  1  1  0  0  0
 23 29  1  0  0  0  0
 23 22  1  0  0  0  0
 24 20  1  6  0  0  0
 24 25  1  0  0  0  0
 24 23  1  0  0  0  0
 25 26  1  0  0  0  0
 26 22  2  0  0  0  0
 26 27  1  0  0  0  0
 28 27  1  0  0  0  0
 29 30  1  0  0  0  0
 30 31  1  6  0  0  0
 32 30  1  0  0  0  0
 33 32  1  0  0  0  0
 33 34  1  0  0  0  0
 35 36  1  6  0  0  0
 35 41  1  0  0  0  0
 37 36  1  0  0  0  0
 38 39  1  0  0  0  0
 39 37  1  0  0  0  0
 40 39  1  0  0  0  0
 41 42  1  0  0  0  0
 42 44  1  0  0  0  0
 42 45  1  1  0  0  0
 43 44  1  0  0  0  0
 46 52  2  0  0  0  0
 47 51  1  0  0  0  0
 47 53  1  6  0  0  0
 48 51  1  0  0  0  0
 49 45  1  1  0  0  0
 49 47  1  0  0  0  0
 50 49  1  0  0  0  0
 50 52  1  0  0  0  0
 51 54  1  1  0  0  0
 52 48  1  0  0  0  0
 54 55  1  0  0  0  0
M  END
>  <MODEL>
6

>  <REMARK>
 VINA RESULT:      -0.4      3.420     10.334
  Name = 
  21 active torsions:
  status: ('A' for Active; 'I' for Inactive)
    1  A    between atoms: C_2  and  C_9
    2  A    between atoms: N_7  and  C_38
    3  A    between atoms: C_9  and  C_43
    4  A    between atoms: C_10  and  C_44
    5  A    between atoms: C_11  and  C_25
    6  A    between atoms: C_12  and  C_23
    7  A    between atoms: C_12  and  C_25
    8  A    between atoms: N_13  and  C_21
    9  A    between atoms: C_16  and  S_34
   10  A    between atoms: C_16  and  C_52
   11  A    between atoms: C_21  and  C_28
   12  A    between atoms: C_23  and  C_42
   13  A    between atoms: O_24  and  C_25
   14  A    between atoms: O_24  and  C_37
   15  A    between atoms: C_26  and  C_30
   16  A    between atoms: C_28  and  C_38
   17  A    between atoms: C_29  and  C_55
   18  A    between atoms: C_32  and  C_46
   19  A    between atoms: S_34  and  C_54
   20  A    between atoms: C_37  and  O_39
   21  A    between atoms: C_37  and  C_46
                            x       y       z     vdW  Elec       q    Type
                         _______ _______ _______ _____ _____    ______ ____

>  <TORSDO>
F 21

$$$$
=
 OpenBabel11072410053D

 55 58  0  0  1  0  0  0  0  0999 V2000
  160.9270  203.5340  152.5810 C   0  0  0  0  0  2  0  0  0  0  0  0
  160.7920  203.0030  149.9710 C   0  0  0  0  0  0  0  0  0  0  0  0
  160.3880  204.4570  149.8160 C   0  0  1  0  0  3  0  0  0  0  0  0
  160.7320  205.3110  150.9000 O   0  0  0  0  0  0  0  0  0  0  0  0
  161.6200  204.6840  151.8140 C   0  0  1  0  0  3  0  0  0  0  0  0
  161.5510  202.4520  149.1880 O   0  0  0  0  0  0  0  0  0  0  0  0
  160.2960  202.1870  151.4870 S   0  0  0  0  0  0  0  0  0  0  0  0
  161.7560  208.0620  153.0050 O   0  0  0  0  0  0  0  0  0  0  0  0
  162.2170  205.7300  152.7570 C   0  0  2  0  0  3  0  0  0  0  0  0
  161.3790  205.9380  153.9720 C   0  0  0  0  0  2  0  0  0  0  0  0
  162.3190  207.1100  152.1330 C   0  0  0  0  0  2  0  0  0  0  0  0
  161.5640  207.4140  154.2410 C   0  0  2  0  0  3  0  0  0  0  0  0
  160.2110  207.3780  156.3590 C   0  0  0  0  0  1  0  0  0  0  0  0
  160.3550  207.9990  154.9760 C   0  0  1  0  0  3  0  0  0  0  0  0
  160.0700  210.1870  156.5120 O   0  0  0  0  0  0  0  0  0  0  0  0
  161.9100  210.2110  154.9150 O   0  0  0  0  0  0  0  0  0  0  0  0
  160.4830  209.7800  155.1270 S   0  0  0  0  0  0  0  0  0  0  0  0
  158.7820  211.7510  154.2090 C   0  0  0  0  0  3  0  0  0  0  0  0
  159.4200  210.5970  153.9750 C   0  0  0  0  0  3  0  0  0  0  0  0
  158.9080  212.5260  155.4820 C   0  0  1  0  0  3  0  0  0  0  0  0
  159.3010  213.8350  155.1980 O   0  0  0  0  0  1  0  0  0  0  0  0
  155.5230  212.0240  155.2580 N   0  0  0  0  0  0  0  0  0  0  0  0
  156.5010  213.0110  155.4050 N   0  0  0  0  0  0  0  0  0  0  0  0
  157.5840  212.5100  156.2410 C   0  0  1  0  0  3  0  0  0  0  0  0
  157.1670  211.1750  156.5120 O   0  0  0  0  0  0  0  0  0  0  0  0
  155.9320  210.9850  155.8990 C   0  0  0  0  0  0  0  0  0  0  0  0
  155.1790  209.7080  155.9410 C   0  0  0  0  0  2  0  0  0  0  0  0
  153.8150  209.9730  155.9740 O   0  0  0  0  0  1  0  0  0  0  0  0
  156.3360  214.3790  154.9380 C   0  0  0  0  0  2  0  0  0  0  0  0
  155.7210  214.4030  153.5450 C   0  0  2  0  0  3  0  0  0  0  0  0
  154.6390  213.5230  153.4720 O   0  0  0  0  0  1  0  0  0  0  0  0
  156.7610  214.0400  152.4960 C   0  0  0  0  0  2  0  0  0  0  0  0
  156.1250  213.6610  151.2440 N   0  0  0  0  0  2  0  0  0  0  0  0
  156.7960  214.4000  150.1900 C   0  0  0  0  0  1  0  0  0  0  0  0
  160.6870  205.1100  148.4650 C   0  0  2  0  0  3  0  0  0  0  0  0
  160.3650  204.1460  147.3250 C   0  0  0  0  0  2  0  0  0  0  0  0
  161.6200  203.4180  146.8760 C   0  0  0  0  0  2  0  0  0  0  0  0
  160.8470  201.0820  146.3240 C   0  0  0  0  0  1  0  0  0  0  0  0
  161.2880  202.4320  145.7550 C   0  0  0  0  0  3  0  0  0  0  0  0
  160.1830  203.0040  144.8950 C   0  0  0  0  0  1  0  0  0  0  0  0
  162.0270  205.5300  148.3880 O   0  0  0  0  0  0  0  0  0  0  0  0
  161.9910  206.8270  147.8440 C   0  0  2  0  0  3  0  0  0  0  0  0
  161.4730  206.3760  145.6550 C   0  0  0  0  0  1  0  0  0  0  0  0
  162.4740  206.8590  146.5150 O   0  0  0  0  0  0  0  0  0  0  0  0
  162.7300  207.8310  148.7330 C   0  0  0  0  0  2  0  0  0  0  0  0
  163.3020  212.3140  146.9660 O   0  0  0  0  0  0  0  0  0  0  0  0
  161.8890  209.8490  149.9380 C   0  0  1  0  0  3  0  0  0  0  0  0
  162.1030  212.0670  148.9100 O   0  0  0  0  0  0  0  0  0  0  0  0
  162.1920  209.2440  148.5680 C   0  0  1  0  0  3  0  0  0  0  0  0
  163.2210  210.0930  147.8290 C   0  0  0  0  0  2  0  0  0  0  0  0
  161.2990  211.2490  149.7630 C   0  0  2  0  0  3  0  0  0  0  0  0
  162.8550  211.5430  147.8550 C   0  0  0  0  0  0  0  0  0  0  0  0
  160.9720  209.0440  150.6190 O   0  0  0  0  0  1  0  0  0  0  0  0
  161.1320  211.9300  151.1100 C   0  0  0  0  0  2  0  0  0  0  0  0
  159.9310  212.8610  151.0720 C   0  0  0  0  0  1  0  0  0  0  0  0
  2  7  1  0  0  0  0
  3 35  1  6  0  0  0
  3  2  1  0  0  0  0
  3  4  1  0  0  0  0
  4  5  1  0  0  0  0
  5  1  1  1  0  0  0
  5  9  1  0  0  0  0
  6  2  2  0  0  0  0
  7  1  1  0  0  0  0
  8 12  1  0  0  0  0
  9 11  1  6  0  0  0
  9 10  1  0  0  0  0
 10 12  1  0  0  0  0
 11  8  1  0  0  0  0
 12 14  1  6  0  0  0
 14 17  1  0  0  0  0
 14 13  1  1  0  0  0
 16 17  2  0  0  0  0
 17 15  2  0  0  0  0
 18 20  1  0  0  0  0
 19 18  2  0  0  0  0
 19 17  1  0  0  0  0
 20 21  1  6  0  0  0
 22 23  1  0  0  0  0
 22 26  2  0  0  0  0
 23 24  1  0  0  0  0
 24 20  1  6  0  0  0
 24 25  1  0  0  0  0
 26 27  1  0  0  0  0
 26 25  1  0  0  0  0
 27 28  1  0  0  0  0
 29 23  1  0  0  0  0
 30 31  1  1  0  0  0
 30 29  1  0  0  0  0
 32 30  1  0  0  0  0
 33 32  1  0  0  0  0
 34 33  1  0  0  0  0
 35 36  1  6  0  0  0
 37 36  1  0  0  0  0
 39 38  1  0  0  0  0
 39 37  1  0  0  0  0
 40 39  1  0  0  0  0
 41 35  1  0  0  0  0
 42 41  1  0  0  0  0
 42 45  1  1  0  0  0
 43 44  1  0  0  0  0
 44 42  1  0  0  0  0
 46 52  2  0  0  0  0
 47 53  1  6  0  0  0
 48 51  1  0  0  0  0
 49 45  1  1  0  0  0
 49 47  1  0  0  0  0
 50 52  1  0  0  0  0
 50 49  1  0  0  0  0
 51 47  1  0  0  0  0
 51 54  1  1  0  0  0
 52 48  1  0  0  0  0
 55 54  1  0  0  0  0
M  END
>  <MODEL>
7

>  <REMARK>
 VINA RESULT:       0.0      3.862     10.670
  Name = 
  21 active torsions:
  status: ('A' for Active; 'I' for Inactive)
    1  A    between atoms: C_2  and  C_9
    2  A    between atoms: N_7  and  C_38
    3  A    between atoms: C_9  and  C_43
    4  A    between atoms: C_10  and  C_44
    5  A    between atoms: C_11  and  C_25
    6  A    between atoms: C_12  and  C_23
    7  A    between atoms: C_12  and  C_25
    8  A    between atoms: N_13  and  C_21
    9  A    between atoms: C_16  and  S_34
   10  A    between atoms: C_16  and  C_52
   11  A    between atoms: C_21  and  C_28
   12  A    between atoms: C_23  and  C_42
   13  A    between atoms: O_24  and  C_25
   14  A    between atoms: O_24  and  C_37
   15  A    between atoms: C_26  and  C_30
   16  A    between atoms: C_28  and  C_38
   17  A    between atoms: C_29  and  C_55
   18  A    between atoms: C_32  and  C_46
   19  A    between atoms: S_34  and  C_54
   20  A    between atoms: C_37  and  O_39
   21  A    between atoms: C_37  and  C_46
                            x       y       z     vdW  Elec       q    Type
                         _______ _______ _______ _____ _____    ______ ____

>  <TORSDO>
F 21

$$$$
=
 OpenBabel11072410053D

 55 58  0  0  1  0  0  0  0  0999 V2000
  160.7620  203.6670  152.3950 C   0  0  0  0  0  2  0  0  0  0  0  0
  160.8850  203.2410  149.7650 C   0  0  0  0  0  0  0  0  0  0  0  0
  160.5490  204.7140  149.6310 C   0  0  1  0  0  3  0  0  0  0  0  0
  160.8040  205.5130  150.7790 O   0  0  0  0  0  0  0  0  0  0  0  0
  161.5700  204.8180  151.7540 C   0  0  1  0  0  3  0  0  0  0  0  0
  161.7040  202.6930  149.0440 O   0  0  0  0  0  0  0  0  0  0  0  0
  160.2050  202.3870  151.1860 S   0  0  0  0  0  0  0  0  0  0  0  0
  161.6220  208.1200  153.1480 O   0  0  0  0  0  0  0  0  0  0  0  0
  162.1000  205.8050  152.7960 C   0  0  2  0  0  3  0  0  0  0  0  0
  161.1770  205.9440  153.9590 C   0  0  0  0  0  2  0  0  0  0  0  0
  162.2460  207.2180  152.2640 C   0  0  0  0  0  2  0  0  0  0  0  0
  161.3440  207.4010  154.3270 C   0  0  2  0  0  3  0  0  0  0  0  0
  160.0430  207.5360  156.4740 C   0  0  0  0  0  1  0  0  0  0  0  0
  160.0860  207.9470  155.0080 C   0  0  1  0  0  3  0  0  0  0  0  0
  161.3760  210.2760  154.6340 O   0  0  0  0  0  0  0  0  0  0  0  0
  159.1240  210.1220  153.7210 O   0  0  0  0  0  0  0  0  0  0  0  0
  159.9990  209.7330  154.8820 S   0  0  0  0  0  0  0  0  0  0  0  0
  159.0360  211.7350  156.5210 C   0  0  0  0  0  3  0  0  0  0  0  0
  159.3860  210.4500  156.3770 C   0  0  0  0  0  3  0  0  0  0  0  0
  159.0930  212.7400  155.4140 C   0  0  1  0  0  3  0  0  0  0  0  0
  160.2500  212.5420  154.6590 O   0  0  0  0  0  1  0  0  0  0  0  0
  156.9890  214.3860  153.2640 N   0  0  0  0  0  0  0  0  0  0  0  0
  157.0860  213.8710  154.5590 N   0  0  0  0  0  0  0  0  0  0  0  0
  157.8470  212.6290  154.5380 C   0  0  1  0  0  3  0  0  0  0  0  0
  158.2000  212.5100  153.1620 O   0  0  0  0  0  0  0  0  0  0  0  0
  157.6370  213.5880  152.4870 C   0  0  0  0  0  0  0  0  0  0  0  0
  157.7960  213.8240  151.0320 C   0  0  0  0  0  2  0  0  0  0  0  0
  156.5600  213.7260  150.4060 O   0  0  0  0  0  1  0  0  0  0  0  0
  156.3640  214.4190  155.6960 C   0  0  0  0  0  2  0  0  0  0  0  0
  155.0950  213.6190  155.9660 C   0  0  2  0  0  3  0  0  0  0  0  0
  154.0840  214.4530  156.4490 O   0  0  0  0  0  1  0  0  0  0  0  0
  155.3700  212.5020  156.9600 C   0  0  0  0  0  2  0  0  0  0  0  0
  155.6250  211.2460  156.2720 N   0  0  0  0  0  2  0  0  0  0  0  0
  154.7480  210.2540  156.8660 C   0  0  0  0  0  1  0  0  0  0  0  0
  161.0100  205.4070  148.3460 C   0  0  2  0  0  3  0  0  0  0  0  0
  160.7450  206.9090  148.4280 C   0  0  0  0  0  2  0  0  0  0  0  0
  162.0410  207.6850  148.2620 C   0  0  0  0  0  2  0  0  0  0  0  0
  162.1330  210.1820  148.6010 C   0  0  0  0  0  1  0  0  0  0  0  0
  162.1150  208.8160  149.2890 C   0  0  0  0  0  3  0  0  0  0  0  0
  160.9220  208.7310  150.2160 C   0  0  0  0  0  1  0  0  0  0  0  0
  160.3780  204.8580  147.2170 O   0  0  0  0  0  0  0  0  0  0  0  0
  161.3710  204.7760  146.2250 C   0  0  2  0  0  3  0  0  0  0  0  0
  161.6410  205.7070  144.1460 C   0  0  0  0  0  1  0  0  0  0  0  0
  161.5160  205.9920  145.5160 O   0  0  0  0  0  0  0  0  0  0  0  0
  161.1220  203.6010  145.2750 C   0  0  0  0  0  2  0  0  0  0  0  0
  162.3950  200.2400  148.5360 O   0  0  0  0  0  0  0  0  0  0  0  0
  160.4690  201.2030  145.0330 C   0  0  1  0  0  3  0  0  0  0  0  0
  161.0420  199.5940  146.7950 O   0  0  0  0  0  0  0  0  0  0  0  0
  160.7850  202.3210  146.0260 C   0  0  1  0  0  3  0  0  0  0  0  0
  161.9650  201.9290  146.9070 C   0  0  0  0  0  2  0  0  0  0  0  0
  160.0800  199.9350  145.7940 C   0  0  2  0  0  3  0  0  0  0  0  0
  161.7900  200.5570  147.4770 C   0  0  0  0  0  0  0  0  0  0  0  0
  159.4090  201.5890  144.2070 O   0  0  0  0  0  1  0  0  0  0  0  0
  159.9080  198.7690  144.8360 C   0  0  0  0  0  2  0  0  0  0  0  0
  161.2040  197.9800  144.7470 C   0  0  0  0  0  1  0  0  0  0  0  0
  2  7  1  0  0  0  0
  3 35  1  6  0  0  0
  3  2  1  0  0  0  0
  3  4  1  0  0  0  0
  4  5  1  0  0  0  0
  5  1  1  1  0  0  0
  5  9  1  0  0  0  0
  6  2  2  0  0  0  0
  7  1  1  0  0  0  0
  8 12  1  0  0  0  0
  9 11  1  6  0  0  0
  9 10  1  0  0  0  0
 10 12  1  0  0  0  0
 11  8  1  0  0  0  0
 12 14  1  6  0  0  0
 14 13  1  1  0  0  0
 15 17  2  0  0  0  0
 16 17  2  0  0  0  0
 17 14  1  0  0  0  0
 17 19  1  0  0  0  0
 19 18  2  0  0  0  0
 20 21  1  6  0  0  0
 20 18  1  0  0  0  0
 22 23  1  0  0  0  0
 23 29  1  0  0  0  0
 24 23  1  0  0  0  0
 24 20  1  1  0  0  0
 25 24  1  0  0  0  0
 26 25  1  0  0  0  0
 26 22  2  0  0  0  0
 27 26  1  0  0  0  0
 28 27  1  0  0  0  0
 29 30  1  0  0  0  0
 30 31  1  1  0  0  0
 30 32  1  0  0  0  0
 33 34  1  0  0  0  0
 33 32  1  0  0  0  0
 35 36  1  1  0  0  0
 37 36  1  0  0  0  0
 37 39  1  0  0  0  0
 38 39  1  0  0  0  0
 39 40  1  0  0  0  0
 41 35  1  0  0  0  0
 42 45  1  6  0  0  0
 42 41  1  0  0  0  0
 43 44  1  0  0  0  0
 44 42  1  0  0  0  0
 47 53  1  6  0  0  0
 47 51  1  0  0  0  0
 47 49  1  0  0  0  0
 48 52  1  0  0  0  0
 49 45  1  6  0  0  0
 49 50  1  0  0  0  0
 50 52  1  0  0  0  0
 51 54  1  6  0  0  0
 51 48  1  0  0  0  0
 52 46  2  0  0  0  0
 55 54  1  0  0  0  0
M  END
>  <MODEL>
8

>  <REMARK>
 VINA RESULT:       0.2      3.754     12.018
  Name = 
  21 active torsions:
  status: ('A' for Active; 'I' for Inactive)
    1  A    between atoms: C_2  and  C_9
    2  A    between atoms: N_7  and  C_38
    3  A    between atoms: C_9  and  C_43
    4  A    between atoms: C_10  and  C_44
    5  A    between atoms: C_11  and  C_25
    6  A    between atoms: C_12  and  C_23
    7  A    between atoms: C_12  and  C_25
    8  A    between atoms: N_13  and  C_21
    9  A    between atoms: C_16  and  S_34
   10  A    between atoms: C_16  and  C_52
   11  A    between atoms: C_21  and  C_28
   12  A    between atoms: C_23  and  C_42
   13  A    between atoms: O_24  and  C_25
   14  A    between atoms: O_24  and  C_37
   15  A    between atoms: C_26  and  C_30
   16  A    between atoms: C_28  and  C_38
   17  A    between atoms: C_29  and  C_55
   18  A    between atoms: C_32  and  C_46
   19  A    between atoms: S_34  and  C_54
   20  A    between atoms: C_37  and  O_39
   21  A    between atoms: C_37  and  C_46
                            x       y       z     vdW  Elec       q    Type
                         _______ _______ _______ _____ _____    ______ ____

>  <TORSDO>
F 21

$$$$
