=
 OpenBabel11072410443D

 38 43  0  0  1  0  0  0  0  0999 V2000
  159.8100  210.2240  157.2600 C   0  0  0  0  0  2  0  0  0  0  0  0
  162.1780  212.1200  147.0380 C   0  0  0  0  0  0  0  0  0  0  0  0
  160.6350  211.9400  148.9350 O   0  0  0  0  0  0  0  0  0  0  0  0
  161.8090  205.7850  151.8440 C   0  0  0  0  0  2  0  0  0  0  0  0
  158.3140  212.6600  151.4800 C   0  0  0  0  0  2  0  0  0  0  0  0
  161.5810  209.7220  155.6550 C   0  0  2  0  0  3  0  0  0  0  0  0
  160.6670  209.3440  150.4790 S   0  0  0  0  0  0  0  0  0  0  0  0
  160.7720  206.8160  151.3950 C   0  0  0  0  0  2  0  0  0  0  0  0
  161.0660  212.6540  146.1740 C   0  0  0  0  0  2  0  0  0  0  0  0
  161.1010  208.2290  151.8560 C   0  0  2  0  0  3  0  0  0  0  0  0
  161.3080  209.9650  157.1260 C   0  0  0  0  0  2  0  0  0  0  0  0
  159.1220  210.7660  152.8460 C   0  0  0  0  0  0  0  0  0  0  0  0
  162.6060  210.5410  148.8930 C   0  0  0  0  0  2  0  0  0  0  0  0
  162.1210  205.7850  153.3440 C   0  0  0  0  0  2  0  0  0  0  0  0
  160.4670  210.4750  154.9610 C   0  0  2  0  0  3  0  0  0  0  0  0
  159.3780  211.8820  152.1700 C   0  0  0  0  0  3  0  0  0  0  0  0
  160.9320  207.7060  154.3110 C   0  0  0  0  0  0  0  0  0  0  0  0
  163.2670  211.9200  146.5230 O   0  0  0  0  0  0  0  0  0  0  0  0
  158.6860  213.3440  149.1220 C   0  0  2  0  0  3  0  0  0  0  0  0
  159.7430  212.7920  146.9160 C   0  0  0  0  0  2  0  0  0  0  0  0
  159.2500  210.3200  155.8520 C   0  0  0  0  0  2  0  0  0  0  0  0
  158.9580  213.6920  150.5770 C   0  0  0  0  0  2  0  0  0  0  0  0
  160.9410  206.2130  154.2040 C   0  0  0  0  0  2  0  0  0  0  0  0
  162.7060  212.9140  149.2130 O   0  0  0  0  0  1  0  0  0  0  0  0
  159.9990  213.0730  148.3900 C   0  0  2  0  0  3  0  0  0  0  0  0
  161.4880  208.2440  155.4050 C   0  0  0  0  0  3  0  0  0  0  0  0
  160.3510  208.5400  153.1780 C   0  0  1  0  0  3  0  0  0  0  0  0
  161.9990  211.9130  148.5380 C   0  0  1  0  0  0  0  0  0  0  0  0
  162.3590  210.0030  150.3110 C   0  0  1  0  0  3  0  0  0  0  0  0
  160.2790  210.0570  153.4950 C   0  0  1  0  0  3  0  0  0  0  0  0
  164.0790  211.0150  151.6290 O   0  0  0  0  0  0  0  0  0  0  0  0
  163.2950  210.3240  152.5680 C   0  0  0  0  0  2  0  0  0  0  0  0
  162.6900  211.0110  151.4060 C   0  0  2  0  0  3  0  0  0  0  0  0
  156.5660  214.4530  148.2880 C   0  0  0  0  0  3  0  0  0  0  0  0
  157.9810  214.4530  148.4910 N   0  0  0  0  0  2  0  0  0  0  0  0
  155.8640  213.4640  148.6270 O   0  0  0  0  0  0  0  0  0  0  0  0
  156.9370  210.7980  153.8190 O   0  0  0  0  0  1  0  0  0  0  0  0
  157.8110  210.2890  152.9410 O   0  0  0  0  0  0  0  0  0  0  0  0
  2 28  1  0  0  0  0
  4 14  1  0  0  0  0
  5 16  1  0  0  0  0
  6 26  1  1  0  0  0
  6 11  1  0  0  0  0
  7 10  1  0  0  0  0
  8  4  1  0  0  0  0
  9 20  1  0  0  0  0
  9  2  1  0  0  0  0
 10  8  1  6  0  0  0
 10 27  1  0  0  0  0
 11  1  1  0  0  0  0
 12 38  1  0  0  0  0
 14 23  1  0  0  0  0
 15  6  1  0  0  0  0
 15 21  1  1  0  0  0
 16 12  2  0  0  0  0
 17 26  2  0  0  0  0
 18  2  2  0  0  0  0
 19 35  1  6  0  0  0
 19 22  1  0  0  0  0
 21  1  1  0  0  0  0
 22  5  1  0  0  0  0
 23 17  1  0  0  0  0
 25 20  1  6  0  0  0
 25  3  1  0  0  0  0
 25 19  1  0  0  0  0
 27 30  1  0  0  0  0
 27 17  1  1  0  0  0
 28 13  1  0  0  0  0
 28  3  1  0  0  0  0
 28 24  1  1  0  0  0
 29 13  1  6  0  0  0
 29  7  1  0  0  0  0
 29 33  1  0  0  0  0
 30 12  1  1  0  0  0
 30 15  1  0  0  0  0
 31 32  1  0  0  0  0
 33 31  1  0  0  0  0
 33 32  1  1  0  0  0
 34 35  1  0  0  0  0
 34 36  2  0  0  0  0
 38 37  1  0  0  0  0
M  END
>  <MODEL>
1

>  <REMARK>
 VINA RESULT:       4.7      0.000      0.000
  Name = 
  3 active torsions:
  status: ('A' for Active; 'I' for Inactive)
    1  A    between atoms: N_15  and  C_24
    2  A    between atoms: C_16  and  O_38
    3  A    between atoms: C_29  and  C_36
                            x       y       z     vdW  Elec       q    Type
                         _______ _______ _______ _____ _____    ______ ____

>  <TORSDO>
F 3

$$$$
