=
 OpenBabel11072414253D

 26 30  0  0  1  0  0  0  0  0999 V2000
  161.2180  207.5240  154.8240 C   0  0  0  0  0  2  0  0  0  0  0  0
  161.6420  206.3270  152.8520 C   0  0  0  0  0  2  0  0  0  0  0  0
  160.9850  209.8020  151.1580 C   0  0  2  0  0  3  0  0  0  0  0  0
  159.6500  211.3820  152.3170 O   0  0  0  0  0  0  0  0  0  0  0  0
  160.2960  210.3510  152.4030 C   0  0  0  0  0  0  0  0  0  0  0  0
  161.4330  208.3120  151.2120 C   0  0  1  0  0  3  0  0  0  0  0  0
  161.3070  208.4800  153.6650 C   0  0  1  0  0  3  0  0  0  0  0  0
  160.9550  207.6240  152.4980 C   0  0  2  0  0  3  0  0  0  0  0  0
  160.3450  209.6450  153.7360 C   0  0  0  0  0  2  0  0  0  0  0  0
  161.6010  206.2090  154.3110 N   0  0  0  0  0  2  0  0  0  0  0  0
  160.8630  205.1610  149.3370 C   0  0  0  0  0  0  0  0  0  0  0  0
  161.8400  203.0440  147.6520 C   0  0  0  0  0  2  0  0  0  0  0  0
  160.9460  207.5650  149.9570 C   0  0  1  0  0  3  0  0  0  0  0  0
  161.5140  205.4770  148.0480 C   0  0  0  0  0  0  0  0  0  0  0  0
  162.0270  206.6860  147.8370 C   0  0  0  0  0  3  0  0  0  0  0  0
  160.4880  203.7660  149.6130 C   0  0  0  0  0  3  0  0  0  0  0  0
  161.5930  204.4090  147.0000 C   0  0  0  0  0  2  0  0  0  0  0  0
  161.9040  207.6910  148.8490 N   0  0  0  0  0  2  0  0  0  0  0  0
  160.9010  202.7830  148.8050 C   0  0  0  0  0  3  0  0  0  0  0  0
  160.6390  206.1140  150.2440 C   0  0  0  0  0  3  0  0  0  0  0  0
  162.1800  210.6670  150.7730 C   0  0  0  0  0  2  0  0  0  0  0  0
  161.9870  210.9270  148.2770 C   0  0  0  0  0  2  0  0  0  0  0  0
  162.9290  211.8840  148.7130 O   0  0  0  0  0  0  0  0  0  0  0  0
  161.8740  211.5810  149.5920 C   0  0  2  0  0  0  0  0  0  0  0  0
  161.3220  213.7020  149.0670 C   0  0  0  0  0  1  0  0  0  0  0  0
  160.8350  212.5250  149.6470 O   0  0  0  0  0  0  0  0  0  0  0  0
  2 10  1  0  0  0  0
  3 21  1  1  0  0  0
  3  6  1  0  0  0  0
  3  5  1  0  0  0  0
  4  5  2  0  0  0  0
  5  9  1  0  0  0  0
  6 13  1  6  0  0  0
  6  8  1  0  0  0  0
  7  9  1  1  0  0  0
  7  1  1  0  0  0  0
  8  2  1  1  0  0  0
  8  7  1  0  0  0  0
 10  1  1  0  0  0  0
 11 16  1  0  0  0  0
 11 20  2  0  0  0  0
 12 19  1  0  0  0  0
 13 20  1  1  0  0  0
 14 11  1  0  0  0  0
 15 14  2  0  0  0  0
 15 18  1  0  0  0  0
 17 12  1  0  0  0  0
 17 14  1  0  0  0  0
 18 13  1  0  0  0  0
 19 16  2  0  0  0  0
 22 23  1  0  0  0  0
 22 24  1  0  0  0  0
 23 24  1  0  0  0  0
 24 26  1  0  0  0  0
 24 21  1  1  0  0  0
 25 26  1  0  0  0  0
M  END
>  <MODEL>
1

>  <REMARK>
 VINA RESULT:      -7.4      0.000      0.000
  Name = 
  4 active torsions:
  status: ('A' for Active; 'I' for Inactive)
    1  A    between atoms: O_5  and  C_18
    2  A    between atoms: C_7  and  C_14
    3  A    between atoms: C_10  and  C_19
    4  A    between atoms: C_14  and  C_18
                            x       y       z     vdW  Elec       q    Type
                         _______ _______ _______ _____ _____    ______ ____

>  <TORSDO>
F 4

$$$$
=
 OpenBabel11072414253D

 26 30  0  0  1  0  0  0  0  0999 V2000
  161.9830  210.7190  149.2650 C   0  0  0  0  0  2  0  0  0  0  0  0
  161.5990  208.4170  149.0330 C   0  0  0  0  0  2  0  0  0  0  0  0
  161.6320  208.4930  152.9530 C   0  0  2  0  0  3  0  0  0  0  0  0
  162.8050  210.2480  154.0320 O   0  0  0  0  0  0  0  0  0  0  0  0
  162.3210  209.8540  152.9850 C   0  0  0  0  0  0  0  0  0  0  0  0
  161.4070  207.8610  151.5490 C   0  0  1  0  0  3  0  0  0  0  0  0
  161.6780  210.1210  150.6120 C   0  0  1  0  0  3  0  0  0  0  0  0
  162.0670  208.6950  150.4410 C   0  0  2  0  0  3  0  0  0  0  0  0
  162.4660  210.7190  151.7570 C   0  0  0  0  0  2  0  0  0  0  0  0
  161.7570  209.6620  148.2790 N   0  0  0  0  0  2  0  0  0  0  0  0
  161.4120  204.4540  150.0780 C   0  0  0  0  0  0  0  0  0  0  0  0
  160.2370  201.8410  149.8240 C   0  0  0  0  0  2  0  0  0  0  0  0
  161.9070  206.4050  151.5340 C   0  0  1  0  0  3  0  0  0  0  0  0
  161.1700  203.6270  151.2790 C   0  0  0  0  0  0  0  0  0  0  0  0
  161.0890  204.1970  152.4790 C   0  0  0  0  0  3  0  0  0  0  0  0
  161.2950  203.8230  148.7560 C   0  0  0  0  0  3  0  0  0  0  0  0
  161.0050  202.1470  151.1150 C   0  0  0  0  0  2  0  0  0  0  0  0
  161.2850  205.6100  152.6020 N   0  0  0  0  0  2  0  0  0  0  0  0
  160.7930  202.5890  148.6370 C   0  0  0  0  0  3  0  0  0  0  0  0
  161.7090  205.7510  150.1870 C   0  0  0  0  0  3  0  0  0  0  0  0
  160.3020  208.5400  153.6960 C   0  0  0  0  0  2  0  0  0  0  0  0
  159.3110  207.3380  155.6730 C   0  0  0  0  0  2  0  0  0  0  0  0
  159.5310  208.6730  156.0780 O   0  0  0  0  0  0  0  0  0  0  0  0
  160.4420  208.1270  155.1570 C   0  0  2  0  0  0  0  0  0  0  0  0
  161.9520  208.5650  156.7730 C   0  0  0  0  0  1  0  0  0  0  0  0
  161.6790  207.7230  155.6880 O   0  0  0  0  0  0  0  0  0  0  0  0
  3  5  1  0  0  0  0
  3 21  1  6  0  0  0
  5  4  2  0  0  0  0
  6 13  1  1  0  0  0
  6  3  1  0  0  0  0
  7  1  1  6  0  0  0
  7  9  1  0  0  0  0
  8  2  1  6  0  0  0
  8  7  1  0  0  0  0
  8  6  1  0  0  0  0
  9  5  1  0  0  0  0
 10  2  1  0  0  0  0
 10  1  1  0  0  0  0
 11 20  2  0  0  0  0
 11 14  1  0  0  0  0
 12 17  1  0  0  0  0
 13 20  1  6  0  0  0
 13 18  1  0  0  0  0
 14 15  2  0  0  0  0
 15 18  1  0  0  0  0
 16 11  1  0  0  0  0
 17 14  1  0  0  0  0
 19 16  2  0  0  0  0
 19 12  1  0  0  0  0
 22 23  1  0  0  0  0
 24 21  1  6  0  0  0
 24 22  1  0  0  0  0
 24 26  1  0  0  0  0
 24 23  1  0  0  0  0
 26 25  1  0  0  0  0
M  END
>  <MODEL>
2

>  <REMARK>
 VINA RESULT:      -7.2      2.187      4.891
  Name = 
  4 active torsions:
  status: ('A' for Active; 'I' for Inactive)
    1  A    between atoms: O_5  and  C_18
    2  A    between atoms: C_7  and  C_14
    3  A    between atoms: C_10  and  C_19
    4  A    between atoms: C_14  and  C_18
                            x       y       z     vdW  Elec       q    Type
                         _______ _______ _______ _____ _____    ______ ____

>  <TORSDO>
F 4

$$$$
=
 OpenBabel11072414253D

 26 30  0  0  1  0  0  0  0  0999 V2000
  161.2570  211.7410  157.2140 C   0  0  0  0  0  2  0  0  0  0  0  0
  162.1340  210.7390  155.2820 C   0  0  0  0  0  2  0  0  0  0  0  0
  159.0260  212.4120  153.5720 C   0  0  2  0  0  3  0  0  0  0  0  0
  157.1350  212.9020  154.9150 O   0  0  0  0  0  0  0  0  0  0  0  0
  158.3200  212.6160  154.9090 C   0  0  0  0  0  0  0  0  0  0  0  0
  160.3880  211.6590  153.6150 C   0  0  1  0  0  3  0  0  0  0  0  0
  160.5020  212.2290  156.0070 C   0  0  1  0  0  3  0  0  0  0  0  0
  160.6990  211.1300  155.0220 C   0  0  2  0  0  3  0  0  0  0  0  0
  159.0210  212.4350  156.2330 C   0  0  0  0  0  2  0  0  0  0  0  0
  162.3770  210.9460  156.7110 N   0  0  0  0  0  2  0  0  0  0  0  0
  160.9300  208.1040  152.6980 C   0  0  0  0  0  0  0  0  0  0  0  0
  162.6950  205.9530  151.9690 C   0  0  0  0  0  2  0  0  0  0  0  0
  160.4030  210.5280  152.5700 C   0  0  1  0  0  3  0  0  0  0  0  0
  161.8360  208.2460  151.5390 C   0  0  0  0  0  0  0  0  0  0  0  0
  162.1580  209.4540  151.0860 C   0  0  0  0  0  3  0  0  0  0  0  0
  160.7560  206.7720  153.2960 C   0  0  0  0  0  3  0  0  0  0  0  0
  162.3890  207.0080  150.9000 C   0  0  0  0  0  2  0  0  0  0  0  0
  161.5840  210.6140  151.7000 N   0  0  0  0  0  2  0  0  0  0  0  0
  161.5430  205.7570  152.9250 C   0  0  0  0  0  3  0  0  0  0  0  0
  160.2990  209.1630  153.2090 C   0  0  0  0  0  3  0  0  0  0  0  0
  159.2150  213.7410  152.8500 C   0  0  0  0  0  2  0  0  0  0  0  0
  157.0830  214.1540  151.5780 C   0  0  0  0  0  2  0  0  0  0  0  0
  157.4800  212.8300  151.2850 O   0  0  0  0  0  0  0  0  0  0  0  0
  158.5030  213.7710  151.5020 C   0  0  2  0  0  0  0  0  0  0  0  0
  160.2580  213.4450  150.1270 C   0  0  0  0  0  1  0  0  0  0  0  0
  159.1400  214.2580  150.3490 O   0  0  0  0  0  0  0  0  0  0  0  0
  2 10  1  0  0  0  0
  3 21  1  1  0  0  0
  3  6  1  0  0  0  0
  3  5  1  0  0  0  0
  5  4  2  0  0  0  0
  5  9  1  0  0  0  0
  6 13  1  6  0  0  0
  6  8  1  0  0  0  0
  7  9  1  1  0  0  0
  7  1  1  0  0  0  0
  8  2  1  6  0  0  0
  8  7  1  0  0  0  0
 10  1  1  0  0  0  0
 11 20  2  0  0  0  0
 11 16  1  0  0  0  0
 12 19  1  0  0  0  0
 13 20  1  1  0  0  0
 14 11  1  0  0  0  0
 15 14  2  0  0  0  0
 15 18  1  0  0  0  0
 17 14  1  0  0  0  0
 17 12  1  0  0  0  0
 18 13  1  0  0  0  0
 19 16  2  0  0  0  0
 23 24  1  0  0  0  0
 23 22  1  0  0  0  0
 24 22  1  0  0  0  0
 24 21  1  1  0  0  0
 25 26  1  0  0  0  0
 26 24  1  0  0  0  0
M  END
>  <MODEL>
3

>  <REMARK>
 VINA RESULT:      -6.9      2.986      4.557
  Name = 
  4 active torsions:
  status: ('A' for Active; 'I' for Inactive)
    1  A    between atoms: O_5  and  C_18
    2  A    between atoms: C_7  and  C_14
    3  A    between atoms: C_10  and  C_19
    4  A    between atoms: C_14  and  C_18
                            x       y       z     vdW  Elec       q    Type
                         _______ _______ _______ _____ _____    ______ ____

>  <TORSDO>
F 4

$$$$
=
 OpenBabel11072414253D

 26 30  0  0  1  0  0  0  0  0999 V2000
  160.5140  207.3610  155.2270 C   0  0  0  0  0  2  0  0  0  0  0  0
  160.5800  209.3310  153.9540 C   0  0  0  0  0  2  0  0  0  0  0  0
  161.5550  206.8710  151.0600 C   0  0  2  0  0  3  0  0  0  0  0  0
  162.5590  204.8020  151.6360 O   0  0  0  0  0  0  0  0  0  0  0  0
  161.9270  205.7630  152.0410 C   0  0  0  0  0  0  0  0  0  0  0  0
  161.1320  208.2340  151.6810 C   0  0  1  0  0  3  0  0  0  0  0  0
  160.6810  207.0150  153.7710 C   0  0  1  0  0  3  0  0  0  0  0  0
  161.3090  208.2410  153.2060 C   0  0  2  0  0  3  0  0  0  0  0  0
  161.5810  205.8280  153.5080 C   0  0  0  0  0  2  0  0  0  0  0  0
  160.2820  208.8040  155.2880 N   0  0  0  0  0  2  0  0  0  0  0  0
  161.2490  211.6460  150.2260 C   0  0  0  0  0  0  0  0  0  0  0  0
  160.8530  213.4310  148.0050 C   0  0  0  0  0  2  0  0  0  0  0  0
  161.9090  209.3860  151.0170 C   0  0  1  0  0  3  0  0  0  0  0  0
  161.9090  211.3790  148.9310 C   0  0  0  0  0  0  0  0  0  0  0  0
  162.3310  210.1520  148.6360 C   0  0  0  0  0  3  0  0  0  0  0  0
  160.6180  212.9580  150.4360 C   0  0  0  0  0  3  0  0  0  0  0  0
  162.0770  212.5080  147.9600 C   0  0  0  0  0  2  0  0  0  0  0  0
  162.1840  209.1050  149.6010 N   0  0  0  0  0  2  0  0  0  0  0  0
  160.4750  213.8100  149.4160 C   0  0  0  0  0  3  0  0  0  0  0  0
  161.2060  210.7130  151.1790 C   0  0  0  0  0  3  0  0  0  0  0  0
  160.4690  206.4040  150.0990 C   0  0  0  0  0  2  0  0  0  0  0  0
  161.6120  206.7730  147.8870 C   0  0  0  0  0  2  0  0  0  0  0  0
  160.4070  206.0890  147.6120 O   0  0  0  0  0  0  0  0  0  0  0  0
  161.0470  205.7910  148.8280 C   0  0  2  0  0  0  0  0  0  0  0  0
  160.8310  203.5550  149.0120 C   0  0  0  0  0  1  0  0  0  0  0  0
  161.7670  204.5850  148.8600 O   0  0  0  0  0  0  0  0  0  0  0  0
  1 10  1  0  0  0  0
  2 10  1  0  0  0  0
  3 21  1  1  0  0  0
  3  6  1  0  0  0  0
  3  5  1  0  0  0  0
  4  5  2  0  0  0  0
  5  9  1  0  0  0  0
  6 13  1  6  0  0  0
  6  8  1  0  0  0  0
  7  9  1  1  0  0  0
  7  1  1  0  0  0  0
  8  7  1  0  0  0  0
  8  2  1  1  0  0  0
 11 16  1  0  0  0  0
 11 20  2  0  0  0  0
 12 19  1  0  0  0  0
 13 20  1  6  0  0  0
 14 11  1  0  0  0  0
 15 14  2  0  0  0  0
 15 18  1  0  0  0  0
 17 12  1  0  0  0  0
 17 14  1  0  0  0  0
 18 13  1  0  0  0  0
 19 16  2  0  0  0  0
 22 24  1  0  0  0  0
 23 22  1  0  0  0  0
 23 24  1  0  0  0  0
 24 26  1  0  0  0  0
 24 21  1  1  0  0  0
 26 25  1  0  0  0  0
M  END
>  <MODEL>
4

>  <REMARK>
 VINA RESULT:      -6.8      2.634      5.930
  Name = 
  4 active torsions:
  status: ('A' for Active; 'I' for Inactive)
    1  A    between atoms: O_5  and  C_18
    2  A    between atoms: C_7  and  C_14
    3  A    between atoms: C_10  and  C_19
    4  A    between atoms: C_14  and  C_18
                            x       y       z     vdW  Elec       q    Type
                         _______ _______ _______ _____ _____    ______ ____

>  <TORSDO>
F 4

$$$$
=
 OpenBabel11072414253D

 26 30  0  0  1  0  0  0  0  0999 V2000
  162.4510  209.8850  148.6370 C   0  0  0  0  0  2  0  0  0  0  0  0
  162.2880  209.9280  150.9770 C   0  0  0  0  0  2  0  0  0  0  0  0
  161.0110  206.2530  150.4870 C   0  0  2  0  0  3  0  0  0  0  0  0
  160.0420  205.6700  148.4020 O   0  0  0  0  0  0  0  0  0  0  0  0
  160.7210  206.4830  149.0060 C   0  0  0  0  0  0  0  0  0  0  0  0
  161.5080  207.4850  151.2960 C   0  0  1  0  0  3  0  0  0  0  0  0
  162.1420  208.5020  149.1460 C   0  0  1  0  0  3  0  0  0  0  0  0
  161.4780  208.7670  150.4520 C   0  0  2  0  0  3  0  0  0  0  0  0
  161.2060  207.7040  148.2650 C   0  0  0  0  0  2  0  0  0  0  0  0
  162.7050  210.7150  149.8150 N   0  0  0  0  0  2  0  0  0  0  0  0
  160.4140  209.4960  154.2170 C   0  0  0  0  0  0  0  0  0  0  0  0
  160.8660  210.4870  156.8790 C   0  0  0  0  0  2  0  0  0  0  0  0
  160.6850  207.6410  152.5890 C   0  0  1  0  0  3  0  0  0  0  0  0
  160.6820  208.5560  155.3250 C   0  0  0  0  0  0  0  0  0  0  0  0
  161.1260  207.3280  155.0670 C   0  0  0  0  0  3  0  0  0  0  0  0
  160.1200  210.9000  154.5420 C   0  0  0  0  0  3  0  0  0  0  0  0
  160.4580  209.0160  156.7330 C   0  0  0  0  0  2  0  0  0  0  0  0
  161.2970  206.9110  153.7080 N   0  0  0  0  0  2  0  0  0  0  0  0
  160.2830  211.3530  155.7890 C   0  0  0  0  0  3  0  0  0  0  0  0
  160.4590  209.0910  152.9460 C   0  0  0  0  0  3  0  0  0  0  0  0
  161.9950  205.1040  150.6740 C   0  0  0  0  0  2  0  0  0  0  0  0
  160.8320  203.6700  152.3850 C   0  0  0  0  0  2  0  0  0  0  0  0
  161.9220  202.9160  151.8970 O   0  0  0  0  0  0  0  0  0  0  0  0
  161.2930  203.7890  150.9920 C   0  0  2  0  0  0  0  0  0  0  0  0
  161.2060  202.6530  149.0460 C   0  0  0  0  0  1  0  0  0  0  0  0
  160.4170  203.1870  150.0720 O   0  0  0  0  0  0  0  0  0  0  0  0
  1  7  1  0  0  0  0
  1 10  1  0  0  0  0
  3 21  1  6  0  0  0
  3  6  1  0  0  0  0
  4  5  2  0  0  0  0
  5  3  1  0  0  0  0
  6 13  1  1  0  0  0
  7  9  1  6  0  0  0
  7  8  1  0  0  0  0
  8  2  1  1  0  0  0
  8  6  1  0  0  0  0
  9  5  1  0  0  0  0
 10  2  1  0  0  0  0
 11 16  1  0  0  0  0
 11 14  1  0  0  0  0
 13 20  1  1  0  0  0
 13 18  1  0  0  0  0
 14 17  1  0  0  0  0
 15 14  2  0  0  0  0
 16 19  2  0  0  0  0
 17 12  1  0  0  0  0
 18 15  1  0  0  0  0
 19 12  1  0  0  0  0
 20 11  2  0  0  0  0
 23 22  1  0  0  0  0
 24 21  1  6  0  0  0
 24 23  1  0  0  0  0
 24 22  1  0  0  0  0
 25 26  1  0  0  0  0
 26 24  1  0  0  0  0
M  END
>  <MODEL>
5

>  <REMARK>
 VINA RESULT:      -6.7      3.175      7.295
  Name = 
  4 active torsions:
  status: ('A' for Active; 'I' for Inactive)
    1  A    between atoms: O_5  and  C_18
    2  A    between atoms: C_7  and  C_14
    3  A    between atoms: C_10  and  C_19
    4  A    between atoms: C_14  and  C_18
                            x       y       z     vdW  Elec       q    Type
                         _______ _______ _______ _____ _____    ______ ____

>  <TORSDO>
F 4

$$$$
=
 OpenBabel11072414253D

 26 30  0  0  1  0  0  0  0  0999 V2000
  162.2220  207.6840  150.0230 C   0  0  0  0  0  2  0  0  0  0  0  0
  161.8960  209.9790  150.3760 C   0  0  0  0  0  2  0  0  0  0  0  0
  160.9400  208.8110  153.9950 C   0  0  2  0  0  3  0  0  0  0  0  0
  160.1630  206.5890  154.2890 O   0  0  0  0  0  0  0  0  0  0  0  0
  160.7350  207.3670  153.5440 C   0  0  0  0  0  0  0  0  0  0  0  0
  161.2850  209.8430  152.8830 C   0  0  1  0  0  3  0  0  0  0  0  0
  161.9840  207.9390  151.4880 C   0  0  1  0  0  3  0  0  0  0  0  0
  161.2150  209.2130  151.4850 C   0  0  2  0  0  3  0  0  0  0  0  0
  161.1750  206.8700  152.1890 C   0  0  0  0  0  2  0  0  0  0  0  0
  162.3310  208.9940  149.3840 N   0  0  0  0  0  2  0  0  0  0  0  0
  159.5040  212.3790  154.9240 C   0  0  0  0  0  0  0  0  0  0  0  0
  157.2430  213.1630  156.5200 C   0  0  0  0  0  2  0  0  0  0  0  0
  160.3660  211.0740  152.9950 C   0  0  1  0  0  3  0  0  0  0  0  0
  158.1350  212.2720  154.3780 C   0  0  0  0  0  0  0  0  0  0  0  0
  157.8840  211.4550  153.3580 C   0  0  0  0  0  3  0  0  0  0  0  0
  159.7060  213.1320  156.1710 C   0  0  0  0  0  3  0  0  0  0  0  0
  157.0430  213.0860  155.0020 C   0  0  0  0  0  2  0  0  0  0  0  0
  158.9590  210.7180  152.7650 N   0  0  0  0  0  2  0  0  0  0  0  0
  158.6570  213.5400  156.8920 C   0  0  0  0  0  3  0  0  0  0  0  0
  160.5340  211.7890  154.3150 C   0  0  0  0  0  3  0  0  0  0  0  0
  161.9930  208.8920  155.0930 C   0  0  0  0  0  2  0  0  0  0  0  0
  161.0580  208.0140  157.2590 C   0  0  0  0  0  2  0  0  0  0  0  0
  160.0510  208.8160  156.6780 O   0  0  0  0  0  0  0  0  0  0  0  0
  161.3840  209.2050  156.4550 C   0  0  2  0  0  0  0  0  0  0  0  0
  163.0870  210.6590  156.7110 C   0  0  0  0  0  1  0  0  0  0  0  0
  161.8440  210.2810  157.2320 O   0  0  0  0  0  0  0  0  0  0  0  0
  3 21  1  1  0  0  0
  5  3  1  0  0  0  0
  5  4  2  0  0  0  0
  6 13  1  6  0  0  0
  6  3  1  0  0  0  0
  7  1  1  6  0  0  0
  7  9  1  0  0  0  0
  8  2  1  6  0  0  0
  8  7  1  0  0  0  0
  8  6  1  0  0  0  0
  9  5  1  0  0  0  0
 10  1  1  0  0  0  0
 10  2  1  0  0  0  0
 11 16  1  0  0  0  0
 12 19  1  0  0  0  0
 13 20  1  1  0  0  0
 14 11  1  0  0  0  0
 14 17  1  0  0  0  0
 15 14  2  0  0  0  0
 16 19  2  0  0  0  0
 17 12  1  0  0  0  0
 18 13  1  0  0  0  0
 18 15  1  0  0  0  0
 20 11  2  0  0  0  0
 23 22  1  0  0  0  0
 24 21  1  6  0  0  0
 24 23  1  0  0  0  0
 24 26  1  0  0  0  0
 24 22  1  0  0  0  0
 25 26  1  0  0  0  0
M  END
>  <MODEL>
6

>  <REMARK>
 VINA RESULT:      -6.3      3.591      7.758
  Name = 
  4 active torsions:
  status: ('A' for Active; 'I' for Inactive)
    1  A    between atoms: O_5  and  C_18
    2  A    between atoms: C_7  and  C_14
    3  A    between atoms: C_10  and  C_19
    4  A    between atoms: C_14  and  C_18
                            x       y       z     vdW  Elec       q    Type
                         _______ _______ _______ _____ _____    ______ ____

>  <TORSDO>
F 4

$$$$
=
 OpenBabel11072414253D

 26 30  0  0  1  0  0  0  0  0999 V2000
  160.4300  201.1760  150.1150 C   0  0  0  0  0  2  0  0  0  0  0  0
  160.4090  202.8160  151.7920 C   0  0  0  0  0  2  0  0  0  0  0  0
  161.4800  205.1740  148.8460 C   0  0  2  0  0  3  0  0  0  0  0  0
  162.5720  204.2080  146.9760 O   0  0  0  0  0  0  0  0  0  0  0  0
  161.9010  203.9960  147.9720 C   0  0  0  0  0  0  0  0  0  0  0  0
  161.0010  204.8320  150.2870 C   0  0  1  0  0  3  0  0  0  0  0  0
  160.6080  202.5350  149.4920 C   0  0  1  0  0  3  0  0  0  0  0  0
  161.1820  203.3410  150.6050 C   0  0  2  0  0  3  0  0  0  0  0  0
  161.5570  202.5670  148.3140 C   0  0  0  0  0  2  0  0  0  0  0  0
  160.1370  201.4010  151.5300 N   0  0  0  0  0  2  0  0  0  0  0  0
  161.0370  206.7290  153.4770 C   0  0  0  0  0  0  0  0  0  0  0  0
  160.4410  209.1120  154.9730 C   0  0  0  0  0  2  0  0  0  0  0  0
  161.7270  205.7200  151.3150 C   0  0  1  0  0  3  0  0  0  0  0  0
  161.5440  208.0400  153.0200 C   0  0  0  0  0  0  0  0  0  0  0  0
  161.9040  208.2130  151.7510 C   0  0  0  0  0  3  0  0  0  0  0  0
  160.4630  206.6280  154.8260 C   0  0  0  0  0  3  0  0  0  0  0  0
  161.6320  209.1630  154.0080 C   0  0  0  0  0  2  0  0  0  0  0  0
  161.8390  207.1080  150.8430 N   0  0  0  0  0  2  0  0  0  0  0  0
  160.2280  207.7320  155.5450 C   0  0  0  0  0  3  0  0  0  0  0  0
  161.0760  205.6620  152.6760 C   0  0  0  0  0  3  0  0  0  0  0  0
  160.4120  206.0100  148.1530 C   0  0  0  0  0  2  0  0  0  0  0  0
  162.2870  207.6390  147.7430 C   0  0  0  0  0  2  0  0  0  0  0  0
  161.0920  208.3920  147.7630 O   0  0  0  0  0  0  0  0  0  0  0  0
  161.0140  207.0840  147.2530 C   0  0  2  0  0  0  0  0  0  0  0  0
  159.9680  206.0430  145.5490 C   0  0  0  0  0  1  0  0  0  0  0  0
  160.9660  206.9770  145.8530 O   0  0  0  0  0  0  0  0  0  0  0  0
  1 10  1  0  0  0  0
  3 21  1  6  0  0  0
  3  6  1  0  0  0  0
  4  5  2  0  0  0  0
  5  9  1  0  0  0  0
  5  3  1  0  0  0  0
  6  8  1  0  0  0  0
  6 13  1  1  0  0  0
  7  9  1  6  0  0  0
  7  1  1  0  0  0  0
  7  8  1  0  0  0  0
  8  2  1  1  0  0  0
 10  2  1  0  0  0  0
 11 16  1  0  0  0  0
 12 19  1  0  0  0  0
 13 20  1  1  0  0  0
 14 11  1  0  0  0  0
 14 17  1  0  0  0  0
 15 14  2  0  0  0  0
 16 19  2  0  0  0  0
 17 12  1  0  0  0  0
 18 13  1  0  0  0  0
 18 15  1  0  0  0  0
 20 11  2  0  0  0  0
 22 23  1  0  0  0  0
 24 22  1  0  0  0  0
 24 23  1  0  0  0  0
 24 21  1  1  0  0  0
 25 26  1  0  0  0  0
 26 24  1  0  0  0  0
M  END
>  <MODEL>
7

>  <REMARK>
 VINA RESULT:      -6.2      2.704      6.255
  Name = 
  4 active torsions:
  status: ('A' for Active; 'I' for Inactive)
    1  A    between atoms: O_5  and  C_18
    2  A    between atoms: C_7  and  C_14
    3  A    between atoms: C_10  and  C_19
    4  A    between atoms: C_14  and  C_18
                            x       y       z     vdW  Elec       q    Type
                         _______ _______ _______ _____ _____    ______ ____

>  <TORSDO>
F 4

$$$$
=
 OpenBabel11072414253D

 26 30  0  0  1  0  0  0  0  0999 V2000
  161.0460  207.4240  153.9140 C   0  0  0  0  0  2  0  0  0  0  0  0
  160.6500  208.3310  151.7870 C   0  0  0  0  0  2  0  0  0  0  0  0
  161.1940  204.6270  150.6210 C   0  0  2  0  0  3  0  0  0  0  0  0
  162.4860  203.1940  152.0000 O   0  0  0  0  0  0  0  0  0  0  0  0
  161.8720  204.2460  151.9340 C   0  0  0  0  0  0  0  0  0  0  0  0
  160.7920  206.1220  150.4560 C   0  0  1  0  0  3  0  0  0  0  0  0
  160.9230  206.3120  152.9070 C   0  0  1  0  0  3  0  0  0  0  0  0
  161.2960  206.9760  151.6270 C   0  0  2  0  0  3  0  0  0  0  0  0
  161.8500  205.1410  153.1480 C   0  0  0  0  0  2  0  0  0  0  0  0
  160.7010  208.6610  153.2130 N   0  0  0  0  0  2  0  0  0  0  0  0
  160.7770  206.0850  146.7450 C   0  0  0  0  0  0  0  0  0  0  0  0
  161.6860  204.9710  144.2540 C   0  0  0  0  0  2  0  0  0  0  0  0
  161.2960  206.6620  149.1050 C   0  0  1  0  0  3  0  0  0  0  0  0
  162.2240  205.9880  146.4580 C   0  0  0  0  0  0  0  0  0  0  0  0
  163.1070  206.0090  147.4530 C   0  0  0  0  0  3  0  0  0  0  0  0
  159.8260  205.8570  145.6480 C   0  0  0  0  0  3  0  0  0  0  0  0
  162.6690  205.8530  145.0330 C   0  0  0  0  0  2  0  0  0  0  0  0
  162.6470  206.1730  148.7990 N   0  0  0  0  0  2  0  0  0  0  0  0
  160.2510  205.3840  144.4720 C   0  0  0  0  0  3  0  0  0  0  0  0
  160.3390  206.3510  147.9770 C   0  0  0  0  0  3  0  0  0  0  0  0
  159.9720  203.7520  150.3670 C   0  0  0  0  0  2  0  0  0  0  0  0
  159.6230  201.3410  149.7340 C   0  0  0  0  0  2  0  0  0  0  0  0
  161.0170  201.5300  149.8620 O   0  0  0  0  0  0  0  0  0  0  0  0
  160.2660  202.6200  149.3890 C   0  0  2  0  0  0  0  0  0  0  0  0
  161.6700  202.7540  147.6310 C   0  0  0  0  0  1  0  0  0  0  0  0
  160.3240  202.8480  148.0040 O   0  0  0  0  0  0  0  0  0  0  0  0
  2 10  1  0  0  0  0
  3 21  1  1  0  0  0
  3  5  1  0  0  0  0
  5  4  2  0  0  0  0
  5  9  1  0  0  0  0
  6 13  1  6  0  0  0
  6  3  1  0  0  0  0
  6  8  1  0  0  0  0
  7  9  1  1  0  0  0
  7  1  1  0  0  0  0
  8  2  1  1  0  0  0
  8  7  1  0  0  0  0
 10  1  1  0  0  0  0
 11 20  2  0  0  0  0
 12 19  1  0  0  0  0
 12 17  1  0  0  0  0
 13 20  1  6  0  0  0
 14 11  1  0  0  0  0
 14 15  2  0  0  0  0
 15 18  1  0  0  0  0
 16 11  1  0  0  0  0
 17 14  1  0  0  0  0
 18 13  1  0  0  0  0
 19 16  2  0  0  0  0
 22 23  1  0  0  0  0
 24 22  1  0  0  0  0
 24 23  1  0  0  0  0
 24 21  1  1  0  0  0
 25 26  1  0  0  0  0
 26 24  1  0  0  0  0
M  END
>  <MODEL>
8

>  <REMARK>
 VINA RESULT:      -6.1      3.821      5.719
  Name = 
  4 active torsions:
  status: ('A' for Active; 'I' for Inactive)
    1  A    between atoms: O_5  and  C_18
    2  A    between atoms: C_7  and  C_14
    3  A    between atoms: C_10  and  C_19
    4  A    between atoms: C_14  and  C_18
                            x       y       z     vdW  Elec       q    Type
                         _______ _______ _______ _____ _____    ______ ____

>  <TORSDO>
F 4

$$$$
=
 OpenBabel11072414253D

 26 30  0  0  1  0  0  0  0  0999 V2000
  162.4070  210.4100  148.1950 C   0  0  0  0  0  2  0  0  0  0  0  0
  162.2460  211.1230  150.4240 C   0  0  0  0  0  2  0  0  0  0  0  0
  161.1790  207.4010  151.0450 C   0  0  2  0  0  3  0  0  0  0  0  0
  160.2420  206.1850  149.2380 O   0  0  0  0  0  0  0  0  0  0  0  0
  160.8740  207.1750  149.5670 C   0  0  0  0  0  0  0  0  0  0  0  0
  161.6070  208.8410  151.4530 C   0  0  1  0  0  3  0  0  0  0  0  0
  162.1770  209.2210  149.0890 C   0  0  1  0  0  3  0  0  0  0  0  0
  161.5020  209.8180  150.2730 C   0  0  2  0  0  3  0  0  0  0  0  0
  161.2870  208.1510  148.4940 C   0  0  0  0  0  2  0  0  0  0  0  0
  162.6150  211.5590  149.0760 N   0  0  0  0  0  2  0  0  0  0  0  0
  159.3880  211.3370  153.0700 C   0  0  0  0  0  0  0  0  0  0  0  0
  159.0320  213.7970  154.5190 C   0  0  0  0  0  2  0  0  0  0  0  0
  160.7780  209.3210  152.6590 C   0  0  1  0  0  3  0  0  0  0  0  0
  160.0930  211.5550  154.3510 C   0  0  0  0  0  0  0  0  0  0  0  0
  161.1820  210.8480  154.6430 C   0  0  0  0  0  3  0  0  0  0  0  0
  158.3140  212.2680  152.6920 C   0  0  0  0  0  3  0  0  0  0  0  0
  159.5660  212.5890  155.2990 C   0  0  0  0  0  2  0  0  0  0  0  0
  161.6380  209.8450  153.7290 N   0  0  0  0  0  2  0  0  0  0  0  0
  158.1140  213.3900  153.3930 C   0  0  0  0  0  3  0  0  0  0  0  0
  159.7300  210.3330  152.2610 C   0  0  0  0  0  3  0  0  0  0  0  0
  162.2270  206.4120  151.5400 C   0  0  0  0  0  2  0  0  0  0  0  0
  161.8890  203.9220  151.6920 C   0  0  0  0  0  2  0  0  0  0  0  0
  160.6030  204.5030  151.6300 O   0  0  0  0  0  0  0  0  0  0  0  0
  161.6050  205.2380  152.2890 C   0  0  2  0  0  0  0  0  0  0  0  0
  160.8840  206.3560  154.1080 C   0  0  0  0  0  1  0  0  0  0  0  0
  161.5640  205.2050  153.6920 O   0  0  0  0  0  0  0  0  0  0  0  0
  1 10  1  0  0  0  0
  3  6  1  0  0  0  0
  3 21  1  6  0  0  0
  4  5  2  0  0  0  0
  5  3  1  0  0  0  0
  6 13  1  1  0  0  0
  7  1  1  6  0  0  0
  7  8  1  0  0  0  0
  8  2  1  1  0  0  0
  8  6  1  0  0  0  0
  9  7  1  0  0  0  0
  9  5  1  0  0  0  0
 10  2  1  0  0  0  0
 11 14  1  0  0  0  0
 12 17  1  0  0  0  0
 13 20  1  6  0  0  0
 13 18  1  0  0  0  0
 14 15  2  0  0  0  0
 14 17  1  0  0  0  0
 16 11  1  0  0  0  0
 16 19  2  0  0  0  0
 18 15  1  0  0  0  0
 19 12  1  0  0  0  0
 20 11  2  0  0  0  0
 22 24  1  0  0  0  0
 23 22  1  0  0  0  0
 23 24  1  0  0  0  0
 24 21  1  6  0  0  0
 24 26  1  0  0  0  0
 26 25  1  0  0  0  0
M  END
>  <MODEL>
9

>  <REMARK>
 VINA RESULT:      -5.5      3.058      7.357
  Name = 
  4 active torsions:
  status: ('A' for Active; 'I' for Inactive)
    1  A    between atoms: O_5  and  C_18
    2  A    between atoms: C_7  and  C_14
    3  A    between atoms: C_10  and  C_19
    4  A    between atoms: C_14  and  C_18
                            x       y       z     vdW  Elec       q    Type
                         _______ _______ _______ _____ _____    ______ ____

>  <TORSDO>
F 4

$$$$
