=
 OpenBabel11072410423D

 50 54  0  0  1  0  0  0  0  0999 V2000
  158.9660  211.4550  154.8230 C   0  0  0  0  0  0  0  0  0  0  0  0
  159.2430  211.2080  156.0110 N   0  0  0  0  0  0  0  0  0  0  0  0
  160.7840  209.3290  155.3590 C   0  0  1  0  0  3  0  0  0  0  0  0
  158.2680  212.6120  154.4450 N   0  0  0  0  0  1  0  0  0  0  0  0
  159.5220  210.6680  153.7310 N   0  0  0  0  0  0  0  0  0  0  0  0
  160.3700  209.7220  153.8670 C   0  0  0  0  0  0  0  0  0  0  0  0
  159.9160  209.9810  156.4430 C   0  0  0  0  0  2  0  0  0  0  0  0
  161.0110  209.1150  152.6820 N   0  0  0  0  0  0  0  0  0  0  0  0
  161.5410  206.2190  148.6690 N   0  0  0  0  0  2  0  0  0  0  0  0
  160.4560  204.2270  149.2450 O   0  0  0  0  0  0  0  0  0  0  0  0
  160.8680  205.7720  151.0160 N   0  0  0  0  0  0  0  0  0  0  0  0
  162.9020  206.1520  152.4530 C   0  0  0  0  0  2  0  0  0  0  0  0
  160.9570  205.3830  149.6120 C   0  0  0  0  0  0  0  0  0  0  0  0
  161.8700  205.1370  151.8920 C   0  0  0  0  0  2  0  0  0  0  0  0
  162.6300  207.4960  152.2190 O   0  0  0  0  0  0  0  0  0  0  0  0
  161.2090  207.6780  152.4780 C   0  0  2  0  0  3  0  0  0  0  0  0
  160.3860  207.1070  151.3740 C   0  0  0  0  0  2  0  0  0  0  0  0
  160.4580  206.5780  146.4900 C   0  0  0  0  0  3  0  0  0  0  0  0
  160.3450  206.4280  145.0900 C   0  0  0  0  0  3  0  0  0  0  0  0
  161.3300  205.5230  142.6640 Cl  0  0  0  0  0  0  0  0  0  0  0  0
  162.4410  205.2970  145.0990 C   0  0  0  0  0  3  0  0  0  0  0  0
  163.6380  204.8080  147.0890 O   0  0  0  0  0  1  0  0  0  0  0  0
  162.5650  205.4150  146.4880 C   0  0  0  0  0  0  0  0  0  0  0  0
  161.5440  206.1170  147.1990 C   0  0  0  0  0  0  0  0  0  0  0  0
  161.3700  205.8090  144.3940 C   0  0  0  0  0  0  0  0  0  0  0  0
  160.7610  207.9150  155.5890 O   0  0  0  0  0  0  0  0  0  0  0  0
  159.9950  207.7150  156.6120 O   0  0  0  0  0  1  0  0  0  0  0  0
  160.6050  209.7600  151.5270 O   0  0  0  0  0  0  0  0  0  0  0  0
  162.6560  210.5740  150.5760 C   0  0  0  0  0  1  0  0  0  0  0  0
  161.3480  210.9280  151.2570 C   0  0  1  0  0  3  0  0  0  0  0  0
  160.6960  211.8150  150.2500 C   0  0  2  0  0  3  0  0  0  0  0  0
  161.4980  210.7550  148.2310 O   0  0  0  0  0  0  0  0  0  0  0  0
  161.4160  211.8520  148.8840 C   0  0  0  0  0  0  0  0  0  0  0  0
  161.7580  213.1260  148.2040 N   0  0  0  0  0  2  0  0  0  0  0  0
  162.6760  214.4530  146.4630 C   0  0  0  0  0  2  0  0  0  0  0  0
  162.2390  213.0700  146.8690 C   0  0  2  0  0  3  0  0  0  0  0  0
  161.7130  213.2730  144.5520 C   0  0  1  0  0  3  0  0  0  0  0  0
  162.6310  214.3920  144.9180 C   0  0  0  0  0  2  0  0  0  0  0  0
  161.1770  212.6800  145.7970 C   0  0  0  0  0  2  0  0  0  0  0  0
  161.5750  213.8870  142.1480 C   0  0  0  0  0  1  0  0  0  0  0  0
  160.8880  213.6830  143.4090 C   0  0  0  0  0  0  0  0  0  0  0  0
  159.7430  213.9350  143.5700 O   0  0  0  0  0  0  0  0  0  0  0  0
  160.0250  213.1390  150.5930 C   0  0  2  0  0  3  0  0  0  0  0  0
  159.9910  213.5620  151.9780 C   0  0  0  0  0  1  0  0  0  0  0  0
  158.6340  213.3170  150.1300 N   0  0  0  0  0  0  0  0  0  0  0  0
  158.4520  213.7800  148.7450 C   0  0  0  0  0  2  0  0  0  0  0  0
  156.0020  213.9380  149.3300 C   0  0  0  0  0  2  0  0  0  0  0  0
  156.3910  213.7500  150.7510 C   0  0  0  0  0  2  0  0  0  0  0  0
  156.9980  213.3290  148.3560 C   0  0  0  0  0  2  0  0  0  0  0  0
  157.8040  214.1400  151.0270 C   0  0  0  0  0  2  0  0  0  0  0  0
  1  2  2  0  0  0  0
  2  7  1  0  0  0  0
  3 26  1  6  0  0  0
  3  7  1  0  0  0  0
  4  1  1  0  0  0  0
  5  6  2  0  0  0  0
  5  1  1  0  0  0  0
  6  3  1  0  0  0  0
  8  6  1  0  0  0  0
  9 13  1  0  0  0  0
 10 13  2  0  0  0  0
 11 17  1  0  0  0  0
 11 14  1  0  0  0  0
 13 11  1  0  0  0  0
 14 12  1  0  0  0  0
 15 12  1  0  0  0  0
 15 16  1  0  0  0  0
 16  8  1  6  0  0  0
 17 16  1  0  0  0  0
 18 24  1  0  0  0  0
 19 18  2  0  0  0  0
 20 25  1  0  0  0  0
 21 23  1  0  0  0  0
 23 22  1  0  0  0  0
 23 24  2  0  0  0  0
 24  9  1  0  0  0  0
 25 19  1  0  0  0  0
 25 21  2  0  0  0  0
 26 27  1  0  0  0  0
 28  8  1  0  0  0  0
 30 29  1  6  0  0  0
 30 28  1  0  0  0  0
 31 33  1  6  0  0  0
 31 43  1  0  0  0  0
 31 30  1  0  0  0  0
 32 33  2  0  0  0  0
 34 33  1  0  0  0  0
 35 36  1  0  0  0  0
 36 34  1  1  0  0  0
 37 41  1  6  0  0  0
 37 38  1  0  0  0  0
 37 39  1  0  0  0  0
 38 35  1  0  0  0  0
 39 36  1  0  0  0  0
 40 41  1  0  0  0  0
 41 42  2  0  0  0  0
 43 44  1  1  0  0  0
 45 43  1  0  0  0  0
 45 50  1  0  0  0  0
 46 45  1  0  0  0  0
 47 48  1  0  0  0  0
 48 50  1  0  0  0  0
 49 46  1  0  0  0  0
 49 47  1  0  0  0  0
M  END
>  <MODEL>
1

>  <REMARK>
 VINA RESULT:      -4.8      0.000      0.000
  Name = 
  11 active torsions:
  status: ('A' for Active; 'I' for Inactive)
    1  A    between atoms: N_1  and  C_42
    2  A    between atoms: O_2  and  C_18
    3  A    between atoms: C_10  and  C_31
    4  A    between atoms: N_11  and  C_14
    5  A    between atoms: C_14  and  C_44
    6  A    between atoms: O_17  and  C_49
    7  A    between atoms: O_17  and  N_50
    8  A    between atoms: C_24  and  N_40
    9  A    between atoms: C_25  and  C_44
   10  A    between atoms: C_44  and  C_49
   11  A    between atoms: C_46  and  N_50
                            x       y       z     vdW  Elec       q    Type
                         _______ _______ _______ _____ _____    ______ ____

>  <TORSDO>
F 11

$$$$
=
 OpenBabel11072410423D

 50 54  0  0  1  0  0  0  0  0999 V2000
  162.0550  212.9420  148.5640 C   0  0  0  0  0  0  0  0  0  0  0  0
  162.2870  211.9470  147.8530 N   0  0  0  0  0  0  0  0  0  0  0  0
  161.4920  210.3670  149.6420 C   0  0  1  0  0  3  0  0  0  0  0  0
  162.0820  214.2490  148.0510 N   0  0  0  0  0  1  0  0  0  0  0  0
  161.5400  212.8080  149.9200 N   0  0  0  0  0  0  0  0  0  0  0  0
  161.2240  211.7010  150.4760 C   0  0  0  0  0  0  0  0  0  0  0  0
  162.3270  210.5780  148.3710 C   0  0  0  0  0  2  0  0  0  0  0  0
  160.5350  211.6920  151.7840 N   0  0  0  0  0  0  0  0  0  0  0  0
  161.0920  206.7690  152.2530 N   0  0  0  0  0  2  0  0  0  0  0  0
  160.2570  206.2920  154.3870 O   0  0  0  0  0  0  0  0  0  0  0  0
  160.6250  208.5920  153.8700 N   0  0  0  0  0  0  0  0  0  0  0  0
  162.7000  210.0150  153.9990 C   0  0  0  0  0  2  0  0  0  0  0  0
  160.6600  207.1790  153.5080 C   0  0  0  0  0  0  0  0  0  0  0  0
  161.7430  209.0330  154.7250 C   0  0  0  0  0  2  0  0  0  0  0  0
  162.2770  210.4780  152.7570 O   0  0  0  0  0  0  0  0  0  0  0  0
  160.8660  210.8030  152.9000 C   0  0  2  0  0  3  0  0  0  0  0  0
  160.0340  209.5670  152.9530 C   0  0  0  0  0  2  0  0  0  0  0  0
  161.2410  204.3160  152.3810 C   0  0  0  0  0  3  0  0  0  0  0  0
  161.2740  203.0180  151.8280 C   0  0  0  0  0  3  0  0  0  0  0  0
  161.1070  201.3050  149.6570 Cl  0  0  0  0  0  0  0  0  0  0  0  0
  160.8650  203.9800  149.6880 C   0  0  0  0  0  3  0  0  0  0  0  0
  160.7250  206.3220  149.3290 O   0  0  0  0  0  1  0  0  0  0  0  0
  160.8480  205.2780  150.2110 C   0  0  0  0  0  0  0  0  0  0  0  0
  161.0080  205.4390  151.6200 C   0  0  0  0  0  0  0  0  0  0  0  0
  161.0490  202.8580  150.4710 C   0  0  0  0  0  0  0  0  0  0  0  0
  162.1410  209.3480  150.4120 O   0  0  0  0  0  0  0  0  0  0  0  0
  162.4270  208.3870  149.5950 O   0  0  0  0  0  1  0  0  0  0  0  0
  160.2660  212.9840  152.2010 O   0  0  0  0  0  0  0  0  0  0  0  0
  159.1040  214.4060  153.7500 C   0  0  0  0  0  1  0  0  0  0  0  0
  159.1310  213.0700  153.0330 C   0  0  1  0  0  3  0  0  0  0  0  0
  157.8490  213.0950  152.2700 C   0  0  2  0  0  3  0  0  0  0  0  0
  159.0290  214.4510  150.6550 O   0  0  0  0  0  0  0  0  0  0  0  0
  157.9200  213.8810  150.9430 C   0  0  0  0  0  0  0  0  0  0  0  0
  156.8710  213.7730  149.9000 N   0  0  0  0  0  2  0  0  0  0  0  0
  156.0130  213.9530  147.6940 C   0  0  0  0  0  2  0  0  0  0  0  0
  157.1110  214.3740  148.6360 C   0  0  2  0  0  3  0  0  0  0  0  0
  158.1300  214.1630  146.4910 C   0  0  1  0  0  3  0  0  0  0  0  0
  156.6490  214.1710  146.3010 C   0  0  0  0  0  2  0  0  0  0  0  0
  158.4180  213.9180  147.9210 C   0  0  0  0  0  2  0  0  0  0  0  0
  158.7920  214.0960  144.0960 C   0  0  0  0  0  1  0  0  0  0  0  0
  158.7510  213.4270  145.3830 C   0  0  0  0  0  0  0  0  0  0  0  0
  159.0900  212.3040  145.5390 O   0  0  0  0  0  0  0  0  0  0  0  0
  156.4740  213.1730  152.9230 C   0  0  2  0  0  3  0  0  0  0  0  0
  155.7930  214.4510  152.9550 C   0  0  0  0  0  1  0  0  0  0  0  0
  156.3690  212.6770  154.3090 N   0  0  0  0  0  0  0  0  0  0  0  0
  155.6760  211.3930  154.5010 C   0  0  0  0  0  2  0  0  0  0  0  0
  155.9070  211.8630  156.9700 C   0  0  0  0  0  2  0  0  0  0  0  0
  156.3160  213.2440  156.6070 C   0  0  0  0  0  2  0  0  0  0  0  0
  156.2050  210.8490  155.8760 C   0  0  0  0  0  2  0  0  0  0  0  0
  155.8290  213.6640  155.2610 C   0  0  0  0  0  2  0  0  0  0  0  0
  1  5  1  0  0  0  0
  2  7  1  0  0  0  0
  2  1  2  0  0  0  0
  3 26  1  1  0  0  0
  3  6  1  0  0  0  0
  4  1  1  0  0  0  0
  5  6  2  0  0  0  0
  6  8  1  0  0  0  0
  7  3  1  0  0  0  0
  8 28  1  0  0  0  0
  9 13  1  0  0  0  0
 11 14  1  0  0  0  0
 12 14  1  0  0  0  0
 13 11  1  0  0  0  0
 13 10  2  0  0  0  0
 15 16  1  0  0  0  0
 15 12  1  0  0  0  0
 16  8  1  6  0  0  0
 16 17  1  0  0  0  0
 17 11  1  0  0  0  0
 19 18  1  0  0  0  0
 20 25  1  0  0  0  0
 21 23  2  0  0  0  0
 21 25  1  0  0  0  0
 22 23  1  0  0  0  0
 23 24  1  0  0  0  0
 24  9  1  0  0  0  0
 24 18  2  0  0  0  0
 25 19  2  0  0  0  0
 27 26  1  0  0  0  0
 28 30  1  0  0  0  0
 30 29  1  6  0  0  0
 31 33  1  6  0  0  0
 31 43  1  0  0  0  0
 31 30  1  0  0  0  0
 32 33  2  0  0  0  0
 34 33  1  0  0  0  0
 35 36  1  0  0  0  0
 36 34  1  1  0  0  0
 37 41  1  6  0  0  0
 37 39  1  0  0  0  0
 38 37  1  0  0  0  0
 38 35  1  0  0  0  0
 39 36  1  0  0  0  0
 40 41  1  0  0  0  0
 41 42  2  0  0  0  0
 43 44  1  1  0  0  0
 43 45  1  0  0  0  0
 45 46  1  0  0  0  0
 45 50  1  0  0  0  0
 46 49  1  0  0  0  0
 48 47  1  0  0  0  0
 49 47  1  0  0  0  0
 50 48  1  0  0  0  0
M  END
>  <MODEL>
2

>  <REMARK>
 VINA RESULT:      -4.4      2.813      5.425
  Name = 
  11 active torsions:
  status: ('A' for Active; 'I' for Inactive)
    1  A    between atoms: N_1  and  C_42
    2  A    between atoms: O_2  and  C_18
    3  A    between atoms: C_10  and  C_31
    4  A    between atoms: N_11  and  C_14
    5  A    between atoms: C_14  and  C_44
    6  A    between atoms: O_17  and  C_49
    7  A    between atoms: O_17  and  N_50
    8  A    between atoms: C_24  and  N_40
    9  A    between atoms: C_25  and  C_44
   10  A    between atoms: C_44  and  C_49
   11  A    between atoms: C_46  and  N_50
                            x       y       z     vdW  Elec       q    Type
                         _______ _______ _______ _____ _____    ______ ____

>  <TORSDO>
F 11

$$$$
=
 OpenBabel11072410423D

 50 54  0  0  1  0  0  0  0  0999 V2000
  161.1490  206.0120  153.4520 C   0  0  0  0  0  0  0  0  0  0  0  0
  160.9580  204.7830  153.4030 N   0  0  0  0  0  0  0  0  0  0  0  0
  161.5870  204.6880  150.9690 C   0  0  1  0  0  3  0  0  0  0  0  0
  161.1810  206.7140  154.6670 N   0  0  0  0  0  1  0  0  0  0  0  0
  161.5530  206.7690  152.2750 N   0  0  0  0  0  0  0  0  0  0  0  0
  161.8080  206.2620  151.1300 C   0  0  0  0  0  0  0  0  0  0  0  0
  160.8580  204.0330  152.1500 C   0  0  0  0  0  2  0  0  0  0  0  0
  162.3900  207.0930  150.0570 N   0  0  0  0  0  0  0  0  0  0  0  0
  161.1850  203.4990  146.8310 N   0  0  0  0  0  2  0  0  0  0  0  0
  161.9790  204.2780  144.7730 O   0  0  0  0  0  0  0  0  0  0  0  0
  161.9150  205.8560  146.5620 N   0  0  0  0  0  0  0  0  0  0  0  0
  160.0520  207.3110  147.4320 C   0  0  0  0  0  2  0  0  0  0  0  0
  161.6860  204.5160  146.0290 C   0  0  0  0  0  0  0  0  0  0  0  0
  160.8790  206.8420  146.2050 C   0  0  0  0  0  2  0  0  0  0  0  0
  160.5160  206.9000  148.6770 O   0  0  0  0  0  0  0  0  0  0  0  0
  161.9600  207.0790  148.6570 C   0  0  2  0  0  3  0  0  0  0  0  0
  162.6190  206.0250  147.8340 C   0  0  0  0  0  2  0  0  0  0  0  0
  161.8090  201.1710  147.3220 C   0  0  0  0  0  3  0  0  0  0  0  0
  161.8370  199.7840  147.0610 C   0  0  0  0  0  3  0  0  0  0  0  0
  161.0760  197.5880  145.5530 Cl  0  0  0  0  0  0  0  0  0  0  0  0
  160.3970  200.1630  145.2020 C   0  0  0  0  0  3  0  0  0  0  0  0
  159.7030  202.3290  144.5250 O   0  0  0  0  0  1  0  0  0  0  0  0
  160.3710  201.5440  145.4300 C   0  0  0  0  0  0  0  0  0  0  0  0
  161.0800  202.0540  146.5590 C   0  0  0  0  0  0  0  0  0  0  0  0
  161.0920  199.2820  146.0070 C   0  0  0  0  0  0  0  0  0  0  0  0
  160.8640  204.3460  149.7810 O   0  0  0  0  0  0  0  0  0  0  0  0
  160.5120  203.1070  149.9010 O   0  0  0  0  0  1  0  0  0  0  0  0
  162.6440  208.3730  150.5170 O   0  0  0  0  0  0  0  0  0  0  0  0
  160.7990  209.3290  151.7230 C   0  0  0  0  0  1  0  0  0  0  0  0
  161.5320  209.2330  150.3990 C   0  0  1  0  0  3  0  0  0  0  0  0
  161.9160  210.6520  150.1450 C   0  0  2  0  0  3  0  0  0  0  0  0
  160.6080  212.6690  150.3940 O   0  0  0  0  0  0  0  0  0  0  0  0
  161.1410  211.6770  151.0010 C   0  0  0  0  0  0  0  0  0  0  0  0
  160.7720  211.4130  152.4140 N   0  0  0  0  0  2  0  0  0  0  0  0
  160.1170  212.2140  154.5500 C   0  0  0  0  0  2  0  0  0  0  0  0
  159.8950  212.3200  153.0640 C   0  0  2  0  0  3  0  0  0  0  0  0
  157.7600  212.6500  154.0730 C   0  0  1  0  0  3  0  0  0  0  0  0
  158.7990  212.7700  155.1390 C   0  0  0  0  0  2  0  0  0  0  0  0
  158.3760  212.0180  152.8860 C   0  0  0  0  0  2  0  0  0  0  0  0
  156.4220  210.8270  155.1060 C   0  0  0  0  0  1  0  0  0  0  0  0
  156.4970  212.2130  154.6820 C   0  0  0  0  0  0  0  0  0  0  0  0
  155.5700  212.9480  154.7080 O   0  0  0  0  0  0  0  0  0  0  0  0
  162.2850  211.1990  148.7720 C   0  0  2  0  0  3  0  0  0  0  0  0
  163.5900  211.8000  148.5920 C   0  0  0  0  0  1  0  0  0  0  0  0
  161.3540  212.1780  148.1750 N   0  0  0  0  0  0  0  0  0  0  0  0
  160.4360  211.6730  147.1420 C   0  0  0  0  0  2  0  0  0  0  0  0
  159.7790  214.0890  146.8250 C   0  0  0  0  0  2  0  0  0  0  0  0
  160.9490  214.4530  147.6650 C   0  0  0  0  0  2  0  0  0  0  0  0
  159.2450  212.6970  147.1250 C   0  0  0  0  0  2  0  0  0  0  0  0
  162.0080  213.4030  147.6820 C   0  0  0  0  0  2  0  0  0  0  0  0
  1  4  1  0  0  0  0
  2  1  2  0  0  0  0
  3 26  1  6  0  0  0
  3  6  1  0  0  0  0
  3  7  1  0  0  0  0
  5  1  1  0  0  0  0
  6  5  2  0  0  0  0
  7  2  1  0  0  0  0
  8 28  1  0  0  0  0
  8  6  1  0  0  0  0
 10 13  2  0  0  0  0
 11 17  1  0  0  0  0
 12 15  1  0  0  0  0
 13 11  1  0  0  0  0
 13  9  1  0  0  0  0
 14 11  1  0  0  0  0
 14 12  1  0  0  0  0
 16 15  1  0  0  0  0
 16  8  1  1  0  0  0
 17 16  1  0  0  0  0
 19 18  1  0  0  0  0
 20 25  1  0  0  0  0
 21 23  2  0  0  0  0
 21 25  1  0  0  0  0
 22 23  1  0  0  0  0
 23 24  1  0  0  0  0
 24  9  1  0  0  0  0
 24 18  2  0  0  0  0
 25 19  2  0  0  0  0
 26 27  1  0  0  0  0
 30 28  1  0  0  0  0
 30 29  1  1  0  0  0
 31 30  1  0  0  0  0
 31 33  1  6  0  0  0
 32 33  2  0  0  0  0
 33 34  1  0  0  0  0
 35 38  1  0  0  0  0
 36 34  1  6  0  0  0
 36 35  1  0  0  0  0
 37 41  1  1  0  0  0
 37 38  1  0  0  0  0
 39 36  1  0  0  0  0
 39 37  1  0  0  0  0
 41 42  2  0  0  0  0
 41 40  1  0  0  0  0
 43 44  1  1  0  0  0
 43 31  1  0  0  0  0
 45 43  1  0  0  0  0
 46 45  1  0  0  0  0
 47 49  1  0  0  0  0
 47 48  1  0  0  0  0
 48 50  1  0  0  0  0
 49 46  1  0  0  0  0
 50 45  1  0  0  0  0
M  END
>  <MODEL>
3

>  <REMARK>
 VINA RESULT:      -2.4      3.004      6.311
  Name = 
  11 active torsions:
  status: ('A' for Active; 'I' for Inactive)
    1  A    between atoms: N_1  and  C_42
    2  A    between atoms: O_2  and  C_18
    3  A    between atoms: C_10  and  C_31
    4  A    between atoms: N_11  and  C_14
    5  A    between atoms: C_14  and  C_44
    6  A    between atoms: O_17  and  C_49
    7  A    between atoms: O_17  and  N_50
    8  A    between atoms: C_24  and  N_40
    9  A    between atoms: C_25  and  C_44
   10  A    between atoms: C_44  and  C_49
   11  A    between atoms: C_46  and  N_50
                            x       y       z     vdW  Elec       q    Type
                         _______ _______ _______ _____ _____    ______ ____

>  <TORSDO>
F 11

$$$$
=
 OpenBabel11072410423D

 50 54  0  0  1  0  0  0  0  0999 V2000
  161.1060  204.6520  151.3390 C   0  0  0  0  0  0  0  0  0  0  0  0
  161.0120  204.0200  152.4080 N   0  0  0  0  0  0  0  0  0  0  0  0
  160.6010  206.1250  153.7240 C   0  0  1  0  0  3  0  0  0  0  0  0
  161.1270  204.0080  150.0920 N   0  0  0  0  0  1  0  0  0  0  0  0
  160.9960  206.1030  151.2980 N   0  0  0  0  0  0  0  0  0  0  0  0
  160.7360  206.8460  152.3050 C   0  0  0  0  0  0  0  0  0  0  0  0
  161.0500  204.6570  153.7260 C   0  0  0  0  0  2  0  0  0  0  0  0
  160.4600  208.2860  152.1210 N   0  0  0  0  0  0  0  0  0  0  0  0
  158.4290  211.7750  155.0320 N   0  0  0  0  0  2  0  0  0  0  0  0
  159.8270  213.6330  154.7700 O   0  0  0  0  0  0  0  0  0  0  0  0
  160.6380  211.5560  153.9230 N   0  0  0  0  0  0  0  0  0  0  0  0
  161.8470  209.6560  155.0540 C   0  0  0  0  0  2  0  0  0  0  0  0
  159.6160  212.3500  154.5960 C   0  0  0  0  0  0  0  0  0  0  0  0
  161.7820  211.1820  154.7750 C   0  0  0  0  0  2  0  0  0  0  0  0
  160.9670  208.8620  154.3260 O   0  0  0  0  0  0  0  0  0  0  0  0
  161.0010  209.3590  152.9590 C   0  0  2  0  0  3  0  0  0  0  0  0
  160.2620  210.6480  152.8380 C   0  0  0  0  0  2  0  0  0  0  0  0
  156.6930  212.0440  156.7540 C   0  0  0  0  0  3  0  0  0  0  0  0
  155.4720  212.5450  157.2560 C   0  0  0  0  0  3  0  0  0  0  0  0
  153.2120  214.1250  156.9930 Cl  0  0  0  0  0  0  0  0  0  0  0  0
  155.2320  213.8100  155.2520 C   0  0  0  0  0  3  0  0  0  0  0  0
  156.7650  213.6730  153.4460 O   0  0  0  0  0  1  0  0  0  0  0  0
  156.4300  213.3110  154.7260 C   0  0  0  0  0  0  0  0  0  0  0  0
  157.2010  212.4200  155.5310 C   0  0  0  0  0  0  0  0  0  0  0  0
  154.7600  213.4630  156.5020 C   0  0  0  0  0  0  0  0  0  0  0  0
  161.3310  206.7930  154.7600 O   0  0  0  0  0  0  0  0  0  0  0  0
  160.6810  206.5960  155.8610 O   0  0  0  0  0  1  0  0  0  0  0  0
  160.4670  208.6140  150.7760 O   0  0  0  0  0  0  0  0  0  0  0  0
  162.7460  207.9500  150.4030 C   0  0  0  0  0  1  0  0  0  0  0  0
  161.7250  209.0680  150.3260 C   0  0  1  0  0  3  0  0  0  0  0  0
  161.7370  209.4070  148.8720 C   0  0  2  0  0  3  0  0  0  0  0  0
  163.4630  208.0460  147.8700 O   0  0  0  0  0  0  0  0  0  0  0  0
  162.2040  208.2530  147.9600 C   0  0  0  0  0  0  0  0  0  0  0  0
  161.2650  207.2390  147.4200 N   0  0  0  0  0  2  0  0  0  0  0  0
  161.0980  205.9520  145.4330 C   0  0  0  0  0  2  0  0  0  0  0  0
  161.8030  206.1060  146.7550 C   0  0  2  0  0  3  0  0  0  0  0  0
  161.6400  203.7590  146.3670 C   0  0  1  0  0  3  0  0  0  0  0  0
  161.3330  204.4630  145.0860 C   0  0  0  0  0  2  0  0  0  0  0  0
  161.5680  204.7420  147.4700 C   0  0  0  0  0  2  0  0  0  0  0  0
  161.1390  201.6330  147.5540 C   0  0  0  0  0  1  0  0  0  0  0  0
  160.9620  202.4570  146.3720 C   0  0  0  0  0  0  0  0  0  0  0  0
  160.4000  202.0810  145.4010 O   0  0  0  0  0  0  0  0  0  0  0  0
  162.1180  210.7770  148.3240 C   0  0  2  0  0  3  0  0  0  0  0  0
  163.1560  211.5290  148.9970 C   0  0  0  0  0  1  0  0  0  0  0  0
  161.0220  211.7520  148.1540 N   0  0  0  0  0  0  0  0  0  0  0  0
  160.8190  212.2900  146.8000 C   0  0  0  0  0  2  0  0  0  0  0  0
  159.1290  213.8240  147.8760 C   0  0  0  0  0  2  0  0  0  0  0  0
  159.6610  213.3870  149.1930 C   0  0  0  0  0  2  0  0  0  0  0  0
  159.3300  212.7880  146.7810 C   0  0  0  0  0  2  0  0  0  0  0  0
  161.0570  212.8670  149.1170 C   0  0  0  0  0  2  0  0  0  0  0  0
  1  2  2  0  0  0  0
  2  7  1  0  0  0  0
  3  7  1  0  0  0  0
  3 26  1  1  0  0  0
  4  1  1  0  0  0  0
  5  1  1  0  0  0  0
  5  6  2  0  0  0  0
  6  3  1  0  0  0  0
  8  6  1  0  0  0  0
  9 24  1  0  0  0  0
 11 13  1  0  0  0  0
 11 14  1  0  0  0  0
 13 10  2  0  0  0  0
 13  9  1  0  0  0  0
 14 12  1  0  0  0  0
 15 12  1  0  0  0  0
 16  8  1  6  0  0  0
 16 15  1  0  0  0  0
 17 16  1  0  0  0  0
 17 11  1  0  0  0  0
 18 19  1  0  0  0  0
 21 25  1  0  0  0  0
 22 23  1  0  0  0  0
 23 21  2  0  0  0  0
 23 24  1  0  0  0  0
 24 18  2  0  0  0  0
 25 20  1  0  0  0  0
 25 19  2  0  0  0  0
 26 27  1  0  0  0  0
 28  8  1  0  0  0  0
 30 29  1  6  0  0  0
 30 28  1  0  0  0  0
 31 33  1  6  0  0  0
 31 30  1  0  0  0  0
 32 33  2  0  0  0  0
 34 33  1  0  0  0  0
 35 36  1  0  0  0  0
 36 34  1  1  0  0  0
 36 39  1  0  0  0  0
 37 41  1  1  0  0  0
 37 39  1  0  0  0  0
 38 35  1  0  0  0  0
 38 37  1  0  0  0  0
 41 40  1  0  0  0  0
 42 41  2  0  0  0  0
 43 31  1  0  0  0  0
 43 44  1  1  0  0  0
 45 43  1  0  0  0  0
 45 50  1  0  0  0  0
 46 45  1  0  0  0  0
 47 48  1  0  0  0  0
 49 46  1  0  0  0  0
 49 47  1  0  0  0  0
 50 48  1  0  0  0  0
M  END
>  <MODEL>
4

>  <REMARK>
 VINA RESULT:      -2.3      3.602      8.267
  Name = 
  11 active torsions:
  status: ('A' for Active; 'I' for Inactive)
    1  A    between atoms: N_1  and  C_42
    2  A    between atoms: O_2  and  C_18
    3  A    between atoms: C_10  and  C_31
    4  A    between atoms: N_11  and  C_14
    5  A    between atoms: C_14  and  C_44
    6  A    between atoms: O_17  and  C_49
    7  A    between atoms: O_17  and  N_50
    8  A    between atoms: C_24  and  N_40
    9  A    between atoms: C_25  and  C_44
   10  A    between atoms: C_44  and  C_49
   11  A    between atoms: C_46  and  N_50
                            x       y       z     vdW  Elec       q    Type
                         _______ _______ _______ _____ _____    ______ ____

>  <TORSDO>
F 11

$$$$
