=
 OpenBabel11072413083D

 35 37  0  0  1  0  0  0  0  0999 V2000
  161.6520  208.9160  151.2960 C   0  0  0  0  0  0  0  0  0  0  0  0
  160.6220  207.6430  152.9080 C   0  0  0  0  0  3  0  0  0  0  0  0
  160.8340  207.6790  151.4270 C   0  0  2  0  0  3  0  0  0  0  0  0
  162.1100  209.4220  150.0860 O   0  0  0  0  0  1  0  0  0  0  0  0
  161.2420  208.6730  153.4690 C   0  0  0  0  0  0  0  0  0  0  0  0
  161.9020  209.4870  152.4590 C   0  0  0  0  0  3  0  0  0  0  0  0
  161.2900  208.9550  154.9140 C   0  0  0  0  0  0  0  0  0  0  0  0
  160.9910  210.1340  155.5690 C   0  0  0  0  0  0  0  0  0  0  0  0
  161.5560  208.6870  157.0120 C   0  0  0  0  0  3  0  0  0  0  0  0
  161.6550  208.0380  155.8310 N   0  0  0  0  0  0  0  0  0  0  0  0
  161.1620  209.9320  156.8500 O   0  0  0  0  0  0  0  0  0  0  0  0
  160.5670  211.4450  154.9850 C   0  0  0  0  0  2  0  0  0  0  0  0
  159.0660  211.5100  154.7260 C   0  0  2  0  0  3  0  0  0  0  0  0
  158.4290  210.5850  155.5500 O   0  0  0  0  0  1  0  0  0  0  0  0
  158.7330  211.1930  153.2760 C   0  0  0  0  0  2  0  0  0  0  0  0
  158.0740  213.4350  152.3980 O   0  0  0  0  0  1  0  0  0  0  0  0
  160.0130  212.4340  151.6950 O   0  0  0  0  0  0  0  0  0  0  0  0
  158.9820  212.3830  152.4140 C   0  0  0  0  0  0  0  0  0  0  0  0
  161.6620  206.4820  150.9770 C   0  0  0  0  0  2  0  0  0  0  0  0
  160.9920  205.7510  149.8230 C   0  0  1  0  0  3  0  0  0  0  0  0
  162.4080  206.1090  146.3840 O   0  0  0  0  0  0  0  0  0  0  0  0
  163.6540  204.0820  146.2580 C   0  0  0  0  0  1  0  0  0  0  0  0
  161.9460  206.6740  147.5880 C   0  0  2  0  0  0  0  0  0  0  0  0
  160.5410  207.2270  147.3570 C   0  0  0  0  0  1  0  0  0  0  0  0
  162.7900  207.7210  147.9550 O   0  0  0  0  0  1  0  0  0  0  0  0
  162.2850  204.7040  146.4830 C   0  0  1  0  0  0  0  0  0  0  0  0
  161.9910  205.5900  148.6610 C   0  0  2  0  0  3  0  0  0  0  0  0
  161.7850  204.3390  147.8670 C   0  0  0  0  0  2  0  0  0  0  0  0
  161.3040  204.2200  145.4140 C   0  0  0  0  0  2  0  0  0  0  0  0
  161.1490  205.3760  144.0090 S   0  0  0  0  0  1  0  0  0  0  0  0
  160.5250  204.3960  150.3410 C   0  0  0  0  0  2  0  0  0  0  0  0
  161.4220  203.9220  151.4710 C   0  0  0  0  0  2  0  0  0  0  0  0
  161.5080  202.4050  151.4780 C   0  0  0  0  0  2  0  0  0  0  0  0
  161.3370  200.8990  149.6300 O   0  0  0  0  0  1  0  0  0  0  0  0
  160.6120  201.8030  150.4070 C   0  0  0  0  0  2  0  0  0  0  0  0
  1  3  1  0  0  0  0
  1  6  2  0  0  0  0
  2  5  2  0  0  0  0
  3 19  1  1  0  0  0
  3  2  1  0  0  0  0
  4  1  1  0  0  0  0
  5  7  1  0  0  0  0
  6  5  1  0  0  0  0
  7  8  2  0  0  0  0
  7 10  1  0  0  0  0
  8 11  1  0  0  0  0
 10  9  2  0  0  0  0
 11  9  1  0  0  0  0
 12  8  1  0  0  0  0
 13 12  1  0  0  0  0
 13 14  1  1  0  0  0
 15 13  1  0  0  0  0
 16 18  1  0  0  0  0
 17 18  2  0  0  0  0
 18 15  1  0  0  0  0
 20 31  1  1  0  0  0
 20 19  1  0  0  0  0
 21 26  1  0  0  0  0
 21 23  1  0  0  0  0
 23 24  1  6  0  0  0
 23 25  1  0  0  0  0
 23 27  1  0  0  0  0
 26 22  1  6  0  0  0
 26 28  1  0  0  0  0
 27 20  1  1  0  0  0
 28 27  1  0  0  0  0
 29 26  1  0  0  0  0
 30 29  1  0  0  0  0
 31 32  1  0  0  0  0
 32 33  1  0  0  0  0
 34 35  1  0  0  0  0
 35 33  1  0  0  0  0
M  END
>  <MODEL>
1

>  <REMARK>
 VINA RESULT:      -6.9      0.000      0.000
  Name = 
  13 active torsions:
  status: ('A' for Active; 'I' for Inactive)
    1  A    between atoms: C_1  and  C_21
    2  A    between atoms: C_2  and  C_16
    3  A    between atoms: C_2  and  C_19
    4  A    between atoms: C_3  and  C_20
    5  A    between atoms: C_3  and  C_26
    6  A    between atoms: C_5  and  C_24
    7  A    between atoms: C_13  and  C_18
    8  A    between atoms: C_14  and  C_30
    9  A    between atoms: C_16  and  C_30
   10  A    between atoms: C_18  and  C_29
   11  A    between atoms: C_20  and  C_28
   12  A    between atoms: C_23  and  C_29
   13  A    between atoms: C_26  and  C_29
                            x       y       z     vdW  Elec       q    Type
                         _______ _______ _______ _____ _____    ______ ____

>  <TORSDO>
F 13

$$$$
=
 OpenBabel11072413083D

 35 37  0  0  1  0  0  0  0  0999 V2000
  161.9770  208.5460  149.5800 C   0  0  0  0  0  0  0  0  0  0  0  0
  161.5540  206.2880  149.5850 C   0  0  0  0  0  3  0  0  0  0  0  0
  161.8570  207.4060  150.5320 C   0  0  2  0  0  3  0  0  0  0  0  0
  162.2790  209.8480  149.9600 O   0  0  0  0  0  1  0  0  0  0  0  0
  161.4990  206.7580  148.3460 C   0  0  0  0  0  0  0  0  0  0  0  0
  161.7620  208.1890  148.3280 C   0  0  0  0  0  3  0  0  0  0  0  0
  161.1880  205.9630  147.1460 C   0  0  0  0  0  0  0  0  0  0  0  0
  161.2020  204.5890  146.9990 C   0  0  0  0  0  0  0  0  0  0  0  0
  160.6290  205.4570  145.1520 C   0  0  0  0  0  3  0  0  0  0  0  0
  160.8300  206.5140  145.9700 N   0  0  0  0  0  0  0  0  0  0  0  0
  160.8520  204.3160  145.7690 O   0  0  0  0  0  0  0  0  0  0  0  0
  161.5610  203.5460  148.0100 C   0  0  0  0  0  2  0  0  0  0  0  0
  160.6410  202.3320  147.9500 C   0  0  2  0  0  3  0  0  0  0  0  0
  159.9510  202.2350  149.1570 O   0  0  0  0  0  1  0  0  0  0  0  0
  161.4210  201.0470  147.7210 C   0  0  0  0  0  2  0  0  0  0  0  0
  161.4380  199.1440  146.1060 O   0  0  0  0  0  1  0  0  0  0  0  0
  160.3990  201.1160  145.5700 O   0  0  0  0  0  0  0  0  0  0  0  0
  161.0540  200.4440  146.4090 C   0  0  0  0  0  0  0  0  0  0  0  0
  160.6770  207.6540  151.4630 C   0  0  0  0  0  2  0  0  0  0  0  0
  161.1420  207.8910  152.8920 C   0  0  1  0  0  3  0  0  0  0  0  0
  160.5800  211.2420  154.4460 O   0  0  0  0  0  0  0  0  0  0  0  0
  158.6260  210.7630  155.7200 C   0  0  0  0  0  1  0  0  0  0  0  0
  161.0420  210.4410  153.3830 C   0  0  2  0  0  0  0  0  0  0  0  0
  162.5650  210.3640  153.4600 C   0  0  0  0  0  1  0  0  0  0  0  0
  160.6800  211.0340  152.1740 O   0  0  0  0  0  1  0  0  0  0  0  0
  160.0750  210.3880  155.4510 C   0  0  1  0  0  0  0  0  0  0  0  0
  160.3690  209.0780  153.4980 C   0  0  2  0  0  3  0  0  0  0  0  0
  160.1440  208.9510  154.9720 C   0  0  0  0  0  2  0  0  0  0  0  0
  160.9110  210.5700  156.7180 C   0  0  0  0  0  2  0  0  0  0  0  0
  162.0290  209.1640  157.0460 S   0  0  0  0  0  1  0  0  0  0  0  0
  160.8950  206.6100  153.6790 C   0  0  0  0  0  2  0  0  0  0  0  0
  161.7830  205.4910  153.1640 C   0  0  0  0  0  2  0  0  0  0  0  0
  160.9360  204.3400  152.6460 C   0  0  0  0  0  2  0  0  0  0  0  0
  161.7030  202.1930  151.9310 O   0  0  0  0  0  1  0  0  0  0  0  0
  161.6840  203.5450  151.5880 C   0  0  0  0  0  2  0  0  0  0  0  0
  1  4  1  0  0  0  0
  1  3  1  0  0  0  0
  2  3  1  0  0  0  0
  3 19  1  1  0  0  0
  5  2  2  0  0  0  0
  6  5  1  0  0  0  0
  6  1  2  0  0  0  0
  7  5  1  0  0  0  0
  8  7  2  0  0  0  0
  8 12  1  0  0  0  0
  9 11  1  0  0  0  0
  9 10  2  0  0  0  0
 10  7  1  0  0  0  0
 11  8  1  0  0  0  0
 13 12  1  0  0  0  0
 13 14  1  1  0  0  0
 15 13  1  0  0  0  0
 16 18  1  0  0  0  0
 17 18  2  0  0  0  0
 18 15  1  0  0  0  0
 20 19  1  6  0  0  0
 20 31  1  0  0  0  0
 21 26  1  0  0  0  0
 23 24  1  1  0  0  0
 23 27  1  0  0  0  0
 23 21  1  0  0  0  0
 25 23  1  0  0  0  0
 26 22  1  1  0  0  0
 26 29  1  0  0  0  0
 27 20  1  1  0  0  0
 27 28  1  0  0  0  0
 28 26  1  0  0  0  0
 29 30  1  0  0  0  0
 32 31  1  0  0  0  0
 33 32  1  0  0  0  0
 35 34  1  0  0  0  0
 35 33  1  0  0  0  0
M  END
>  <MODEL>
2

>  <REMARK>
 VINA RESULT:      -6.8      3.414      8.908
  Name = 
  13 active torsions:
  status: ('A' for Active; 'I' for Inactive)
    1  A    between atoms: C_1  and  C_21
    2  A    between atoms: C_2  and  C_16
    3  A    between atoms: C_2  and  C_19
    4  A    between atoms: C_3  and  C_20
    5  A    between atoms: C_3  and  C_26
    6  A    between atoms: C_5  and  C_24
    7  A    between atoms: C_13  and  C_18
    8  A    between atoms: C_14  and  C_30
    9  A    between atoms: C_16  and  C_30
   10  A    between atoms: C_18  and  C_29
   11  A    between atoms: C_20  and  C_28
   12  A    between atoms: C_23  and  C_29
   13  A    between atoms: C_26  and  C_29
                            x       y       z     vdW  Elec       q    Type
                         _______ _______ _______ _____ _____    ______ ____

>  <TORSDO>
F 13

$$$$
=
 OpenBabel11072413083D

 35 37  0  0  1  0  0  0  0  0999 V2000
  161.2270  205.5120  152.5270 C   0  0  0  0  0  0  0  0  0  0  0  0
  160.4970  205.6110  150.3500 C   0  0  0  0  0  3  0  0  0  0  0  0
  160.6610  206.4860  151.5530 C   0  0  2  0  0  3  0  0  0  0  0  0
  161.5510  205.8240  153.8410 O   0  0  0  0  0  1  0  0  0  0  0  0
  160.9240  204.3870  150.6320 C   0  0  0  0  0  0  0  0  0  0  0  0
  161.3930  204.3100  152.0070 C   0  0  0  0  0  3  0  0  0  0  0  0
  160.9540  203.2570  149.6880 C   0  0  0  0  0  0  0  0  0  0  0  0
  161.2540  203.2730  148.3390 C   0  0  0  0  0  0  0  0  0  0  0  0
  160.8220  201.2770  148.9090 C   0  0  0  0  0  3  0  0  0  0  0  0
  160.6740  201.9890  150.0470 N   0  0  0  0  0  0  0  0  0  0  0  0
  161.1670  202.0450  147.8970 O   0  0  0  0  0  0  0  0  0  0  0  0
  161.6020  204.4430  147.4740 C   0  0  0  0  0  2  0  0  0  0  0  0
  162.1590  204.0220  146.1190 C   0  0  2  0  0  3  0  0  0  0  0  0
  163.1850  204.8970  145.7660 O   0  0  0  0  0  1  0  0  0  0  0  0
  161.0890  204.0550  145.0380 C   0  0  0  0  0  2  0  0  0  0  0  0
  160.2680  206.4080  145.1870 O   0  0  0  0  0  1  0  0  0  0  0  0
  161.4680  205.7070  143.3630 O   0  0  0  0  0  0  0  0  0  0  0  0
  160.9580  205.4310  144.4800 C   0  0  0  0  0  0  0  0  0  0  0  0
  161.6890  207.5770  151.2820 C   0  0  0  0  0  2  0  0  0  0  0  0
  161.0650  208.9610  151.3860 C   0  0  1  0  0  3  0  0  0  0  0  0
  160.0920  210.8180  154.4790 O   0  0  0  0  0  0  0  0  0  0  0  0
  160.5270  209.1330  156.1040 C   0  0  0  0  0  1  0  0  0  0  0  0
  159.9480  210.5640  153.1010 C   0  0  2  0  0  0  0  0  0  0  0  0
  160.6430  211.6820  152.3260 C   0  0  0  0  0  1  0  0  0  0  0  0
  158.5920  210.5620  152.7750 O   0  0  0  0  0  1  0  0  0  0  0  0
  161.1080  209.9730  154.9780 C   0  0  1  0  0  0  0  0  0  0  0  0
  160.5370  209.1860  152.8160 C   0  0  2  0  0  3  0  0  0  0  0  0
  161.5940  209.0610  153.8670 C   0  0  0  0  0  2  0  0  0  0  0  0
  162.2550  210.8380  155.5020 C   0  0  0  0  0  2  0  0  0  0  0  0
  162.8490  210.3160  157.1480 S   0  0  0  0  0  1  0  0  0  0  0  0
  162.1380  209.9820  151.0260 C   0  0  0  0  0  2  0  0  0  0  0  0
  162.2960  210.0760  149.5190 C   0  0  0  0  0  2  0  0  0  0  0  0
  161.8530  211.4430  149.0250 C   0  0  0  0  0  2  0  0  0  0  0  0
  162.3380  212.7620  147.0920 O   0  0  0  0  0  1  0  0  0  0  0  0
  162.9260  212.0860  148.1620 C   0  0  0  0  0  2  0  0  0  0  0  0
  1  4  1  0  0  0  0
  2  5  2  0  0  0  0
  2  3  1  0  0  0  0
  3 19  1  6  0  0  0
  3  1  1  0  0  0  0
  5  6  1  0  0  0  0
  6  1  2  0  0  0  0
  7 10  1  0  0  0  0
  7  5  1  0  0  0  0
  8  7  2  0  0  0  0
  9 10  2  0  0  0  0
 11  8  1  0  0  0  0
 11  9  1  0  0  0  0
 12  8  1  0  0  0  0
 13 14  1  6  0  0  0
 13 12  1  0  0  0  0
 15 13  1  0  0  0  0
 17 18  2  0  0  0  0
 18 15  1  0  0  0  0
 18 16  1  0  0  0  0
 19 20  1  0  0  0  0
 20 31  1  1  0  0  0
 21 26  1  0  0  0  0
 23 24  1  6  0  0  0
 23 21  1  0  0  0  0
 25 23  1  0  0  0  0
 26 29  1  0  0  0  0
 26 22  1  1  0  0  0
 27 20  1  6  0  0  0
 27 23  1  0  0  0  0
 27 28  1  0  0  0  0
 28 26  1  0  0  0  0
 29 30  1  0  0  0  0
 32 31  1  0  0  0  0
 33 32  1  0  0  0  0
 34 35  1  0  0  0  0
 35 33  1  0  0  0  0
M  END
>  <MODEL>
3

>  <REMARK>
 VINA RESULT:      -6.7      3.456      8.959
  Name = 
  13 active torsions:
  status: ('A' for Active; 'I' for Inactive)
    1  A    between atoms: C_1  and  C_21
    2  A    between atoms: C_2  and  C_16
    3  A    between atoms: C_2  and  C_19
    4  A    between atoms: C_3  and  C_20
    5  A    between atoms: C_3  and  C_26
    6  A    between atoms: C_5  and  C_24
    7  A    between atoms: C_13  and  C_18
    8  A    between atoms: C_14  and  C_30
    9  A    between atoms: C_16  and  C_30
   10  A    between atoms: C_18  and  C_29
   11  A    between atoms: C_20  and  C_28
   12  A    between atoms: C_23  and  C_29
   13  A    between atoms: C_26  and  C_29
                            x       y       z     vdW  Elec       q    Type
                         _______ _______ _______ _____ _____    ______ ____

>  <TORSDO>
F 13

$$$$
=
 OpenBabel11072413083D

 35 37  0  0  1  0  0  0  0  0999 V2000
  162.0230  209.0470  151.9430 C   0  0  0  0  0  0  0  0  0  0  0  0
  160.8640  207.3290  152.9360 C   0  0  0  0  0  3  0  0  0  0  0  0
  161.2030  208.7700  153.1560 C   0  0  2  0  0  3  0  0  0  0  0  0
  162.6140  210.2730  151.6670 O   0  0  0  0  0  1  0  0  0  0  0  0
  161.3950  206.9180  151.7920 C   0  0  0  0  0  0  0  0  0  0  0  0
  162.1300  207.9970  151.1500 C   0  0  0  0  0  3  0  0  0  0  0  0
  161.2470  205.5680  151.2200 C   0  0  0  0  0  0  0  0  0  0  0  0
  160.9130  205.2160  149.9270 C   0  0  0  0  0  0  0  0  0  0  0  0
  161.2140  203.4440  151.0510 C   0  0  0  0  0  3  0  0  0  0  0  0
  161.4330  204.4420  151.9350 N   0  0  0  0  0  0  0  0  0  0  0  0
  160.9060  203.9100  149.8590 O   0  0  0  0  0  0  0  0  0  0  0  0
  160.5860  206.1080  148.7710 C   0  0  0  0  0  2  0  0  0  0  0  0
  161.7180  206.1840  147.7520 C   0  0  2  0  0  3  0  0  0  0  0  0
  162.3890  207.3930  147.9190 O   0  0  0  0  0  1  0  0  0  0  0  0
  161.1950  206.1000  146.3260 C   0  0  0  0  0  2  0  0  0  0  0  0
  160.8650  204.1270  144.8330 O   0  0  0  0  0  0  0  0  0  0  0  0
  162.8870  204.4900  145.8510 O   0  0  0  0  0  1  0  0  0  0  0  0
  161.7010  204.8660  145.6600 C   0  0  0  0  0  0  0  0  0  0  0  0
  159.9440  209.6270  153.1140 C   0  0  0  0  0  2  0  0  0  0  0  0
  159.7180  210.3390  154.4390 C   0  0  1  0  0  3  0  0  0  0  0  0
  157.7050  213.4330  155.0200 O   0  0  0  0  0  0  0  0  0  0  0  0
  155.5200  212.5550  154.6640 C   0  0  0  0  0  1  0  0  0  0  0  0
  158.8870  212.7970  154.5940 C   0  0  2  0  0  0  0  0  0  0  0  0
  159.9460  212.9590  155.6830 C   0  0  0  0  0  1  0  0  0  0  0  0
  159.3420  213.4120  153.4270 O   0  0  0  0  0  1  0  0  0  0  0  0
  156.8080  212.4370  155.4650 C   0  0  1  0  0  0  0  0  0  0  0  0
  158.5540  211.3390  154.2990 C   0  0  2  0  0  3  0  0  0  0  0  0
  157.4210  211.0690  155.2370 C   0  0  0  0  0  2  0  0  0  0  0  0
  156.5260  212.6570  156.9520 C   0  0  0  0  0  2  0  0  0  0  0  0
  155.3100  213.9840  157.2610 S   0  0  0  0  0  1  0  0  0  0  0  0
  159.4120  209.2790  155.4890 C   0  0  0  0  0  2  0  0  0  0  0  0
  160.2000  209.5470  156.7600 C   0  0  0  0  0  2  0  0  0  0  0  0
  161.5450  208.8430  156.7060 C   0  0  0  0  0  2  0  0  0  0  0  0
  162.7670  210.6760  155.7800 O   0  0  0  0  0  1  0  0  0  0  0  0
  162.6860  209.8310  156.8870 C   0  0  0  0  0  2  0  0  0  0  0  0
  1  3  1  0  0  0  0
  2  3  1  0  0  0  0
  3 19  1  6  0  0  0
  4  1  1  0  0  0  0
  5  2  2  0  0  0  0
  6  5  1  0  0  0  0
  6  1  2  0  0  0  0
  7  5  1  0  0  0  0
  7 10  1  0  0  0  0
  8  7  2  0  0  0  0
  9 10  2  0  0  0  0
 11  8  1  0  0  0  0
 11  9  1  0  0  0  0
 12  8  1  0  0  0  0
 13 14  1  6  0  0  0
 13 12  1  0  0  0  0
 15 13  1  0  0  0  0
 16 18  2  0  0  0  0
 18 17  1  0  0  0  0
 18 15  1  0  0  0  0
 20 19  1  6  0  0  0
 20 31  1  0  0  0  0
 21 26  1  0  0  0  0
 23 21  1  0  0  0  0
 23 24  1  1  0  0  0
 25 23  1  0  0  0  0
 26 22  1  6  0  0  0
 26 29  1  0  0  0  0
 27 20  1  1  0  0  0
 27 23  1  0  0  0  0
 27 28  1  0  0  0  0
 28 26  1  0  0  0  0
 29 30  1  0  0  0  0
 31 32  1  0  0  0  0
 33 32  1  0  0  0  0
 33 35  1  0  0  0  0
 34 35  1  0  0  0  0
M  END
>  <MODEL>
4

>  <REMARK>
 VINA RESULT:      -6.5      3.442      9.190
  Name = 
  13 active torsions:
  status: ('A' for Active; 'I' for Inactive)
    1  A    between atoms: C_1  and  C_21
    2  A    between atoms: C_2  and  C_16
    3  A    between atoms: C_2  and  C_19
    4  A    between atoms: C_3  and  C_20
    5  A    between atoms: C_3  and  C_26
    6  A    between atoms: C_5  and  C_24
    7  A    between atoms: C_13  and  C_18
    8  A    between atoms: C_14  and  C_30
    9  A    between atoms: C_16  and  C_30
   10  A    between atoms: C_18  and  C_29
   11  A    between atoms: C_20  and  C_28
   12  A    between atoms: C_23  and  C_29
   13  A    between atoms: C_26  and  C_29
                            x       y       z     vdW  Elec       q    Type
                         _______ _______ _______ _____ _____    ______ ____

>  <TORSDO>
F 13

$$$$
=
 OpenBabel11072413083D

 35 37  0  0  1  0  0  0  0  0999 V2000
  160.9440  204.9130  150.5660 C   0  0  0  0  0  0  0  0  0  0  0  0
  160.7380  206.7450  149.1940 C   0  0  0  0  0  3  0  0  0  0  0  0
  160.7770  206.3910  150.6470 C   0  0  2  0  0  3  0  0  0  0  0  0
  161.0170  204.0760  151.6720 O   0  0  0  0  0  1  0  0  0  0  0  0
  160.8840  205.6450  148.4660 C   0  0  0  0  0  0  0  0  0  0  0  0
  161.0180  204.4770  149.3220 C   0  0  0  0  0  3  0  0  0  0  0  0
  160.9340  205.5980  146.9940 C   0  0  0  0  0  0  0  0  0  0  0  0
  161.4410  204.6010  146.1840 C   0  0  0  0  0  0  0  0  0  0  0  0
  160.6860  206.1500  144.9510 C   0  0  0  0  0  3  0  0  0  0  0  0
  160.4590  206.5850  146.2100 N   0  0  0  0  0  0  0  0  0  0  0  0
  161.2700  204.9710  144.9420 O   0  0  0  0  0  0  0  0  0  0  0  0
  162.1000  203.3180  146.5840 C   0  0  0  0  0  2  0  0  0  0  0  0
  161.2020  202.1060  146.3640 C   0  0  2  0  0  3  0  0  0  0  0  0
  160.3950  202.3440  145.2530 O   0  0  0  0  0  1  0  0  0  0  0  0
  160.3150  201.8380  147.5700 C   0  0  0  0  0  2  0  0  0  0  0  0
  160.8860  201.1100  149.8880 O   0  0  0  0  0  1  0  0  0  0  0  0
  161.6750  199.9490  148.0770 O   0  0  0  0  0  0  0  0  0  0  0  0
  160.9950  200.9110  148.5180 C   0  0  0  0  0  0  0  0  0  0  0  0
  162.0050  206.9970  151.3130 C   0  0  0  0  0  2  0  0  0  0  0  0
  161.6270  207.7770  152.5630 C   0  0  1  0  0  3  0  0  0  0  0  0
  160.9560  211.4130  152.0240 O   0  0  0  0  0  0  0  0  0  0  0  0
  158.6020  211.4380  152.3870 C   0  0  0  0  0  1  0  0  0  0  0  0
  161.6980  210.2460  151.7560 C   0  0  2  0  0  0  0  0  0  0  0  0
  163.0220  210.3290  152.5110 C   0  0  0  0  0  1  0  0  0  0  0  0
  161.9610  210.1770  150.3880 O   0  0  0  0  0  1  0  0  0  0  0  0
  159.9610  211.0900  152.9740 C   0  0  1  0  0  0  0  0  0  0  0  0
  160.8500  209.0480  152.1670 C   0  0  2  0  0  3  0  0  0  0  0  0
  160.0160  209.6050  153.2770 C   0  0  0  0  0  2  0  0  0  0  0  0
  160.2110  211.9050  154.2440 C   0  0  0  0  0  2  0  0  0  0  0  0
  159.1790  211.3690  155.6530 S   0  0  0  0  0  1  0  0  0  0  0  0
  160.7800  206.8630  153.4400 C   0  0  0  0  0  2  0  0  0  0  0  0
  161.3940  206.7360  154.8230 C   0  0  0  0  0  2  0  0  0  0  0  0
  160.4570  207.3120  155.8730 C   0  0  0  0  0  2  0  0  0  0  0  0
  162.0460  209.0880  156.0450 O   0  0  0  0  0  1  0  0  0  0  0  0
  161.1920  208.2740  156.7910 C   0  0  0  0  0  2  0  0  0  0  0  0
  1  3  1  0  0  0  0
  1  4  1  0  0  0  0
  2  3  1  0  0  0  0
  3 19  1  1  0  0  0
  5  2  2  0  0  0  0
  5  6  1  0  0  0  0
  6  1  2  0  0  0  0
  7  5  1  0  0  0  0
  8 12  1  0  0  0  0
  8  7  2  0  0  0  0
  9 10  2  0  0  0  0
 10  7  1  0  0  0  0
 11  9  1  0  0  0  0
 11  8  1  0  0  0  0
 13 14  1  6  0  0  0
 13 12  1  0  0  0  0
 13 15  1  0  0  0  0
 15 18  1  0  0  0  0
 17 18  2  0  0  0  0
 18 16  1  0  0  0  0
 20 19  1  6  0  0  0
 20 31  1  0  0  0  0
 21 26  1  0  0  0  0
 23 21  1  0  0  0  0
 23 27  1  0  0  0  0
 23 24  1  1  0  0  0
 25 23  1  0  0  0  0
 26 22  1  6  0  0  0
 26 28  1  0  0  0  0
 26 29  1  0  0  0  0
 27 20  1  1  0  0  0
 27 28  1  0  0  0  0
 29 30  1  0  0  0  0
 31 32  1  0  0  0  0
 32 33  1  0  0  0  0
 33 35  1  0  0  0  0
 34 35  1  0  0  0  0
M  END
>  <MODEL>
5

>  <REMARK>
 VINA RESULT:      -6.5      3.269      9.057
  Name = 
  13 active torsions:
  status: ('A' for Active; 'I' for Inactive)
    1  A    between atoms: C_1  and  C_21
    2  A    between atoms: C_2  and  C_16
    3  A    between atoms: C_2  and  C_19
    4  A    between atoms: C_3  and  C_20
    5  A    between atoms: C_3  and  C_26
    6  A    between atoms: C_5  and  C_24
    7  A    between atoms: C_13  and  C_18
    8  A    between atoms: C_14  and  C_30
    9  A    between atoms: C_16  and  C_30
   10  A    between atoms: C_18  and  C_29
   11  A    between atoms: C_20  and  C_28
   12  A    between atoms: C_23  and  C_29
   13  A    between atoms: C_26  and  C_29
                            x       y       z     vdW  Elec       q    Type
                         _______ _______ _______ _____ _____    ______ ____

>  <TORSDO>
F 13

$$$$
=
 OpenBabel11072413083D

 35 37  0  0  1  0  0  0  0  0999 V2000
  161.2280  205.9830  152.0090 C   0  0  0  0  0  0  0  0  0  0  0  0
  160.8530  207.3560  150.2040 C   0  0  0  0  0  3  0  0  0  0  0  0
  160.7120  207.3450  151.6940 C   0  0  2  0  0  3  0  0  0  0  0  0
  161.2940  205.4530  153.2910 O   0  0  0  0  0  1  0  0  0  0  0  0
  161.3760  206.2060  149.8000 C   0  0  0  0  0  0  0  0  0  0  0  0
  161.6210  205.3270  150.9330 C   0  0  0  0  0  3  0  0  0  0  0  0
  161.6960  205.8600  148.4050 C   0  0  0  0  0  0  0  0  0  0  0  0
  161.4600  204.6730  147.7390 C   0  0  0  0  0  0  0  0  0  0  0  0
  162.3970  206.0210  146.3980 C   0  0  0  0  0  3  0  0  0  0  0  0
  162.2970  206.7140  147.5530 N   0  0  0  0  0  0  0  0  0  0  0  0
  161.8980  204.8090  146.5140 O   0  0  0  0  0  0  0  0  0  0  0  0
  160.8410  203.4150  148.2630 C   0  0  0  0  0  2  0  0  0  0  0  0
  161.4180  202.1640  147.6120 C   0  0  2  0  0  3  0  0  0  0  0  0
  160.6030  201.8010  146.5420 O   0  0  0  0  0  1  0  0  0  0  0  0
  161.4920  201.0030  148.5930 C   0  0  0  0  0  2  0  0  0  0  0  0
  161.2450  201.7450  150.9630 O   0  0  0  0  0  1  0  0  0  0  0  0
  159.4100  201.1010  149.7490 O   0  0  0  0  0  0  0  0  0  0  0  0
  160.6540  201.2850  149.7930 C   0  0  0  0  0  0  0  0  0  0  0  0
  161.6290  208.3850  152.3260 C   0  0  0  0  0  2  0  0  0  0  0  0
  160.8700  209.2650  153.3080 C   0  0  1  0  0  3  0  0  0  0  0  0
  161.4620  209.4140  156.9940 O   0  0  0  0  0  0  0  0  0  0  0  0
  163.4360  210.7470  157.0230 C   0  0  0  0  0  1  0  0  0  0  0  0
  160.9820  208.7440  155.8520 C   0  0  2  0  0  0  0  0  0  0  0  0
  159.4600  208.8660  155.8210 C   0  0  0  0  0  1  0  0  0  0  0  0
  161.3260  207.3950  155.9360 O   0  0  0  0  0  1  0  0  0  0  0  0
  161.9820  210.6620  156.5840 C   0  0  1  0  0  0  0  0  0  0  0  0
  161.6550  209.3620  154.6310 C   0  0  2  0  0  3  0  0  0  0  0  0
  161.9030  210.7690  155.0730 C   0  0  0  0  0  2  0  0  0  0  0  0
  161.1660  211.7750  157.2430 C   0  0  0  0  0  2  0  0  0  0  0  0
  160.0500  212.6300  156.0770 S   0  0  0  0  0  1  0  0  0  0  0  0
  160.6980  210.6350  152.6650 C   0  0  0  0  0  2  0  0  0  0  0  0
  159.2330  211.0340  152.6480 C   0  0  0  0  0  2  0  0  0  0  0  0
  159.0280  212.2560  151.7680 C   0  0  0  0  0  2  0  0  0  0  0  0
  157.5010  212.8440  153.5100 O   0  0  0  0  0  1  0  0  0  0  0  0
  158.3510  213.3770  152.5400 C   0  0  0  0  0  2  0  0  0  0  0  0
  1  4  1  0  0  0  0
  2  3  1  0  0  0  0
  3  1  1  0  0  0  0
  3 19  1  1  0  0  0
  5  2  2  0  0  0  0
  5  6  1  0  0  0  0
  6  1  2  0  0  0  0
  7  5  1  0  0  0  0
  8 12  1  0  0  0  0
  8  7  2  0  0  0  0
  9 11  1  0  0  0  0
  9 10  2  0  0  0  0
 10  7  1  0  0  0  0
 11  8  1  0  0  0  0
 13 14  1  6  0  0  0
 13 12  1  0  0  0  0
 13 15  1  0  0  0  0
 15 18  1  0  0  0  0
 17 18  2  0  0  0  0
 18 16  1  0  0  0  0
 20 19  1  6  0  0  0
 23 24  1  6  0  0  0
 23 25  1  0  0  0  0
 23 21  1  0  0  0  0
 26 21  1  0  0  0  0
 26 22  1  1  0  0  0
 26 29  1  0  0  0  0
 27 20  1  6  0  0  0
 27 28  1  0  0  0  0
 27 23  1  0  0  0  0
 28 26  1  0  0  0  0
 30 29  1  0  0  0  0
 31 20  1  0  0  0  0
 32 31  1  0  0  0  0
 33 35  1  0  0  0  0
 33 32  1  0  0  0  0
 35 34  1  0  0  0  0
M  END
>  <MODEL>
6

>  <REMARK>
 VINA RESULT:      -6.5      3.303      9.625
  Name = 
  13 active torsions:
  status: ('A' for Active; 'I' for Inactive)
    1  A    between atoms: C_1  and  C_21
    2  A    between atoms: C_2  and  C_16
    3  A    between atoms: C_2  and  C_19
    4  A    between atoms: C_3  and  C_20
    5  A    between atoms: C_3  and  C_26
    6  A    between atoms: C_5  and  C_24
    7  A    between atoms: C_13  and  C_18
    8  A    between atoms: C_14  and  C_30
    9  A    between atoms: C_16  and  C_30
   10  A    between atoms: C_18  and  C_29
   11  A    between atoms: C_20  and  C_28
   12  A    between atoms: C_23  and  C_29
   13  A    between atoms: C_26  and  C_29
                            x       y       z     vdW  Elec       q    Type
                         _______ _______ _______ _____ _____    ______ ____

>  <TORSDO>
F 13

$$$$
=
 OpenBabel11072413083D

 35 37  0  0  1  0  0  0  0  0999 V2000
  161.2740  206.8490  152.7430 C   0  0  0  0  0  0  0  0  0  0  0  0
  161.4390  208.6120  151.2780 C   0  0  0  0  0  3  0  0  0  0  0  0
  161.7120  207.1430  151.3500 C   0  0  2  0  0  3  0  0  0  0  0  0
  161.3400  205.5930  153.3310 O   0  0  0  0  0  1  0  0  0  0  0  0
  160.9210  209.0230  152.4280 C   0  0  0  0  0  0  0  0  0  0  0  0
  160.8080  207.9160  153.3650 C   0  0  0  0  0  3  0  0  0  0  0  0
  160.4890  210.4000  152.7250 C   0  0  0  0  0  0  0  0  0  0  0  0
  160.4370  211.0380  153.9490 C   0  0  0  0  0  0  0  0  0  0  0  0
  159.7800  212.3920  152.4560 C   0  0  0  0  0  3  0  0  0  0  0  0
  160.0660  211.2590  151.7770 N   0  0  0  0  0  0  0  0  0  0  0  0
  160.0020  212.2550  153.7450 O   0  0  0  0  0  0  0  0  0  0  0  0
  160.7780  210.4950  155.3010 C   0  0  0  0  0  2  0  0  0  0  0  0
  159.5470  210.0410  156.0760 C   0  0  2  0  0  3  0  0  0  0  0  0
  158.8880  211.1660  156.5660 O   0  0  0  0  0  1  0  0  0  0  0  0
  159.9200  209.1380  157.2430 C   0  0  0  0  0  2  0  0  0  0  0  0
  161.9800  207.8350  156.7090 O   0  0  0  0  0  1  0  0  0  0  0  0
  159.9050  206.9240  156.3620 O   0  0  0  0  0  0  0  0  0  0  0  0
  160.5930  207.9040  156.7490 C   0  0  0  0  0  0  0  0  0  0  0  0
  160.8210  206.3850  150.3740 C   0  0  0  0  0  2  0  0  0  0  0  0
  161.5470  205.1880  149.7790 C   0  0  1  0  0  3  0  0  0  0  0  0
  160.4140  201.7220  150.5910 O   0  0  0  0  0  0  0  0  0  0  0  0
  159.0440  201.2990  148.6890 C   0  0  0  0  0  1  0  0  0  0  0  0
  160.8250  203.0070  150.9940 C   0  0  2  0  0  0  0  0  0  0  0  0
  162.2770  202.9290  151.4590 C   0  0  0  0  0  1  0  0  0  0  0  0
  160.0300  203.4270  152.0600 O   0  0  0  0  0  1  0  0  0  0  0  0
  160.4330  201.6780  149.1790 C   0  0  1  0  0  0  0  0  0  0  0  0
  160.6270  203.9520  149.8140 C   0  0  2  0  0  3  0  0  0  0  0  0
  160.8040  203.0460  148.6380 C   0  0  0  0  0  2  0  0  0  0  0  0
  161.4540  200.6310  148.7320 C   0  0  0  0  0  2  0  0  0  0  0  0
  161.2210  200.0970  147.0010 S   0  0  0  0  0  1  0  0  0  0  0  0
  161.9370  205.5470  148.3500 C   0  0  0  0  0  2  0  0  0  0  0  0
  160.9760  206.5750  147.7800 C   0  0  0  0  0  2  0  0  0  0  0  0
  160.5410  206.1740  146.3800 C   0  0  0  0  0  2  0  0  0  0  0  0
  161.3300  205.1580  144.3660 O   0  0  0  0  0  1  0  0  0  0  0  0
  161.5540  205.2390  145.7410 C   0  0  0  0  0  2  0  0  0  0  0  0
  1  4  1  0  0  0  0
  1  6  2  0  0  0  0
  2  3  1  0  0  0  0
  2  5  2  0  0  0  0
  3 19  1  6  0  0  0
  3  1  1  0  0  0  0
  5  7  1  0  0  0  0
  5  6  1  0  0  0  0
  7  8  2  0  0  0  0
  8 12  1  0  0  0  0
  9 11  1  0  0  0  0
 10  9  2  0  0  0  0
 10  7  1  0  0  0  0
 11  8  1  0  0  0  0
 12 13  1  0  0  0  0
 13 14  1  1  0  0  0
 13 15  1  0  0  0  0
 16 18  1  0  0  0  0
 17 18  2  0  0  0  0
 18 15  1  0  0  0  0
 20 31  1  6  0  0  0
 20 19  1  0  0  0  0
 21 23  1  0  0  0  0
 23 24  1  1  0  0  0
 23 25  1  0  0  0  0
 26 22  1  6  0  0  0
 26 21  1  0  0  0  0
 27 20  1  6  0  0  0
 27 23  1  0  0  0  0
 28 26  1  0  0  0  0
 28 27  1  0  0  0  0
 29 26  1  0  0  0  0
 30 29  1  0  0  0  0
 32 31  1  0  0  0  0
 33 32  1  0  0  0  0
 34 35  1  0  0  0  0
 35 33  1  0  0  0  0
M  END
>  <MODEL>
7

>  <REMARK>
 VINA RESULT:      -6.0      2.235      4.627
  Name = 
  13 active torsions:
  status: ('A' for Active; 'I' for Inactive)
    1  A    between atoms: C_1  and  C_21
    2  A    between atoms: C_2  and  C_16
    3  A    between atoms: C_2  and  C_19
    4  A    between atoms: C_3  and  C_20
    5  A    between atoms: C_3  and  C_26
    6  A    between atoms: C_5  and  C_24
    7  A    between atoms: C_13  and  C_18
    8  A    between atoms: C_14  and  C_30
    9  A    between atoms: C_16  and  C_30
   10  A    between atoms: C_18  and  C_29
   11  A    between atoms: C_20  and  C_28
   12  A    between atoms: C_23  and  C_29
   13  A    between atoms: C_26  and  C_29
                            x       y       z     vdW  Elec       q    Type
                         _______ _______ _______ _____ _____    ______ ____

>  <TORSDO>
F 13

$$$$
=
 OpenBabel11072413083D

 35 37  0  0  1  0  0  0  0  0999 V2000
  162.1220  209.3080  150.9610 C   0  0  0  0  0  0  0  0  0  0  0  0
  160.9200  207.8170  152.2310 C   0  0  0  0  0  3  0  0  0  0  0  0
  161.2980  209.2640  152.2010 C   0  0  2  0  0  3  0  0  0  0  0  0
  162.7450  210.4530  150.4800 O   0  0  0  0  0  1  0  0  0  0  0  0
  161.4360  207.2020  151.1740 C   0  0  0  0  0  0  0  0  0  0  0  0
  162.1980  208.1360  150.3590 C   0  0  0  0  0  3  0  0  0  0  0  0
  161.2500  205.7800  150.8410 C   0  0  0  0  0  0  0  0  0  0  0  0
  160.8280  205.2250  149.6480 C   0  0  0  0  0  0  0  0  0  0  0  0
  161.2070  203.6560  151.0230 C   0  0  0  0  0  3  0  0  0  0  0  0
  161.4850  204.7820  151.7160 N   0  0  0  0  0  0  0  0  0  0  0  0
  160.8170  203.9260  149.7950 O   0  0  0  0  0  0  0  0  0  0  0  0
  160.4210  205.9210  148.3870 C   0  0  0  0  0  2  0  0  0  0  0  0
  161.4460  205.7550  147.2710 C   0  0  2  0  0  3  0  0  0  0  0  0
  162.4390  206.7190  147.4300 O   0  0  0  0  0  1  0  0  0  0  0  0
  160.8120  205.9190  145.8980 C   0  0  0  0  0  2  0  0  0  0  0  0
  162.5000  204.1900  145.2700 O   0  0  0  0  0  1  0  0  0  0  0  0
  161.4170  205.4010  143.6530 O   0  0  0  0  0  0  0  0  0  0  0  0
  161.5860  205.1600  144.8760 C   0  0  0  0  0  0  0  0  0  0  0  0
  160.0630  210.1360  152.0120 C   0  0  0  0  0  2  0  0  0  0  0  0
  159.3980  210.4470  153.3440 C   0  0  1  0  0  3  0  0  0  0  0  0
  160.6450  210.0790  156.8470 O   0  0  0  0  0  0  0  0  0  0  0  0
  162.8840  210.8380  156.5510 C   0  0  0  0  0  1  0  0  0  0  0  0
  159.8070  209.6720  155.7910 C   0  0  2  0  0  0  0  0  0  0  0  0
  158.3970  210.1930  156.0630 C   0  0  0  0  0  1  0  0  0  0  0  0
  159.7740  208.2790  155.7450 O   0  0  0  0  0  1  0  0  0  0  0  0
  161.4100  211.1800  156.4010 C   0  0  1  0  0  0  0  0  0  0  0  0
  160.3990  210.2070  154.4920 C   0  0  2  0  0  3  0  0  0  0  0  0
  161.1000  211.4490  154.9400 C   0  0  0  0  0  2  0  0  0  0  0  0
  161.0620  212.4000  157.2550 C   0  0  0  0  0  2  0  0  0  0  0  0
  159.8970  213.5410  156.4330 S   0  0  0  0  0  1  0  0  0  0  0  0
  158.9410  211.9000  153.3060 C   0  0  0  0  0  2  0  0  0  0  0  0
  159.3820  212.5610  152.0110 C   0  0  0  0  0  2  0  0  0  0  0  0
  158.2980  213.4930  151.4970 C   0  0  0  0  0  2  0  0  0  0  0  0
  156.9990  213.9890  149.5530 O   0  0  0  0  0  1  0  0  0  0  0  0
  158.2120  213.4470  149.9810 C   0  0  0  0  0  2  0  0  0  0  0  0
  1  3  1  0  0  0  0
  3 19  1  6  0  0  0
  3  2  1  0  0  0  0
  4  1  1  0  0  0  0
  5  2  2  0  0  0  0
  6  1  2  0  0  0  0
  6  5  1  0  0  0  0
  7  5  1  0  0  0  0
  7 10  1  0  0  0  0
  8 11  1  0  0  0  0
  8  7  2  0  0  0  0
  9 10  2  0  0  0  0
 11  9  1  0  0  0  0
 12  8  1  0  0  0  0
 13 14  1  1  0  0  0
 13 12  1  0  0  0  0
 15 13  1  0  0  0  0
 17 18  2  0  0  0  0
 18 16  1  0  0  0  0
 18 15  1  0  0  0  0
 20 19  1  6  0  0  0
 23 24  1  1  0  0  0
 23 21  1  0  0  0  0
 25 23  1  0  0  0  0
 26 22  1  1  0  0  0
 26 21  1  0  0  0  0
 26 29  1  0  0  0  0
 27 20  1  6  0  0  0
 27 28  1  0  0  0  0
 27 23  1  0  0  0  0
 28 26  1  0  0  0  0
 30 29  1  0  0  0  0
 31 20  1  0  0  0  0
 32 31  1  0  0  0  0
 33 32  1  0  0  0  0
 34 35  1  0  0  0  0
 35 33  1  0  0  0  0
M  END
>  <MODEL>
8

>  <REMARK>
 VINA RESULT:      -5.9      3.129      9.159
  Name = 
  13 active torsions:
  status: ('A' for Active; 'I' for Inactive)
    1  A    between atoms: C_1  and  C_21
    2  A    between atoms: C_2  and  C_16
    3  A    between atoms: C_2  and  C_19
    4  A    between atoms: C_3  and  C_20
    5  A    between atoms: C_3  and  C_26
    6  A    between atoms: C_5  and  C_24
    7  A    between atoms: C_13  and  C_18
    8  A    between atoms: C_14  and  C_30
    9  A    between atoms: C_16  and  C_30
   10  A    between atoms: C_18  and  C_29
   11  A    between atoms: C_20  and  C_28
   12  A    between atoms: C_23  and  C_29
   13  A    between atoms: C_26  and  C_29
                            x       y       z     vdW  Elec       q    Type
                         _______ _______ _______ _____ _____    ______ ____

>  <TORSDO>
F 13

$$$$
=
 OpenBabel11072413083D

 35 37  0  0  1  0  0  0  0  0999 V2000
  161.2800  207.1990  152.9420 C   0  0  0  0  0  0  0  0  0  0  0  0
  161.3320  208.7810  151.2760 C   0  0  0  0  0  3  0  0  0  0  0  0
  161.6490  207.3370  151.5050 C   0  0  2  0  0  3  0  0  0  0  0  0
  161.4070  206.0230  153.6690 O   0  0  0  0  0  1  0  0  0  0  0  0
  160.8540  209.3130  152.3930 C   0  0  0  0  0  0  0  0  0  0  0  0
  160.8130  208.3210  153.4570 C   0  0  0  0  0  3  0  0  0  0  0  0
  160.3970  210.7050  152.5470 C   0  0  0  0  0  0  0  0  0  0  0  0
  159.8170  211.3010  153.6500 C   0  0  0  0  0  0  0  0  0  0  0  0
  159.9830  212.7500  152.1110 C   0  0  0  0  0  3  0  0  0  0  0  0
  160.4970  211.6250  151.5680 N   0  0  0  0  0  0  0  0  0  0  0  0
  159.5800  212.5510  153.3480 O   0  0  0  0  0  0  0  0  0  0  0  0
  159.4730  210.6870  154.9700 C   0  0  0  0  0  2  0  0  0  0  0  0
  159.0170  211.7190  155.9940 C   0  0  2  0  0  3  0  0  0  0  0  0
  159.8460  211.6360  157.1120 O   0  0  0  0  0  1  0  0  0  0  0  0
  157.5780  211.4840  156.4270 C   0  0  0  0  0  2  0  0  0  0  0  0
  156.6600  213.1320  154.7930 O   0  0  0  0  0  0  0  0  0  0  0  0
  155.8240  211.0000  154.8890 O   0  0  0  0  0  1  0  0  0  0  0  0
  156.6400  211.8510  155.3290 C   0  0  0  0  0  0  0  0  0  0  0  0
  160.7370  206.4490  150.6680 C   0  0  0  0  0  2  0  0  0  0  0  0
  161.5090  205.2940  150.0490 C   0  0  1  0  0  3  0  0  0  0  0  0
  160.5900  201.7570  150.8280 O   0  0  0  0  0  0  0  0  0  0  0  0
  159.1470  201.3090  148.9860 C   0  0  0  0  0  1  0  0  0  0  0  0
  160.9570  203.0520  151.2420 C   0  0  2  0  0  0  0  0  0  0  0  0
  162.4330  203.0360  151.6330 C   0  0  0  0  0  1  0  0  0  0  0  0
  160.1980  203.4070  152.3570 O   0  0  0  0  0  1  0  0  0  0  0  0
  160.5390  201.7470  149.4160 C   0  0  1  0  0  0  0  0  0  0  0  0
  160.6540  204.0130  150.0980 C   0  0  2  0  0  3  0  0  0  0  0  0
  160.8150  203.1430  148.8920 C   0  0  0  0  0  2  0  0  0  0  0  0
  161.5860  200.7620  148.8930 C   0  0  0  0  0  2  0  0  0  0  0  0
  161.2810  200.2420  147.1690 S   0  0  0  0  0  1  0  0  0  0  0  0
  161.8460  205.6780  148.6130 C   0  0  0  0  0  2  0  0  0  0  0  0
  160.6110  206.1940  147.8980 C   0  0  0  0  0  2  0  0  0  0  0  0
  160.8830  206.3390  146.4090 C   0  0  0  0  0  2  0  0  0  0  0  0
  161.1760  204.1520  145.4920 O   0  0  0  0  0  1  0  0  0  0  0  0
  161.8660  205.2830  145.9300 C   0  0  0  0  0  2  0  0  0  0  0  0
  1  6  2  0  0  0  0
  1  4  1  0  0  0  0
  2  3  1  0  0  0  0
  2  5  2  0  0  0  0
  3 19  1  6  0  0  0
  3  1  1  0  0  0  0
  5  7  1  0  0  0  0
  5  6  1  0  0  0  0
  7  8  2  0  0  0  0
  8 12  1  0  0  0  0
  9 11  1  0  0  0  0
 10  9  2  0  0  0  0
 10  7  1  0  0  0  0
 11  8  1  0  0  0  0
 12 13  1  0  0  0  0
 13 15  1  0  0  0  0
 13 14  1  1  0  0  0
 16 18  2  0  0  0  0
 17 18  1  0  0  0  0
 18 15  1  0  0  0  0
 20 31  1  6  0  0  0
 20 19  1  0  0  0  0
 21 23  1  0  0  0  0
 23 24  1  1  0  0  0
 23 25  1  0  0  0  0
 26 22  1  6  0  0  0
 26 21  1  0  0  0  0
 27 20  1  6  0  0  0
 27 23  1  0  0  0  0
 28 26  1  0  0  0  0
 28 27  1  0  0  0  0
 29 26  1  0  0  0  0
 30 29  1  0  0  0  0
 32 31  1  0  0  0  0
 33 32  1  0  0  0  0
 34 35  1  0  0  0  0
 35 33  1  0  0  0  0
M  END
>  <MODEL>
9

>  <REMARK>
 VINA RESULT:      -5.9      2.299      4.261
  Name = 
  13 active torsions:
  status: ('A' for Active; 'I' for Inactive)
    1  A    between atoms: C_1  and  C_21
    2  A    between atoms: C_2  and  C_16
    3  A    between atoms: C_2  and  C_19
    4  A    between atoms: C_3  and  C_20
    5  A    between atoms: C_3  and  C_26
    6  A    between atoms: C_5  and  C_24
    7  A    between atoms: C_13  and  C_18
    8  A    between atoms: C_14  and  C_30
    9  A    between atoms: C_16  and  C_30
   10  A    between atoms: C_18  and  C_29
   11  A    between atoms: C_20  and  C_28
   12  A    between atoms: C_23  and  C_29
   13  A    between atoms: C_26  and  C_29
                            x       y       z     vdW  Elec       q    Type
                         _______ _______ _______ _____ _____    ______ ____

>  <TORSDO>
F 13

$$$$
