=
 OpenBabel11072414153D

 34 37  0  0  1  0  0  0  0  0999 V2000
  161.4440  209.4410  150.8620 C   0  0  0  0  0  0  0  0  0  0  0  0
  161.5390  207.4850  149.4390 C   0  0  0  0  0  3  0  0  0  0  0  0
  161.0070  209.6920  152.1610 C   0  0  0  0  0  0  0  0  0  0  0  0
  162.2650  209.6640  148.6140 C   0  0  0  0  0  3  0  0  0  0  0  0
  162.0580  210.2330  149.8790 C   0  0  0  0  0  0  0  0  0  0  0  0
  161.3370  208.0840  150.6840 C   0  0  0  0  0  0  0  0  0  0  0  0
  162.6350  211.4520  150.1980 O   0  0  0  0  0  1  0  0  0  0  0  0
  160.8460  208.5350  152.7820 O   0  0  0  0  0  0  0  0  0  0  0  0
  161.0060  207.5480  151.9060 C   0  0  0  0  0  0  0  0  0  0  0  0
  161.9470  208.3130  148.3860 C   0  0  0  0  0  3  0  0  0  0  0  0
  157.8060  213.3370  152.9200 O   0  0  0  0  0  0  0  0  0  0  0  0
  161.7620  211.0780  154.8830 O   0  0  0  0  0  0  0  0  0  0  0  0
  159.0900  211.3270  152.4380 C   0  0  0  0  0  2  0  0  0  0  0  0
  158.5260  211.1240  155.5980 C   0  0  0  0  0  3  0  0  0  0  0  0
  160.5850  210.9970  152.8230 C   0  0  1  0  0  3  0  0  0  0  0  0
  159.5760  210.1650  155.1450 C   0  0  1  0  0  3  0  0  0  0  0  0
  157.9540  212.0100  154.7940 C   0  0  0  0  0  3  0  0  0  0  0  0
  158.2800  212.2670  153.3750 C   0  0  0  0  0  0  0  0  0  0  0  0
  160.7030  210.8050  154.3460 C   0  0  0  0  0  0  0  0  0  0  0  0
  160.4830  208.7710  157.2560 C   0  0  0  0  0  3  0  0  0  0  0  0
  160.0440  209.3760  156.3210 C   0  0  0  0  0  0  0  0  0  0  0  0
  160.9270  206.0820  152.2830 C   0  0  1  0  0  3  0  0  0  0  0  0
  161.3830  201.2770  151.0900 F   0  0  0  0  0  0  0  0  0  0  0  0
  161.2730  203.6310  151.7510 C   0  0  0  0  0  2  0  0  0  0  0  0
  160.7910  202.8190  149.3400 C   0  0  2  0  0  3  0  0  0  0  0  0
  161.2940  205.0670  151.1860 C   0  0  1  0  0  3  0  0  0  0  0  0
  160.3290  205.1730  149.9730 C   0  0  0  0  0  2  0  0  0  0  0  0
  160.7930  204.2750  148.8440 C   0  0  0  0  0  2  0  0  0  0  0  0
  161.5980  202.5860  150.6470 C   0  0  2  0  0  3  0  0  0  0  0  0
  161.1630  201.8770  148.2760 N   0  0  0  0  0  0  0  0  0  0  0  0
  161.1060  202.3060  146.9670 O   0  0  0  0  0  0  0  0  0  0  0  0
  161.1120  200.6390  148.4710 O   0  0  0  0  0  0  0  0  0  0  0  0
  160.5900  206.2220  154.7230 C   0  0  0  0  0  1  0  0  0  0  0  0
  161.5760  205.8100  153.6360 C   0  0  0  0  0  2  0  0  0  0  0  0
  1  3  2  0  0  0  0
  2  6  1  0  0  0  0
  3  8  1  0  0  0  0
  4  5  2  0  0  0  0
  5  7  1  0  0  0  0
  5  1  1  0  0  0  0
  6  1  1  0  0  0  0
  6  9  2  0  0  0  0
  9 22  1  0  0  0  0
  9  8  1  0  0  0  0
 10  4  1  0  0  0  0
 10  2  2  0  0  0  0
 11 18  2  0  0  0  0
 13 15  1  0  0  0  0
 13 18  1  0  0  0  0
 15  3  1  6  0  0  0
 15 19  1  0  0  0  0
 16 14  1  0  0  0  0
 16 21  1  1  0  0  0
 17 14  2  0  0  0  0
 18 17  1  0  0  0  0
 19 12  2  0  0  0  0
 19 16  1  0  0  0  0
 21 20  3  0  0  0  0
 22 34  1  1  0  0  0
 25 30  1  6  0  0  0
 25 29  1  0  0  0  0
 26 24  1  0  0  0  0
 26 22  1  1  0  0  0
 27 26  1  0  0  0  0
 28 25  1  0  0  0  0
 28 27  1  0  0  0  0
 29 23  1  1  0  0  0
 29 24  1  0  0  0  0
 30 32  2  0  0  0  0
 31 30  2  0  0  0  0
 34 33  1  0  0  0  0
M  END
>  <MODEL>
1

>  <REMARK>
 VINA RESULT:      -8.2      0.000      0.000
  Name = 
  6 active torsions:
  status: ('A' for Active; 'I' for Inactive)
    1  A    between atoms: N_6  and  C_9
    2  A    between atoms: C_11  and  C_19
    3  A    between atoms: C_12  and  C_32
    4  A    between atoms: C_20  and  C_28
    5  A    between atoms: C_22  and  C_32
    6  A    between atoms: C_31  and  C_32
                            x       y       z     vdW  Elec       q    Type
                         _______ _______ _______ _____ _____    ______ ____

>  <TORSDO>
F 6

$$$$
=
 OpenBabel11072414153D

 34 37  0  0  1  0  0  0  0  0999 V2000
  159.5590  212.3040  153.9100 C   0  0  0  0  0  0  0  0  0  0  0  0
  157.7120  213.7940  153.4330 C   0  0  0  0  0  3  0  0  0  0  0  0
  160.4130  211.5180  153.1390 C   0  0  0  0  0  0  0  0  0  0  0  0
  158.3930  213.3470  155.7340 C   0  0  0  0  0  3  0  0  0  0  0  0
  159.4740  212.5770  155.2850 C   0  0  0  0  0  0  0  0  0  0  0  0
  158.7940  213.0140  153.0190 C   0  0  0  0  0  0  0  0  0  0  0  0
  160.5250  212.2850  156.1390 O   0  0  0  0  0  1  0  0  0  0  0  0
  160.3030  211.8920  151.8750 O   0  0  0  0  0  0  0  0  0  0  0  0
  159.3110  212.7690  151.7680 C   0  0  0  0  0  0  0  0  0  0  0  0
  157.4850  213.8980  154.8110 C   0  0  0  0  0  3  0  0  0  0  0  0
  160.9130  207.0240  155.0540 O   0  0  0  0  0  0  0  0  0  0  0  0
  163.0880  210.2920  152.0220 O   0  0  0  0  0  0  0  0  0  0  0  0
  160.3010  209.1560  154.0530 C   0  0  0  0  0  2  0  0  0  0  0  0
  161.4370  207.4530  151.5720 C   0  0  0  0  0  3  0  0  0  0  0  0
  161.2470  210.3030  153.5220 C   0  0  1  0  0  3  0  0  0  0  0  0
  161.3070  208.9060  151.2540 C   0  0  1  0  0  3  0  0  0  0  0  0
  161.1850  206.9460  152.7710 C   0  0  0  0  0  3  0  0  0  0  0  0
  160.8170  207.6910  153.9950 C   0  0  0  0  0  0  0  0  0  0  0  0
  161.9860  209.8280  152.2570 C   0  0  0  0  0  0  0  0  0  0  0  0
  162.0260  209.2830  148.6910 C   0  0  0  0  0  3  0  0  0  0  0  0
  161.7400  209.1280  149.8430 C   0  0  0  0  0  0  0  0  0  0  0  0
  158.9290  213.4370  150.4620 C   0  0  1  0  0  3  0  0  0  0  0  0
  159.4770  213.1980  145.5260 F   0  0  0  0  0  0  0  0  0  0  0  0
  159.1550  213.1900  147.9530 C   0  0  0  0  0  2  0  0  0  0  0  0
  161.2920  214.1100  146.8160 C   0  0  2  0  0  3  0  0  0  0  0  0
  159.9160  213.2780  149.2920 C   0  0  1  0  0  3  0  0  0  0  0  0
  160.9320  214.4530  149.2460 C   0  0  0  0  0  2  0  0  0  0  0  0
  161.9860  214.2050  148.1860 C   0  0  0  0  0  2  0  0  0  0  0  0
  160.1370  213.0730  146.7530 C   0  0  2  0  0  3  0  0  0  0  0  0
  162.2580  213.9400  145.7230 N   0  0  0  0  0  0  0  0  0  0  0  0
  161.9410  214.4470  144.4800 O   0  0  0  0  0  0  0  0  0  0  0  0
  163.1130  213.0240  145.7600 O   0  0  0  0  0  0  0  0  0  0  0  0
  156.6790  214.4450  150.3860 C   0  0  0  0  0  1  0  0  0  0  0  0
  157.4720  213.1760  150.0980 C   0  0  0  0  0  2  0  0  0  0  0  0
  1  5  1  0  0  0  0
  2 10  2  0  0  0  0
  3  1  2  0  0  0  0
  5  4  2  0  0  0  0
  5  7  1  0  0  0  0
  6  2  1  0  0  0  0
  6  1  1  0  0  0  0
  8  3  1  0  0  0  0
  9  8  1  0  0  0  0
  9  6  2  0  0  0  0
 10  4  1  0  0  0  0
 12 19  2  0  0  0  0
 14 17  2  0  0  0  0
 15  3  1  6  0  0  0
 15 13  1  0  0  0  0
 16 21  1  6  0  0  0
 16 14  1  0  0  0  0
 16 19  1  0  0  0  0
 17 18  1  0  0  0  0
 18 13  1  0  0  0  0
 18 11  2  0  0  0  0
 19 15  1  0  0  0  0
 20 21  3  0  0  0  0
 22 34  1  6  0  0  0
 22  9  1  0  0  0  0
 24 26  1  0  0  0  0
 25 30  1  6  0  0  0
 25 28  1  0  0  0  0
 26 22  1  1  0  0  0
 27 26  1  0  0  0  0
 28 27  1  0  0  0  0
 29 23  1  6  0  0  0
 29 25  1  0  0  0  0
 29 24  1  0  0  0  0
 30 32  2  0  0  0  0
 31 30  2  0  0  0  0
 34 33  1  0  0  0  0
M  END
>  <MODEL>
2

>  <REMARK>
 VINA RESULT:      -7.8      4.429      8.197
  Name = 
  6 active torsions:
  status: ('A' for Active; 'I' for Inactive)
    1  A    between atoms: N_6  and  C_9
    2  A    between atoms: C_11  and  C_19
    3  A    between atoms: C_12  and  C_32
    4  A    between atoms: C_20  and  C_28
    5  A    between atoms: C_22  and  C_32
    6  A    between atoms: C_31  and  C_32
                            x       y       z     vdW  Elec       q    Type
                         _______ _______ _______ _____ _____    ______ ____

>  <TORSDO>
F 6

$$$$
=
 OpenBabel11072414153D

 34 37  0  0  1  0  0  0  0  0999 V2000
  160.7780  209.8270  154.6700 C   0  0  0  0  0  0  0  0  0  0  0  0
  161.4890  207.6420  155.4300 C   0  0  0  0  0  3  0  0  0  0  0  0
  160.5500  210.4090  153.4240 C   0  0  0  0  0  0  0  0  0  0  0  0
  161.0660  209.4410  157.0240 C   0  0  0  0  0  3  0  0  0  0  0  0
  160.6270  210.2800  155.9900 C   0  0  0  0  0  0  0  0  0  0  0  0
  161.0530  208.5050  154.4230 C   0  0  0  0  0  0  0  0  0  0  0  0
  159.8820  211.4120  156.2790 O   0  0  0  0  0  1  0  0  0  0  0  0
  160.4920  209.4500  152.5160 O   0  0  0  0  0  0  0  0  0  0  0  0
  160.8240  208.2950  153.0830 C   0  0  0  0  0  0  0  0  0  0  0  0
  161.5510  208.1530  156.7320 C   0  0  0  0  0  3  0  0  0  0  0  0
  160.5080  213.9670  150.0410 O   0  0  0  0  0  0  0  0  0  0  0  0
  159.4540  213.0210  154.7940 O   0  0  0  0  0  0  0  0  0  0  0  0
  160.3870  211.9820  151.4430 C   0  0  0  0  0  2  0  0  0  0  0  0
  157.6330  213.5200  152.0710 C   0  0  0  0  0  3  0  0  0  0  0  0
  160.5250  211.8750  153.0120 C   0  0  1  0  0  3  0  0  0  0  0  0
  157.9220  212.4430  153.0630 C   0  0  1  0  0  3  0  0  0  0  0  0
  158.4640  213.8490  151.0920 C   0  0  0  0  0  3  0  0  0  0  0  0
  159.8130  213.2970  150.8430 C   0  0  0  0  0  0  0  0  0  0  0  0
  159.3070  212.5280  153.6910 C   0  0  0  0  0  0  0  0  0  0  0  0
  155.9470  212.3000  154.8800 C   0  0  0  0  0  3  0  0  0  0  0  0
  156.8120  212.3970  154.0580 C   0  0  0  0  0  0  0  0  0  0  0  0
  160.8270  206.9740  152.3400 C   0  0  1  0  0  3  0  0  0  0  0  0
  163.2380  208.1870  148.1640 F   0  0  0  0  0  0  0  0  0  0  0  0
  162.0350  207.7230  150.2440 C   0  0  0  0  0  2  0  0  0  0  0  0
  161.6270  206.4030  148.0540 C   0  0  2  0  0  3  0  0  0  0  0  0
  160.7650  207.0470  150.8040 C   0  0  1  0  0  3  0  0  0  0  0  0
  160.5980  205.6350  150.1770 C   0  0  0  0  0  2  0  0  0  0  0  0
  160.3890  205.7390  148.6800 C   0  0  0  0  0  2  0  0  0  0  0  0
  162.0120  207.7670  148.6900 C   0  0  2  0  0  3  0  0  0  0  0  0
  161.5300  206.4760  146.5900 N   0  0  0  0  0  0  0  0  0  0  0  0
  160.2770  206.5090  146.0150 O   0  0  0  0  0  0  0  0  0  0  0  0
  162.4770  206.0880  145.8660 O   0  0  0  0  0  0  0  0  0  0  0  0
  161.2130  204.6840  153.1710 C   0  0  0  0  0  1  0  0  0  0  0  0
  161.8860  206.0210  152.8830 C   0  0  0  0  0  2  0  0  0  0  0  0
  1  5  1  0  0  0  0
  2 10  2  0  0  0  0
  3  1  2  0  0  0  0
  5  7  1  0  0  0  0
  5  4  2  0  0  0  0
  6  1  1  0  0  0  0
  6  2  1  0  0  0  0
  8  9  1  0  0  0  0
  8  3  1  0  0  0  0
  9  6  2  0  0  0  0
 10  4  1  0  0  0  0
 11 18  2  0  0  0  0
 13 15  1  0  0  0  0
 14 16  1  0  0  0  0
 15  3  1  6  0  0  0
 15 19  1  0  0  0  0
 16 19  1  0  0  0  0
 16 21  1  1  0  0  0
 17 14  2  0  0  0  0
 18 17  1  0  0  0  0
 18 13  1  0  0  0  0
 19 12  2  0  0  0  0
 21 20  3  0  0  0  0
 22 34  1  6  0  0  0
 22  9  1  0  0  0  0
 24 26  1  0  0  0  0
 25 30  1  6  0  0  0
 25 28  1  0  0  0  0
 25 29  1  0  0  0  0
 26 22  1  1  0  0  0
 27 26  1  0  0  0  0
 28 27  1  0  0  0  0
 29 23  1  6  0  0  0
 29 24  1  0  0  0  0
 31 30  2  0  0  0  0
 32 30  2  0  0  0  0
 34 33  1  0  0  0  0
M  END
>  <MODEL>
3

>  <REMARK>
 VINA RESULT:      -7.7      2.599      4.451
  Name = 
  6 active torsions:
  status: ('A' for Active; 'I' for Inactive)
    1  A    between atoms: N_6  and  C_9
    2  A    between atoms: C_11  and  C_19
    3  A    between atoms: C_12  and  C_32
    4  A    between atoms: C_20  and  C_28
    5  A    between atoms: C_22  and  C_32
    6  A    between atoms: C_31  and  C_32
                            x       y       z     vdW  Elec       q    Type
                         _______ _______ _______ _____ _____    ______ ____

>  <TORSDO>
F 6

$$$$
=
 OpenBabel11072414153D

 34 37  0  0  1  0  0  0  0  0999 V2000
  161.4240  208.7950  150.7820 C   0  0  0  0  0  0  0  0  0  0  0  0
  161.1620  207.1270  149.0480 C   0  0  0  0  0  3  0  0  0  0  0  0
  161.1840  208.8330  152.1540 C   0  0  0  0  0  0  0  0  0  0  0  0
  161.9600  209.3700  148.5110 C   0  0  0  0  0  3  0  0  0  0  0  0
  161.9710  209.7120  149.8710 C   0  0  0  0  0  0  0  0  0  0  0  0
  161.1770  207.5020  150.3930 C   0  0  0  0  0  0  0  0  0  0  0  0
  162.6880  210.8150  150.3060 O   0  0  0  0  0  1  0  0  0  0  0  0
  161.0060  207.5960  152.5860 O   0  0  0  0  0  0  0  0  0  0  0  0
  160.9630  206.7750  151.5410 C   0  0  0  0  0  0  0  0  0  0  0  0
  161.4990  208.1050  148.1040 C   0  0  0  0  0  3  0  0  0  0  0  0
  158.6480  212.7590  153.6610 O   0  0  0  0  0  0  0  0  0  0  0  0
  162.0300  209.4390  155.1250 O   0  0  0  0  0  0  0  0  0  0  0  0
  159.5760  210.6970  152.7630 C   0  0  0  0  0  2  0  0  0  0  0  0
  158.8210  209.9290  155.7930 C   0  0  0  0  0  3  0  0  0  0  0  0
  160.9670  210.0210  153.0830 C   0  0  1  0  0  3  0  0  0  0  0  0
  159.7060  208.9120  155.1520 C   0  0  1  0  0  3  0  0  0  0  0  0
  158.4590  211.0570  155.1980 C   0  0  0  0  0  3  0  0  0  0  0  0
  158.8990  211.5480  153.8740 C   0  0  0  0  0  0  0  0  0  0  0  0
  160.9690  209.4880  154.5280 C   0  0  0  0  0  0  0  0  0  0  0  0
  160.1670  206.9830  156.9660 C   0  0  0  0  0  3  0  0  0  0  0  0
  159.9640  207.8160  156.1300 C   0  0  0  0  0  0  0  0  0  0  0  0
  160.8070  205.2740  151.6700 C   0  0  1  0  0  3  0  0  0  0  0  0
  162.6250  204.0200  147.2150 F   0  0  0  0  0  0  0  0  0  0  0  0
  161.7060  204.7620  149.3590 C   0  0  0  0  0  2  0  0  0  0  0  0
  161.1710  202.4520  148.3180 C   0  0  2  0  0  3  0  0  0  0  0  0
  160.5690  204.4910  150.3660 C   0  0  1  0  0  3  0  0  0  0  0  0
  160.4550  202.9640  150.6370 C   0  0  0  0  0  2  0  0  0  0  0  0
  160.0720  202.2270  149.3700 C   0  0  0  0  0  2  0  0  0  0  0  0
  161.5060  203.9450  148.0500 C   0  0  2  0  0  3  0  0  0  0  0  0
  160.9050  201.7070  147.0790 N   0  0  0  0  0  0  0  0  0  0  0  0
  161.2070  200.3620  147.0430 O   0  0  0  0  0  0  0  0  0  0  0  0
  160.8310  202.3020  145.9780 O   0  0  0  0  0  0  0  0  0  0  0  0
  163.1620  205.4550  152.3850 C   0  0  0  0  0  1  0  0  0  0  0  0
  161.8700  204.6710  152.5820 C   0  0  0  0  0  2  0  0  0  0  0  0
  1  3  2  0  0  0  0
  2  6  1  0  0  0  0
  3  8  1  0  0  0  0
  4  5  2  0  0  0  0
  5  7  1  0  0  0  0
  5  1  1  0  0  0  0
  6  1  1  0  0  0  0
  6  9  2  0  0  0  0
  9 22  1  0  0  0  0
  9  8  1  0  0  0  0
 10  4  1  0  0  0  0
 10  2  2  0  0  0  0
 11 18  2  0  0  0  0
 13 15  1  0  0  0  0
 13 18  1  0  0  0  0
 15  3  1  6  0  0  0
 15 19  1  0  0  0  0
 16 14  1  0  0  0  0
 16 21  1  1  0  0  0
 17 14  2  0  0  0  0
 18 17  1  0  0  0  0
 19 12  2  0  0  0  0
 19 16  1  0  0  0  0
 21 20  3  0  0  0  0
 22 34  1  6  0  0  0
 24 26  1  0  0  0  0
 25 30  1  6  0  0  0
 25 28  1  0  0  0  0
 26 27  1  0  0  0  0
 26 22  1  1  0  0  0
 28 27  1  0  0  0  0
 29 23  1  6  0  0  0
 29 25  1  0  0  0  0
 29 24  1  0  0  0  0
 31 30  2  0  0  0  0
 32 30  2  0  0  0  0
 33 34  1  0  0  0  0
M  END
>  <MODEL>
4

>  <REMARK>
 VINA RESULT:      -7.6      1.385      1.784
  Name = 
  6 active torsions:
  status: ('A' for Active; 'I' for Inactive)
    1  A    between atoms: N_6  and  C_9
    2  A    between atoms: C_11  and  C_19
    3  A    between atoms: C_12  and  C_32
    4  A    between atoms: C_20  and  C_28
    5  A    between atoms: C_22  and  C_32
    6  A    between atoms: C_31  and  C_32
                            x       y       z     vdW  Elec       q    Type
                         _______ _______ _______ _____ _____    ______ ____

>  <TORSDO>
F 6

$$$$
=
 OpenBabel11072414153D

 34 37  0  0  1  0  0  0  0  0999 V2000
  161.0210  208.4520  153.3880 C   0  0  0  0  0  0  0  0  0  0  0  0
  160.9490  206.1970  154.2640 C   0  0  0  0  0  3  0  0  0  0  0  0
  161.2800  209.0140  152.1400 C   0  0  0  0  0  0  0  0  0  0  0  0
  160.5760  208.1150  155.7260 C   0  0  0  0  0  3  0  0  0  0  0  0
  160.6450  208.9870  154.6300 C   0  0  0  0  0  0  0  0  0  0  0  0
  161.0190  207.0930  153.1960 C   0  0  0  0  0  0  0  0  0  0  0  0
  160.1500  210.2780  154.7340 O   0  0  0  0  0  1  0  0  0  0  0  0
  161.2290  208.0570  151.2280 O   0  0  0  0  0  0  0  0  0  0  0  0
  161.1070  206.8830  151.8390 C   0  0  0  0  0  0  0  0  0  0  0  0
  160.7900  206.7370  155.5460 C   0  0  0  0  0  3  0  0  0  0  0  0
  162.4710  212.4630  148.8540 O   0  0  0  0  0  0  0  0  0  0  0  0
  160.9880  211.8160  153.5430 O   0  0  0  0  0  0  0  0  0  0  0  0
  161.6880  210.5910  150.1970 C   0  0  0  0  0  2  0  0  0  0  0  0
  159.5190  212.8950  150.7740 C   0  0  0  0  0  3  0  0  0  0  0  0
  161.7240  210.4220  151.7670 C   0  0  1  0  0  3  0  0  0  0  0  0
  159.4230  211.7660  151.7460 C   0  0  1  0  0  3  0  0  0  0  0  0
  160.4500  212.9660  149.8330 C   0  0  0  0  0  3  0  0  0  0  0  0
  161.5720  212.0280  149.6150 C   0  0  0  0  0  0  0  0  0  0  0  0
  160.7390  211.4090  152.4210 C   0  0  0  0  0  0  0  0  0  0  0  0
  157.4690  212.3070  153.5110 C   0  0  0  0  0  3  0  0  0  0  0  0
  158.3130  212.0500  152.7020 C   0  0  0  0  0  0  0  0  0  0  0  0
  160.9810  205.5690  151.0960 C   0  0  1  0  0  3  0  0  0  0  0  0
  161.2720  202.9350  146.8890 F   0  0  0  0  0  0  0  0  0  0  0  0
  161.2390  204.1640  149.0050 C   0  0  0  0  0  2  0  0  0  0  0  0
  160.8390  205.2950  146.7100 C   0  0  2  0  0  3  0  0  0  0  0  0
  161.3540  205.5830  149.6030 C   0  0  1  0  0  3  0  0  0  0  0  0
  160.4550  206.5680  148.8050 C   0  0  0  0  0  2  0  0  0  0  0  0
  160.9330  206.6810  147.3710 C   0  0  0  0  0  2  0  0  0  0  0  0
  161.5700  204.1640  147.4850 C   0  0  2  0  0  3  0  0  0  0  0  0
  161.2190  205.3370  145.2920 N   0  0  0  0  0  0  0  0  0  0  0  0
  160.4890  204.5880  144.3930 O   0  0  0  0  0  0  0  0  0  0  0  0
  162.3810  205.6600  144.9500 O   0  0  0  0  0  0  0  0  0  0  0  0
  160.4720  203.4130  152.1820 C   0  0  0  0  0  1  0  0  0  0  0  0
  161.5840  204.4120  151.8860 C   0  0  0  0  0  2  0  0  0  0  0  0
  1  5  1  0  0  0  0
  2 10  2  0  0  0  0
  3  1  2  0  0  0  0
  5  7  1  0  0  0  0
  5  4  2  0  0  0  0
  6  1  1  0  0  0  0
  6  2  1  0  0  0  0
  8  9  1  0  0  0  0
  8  3  1  0  0  0  0
  9  6  2  0  0  0  0
 10  4  1  0  0  0  0
 11 18  2  0  0  0  0
 13 15  1  0  0  0  0
 14 16  1  0  0  0  0
 15  3  1  6  0  0  0
 15 19  1  0  0  0  0
 16 19  1  0  0  0  0
 16 21  1  1  0  0  0
 17 14  2  0  0  0  0
 18 17  1  0  0  0  0
 18 13  1  0  0  0  0
 19 12  2  0  0  0  0
 21 20  3  0  0  0  0
 22  9  1  0  0  0  0
 22 34  1  1  0  0  0
 24 26  1  0  0  0  0
 25 30  1  6  0  0  0
 25 28  1  0  0  0  0
 25 29  1  0  0  0  0
 26 22  1  1  0  0  0
 27 26  1  0  0  0  0
 28 27  1  0  0  0  0
 29 23  1  6  0  0  0
 29 24  1  0  0  0  0
 31 30  2  0  0  0  0
 32 30  2  0  0  0  0
 34 33  1  0  0  0  0
M  END
>  <MODEL>
5

>  <REMARK>
 VINA RESULT:      -7.4      2.151      4.161
  Name = 
  6 active torsions:
  status: ('A' for Active; 'I' for Inactive)
    1  A    between atoms: N_6  and  C_9
    2  A    between atoms: C_11  and  C_19
    3  A    between atoms: C_12  and  C_32
    4  A    between atoms: C_20  and  C_28
    5  A    between atoms: C_22  and  C_32
    6  A    between atoms: C_31  and  C_32
                            x       y       z     vdW  Elec       q    Type
                         _______ _______ _______ _____ _____    ______ ____

>  <TORSDO>
F 6

$$$$
=
 OpenBabel11072414153D

 34 37  0  0  1  0  0  0  0  0999 V2000
  161.5820  209.0390  151.7730 C   0  0  0  0  0  0  0  0  0  0  0  0
  161.9530  209.4120  149.4110 C   0  0  0  0  0  3  0  0  0  0  0  0
  161.3730  209.8620  152.8780 C   0  0  0  0  0  0  0  0  0  0  0  0
  161.9620  207.1530  150.3330 C   0  0  0  0  0  3  0  0  0  0  0  0
  161.6050  207.6460  151.5960 C   0  0  0  0  0  0  0  0  0  0  0  0
  161.6050  209.8710  150.6820 C   0  0  0  0  0  0  0  0  0  0  0  0
  161.0900  206.7920  152.5580 O   0  0  0  0  0  1  0  0  0  0  0  0
  161.0850  211.0790  152.4480 O   0  0  0  0  0  0  0  0  0  0  0  0
  161.2500  211.1230  151.1300 C   0  0  0  0  0  0  0  0  0  0  0  0
  162.1940  208.0400  149.2670 C   0  0  0  0  0  3  0  0  0  0  0  0
  163.4720  210.7910  157.2180 O   0  0  0  0  0  0  0  0  0  0  0  0
  159.5430  208.6150  155.1140 O   0  0  0  0  0  0  0  0  0  0  0  0
  162.5190  210.6910  154.9810 C   0  0  0  0  0  2  0  0  0  0  0  0
  159.9970  211.4040  156.8470 C   0  0  0  0  0  3  0  0  0  0  0  0
  161.5740  209.5870  154.3620 C   0  0  1  0  0  3  0  0  0  0  0  0
  159.5890  210.9700  155.4780 C   0  0  1  0  0  3  0  0  0  0  0  0
  161.2570  211.4130  157.2610 C   0  0  0  0  0  3  0  0  0  0  0  0
  162.4450  210.9460  156.5140 C   0  0  0  0  0  0  0  0  0  0  0  0
  160.1910  209.6440  155.0370 C   0  0  0  0  0  0  0  0  0  0  0  0
  156.9050  211.0860  155.3720 C   0  0  0  0  0  3  0  0  0  0  0  0
  158.1000  211.0150  155.3860 C   0  0  0  0  0  0  0  0  0  0  0  0
  160.9720  212.3580  150.2980 C   0  0  1  0  0  3  0  0  0  0  0  0
  159.6120  213.6760  145.7010 F   0  0  0  0  0  0  0  0  0  0  0  0
  160.1770  212.9400  147.9650 C   0  0  0  0  0  2  0  0  0  0  0  0
  161.9550  213.3340  146.1250 C   0  0  2  0  0  3  0  0  0  0  0  0
  161.2890  212.2640  148.7950 C   0  0  1  0  0  3  0  0  0  0  0  0
  162.6630  212.9120  148.4650 C   0  0  0  0  0  2  0  0  0  0  0  0
  163.0260  212.6780  147.0130 C   0  0  0  0  0  2  0  0  0  0  0  0
  160.5000  212.8940  146.4450 C   0  0  2  0  0  3  0  0  0  0  0  0
  162.2760  213.2110  144.6970 N   0  0  0  0  0  0  0  0  0  0  0  0
  161.3880  212.5450  143.8780 O   0  0  0  0  0  0  0  0  0  0  0  0
  163.4610  213.2970  144.2970 O   0  0  0  0  0  0  0  0  0  0  0  0
  159.8330  214.2330  151.4270 C   0  0  0  0  0  1  0  0  0  0  0  0
  159.6090  212.9610  150.6180 C   0  0  0  0  0  2  0  0  0  0  0  0
  1  3  2  0  0  0  0
  2  6  1  0  0  0  0
  4  5  2  0  0  0  0
  5  1  1  0  0  0  0
  5  7  1  0  0  0  0
  6  9  2  0  0  0  0
  6  1  1  0  0  0  0
  8  3  1  0  0  0  0
  9  8  1  0  0  0  0
 10  2  2  0  0  0  0
 10  4  1  0  0  0  0
 13 18  1  0  0  0  0
 14 17  2  0  0  0  0
 15  3  1  6  0  0  0
 15 13  1  0  0  0  0
 15 19  1  0  0  0  0
 16 21  1  1  0  0  0
 16 14  1  0  0  0  0
 18 11  2  0  0  0  0
 18 17  1  0  0  0  0
 19 12  2  0  0  0  0
 19 16  1  0  0  0  0
 20 21  3  0  0  0  0
 22 34  1  6  0  0  0
 22  9  1  0  0  0  0
 24 26  1  0  0  0  0
 25 30  1  6  0  0  0
 25 29  1  0  0  0  0
 25 28  1  0  0  0  0
 26 22  1  1  0  0  0
 27 26  1  0  0  0  0
 28 27  1  0  0  0  0
 29 23  1  6  0  0  0
 29 24  1  0  0  0  0
 31 30  2  0  0  0  0
 32 30  2  0  0  0  0
 34 33  1  0  0  0  0
M  END
>  <MODEL>
6

>  <REMARK>
 VINA RESULT:      -6.8      4.212      6.893
  Name = 
  6 active torsions:
  status: ('A' for Active; 'I' for Inactive)
    1  A    between atoms: N_6  and  C_9
    2  A    between atoms: C_11  and  C_19
    3  A    between atoms: C_12  and  C_32
    4  A    between atoms: C_20  and  C_28
    5  A    between atoms: C_22  and  C_32
    6  A    between atoms: C_31  and  C_32
                            x       y       z     vdW  Elec       q    Type
                         _______ _______ _______ _____ _____    ______ ____

>  <TORSDO>
F 6

$$$$
=
 OpenBabel11072414153D

 34 37  0  0  1  0  0  0  0  0999 V2000
  160.2150  210.4450  154.6040 C   0  0  0  0  0  0  0  0  0  0  0  0
  158.3000  211.6420  155.4740 C   0  0  0  0  0  3  0  0  0  0  0  0
  160.7820  210.2810  153.3420 C   0  0  0  0  0  0  0  0  0  0  0  0
  159.6910  210.2760  156.9430 C   0  0  0  0  0  3  0  0  0  0  0  0
  160.5760  210.0110  155.8900 C   0  0  0  0  0  0  0  0  0  0  0  0
  159.1980  211.3520  154.4450 C   0  0  0  0  0  0  0  0  0  0  0  0
  161.8500  209.5310  156.1530 O   0  0  0  0  0  1  0  0  0  0  0  0
  160.2670  211.1870  152.5280 O   0  0  0  0  0  0  0  0  0  0  0  0
  159.2850  211.8260  153.1560 C   0  0  0  0  0  0  0  0  0  0  0  0
  158.5290  211.0360  156.7160 C   0  0  0  0  0  3  0  0  0  0  0  0
  161.6560  205.7080  151.7820 O   0  0  0  0  0  0  0  0  0  0  0  0
  163.4420  210.3330  151.6610 O   0  0  0  0  0  0  0  0  0  0  0  0
  160.8620  207.9070  152.4570 C   0  0  0  0  0  2  0  0  0  0  0  0
  161.9260  208.3740  149.4580 C   0  0  0  0  0  3  0  0  0  0  0  0
  161.7060  209.1930  152.8110 C   0  0  1  0  0  3  0  0  0  0  0  0
  161.6960  209.6560  150.1870 C   0  0  1  0  0  3  0  0  0  0  0  0
  161.7820  207.1820  150.0210 C   0  0  0  0  0  3  0  0  0  0  0  0
  161.4550  206.8960  151.4340 C   0  0  0  0  0  0  0  0  0  0  0  0
  162.3860  209.7380  151.5410 C   0  0  0  0  0  0  0  0  0  0  0  0
  162.2160  211.7130  148.5360 C   0  0  0  0  0  3  0  0  0  0  0  0
  162.0220  210.7920  149.2760 C   0  0  0  0  0  0  0  0  0  0  0  0
  158.4970  212.9590  152.5310 C   0  0  1  0  0  3  0  0  0  0  0  0
  155.6730  214.0550  148.5890 F   0  0  0  0  0  0  0  0  0  0  0  0
  156.9820  213.4080  150.5530 C   0  0  0  0  0  2  0  0  0  0  0  0
  158.0620  214.1950  148.3340 C   0  0  2  0  0  3  0  0  0  0  0  0
  158.3910  212.9600  150.9960 C   0  0  1  0  0  3  0  0  0  0  0  0
  159.4650  213.8840  150.3560 C   0  0  0  0  0  2  0  0  0  0  0  0
  159.4450  213.7580  148.8460 C   0  0  0  0  0  2  0  0  0  0  0  0
  156.8680  213.4590  149.0030 C   0  0  2  0  0  3  0  0  0  0  0  0
  157.9860  214.1680  146.8680 N   0  0  0  0  0  0  0  0  0  0  0  0
  156.8320  213.6980  146.2770 O   0  0  0  0  0  0  0  0  0  0  0  0
  159.0290  214.1450  146.1730 O   0  0  0  0  0  0  0  0  0  0  0  0
  157.3290  214.4400  154.1210 C   0  0  0  0  0  1  0  0  0  0  0  0
  157.1760  213.1960  153.2540 C   0  0  0  0  0  2  0  0  0  0  0  0
  1  5  1  0  0  0  0
  2 10  2  0  0  0  0
  3  1  2  0  0  0  0
  5  7  1  0  0  0  0
  5  4  2  0  0  0  0
  6  1  1  0  0  0  0
  6  2  1  0  0  0  0
  8  9  1  0  0  0  0
  8  3  1  0  0  0  0
  9  6  2  0  0  0  0
 10  4  1  0  0  0  0
 13 15  1  0  0  0  0
 14 17  2  0  0  0  0
 14 16  1  0  0  0  0
 15  3  1  6  0  0  0
 16 21  1  6  0  0  0
 16 19  1  0  0  0  0
 17 18  1  0  0  0  0
 18 11  2  0  0  0  0
 18 13  1  0  0  0  0
 19 12  2  0  0  0  0
 19 15  1  0  0  0  0
 20 21  3  0  0  0  0
 22  9  1  0  0  0  0
 22 34  1  1  0  0  0
 24 26  1  0  0  0  0
 25 30  1  6  0  0  0
 25 28  1  0  0  0  0
 25 29  1  0  0  0  0
 26 22  1  1  0  0  0
 27 26  1  0  0  0  0
 28 27  1  0  0  0  0
 29 23  1  1  0  0  0
 29 24  1  0  0  0  0
 31 30  2  0  0  0  0
 32 30  2  0  0  0  0
 34 33  1  0  0  0  0
M  END
>  <MODEL>
7

>  <REMARK>
 VINA RESULT:      -6.7      4.178      8.375
  Name = 
  6 active torsions:
  status: ('A' for Active; 'I' for Inactive)
    1  A    between atoms: N_6  and  C_9
    2  A    between atoms: C_11  and  C_19
    3  A    between atoms: C_12  and  C_32
    4  A    between atoms: C_20  and  C_28
    5  A    between atoms: C_22  and  C_32
    6  A    between atoms: C_31  and  C_32
                            x       y       z     vdW  Elec       q    Type
                         _______ _______ _______ _____ _____    ______ ____

>  <TORSDO>
F 6

$$$$
=
 OpenBabel11072414153D

 34 37  0  0  1  0  0  0  0  0999 V2000
  161.6810  208.7310  152.0190 C   0  0  0  0  0  0  0  0  0  0  0  0
  161.5610  208.1510  149.6720 C   0  0  0  0  0  3  0  0  0  0  0  0
  161.3310  208.0940  153.2080 C   0  0  0  0  0  0  0  0  0  0  0  0
  162.3970  210.3330  150.3780 C   0  0  0  0  0  3  0  0  0  0  0  0
  162.2980  209.9570  151.7240 C   0  0  0  0  0  0  0  0  0  0  0  0
  161.4680  207.8110  151.0230 C   0  0  0  0  0  0  0  0  0  0  0  0
  162.9760  210.6710  152.6990 O   0  0  0  0  0  1  0  0  0  0  0  0
  161.1210  206.8130  152.9540 O   0  0  0  0  0  0  0  0  0  0  0  0
  161.1630  206.6200  151.6400 C   0  0  0  0  0  0  0  0  0  0  0  0
  161.9710  209.4550  149.3650 C   0  0  0  0  0  3  0  0  0  0  0  0
  162.6480  210.5430  157.2550 O   0  0  0  0  0  0  0  0  0  0  0  0
  158.7030  209.0940  154.6210 O   0  0  0  0  0  0  0  0  0  0  0  0
  162.2800  209.5160  155.0800 C   0  0  0  0  0  2  0  0  0  0  0  0
  160.2300  211.9950  155.1030 C   0  0  0  0  0  3  0  0  0  0  0  0
  161.0390  208.6730  154.5860 C   0  0  1  0  0  3  0  0  0  0  0  0
  159.9450  211.0310  154.0000 C   0  0  1  0  0  3  0  0  0  0  0  0
  161.1750  211.8000  156.0130 C   0  0  0  0  0  3  0  0  0  0  0  0
  162.0420  210.6110  156.1580 C   0  0  0  0  0  0  0  0  0  0  0  0
  159.8050  209.5850  154.4560 C   0  0  0  0  0  0  0  0  0  0  0  0
  157.8510  211.9930  152.6160 C   0  0  0  0  0  3  0  0  0  0  0  0
  158.7770  211.5300  153.2170 C   0  0  0  0  0  0  0  0  0  0  0  0
  161.0000  205.2590  150.9940 C   0  0  1  0  0  3  0  0  0  0  0  0
  161.2550  202.3040  147.0030 F   0  0  0  0  0  0  0  0  0  0  0  0
  161.2390  203.6940  149.0180 C   0  0  0  0  0  2  0  0  0  0  0  0
  160.8350  204.6460  146.6430 C   0  0  2  0  0  3  0  0  0  0  0  0
  161.3660  205.1540  149.5030 C   0  0  1  0  0  3  0  0  0  0  0  0
  160.4690  206.0800  148.6340 C   0  0  0  0  0  2  0  0  0  0  0  0
  160.9400  206.0780  147.1940 C   0  0  0  0  0  2  0  0  0  0  0  0
  161.5620  203.5740  147.5010 C   0  0  2  0  0  3  0  0  0  0  0  0
  161.2090  204.5750  145.2250 N   0  0  0  0  0  0  0  0  0  0  0  0
  160.3050  204.0380  144.3320 O   0  0  0  0  0  0  0  0  0  0  0  0
  162.4140  204.5770  144.8790 O   0  0  0  0  0  0  0  0  0  0  0  0
  160.4440  203.1850  152.2100 C   0  0  0  0  0  1  0  0  0  0  0  0
  161.5750  204.1470  151.8640 C   0  0  0  0  0  2  0  0  0  0  0  0
  1  3  2  0  0  0  0
  2  6  1  0  0  0  0
  4  5  2  0  0  0  0
  5  1  1  0  0  0  0
  5  7  1  0  0  0  0
  6  9  2  0  0  0  0
  6  1  1  0  0  0  0
  8  3  1  0  0  0  0
  9  8  1  0  0  0  0
 10  2  2  0  0  0  0
 10  4  1  0  0  0  0
 13 18  1  0  0  0  0
 14 17  2  0  0  0  0
 15  3  1  6  0  0  0
 15 13  1  0  0  0  0
 16 21  1  1  0  0  0
 16 19  1  0  0  0  0
 16 14  1  0  0  0  0
 17 18  1  0  0  0  0
 18 11  2  0  0  0  0
 19 15  1  0  0  0  0
 19 12  2  0  0  0  0
 20 21  3  0  0  0  0
 22  9  1  0  0  0  0
 22 34  1  1  0  0  0
 24 26  1  0  0  0  0
 25 30  1  6  0  0  0
 25 28  1  0  0  0  0
 25 29  1  0  0  0  0
 26 22  1  1  0  0  0
 27 26  1  0  0  0  0
 28 27  1  0  0  0  0
 29 23  1  6  0  0  0
 29 24  1  0  0  0  0
 31 30  2  0  0  0  0
 32 30  2  0  0  0  0
 34 33  1  0  0  0  0
M  END
>  <MODEL>
8

>  <REMARK>
 VINA RESULT:      -6.3      2.184      3.246
  Name = 
  6 active torsions:
  status: ('A' for Active; 'I' for Inactive)
    1  A    between atoms: N_6  and  C_9
    2  A    between atoms: C_11  and  C_19
    3  A    between atoms: C_12  and  C_32
    4  A    between atoms: C_20  and  C_28
    5  A    between atoms: C_22  and  C_32
    6  A    between atoms: C_31  and  C_32
                            x       y       z     vdW  Elec       q    Type
                         _______ _______ _______ _____ _____    ______ ____

>  <TORSDO>
F 6

$$$$
=
 OpenBabel11072414153D

 34 37  0  0  1  0  0  0  0  0999 V2000
  161.3580  207.1650  153.2930 C   0  0  0  0  0  0  0  0  0  0  0  0
  162.1190  205.9650  151.3340 C   0  0  0  0  0  3  0  0  0  0  0  0
  161.3630  208.5000  153.6930 C   0  0  0  0  0  0  0  0  0  0  0  0
  161.1300  204.7740  153.2200 C   0  0  0  0  0  3  0  0  0  0  0  0
  160.8510  205.9860  153.8650 C   0  0  0  0  0  0  0  0  0  0  0  0
  161.8340  207.1550  152.0060 C   0  0  0  0  0  0  0  0  0  0  0  0
  159.9330  206.0300  154.9020 O   0  0  0  0  0  1  0  0  0  0  0  0
  161.6300  209.2530  152.6400 O   0  0  0  0  0  0  0  0  0  0  0  0
  161.9510  208.4690  151.6160 C   0  0  0  0  0  0  0  0  0  0  0  0
  161.8150  204.7670  151.9920 C   0  0  0  0  0  3  0  0  0  0  0  0
  162.9940  211.4530  157.2610 O   0  0  0  0  0  0  0  0  0  0  0  0
  158.9570  209.0690  155.6410 O   0  0  0  0  0  0  0  0  0  0  0  0
  162.3810  210.2150  155.2570 C   0  0  0  0  0  2  0  0  0  0  0  0
  159.9180  212.2410  155.6780 C   0  0  0  0  0  3  0  0  0  0  0  0
  161.2650  209.1110  155.0840 C   0  0  1  0  0  3  0  0  0  0  0  0
  159.6050  211.1600  154.6980 C   0  0  1  0  0  3  0  0  0  0  0  0
  161.0580  212.3020  156.3530 C   0  0  0  0  0  3  0  0  0  0  0  0
  162.1630  211.3190  156.3300 C   0  0  0  0  0  0  0  0  0  0  0  0
  159.8710  209.7520  155.2140 C   0  0  0  0  0  0  0  0  0  0  0  0
  157.1300  211.5720  153.7360 C   0  0  0  0  0  3  0  0  0  0  0  0
  158.2170  211.3620  154.1880 C   0  0  0  0  0  0  0  0  0  0  0  0
  162.2810  208.9980  150.2350 C   0  0  1  0  0  3  0  0  0  0  0  0
  163.5830  205.5360  146.9120 F   0  0  0  0  0  0  0  0  0  0  0  0
  163.0170  207.3300  148.4780 C   0  0  0  0  0  2  0  0  0  0  0  0
  161.2820  205.6130  147.6120 C   0  0  2  0  0  3  0  0  0  0  0  0
  161.8290  208.1390  149.0410 C   0  0  1  0  0  3  0  0  0  0  0  0
  160.6770  207.1750  149.4420 C   0  0  0  0  0  2  0  0  0  0  0  0
  160.1440  206.4470  148.2250 C   0  0  0  0  0  2  0  0  0  0  0  0
  162.5710  206.4210  147.2970 C   0  0  2  0  0  3  0  0  0  0  0  0
  160.8250  204.8200  146.4640 N   0  0  0  0  0  0  0  0  0  0  0  0
  161.2500  203.5120  146.3570 O   0  0  0  0  0  0  0  0  0  0  0  0
  160.4420  205.3800  145.4100 O   0  0  0  0  0  0  0  0  0  0  0  0
  161.9660  210.8380  148.6220 C   0  0  0  0  0  1  0  0  0  0  0  0
  161.9540  210.4810  150.1040 C   0  0  0  0  0  2  0  0  0  0  0  0
  1  3  2  0  0  0  0
  1  5  1  0  0  0  0
  2 10  2  0  0  0  0
  2  6  1  0  0  0  0
  4  5  2  0  0  0  0
  5  7  1  0  0  0  0
  6  1  1  0  0  0  0
  8  3  1  0  0  0  0
  9  6  2  0  0  0  0
  9  8  1  0  0  0  0
 10  4  1  0  0  0  0
 13 18  1  0  0  0  0
 14 17  2  0  0  0  0
 15  3  1  6  0  0  0
 15 19  1  0  0  0  0
 15 13  1  0  0  0  0
 16 21  1  1  0  0  0
 16 19  1  0  0  0  0
 16 14  1  0  0  0  0
 18 17  1  0  0  0  0
 18 11  2  0  0  0  0
 19 12  2  0  0  0  0
 20 21  3  0  0  0  0
 22 34  1  6  0  0  0
 22  9  1  0  0  0  0
 24 26  1  0  0  0  0
 25 30  1  6  0  0  0
 25 28  1  0  0  0  0
 26 27  1  0  0  0  0
 26 22  1  1  0  0  0
 28 27  1  0  0  0  0
 29 23  1  1  0  0  0
 29 25  1  0  0  0  0
 29 24  1  0  0  0  0
 31 30  2  0  0  0  0
 32 30  2  0  0  0  0
 33 34  1  0  0  0  0
M  END
>  <MODEL>
9

>  <REMARK>
 VINA RESULT:      -6.2      2.277      4.396
  Name = 
  6 active torsions:
  status: ('A' for Active; 'I' for Inactive)
    1  A    between atoms: N_6  and  C_9
    2  A    between atoms: C_11  and  C_19
    3  A    between atoms: C_12  and  C_32
    4  A    between atoms: C_20  and  C_28
    5  A    between atoms: C_22  and  C_32
    6  A    between atoms: C_31  and  C_32
                            x       y       z     vdW  Elec       q    Type
                         _______ _______ _______ _____ _____    ______ ____

>  <TORSDO>
F 6

$$$$
