=
 OpenBabel11072415163D

 40 43  0  0  1  0  0  0  0  0999 V2000
  161.6870  208.1640  152.6950 C   0  0  2  0  0  3  0  0  0  0  0  0
  161.4960  206.0790  153.8510 O   0  0  0  0  0  0  0  0  0  0  0  0
  160.7540  207.0570  153.1640 C   0  0  1  0  0  3  0  0  0  0  0  0
  160.7630  206.9810  154.6420 C   0  0  0  0  0  2  0  0  0  0  0  0
  160.9750  209.4390  152.6960 N   0  0  0  0  0  2  0  0  0  0  0  0
  162.2190  210.3700  154.4370 O   0  0  0  0  0  0  0  0  0  0  0  0
  161.2910  210.5010  153.5940 C   0  0  0  0  0  0  0  0  0  0  0  0
  160.5230  211.7830  153.5290 C   0  0  0  0  0  2  0  0  0  0  0  0
  157.0580  212.4560  155.1980 C   0  0  1  0  0  0  0  0  0  0  0  0
  157.9870  210.0840  155.0140 C   0  0  0  0  0  2  0  0  0  0  0  0
  159.3470  210.6770  155.3700 C   0  0  0  0  0  2  0  0  0  0  0  0
  156.8990  210.9890  155.5760 C   0  0  2  0  0  3  0  0  0  0  0  0
  158.2610  212.7280  154.2550 C   0  0  2  0  0  3  0  0  0  0  0  0
  160.3020  212.8980  155.7740 C   0  0  0  0  0  1  0  0  0  0  0  0
  155.5590  210.6030  155.0010 C   0  0  0  0  0  2  0  0  0  0  0  0
  155.7430  212.7740  154.5100 C   0  0  0  0  0  2  0  0  0  0  0  0
  154.8080  211.7790  154.8360 O   0  0  0  0  0  0  0  0  0  0  0  0
  157.1750  213.2190  156.3680 O   0  0  0  0  0  1  0  0  0  0  0  0
  159.5900  212.0500  154.7230 C   0  0  2  0  0  0  0  0  0  0  0  0
  158.4180  214.2160  153.9280 C   0  0  0  0  0  2  0  0  0  0  0  0
  158.3160  214.4520  152.4370 C   0  0  0  0  0  1  0  0  0  0  0  0
  163.1740  206.8090  151.3040 O   0  0  0  0  0  1  0  0  0  0  0  0
  162.2370  207.8490  151.2960 C   0  0  1  0  0  3  0  0  0  0  0  0
  161.2360  207.6520  150.3170 O   0  0  0  0  0  0  0  0  0  0  0  0
  163.1680  204.8810  146.4540 C   0  0  0  0  0  1  0  0  0  0  0  0
  160.7610  204.5960  148.2500 C   0  0  1  0  0  3  0  0  0  0  0  0
  160.4540  205.5620  149.3970 C   0  0  2  0  0  3  0  0  0  0  0  0
  161.9360  207.0460  148.0990 C   0  0  0  0  0  2  0  0  0  0  0  0
  161.6000  206.5670  149.5020 C   0  0  1  0  0  3  0  0  0  0  0  0
  160.2630  204.8920  150.6080 O   0  0  0  0  0  1  0  0  0  0  0  0
  161.6160  205.6220  147.0360 P   0  0  1  0  0  4  0  0  0  0  0  0
  161.2150  202.1990  148.9610 C   0  0  0  0  0  0  0  0  0  0  0  0
  161.6540  203.5280  148.6860 N   0  0  0  0  0  2  0  0  0  0  0  0
  159.4870  201.7430  148.8390 S   0  0  0  0  0  1  0  0  0  0  0  0
  162.0560  201.3320  149.3020 O   0  0  0  0  0  0  0  0  0  0  0  0
  160.5180  206.0200  145.6430 C   0  0  0  0  0  2  0  0  0  0  0  0
  160.6040  204.9580  144.5540 C   0  0  1  0  0  3  0  0  0  0  0  0
  161.4750  205.3760  143.5500 O   0  0  0  0  0  1  0  0  0  0  0  0
  161.1120  203.6500  145.1360 C   0  0  0  0  0  2  0  0  0  0  0  0
  160.0820  202.5530  144.9480 C   0  0  0  0  0  1  0  0  0  0  0  0
  1  5  1  6  0  0  0
  2  4  1  0  0  0  0
  3  1  1  1  0  0  0
  3  2  1  0  0  0  0
  3  4  1  0  0  0  0
  5  7  1  0  0  0  0
  7  6  2  0  0  0  0
  8  7  1  0  0  0  0
  8 19  1  0  0  0  0
  9 12  1  0  0  0  0
  9 18  1  1  0  0  0
 10 11  1  0  0  0  0
 10 12  1  0  0  0  0
 12 15  1  6  0  0  0
 13 20  1  1  0  0  0
 13 19  1  0  0  0  0
 13  9  1  0  0  0  0
 16 17  1  0  0  0  0
 16  9  1  0  0  0  0
 17 15  1  0  0  0  0
 19 11  1  0  0  0  0
 19 14  1  1  0  0  0
 21 20  1  0  0  0  0
 23 22  1  1  0  0  0
 23  1  1  0  0  0  0
 24 23  1  0  0  0  0
 26 33  1  1  0  0  0
 26 27  1  0  0  0  0
 27 29  1  0  0  0  0
 27 30  1  1  0  0  0
 28 29  1  0  0  0  0
 29 24  1  1  0  0  0
 31 25  1  6  0  0  0
 31 28  1  0  0  0  0
 31 26  1  0  0  0  0
 32 35  2  0  0  0  0
 33 32  1  0  0  0  0
 34 32  1  0  0  0  0
 36 31  1  0  0  0  0
 37 38  1  6  0  0  0
 37 39  1  0  0  0  0
 37 36  1  0  0  0  0
 40 39  1  0  0  0  0
M  END
>  <MODEL>
1

>  <REMARK>
 VINA RESULT:      -5.5      0.000      0.000
  Name = 
  12 active torsions:
  status: ('A' for Active; 'I' for Inactive)
    1  A    between atoms: C_2  and  C_16
    2  A    between atoms: C_4  and  N_21
    3  A    between atoms: C_13  and  C_20
    4  A    between atoms: C_16  and  C_24
    5  A    between atoms: C_19  and  O_27
    6  A    between atoms: C_23  and  C_39
    7  A    between atoms: C_24  and  P_31
    8  A    between atoms: C_25  and  O_27
    9  A    between atoms: C_25  and  C_39
   10  A    between atoms: N_32  and  C_39
   11  A    between atoms: C_35  and  C_38
   12  A    between atoms: C_37  and  C_38
                            x       y       z     vdW  Elec       q    Type
                         _______ _______ _______ _____ _____    ______ ____

>  <TORSDO>
F 12

$$$$
=
 OpenBabel11072415163D

 40 43  0  0  1  0  0  0  0  0999 V2000
  162.1030  210.1210  149.1630 C   0  0  2  0  0  3  0  0  0  0  0  0
  162.6070  212.4530  148.9890 O   0  0  0  0  0  0  0  0  0  0  0  0
  161.7160  211.4570  148.5470 C   0  0  1  0  0  3  0  0  0  0  0  0
  162.8150  211.9560  147.6900 C   0  0  0  0  0  2  0  0  0  0  0  0
  161.3640  209.0450  148.5070 N   0  0  0  0  0  2  0  0  0  0  0  0
  162.0900  207.3750  149.9660 O   0  0  0  0  0  0  0  0  0  0  0  0
  161.4020  207.6940  148.9600 C   0  0  0  0  0  0  0  0  0  0  0  0
  160.6100  206.6470  148.2410 C   0  0  0  0  0  2  0  0  0  0  0  0
  161.2770  203.5220  145.9990 C   0  0  1  0  0  0  0  0  0  0  0  0
  159.9550  205.5160  145.1080 C   0  0  0  0  0  2  0  0  0  0  0  0
  160.9640  206.4030  145.8300 C   0  0  0  0  0  2  0  0  0  0  0  0
  160.6160  204.1810  144.7960 C   0  0  2  0  0  3  0  0  0  0  0  0
  161.0860  204.3090  147.3230 C   0  0  2  0  0  3  0  0  0  0  0  0
  162.8890  206.1120  147.3190 C   0  0  0  0  0  1  0  0  0  0  0  0
  159.5770  203.1820  144.3530 C   0  0  0  0  0  2  0  0  0  0  0  0
  160.5920  202.1690  146.0650 C   0  0  0  0  0  2  0  0  0  0  0  0
  159.9610  201.9200  144.8350 O   0  0  0  0  0  0  0  0  0  0  0  0
  162.6420  203.3450  145.7310 O   0  0  0  0  0  1  0  0  0  0  0  0
  161.3930  205.8370  147.1940 C   0  0  2  0  0  0  0  0  0  0  0  0
  161.7980  203.6420  148.5040 C   0  0  0  0  0  2  0  0  0  0  0  0
  160.9210  203.6570  149.7380 C   0  0  0  0  0  1  0  0  0  0  0  0
  162.9500  210.5000  151.4270 O   0  0  0  0  0  1  0  0  0  0  0  0
  161.8310  210.1250  150.6750 C   0  0  1  0  0  3  0  0  0  0  0  0
  160.6760  210.8510  151.0470 O   0  0  0  0  0  0  0  0  0  0  0  0
  161.8350  210.5640  156.0380 C   0  0  0  0  0  1  0  0  0  0  0  0
  159.3910  211.4220  154.4910 C   0  0  1  0  0  3  0  0  0  0  0  0
  159.3440  211.4720  152.9630 C   0  0  2  0  0  3  0  0  0  0  0  0
  161.2410  209.9120  153.1860 C   0  0  0  0  0  2  0  0  0  0  0  0
  160.7310  211.1240  152.4240 C   0  0  1  0  0  3  0  0  0  0  0  0
  158.9230  212.7180  152.4920 O   0  0  0  0  0  1  0  0  0  0  0  0
  160.5520  210.0860  154.8460 P   0  0  1  0  0  4  0  0  0  0  0  0
  159.2830  213.3840  156.1020 C   0  0  0  0  0  0  0  0  0  0  0  0
  159.9140  212.6670  155.0430 N   0  0  0  0  0  2  0  0  0  0  0  0
  157.7380  212.8260  156.8160 S   0  0  0  0  0  1  0  0  0  0  0  0
  159.8170  214.4330  156.5380 O   0  0  0  0  0  0  0  0  0  0  0  0
  159.6680  208.5960  155.3980 C   0  0  0  0  0  2  0  0  0  0  0  0
  160.6310  207.4380  155.6280 C   0  0  1  0  0  3  0  0  0  0  0  0
  160.3620  206.8320  156.8530 O   0  0  0  0  0  1  0  0  0  0  0  0
  160.4830  206.4060  154.5230 C   0  0  0  0  0  2  0  0  0  0  0  0
  161.6950  206.4300  153.6120 C   0  0  0  0  0  1  0  0  0  0  0  0
  1  5  1  6  0  0  0
  1 23  1  0  0  0  0
  3  2  1  0  0  0  0
  3  1  1  1  0  0  0
  4  3  1  0  0  0  0
  4  2  1  0  0  0  0
  5  7  1  0  0  0  0
  7  6  2  0  0  0  0
  8  7  1  0  0  0  0
  9 18  1  6  0  0  0
  9 16  1  0  0  0  0
  9 13  1  0  0  0  0
 10 11  1  0  0  0  0
 11 19  1  0  0  0  0
 12 15  1  1  0  0  0
 12 10  1  0  0  0  0
 12  9  1  0  0  0  0
 13 20  1  1  0  0  0
 15 17  1  0  0  0  0
 17 16  1  0  0  0  0
 19 14  1  1  0  0  0
 19 13  1  0  0  0  0
 19  8  1  0  0  0  0
 20 21  1  0  0  0  0
 23 24  1  0  0  0  0
 23 22  1  1  0  0  0
 26 31  1  0  0  0  0
 26 33  1  6  0  0  0
 27 30  1  1  0  0  0
 27 26  1  0  0  0  0
 28 31  1  0  0  0  0
 29 24  1  6  0  0  0
 29 27  1  0  0  0  0
 29 28  1  0  0  0  0
 31 36  1  0  0  0  0
 31 25  1  1  0  0  0
 32 35  2  0  0  0  0
 32 34  1  0  0  0  0
 33 32  1  0  0  0  0
 36 37  1  0  0  0  0
 37 38  1  1  0  0  0
 39 37  1  0  0  0  0
 40 39  1  0  0  0  0
M  END
>  <MODEL>
2

>  <REMARK>
 VINA RESULT:      -5.4      3.599     10.303
  Name = 
  12 active torsions:
  status: ('A' for Active; 'I' for Inactive)
    1  A    between atoms: C_2  and  C_16
    2  A    between atoms: C_4  and  N_21
    3  A    between atoms: C_13  and  C_20
    4  A    between atoms: C_16  and  C_24
    5  A    between atoms: C_19  and  O_27
    6  A    between atoms: C_23  and  C_39
    7  A    between atoms: C_24  and  P_31
    8  A    between atoms: C_25  and  O_27
    9  A    between atoms: C_25  and  C_39
   10  A    between atoms: N_32  and  C_39
   11  A    between atoms: C_35  and  C_38
   12  A    between atoms: C_37  and  C_38
                            x       y       z     vdW  Elec       q    Type
                         _______ _______ _______ _____ _____    ______ ____

>  <TORSDO>
F 12

$$$$
=
 OpenBabel11072415163D

 40 43  0  0  1  0  0  0  0  0999 V2000
  162.4210  209.8150  150.2770 C   0  0  2  0  0  3  0  0  0  0  0  0
  161.4890  211.9030  149.5740 O   0  0  0  0  0  0  0  0  0  0  0  0
  161.5790  210.5390  149.2370 C   0  0  1  0  0  3  0  0  0  0  0  0
  162.3960  211.5670  148.5530 C   0  0  0  0  0  2  0  0  0  0  0  0
  162.7080  208.4590  149.8180 N   0  0  0  0  0  2  0  0  0  0  0  0
  161.2780  208.5550  147.9770 O   0  0  0  0  0  0  0  0  0  0  0  0
  162.1020  207.8900  148.6600 C   0  0  0  0  0  0  0  0  0  0  0  0
  162.4530  206.4950  148.2460 C   0  0  0  0  0  2  0  0  0  0  0  0
  160.8970  202.9350  148.6120 C   0  0  1  0  0  0  0  0  0  0  0  0
  161.0630  204.5050  150.6180 C   0  0  0  0  0  2  0  0  0  0  0  0
  160.6590  205.6290  149.6680 C   0  0  0  0  0  2  0  0  0  0  0  0
  160.5320  203.1890  150.0690 C   0  0  2  0  0  3  0  0  0  0  0  0
  161.7970  204.0370  147.9940 C   0  0  2  0  0  3  0  0  0  0  0  0
  160.2110  205.8990  147.2730 C   0  0  0  0  0  1  0  0  0  0  0  0
  161.1530  202.0320  150.8110 C   0  0  0  0  0  2  0  0  0  0  0  0
  161.6260  201.6040  148.6710 C   0  0  0  0  0  2  0  0  0  0  0  0
  161.3360  200.9820  149.8960 O   0  0  0  0  0  0  0  0  0  0  0  0
  159.7190  202.7930  147.8640 O   0  0  0  0  0  1  0  0  0  0  0  0
  161.2900  205.4900  148.2730 C   0  0  2  0  0  0  0  0  0  0  0  0
  162.1110  203.7740  146.5180 C   0  0  0  0  0  2  0  0  0  0  0  0
  163.3910  204.4690  146.1080 C   0  0  0  0  0  1  0  0  0  0  0  0
  161.2240  208.5160  151.9700 O   0  0  0  0  0  1  0  0  0  0  0  0
  161.6970  209.7890  151.6320 C   0  0  1  0  0  3  0  0  0  0  0  0
  162.4340  210.3760  152.6870 O   0  0  0  0  0  0  0  0  0  0  0  0
  160.1890  211.3440  157.1990 C   0  0  0  0  0  1  0  0  0  0  0  0
  159.1700  210.8920  154.3960 C   0  0  1  0  0  3  0  0  0  0  0  0
  160.0940  210.6850  153.1930 C   0  0  2  0  0  3  0  0  0  0  0  0
  161.7080  210.0830  154.9590 C   0  0  0  0  0  2  0  0  0  0  0  0
  161.5400  210.8530  153.6590 C   0  0  1  0  0  3  0  0  0  0  0  0
  159.8000  211.5660  152.1500 O   0  0  0  0  0  1  0  0  0  0  0  0
  160.1060  210.2120  155.7820 P   0  0  1  0  0  4  0  0  0  0  0  0
  157.6650  212.8300  155.0520 C   0  0  0  0  0  0  0  0  0  0  0  0
  158.9250  212.3090  154.6350 N   0  0  0  0  0  2  0  0  0  0  0  0
  156.2410  211.7650  155.2700 S   0  0  0  0  0  1  0  0  0  0  0  0
  157.5480  214.0610  155.2650 O   0  0  0  0  0  0  0  0  0  0  0  0
  159.4390  208.5940  156.2760 C   0  0  0  0  0  2  0  0  0  0  0  0
  160.4790  207.4950  156.1050 C   0  0  1  0  0  3  0  0  0  0  0  0
  160.4650  206.6500  157.2120 O   0  0  0  0  0  1  0  0  0  0  0  0
  160.1800  206.6800  154.8580 C   0  0  0  0  0  2  0  0  0  0  0  0
  161.4700  206.2380  154.1940 C   0  0  0  0  0  1  0  0  0  0  0  0
  1  5  1  6  0  0  0
  1 23  1  0  0  0  0
  3  2  1  0  0  0  0
  3  1  1  1  0  0  0
  4  3  1  0  0  0  0
  4  2  1  0  0  0  0
  6  7  2  0  0  0  0
  7  5  1  0  0  0  0
  8 19  1  0  0  0  0
  8  7  1  0  0  0  0
  9 18  1  6  0  0  0
  9 16  1  0  0  0  0
  9 12  1  0  0  0  0
 11 10  1  0  0  0  0
 12 10  1  1  0  0  0
 12 15  1  0  0  0  0
 13 20  1  6  0  0  0
 13 19  1  0  0  0  0
 13  9  1  0  0  0  0
 16 17  1  0  0  0  0
 17 15  1  0  0  0  0
 19 14  1  6  0  0  0
 19 11  1  0  0  0  0
 21 20  1  0  0  0  0
 23 22  1  1  0  0  0
 23 24  1  0  0  0  0
 26 33  1  1  0  0  0
 26 31  1  0  0  0  0
 27 30  1  6  0  0  0
 27 29  1  0  0  0  0
 27 26  1  0  0  0  0
 28 31  1  0  0  0  0
 29 24  1  6  0  0  0
 29 28  1  0  0  0  0
 31 36  1  0  0  0  0
 31 25  1  1  0  0  0
 32 35  2  0  0  0  0
 32 34  1  0  0  0  0
 33 32  1  0  0  0  0
 37 36  1  0  0  0  0
 37 38  1  1  0  0  0
 39 37  1  0  0  0  0
 40 39  1  0  0  0  0
M  END
>  <MODEL>
3

>  <REMARK>
 VINA RESULT:      -4.8      3.360      9.873
  Name = 
  12 active torsions:
  status: ('A' for Active; 'I' for Inactive)
    1  A    between atoms: C_2  and  C_16
    2  A    between atoms: C_4  and  N_21
    3  A    between atoms: C_13  and  C_20
    4  A    between atoms: C_16  and  C_24
    5  A    between atoms: C_19  and  O_27
    6  A    between atoms: C_23  and  C_39
    7  A    between atoms: C_24  and  P_31
    8  A    between atoms: C_25  and  O_27
    9  A    between atoms: C_25  and  C_39
   10  A    between atoms: N_32  and  C_39
   11  A    between atoms: C_35  and  C_38
   12  A    between atoms: C_37  and  C_38
                            x       y       z     vdW  Elec       q    Type
                         _______ _______ _______ _____ _____    ______ ____

>  <TORSDO>
F 12

$$$$
=
 OpenBabel11072415163D

 40 43  0  0  1  0  0  0  0  0999 V2000
  161.6210  209.9720  150.8480 C   0  0  2  0  0  3  0  0  0  0  0  0
  162.0940  210.5840  148.5840 O   0  0  0  0  0  0  0  0  0  0  0  0
  162.4320  210.8650  149.9210 C   0  0  1  0  0  3  0  0  0  0  0  0
  161.5270  211.7420  149.1450 C   0  0  0  0  0  2  0  0  0  0  0  0
  161.8610  210.3570  152.2360 N   0  0  0  0  0  2  0  0  0  0  0  0
  159.6820  209.9240  152.9510 O   0  0  0  0  0  0  0  0  0  0  0  0
  160.8470  210.3100  153.2370 C   0  0  0  0  0  0  0  0  0  0  0  0
  161.1710  210.7130  154.6420 C   0  0  0  0  0  2  0  0  0  0  0  0
  157.6950  212.4720  154.8940 C   0  0  1  0  0  0  0  0  0  0  0  0
  158.0350  210.1050  155.7900 C   0  0  0  0  0  2  0  0  0  0  0  0
  159.3860  210.5850  156.3120 C   0  0  0  0  0  2  0  0  0  0  0  0
  157.1040  211.3040  155.6730 C   0  0  2  0  0  3  0  0  0  0  0  0
  159.1050  212.1820  154.3130 C   0  0  2  0  0  3  0  0  0  0  0  0
  160.7410  212.6250  156.2180 C   0  0  0  0  0  1  0  0  0  0  0  0
  155.8710  210.9250  154.8920 C   0  0  0  0  0  2  0  0  0  0  0  0
  156.6820  212.6880  153.7850 C   0  0  0  0  0  2  0  0  0  0  0  0
  155.4840  212.0420  154.1330 O   0  0  0  0  0  0  0  0  0  0  0  0
  157.7340  213.6020  155.7230 O   0  0  0  0  0  1  0  0  0  0  0  0
  160.0930  211.5510  155.3480 C   0  0  2  0  0  0  0  0  0  0  0  0
  159.6880  213.3890  153.5720 C   0  0  0  0  0  2  0  0  0  0  0  0
  159.4820  213.2540  152.0780 C   0  0  0  0  0  1  0  0  0  0  0  0
  162.6890  207.9400  151.6940 O   0  0  0  0  0  1  0  0  0  0  0  0
  161.9800  208.4950  150.6230 C   0  0  1  0  0  3  0  0  0  0  0  0
  160.8820  207.6900  150.2410 O   0  0  0  0  0  0  0  0  0  0  0  0
  163.1380  204.9850  146.5090 C   0  0  0  0  0  1  0  0  0  0  0  0
  160.6950  204.5670  148.2290 C   0  0  1  0  0  3  0  0  0  0  0  0
  160.2810  205.5310  149.3420 C   0  0  2  0  0  3  0  0  0  0  0  0
  161.7010  207.0900  148.0630 C   0  0  0  0  0  2  0  0  0  0  0  0
  161.3490  206.6170  149.4640 C   0  0  1  0  0  3  0  0  0  0  0  0
  160.0940  204.8750  150.5610 O   0  0  0  0  0  1  0  0  0  0  0  0
  161.5190  205.6260  147.0220 P   0  0  1  0  0  4  0  0  0  0  0  0
  161.2870  202.2270  149.0240 C   0  0  0  0  0  0  0  0  0  0  0  0
  161.6440  203.5730  148.7180 N   0  0  0  0  0  2  0  0  0  0  0  0
  159.5960  201.6540  148.8750 S   0  0  0  0  0  1  0  0  0  0  0  0
  162.1730  201.4280  149.4120 O   0  0  0  0  0  0  0  0  0  0  0  0
  160.4450  205.9170  145.5830 C   0  0  0  0  0  2  0  0  0  0  0  0
  160.6060  204.8140  144.5450 C   0  0  1  0  0  3  0  0  0  0  0  0
  161.5530  205.1890  143.5950 O   0  0  0  0  0  1  0  0  0  0  0  0
  161.0590  203.5270  145.2130 C   0  0  0  0  0  2  0  0  0  0  0  0
  160.0900  202.4020  144.9040 C   0  0  0  0  0  1  0  0  0  0  0  0
  1  5  1  1  0  0  0
  2  4  1  0  0  0  0
  2  3  1  0  0  0  0
  3  1  1  1  0  0  0
  4  3  1  0  0  0  0
  5  7  1  0  0  0  0
  6  7  2  0  0  0  0
  7  8  1  0  0  0  0
  8 19  1  0  0  0  0
  9 12  1  0  0  0  0
  9 18  1  1  0  0  0
 10 11  1  0  0  0  0
 12 15  1  6  0  0  0
 12 10  1  0  0  0  0
 13 20  1  1  0  0  0
 13  9  1  0  0  0  0
 13 19  1  0  0  0  0
 16 17  1  0  0  0  0
 16  9  1  0  0  0  0
 17 15  1  0  0  0  0
 19 14  1  1  0  0  0
 19 11  1  0  0  0  0
 21 20  1  0  0  0  0
 23  1  1  0  0  0  0
 23 22  1  1  0  0  0
 24 23  1  0  0  0  0
 26 33  1  1  0  0  0
 26 27  1  0  0  0  0
 27 29  1  0  0  0  0
 27 30  1  1  0  0  0
 28 29  1  0  0  0  0
 29 24  1  1  0  0  0
 31 25  1  6  0  0  0
 31 28  1  0  0  0  0
 31 26  1  0  0  0  0
 32 35  2  0  0  0  0
 33 32  1  0  0  0  0
 34 32  1  0  0  0  0
 36 31  1  0  0  0  0
 37 38  1  6  0  0  0
 37 39  1  0  0  0  0
 37 36  1  0  0  0  0
 40 39  1  0  0  0  0
M  END
>  <MODEL>
4

>  <REMARK>
 VINA RESULT:      -4.3      1.386      2.042
  Name = 
  12 active torsions:
  status: ('A' for Active; 'I' for Inactive)
    1  A    between atoms: C_2  and  C_16
    2  A    between atoms: C_4  and  N_21
    3  A    between atoms: C_13  and  C_20
    4  A    between atoms: C_16  and  C_24
    5  A    between atoms: C_19  and  O_27
    6  A    between atoms: C_23  and  C_39
    7  A    between atoms: C_24  and  P_31
    8  A    between atoms: C_25  and  O_27
    9  A    between atoms: C_25  and  C_39
   10  A    between atoms: N_32  and  C_39
   11  A    between atoms: C_35  and  C_38
   12  A    between atoms: C_37  and  C_38
                            x       y       z     vdW  Elec       q    Type
                         _______ _______ _______ _____ _____    ______ ____

>  <TORSDO>
F 12

$$$$
=
 OpenBabel11072415163D

 40 43  0  0  1  0  0  0  0  0999 V2000
  161.9630  209.8940  149.4400 C   0  0  2  0  0  3  0  0  0  0  0  0
  162.0210  212.2840  149.3650 O   0  0  0  0  0  0  0  0  0  0  0  0
  161.5960  211.1440  148.6560 C   0  0  1  0  0  3  0  0  0  0  0  0
  162.8220  211.8840  148.2810 C   0  0  0  0  0  2  0  0  0  0  0  0
  161.9110  208.7290  148.5600 N   0  0  0  0  0  2  0  0  0  0  0  0
  163.3380  207.4200  149.8630 O   0  0  0  0  0  0  0  0  0  0  0  0
  162.6230  207.5240  148.8300 C   0  0  0  0  0  0  0  0  0  0  0  0
  162.5130  206.3680  147.8860 C   0  0  0  0  0  2  0  0  0  0  0  0
  160.8530  202.9460  148.7620 C   0  0  1  0  0  0  0  0  0  0  0  0
  161.2960  204.6900  150.5730 C   0  0  0  0  0  2  0  0  0  0  0  0
  160.8420  205.7370  149.5600 C   0  0  0  0  0  2  0  0  0  0  0  0
  160.6540  203.3560  150.2150 C   0  0  2  0  0  3  0  0  0  0  0  0
  161.7300  203.9350  147.9490 C   0  0  2  0  0  3  0  0  0  0  0  0
  160.1580  205.8010  147.2070 C   0  0  0  0  0  1  0  0  0  0  0  0
  161.3000  202.2450  151.0040 C   0  0  0  0  0  2  0  0  0  0  0  0
  161.5270  201.5910  148.8800 C   0  0  0  0  0  2  0  0  0  0  0  0
  161.3410  201.1050  150.1850 O   0  0  0  0  0  0  0  0  0  0  0  0
  159.5980  202.7960  148.1530 O   0  0  0  0  0  1  0  0  0  0  0  0
  161.3170  205.4330  148.1300 C   0  0  2  0  0  0  0  0  0  0  0  0
  161.8750  203.5160  146.4830 C   0  0  0  0  0  2  0  0  0  0  0  0
  163.0640  204.2000  145.8440 C   0  0  0  0  0  1  0  0  0  0  0  0
  161.4390  208.7010  151.5110 O   0  0  0  0  0  1  0  0  0  0  0  0
  161.0190  209.7130  150.6390 C   0  0  1  0  0  3  0  0  0  0  0  0
  160.7260  210.9140  151.3240 O   0  0  0  0  0  0  0  0  0  0  0  0
  157.6270  210.2910  155.3670 C   0  0  0  0  0  1  0  0  0  0  0  0
  160.5300  211.0420  155.0360 C   0  0  1  0  0  3  0  0  0  0  0  0
  161.2330  211.0890  153.6770 C   0  0  2  0  0  3  0  0  0  0  0  0
  158.9130  211.2780  152.8600 C   0  0  0  0  0  2  0  0  0  0  0  0
  160.2530  210.6040  152.6100 C   0  0  1  0  0  3  0  0  0  0  0  0
  162.4030  210.3250  153.6660 O   0  0  0  0  0  1  0  0  0  0  0  0
  158.8170  211.4630  154.6530 P   0  0  1  0  0  4  0  0  0  0  0  0
  161.5100  209.3050  156.6100 C   0  0  0  0  0  0  0  0  0  0  0  0
  160.5760  209.7010  155.6080 N   0  0  0  0  0  2  0  0  0  0  0  0
  162.7590  210.4330  157.2200 S   0  0  0  0  0  1  0  0  0  0  0  0
  161.4610  208.1380  157.0690 O   0  0  0  0  0  0  0  0  0  0  0  0
  158.4440  213.1670  155.1640 C   0  0  0  0  0  2  0  0  0  0  0  0
  156.9580  213.3440  155.4460 C   0  0  1  0  0  3  0  0  0  0  0  0
  156.7660  213.7000  156.7790 O   0  0  0  0  0  1  0  0  0  0  0  0
  156.3800  214.4320  154.5570 C   0  0  0  0  0  2  0  0  0  0  0  0
  156.0510  213.8730  153.1860 C   0  0  0  0  0  1  0  0  0  0  0  0
  1  5  1  6  0  0  0
  1 23  1  0  0  0  0
  3  2  1  0  0  0  0
  3  1  1  1  0  0  0
  4  3  1  0  0  0  0
  4  2  1  0  0  0  0
  5  7  1  0  0  0  0
  7  6  2  0  0  0  0
  8 19  1  0  0  0  0
  8  7  1  0  0  0  0
  9 18  1  6  0  0  0
  9 16  1  0  0  0  0
  9 12  1  0  0  0  0
 11 10  1  0  0  0  0
 12 10  1  6  0  0  0
 12 15  1  0  0  0  0
 13 20  1  6  0  0  0
 13 19  1  0  0  0  0
 13  9  1  0  0  0  0
 16 17  1  0  0  0  0
 17 15  1  0  0  0  0
 19 14  1  6  0  0  0
 19 11  1  0  0  0  0
 21 20  1  0  0  0  0
 23 24  1  0  0  0  0
 23 22  1  1  0  0  0
 26 33  1  6  0  0  0
 27 30  1  1  0  0  0
 27 26  1  0  0  0  0
 28 31  1  0  0  0  0
 29 24  1  6  0  0  0
 29 28  1  0  0  0  0
 29 27  1  0  0  0  0
 31 26  1  0  0  0  0
 31 36  1  0  0  0  0
 31 25  1  1  0  0  0
 32 35  2  0  0  0  0
 32 34  1  0  0  0  0
 33 32  1  0  0  0  0
 36 37  1  0  0  0  0
 37 38  1  1  0  0  0
 39 37  1  0  0  0  0
 40 39  1  0  0  0  0
M  END
>  <MODEL>
5

>  <REMARK>
 VINA RESULT:      -4.2      3.363     10.118
  Name = 
  12 active torsions:
  status: ('A' for Active; 'I' for Inactive)
    1  A    between atoms: C_2  and  C_16
    2  A    between atoms: C_4  and  N_21
    3  A    between atoms: C_13  and  C_20
    4  A    between atoms: C_16  and  C_24
    5  A    between atoms: C_19  and  O_27
    6  A    between atoms: C_23  and  C_39
    7  A    between atoms: C_24  and  P_31
    8  A    between atoms: C_25  and  O_27
    9  A    between atoms: C_25  and  C_39
   10  A    between atoms: N_32  and  C_39
   11  A    between atoms: C_35  and  C_38
   12  A    between atoms: C_37  and  C_38
                            x       y       z     vdW  Elec       q    Type
                         _______ _______ _______ _____ _____    ______ ____

>  <TORSDO>
F 12

$$$$
=
 OpenBabel11072415163D

 40 43  0  0  1  0  0  0  0  0999 V2000
  161.2480  207.8690  154.2670 C   0  0  2  0  0  3  0  0  0  0  0  0
  160.7580  206.4940  156.1620 O   0  0  0  0  0  0  0  0  0  0  0  0
  160.1830  207.0870  155.0220 C   0  0  1  0  0  3  0  0  0  0  0  0
  160.0010  207.6590  156.3750 C   0  0  0  0  0  2  0  0  0  0  0  0
  160.7250  209.1830  153.9030 N   0  0  0  0  0  2  0  0  0  0  0  0
  162.0440  210.3600  155.4270 O   0  0  0  0  0  0  0  0  0  0  0  0
  161.1660  210.3890  154.5230 C   0  0  0  0  0  0  0  0  0  0  0  0
  160.5910  211.7010  154.0890 C   0  0  0  0  0  2  0  0  0  0  0  0
  157.0070  213.0330  154.8770 C   0  0  1  0  0  0  0  0  0  0  0  0
  157.6030  210.5770  155.2450 C   0  0  0  0  0  2  0  0  0  0  0  0
  158.9430  211.0690  155.7870 C   0  0  0  0  0  2  0  0  0  0  0  0
  156.5700  211.6810  155.4270 C   0  0  2  0  0  3  0  0  0  0  0  0
  158.3920  213.0030  154.1780 C   0  0  2  0  0  3  0  0  0  0  0  0
  160.1140  213.2070  156.0480 C   0  0  0  0  0  1  0  0  0  0  0  0
  155.3220  211.3520  154.6480 C   0  0  0  0  0  2  0  0  0  0  0  0
  155.9040  213.3700  153.8900 C   0  0  0  0  0  2  0  0  0  0  0  0
  154.7910  212.5560  154.1580 O   0  0  0  0  0  0  0  0  0  0  0  0
  157.0090  213.9710  155.9200 O   0  0  0  0  0  1  0  0  0  0  0  0
  159.4980  212.2730  155.0080 C   0  0  2  0  0  0  0  0  0  0  0  0
  158.8200  214.3840  153.6740 C   0  0  0  0  0  2  0  0  0  0  0  0
  158.9640  214.3860  152.1670 C   0  0  0  0  0  1  0  0  0  0  0  0
  162.1270  205.7970  153.3090 O   0  0  0  0  0  1  0  0  0  0  0  0
  161.6990  207.0970  153.0170 C   0  0  1  0  0  3  0  0  0  0  0  0
  160.7620  207.1210  151.9590 O   0  0  0  0  0  0  0  0  0  0  0  0
  163.8160  208.9540  148.2650 C   0  0  0  0  0  1  0  0  0  0  0  0
  161.2040  207.4450  148.2800 C   0  0  1  0  0  3  0  0  0  0  0  0
  160.5310  206.9510  149.5620 C   0  0  2  0  0  3  0  0  0  0  0  0
  161.9520  208.6910  150.5810 C   0  0  0  0  0  2  0  0  0  0  0  0
  161.4490  207.2650  150.7420 C   0  0  1  0  0  3  0  0  0  0  0  0
  160.2370  205.5860  149.5070 O   0  0  0  0  0  1  0  0  0  0  0  0
  162.0800  208.9360  148.7970 P   0  0  1  0  0  4  0  0  0  0  0  0
  162.0030  205.7490  146.5650 C   0  0  0  0  0  0  0  0  0  0  0  0
  162.1700  206.4720  147.7830 N   0  0  0  0  0  2  0  0  0  0  0  0
  160.5370  205.9470  145.5560 S   0  0  0  0  0  1  0  0  0  0  0  0
  162.8980  204.9510  146.1960 O   0  0  0  0  0  0  0  0  0  0  0  0
  161.2060  210.4260  148.2290 C   0  0  0  0  0  2  0  0  0  0  0  0
  162.0200  211.6820  148.5100 C   0  0  1  0  0  3  0  0  0  0  0  0
  162.4150  212.2710  147.3110 O   0  0  0  0  0  1  0  0  0  0  0  0
  161.1900  212.6790  149.3000 C   0  0  0  0  0  2  0  0  0  0  0  0
  160.4900  213.6440  148.3620 C   0  0  0  0  0  1  0  0  0  0  0  0
  1  5  1  6  0  0  0
  2  4  1  0  0  0  0
  3  1  1  6  0  0  0
  3  2  1  0  0  0  0
  3  4  1  0  0  0  0
  5  7  1  0  0  0  0
  7  6  2  0  0  0  0
  8  7  1  0  0  0  0
  8 19  1  0  0  0  0
  9 12  1  0  0  0  0
  9 18  1  1  0  0  0
 10 12  1  0  0  0  0
 10 11  1  0  0  0  0
 12 15  1  6  0  0  0
 13 20  1  1  0  0  0
 13  9  1  0  0  0  0
 13 19  1  0  0  0  0
 16 17  1  0  0  0  0
 16  9  1  0  0  0  0
 17 15  1  0  0  0  0
 19 11  1  0  0  0  0
 19 14  1  1  0  0  0
 21 20  1  0  0  0  0
 23 22  1  1  0  0  0
 23  1  1  0  0  0  0
 24 23  1  0  0  0  0
 26 33  1  1  0  0  0
 26 31  1  0  0  0  0
 26 27  1  0  0  0  0
 27 30  1  6  0  0  0
 27 29  1  0  0  0  0
 28 29  1  0  0  0  0
 29 24  1  1  0  0  0
 31 25  1  6  0  0  0
 31 28  1  0  0  0  0
 32 33  1  0  0  0  0
 34 32  1  0  0  0  0
 35 32  2  0  0  0  0
 36 37  1  0  0  0  0
 36 31  1  0  0  0  0
 37 38  1  6  0  0  0
 37 39  1  0  0  0  0
 40 39  1  0  0  0  0
M  END
>  <MODEL>
6

>  <REMARK>
 VINA RESULT:      -3.6      2.302      3.759
  Name = 
  12 active torsions:
  status: ('A' for Active; 'I' for Inactive)
    1  A    between atoms: C_2  and  C_16
    2  A    between atoms: C_4  and  N_21
    3  A    between atoms: C_13  and  C_20
    4  A    between atoms: C_16  and  C_24
    5  A    between atoms: C_19  and  O_27
    6  A    between atoms: C_23  and  C_39
    7  A    between atoms: C_24  and  P_31
    8  A    between atoms: C_25  and  O_27
    9  A    between atoms: C_25  and  C_39
   10  A    between atoms: N_32  and  C_39
   11  A    between atoms: C_35  and  C_38
   12  A    between atoms: C_37  and  C_38
                            x       y       z     vdW  Elec       q    Type
                         _______ _______ _______ _____ _____    ______ ____

>  <TORSDO>
F 12

$$$$
=
 OpenBabel11072415163D

 40 43  0  0  1  0  0  0  0  0999 V2000
  160.8350  208.1630  154.1520 C   0  0  2  0  0  3  0  0  0  0  0  0
  160.9270  208.1950  156.5420 O   0  0  0  0  0  0  0  0  0  0  0  0
  161.2190  207.4060  155.4140 C   0  0  1  0  0  3  0  0  0  0  0  0
  160.0180  207.1650  156.2440 C   0  0  0  0  0  2  0  0  0  0  0  0
  161.4510  207.5270  152.9910 N   0  0  0  0  0  2  0  0  0  0  0  0
  160.6900  205.3810  153.5010 O   0  0  0  0  0  0  0  0  0  0  0  0
  161.3410  206.1310  152.7240 C   0  0  0  0  0  0  0  0  0  0  0  0
  161.9930  205.5520  151.5080 C   0  0  0  0  0  2  0  0  0  0  0  0
  161.3470  205.7470  147.6640 C   0  0  1  0  0  0  0  0  0  0  0  0
  161.7740  203.5050  148.8100 C   0  0  0  0  0  2  0  0  0  0  0  0
  160.8970  204.0150  149.9500 C   0  0  0  0  0  2  0  0  0  0  0  0
  161.3780  204.2300  147.5300 C   0  0  2  0  0  3  0  0  0  0  0  0
  161.7930  206.2580  149.0590 C   0  0  2  0  0  3  0  0  0  0  0  0
  159.7300  206.0850  150.5480 C   0  0  0  0  0  1  0  0  0  0  0  0
  162.4040  203.9750  146.4550 C   0  0  0  0  0  2  0  0  0  0  0  0
  162.3110  206.2020  146.5820 C   0  0  0  0  0  2  0  0  0  0  0  0
  162.5180  205.1430  145.6840 O   0  0  0  0  0  0  0  0  0  0  0  0
  160.0560  206.2060  147.3670 O   0  0  0  0  0  1  0  0  0  0  0  0
  161.1110  205.5070  150.2500 C   0  0  2  0  0  0  0  0  0  0  0  0
  161.7110  207.7830  149.1740 C   0  0  0  0  0  2  0  0  0  0  0  0
  162.8870  208.4390  148.4820 C   0  0  0  0  0  1  0  0  0  0  0  0
  162.3890  209.8180  155.0630 O   0  0  0  0  0  1  0  0  0  0  0  0
  161.2600  209.6360  154.2560 C   0  0  1  0  0  3  0  0  0  0  0  0
  161.3920  210.2840  153.0060 O   0  0  0  0  0  0  0  0  0  0  0  0
  157.5690  212.5840  150.4710 C   0  0  0  0  0  1  0  0  0  0  0  0
  158.9230  213.0640  153.1240 C   0  0  1  0  0  3  0  0  0  0  0  0
  160.0230  212.1560  153.6770 C   0  0  2  0  0  3  0  0  0  0  0  0
  160.2310  211.5200  151.3030 C   0  0  0  0  0  2  0  0  0  0  0  0
  160.2030  210.9770  152.7220 C   0  0  1  0  0  3  0  0  0  0  0  0
  159.7350  211.7130  154.9710 O   0  0  0  0  0  1  0  0  0  0  0  0
  159.1250  212.9470  151.3340 P   0  0  1  0  0  4  0  0  0  0  0  0
  156.8230  213.1160  154.5530 C   0  0  0  0  0  0  0  0  0  0  0  0
  157.6000  212.5720  153.4880 N   0  0  0  0  0  2  0  0  0  0  0  0
  157.4490  214.4440  155.5800 S   0  0  0  0  0  1  0  0  0  0  0  0
  155.6800  212.6520  154.7800 O   0  0  0  0  0  0  0  0  0  0  0  0
  159.9030  214.4520  150.6740 C   0  0  0  0  0  2  0  0  0  0  0  0
  160.3510  214.2540  149.2330 C   0  0  1  0  0  3  0  0  0  0  0  0
  161.2010  213.1530  149.1460 O   0  0  0  0  0  1  0  0  0  0  0  0
  159.1470  214.0190  148.3370 C   0  0  0  0  0  2  0  0  0  0  0  0
  159.5420  213.1980  147.1250 C   0  0  0  0  0  1  0  0  0  0  0  0
  1  5  1  6  0  0  0
  1 23  1  0  0  0  0
  3  1  1  6  0  0  0
  3  4  1  0  0  0  0
  3  2  1  0  0  0  0
  4  2  1  0  0  0  0
  7  5  1  0  0  0  0
  7  6  2  0  0  0  0
  8  7  1  0  0  0  0
  9 18  1  6  0  0  0
  9 13  1  0  0  0  0
 10 11  1  0  0  0  0
 11 19  1  0  0  0  0
 12 15  1  6  0  0  0
 12  9  1  0  0  0  0
 12 10  1  0  0  0  0
 13 20  1  6  0  0  0
 13 19  1  0  0  0  0
 16  9  1  0  0  0  0
 17 15  1  0  0  0  0
 17 16  1  0  0  0  0
 19 14  1  1  0  0  0
 19  8  1  0  0  0  0
 21 20  1  0  0  0  0
 23 22  1  6  0  0  0
 24 23  1  0  0  0  0
 26 33  1  6  0  0  0
 26 27  1  0  0  0  0
 27 30  1  1  0  0  0
 28 31  1  0  0  0  0
 28 29  1  0  0  0  0
 29 24  1  1  0  0  0
 29 27  1  0  0  0  0
 31 25  1  6  0  0  0
 31 26  1  0  0  0  0
 32 35  2  0  0  0  0
 32 34  1  0  0  0  0
 33 32  1  0  0  0  0
 36 31  1  0  0  0  0
 37 38  1  1  0  0  0
 37 36  1  0  0  0  0
 39 37  1  0  0  0  0
 40 39  1  0  0  0  0
M  END
>  <MODEL>
7

>  <REMARK>
 VINA RESULT:      -3.6      3.571      9.104
  Name = 
  12 active torsions:
  status: ('A' for Active; 'I' for Inactive)
    1  A    between atoms: C_2  and  C_16
    2  A    between atoms: C_4  and  N_21
    3  A    between atoms: C_13  and  C_20
    4  A    between atoms: C_16  and  C_24
    5  A    between atoms: C_19  and  O_27
    6  A    between atoms: C_23  and  C_39
    7  A    between atoms: C_24  and  P_31
    8  A    between atoms: C_25  and  O_27
    9  A    between atoms: C_25  and  C_39
   10  A    between atoms: N_32  and  C_39
   11  A    between atoms: C_35  and  C_38
   12  A    between atoms: C_37  and  C_38
                            x       y       z     vdW  Elec       q    Type
                         _______ _______ _______ _____ _____    ______ ____

>  <TORSDO>
F 12

$$$$
=
 OpenBabel11072415163D

 40 43  0  0  1  0  0  0  0  0999 V2000
  160.4400  212.1360  150.3450 C   0  0  2  0  0  3  0  0  0  0  0  0
  159.6880  213.3380  148.4190 O   0  0  0  0  0  0  0  0  0  0  0  0
  160.2250  213.5020  149.7090 C   0  0  1  0  0  3  0  0  0  0  0  0
  158.7860  213.7090  149.4320 C   0  0  0  0  0  2  0  0  0  0  0  0
  160.8260  212.3020  151.7440 N   0  0  0  0  0  2  0  0  0  0  0  0
  159.3910  210.6480  152.5510 O   0  0  0  0  0  0  0  0  0  0  0  0
  160.2620  211.5250  152.7980 C   0  0  0  0  0  0  0  0  0  0  0  0
  160.7140  211.7450  154.2080 C   0  0  0  0  0  2  0  0  0  0  0  0
  157.0370  212.5860  155.2090 C   0  0  1  0  0  0  0  0  0  0  0  0
  157.9520  210.2150  155.4520 C   0  0  0  0  0  2  0  0  0  0  0  0
  159.2450  210.8540  155.9510 C   0  0  0  0  0  2  0  0  0  0  0  0
  156.8000  211.1730  155.7240 C   0  0  2  0  0  3  0  0  0  0  0  0
  158.3780  212.7550  154.4460 C   0  0  2  0  0  3  0  0  0  0  0  0
  160.1520  213.1120  156.2430 C   0  0  0  0  0  1  0  0  0  0  0  0
  155.5650  210.7150  154.9900 C   0  0  0  0  0  2  0  0  0  0  0  0
  155.8530  212.8150  154.2870 C   0  0  0  0  0  2  0  0  0  0  0  0
  154.8650  211.8580  154.5720 O   0  0  0  0  0  0  0  0  0  0  0  0
  156.9740  213.4820  156.2860 O   0  0  0  0  0  1  0  0  0  0  0  0
  159.6070  212.1430  155.1970 C   0  0  2  0  0  0  0  0  0  0  0  0
  158.6050  214.1950  153.9790 C   0  0  0  0  0  2  0  0  0  0  0  0
  157.8950  214.4530  152.6670 C   0  0  0  0  0  1  0  0  0  0  0  0
  162.4910  212.1680  149.0110 O   0  0  0  0  0  1  0  0  0  0  0  0
  161.5090  211.3450  149.5750 C   0  0  1  0  0  3  0  0  0  0  0  0
  162.0720  210.2770  150.3110 O   0  0  0  0  0  0  0  0  0  0  0  0
  159.7120  205.7330  149.9690 C   0  0  0  0  0  1  0  0  0  0  0  0
  162.1830  206.9210  148.7100 C   0  0  1  0  0  3  0  0  0  0  0  0
  162.6300  208.3660  148.9460 C   0  0  2  0  0  3  0  0  0  0  0  0
  161.2040  208.1270  150.9450 C   0  0  0  0  0  2  0  0  0  0  0  0
  161.5770  209.0630  149.8060 C   0  0  1  0  0  3  0  0  0  0  0  0
  162.8320  209.0540  147.7470 O   0  0  0  0  0  1  0  0  0  0  0  0
  161.3490  206.4690  150.2450 P   0  0  1  0  0  4  0  0  0  0  0  0
  161.3610  205.9200  146.5240 C   0  0  0  0  0  0  0  0  0  0  0  0
  161.2310  206.8380  147.6080 N   0  0  0  0  0  2  0  0  0  0  0  0
  162.7610  204.8090  146.4050 S   0  0  0  0  0  1  0  0  0  0  0  0
  160.4800  205.8930  145.6310 O   0  0  0  0  0  0  0  0  0  0  0  0
  162.3980  205.3730  151.2480 C   0  0  0  0  0  2  0  0  0  0  0  0
  161.6580  204.8860  152.4870 C   0  0  1  0  0  3  0  0  0  0  0  0
  160.9960  205.9500  153.0950 O   0  0  0  0  0  1  0  0  0  0  0  0
  160.6400  203.8240  152.1060 C   0  0  0  0  0  2  0  0  0  0  0  0
  161.3310  202.6370  151.4640 C   0  0  0  0  0  1  0  0  0  0  0  0
  1  5  1  1  0  0  0
  2  4  1  0  0  0  0
  2  3  1  0  0  0  0
  3  1  1  1  0  0  0
  4  3  1  0  0  0  0
  5  7  1  0  0  0  0
  6  7  2  0  0  0  0
  7  8  1  0  0  0  0
  8 19  1  0  0  0  0
  9 12  1  0  0  0  0
  9 18  1  1  0  0  0
 10 12  1  0  0  0  0
 10 11  1  0  0  0  0
 12 15  1  6  0  0  0
 13 20  1  1  0  0  0
 13 19  1  0  0  0  0
 13  9  1  0  0  0  0
 16 17  1  0  0  0  0
 16  9  1  0  0  0  0
 17 15  1  0  0  0  0
 19 11  1  0  0  0  0
 19 14  1  1  0  0  0
 21 20  1  0  0  0  0
 23 22  1  1  0  0  0
 23 24  1  0  0  0  0
 23  1  1  0  0  0  0
 26 33  1  6  0  0  0
 26 27  1  0  0  0  0
 26 31  1  0  0  0  0
 27 30  1  6  0  0  0
 27 29  1  0  0  0  0
 29 24  1  1  0  0  0
 29 28  1  0  0  0  0
 31 25  1  6  0  0  0
 31 28  1  0  0  0  0
 31 36  1  0  0  0  0
 32 33  1  0  0  0  0
 34 32  1  0  0  0  0
 35 32  2  0  0  0  0
 36 37  1  0  0  0  0
 37 38  1  6  0  0  0
 39 37  1  0  0  0  0
 40 39  1  0  0  0  0
M  END
>  <MODEL>
8

>  <REMARK>
 VINA RESULT:      -3.4      2.486      4.488
  Name = 
  12 active torsions:
  status: ('A' for Active; 'I' for Inactive)
    1  A    between atoms: C_2  and  C_16
    2  A    between atoms: C_4  and  N_21
    3  A    between atoms: C_13  and  C_20
    4  A    between atoms: C_16  and  C_24
    5  A    between atoms: C_19  and  O_27
    6  A    between atoms: C_23  and  C_39
    7  A    between atoms: C_24  and  P_31
    8  A    between atoms: C_25  and  O_27
    9  A    between atoms: C_25  and  C_39
   10  A    between atoms: N_32  and  C_39
   11  A    between atoms: C_35  and  C_38
   12  A    between atoms: C_37  and  C_38
                            x       y       z     vdW  Elec       q    Type
                         _______ _______ _______ _____ _____    ______ ____

>  <TORSDO>
F 12

$$$$
=
 OpenBabel11072415163D

 40 43  0  0  1  0  0  0  0  0999 V2000
  161.5550  210.2910  150.4190 C   0  0  2  0  0  3  0  0  0  0  0  0
  162.6000  211.2290  148.4820 O   0  0  0  0  0  0  0  0  0  0  0  0
  162.4900  211.3630  149.8790 C   0  0  1  0  0  3  0  0  0  0  0  0
  161.7560  212.2520  148.9500 C   0  0  0  0  0  2  0  0  0  0  0  0
  161.5300  210.3520  151.8780 N   0  0  0  0  0  2  0  0  0  0  0  0
  160.1460  212.2280  151.9840 O   0  0  0  0  0  0  0  0  0  0  0  0
  160.8060  211.3470  152.5980 C   0  0  0  0  0  0  0  0  0  0  0  0
  160.8200  211.3390  154.0950 C   0  0  0  0  0  2  0  0  0  0  0  0
  157.7430  212.2700  156.3090 C   0  0  1  0  0  0  0  0  0  0  0  0
  157.6950  212.6260  153.7820 C   0  0  0  0  0  2  0  0  0  0  0  0
  158.4110  211.2840  153.6620 C   0  0  0  0  0  2  0  0  0  0  0  0
  156.9140  212.6450  155.0890 C   0  0  2  0  0  3  0  0  0  0  0  0
  159.2390  212.0080  155.9900 C   0  0  2  0  0  3  0  0  0  0  0  0
  159.3560  209.5960  155.1670 C   0  0  0  0  0  1  0  0  0  0  0  0
  156.4370  214.0450  155.3830 C   0  0  0  0  0  2  0  0  0  0  0  0
  157.5820  213.4780  157.2140 C   0  0  0  0  0  2  0  0  0  0  0  0
  156.4820  214.2300  156.7750 O   0  0  0  0  0  0  0  0  0  0  0  0
  157.1720  211.1440  156.9210 O   0  0  0  0  0  1  0  0  0  0  0  0
  159.4620  211.0640  154.7620 C   0  0  2  0  0  0  0  0  0  0  0  0
  160.0350  211.5920  157.2300 C   0  0  0  0  0  2  0  0  0  0  0  0
  161.3880  212.2700  157.2530 C   0  0  0  0  0  1  0  0  0  0  0  0
  162.2600  208.0210  150.9960 O   0  0  0  0  0  1  0  0  0  0  0  0
  161.9960  208.9000  149.9390 C   0  0  1  0  0  3  0  0  0  0  0  0
  161.1350  208.3270  148.9750 O   0  0  0  0  0  0  0  0  0  0  0  0
  163.4850  204.3290  146.7770 C   0  0  0  0  0  1  0  0  0  0  0  0
  160.8380  204.7060  148.1750 C   0  0  1  0  0  3  0  0  0  0  0  0
  160.4100  206.0300  148.8120 C   0  0  2  0  0  3  0  0  0  0  0  0
  162.1180  206.9350  147.2810 C   0  0  0  0  0  2  0  0  0  0  0  0
  161.5680  207.0200  148.6950 C   0  0  1  0  0  3  0  0  0  0  0  0
  160.0230  205.8680  150.1450 O   0  0  0  0  0  1  0  0  0  0  0  0
  161.8960  205.2080  146.8020 P   0  0  1  0  0  4  0  0  0  0  0  0
  161.2470  202.5830  149.5100 C   0  0  0  0  0  0  0  0  0  0  0  0
  161.6170  203.9000  149.1080 N   0  0  0  0  0  2  0  0  0  0  0  0
  159.7350  201.8200  148.9260 S   0  0  0  0  0  1  0  0  0  0  0  0
  161.9910  201.9460  150.2940 O   0  0  0  0  0  0  0  0  0  0  0  0
  161.0230  205.0260  145.2170 C   0  0  0  0  0  2  0  0  0  0  0  0
  160.9360  203.5630  144.8020 C   0  0  1  0  0  3  0  0  0  0  0  0
  161.5760  202.7620  145.7460 O   0  0  0  0  0  1  0  0  0  0  0  0
  159.4830  203.1340  144.6940 C   0  0  0  0  0  2  0  0  0  0  0  0
  159.3630  201.6310  144.8520 C   0  0  0  0  0  1  0  0  0  0  0  0
  1  5  1  1  0  0  0
  2  4  1  0  0  0  0
  2  3  1  0  0  0  0
  3  1  1  1  0  0  0
  4  3  1  0  0  0  0
  5  7  1  0  0  0  0
  6  7  2  0  0  0  0
  7  8  1  0  0  0  0
  8 19  1  0  0  0  0
  9 18  1  1  0  0  0
  9 16  1  0  0  0  0
 11 10  1  0  0  0  0
 11 19  1  0  0  0  0
 12 10  1  6  0  0  0
 12 15  1  0  0  0  0
 12  9  1  0  0  0  0
 13  9  1  0  0  0  0
 13 20  1  1  0  0  0
 15 17  1  0  0  0  0
 17 16  1  0  0  0  0
 19 14  1  1  0  0  0
 19 13  1  0  0  0  0
 20 21  1  0  0  0  0
 23  1  1  0  0  0  0
 23 22  1  1  0  0  0
 24 23  1  0  0  0  0
 26 27  1  0  0  0  0
 26 33  1  1  0  0  0
 27 30  1  1  0  0  0
 28 29  1  0  0  0  0
 29 27  1  0  0  0  0
 29 24  1  6  0  0  0
 31 25  1  1  0  0  0
 31 28  1  0  0  0  0
 31 26  1  0  0  0  0
 32 35  2  0  0  0  0
 33 32  1  0  0  0  0
 34 32  1  0  0  0  0
 36 31  1  0  0  0  0
 37 36  1  0  0  0  0
 37 38  1  1  0  0  0
 39 37  1  0  0  0  0
 39 40  1  0  0  0  0
M  END
>  <MODEL>
9

>  <REMARK>
 VINA RESULT:      -3.3      1.855      2.938
  Name = 
  12 active torsions:
  status: ('A' for Active; 'I' for Inactive)
    1  A    between atoms: C_2  and  C_16
    2  A    between atoms: C_4  and  N_21
    3  A    between atoms: C_13  and  C_20
    4  A    between atoms: C_16  and  C_24
    5  A    between atoms: C_19  and  O_27
    6  A    between atoms: C_23  and  C_39
    7  A    between atoms: C_24  and  P_31
    8  A    between atoms: C_25  and  O_27
    9  A    between atoms: C_25  and  C_39
   10  A    between atoms: N_32  and  C_39
   11  A    between atoms: C_35  and  C_38
   12  A    between atoms: C_37  and  C_38
                            x       y       z     vdW  Elec       q    Type
                         _______ _______ _______ _____ _____    ______ ____

>  <TORSDO>
F 12

$$$$
