=
 OpenBabel11072415233D

 25 27  0  0  0  0  0  0  0  0999 V2000
  161.6020  204.9320  147.6070 C   0  0  0  0  0  0  0  0  0  0  0  0
  161.9450  206.2760  147.4720 C   0  0  0  0  0  3  0  0  0  0  0  0
  161.4930  207.4500  150.9120 C   0  0  0  0  0  0  0  0  0  0  0  0
  161.8850  207.0670  148.6280 C   0  0  0  0  0  0  0  0  0  0  0  0
  161.9810  208.8760  150.1950 S   0  0  0  0  0  0  0  0  0  0  0  0
  161.1480  205.1390  149.9880 C   0  0  0  0  0  0  0  0  0  0  0  0
  161.2200  204.3840  148.8090 C   0  0  0  0  0  0  0  0  0  0  0  0
  161.4890  206.5080  149.8850 C   0  0  0  0  0  0  0  0  0  0  0  0
  161.5710  203.9390  146.6510 C   0  0  0  0  0  3  0  0  0  0  0  0
  162.1980  208.3880  148.6190 N   0  0  0  0  0  0  0  0  0  0  0  0
  161.1570  202.8230  147.3790 C   0  0  0  0  0  0  0  0  0  0  0  0
  160.9560  203.1130  148.6510 O   0  0  0  0  0  0  0  0  0  0  0  0
  161.3450  200.3590  147.5350 O   0  0  0  0  0  1  0  0  0  0  0  0
  160.4470  201.3490  145.6750 O   0  0  0  0  0  0  0  0  0  0  0  0
  160.9620  201.4840  146.8160 C   0  0  0  0  0  0  0  0  0  0  0  0
  160.8980  207.1300  153.4670 C   0  0  0  0  0  0  0  0  0  0  0  0
  161.1710  207.2740  152.3020 C   0  0  0  0  0  0  0  0  0  0  0  0
  160.5670  206.9620  154.8820 C   0  0  0  0  0  2  0  0  0  0  0  0
  161.2850  208.0200  155.6980 C   0  0  0  0  0  2  0  0  0  0  0  0
  160.8640  209.3180  155.3020 O   0  0  0  0  0  0  0  0  0  0  0  0
  161.7570  210.2840  154.8310 C   0  0  0  0  0  0  0  0  0  0  0  0
  162.7750  210.7360  155.6600 O   0  0  0  0  0  1  0  0  0  0  0  0
  161.6500  210.7520  153.6660 O   0  0  0  0  0  0  0  0  0  0  0  0
  160.7480  204.5610  151.2360 N   0  0  0  0  0  2  0  0  0  0  0  0
  161.5770  203.7780  151.9640 O   0  0  0  0  0  1  0  0  0  0  0  0
  1  7  1  0  0  0  0
  2  1  2  0  0  0  0
  2  4  1  0  0  0  0
  3 17  1  0  0  0  0
  4  8  1  0  0  0  0
  5  3  1  0  0  0  0
  6 24  1  0  0  0  0
  7  6  2  0  0  0  0
  8  6  1  0  0  0  0
  8  3  2  0  0  0  0
  9 11  2  0  0  0  0
  9  1  1  0  0  0  0
 10  4  2  0  0  0  0
 10  5  1  0  0  0  0
 11 12  1  0  0  0  0
 12  7  1  0  0  0  0
 14 15  2  0  0  0  0
 15 11  1  0  0  0  0
 15 13  1  0  0  0  0
 16 18  1  0  0  0  0
 17 16  3  0  0  0  0
 18 19  1  0  0  0  0
 20 19  1  0  0  0  0
 21 20  1  0  0  0  0
 21 22  1  0  0  0  0
 23 21  2  0  0  0  0
 24 25  1  0  0  0  0
M  END
>  <MODEL>
1

>  <REMARK>
 VINA RESULT:      -8.2      0.000      0.000
  Name = 
  7 active torsions:
  status: ('A' for Active; 'I' for Inactive)
    1  A    between atoms: C_1  and  O_24
    2  A    between atoms: C_4  and  C_19
    3  A    between atoms: C_11  and  N_14
    4  A    between atoms: C_13  and  C_22
    5  A    between atoms: C_15  and  C_22
    6  A    between atoms: C_15  and  O_24
    7  A    between atoms: C_17  and  C_23
                            x       y       z     vdW  Elec       q    Type
                         _______ _______ _______ _____ _____    ______ ____

>  <TORSDO>
F 7

$$$$
=
 OpenBabel11072415233D

 25 27  0  0  0  0  0  0  0  0999 V2000
  161.1690  207.0110  153.0620 C   0  0  0  0  0  0  0  0  0  0  0  0
  161.0930  205.6230  153.1600 C   0  0  0  0  0  3  0  0  0  0  0  0
  161.1350  204.6820  149.6200 C   0  0  0  0  0  0  0  0  0  0  0  0
  161.0850  204.9010  151.9580 C   0  0  0  0  0  0  0  0  0  0  0  0
  161.0390  203.1650  150.3080 S   0  0  0  0  0  0  0  0  0  0  0  0
  161.2310  206.9800  150.6300 C   0  0  0  0  0  0  0  0  0  0  0  0
  161.2350  207.6650  151.8540 C   0  0  0  0  0  0  0  0  0  0  0  0
  161.1530  205.5700  150.6940 C   0  0  0  0  0  0  0  0  0  0  0  0
  161.1930  207.9560  154.0660 C   0  0  0  0  0  3  0  0  0  0  0  0
  161.0160  203.5450  151.9270 N   0  0  0  0  0  0  0  0  0  0  0  0
  161.2750  209.1560  153.3570 C   0  0  0  0  0  0  0  0  0  0  0  0
  161.2980  208.9560  152.0520 O   0  0  0  0  0  0  0  0  0  0  0  0
  162.1190  210.7080  155.0920 O   0  0  0  0  0  1  0  0  0  0  0  0
  160.6590  211.4330  153.4830 O   0  0  0  0  0  0  0  0  0  0  0  0
  161.3300  210.4850  153.9710 C   0  0  0  0  0  0  0  0  0  0  0  0
  161.2520  205.1980  147.0300 C   0  0  0  0  0  0  0  0  0  0  0  0
  161.1980  204.9650  148.2120 C   0  0  0  0  0  0  0  0  0  0  0  0
  161.3210  205.4760  145.5950 C   0  0  0  0  0  2  0  0  0  0  0  0
  160.8030  204.2770  144.8240 C   0  0  0  0  0  2  0  0  0  0  0  0
  161.4090  203.0840  145.3030 O   0  0  0  0  0  0  0  0  0  0  0  0
  160.6610  201.9760  145.7120 C   0  0  0  0  0  0  0  0  0  0  0  0
  160.6800  201.5940  147.0470 O   0  0  0  0  0  1  0  0  0  0  0  0
  159.9720  201.3200  144.8870 O   0  0  0  0  0  0  0  0  0  0  0  0
  161.2990  207.6690  149.3760 N   0  0  0  0  0  2  0  0  0  0  0  0
  162.4590  208.1700  148.8930 O   0  0  0  0  0  1  0  0  0  0  0  0
  1  2  2  0  0  0  0
  1  9  1  0  0  0  0
  3  5  1  0  0  0  0
  3  8  2  0  0  0  0
  4  2  1  0  0  0  0
  5 10  1  0  0  0  0
  6  8  1  0  0  0  0
  6  7  2  0  0  0  0
  7 12  1  0  0  0  0
  7  1  1  0  0  0  0
  8  4  1  0  0  0  0
 10  4  2  0  0  0  0
 11 15  1  0  0  0  0
 11  9  2  0  0  0  0
 12 11  1  0  0  0  0
 14 15  2  0  0  0  0
 15 13  1  0  0  0  0
 16 17  3  0  0  0  0
 17  3  1  0  0  0  0
 18 16  1  0  0  0  0
 19 20  1  0  0  0  0
 19 18  1  0  0  0  0
 20 21  1  0  0  0  0
 21 22  1  0  0  0  0
 23 21  2  0  0  0  0
 24  6  1  0  0  0  0
 25 24  1  0  0  0  0
M  END
>  <MODEL>
2

>  <REMARK>
 VINA RESULT:      -8.2      2.043      8.477
  Name = 
  7 active torsions:
  status: ('A' for Active; 'I' for Inactive)
    1  A    between atoms: C_1  and  O_24
    2  A    between atoms: C_4  and  C_19
    3  A    between atoms: C_11  and  N_14
    4  A    between atoms: C_13  and  C_22
    5  A    between atoms: C_15  and  C_22
    6  A    between atoms: C_15  and  O_24
    7  A    between atoms: C_17  and  C_23
                            x       y       z     vdW  Elec       q    Type
                         _______ _______ _______ _____ _____    ______ ____

>  <TORSDO>
F 7

$$$$
=
 OpenBabel11072415233D

 25 27  0  0  0  0  0  0  0  0999 V2000
  160.9260  202.6200  149.6870 C   0  0  0  0  0  0  0  0  0  0  0  0
  160.8880  202.7220  151.0770 C   0  0  0  0  0  3  0  0  0  0  0  0
  161.4250  206.3180  151.5170 C   0  0  0  0  0  0  0  0  0  0  0  0
  161.0650  204.0000  151.6250 C   0  0  0  0  0  0  0  0  0  0  0  0
  161.2900  205.8620  153.1160 S   0  0  0  0  0  0  0  0  0  0  0  0
  161.3050  205.0030  149.3790 C   0  0  0  0  0  0  0  0  0  0  0  0
  161.1250  203.7090  148.8710 C   0  0  0  0  0  0  0  0  0  0  0  0
  161.2730  205.1410  150.7860 C   0  0  0  0  0  0  0  0  0  0  0  0
  160.7850  201.5030  148.8900 C   0  0  0  0  0  3  0  0  0  0  0  0
  161.0450  204.2230  152.9640 N   0  0  0  0  0  0  0  0  0  0  0  0
  160.9150  202.0260  147.6020 C   0  0  0  0  0  0  0  0  0  0  0  0
  161.1160  203.3310  147.6200 O   0  0  0  0  0  0  0  0  0  0  0  0
  161.2730  199.9160  146.3570 O   0  0  0  0  0  1  0  0  0  0  0  0
  160.3860  201.7540  145.3170 O   0  0  0  0  0  0  0  0  0  0  0  0
  160.8410  201.2370  146.3700 C   0  0  0  0  0  0  0  0  0  0  0  0
  161.8220  208.7790  150.6380 C   0  0  0  0  0  0  0  0  0  0  0  0
  161.6390  207.6580  151.0390 C   0  0  0  0  0  0  0  0  0  0  0  0
  162.0500  210.1410  150.1520 C   0  0  0  0  0  2  0  0  0  0  0  0
  162.0570  210.1400  148.6350 C   0  0  0  0  0  2  0  0  0  0  0  0
  161.6300  211.4030  148.1400 O   0  0  0  0  0  0  0  0  0  0  0  0
  162.4200  212.5510  148.2340 C   0  0  0  0  0  0  0  0  0  0  0  0
  161.8470  213.7430  148.6550 O   0  0  0  0  0  1  0  0  0  0  0  0
  163.6450  212.5200  147.9410 O   0  0  0  0  0  0  0  0  0  0  0  0
  161.5130  206.1320  148.5220 N   0  0  0  0  0  2  0  0  0  0  0  0
  160.5760  206.5480  147.6400 O   0  0  0  0  0  1  0  0  0  0  0  0
  1  2  2  0  0  0  0
  2  4  1  0  0  0  0
  3  5  1  0  0  0  0
  4 10  2  0  0  0  0
  6  8  1  0  0  0  0
  7  6  2  0  0  0  0
  7  1  1  0  0  0  0
  8  3  2  0  0  0  0
  8  4  1  0  0  0  0
  9  1  1  0  0  0  0
 10  5  1  0  0  0  0
 11 12  1  0  0  0  0
 11  9  2  0  0  0  0
 12  7  1  0  0  0  0
 13 15  1  0  0  0  0
 14 15  2  0  0  0  0
 15 11  1  0  0  0  0
 16 17  3  0  0  0  0
 17  3  1  0  0  0  0
 18 16  1  0  0  0  0
 19 18  1  0  0  0  0
 20 21  1  0  0  0  0
 20 19  1  0  0  0  0
 21 22  1  0  0  0  0
 23 21  2  0  0  0  0
 24  6  1  0  0  0  0
 25 24  1  0  0  0  0
M  END
>  <MODEL>
3

>  <REMARK>
 VINA RESULT:      -7.9      3.331      4.371
  Name = 
  7 active torsions:
  status: ('A' for Active; 'I' for Inactive)
    1  A    between atoms: C_1  and  O_24
    2  A    between atoms: C_4  and  C_19
    3  A    between atoms: C_11  and  N_14
    4  A    between atoms: C_13  and  C_22
    5  A    between atoms: C_15  and  C_22
    6  A    between atoms: C_15  and  O_24
    7  A    between atoms: C_17  and  C_23
                            x       y       z     vdW  Elec       q    Type
                         _______ _______ _______ _____ _____    ______ ____

>  <TORSDO>
F 7

$$$$
=
 OpenBabel11072415233D

 25 27  0  0  0  0  0  0  0  0999 V2000
  161.2900  208.0590  152.3960 C   0  0  0  0  0  0  0  0  0  0  0  0
  161.5500  208.6990  151.1850 C   0  0  0  0  0  3  0  0  0  0  0  0
  161.4370  205.8630  148.8700 C   0  0  0  0  0  0  0  0  0  0  0  0
  161.5850  207.8960  150.0370 C   0  0  0  0  0  0  0  0  0  0  0  0
  161.7650  207.0890  147.7880 S   0  0  0  0  0  0  0  0  0  0  0  0
  161.1010  205.8660  151.3600 C   0  0  0  0  0  0  0  0  0  0  0  0
  161.0750  206.7030  152.4840 C   0  0  0  0  0  0  0  0  0  0  0  0
  161.3630  206.4840  150.1160 C   0  0  0  0  0  0  0  0  0  0  0  0
  161.1990  208.5940  153.6640 C   0  0  0  0  0  3  0  0  0  0  0  0
  161.8270  208.4070  148.8020 N   0  0  0  0  0  0  0  0  0  0  0  0
  160.9250  207.4740  154.4510 C   0  0  0  0  0  0  0  0  0  0  0  0
  160.8570  206.3710  153.7300 O   0  0  0  0  0  0  0  0  0  0  0  0
  161.6800  208.1030  156.7240 O   0  0  0  0  0  1  0  0  0  0  0  0
  159.7070  206.9820  156.4140 O   0  0  0  0  0  0  0  0  0  0  0  0
  160.7330  207.5030  155.9030 C   0  0  0  0  0  0  0  0  0  0  0  0
  161.1190  203.3100  148.2630 C   0  0  0  0  0  0  0  0  0  0  0  0
  161.2620  204.4740  148.5410 C   0  0  0  0  0  0  0  0  0  0  0  0
  160.9480  201.8980  147.9200 C   0  0  0  0  0  2  0  0  0  0  0  0
  160.8260  201.7560  146.4140 C   0  0  0  0  0  2  0  0  0  0  0  0
  161.4560  202.8510  145.7630 O   0  0  0  0  0  0  0  0  0  0  0  0
  160.7730  203.6930  144.8820 C   0  0  0  0  0  0  0  0  0  0  0  0
  161.2620  204.9690  144.6370 O   0  0  0  0  0  1  0  0  0  0  0  0
  159.7190  203.3110  144.3070 O   0  0  0  0  0  0  0  0  0  0  0  0
  160.8770  204.4540  151.4610 N   0  0  0  0  0  2  0  0  0  0  0  0
  161.8630  203.5920  151.8010 O   0  0  0  0  0  1  0  0  0  0  0  0
  1  7  1  0  0  0  0
  1  9  1  0  0  0  0
  2  1  2  0  0  0  0
  3  8  2  0  0  0  0
  4  8  1  0  0  0  0
  4  2  1  0  0  0  0
  5 10  1  0  0  0  0
  5  3  1  0  0  0  0
  6 24  1  0  0  0  0
  6  7  2  0  0  0  0
  7 12  1  0  0  0  0
  8  6  1  0  0  0  0
  9 11  2  0  0  0  0
 10  4  2  0  0  0  0
 11 15  1  0  0  0  0
 12 11  1  0  0  0  0
 15 14  2  0  0  0  0
 15 13  1  0  0  0  0
 16 17  3  0  0  0  0
 17  3  1  0  0  0  0
 18 16  1  0  0  0  0
 19 18  1  0  0  0  0
 20 19  1  0  0  0  0
 21 20  1  0  0  0  0
 22 21  1  0  0  0  0
 23 21  2  0  0  0  0
 24 25  1  0  0  0  0
M  END
>  <MODEL>
4

>  <REMARK>
 VINA RESULT:      -7.9      1.794      7.815
  Name = 
  7 active torsions:
  status: ('A' for Active; 'I' for Inactive)
    1  A    between atoms: C_1  and  O_24
    2  A    between atoms: C_4  and  C_19
    3  A    between atoms: C_11  and  N_14
    4  A    between atoms: C_13  and  C_22
    5  A    between atoms: C_15  and  C_22
    6  A    between atoms: C_15  and  O_24
    7  A    between atoms: C_17  and  C_23
                            x       y       z     vdW  Elec       q    Type
                         _______ _______ _______ _____ _____    ______ ____

>  <TORSDO>
F 7

$$$$
=
 OpenBabel11072415233D

 25 27  0  0  0  0  0  0  0  0999 V2000
  161.2390  203.9590  149.0770 C   0  0  0  0  0  0  0  0  0  0  0  0
  161.2380  203.5450  150.4080 C   0  0  0  0  0  3  0  0  0  0  0  0
  161.0780  206.7720  152.1330 C   0  0  0  0  0  0  0  0  0  0  0  0
  161.1830  204.5480  151.3850 C   0  0  0  0  0  0  0  0  0  0  0  0
  161.1000  205.7530  153.4540 S   0  0  0  0  0  0  0  0  0  0  0  0
  161.1320  206.3180  149.6620 C   0  0  0  0  0  0  0  0  0  0  0  0
  161.1880  205.2860  148.7160 C   0  0  0  0  0  0  0  0  0  0  0  0
  161.1300  205.9310  151.0220 C   0  0  0  0  0  0  0  0  0  0  0  0
  161.2870  203.2010  147.9260 C   0  0  0  0  0  3  0  0  0  0  0  0
  161.1740  204.2650  152.7140 N   0  0  0  0  0  0  0  0  0  0  0  0
  161.2610  204.1660  146.9190 C   0  0  0  0  0  0  0  0  0  0  0  0
  161.2030  205.3900  147.4130 O   0  0  0  0  0  0  0  0  0  0  0  0
  161.7700  204.8240  144.5870 O   0  0  0  0  0  0  0  0  0  0  0  0
  160.8870  202.7630  145.0560 O   0  0  0  0  0  1  0  0  0  0  0  0
  161.2930  203.8760  145.4840 C   0  0  0  0  0  0  0  0  0  0  0  0
  160.9430  209.4100  152.2200 C   0  0  0  0  0  0  0  0  0  0  0  0
  161.0060  208.2070  152.1780 C   0  0  0  0  0  0  0  0  0  0  0  0
  160.8620  210.8700  152.2740 C   0  0  0  0  0  2  0  0  0  0  0  0
  160.6880  211.3120  153.7150 C   0  0  0  0  0  2  0  0  0  0  0  0
  161.8200  210.9340  154.4870 O   0  0  0  0  0  0  0  0  0  0  0  0
  161.7220  210.0960  155.6010 C   0  0  0  0  0  0  0  0  0  0  0  0
  162.7850  210.0120  156.4900 O   0  0  0  0  0  1  0  0  0  0  0  0
  160.6830  209.4150  155.8090 O   0  0  0  0  0  0  0  0  0  0  0  0
  161.0800  207.6970  149.2780 N   0  0  0  0  0  2  0  0  0  0  0  0
  162.1590  208.3460  148.7820 O   0  0  0  0  0  1  0  0  0  0  0  0
  1  2  2  0  0  0  0
  2  4  1  0  0  0  0
  3 17  1  0  0  0  0
  3  5  1  0  0  0  0
  4 10  2  0  0  0  0
  6  8  1  0  0  0  0
  7  1  1  0  0  0  0
  7  6  2  0  0  0  0
  8  4  1  0  0  0  0
  8  3  2  0  0  0  0
  9  1  1  0  0  0  0
 10  5  1  0  0  0  0
 11 12  1  0  0  0  0
 11  9  2  0  0  0  0
 12  7  1  0  0  0  0
 13 15  2  0  0  0  0
 14 15  1  0  0  0  0
 15 11  1  0  0  0  0
 16 18  1  0  0  0  0
 17 16  3  0  0  0  0
 18 19  1  0  0  0  0
 19 20  1  0  0  0  0
 20 21  1  0  0  0  0
 21 23  2  0  0  0  0
 21 22  1  0  0  0  0
 24  6  1  0  0  0  0
 25 24  1  0  0  0  0
M  END
>  <MODEL>
5

>  <REMARK>
 VINA RESULT:      -7.8      2.088      3.162
  Name = 
  7 active torsions:
  status: ('A' for Active; 'I' for Inactive)
    1  A    between atoms: C_1  and  O_24
    2  A    between atoms: C_4  and  C_19
    3  A    between atoms: C_11  and  N_14
    4  A    between atoms: C_13  and  C_22
    5  A    between atoms: C_15  and  C_22
    6  A    between atoms: C_15  and  O_24
    7  A    between atoms: C_17  and  C_23
                            x       y       z     vdW  Elec       q    Type
                         _______ _______ _______ _____ _____    ______ ____

>  <TORSDO>
F 7

$$$$
=
 OpenBabel11072415233D

 25 27  0  0  0  0  0  0  0  0999 V2000
  161.8560  209.2330  150.8350 C   0  0  0  0  0  0  0  0  0  0  0  0
  161.7640  208.6800  152.1110 C   0  0  0  0  0  3  0  0  0  0  0  0
  161.2450  205.1470  151.2940 C   0  0  0  0  0  0  0  0  0  0  0  0
  161.5560  207.2960  152.1900 C   0  0  0  0  0  0  0  0  0  0  0  0
  161.2200  205.0510  152.9600 S   0  0  0  0  0  0  0  0  0  0  0  0
  161.5460  207.0890  149.7280 C   0  0  0  0  0  0  0  0  0  0  0  0
  161.7520  208.4750  149.6920 C   0  0  0  0  0  0  0  0  0  0  0  0
  161.4470  206.4960  151.0080 C   0  0  0  0  0  0  0  0  0  0  0  0
  162.0540  210.5460  150.4660 C   0  0  0  0  0  3  0  0  0  0  0  0
  161.4530  206.6450  153.3780 N   0  0  0  0  0  0  0  0  0  0  0  0
  162.0540  210.4780  149.0710 C   0  0  0  0  0  0  0  0  0  0  0  0
  161.8740  209.2430  148.6410 O   0  0  0  0  0  0  0  0  0  0  0  0
  161.1760  212.0740  147.3950 O   0  0  0  0  0  0  0  0  0  0  0  0
  163.3440  212.2130  148.1210 O   0  0  0  0  0  1  0  0  0  0  0  0
  162.2320  211.6260  148.1800 C   0  0  0  0  0  0  0  0  0  0  0  0
  160.9770  203.1130  149.6270 C   0  0  0  0  0  0  0  0  0  0  0  0
  161.0990  204.0420  150.3850 C   0  0  0  0  0  0  0  0  0  0  0  0
  160.8320  201.9820  148.7100 C   0  0  0  0  0  2  0  0  0  0  0  0
  160.7740  202.4930  147.2830 C   0  0  0  0  0  2  0  0  0  0  0  0
  161.8370  203.4070  147.0440 O   0  0  0  0  0  0  0  0  0  0  0  0
  161.9890  204.0790  145.8280 C   0  0  0  0  0  0  0  0  0  0  0  0
  160.9870  203.9950  144.8710 O   0  0  0  0  0  0  0  0  0  0  0  0
  163.0220  204.7580  145.5880 O   0  0  0  0  0  1  0  0  0  0  0  0
  161.4380  206.3070  148.5320 N   0  0  0  0  0  2  0  0  0  0  0  0
  160.3160  206.3020  147.7760 O   0  0  0  0  0  1  0  0  0  0  0  0
  1  2  2  0  0  0  0
  2  4  1  0  0  0  0
  3  5  1  0  0  0  0
  4 10  2  0  0  0  0
  5 10  1  0  0  0  0
  6  8  1  0  0  0  0
  7  6  2  0  0  0  0
  7  1  1  0  0  0  0
  8  3  2  0  0  0  0
  8  4  1  0  0  0  0
  9  1  1  0  0  0  0
 11  9  2  0  0  0  0
 12 11  1  0  0  0  0
 12  7  1  0  0  0  0
 13 15  2  0  0  0  0
 14 15  1  0  0  0  0
 15 11  1  0  0  0  0
 16 17  3  0  0  0  0
 17  3  1  0  0  0  0
 18 16  1  0  0  0  0
 19 18  1  0  0  0  0
 20 19  1  0  0  0  0
 21 20  1  0  0  0  0
 22 21  2  0  0  0  0
 23 21  1  0  0  0  0
 24  6  1  0  0  0  0
 25 24  1  0  0  0  0
M  END
>  <MODEL>
6

>  <REMARK>
 VINA RESULT:      -7.8      3.226      7.536
  Name = 
  7 active torsions:
  status: ('A' for Active; 'I' for Inactive)
    1  A    between atoms: C_1  and  O_24
    2  A    between atoms: C_4  and  C_19
    3  A    between atoms: C_11  and  N_14
    4  A    between atoms: C_13  and  C_22
    5  A    between atoms: C_15  and  C_22
    6  A    between atoms: C_15  and  O_24
    7  A    between atoms: C_17  and  C_23
                            x       y       z     vdW  Elec       q    Type
                         _______ _______ _______ _____ _____    ______ ____

>  <TORSDO>
F 7

$$$$
=
 OpenBabel11072415233D

 25 27  0  0  0  0  0  0  0  0999 V2000
  161.2630  206.3310  151.8650 C   0  0  0  0  0  0  0  0  0  0  0  0
  161.1310  205.1090  152.5210 C   0  0  0  0  0  3  0  0  0  0  0  0
  160.8820  202.8210  149.6720 C   0  0  0  0  0  0  0  0  0  0  0  0
  161.0060  203.9670  151.7190 C   0  0  0  0  0  0  0  0  0  0  0  0
  160.7660  201.7200  150.9210 S   0  0  0  0  0  0  0  0  0  0  0  0
  161.1530  205.3190  149.6550 C   0  0  0  0  0  0  0  0  0  0  0  0
  161.2740  206.4360  150.4930 C   0  0  0  0  0  0  0  0  0  0  0  0
  161.0160  204.0630  150.2900 C   0  0  0  0  0  0  0  0  0  0  0  0
  161.4000  207.5970  152.3950 C   0  0  0  0  0  3  0  0  0  0  0  0
  160.8730  202.7220  152.2450 N   0  0  0  0  0  0  0  0  0  0  0  0
  161.4870  208.4000  151.2570 C   0  0  0  0  0  0  0  0  0  0  0  0
  161.4090  207.6900  150.1470 O   0  0  0  0  0  0  0  0  0  0  0  0
  161.4510  210.5690  152.4510 O   0  0  0  0  0  1  0  0  0  0  0  0
  161.9560  210.4700  150.2190 O   0  0  0  0  0  0  0  0  0  0  0  0
  161.6440  209.8570  151.2740 C   0  0  0  0  0  0  0  0  0  0  0  0
  160.8410  202.2400  147.0940 C   0  0  0  0  0  0  0  0  0  0  0  0
  160.8590  202.5070  148.2690 C   0  0  0  0  0  0  0  0  0  0  0  0
  160.8230  201.9110  145.6680 C   0  0  0  0  0  2  0  0  0  0  0  0
  160.2970  203.0980  144.8830 C   0  0  0  0  0  2  0  0  0  0  0  0
  161.2910  204.1120  144.7980 O   0  0  0  0  0  0  0  0  0  0  0  0
  161.0120  205.3970  144.3260 C   0  0  0  0  0  0  0  0  0  0  0  0
  160.0930  206.1890  145.0000 O   0  0  0  0  0  1  0  0  0  0  0  0
  161.5810  205.8460  143.2960 O   0  0  0  0  0  0  0  0  0  0  0  0
  161.1640  205.4370  148.2270 N   0  0  0  0  0  2  0  0  0  0  0  0
  162.2750  205.7950  147.5440 O   0  0  0  0  0  1  0  0  0  0  0  0
  1  9  1  0  0  0  0
  1  2  2  0  0  0  0
  3  8  2  0  0  0  0
  3  5  1  0  0  0  0
  4 10  2  0  0  0  0
  4  2  1  0  0  0  0
  5 10  1  0  0  0  0
  6  8  1  0  0  0  0
  6  7  2  0  0  0  0
  7  1  1  0  0  0  0
  8  4  1  0  0  0  0
 11 15  1  0  0  0  0
 11  9  2  0  0  0  0
 12  7  1  0  0  0  0
 12 11  1  0  0  0  0
 14 15  2  0  0  0  0
 15 13  1  0  0  0  0
 16 17  3  0  0  0  0
 17  3  1  0  0  0  0
 18 16  1  0  0  0  0
 19 18  1  0  0  0  0
 20 19  1  0  0  0  0
 21 20  1  0  0  0  0
 21 22  1  0  0  0  0
 23 21  2  0  0  0  0
 24  6  1  0  0  0  0
 25 24  1  0  0  0  0
M  END
>  <MODEL>
7

>  <REMARK>
 VINA RESULT:      -7.7      2.888      7.954
  Name = 
  7 active torsions:
  status: ('A' for Active; 'I' for Inactive)
    1  A    between atoms: C_1  and  O_24
    2  A    between atoms: C_4  and  C_19
    3  A    between atoms: C_11  and  N_14
    4  A    between atoms: C_13  and  C_22
    5  A    between atoms: C_15  and  C_22
    6  A    between atoms: C_15  and  O_24
    7  A    between atoms: C_17  and  C_23
                            x       y       z     vdW  Elec       q    Type
                         _______ _______ _______ _____ _____    ______ ____

>  <TORSDO>
F 7

$$$$
=
 OpenBabel11072415233D

 25 27  0  0  0  0  0  0  0  0999 V2000
  161.2090  203.9520  149.0940 C   0  0  0  0  0  0  0  0  0  0  0  0
  161.2080  203.5750  150.4350 C   0  0  0  0  0  3  0  0  0  0  0  0
  161.2020  206.8510  152.0730 C   0  0  0  0  0  0  0  0  0  0  0  0
  161.2070  204.6050  151.3860 C   0  0  0  0  0  0  0  0  0  0  0  0
  161.1990  205.8690  153.4210 S   0  0  0  0  0  0  0  0  0  0  0  0
  161.2060  206.3290  149.6150 C   0  0  0  0  0  0  0  0  0  0  0  0
  161.2080  205.2690  148.6960 C   0  0  0  0  0  0  0  0  0  0  0  0
  161.2050  205.9790  150.9850 C   0  0  0  0  0  0  0  0  0  0  0  0
  161.2110  203.1610  147.9640 C   0  0  0  0  0  3  0  0  0  0  0  0
  161.2030  204.3590  152.7210 N   0  0  0  0  0  0  0  0  0  0  0  0
  161.2120  204.1000  146.9310 C   0  0  0  0  0  0  0  0  0  0  0  0
  161.2100  205.3370  147.3910 O   0  0  0  0  0  0  0  0  0  0  0  0
  161.6900  204.6830  144.5730 O   0  0  0  0  0  0  0  0  0  0  0  0
  160.7820  202.6520  145.1150 O   0  0  0  0  0  1  0  0  0  0  0  0
  161.2140  203.7690  145.5040 C   0  0  0  0  0  0  0  0  0  0  0  0
  161.1740  209.4940  152.0850 C   0  0  0  0  0  0  0  0  0  0  0  0
  161.1890  208.2890  152.0780 C   0  0  0  0  0  0  0  0  0  0  0  0
  161.1490  210.9570  152.0920 C   0  0  0  0  0  2  0  0  0  0  0  0
  159.9540  211.4380  152.8940 C   0  0  0  0  0  2  0  0  0  0  0  0
  159.7440  212.8280  152.6810 O   0  0  0  0  0  0  0  0  0  0  0  0
  159.3490  213.3450  151.4450 C   0  0  0  0  0  0  0  0  0  0  0  0
  158.1340  212.9540  150.8970 O   0  0  0  0  0  1  0  0  0  0  0  0
  160.0790  214.1590  150.8200 O   0  0  0  0  0  0  0  0  0  0  0  0
  161.2060  207.6980  149.1930 N   0  0  0  0  0  2  0  0  0  0  0  0
  162.3090  208.2930  148.6840 O   0  0  0  0  0  1  0  0  0  0  0  0
  1  2  2  0  0  0  0
  2  4  1  0  0  0  0
  3 17  1  0  0  0  0
  3  5  1  0  0  0  0
  4 10  2  0  0  0  0
  6  8  1  0  0  0  0
  7  1  1  0  0  0  0
  7  6  2  0  0  0  0
  8  4  1  0  0  0  0
  8  3  2  0  0  0  0
  9  1  1  0  0  0  0
 10  5  1  0  0  0  0
 11 12  1  0  0  0  0
 11  9  2  0  0  0  0
 12  7  1  0  0  0  0
 13 15  2  0  0  0  0
 14 15  1  0  0  0  0
 15 11  1  0  0  0  0
 16 18  1  0  0  0  0
 17 16  3  0  0  0  0
 18 19  1  0  0  0  0
 20 19  1  0  0  0  0
 21 20  1  0  0  0  0
 22 21  1  0  0  0  0
 23 21  2  0  0  0  0
 24  6  1  0  0  0  0
 25 24  1  0  0  0  0
M  END
>  <MODEL>
8

>  <REMARK>
 VINA RESULT:      -7.5      2.764      3.794
  Name = 
  7 active torsions:
  status: ('A' for Active; 'I' for Inactive)
    1  A    between atoms: C_1  and  O_24
    2  A    between atoms: C_4  and  C_19
    3  A    between atoms: C_11  and  N_14
    4  A    between atoms: C_13  and  C_22
    5  A    between atoms: C_15  and  C_22
    6  A    between atoms: C_15  and  O_24
    7  A    between atoms: C_17  and  C_23
                            x       y       z     vdW  Elec       q    Type
                         _______ _______ _______ _____ _____    ______ ____

>  <TORSDO>
F 7

$$$$
=
 OpenBabel11072415233D

 25 27  0  0  0  0  0  0  0  0999 V2000
  161.5810  209.0810  152.1660 C   0  0  0  0  0  0  0  0  0  0  0  0
  161.9180  209.4320  150.8600 C   0  0  0  0  0  3  0  0  0  0  0  0
  161.4810  206.2230  149.1490 C   0  0  0  0  0  0  0  0  0  0  0  0
  161.8630  208.4180  149.8950 C   0  0  0  0  0  0  0  0  0  0  0  0
  161.9540  207.1640  147.8550 S   0  0  0  0  0  0  0  0  0  0  0  0
  161.1400  206.7610  151.5800 C   0  0  0  0  0  0  0  0  0  0  0  0
  161.2080  207.8030  152.5150 C   0  0  0  0  0  0  0  0  0  0  0  0
  161.4760  207.0840  150.2460 C   0  0  0  0  0  0  0  0  0  0  0  0
  161.5490  209.8640  153.3000 C   0  0  0  0  0  3  0  0  0  0  0  0
  162.1660  208.6410  148.5900 N   0  0  0  0  0  0  0  0  0  0  0  0
  161.1430  208.9630  154.2860 C   0  0  0  0  0  0  0  0  0  0  0  0
  160.9490  207.7530  153.7960 O   0  0  0  0  0  0  0  0  0  0  0  0
  159.7310  209.7960  156.1410 O   0  0  0  0  0  0  0  0  0  0  0  0
  161.8940  209.1470  156.5180 O   0  0  0  0  0  1  0  0  0  0  0  0
  160.9510  209.3020  155.6980 C   0  0  0  0  0  0  0  0  0  0  0  0
  160.8660  203.6540  149.0480 C   0  0  0  0  0  0  0  0  0  0  0  0
  161.1450  204.8260  149.0970 C   0  0  0  0  0  0  0  0  0  0  0  0
  160.5270  202.2320  148.9830 C   0  0  0  0  0  2  0  0  0  0  0  0
  161.4950  201.5250  148.0530 C   0  0  0  0  0  2  0  0  0  0  0  0
  160.8230  201.0970  146.8750 O   0  0  0  0  0  0  0  0  0  0  0  0
  160.6280  201.9380  145.7770 C   0  0  0  0  0  0  0  0  0  0  0  0
  161.3520  203.1190  145.6820 O   0  0  0  0  0  1  0  0  0  0  0  0
  159.8030  201.6400  144.8720 O   0  0  0  0  0  0  0  0  0  0  0  0
  160.7520  205.4330  151.9520 N   0  0  0  0  0  2  0  0  0  0  0  0
  161.3850  204.7460  152.9310 O   0  0  0  0  0  1  0  0  0  0  0  0
  1  7  1  0  0  0  0
  1  9  1  0  0  0  0
  2  1  2  0  0  0  0
  3  8  2  0  0  0  0
  4  8  1  0  0  0  0
  4  2  1  0  0  0  0
  5 10  1  0  0  0  0
  5  3  1  0  0  0  0
  6 24  1  0  0  0  0
  6  7  2  0  0  0  0
  7 12  1  0  0  0  0
  8  6  1  0  0  0  0
  9 11  2  0  0  0  0
 10  4  2  0  0  0  0
 11 15  1  0  0  0  0
 12 11  1  0  0  0  0
 15 13  2  0  0  0  0
 15 14  1  0  0  0  0
 16 17  3  0  0  0  0
 17  3  1  0  0  0  0
 18 16  1  0  0  0  0
 19 18  1  0  0  0  0
 20 19  1  0  0  0  0
 21 20  1  0  0  0  0
 22 21  1  0  0  0  0
 23 21  2  0  0  0  0
 24 25  1  0  0  0  0
M  END
>  <MODEL>
9

>  <REMARK>
 VINA RESULT:      -7.5      1.622      8.074
  Name = 
  7 active torsions:
  status: ('A' for Active; 'I' for Inactive)
    1  A    between atoms: C_1  and  O_24
    2  A    between atoms: C_4  and  C_19
    3  A    between atoms: C_11  and  N_14
    4  A    between atoms: C_13  and  C_22
    5  A    between atoms: C_15  and  C_22
    6  A    between atoms: C_15  and  O_24
    7  A    between atoms: C_17  and  C_23
                            x       y       z     vdW  Elec       q    Type
                         _______ _______ _______ _____ _____    ______ ____

>  <TORSDO>
F 7

$$$$
