=
 OpenBabel11072414143D

 34 37  0  0  1  0  0  0  0  0999 V2000
  162.7930  205.7600  152.3710 O   0  0  0  0  0  1  0  0  0  0  0  0
  162.1870  206.7820  151.6320 C   0  0  1  0  0  3  0  0  0  0  0  0
  162.0830  206.3820  150.1460 C   0  0  1  0  0  3  0  0  0  0  0  0
  160.7380  205.7040  149.7910 C   0  0  1  0  0  3  0  0  0  0  0  0
  160.1080  206.3150  148.5460 C   0  0  0  0  0  1  0  0  0  0  0  0
  161.1640  202.3490  148.4880 C   0  0  0  0  0  3  0  0  0  0  0  0
  160.7520  203.3110  150.5090 C   0  0  0  0  0  0  0  0  0  0  0  0
  161.1210  203.6310  148.3090 N   0  0  0  0  0  0  0  0  0  0  0  0
  160.5250  203.5760  151.8900 N   0  0  0  0  0  1  0  0  0  0  0  0
  160.9490  201.9650  149.9200 C   0  0  0  0  0  2  0  0  0  0  0  0
  160.8720  204.2280  149.5720 C   0  0  0  0  0  0  0  0  0  0  0  0
  162.8330  207.4080  148.1620 O   0  0  0  0  0  0  0  0  0  0  0  0
  162.3410  207.5870  149.2650 C   0  0  0  0  0  0  0  0  0  0  0  0
  162.0320  208.9970  149.6910 C   0  0  0  0  0  2  0  0  0  0  0  0
  162.0650  209.8810  148.6110 O   0  0  0  0  0  0  0  0  0  0  0  0
  162.0590  211.1490  149.1900 C   0  0  0  0  0  2  0  0  0  0  0  0
  163.4710  212.5780  147.9100 O   0  0  0  0  0  0  0  0  0  0  0  0
  161.2140  212.6660  147.3610 N   0  0  0  0  0  1  0  0  0  0  0  0
  162.3000  212.1740  148.1380 C   0  0  0  0  0  0  0  0  0  0  0  0
  160.9230  207.0390  152.1690 O   0  0  0  0  0  0  0  0  0  0  0  0
  161.0800  206.8670  153.5470 C   0  0  0  0  0  2  0  0  0  0  0  0
  160.8260  208.1800  154.2610 C   0  0  0  0  0  2  0  0  0  0  0  0
  158.7010  211.2960  155.7470 C   0  0  0  0  0  2  0  0  0  0  0  0
  157.9530  211.8390  154.5310 C   0  0  1  0  0  0  0  0  0  0  0  0
  160.7540  209.3170  153.2530 C   0  0  1  0  0  3  0  0  0  0  0  0
  160.8500  210.4580  156.2340 O   0  0  0  0  0  0  0  0  0  0  0  0
  159.8190  211.5870  153.0130 O   0  0  0  0  0  0  0  0  0  0  0  0
  160.0570  210.7800  155.3620 C   0  0  0  0  0  0  0  0  0  0  0  0
  156.4520  211.8090  154.6970 C   0  0  0  0  0  2  0  0  0  0  0  0
  156.9440  213.9010  153.4530 C   0  0  0  0  0  1  0  0  0  0  0  0
  157.1900  213.1410  154.7450 C   0  0  2  0  0  3  0  0  0  0  0  0
  158.4250  211.4250  153.1280 C   0  0  0  0  0  2  0  0  0  0  0  0
  160.4140  210.6610  153.8910 C   0  0  1  0  0  0  0  0  0  0  0  0
  161.8510  210.3370  153.5550 C   0  0  0  0  0  2  0  0  0  0  0  0
  2 20  1  0  0  0  0
  2  1  1  1  0  0  0
  3 13  1  6  0  0  0
  3  2  1  0  0  0  0
  4  5  1  6  0  0  0
  4  3  1  0  0  0  0
  6 10  1  0  0  0  0
  7  9  1  0  0  0  0
  8  6  2  0  0  0  0
  8 11  1  0  0  0  0
 10  7  1  0  0  0  0
 11  4  1  0  0  0  0
 11  7  2  0  0  0  0
 12 13  2  0  0  0  0
 13 14  1  0  0  0  0
 15 16  1  0  0  0  0
 15 14  1  0  0  0  0
 17 19  2  0  0  0  0
 18 19  1  0  0  0  0
 19 16  1  0  0  0  0
 20 21  1  0  0  0  0
 21 22  1  0  0  0  0
 24 32  1  6  0  0  0
 24 29  1  0  0  0  0
 24 31  1  0  0  0  0
 24 23  1  0  0  0  0
 25 34  1  0  0  0  0
 25 33  1  0  0  0  0
 25 22  1  1  0  0  0
 27 32  1  0  0  0  0
 27 33  1  0  0  0  0
 28 23  1  0  0  0  0
 28 26  2  0  0  0  0
 29 31  1  0  0  0  0
 31 30  1  6  0  0  0
 33 34  1  1  0  0  0
 33 28  1  0  0  0  0
M  END
>  <MODEL>
1

>  <REMARK>
 VINA RESULT:      -7.3      0.000      0.000
  Name = 
  12 active torsions:
  status: ('A' for Active; 'I' for Inactive)
    1  A    between atoms: C_3  and  C_22
    2  A    between atoms: C_7  and  C_22
    3  A    between atoms: C_7  and  O_34
    4  A    between atoms: C_9  and  O_25
    5  A    between atoms: C_9  and  C_29
    6  A    between atoms: C_10  and  C_28
    7  A    between atoms: C_10  and  C_30
    8  A    between atoms: C_21  and  O_25
    9  A    between atoms: C_21  and  C_32
   10  A    between atoms: C_24  and  C_28
   11  A    between atoms: C_24  and  O_34
   12  A    between atoms: C_28  and  C_32
                            x       y       z     vdW  Elec       q    Type
                         _______ _______ _______ _____ _____    ______ ____

>  <TORSDO>
F 12

$$$$
=
 OpenBabel11072414143D

 34 37  0  0  1  0  0  0  0  0999 V2000
  162.8010  206.0990  152.6230 O   0  0  0  0  0  1  0  0  0  0  0  0
  162.1210  206.9780  151.7730 C   0  0  1  0  0  3  0  0  0  0  0  0
  161.9700  206.3600  150.3680 C   0  0  1  0  0  3  0  0  0  0  0  0
  160.6220  205.6270  150.1680 C   0  0  1  0  0  3  0  0  0  0  0  0
  159.8310  206.2080  149.0030 C   0  0  0  0  0  1  0  0  0  0  0  0
  161.0430  202.2880  148.8210 C   0  0  0  0  0  3  0  0  0  0  0  0
  160.8020  203.2370  150.8760 C   0  0  0  0  0  0  0  0  0  0  0  0
  160.9320  203.5670  148.6500 N   0  0  0  0  0  0  0  0  0  0  0  0
  160.7080  203.4960  152.2720 N   0  0  0  0  0  1  0  0  0  0  0  0
  160.9900  201.8990  150.2670 C   0  0  0  0  0  2  0  0  0  0  0  0
  160.7910  204.1570  149.9330 C   0  0  0  0  0  0  0  0  0  0  0  0
  161.7980  208.5580  149.5350 O   0  0  0  0  0  0  0  0  0  0  0  0
  162.1820  207.4210  149.3080 C   0  0  0  0  0  0  0  0  0  0  0  0
  162.8330  207.1370  147.9810 C   0  0  0  0  0  2  0  0  0  0  0  0
  161.8930  207.0670  146.9500 O   0  0  0  0  0  0  0  0  0  0  0  0
  162.2060  205.8940  146.2650 C   0  0  0  0  0  2  0  0  0  0  0  0
  160.0570  206.2490  145.3010 O   0  0  0  0  0  0  0  0  0  0  0  0
  161.0340  204.1970  144.8140 N   0  0  0  0  0  1  0  0  0  0  0  0
  161.0330  205.4690  145.4530 C   0  0  0  0  0  0  0  0  0  0  0  0
  160.8720  207.2670  152.3280 O   0  0  0  0  0  0  0  0  0  0  0  0
  161.0110  206.9780  153.6880 C   0  0  0  0  0  2  0  0  0  0  0  0
  160.7320  208.2210  154.5100 C   0  0  0  0  0  2  0  0  0  0  0  0
  158.3360  211.1230  156.0150 C   0  0  0  0  0  2  0  0  0  0  0  0
  157.7220  211.7680  154.7730 C   0  0  1  0  0  0  0  0  0  0  0  0
  160.7440  209.4500  153.6150 C   0  0  1  0  0  3  0  0  0  0  0  0
  160.4380  210.2890  156.6810 O   0  0  0  0  0  0  0  0  0  0  0  0
  159.7670  211.7110  153.4810 O   0  0  0  0  0  0  0  0  0  0  0  0
  159.7460  210.6790  155.7530 C   0  0  0  0  0  0  0  0  0  0  0  0
  156.2140  211.6880  154.7480 C   0  0  0  0  0  2  0  0  0  0  0  0
  156.7810  213.9050  153.7830 C   0  0  0  0  0  1  0  0  0  0  0  0
  156.8940  213.0250  155.0150 C   0  0  2  0  0  3  0  0  0  0  0  0
  158.3750  211.5080  153.4060 C   0  0  0  0  0  2  0  0  0  0  0  0
  160.2830  210.7160  154.3330 C   0  0  1  0  0  0  0  0  0  0  0  0
  161.7600  210.4600  154.1470 C   0  0  0  0  0  2  0  0  0  0  0  0
  2 20  1  0  0  0  0
  2  1  1  1  0  0  0
  3 13  1  6  0  0  0
  3  2  1  0  0  0  0
  4  5  1  6  0  0  0
  4  3  1  0  0  0  0
  6 10  1  0  0  0  0
  7  9  1  0  0  0  0
  8  6  2  0  0  0  0
  8 11  1  0  0  0  0
 10  7  1  0  0  0  0
 11  4  1  0  0  0  0
 11  7  2  0  0  0  0
 13 12  2  0  0  0  0
 14 13  1  0  0  0  0
 15 14  1  0  0  0  0
 16 15  1  0  0  0  0
 17 19  2  0  0  0  0
 18 19  1  0  0  0  0
 19 16  1  0  0  0  0
 20 21  1  0  0  0  0
 21 22  1  0  0  0  0
 24 32  1  6  0  0  0
 24 31  1  0  0  0  0
 24 23  1  0  0  0  0
 25 34  1  0  0  0  0
 25 33  1  0  0  0  0
 25 22  1  1  0  0  0
 27 33  1  0  0  0  0
 28 23  1  0  0  0  0
 28 26  2  0  0  0  0
 29 24  1  0  0  0  0
 29 31  1  0  0  0  0
 31 30  1  6  0  0  0
 32 27  1  0  0  0  0
 33 34  1  1  0  0  0
 33 28  1  0  0  0  0
M  END
>  <MODEL>
2

>  <REMARK>
 VINA RESULT:      -6.9      2.100      2.728
  Name = 
  12 active torsions:
  status: ('A' for Active; 'I' for Inactive)
    1  A    between atoms: C_3  and  C_22
    2  A    between atoms: C_7  and  C_22
    3  A    between atoms: C_7  and  O_34
    4  A    between atoms: C_9  and  O_25
    5  A    between atoms: C_9  and  C_29
    6  A    between atoms: C_10  and  C_28
    7  A    between atoms: C_10  and  C_30
    8  A    between atoms: C_21  and  O_25
    9  A    between atoms: C_21  and  C_32
   10  A    between atoms: C_24  and  C_28
   11  A    between atoms: C_24  and  O_34
   12  A    between atoms: C_28  and  C_32
                            x       y       z     vdW  Elec       q    Type
                         _______ _______ _______ _____ _____    ______ ____

>  <TORSDO>
F 12

$$$$
=
 OpenBabel11072414143D

 34 37  0  0  1  0  0  0  0  0999 V2000
  163.0930  208.0690  148.1280 O   0  0  0  0  0  1  0  0  0  0  0  0
  161.7790  208.2670  148.5660 C   0  0  1  0  0  3  0  0  0  0  0  0
  161.2680  207.0190  149.3150 C   0  0  1  0  0  3  0  0  0  0  0  0
  161.6200  205.6930  148.6000 C   0  0  1  0  0  3  0  0  0  0  0  0
  160.8600  204.5130  149.1920 C   0  0  0  0  0  1  0  0  0  0  0  0
  160.2510  206.1260  145.2720 C   0  0  0  0  0  3  0  0  0  0  0  0
  162.1510  205.2780  146.1940 C   0  0  0  0  0  0  0  0  0  0  0  0
  160.1550  206.2590  146.5570 N   0  0  0  0  0  2  0  0  0  0  0  0
  163.4370  204.7130  146.4290 N   0  0  0  0  0  1  0  0  0  0  0  0
  161.5460  205.4940  144.8580 C   0  0  0  0  0  3  0  0  0  0  0  0
  161.3450  205.7370  147.1280 C   0  0  0  0  0  0  0  0  0  0  0  0
  162.9800  207.0020  150.9330 O   0  0  0  0  0  0  0  0  0  0  0  0
  161.7750  207.0270  150.7420 C   0  0  0  0  0  0  0  0  0  0  0  0
  160.8610  207.0490  151.9380 C   0  0  0  0  0  2  0  0  0  0  0  0
  160.3900  208.3370  152.2030 O   0  0  0  0  0  0  0  0  0  0  0  0
  161.0580  208.7280  153.3620 C   0  0  0  0  0  2  0  0  0  0  0  0
  162.6360  210.2490  152.4300 O   0  0  0  0  0  0  0  0  0  0  0  0
  161.0120  211.2130  153.7850 N   0  0  0  0  0  1  0  0  0  0  0  0
  161.6290  210.0880  153.1690 C   0  0  0  0  0  0  0  0  0  0  0  0
  161.7440  209.3940  149.3900 O   0  0  0  0  0  0  0  0  0  0  0  0
  162.3390  210.4080  148.6350 C   0  0  0  0  0  2  0  0  0  0  0  0
  161.7480  211.7500  149.0180 C   0  0  0  0  0  2  0  0  0  0  0  0
  159.3140  212.5840  145.8850 C   0  0  0  0  0  2  0  0  0  0  0  0
  160.2830  212.8840  144.7420 C   0  0  1  0  0  0  0  0  0  0  0  0
  162.3410  212.8480  148.1490 C   0  0  1  0  0  3  0  0  0  0  0  0
  159.1540  213.0410  148.1920 O   0  0  0  0  0  0  0  0  0  0  0  0
  161.8320  214.1410  146.1110 O   0  0  0  0  0  0  0  0  0  0  0  0
  159.8650  213.0570  147.1990 C   0  0  0  0  0  0  0  0  0  0  0  0
  160.1110  211.9580  143.5620 C   0  0  0  0  0  2  0  0  0  0  0  0
  160.6320  214.1840  142.5930 C   0  0  0  0  0  1  0  0  0  0  0  0
  159.6540  213.4070  143.4560 C   0  0  2  0  0  3  0  0  0  0  0  0
  161.7510  213.1860  145.0790 C   0  0  0  0  0  2  0  0  0  0  0  0
  161.3030  213.5400  147.2690 C   0  0  1  0  0  0  0  0  0  0  0  0
  161.7480  214.1960  148.5550 C   0  0  0  0  0  2  0  0  0  0  0  0
  2  1  1  1  0  0  0
  2  3  1  0  0  0  0
  2 20  1  0  0  0  0
  3 13  1  1  0  0  0
  4  5  1  1  0  0  0
  4  3  1  0  0  0  0
  6  8  1  0  0  0  0
  7  9  1  0  0  0  0
  7 11  2  0  0  0  0
  8 11  1  0  0  0  0
 10  6  2  0  0  0  0
 10  7  1  0  0  0  0
 11  4  1  0  0  0  0
 13 12  2  0  0  0  0
 13 14  1  0  0  0  0
 14 15  1  0  0  0  0
 15 16  1  0  0  0  0
 17 19  2  0  0  0  0
 19 16  1  0  0  0  0
 19 18  1  0  0  0  0
 21 22  1  0  0  0  0
 21 20  1  0  0  0  0
 23 28  1  0  0  0  0
 24 29  1  6  0  0  0
 24 32  1  0  0  0  0
 24 23  1  0  0  0  0
 25 34  1  0  0  0  0
 25 22  1  1  0  0  0
 27 33  1  0  0  0  0
 28 33  1  0  0  0  0
 28 26  2  0  0  0  0
 31 30  1  6  0  0  0
 31 29  1  0  0  0  0
 31 24  1  0  0  0  0
 32 27  1  0  0  0  0
 33 25  1  0  0  0  0
 33 34  1  1  0  0  0
M  END
>  <MODEL>
3

>  <REMARK>
 VINA RESULT:      -6.9      3.067      6.573
  Name = 
  12 active torsions:
  status: ('A' for Active; 'I' for Inactive)
    1  A    between atoms: C_3  and  C_22
    2  A    between atoms: C_7  and  C_22
    3  A    between atoms: C_7  and  O_34
    4  A    between atoms: C_9  and  O_25
    5  A    between atoms: C_9  and  C_29
    6  A    between atoms: C_10  and  C_28
    7  A    between atoms: C_10  and  C_30
    8  A    between atoms: C_21  and  O_25
    9  A    between atoms: C_21  and  C_32
   10  A    between atoms: C_24  and  C_28
   11  A    between atoms: C_24  and  O_34
   12  A    between atoms: C_28  and  C_32
                            x       y       z     vdW  Elec       q    Type
                         _______ _______ _______ _____ _____    ______ ____

>  <TORSDO>
F 12

$$$$
=
 OpenBabel11072414143D

 34 37  0  0  1  0  0  0  0  0999 V2000
  160.9710  207.6140  154.6200 O   0  0  0  0  0  1  0  0  0  0  0  0
  160.8630  207.6990  153.2280 C   0  0  1  0  0  3  0  0  0  0  0  0
  160.6230  209.1590  152.7930 C   0  0  1  0  0  3  0  0  0  0  0  0
  160.2640  210.0930  153.9730 C   0  0  1  0  0  3  0  0  0  0  0  0
  161.4980  210.7760  154.5490 C   0  0  0  0  0  1  0  0  0  0  0  0
  158.3320  212.7200  152.3920 C   0  0  0  0  0  3  0  0  0  0  0  0
  158.2680  211.5500  154.3430 C   0  0  0  0  0  0  0  0  0  0  0  0
  159.3230  211.8870  152.3800 N   0  0  0  0  0  0  0  0  0  0  0  0
  157.9250  211.0010  155.6110 N   0  0  0  0  0  1  0  0  0  0  0  0
  157.5100  212.6130  153.6400 C   0  0  0  0  0  2  0  0  0  0  0  0
  159.2760  211.1540  153.5940 C   0  0  0  0  0  0  0  0  0  0  0  0
  162.7630  210.1350  152.6540 O   0  0  0  0  0  0  0  0  0  0  0  0
  161.8220  209.6760  152.0270 C   0  0  0  0  0  0  0  0  0  0  0  0
  161.9020  209.6640  150.5240 C   0  0  0  0  0  2  0  0  0  0  0  0
  162.0900  210.9480  150.0070 O   0  0  0  0  0  0  0  0  0  0  0  0
  162.1180  210.7740  148.6240 C   0  0  0  0  0  2  0  0  0  0  0  0
  162.9710  212.9050  147.9900 O   0  0  0  0  0  0  0  0  0  0  0  0
  160.8210  212.4360  147.2420 N   0  0  0  0  0  1  0  0  0  0  0  0
  162.0050  212.0980  147.9560 C   0  0  0  0  0  0  0  0  0  0  0  0
  162.0320  207.1930  152.6540 O   0  0  0  0  0  0  0  0  0  0  0  0
  161.8310  205.8120  152.5910 C   0  0  0  0  0  2  0  0  0  0  0  0
  162.0940  205.3170  151.1820 C   0  0  0  0  0  2  0  0  0  0  0  0
  161.7090  203.4850  147.5870 C   0  0  0  0  0  2  0  0  0  0  0  0
  161.9450  204.6080  146.5790 C   0  0  1  0  0  0  0  0  0  0  0  0
  161.4290  206.2400  150.1730 C   0  0  1  0  0  3  0  0  0  0  0  0
  160.5950  203.2020  149.6460 O   0  0  0  0  0  0  0  0  0  0  0  0
  160.6900  206.2630  147.8190 O   0  0  0  0  0  0  0  0  0  0  0  0
  161.0040  203.9950  148.8110 C   0  0  0  0  0  0  0  0  0  0  0  0
  163.1140  204.3430  145.6600 C   0  0  0  0  0  2  0  0  0  0  0  0
  161.4050  205.4740  144.2580 C   0  0  0  0  0  1  0  0  0  0  0  0
  161.6930  204.2560  145.1180 C   0  0  2  0  0  3  0  0  0  0  0  0
  161.8620  206.0640  147.0640 C   0  0  0  0  0  2  0  0  0  0  0  0
  160.8210  205.4910  148.9900 C   0  0  1  0  0  0  0  0  0  0  0  0
  159.9310  205.9460  150.1230 C   0  0  0  0  0  2  0  0  0  0  0  0
  2  1  1  1  0  0  0
  3 13  1  1  0  0  0
  3  2  1  0  0  0  0
  3  4  1  0  0  0  0
  4  5  1  6  0  0  0
  6 10  1  0  0  0  0
  7  9  1  0  0  0  0
  8  6  2  0  0  0  0
  8 11  1  0  0  0  0
 10  7  1  0  0  0  0
 11  4  1  0  0  0  0
 11  7  2  0  0  0  0
 13 12  2  0  0  0  0
 14 13  1  0  0  0  0
 15 14  1  0  0  0  0
 16 15  1  0  0  0  0
 18 19  1  0  0  0  0
 19 17  2  0  0  0  0
 19 16  1  0  0  0  0
 20  2  1  0  0  0  0
 21 20  1  0  0  0  0
 22 21  1  0  0  0  0
 23 28  1  0  0  0  0
 24 29  1  6  0  0  0
 24 32  1  0  0  0  0
 24 23  1  0  0  0  0
 25 22  1  1  0  0  0
 27 33  1  0  0  0  0
 28 33  1  0  0  0  0
 28 26  2  0  0  0  0
 31 30  1  6  0  0  0
 31 29  1  0  0  0  0
 31 24  1  0  0  0  0
 32 27  1  0  0  0  0
 33 34  1  1  0  0  0
 33 25  1  0  0  0  0
 34 25  1  0  0  0  0
M  END
>  <MODEL>
4

>  <REMARK>
 VINA RESULT:      -6.4      2.659      7.723
  Name = 
  12 active torsions:
  status: ('A' for Active; 'I' for Inactive)
    1  A    between atoms: C_3  and  C_22
    2  A    between atoms: C_7  and  C_22
    3  A    between atoms: C_7  and  O_34
    4  A    between atoms: C_9  and  O_25
    5  A    between atoms: C_9  and  C_29
    6  A    between atoms: C_10  and  C_28
    7  A    between atoms: C_10  and  C_30
    8  A    between atoms: C_21  and  O_25
    9  A    between atoms: C_21  and  C_32
   10  A    between atoms: C_24  and  C_28
   11  A    between atoms: C_24  and  O_34
   12  A    between atoms: C_28  and  C_32
                            x       y       z     vdW  Elec       q    Type
                         _______ _______ _______ _____ _____    ______ ____

>  <TORSDO>
F 12

$$$$
=
 OpenBabel11072414143D

 34 37  0  0  1  0  0  0  0  0999 V2000
  162.1880  207.6830  149.7490 O   0  0  0  0  0  1  0  0  0  0  0  0
  161.6270  208.4070  150.8060 C   0  0  1  0  0  3  0  0  0  0  0  0
  161.8780  207.6860  152.1460 C   0  0  1  0  0  3  0  0  0  0  0  0
  160.7830  207.9670  153.2020 C   0  0  1  0  0  3  0  0  0  0  0  0
  160.6770  206.8380  154.2200 C   0  0  0  0  0  1  0  0  0  0  0  0
  161.8320  210.6180  155.4400 C   0  0  0  0  0  3  0  0  0  0  0  0
  160.3890  210.3850  153.6950 C   0  0  0  0  0  0  0  0  0  0  0  0
  161.9000  209.3880  155.0380 N   0  0  0  0  0  2  0  0  0  0  0  0
  159.4480  210.5910  152.6470 N   0  0  0  0  0  1  0  0  0  0  0  0
  160.8680  211.4310  154.6300 C   0  0  0  0  0  3  0  0  0  0  0  0
  161.0070  209.2480  153.9440 C   0  0  0  0  0  0  0  0  0  0  0  0
  163.1120  205.6810  152.2170 O   0  0  0  0  0  0  0  0  0  0  0  0
  162.0510  206.2000  151.9120 C   0  0  0  0  0  0  0  0  0  0  0  0
  160.9780  205.3350  151.3070 C   0  0  0  0  0  2  0  0  0  0  0  0
  161.5170  204.2190  150.6640 O   0  0  0  0  0  0  0  0  0  0  0  0
  161.0270  204.2880  149.3610 C   0  0  0  0  0  2  0  0  0  0  0  0
  161.1830  202.6730  147.6180 O   0  0  0  0  0  0  0  0  0  0  0  0
  160.4270  201.8570  149.6590 N   0  0  0  0  0  1  0  0  0  0  0  0
  160.8760  202.9120  148.8160 C   0  0  0  0  0  0  0  0  0  0  0  0
  162.1820  209.6890  150.8170 O   0  0  0  0  0  0  0  0  0  0  0  0
  162.2170  210.0750  149.4750 C   0  0  0  0  0  2  0  0  0  0  0  0
  161.9490  211.5630  149.3600 C   0  0  0  0  0  2  0  0  0  0  0  0
  158.7940  213.6310  147.8760 C   0  0  0  0  0  2  0  0  0  0  0  0
  158.7620  213.2360  146.4000 C   0  0  1  0  0  0  0  0  0  0  0  0
  162.2300  212.0350  147.9410 C   0  0  1  0  0  3  0  0  0  0  0  0
  160.4210  214.1560  149.5000 O   0  0  0  0  0  0  0  0  0  0  0  0
  161.1640  213.3080  146.1170 O   0  0  0  0  0  0  0  0  0  0  0  0
  160.2040  213.7010  148.3870 C   0  0  0  0  0  0  0  0  0  0  0  0
  157.4650  212.5800  145.9900 C   0  0  0  0  0  2  0  0  0  0  0  0
  158.1450  213.9810  144.0560 C   0  0  0  0  0  1  0  0  0  0  0  0
  157.7720  213.9990  145.5280 C   0  0  2  0  0  3  0  0  0  0  0  0
  160.0070  212.5770  145.7850 C   0  0  0  0  0  2  0  0  0  0  0  0
  161.3360  213.1950  147.5100 C   0  0  1  0  0  0  0  0  0  0  0  0
  162.7460  213.4730  147.9750 C   0  0  0  0  0  2  0  0  0  0  0  0
  2  1  1  6  0  0  0
  2 20  1  0  0  0  0
  2  3  1  0  0  0  0
  3 13  1  6  0  0  0
  3  4  1  0  0  0  0
  4 11  1  0  0  0  0
  4  5  1  1  0  0  0
  7 11  2  0  0  0  0
  7 10  1  0  0  0  0
  8  6  1  0  0  0  0
  9  7  1  0  0  0  0
 10  6  2  0  0  0  0
 11  8  1  0  0  0  0
 13 12  2  0  0  0  0
 14 13  1  0  0  0  0
 15 14  1  0  0  0  0
 16 15  1  0  0  0  0
 17 19  2  0  0  0  0
 19 16  1  0  0  0  0
 19 18  1  0  0  0  0
 21 20  1  0  0  0  0
 22 21  1  0  0  0  0
 23 28  1  0  0  0  0
 24 32  1  6  0  0  0
 24 23  1  0  0  0  0
 25 34  1  0  0  0  0
 25 22  1  1  0  0  0
 27 33  1  0  0  0  0
 28 26  2  0  0  0  0
 29 24  1  0  0  0  0
 31 30  1  6  0  0  0
 31 29  1  0  0  0  0
 31 24  1  0  0  0  0
 32 27  1  0  0  0  0
 33 25  1  0  0  0  0
 33 34  1  1  0  0  0
 33 28  1  0  0  0  0
M  END
>  <MODEL>
5

>  <REMARK>
 VINA RESULT:      -6.4      3.040      7.270
  Name = 
  12 active torsions:
  status: ('A' for Active; 'I' for Inactive)
    1  A    between atoms: C_3  and  C_22
    2  A    between atoms: C_7  and  C_22
    3  A    between atoms: C_7  and  O_34
    4  A    between atoms: C_9  and  O_25
    5  A    between atoms: C_9  and  C_29
    6  A    between atoms: C_10  and  C_28
    7  A    between atoms: C_10  and  C_30
    8  A    between atoms: C_21  and  O_25
    9  A    between atoms: C_21  and  C_32
   10  A    between atoms: C_24  and  C_28
   11  A    between atoms: C_24  and  O_34
   12  A    between atoms: C_28  and  C_32
                            x       y       z     vdW  Elec       q    Type
                         _______ _______ _______ _____ _____    ______ ____

>  <TORSDO>
F 12

$$$$
=
 OpenBabel11072414143D

 34 37  0  0  1  0  0  0  0  0999 V2000
  161.9680  208.9530  152.1150 O   0  0  0  0  0  1  0  0  0  0  0  0
  161.4070  208.2900  153.2120 C   0  0  1  0  0  3  0  0  0  0  0  0
  160.1600  209.0450  153.7170 C   0  0  1  0  0  3  0  0  0  0  0  0
  159.9610  208.9350  155.2470 C   0  0  1  0  0  3  0  0  0  0  0  0
  159.9970  207.4870  155.7190 C   0  0  0  0  0  1  0  0  0  0  0  0
  162.9040  210.1520  156.9780 C   0  0  0  0  0  3  0  0  0  0  0  0
  160.7840  210.8810  156.5820 C   0  0  0  0  0  0  0  0  0  0  0  0
  162.3040  209.2450  156.2750 N   0  0  0  0  0  0  0  0  0  0  0  0
  159.5780  211.6310  156.4970 N   0  0  0  0  0  1  0  0  0  0  0  0
  162.0230  211.3310  157.2610 C   0  0  0  0  0  2  0  0  0  0  0  0
  160.9860  209.7050  156.0220 C   0  0  0  0  0  0  0  0  0  0  0  0
  161.3020  211.0310  153.1660 O   0  0  0  0  0  0  0  0  0  0  0  0
  160.2120  210.4910  153.2710 C   0  0  0  0  0  0  0  0  0  0  0  0
  158.9810  211.3000  152.9640 C   0  0  0  0  0  2  0  0  0  0  0  0
  159.2810  212.4200  152.1850 O   0  0  0  0  0  0  0  0  0  0  0  0
  158.0450  212.8790  151.7320 C   0  0  0  0  0  2  0  0  0  0  0  0
  159.3450  213.9030  150.0200 O   0  0  0  0  0  0  0  0  0  0  0  0
  157.0940  213.6180  149.5170 N   0  0  0  0  0  1  0  0  0  0  0  0
  158.2100  213.5060  150.3930 C   0  0  0  0  0  0  0  0  0  0  0  0
  161.0800  206.9870  152.8310 O   0  0  0  0  0  0  0  0  0  0  0  0
  162.2970  206.4080  152.4590 C   0  0  0  0  0  2  0  0  0  0  0  0
  162.1180  205.6100  151.1820 C   0  0  0  0  0  2  0  0  0  0  0  0
  161.8020  203.5950  147.6790 C   0  0  0  0  0  2  0  0  0  0  0  0
  161.9900  204.6790  146.6180 C   0  0  1  0  0  0  0  0  0  0  0  0
  161.4140  206.4560  150.1330 C   0  0  1  0  0  3  0  0  0  0  0  0
  160.7050  203.3650  149.7530 O   0  0  0  0  0  0  0  0  0  0  0  0
  160.6700  206.3380  147.7840 O   0  0  0  0  0  0  0  0  0  0  0  0
  161.0790  204.1330  148.8800 C   0  0  0  0  0  0  0  0  0  0  0  0
  163.1660  204.4190  145.7080 C   0  0  0  0  0  2  0  0  0  0  0  0
  161.4090  205.4110  144.2610 C   0  0  0  0  0  1  0  0  0  0  0  0
  161.7490  204.2480  145.1760 C   0  0  2  0  0  3  0  0  0  0  0  0
  161.8470  206.1520  147.0340 C   0  0  0  0  0  2  0  0  0  0  0  0
  160.8340  205.6280  148.9890 C   0  0  1  0  0  0  0  0  0  0  0  0
  159.9280  206.0990  150.1020 C   0  0  0  0  0  2  0  0  0  0  0  0
  2  1  1  6  0  0  0
  2  3  1  0  0  0  0
  3 13  1  1  0  0  0
  3  4  1  0  0  0  0
  4  5  1  1  0  0  0
  4 11  1  0  0  0  0
  6 10  1  0  0  0  0
  7 10  1  0  0  0  0
  8  6  2  0  0  0  0
  9  7  1  0  0  0  0
 11  8  1  0  0  0  0
 11  7  2  0  0  0  0
 12 13  2  0  0  0  0
 14 13  1  0  0  0  0
 15 14  1  0  0  0  0
 16 15  1  0  0  0  0
 17 19  2  0  0  0  0
 18 19  1  0  0  0  0
 19 16  1  0  0  0  0
 20  2  1  0  0  0  0
 21 20  1  0  0  0  0
 22 21  1  0  0  0  0
 23 28  1  0  0  0  0
 24 29  1  6  0  0  0
 24 32  1  0  0  0  0
 24 23  1  0  0  0  0
 25 22  1  1  0  0  0
 27 33  1  0  0  0  0
 28 33  1  0  0  0  0
 28 26  2  0  0  0  0
 31 30  1  6  0  0  0
 31 29  1  0  0  0  0
 31 24  1  0  0  0  0
 32 27  1  0  0  0  0
 33 34  1  1  0  0  0
 33 25  1  0  0  0  0
 34 25  1  0  0  0  0
M  END
>  <MODEL>
6

>  <REMARK>
 VINA RESULT:      -5.7      3.188      8.090
  Name = 
  12 active torsions:
  status: ('A' for Active; 'I' for Inactive)
    1  A    between atoms: C_3  and  C_22
    2  A    between atoms: C_7  and  C_22
    3  A    between atoms: C_7  and  O_34
    4  A    between atoms: C_9  and  O_25
    5  A    between atoms: C_9  and  C_29
    6  A    between atoms: C_10  and  C_28
    7  A    between atoms: C_10  and  C_30
    8  A    between atoms: C_21  and  O_25
    9  A    between atoms: C_21  and  C_32
   10  A    between atoms: C_24  and  C_28
   11  A    between atoms: C_24  and  O_34
   12  A    between atoms: C_28  and  C_32
                            x       y       z     vdW  Elec       q    Type
                         _______ _______ _______ _____ _____    ______ ____

>  <TORSDO>
F 12

$$$$
=
 OpenBabel11072414143D

 34 37  0  0  1  0  0  0  0  0999 V2000
  162.6170  208.8570  152.1880 O   0  0  0  0  0  1  0  0  0  0  0  0
  161.4640  208.5570  152.9210 C   0  0  1  0  0  3  0  0  0  0  0  0
  160.4570  209.7230  152.8410 C   0  0  1  0  0  3  0  0  0  0  0  0
  160.3070  210.4890  154.1770 C   0  0  1  0  0  3  0  0  0  0  0  0
  158.8820  210.9880  154.3850 C   0  0  0  0  0  1  0  0  0  0  0  0
  160.5130  208.1560  156.9430 C   0  0  0  0  0  3  0  0  0  0  0  0
  161.8130  209.7940  156.0450 C   0  0  0  0  0  0  0  0  0  0  0  0
  159.8760  208.6490  155.9280 N   0  0  0  0  0  0  0  0  0  0  0  0
  162.8610  210.7040  155.7280 N   0  0  0  0  0  1  0  0  0  0  0  0
  161.8460  208.8080  157.1510 C   0  0  0  0  0  2  0  0  0  0  0  0
  160.6930  209.6640  155.3660 C   0  0  0  0  0  0  0  0  0  0  0  0
  160.4920  211.8270  151.7810 O   0  0  0  0  0  0  0  0  0  0  0  0
  160.8320  210.6560  151.7090 C   0  0  0  0  0  0  0  0  0  0  0  0
  161.5920  210.2060  150.4910 C   0  0  0  0  0  2  0  0  0  0  0  0
  162.2350  211.2730  149.8600 O   0  0  0  0  0  0  0  0  0  0  0  0
  161.9550  211.1050  148.5050 C   0  0  0  0  0  2  0  0  0  0  0  0
  161.9770  212.7080  146.7440 O   0  0  0  0  0  0  0  0  0  0  0  0
  160.7800  213.3320  148.6360 N   0  0  0  0  0  1  0  0  0  0  0  0
  161.5940  212.4190  147.9080 C   0  0  0  0  0  0  0  0  0  0  0  0
  160.9040  207.3790  152.4200 O   0  0  0  0  0  0  0  0  0  0  0  0
  161.9530  206.4560  152.4220 C   0  0  0  0  0  2  0  0  0  0  0  0
  161.9700  205.6920  151.1130 C   0  0  0  0  0  2  0  0  0  0  0  0
  161.9590  203.6760  147.5970 C   0  0  0  0  0  2  0  0  0  0  0  0
  161.9880  204.7810  146.5430 C   0  0  1  0  0  0  0  0  0  0  0  0
  161.1510  206.4330  150.0670 C   0  0  1  0  0  3  0  0  0  0  0  0
  160.9040  203.2740  149.6660 O   0  0  0  0  0  0  0  0  0  0  0  0
  160.4370  206.2210  147.7150 O   0  0  0  0  0  0  0  0  0  0  0  0
  161.1630  204.0940  148.7990 C   0  0  0  0  0  0  0  0  0  0  0  0
  163.1910  204.7030  145.6340 C   0  0  0  0  0  2  0  0  0  0  0  0
  161.3100  205.4360  144.1890 C   0  0  0  0  0  1  0  0  0  0  0  0
  161.8150  204.3290  145.0980 C   0  0  2  0  0  3  0  0  0  0  0  0
  161.6300  206.2150  146.9670 C   0  0  0  0  0  2  0  0  0  0  0  0
  160.7010  205.5360  148.9160 C   0  0  1  0  0  0  0  0  0  0  0  0
  159.7340  205.8610  150.0300 C   0  0  0  0  0  2  0  0  0  0  0  0
  2  1  1  6  0  0  0
  3 13  1  6  0  0  0
  3  2  1  0  0  0  0
  3  4  1  0  0  0  0
  4  5  1  1  0  0  0
  4 11  1  0  0  0  0
  6 10  1  0  0  0  0
  7 10  1  0  0  0  0
  8  6  2  0  0  0  0
  9  7  1  0  0  0  0
 11  8  1  0  0  0  0
 11  7  2  0  0  0  0
 13 12  2  0  0  0  0
 14 13  1  0  0  0  0
 15 14  1  0  0  0  0
 16 15  1  0  0  0  0
 17 19  2  0  0  0  0
 19 16  1  0  0  0  0
 19 18  1  0  0  0  0
 20 21  1  0  0  0  0
 20  2  1  0  0  0  0
 22 21  1  0  0  0  0
 23 28  1  0  0  0  0
 24 29  1  6  0  0  0
 24 32  1  0  0  0  0
 24 23  1  0  0  0  0
 25 22  1  1  0  0  0
 27 33  1  0  0  0  0
 28 33  1  0  0  0  0
 28 26  2  0  0  0  0
 31 30  1  6  0  0  0
 31 29  1  0  0  0  0
 31 24  1  0  0  0  0
 32 27  1  0  0  0  0
 33 34  1  1  0  0  0
 33 25  1  0  0  0  0
 34 25  1  0  0  0  0
M  END
>  <MODEL>
7

>  <REMARK>
 VINA RESULT:      -5.7      2.808      7.587
  Name = 
  12 active torsions:
  status: ('A' for Active; 'I' for Inactive)
    1  A    between atoms: C_3  and  C_22
    2  A    between atoms: C_7  and  C_22
    3  A    between atoms: C_7  and  O_34
    4  A    between atoms: C_9  and  O_25
    5  A    between atoms: C_9  and  C_29
    6  A    between atoms: C_10  and  C_28
    7  A    between atoms: C_10  and  C_30
    8  A    between atoms: C_21  and  O_25
    9  A    between atoms: C_21  and  C_32
   10  A    between atoms: C_24  and  C_28
   11  A    between atoms: C_24  and  O_34
   12  A    between atoms: C_28  and  C_32
                            x       y       z     vdW  Elec       q    Type
                         _______ _______ _______ _____ _____    ______ ____

>  <TORSDO>
F 12

$$$$
=
 OpenBabel11072414143D

 34 37  0  0  1  0  0  0  0  0999 V2000
  161.1690  210.1630  151.2430 O   0  0  0  0  0  1  0  0  0  0  0  0
  161.1480  209.5490  152.4990 C   0  0  1  0  0  3  0  0  0  0  0  0
  160.0270  210.1490  153.3730 C   0  0  1  0  0  3  0  0  0  0  0  0
  160.4950  210.5020  154.8050 C   0  0  1  0  0  3  0  0  0  0  0  0
  159.5470  211.4820  155.4850 C   0  0  0  0  0  1  0  0  0  0  0  0
  160.1440  207.3510  156.5620 C   0  0  0  0  0  3  0  0  0  0  0  0
  161.5780  209.1180  156.5820 C   0  0  0  0  0  0  0  0  0  0  0  0
  159.7310  208.2000  155.6750 N   0  0  0  0  0  0  0  0  0  0  0  0
  162.6540  210.0180  156.8270 N   0  0  0  0  0  1  0  0  0  0  0  0
  161.3900  207.8110  157.2560 C   0  0  0  0  0  2  0  0  0  0  0  0
  160.6320  209.2960  155.6840 C   0  0  0  0  0  0  0  0  0  0  0  0
  158.2300  211.3210  152.4000 O   0  0  0  0  0  0  0  0  0  0  0  0
  159.4170  211.3510  152.6820 C   0  0  0  0  0  0  0  0  0  0  0  0
  160.2100  212.5760  152.3140 C   0  0  0  0  0  2  0  0  0  0  0  0
  159.3780  213.6510  151.9930 O   0  0  0  0  0  0  0  0  0  0  0  0
  159.7620  214.0250  150.7060 C   0  0  0  0  0  2  0  0  0  0  0  0
  157.4600  213.7530  150.1580 O   0  0  0  0  0  0  0  0  0  0  0  0
  158.9390  213.4830  148.3850 N   0  0  0  0  0  1  0  0  0  0  0  0
  158.6530  213.7360  149.7560 C   0  0  0  0  0  0  0  0  0  0  0  0
  160.9640  208.1750  152.3260 O   0  0  0  0  0  0  0  0  0  0  0  0
  162.1990  207.7040  151.8750 C   0  0  0  0  0  2  0  0  0  0  0  0
  161.9880  206.6040  150.8530 C   0  0  0  0  0  2  0  0  0  0  0  0
  161.9530  203.9500  147.7890 C   0  0  0  0  0  2  0  0  0  0  0  0
  161.9430  204.8330  146.5430 C   0  0  1  0  0  0  0  0  0  0  0  0
  161.1380  207.1180  149.7020 C   0  0  1  0  0  3  0  0  0  0  0  0
  160.9410  203.9370  149.9190 O   0  0  0  0  0  0  0  0  0  0  0  0
  160.3870  206.4490  147.4490 O   0  0  0  0  0  0  0  0  0  0  0  0
  161.1700  204.5790  148.9050 C   0  0  0  0  0  0  0  0  0  0  0  0
  163.1320  204.5990  145.6420 C   0  0  0  0  0  2  0  0  0  0  0  0
  161.2130  205.0140  144.1210 C   0  0  0  0  0  1  0  0  0  0  0  0
  161.7540  204.1100  145.2150 C   0  0  2  0  0  3  0  0  0  0  0  0
  161.5670  206.3160  146.6920 C   0  0  0  0  0  2  0  0  0  0  0  0
  160.6840  206.0100  148.7540 C   0  0  1  0  0  0  0  0  0  0  0  0
  159.7310  206.5290  149.8040 C   0  0  0  0  0  2  0  0  0  0  0  0
  2  1  1  6  0  0  0
  2  3  1  0  0  0  0
  3 13  1  6  0  0  0
  3  4  1  0  0  0  0
  4  5  1  1  0  0  0
  4 11  1  0  0  0  0
  6 10  1  0  0  0  0
  7  9  1  0  0  0  0
  7 10  1  0  0  0  0
  8 11  1  0  0  0  0
  8  6  2  0  0  0  0
 11  7  2  0  0  0  0
 12 13  2  0  0  0  0
 14 13  1  0  0  0  0
 15 14  1  0  0  0  0
 16 15  1  0  0  0  0
 18 19  1  0  0  0  0
 19 17  2  0  0  0  0
 19 16  1  0  0  0  0
 20  2  1  0  0  0  0
 21 20  1  0  0  0  0
 22 21  1  0  0  0  0
 23 28  1  0  0  0  0
 24 29  1  6  0  0  0
 24 32  1  0  0  0  0
 24 23  1  0  0  0  0
 25 34  1  0  0  0  0
 25 22  1  1  0  0  0
 27 33  1  0  0  0  0
 28 26  2  0  0  0  0
 31 30  1  6  0  0  0
 31 29  1  0  0  0  0
 31 24  1  0  0  0  0
 32 27  1  0  0  0  0
 33 28  1  0  0  0  0
 33 25  1  0  0  0  0
 33 34  1  1  0  0  0
M  END
>  <MODEL>
8

>  <REMARK>
 VINA RESULT:      -5.7      3.033      7.871
  Name = 
  12 active torsions:
  status: ('A' for Active; 'I' for Inactive)
    1  A    between atoms: C_3  and  C_22
    2  A    between atoms: C_7  and  C_22
    3  A    between atoms: C_7  and  O_34
    4  A    between atoms: C_9  and  O_25
    5  A    between atoms: C_9  and  C_29
    6  A    between atoms: C_10  and  C_28
    7  A    between atoms: C_10  and  C_30
    8  A    between atoms: C_21  and  O_25
    9  A    between atoms: C_21  and  C_32
   10  A    between atoms: C_24  and  C_28
   11  A    between atoms: C_24  and  O_34
   12  A    between atoms: C_28  and  C_32
                            x       y       z     vdW  Elec       q    Type
                         _______ _______ _______ _____ _____    ______ ____

>  <TORSDO>
F 12

$$$$
=
 OpenBabel11072414143D

 34 37  0  0  1  0  0  0  0  0999 V2000
  162.5460  205.8710  153.0770 O   0  0  0  0  0  1  0  0  0  0  0  0
  161.4870  206.5910  152.5140 C   0  0  1  0  0  3  0  0  0  0  0  0
  160.7690  205.7450  151.4430 C   0  0  1  0  0  3  0  0  0  0  0  0
  161.2240  206.0740  150.0020 C   0  0  1  0  0  3  0  0  0  0  0  0
  160.1470  205.7390  148.9780 C   0  0  0  0  0  1  0  0  0  0  0  0
  161.8890  209.6210  150.3450 C   0  0  0  0  0  3  0  0  0  0  0  0
  162.0690  208.0420  148.7150 C   0  0  0  0  0  0  0  0  0  0  0  0
  161.4830  208.4960  150.8430 N   0  0  0  0  0  2  0  0  0  0  0  0
  162.3330  207.3240  147.5140 N   0  0  0  0  0  1  0  0  0  0  0  0
  162.3340  209.4860  148.9200 C   0  0  0  0  0  3  0  0  0  0  0  0
  161.6050  207.5120  149.8280 C   0  0  0  0  0  0  0  0  0  0  0  0
  160.4010  203.8210  152.7520 O   0  0  0  0  0  0  0  0  0  0  0  0
  160.9320  204.2720  151.7500 C   0  0  0  0  0  0  0  0  0  0  0  0
  161.7330  203.3370  150.8830 C   0  0  0  0  0  2  0  0  0  0  0  0
  161.0930  202.1060  150.7240 O   0  0  0  0  0  0  0  0  0  0  0  0
  160.2430  202.2860  149.6340 C   0  0  0  0  0  2  0  0  0  0  0  0
  161.3710  202.8960  147.6270 O   0  0  0  0  0  0  0  0  0  0  0  0
  161.2660  200.6130  148.0480 N   0  0  0  0  0  1  0  0  0  0  0  0
  160.9750  201.9660  148.3780 C   0  0  0  0  0  0  0  0  0  0  0  0
  160.6050  206.9630  153.5310 O   0  0  0  0  0  0  0  0  0  0  0  0
  161.4180  207.1870  154.6460 C   0  0  0  0  0  2  0  0  0  0  0  0
  161.0050  208.4720  155.3350 C   0  0  0  0  0  2  0  0  0  0  0  0
  158.2300  211.3070  156.1670 C   0  0  0  0  0  2  0  0  0  0  0  0
  157.8240  211.8330  154.7920 C   0  0  1  0  0  0  0  0  0  0  0  0
  161.1190  209.6420  154.3690 C   0  0  1  0  0  3  0  0  0  0  0  0
  160.2120  210.6500  157.2610 O   0  0  0  0  0  0  0  0  0  0  0  0
  160.0720  211.8240  153.8970 O   0  0  0  0  0  0  0  0  0  0  0  0
  159.6840  210.9360  156.1970 C   0  0  0  0  0  0  0  0  0  0  0  0
  156.3520  211.6580  154.5010 C   0  0  0  0  0  2  0  0  0  0  0  0
  156.9750  213.8410  153.4950 C   0  0  0  0  0  1  0  0  0  0  0  0
  156.9030  213.0480  154.7890 C   0  0  2  0  0  3  0  0  0  0  0  0
  158.7300  211.5300  153.5880 C   0  0  0  0  0  2  0  0  0  0  0  0
  160.4710  210.9180  154.8980 C   0  0  1  0  0  0  0  0  0  0  0  0
  161.9680  210.7440  155.0010 C   0  0  0  0  0  2  0  0  0  0  0  0
  2  1  1  1  0  0  0
  2 20  1  0  0  0  0
  3 13  1  1  0  0  0
  3  2  1  0  0  0  0
  4  5  1  6  0  0  0
  4  3  1  0  0  0  0
  6  8  1  0  0  0  0
  7 10  1  0  0  0  0
  7 11  2  0  0  0  0
  9  7  1  0  0  0  0
 10  6  2  0  0  0  0
 11  4  1  0  0  0  0
 11  8  1  0  0  0  0
 13 12  2  0  0  0  0
 14 13  1  0  0  0  0
 15 14  1  0  0  0  0
 16 15  1  0  0  0  0
 17 19  2  0  0  0  0
 18 19  1  0  0  0  0
 19 16  1  0  0  0  0
 20 21  1  0  0  0  0
 21 22  1  0  0  0  0
 23 28  1  0  0  0  0
 24 32  1  6  0  0  0
 24 23  1  0  0  0  0
 25 33  1  0  0  0  0
 25 34  1  0  0  0  0
 25 22  1  1  0  0  0
 27 33  1  0  0  0  0
 28 26  2  0  0  0  0
 29 31  1  0  0  0  0
 29 24  1  0  0  0  0
 31 30  1  6  0  0  0
 31 24  1  0  0  0  0
 32 27  1  0  0  0  0
 33 34  1  1  0  0  0
 33 28  1  0  0  0  0
M  END
>  <MODEL>
9

>  <REMARK>
 VINA RESULT:      -5.5      2.438      4.948
  Name = 
  12 active torsions:
  status: ('A' for Active; 'I' for Inactive)
    1  A    between atoms: C_3  and  C_22
    2  A    between atoms: C_7  and  C_22
    3  A    between atoms: C_7  and  O_34
    4  A    between atoms: C_9  and  O_25
    5  A    between atoms: C_9  and  C_29
    6  A    between atoms: C_10  and  C_28
    7  A    between atoms: C_10  and  C_30
    8  A    between atoms: C_21  and  O_25
    9  A    between atoms: C_21  and  C_32
   10  A    between atoms: C_24  and  C_28
   11  A    between atoms: C_24  and  O_34
   12  A    between atoms: C_28  and  C_32
                            x       y       z     vdW  Elec       q    Type
                         _______ _______ _______ _____ _____    ______ ____

>  <TORSDO>
F 12

$$$$
