=
 OpenBabel11072411553D

 32 35  0  0  1  0  0  0  0  0999 V2000
  161.3040  206.5160  148.0700 C   0  0  2  0  0  3  0  0  0  0  0  0
  161.8960  207.7410  147.5330 N   0  0  0  0  0  2  0  0  0  0  0  0
  161.1310  206.6900  149.5690 C   0  0  0  0  0  2  0  0  0  0  0  0
  161.8990  207.9380  149.9110 C   0  0  1  0  0  3  0  0  0  0  0  0
  161.9220  208.7110  148.6190 C   0  0  0  0  0  2  0  0  0  0  0  0
  160.6050  202.3040  149.4830 C   0  0  0  0  0  3  0  0  0  0  0  0
  161.5510  204.0330  148.1070 C   0  0  0  0  0  0  0  0  0  0  0  0
  161.1970  203.5680  149.3760 C   0  0  0  0  0  3  0  0  0  0  0  0
  161.8720  203.9970  145.8080 C   0  0  0  0  0  3  0  0  0  0  0  0
  162.4690  205.2440  146.3110 N   0  0  0  0  0  0  0  0  0  0  0  0
  160.7620  202.0020  147.0610 C   0  0  0  0  0  0  0  0  0  0  0  0
  160.3860  201.5270  148.3330 C   0  0  0  0  0  3  0  0  0  0  0  0
  162.2100  205.3160  147.7600 C   0  0  1  0  0  3  0  0  0  0  0  0
  161.3570  203.2750  146.9910 C   0  0  0  0  0  0  0  0  0  0  0  0
  160.5300  201.1600  145.8680 C   0  0  0  0  0  0  0  0  0  0  0  0
  159.8330  201.5940  144.9130 O   0  0  0  0  0  0  0  0  0  0  0  0
  161.0760  199.8850  145.7760 O   0  0  0  0  0  1  0  0  0  0  0  0
  161.2170  208.6850  150.9120 O   0  0  0  0  0  0  0  0  0  0  0  0
  160.7010  209.1030  153.2680 C   0  0  0  0  0  3  0  0  0  0  0  0
  160.5340  208.6210  154.5700 C   0  0  0  0  0  0  0  0  0  0  0  0
  160.7060  207.2530  154.8340 C   0  0  0  0  0  0  0  0  0  0  0  0
  161.0560  206.3820  153.7960 C   0  0  0  0  0  0  0  0  0  0  0  0
  161.2260  205.0600  154.0440 F   0  0  0  0  0  0  0  0  0  0  0  0
  160.5340  206.7680  156.0900 F   0  0  0  0  0  0  0  0  0  0  0  0
  161.0480  208.2300  152.2250 C   0  0  0  0  0  0  0  0  0  0  0  0
  161.2250  206.8720  152.4980 C   0  0  0  0  0  3  0  0  0  0  0  0
  160.1480  209.5670  155.6610 C   0  0  0  0  0  2  0  0  0  0  0  0
  161.0180  210.7810  155.6370 C   0  0  0  0  0  0  0  0  0  0  0  0
  160.6360  211.7880  155.0620 O   0  0  0  0  0  0  0  0  0  0  0  0
  163.3790  210.7610  155.4340 O   0  0  0  0  0  1  0  0  0  0  0  0
  162.3310  210.7700  156.3550 C   0  0  2  0  0  3  0  0  0  0  0  0
  162.4350  209.5570  157.2610 C   0  0  0  0  0  1  0  0  0  0  0  0
  1  3  1  1  0  0  0
  2  1  1  0  0  0  0
  2  5  1  0  0  0  0
  3  4  1  0  0  0  0
  4 18  1  1  0  0  0
  5  4  1  0  0  0  0
  7  8  2  0  0  0  0
  8  6  1  0  0  0  0
  9 10  2  0  0  0  0
  9 14  1  0  0  0  0
 11 12  1  0  0  0  0
 12  6  2  0  0  0  0
 13 10  1  6  0  0  0
 13  1  1  0  0  0  0
 13  7  1  0  0  0  0
 14 11  2  0  0  0  0
 14  7  1  0  0  0  0
 15 11  1  0  0  0  0
 16 15  2  0  0  0  0
 17 15  1  0  0  0  0
 18 25  1  0  0  0  0
 19 20  1  0  0  0  0
 20 21  2  0  0  0  0
 20 27  1  0  0  0  0
 21 24  1  0  0  0  0
 22 23  1  0  0  0  0
 22 21  1  0  0  0  0
 25 26  1  0  0  0  0
 25 19  2  0  0  0  0
 26 22  2  0  0  0  0
 28 27  1  0  0  0  0
 28 31  1  0  0  0  0
 29 28  2  0  0  0  0
 30 31  1  0  0  0  0
 31 32  1  1  0  0  0
M  END
>  <MODEL>
1

>  <REMARK>
 VINA RESULT:      -9.7      0.000      0.000
  Name = 
  7 active torsions:
  status: ('A' for Active; 'I' for Inactive)
    1  A    between atoms: C_1  and  C_17
    2  A    between atoms: C_7  and  C_12
    3  A    between atoms: C_7  and  C_18
    4  A    between atoms: C_10  and  C_12
    5  A    between atoms: O_13  and  C_25
    6  A    between atoms: O_13  and  C_31
    7  A    between atoms: C_14  and  C_23
                            x       y       z     vdW  Elec       q    Type
                         _______ _______ _______ _____ _____    ______ ____

>  <TORSDO>
F 7

$$$$
=
 OpenBabel11072411553D

 32 35  0  0  1  0  0  0  0  0999 V2000
  162.0790  208.8970  150.7370 C   0  0  2  0  0  3  0  0  0  0  0  0
  162.0180  209.8650  149.6420 N   0  0  0  0  0  2  0  0  0  0  0  0
  162.1620  207.5050  150.1340 C   0  0  0  0  0  2  0  0  0  0  0  0
  161.8630  207.6910  148.6710 C   0  0  1  0  0  3  0  0  0  0  0  0
  162.2390  209.1250  148.4080 C   0  0  0  0  0  2  0  0  0  0  0  0
  161.0780  206.2300  154.2170 C   0  0  0  0  0  3  0  0  0  0  0  0
  160.9550  208.2060  152.8540 C   0  0  0  0  0  0  0  0  0  0  0  0
  160.9930  206.8130  152.9460 C   0  0  0  0  0  3  0  0  0  0  0  0
  160.8650  210.4140  153.5660 C   0  0  0  0  0  3  0  0  0  0  0  0
  160.7110  210.4220  152.1030 N   0  0  0  0  0  0  0  0  0  0  0  0
  161.0580  208.4440  155.2570 C   0  0  0  0  0  0  0  0  0  0  0  0
  161.1150  207.0390  155.3650 C   0  0  0  0  0  3  0  0  0  0  0  0
  160.8380  209.0330  151.6280 C   0  0  1  0  0  3  0  0  0  0  0  0
  160.9700  208.9950  153.9660 C   0  0  0  0  0  0  0  0  0  0  0  0
  161.0860  209.2720  156.4810 C   0  0  0  0  0  0  0  0  0  0  0  0
  160.0110  209.6860  156.9910 O   0  0  0  0  0  0  0  0  0  0  0  0
  162.2900  209.6050  157.0920 O   0  0  0  0  0  1  0  0  0  0  0  0
  162.6700  206.8240  147.8820 O   0  0  0  0  0  0  0  0  0  0  0  0
  162.0140  204.4660  147.8590 C   0  0  0  0  0  3  0  0  0  0  0  0
  161.5010  203.3640  147.1680 C   0  0  0  0  0  0  0  0  0  0  0  0
  161.1250  203.4980  145.8220 C   0  0  0  0  0  0  0  0  0  0  0  0
  161.2780  204.7300  145.1760 C   0  0  0  0  0  0  0  0  0  0  0  0
  160.9190  204.8670  143.8760 F   0  0  0  0  0  0  0  0  0  0  0  0
  160.6140  202.4410  145.1410 F   0  0  0  0  0  0  0  0  0  0  0  0
  162.1640  205.7040  147.2130 C   0  0  0  0  0  0  0  0  0  0  0  0
  161.7950  205.8270  145.8710 C   0  0  0  0  0  3  0  0  0  0  0  0
  161.3360  202.0610  147.8800 C   0  0  0  0  0  2  0  0  0  0  0  0
  160.5420  202.2430  149.1320 C   0  0  0  0  0  0  0  0  0  0  0  0
  159.3870  201.8450  149.1810 O   0  0  0  0  0  0  0  0  0  0  0  0
  161.3680  201.9150  151.3290 O   0  0  0  0  0  1  0  0  0  0  0  0
  161.1780  202.8720  150.3330 C   0  0  2  0  0  3  0  0  0  0  0  0
  160.3160  204.0010  150.8640 C   0  0  0  0  0  1  0  0  0  0  0  0
  1  3  1  6  0  0  0
  1 13  1  0  0  0  0
  2  1  1  0  0  0  0
  4 18  1  6  0  0  0
  4  3  1  0  0  0  0
  5  4  1  0  0  0  0
  5  2  1  0  0  0  0
  6 12  1  0  0  0  0
  7  8  1  0  0  0  0
  7 14  2  0  0  0  0
  8  6  2  0  0  0  0
  9 14  1  0  0  0  0
 10  9  2  0  0  0  0
 11 12  2  0  0  0  0
 11 15  1  0  0  0  0
 13 10  1  1  0  0  0
 13  7  1  0  0  0  0
 14 11  1  0  0  0  0
 15 16  2  0  0  0  0
 15 17  1  0  0  0  0
 20 19  2  0  0  0  0
 20 27  1  0  0  0  0
 21 20  1  0  0  0  0
 22 21  2  0  0  0  0
 22 26  1  0  0  0  0
 23 22  1  0  0  0  0
 24 21  1  0  0  0  0
 25 19  1  0  0  0  0
 25 18  1  0  0  0  0
 26 25  2  0  0  0  0
 27 28  1  0  0  0  0
 28 29  2  0  0  0  0
 28 31  1  0  0  0  0
 31 32  1  1  0  0  0
 31 30  1  0  0  0  0
M  END
>  <MODEL>
2

>  <REMARK>
 VINA RESULT:      -9.6      3.360      8.833
  Name = 
  7 active torsions:
  status: ('A' for Active; 'I' for Inactive)
    1  A    between atoms: C_1  and  C_17
    2  A    between atoms: C_7  and  C_12
    3  A    between atoms: C_7  and  C_18
    4  A    between atoms: C_10  and  C_12
    5  A    between atoms: O_13  and  C_25
    6  A    between atoms: O_13  and  C_31
    7  A    between atoms: C_14  and  C_23
                            x       y       z     vdW  Elec       q    Type
                         _______ _______ _______ _____ _____    ______ ____

>  <TORSDO>
F 7

$$$$
=
 OpenBabel11072411553D

 32 35  0  0  1  0  0  0  0  0999 V2000
  161.5940  205.7830  151.3400 C   0  0  2  0  0  3  0  0  0  0  0  0
  161.6450  205.2290  152.6930 N   0  0  0  0  0  2  0  0  0  0  0  0
  161.3500  207.2790  151.4500 C   0  0  0  0  0  2  0  0  0  0  0  0
  160.9830  207.5130  152.8900 C   0  0  1  0  0  3  0  0  0  0  0  0
  161.6180  206.3560  153.6140 C   0  0  0  0  0  2  0  0  0  0  0  0
  161.6060  205.1750  146.8840 C   0  0  0  0  0  3  0  0  0  0  0  0
  160.9150  204.7910  149.1540 C   0  0  0  0  0  0  0  0  0  0  0  0
  161.2420  205.6880  148.1350 C   0  0  0  0  0  3  0  0  0  0  0  0
  160.4810  202.7520  150.1770 C   0  0  0  0  0  3  0  0  0  0  0  0
  160.1390  203.8060  151.1440 N   0  0  0  0  0  0  0  0  0  0  0  0
  161.2810  202.8930  147.7030 C   0  0  0  0  0  0  0  0  0  0  0  0
  161.6290  203.7860  146.6700 C   0  0  0  0  0  3  0  0  0  0  0  0
  160.4770  205.1050  150.5360 C   0  0  1  0  0  3  0  0  0  0  0  0
  160.9170  203.4430  148.9450 C   0  0  0  0  0  0  0  0  0  0  0  0
  161.3020  201.4370  147.4480 C   0  0  0  0  0  0  0  0  0  0  0  0
  160.9650  200.9860  146.3210 O   0  0  0  0  0  0  0  0  0  0  0  0
  161.6950  200.5430  148.4380 O   0  0  0  0  0  1  0  0  0  0  0  0
  161.5380  208.7400  153.3530 O   0  0  0  0  0  0  0  0  0  0  0  0
  160.0810  210.2430  154.6210 C   0  0  0  0  0  3  0  0  0  0  0  0
  159.3530  211.4350  154.7000 C   0  0  0  0  0  0  0  0  0  0  0  0
  159.3470  212.3210  153.6110 C   0  0  0  0  0  0  0  0  0  0  0  0
  160.0580  212.0020  152.4490 C   0  0  0  0  0  0  0  0  0  0  0  0
  160.0550  212.8510  151.3930 F   0  0  0  0  0  0  0  0  0  0  0  0
  158.6560  213.4880  153.6780 F   0  0  0  0  0  0  0  0  0  0  0  0
  160.7980  209.9230  153.4570 C   0  0  0  0  0  0  0  0  0  0  0  0
  160.7800  210.8070  152.3760 C   0  0  0  0  0  3  0  0  0  0  0  0
  158.6110  211.7620  155.9550 C   0  0  0  0  0  2  0  0  0  0  0  0
  157.1360  211.6900  155.7280 C   0  0  0  0  0  0  0  0  0  0  0  0
  156.6350  210.6490  155.3310 O   0  0  0  0  0  0  0  0  0  0  0  0
  155.6240  213.3010  154.8720 O   0  0  0  0  0  1  0  0  0  0  0  0
  156.2770  212.8780  156.0290 C   0  0  2  0  0  3  0  0  0  0  0  0
  157.1130  214.0130  156.5890 C   0  0  0  0  0  1  0  0  0  0  0  0
  1  3  1  1  0  0  0
  1  2  1  0  0  0  0
  2  5  1  0  0  0  0
  3  4  1  0  0  0  0
  4 18  1  1  0  0  0
  4  5  1  0  0  0  0
  6  8  1  0  0  0  0
  8  7  2  0  0  0  0
  9 10  2  0  0  0  0
 11 14  2  0  0  0  0
 12  6  2  0  0  0  0
 12 11  1  0  0  0  0
 13  7  1  6  0  0  0
 13 10  1  0  0  0  0
 13  1  1  0  0  0  0
 14  7  1  0  0  0  0
 14  9  1  0  0  0  0
 15 11  1  0  0  0  0
 15 17  1  0  0  0  0
 16 15  2  0  0  0  0
 18 25  1  0  0  0  0
 19 20  1  0  0  0  0
 20 27  1  0  0  0  0
 21 24  1  0  0  0  0
 21 20  2  0  0  0  0
 22 21  1  0  0  0  0
 23 22  1  0  0  0  0
 25 19  2  0  0  0  0
 26 22  2  0  0  0  0
 26 25  1  0  0  0  0
 28 27  1  0  0  0  0
 28 31  1  0  0  0  0
 29 28  2  0  0  0  0
 30 31  1  0  0  0  0
 31 32  1  6  0  0  0
M  END
>  <MODEL>
3

>  <REMARK>
 VINA RESULT:      -8.9      3.331      4.437
  Name = 
  7 active torsions:
  status: ('A' for Active; 'I' for Inactive)
    1  A    between atoms: C_1  and  C_17
    2  A    between atoms: C_7  and  C_12
    3  A    between atoms: C_7  and  C_18
    4  A    between atoms: C_10  and  C_12
    5  A    between atoms: O_13  and  C_25
    6  A    between atoms: O_13  and  C_31
    7  A    between atoms: C_14  and  C_23
                            x       y       z     vdW  Elec       q    Type
                         _______ _______ _______ _____ _____    ______ ____

>  <TORSDO>
F 7

$$$$
=
 OpenBabel11072411553D

 32 35  0  0  1  0  0  0  0  0999 V2000
  161.6660  205.9410  151.2290 C   0  0  2  0  0  3  0  0  0  0  0  0
  161.6700  205.5830  152.6480 N   0  0  0  0  0  2  0  0  0  0  0  0
  161.4860  207.4450  151.1210 C   0  0  0  0  0  2  0  0  0  0  0  0
  161.1070  207.8970  152.5060 C   0  0  1  0  0  3  0  0  0  0  0  0
  161.6790  206.8290  153.4000 C   0  0  0  0  0  2  0  0  0  0  0  0
  161.5380  205.0730  146.8180 C   0  0  0  0  0  3  0  0  0  0  0  0
  160.9290  204.8140  149.1290 C   0  0  0  0  0  0  0  0  0  0  0  0
  161.2080  205.6540  148.0490 C   0  0  0  0  0  3  0  0  0  0  0  0
  160.5600  202.8330  150.2820 C   0  0  0  0  0  3  0  0  0  0  0  0
  160.2350  203.9370  151.1980 N   0  0  0  0  0  0  0  0  0  0  0  0
  161.2740  202.8390  147.7780 C   0  0  0  0  0  0  0  0  0  0  0  0
  161.5750  203.6750  146.6840 C   0  0  0  0  0  3  0  0  0  0  0  0
  160.5330  205.2020  150.5050 C   0  0  1  0  0  3  0  0  0  0  0  0
  160.9440  203.4560  148.9990 C   0  0  0  0  0  0  0  0  0  0  0  0
  161.3090  201.3720  147.6070 C   0  0  0  0  0  0  0  0  0  0  0  0
  161.6300  200.6280  148.5730 O   0  0  0  0  0  1  0  0  0  0  0  0
  160.9870  200.7850  146.3880 O   0  0  0  0  0  0  0  0  0  0  0  0
  161.7080  209.1530  152.8030 O   0  0  0  0  0  0  0  0  0  0  0  0
  160.0380  210.8960  152.4020 C   0  0  0  0  0  3  0  0  0  0  0  0
  159.3200  212.0060  152.8570 C   0  0  0  0  0  0  0  0  0  0  0  0
  159.5360  212.4910  154.1580 C   0  0  0  0  0  0  0  0  0  0  0  0
  160.4770  211.8680  154.9840 C   0  0  0  0  0  0  0  0  0  0  0  0
  160.6930  212.3310  156.2400 F   0  0  0  0  0  0  0  0  0  0  0  0
  158.8380  213.5600  154.6180 F   0  0  0  0  0  0  0  0  0  0  0  0
  160.9790  210.2680  153.2320 C   0  0  0  0  0  0  0  0  0  0  0  0
  161.1940  210.7610  154.5210 C   0  0  0  0  0  3  0  0  0  0  0  0
  158.3110  212.6490  151.9610 C   0  0  0  0  0  2  0  0  0  0  0  0
  158.9770  213.5730  150.9960 C   0  0  0  0  0  0  0  0  0  0  0  0
  160.0370  214.1020  151.2960 O   0  0  0  0  0  0  0  0  0  0  0  0
  157.2560  212.9850  149.4760 O   0  0  0  0  0  1  0  0  0  0  0  0
  158.3660  213.8120  149.6500 C   0  0  2  0  0  3  0  0  0  0  0  0
  159.3770  213.5510  148.5500 C   0  0  0  0  0  1  0  0  0  0  0  0
  1  3  1  1  0  0  0
  1  2  1  0  0  0  0
  2  5  1  0  0  0  0
  3  4  1  0  0  0  0
  4 18  1  1  0  0  0
  4  5  1  0  0  0  0
  6  8  1  0  0  0  0
  8  7  2  0  0  0  0
  9 10  2  0  0  0  0
 11 14  2  0  0  0  0
 12  6  2  0  0  0  0
 12 11  1  0  0  0  0
 13  7  1  6  0  0  0
 13 10  1  0  0  0  0
 13  1  1  0  0  0  0
 14  7  1  0  0  0  0
 14  9  1  0  0  0  0
 15 11  1  0  0  0  0
 15 16  1  0  0  0  0
 17 15  2  0  0  0  0
 18 25  1  0  0  0  0
 19 20  2  0  0  0  0
 19 25  1  0  0  0  0
 20 21  1  0  0  0  0
 21 24  1  0  0  0  0
 21 22  2  0  0  0  0
 22 23  1  0  0  0  0
 25 26  2  0  0  0  0
 26 22  1  0  0  0  0
 27 20  1  0  0  0  0
 28 29  2  0  0  0  0
 28 27  1  0  0  0  0
 30 31  1  0  0  0  0
 31 32  1  6  0  0  0
 31 28  1  0  0  0  0
M  END
>  <MODEL>
4

>  <REMARK>
 VINA RESULT:      -8.8      3.420      4.844
  Name = 
  7 active torsions:
  status: ('A' for Active; 'I' for Inactive)
    1  A    between atoms: C_1  and  C_17
    2  A    between atoms: C_7  and  C_12
    3  A    between atoms: C_7  and  C_18
    4  A    between atoms: C_10  and  C_12
    5  A    between atoms: O_13  and  C_25
    6  A    between atoms: O_13  and  C_31
    7  A    between atoms: C_14  and  C_23
                            x       y       z     vdW  Elec       q    Type
                         _______ _______ _______ _____ _____    ______ ____

>  <TORSDO>
F 7

$$$$
=
 OpenBabel11072411553D

 32 35  0  0  1  0  0  0  0  0999 V2000
  161.5480  206.2940  150.8260 C   0  0  2  0  0  3  0  0  0  0  0  0
  161.7030  205.9770  152.2450 N   0  0  0  0  0  2  0  0  0  0  0  0
  161.2040  207.7690  150.7040 C   0  0  0  0  0  2  0  0  0  0  0  0
  160.8920  208.2170  152.1060 C   0  0  1  0  0  3  0  0  0  0  0  0
  161.6410  207.2380  152.9710 C   0  0  0  0  0  2  0  0  0  0  0  0
  161.4960  204.7780  146.5920 C   0  0  0  0  0  3  0  0  0  0  0  0
  160.8670  204.8470  148.9110 C   0  0  0  0  0  0  0  0  0  0  0  0
  161.1360  205.5250  147.7200 C   0  0  0  0  0  3  0  0  0  0  0  0
  160.5390  203.0490  150.3430 C   0  0  0  0  0  3  0  0  0  0  0  0
  160.1730  204.2670  151.0830 N   0  0  0  0  0  0  0  0  0  0  0  0
  161.2830  202.7040  147.8710 C   0  0  0  0  0  0  0  0  0  0  0  0
  161.5720  203.3770  146.6670 C   0  0  0  0  0  3  0  0  0  0  0  0
  160.4450  205.4240  150.2110 C   0  0  1  0  0  3  0  0  0  0  0  0
  160.9210  203.4860  148.9840 C   0  0  0  0  0  0  0  0  0  0  0  0
  161.3590  201.2290  147.9210 C   0  0  0  0  0  0  0  0  0  0  0  0
  161.5670  200.6420  149.0170 O   0  0  0  0  0  1  0  0  0  0  0  0
  161.2010  200.4650  146.7700 O   0  0  0  0  0  0  0  0  0  0  0  0
  161.3800  209.5350  152.3290 O   0  0  0  0  0  0  0  0  0  0  0  0
  160.8330  211.7000  151.3270 C   0  0  0  0  0  3  0  0  0  0  0  0
  160.0070  212.8260  151.2650 C   0  0  0  0  0  0  0  0  0  0  0  0
  158.9020  212.9280  152.1260 C   0  0  0  0  0  0  0  0  0  0  0  0
  158.6430  211.9090  153.0490 C   0  0  0  0  0  0  0  0  0  0  0  0
  157.5800  212.0010  153.8850 F   0  0  0  0  0  0  0  0  0  0  0  0
  158.0830  214.0090  152.0690 F   0  0  0  0  0  0  0  0  0  0  0  0
  160.5720  210.6750  152.2500 C   0  0  0  0  0  0  0  0  0  0  0  0
  159.4750  210.7880  153.1080 C   0  0  0  0  0  3  0  0  0  0  0  0
  160.2950  213.8970  150.2630 C   0  0  0  0  0  2  0  0  0  0  0  0
  159.8490  213.4770  148.9010 C   0  0  0  0  0  0  0  0  0  0  0  0
  158.6560  213.3810  148.6570 O   0  0  0  0  0  0  0  0  0  0  0  0
  160.9400  211.8510  147.5660 O   0  0  0  0  0  1  0  0  0  0  0  0
  160.8650  213.2180  147.8320 C   0  0  2  0  0  3  0  0  0  0  0  0
  162.2270  213.7350  148.2540 C   0  0  0  0  0  1  0  0  0  0  0  0
  1  3  1  1  0  0  0
  1  2  1  0  0  0  0
  2  5  1  0  0  0  0
  3  4  1  0  0  0  0
  4 18  1  6  0  0  0
  4  5  1  0  0  0  0
  6 12  2  0  0  0  0
  6  8  1  0  0  0  0
  7 14  1  0  0  0  0
  8  7  2  0  0  0  0
  9 10  2  0  0  0  0
 11 15  1  0  0  0  0
 11 14  2  0  0  0  0
 12 11  1  0  0  0  0
 13  7  1  6  0  0  0
 13  1  1  0  0  0  0
 13 10  1  0  0  0  0
 14  9  1  0  0  0  0
 15 16  1  0  0  0  0
 17 15  2  0  0  0  0
 19 25  1  0  0  0  0
 20 19  2  0  0  0  0
 20 21  1  0  0  0  0
 21 22  2  0  0  0  0
 22 26  1  0  0  0  0
 22 23  1  0  0  0  0
 24 21  1  0  0  0  0
 25 18  1  0  0  0  0
 25 26  2  0  0  0  0
 27 20  1  0  0  0  0
 28 27  1  0  0  0  0
 29 28  2  0  0  0  0
 30 31  1  0  0  0  0
 31 32  1  1  0  0  0
 31 28  1  0  0  0  0
M  END
>  <MODEL>
5

>  <REMARK>
 VINA RESULT:      -8.6      3.658      5.210
  Name = 
  7 active torsions:
  status: ('A' for Active; 'I' for Inactive)
    1  A    between atoms: C_1  and  C_17
    2  A    between atoms: C_7  and  C_12
    3  A    between atoms: C_7  and  C_18
    4  A    between atoms: C_10  and  C_12
    5  A    between atoms: O_13  and  C_25
    6  A    between atoms: O_13  and  C_31
    7  A    between atoms: C_14  and  C_23
                            x       y       z     vdW  Elec       q    Type
                         _______ _______ _______ _____ _____    ______ ____

>  <TORSDO>
F 7

$$$$
=
 OpenBabel11072411553D

 32 35  0  0  1  0  0  0  0  0999 V2000
  161.6160  205.9200  151.0900 C   0  0  2  0  0  3  0  0  0  0  0  0
  161.7640  205.3580  152.4320 N   0  0  0  0  0  2  0  0  0  0  0  0
  161.3270  207.4050  151.2280 C   0  0  0  0  0  2  0  0  0  0  0  0
  161.0370  207.6160  152.6900 C   0  0  1  0  0  3  0  0  0  0  0  0
  161.7520  206.4760  153.3650 C   0  0  0  0  0  2  0  0  0  0  0  0
  161.5340  205.0780  146.6730 C   0  0  0  0  0  3  0  0  0  0  0  0
  160.8860  204.8200  148.9730 C   0  0  0  0  0  0  0  0  0  0  0  0
  161.1990  205.6600  147.9020 C   0  0  0  0  0  3  0  0  0  0  0  0
  160.4580  202.8420  150.1110 C   0  0  0  0  0  3  0  0  0  0  0  0
  160.1430  203.9480  151.0280 N   0  0  0  0  0  0  0  0  0  0  0  0
  161.2090  202.8450  147.6170 C   0  0  0  0  0  0  0  0  0  0  0  0
  161.5430  203.6800  146.5320 C   0  0  0  0  0  3  0  0  0  0  0  0
  160.4780  205.2100  150.3450 C   0  0  1  0  0  3  0  0  0  0  0  0
  160.8740  203.4630  148.8360 C   0  0  0  0  0  0  0  0  0  0  0  0
  161.2150  201.3780  147.4390 C   0  0  0  0  0  0  0  0  0  0  0  0
  160.9190  200.8740  146.3230 O   0  0  0  0  0  0  0  0  0  0  0  0
  161.5480  200.5310  148.4900 O   0  0  0  0  0  1  0  0  0  0  0  0
  161.5750  208.8570  153.1320 O   0  0  0  0  0  0  0  0  0  0  0  0
  160.4690  211.0260  153.3840 C   0  0  0  0  0  3  0  0  0  0  0  0
  159.7400  211.9240  154.1700 C   0  0  0  0  0  0  0  0  0  0  0  0
  159.3790  211.5700  155.4800 C   0  0  0  0  0  0  0  0  0  0  0  0
  159.7610  210.3280  155.9950 C   0  0  0  0  0  0  0  0  0  0  0  0
  159.4180  209.9790  157.2600 F   0  0  0  0  0  0  0  0  0  0  0  0
  158.6610  212.4270  156.2500 F   0  0  0  0  0  0  0  0  0  0  0  0
  160.8490  209.7760  153.8980 C   0  0  0  0  0  0  0  0  0  0  0  0
  160.4930  209.4360  155.2050 C   0  0  0  0  0  3  0  0  0  0  0  0
  159.3320  213.2420  153.5950 C   0  0  0  0  0  2  0  0  0  0  0  0
  157.9850  213.1430  152.9570 C   0  0  0  0  0  0  0  0  0  0  0  0
  157.8840  212.7120  151.8180 O   0  0  0  0  0  0  0  0  0  0  0  0
  156.1550  212.3960  154.2650 O   0  0  0  0  0  1  0  0  0  0  0  0
  156.7640  213.5320  153.7310 C   0  0  2  0  0  3  0  0  0  0  0  0
  155.7810  214.2700  152.8430 C   0  0  0  0  0  1  0  0  0  0  0  0
  1  3  1  1  0  0  0
  1  2  1  0  0  0  0
  2  5  1  0  0  0  0
  3  4  1  0  0  0  0
  4 18  1  1  0  0  0
  4  5  1  0  0  0  0
  6  8  1  0  0  0  0
  8  7  2  0  0  0  0
  9 10  2  0  0  0  0
 11 14  2  0  0  0  0
 12  6  2  0  0  0  0
 12 11  1  0  0  0  0
 13  7  1  6  0  0  0
 13 10  1  0  0  0  0
 13  1  1  0  0  0  0
 14  7  1  0  0  0  0
 14  9  1  0  0  0  0
 15 11  1  0  0  0  0
 15 17  1  0  0  0  0
 16 15  2  0  0  0  0
 18 25  1  0  0  0  0
 19 25  2  0  0  0  0
 19 20  1  0  0  0  0
 20 21  2  0  0  0  0
 21 22  1  0  0  0  0
 21 24  1  0  0  0  0
 22 23  1  0  0  0  0
 25 26  1  0  0  0  0
 26 22  2  0  0  0  0
 27 20  1  0  0  0  0
 28 27  1  0  0  0  0
 28 31  1  0  0  0  0
 29 28  2  0  0  0  0
 31 32  1  6  0  0  0
 31 30  1  0  0  0  0
M  END
>  <MODEL>
6

>  <REMARK>
 VINA RESULT:      -8.5      3.084      4.318
  Name = 
  7 active torsions:
  status: ('A' for Active; 'I' for Inactive)
    1  A    between atoms: C_1  and  C_17
    2  A    between atoms: C_7  and  C_12
    3  A    between atoms: C_7  and  C_18
    4  A    between atoms: C_10  and  C_12
    5  A    between atoms: O_13  and  C_25
    6  A    between atoms: O_13  and  C_31
    7  A    between atoms: C_14  and  C_23
                            x       y       z     vdW  Elec       q    Type
                         _______ _______ _______ _____ _____    ______ ____

>  <TORSDO>
F 7

$$$$
=
 OpenBabel11072411553D

 32 35  0  0  1  0  0  0  0  0999 V2000
  160.9130  207.5940  152.6600 C   0  0  2  0  0  3  0  0  0  0  0  0
  161.2440  206.8460  153.8730 N   0  0  0  0  0  2  0  0  0  0  0  0
  160.8430  206.6140  151.5030 C   0  0  0  0  0  2  0  0  0  0  0  0
  161.4180  205.3300  152.0380 C   0  0  1  0  0  3  0  0  0  0  0  0
  161.2010  205.4330  153.5240 C   0  0  0  0  0  2  0  0  0  0  0  0
  162.2900  208.9580  148.6010 C   0  0  0  0  0  3  0  0  0  0  0  0
  161.9810  209.0990  150.9810 C   0  0  0  0  0  0  0  0  0  0  0  0
  162.3270  208.3430  149.8590 C   0  0  0  0  0  3  0  0  0  0  0  0
  161.3790  210.9670  152.2220 C   0  0  0  0  0  3  0  0  0  0  0  0
  161.6620  209.8830  153.1760 N   0  0  0  0  0  0  0  0  0  0  0  0
  161.5880  211.0640  149.6280 C   0  0  0  0  0  0  0  0  0  0  0  0
  161.9190  210.3080  148.4860 C   0  0  0  0  0  3  0  0  0  0  0  0
  161.9760  208.6700  152.4010 C   0  0  1  0  0  3  0  0  0  0  0  0
  161.6400  210.4150  150.8760 C   0  0  0  0  0  0  0  0  0  0  0  0
  161.2130  212.4860  149.4810 C   0  0  0  0  0  0  0  0  0  0  0  0
  161.8950  213.2480  148.7440 O   0  0  0  0  0  0  0  0  0  0  0  0
  160.1070  213.0060  150.1430 O   0  0  0  0  0  1  0  0  0  0  0  0
  160.7090  204.2100  151.5190 O   0  0  0  0  0  0  0  0  0  0  0  0
  161.3540  204.5380  149.1810 C   0  0  0  0  0  3  0  0  0  0  0  0
  161.5430  204.0160  147.8980 C   0  0  0  0  0  0  0  0  0  0  0  0
  161.2890  202.6560  147.6540 C   0  0  0  0  0  0  0  0  0  0  0  0
  160.8360  201.8360  148.6920 C   0  0  0  0  0  0  0  0  0  0  0  0
  160.5870  200.5230  148.4640 F   0  0  0  0  0  0  0  0  0  0  0  0
  161.4810  202.1320  146.4160 F   0  0  0  0  0  0  0  0  0  0  0  0
  160.9030  203.7150  150.2250 C   0  0  0  0  0  0  0  0  0  0  0  0
  160.6450  202.3650  149.9720 C   0  0  0  0  0  3  0  0  0  0  0  0
  162.0400  204.9070  146.8060 C   0  0  0  0  0  2  0  0  0  0  0  0
  160.9020  205.6230  146.1530 C   0  0  0  0  0  0  0  0  0  0  0  0
  160.2690  206.4560  146.7840 O   0  0  0  0  0  0  0  0  0  0  0  0
  160.0750  204.0500  144.5850 O   0  0  0  0  0  1  0  0  0  0  0  0
  160.5730  205.3460  144.7190 C   0  0  2  0  0  3  0  0  0  0  0  0
  161.8020  205.5160  143.8470 C   0  0  0  0  0  1  0  0  0  0  0  0
  1  3  1  6  0  0  0
  1  2  1  0  0  0  0
  3  4  1  0  0  0  0
  4 18  1  6  0  0  0
  4  5  1  0  0  0  0
  5  2  1  0  0  0  0
  6  8  1  0  0  0  0
  8  7  2  0  0  0  0
  9 10  2  0  0  0  0
 11 14  2  0  0  0  0
 12  6  2  0  0  0  0
 12 11  1  0  0  0  0
 13  7  1  6  0  0  0
 13  1  1  0  0  0  0
 13 10  1  0  0  0  0
 14  7  1  0  0  0  0
 14  9  1  0  0  0  0
 15 11  1  0  0  0  0
 15 17  1  0  0  0  0
 16 15  2  0  0  0  0
 19 25  1  0  0  0  0
 20 19  2  0  0  0  0
 21 20  1  0  0  0  0
 21 22  2  0  0  0  0
 22 26  1  0  0  0  0
 23 22  1  0  0  0  0
 24 21  1  0  0  0  0
 25 18  1  0  0  0  0
 26 25  2  0  0  0  0
 27 20  1  0  0  0  0
 28 29  2  0  0  0  0
 28 27  1  0  0  0  0
 30 31  1  0  0  0  0
 31 32  1  6  0  0  0
 31 28  1  0  0  0  0
M  END
>  <MODEL>
7

>  <REMARK>
 VINA RESULT:      -8.5      3.820      8.762
  Name = 
  7 active torsions:
  status: ('A' for Active; 'I' for Inactive)
    1  A    between atoms: C_1  and  C_17
    2  A    between atoms: C_7  and  C_12
    3  A    between atoms: C_7  and  C_18
    4  A    between atoms: C_10  and  C_12
    5  A    between atoms: O_13  and  C_25
    6  A    between atoms: O_13  and  C_31
    7  A    between atoms: C_14  and  C_23
                            x       y       z     vdW  Elec       q    Type
                         _______ _______ _______ _____ _____    ______ ____

>  <TORSDO>
F 7

$$$$
=
 OpenBabel11072411553D

 32 35  0  0  1  0  0  0  0  0999 V2000
  160.5140  208.7110  153.0640 C   0  0  2  0  0  3  0  0  0  0  0  0
  160.4610  208.3920  154.4910 N   0  0  0  0  0  2  0  0  0  0  0  0
  161.0240  207.4870  152.3230 C   0  0  0  0  0  2  0  0  0  0  0  0
  161.5250  206.5580  153.3960 C   0  0  1  0  0  3  0  0  0  0  0  0
  160.7490  206.9710  154.6180 C   0  0  0  0  0  2  0  0  0  0  0  0
  162.3290  209.8570  149.1120 C   0  0  0  0  0  3  0  0  0  0  0  0
  161.6130  210.1900  151.3820 C   0  0  0  0  0  0  0  0  0  0  0  0
  162.2470  209.3900  150.4290 C   0  0  0  0  0  3  0  0  0  0  0  0
  160.5460  212.0510  152.2710 C   0  0  0  0  0  3  0  0  0  0  0  0
  160.8230  211.1330  153.3870 N   0  0  0  0  0  0  0  0  0  0  0  0
  161.1660  211.9130  149.7460 C   0  0  0  0  0  0  0  0  0  0  0  0
  161.7890  211.1080  148.7710 C   0  0  0  0  0  3  0  0  0  0  0  0
  161.4360  209.9150  152.8290 C   0  0  1  0  0  3  0  0  0  0  0  0
  161.1040  211.4140  151.0600 C   0  0  0  0  0  0  0  0  0  0  0  0
  160.6160  213.2300  149.3640 C   0  0  0  0  0  0  0  0  0  0  0  0
  161.3810  214.1390  148.9440 O   0  0  0  0  0  0  0  0  0  0  0  0
  159.2530  213.4900  149.4550 O   0  0  0  0  0  1  0  0  0  0  0  0
  161.2280  205.2060  153.0650 O   0  0  0  0  0  0  0  0  0  0  0  0
  160.9320  205.6320  150.6730 C   0  0  0  0  0  3  0  0  0  0  0  0
  160.8280  205.1470  149.3660 C   0  0  0  0  0  0  0  0  0  0  0  0
  160.9180  203.7670  149.1250 C   0  0  0  0  0  0  0  0  0  0  0  0
  161.0970  202.8840  150.1950 C   0  0  0  0  0  0  0  0  0  0  0  0
  161.1830  201.5490  149.9710 F   0  0  0  0  0  0  0  0  0  0  0  0
  160.8320  203.2820  147.8600 F   0  0  0  0  0  0  0  0  0  0  0  0
  161.1170  204.7480  151.7480 C   0  0  0  0  0  0  0  0  0  0  0  0
  161.1970  203.3750  151.5000 C   0  0  0  0  0  3  0  0  0  0  0  0
  160.6480  206.1090  148.2360 C   0  0  0  0  0  2  0  0  0  0  0  0
  161.9370  206.3120  147.5080 C   0  0  0  0  0  0  0  0  0  0  0  0
  162.8800  206.8360  148.0800 O   0  0  0  0  0  0  0  0  0  0  0  0
  160.8420  205.4030  145.6120 O   0  0  0  0  0  1  0  0  0  0  0  0
  162.0780  205.8330  146.0960 C   0  0  2  0  0  3  0  0  0  0  0  0
  163.0830  204.7010  146.0140 C   0  0  0  0  0  1  0  0  0  0  0  0
  1  3  1  6  0  0  0
  1  2  1  0  0  0  0
  2  5  1  0  0  0  0
  3  4  1  0  0  0  0
  4 18  1  6  0  0  0
  4  5  1  0  0  0  0
  6  8  1  0  0  0  0
  8  7  2  0  0  0  0
  9 10  2  0  0  0  0
 11 14  2  0  0  0  0
 12  6  2  0  0  0  0
 12 11  1  0  0  0  0
 13  7  1  6  0  0  0
 13  1  1  0  0  0  0
 13 10  1  0  0  0  0
 14  7  1  0  0  0  0
 14  9  1  0  0  0  0
 15 17  1  0  0  0  0
 15 11  1  0  0  0  0
 16 15  2  0  0  0  0
 19 25  1  0  0  0  0
 20 19  2  0  0  0  0
 21 20  1  0  0  0  0
 21 22  2  0  0  0  0
 22 26  1  0  0  0  0
 23 22  1  0  0  0  0
 24 21  1  0  0  0  0
 25 18  1  0  0  0  0
 26 25  2  0  0  0  0
 27 20  1  0  0  0  0
 28 29  2  0  0  0  0
 28 27  1  0  0  0  0
 30 31  1  0  0  0  0
 31 32  1  1  0  0  0
 31 28  1  0  0  0  0
M  END
>  <MODEL>
8

>  <REMARK>
 VINA RESULT:      -8.3      3.790      8.430
  Name = 
  7 active torsions:
  status: ('A' for Active; 'I' for Inactive)
    1  A    between atoms: C_1  and  C_17
    2  A    between atoms: C_7  and  C_12
    3  A    between atoms: C_7  and  C_18
    4  A    between atoms: C_10  and  C_12
    5  A    between atoms: O_13  and  C_25
    6  A    between atoms: O_13  and  C_31
    7  A    between atoms: C_14  and  C_23
                            x       y       z     vdW  Elec       q    Type
                         _______ _______ _______ _____ _____    ______ ____

>  <TORSDO>
F 7

$$$$
=
 OpenBabel11072411553D

 32 35  0  0  1  0  0  0  0  0999 V2000
  161.3130  207.7020  149.3220 C   0  0  2  0  0  3  0  0  0  0  0  0
  161.9450  208.8790  148.7250 N   0  0  0  0  0  2  0  0  0  0  0  0
  161.1940  207.9360  150.8180 C   0  0  0  0  0  2  0  0  0  0  0  0
  162.0290  209.1570  151.0930 C   0  0  1  0  0  3  0  0  0  0  0  0
  162.0480  209.8830  149.7740 C   0  0  0  0  0  2  0  0  0  0  0  0
  161.3480  203.9600  151.8160 C   0  0  0  0  0  3  0  0  0  0  0  0
  161.7140  205.2970  149.8530 C   0  0  0  0  0  0  0  0  0  0  0  0
  161.7980  205.1540  151.2390 C   0  0  0  0  0  3  0  0  0  0  0  0
  161.3140  204.7080  147.6430 C   0  0  0  0  0  3  0  0  0  0  0  0
  161.9570  206.0310  147.6310 N   0  0  0  0  0  0  0  0  0  0  0  0
  160.7700  203.0860  149.6060 C   0  0  0  0  0  0  0  0  0  0  0  0
  160.8330  202.9340  151.0060 C   0  0  0  0  0  3  0  0  0  0  0  0
  162.1530  206.4510  149.0300 C   0  0  1  0  0  3  0  0  0  0  0  0
  161.2340  204.2970  149.0600 C   0  0  0  0  0  0  0  0  0  0  0  0
  160.2350  201.9870  148.7750 C   0  0  0  0  0  0  0  0  0  0  0  0
  159.1980  201.3680  149.1330 O   0  0  0  0  0  1  0  0  0  0  0  0
  160.8590  201.6190  147.5880 O   0  0  0  0  0  0  0  0  0  0  0  0
  161.4130  209.9700  152.0860 O   0  0  0  0  0  0  0  0  0  0  0  0
  160.3620  210.3020  154.2710 C   0  0  0  0  0  3  0  0  0  0  0  0
  159.9230  209.7770  155.4910 C   0  0  0  0  0  0  0  0  0  0  0  0
  160.0830  208.4080  155.7580 C   0  0  0  0  0  0  0  0  0  0  0  0
  160.6910  207.5800  154.8090 C   0  0  0  0  0  0  0  0  0  0  0  0
  160.8500  206.2570  155.0590 F   0  0  0  0  0  0  0  0  0  0  0  0
  159.6500  207.8810  156.9320 F   0  0  0  0  0  0  0  0  0  0  0  0
  160.9690  209.4710  153.3160 C   0  0  0  0  0  0  0  0  0  0  0  0
  161.1310  208.1120  153.5930 C   0  0  0  0  0  3  0  0  0  0  0  0
  159.2660  210.6770  156.4860 C   0  0  0  0  0  2  0  0  0  0  0  0
  158.1510  211.4410  155.8490 C   0  0  0  0  0  0  0  0  0  0  0  0
  157.2140  210.8390  155.3470 O   0  0  0  0  0  0  0  0  0  0  0  0
  156.9570  213.4250  156.3550 O   0  0  0  0  0  1  0  0  0  0  0  0
  158.1690  212.9380  155.8670 C   0  0  2  0  0  3  0  0  0  0  0  0
  158.4180  213.4860  154.4740 C   0  0  0  0  0  1  0  0  0  0  0  0
  1  3  1  1  0  0  0
  2  1  1  0  0  0  0
  2  5  1  0  0  0  0
  3  4  1  0  0  0  0
  4 18  1  1  0  0  0
  5  4  1  0  0  0  0
  7  8  2  0  0  0  0
  8  6  1  0  0  0  0
  9 14  1  0  0  0  0
 10  9  2  0  0  0  0
 11 12  1  0  0  0  0
 12  6  2  0  0  0  0
 13 10  1  6  0  0  0
 13  1  1  0  0  0  0
 13  7  1  0  0  0  0
 14 11  2  0  0  0  0
 14  7  1  0  0  0  0
 15 16  1  0  0  0  0
 15 11  1  0  0  0  0
 17 15  2  0  0  0  0
 18 25  1  0  0  0  0
 19 20  1  0  0  0  0
 20 21  2  0  0  0  0
 20 27  1  0  0  0  0
 21 24  1  0  0  0  0
 22 23  1  0  0  0  0
 22 21  1  0  0  0  0
 25 26  1  0  0  0  0
 25 19  2  0  0  0  0
 26 22  2  0  0  0  0
 28 31  1  0  0  0  0
 28 27  1  0  0  0  0
 29 28  2  0  0  0  0
 31 32  1  6  0  0  0
 31 30  1  0  0  0  0
M  END
>  <MODEL>
9

>  <REMARK>
 VINA RESULT:      -8.3      2.077      2.845
  Name = 
  7 active torsions:
  status: ('A' for Active; 'I' for Inactive)
    1  A    between atoms: C_1  and  C_17
    2  A    between atoms: C_7  and  C_12
    3  A    between atoms: C_7  and  C_18
    4  A    between atoms: C_10  and  C_12
    5  A    between atoms: O_13  and  C_25
    6  A    between atoms: O_13  and  C_31
    7  A    between atoms: C_14  and  C_23
                            x       y       z     vdW  Elec       q    Type
                         _______ _______ _______ _____ _____    ______ ____

>  <TORSDO>
F 7

$$$$
