=
 OpenBabel11072413123D

 34 37  0  0  1  0  0  0  0  0999 V2000
  160.0480  212.4180  151.9270 C   0  0  0  0  0  2  0  0  0  0  0  0
  158.0930  212.6570  152.9960 C   0  0  0  0  0  2  0  0  0  0  0  0
  159.5940  210.7850  153.8490 C   0  0  2  0  0  3  0  0  0  0  0  0
  160.1750  206.5280  154.6540 C   0  0  0  0  0  2  0  0  0  0  0  0
  161.7220  205.1230  152.8650 S   0  0  0  0  0  0  0  0  0  0  0  0
  161.3860  208.0750  149.3430 C   0  0  1  0  0  3  0  0  0  0  0  0
  161.6230  210.4730  152.3050 C   0  0  0  0  0  2  0  0  0  0  0  0
  160.7770  208.8050  154.8320 C   0  0  1  0  0  3  0  0  0  0  0  0
  161.2240  206.5260  151.8170 C   0  0  2  0  0  3  0  0  0  0  0  0
  158.4130  211.7120  154.1620 C   0  0  0  0  0  2  0  0  0  0  0  0
  160.9200  209.5350  151.3320 C   0  0  0  0  0  2  0  0  0  0  0  0
  160.7160  206.7210  149.4360 C   0  0  0  0  0  0  0  0  0  0  0  0
  160.1350  210.1500  155.1370 C   0  0  1  0  0  3  0  0  0  0  0  0
  161.9380  208.6160  150.6690 C   0  0  1  0  0  3  0  0  0  0  0  0
  160.6660  211.4650  152.9640 C   0  0  1  0  0  3  0  0  0  0  0  0
  161.2150  208.1900  155.9670 O   0  0  0  0  0  0  0  0  0  0  0  0
  158.6650  212.1990  151.7970 O   0  0  0  0  0  0  0  0  0  0  0  0
  160.0030  207.7530  155.4530 N   0  0  2  0  0  0  0  0  0  0  0  0
  161.6220  206.0800  154.4110 C   0  0  0  0  0  2  0  0  0  0  0  0
  160.7030  206.0360  150.5440 N   0  0  0  0  0  0  0  0  0  0  0  0
  162.3850  207.4890  151.6010 C   0  0  0  0  0  2  0  0  0  0  0  0
  160.4920  211.8950  156.9540 N   0  0  0  0  0  2  0  0  0  0  0  0
  159.1740  211.8590  157.2610 O   0  0  0  0  0  1  0  0  0  0  0  0
  161.0330  211.0700  155.9240 C   0  0  0  0  0  0  0  0  0  0  0  0
  162.2650  211.1290  155.6680 O   0  0  0  0  0  0  0  0  0  0  0  0
  162.4700  208.0780  148.2680 C   0  0  0  0  0  2  0  0  0  0  0  0
  163.3710  207.0290  148.4650 O   0  0  0  0  0  1  0  0  0  0  0  0
  160.1270  206.1970  148.2800 O   0  0  0  0  0  0  0  0  0  0  0  0
  160.8080  205.3060  147.4040 C   0  0  0  0  0  2  0  0  0  0  0  0
  161.5370  204.3720  148.1460 O   0  0  0  0  0  0  0  0  0  0  0  0
  160.8500  203.2110  148.0210 N   0  0  0  0  0  2  0  0  0  0  0  0
  160.9980  202.7800  150.4220 O   0  0  0  0  0  1  0  0  0  0  0  0
  160.5650  202.3970  149.1580 C   0  0  0  0  0  0  0  0  0  0  0  0
  159.9190  201.3270  149.0150 O   0  0  0  0  0  0  0  0  0  0  0  0
  2 10  1  0  0  0  0
  3 10  1  1  0  0  0
  3 13  1  0  0  0  0
  5 19  1  0  0  0  0
  6 26  1  6  0  0  0
  6 12  1  0  0  0  0
  6 14  1  0  0  0  0
  7 15  1  0  0  0  0
  8 13  1  0  0  0  0
  8 18  1  0  0  0  0
  8 16  1  1  0  0  0
  9 21  1  6  0  0  0
  9  5  1  0  0  0  0
 11  7  1  0  0  0  0
 12 20  2  0  0  0  0
 13 24  1  6  0  0  0
 14 11  1  1  0  0  0
 14 21  1  0  0  0  0
 15  1  1  6  0  0  0
 15  3  1  0  0  0  0
 17  1  1  0  0  0  0
 17  2  1  0  0  0  0
 18  4  1  6  0  0  0
 18 16  1  0  0  0  0
 19  4  1  0  0  0  0
 20  9  1  0  0  0  0
 22 23  1  0  0  0  0
 24 22  1  0  0  0  0
 25 24  2  0  0  0  0
 26 27  1  0  0  0  0
 28 12  1  0  0  0  0
 29 30  1  0  0  0  0
 29 28  1  0  0  0  0
 31 30  1  0  0  0  0
 31 33  1  0  0  0  0
 33 32  1  0  0  0  0
 34 33  2  0  0  0  0
M  END
>  <MODEL>
1

>  <REMARK>
 VINA RESULT:      -6.1      0.000      0.000
  Name = 
  6 active torsions:
  status: ('A' for Active; 'I' for Inactive)
    1  A    between atoms: C_1  and  O_15
    2  A    between atoms: C_1  and  O_26
    3  A    between atoms: C_7  and  C_16
    4  A    between atoms: N_12  and  O_26
    5  A    between atoms: C_14  and  C_20
    6  A    between atoms: O_15  and  C_19
                            x       y       z     vdW  Elec       q    Type
                         _______ _______ _______ _____ _____    ______ ____

>  <TORSDO>
F 6

$$$$
=
 OpenBabel11072413123D

 34 37  0  0  1  0  0  0  0  0999 V2000
  159.5830  212.8070  152.0130 C   0  0  0  0  0  2  0  0  0  0  0  0
  157.4840  213.0960  152.7430 C   0  0  0  0  0  2  0  0  0  0  0  0
  158.8920  211.4340  154.0640 C   0  0  2  0  0  3  0  0  0  0  0  0
  159.4630  207.3620  155.5470 C   0  0  0  0  0  2  0  0  0  0  0  0
  161.2990  205.8010  154.2190 S   0  0  0  0  0  0  0  0  0  0  0  0
  161.4120  208.2190  150.2980 C   0  0  1  0  0  3  0  0  0  0  0  0
  161.1370  211.0110  152.8890 C   0  0  0  0  0  2  0  0  0  0  0  0
  159.9690  209.6680  155.4810 C   0  0  1  0  0  3  0  0  0  0  0  0
  160.9250  207.0200  152.9200 C   0  0  2  0  0  3  0  0  0  0  0  0
  157.6520  212.3370  154.0670 C   0  0  0  0  0  2  0  0  0  0  0  0
  160.6140  209.9150  151.9700 C   0  0  0  0  0  2  0  0  0  0  0  0
  160.7730  206.8600  150.4870 C   0  0  0  0  0  0  0  0  0  0  0  0
  159.2520  211.0100  155.4940 C   0  0  1  0  0  3  0  0  0  0  0  0
  161.7450  208.9640  151.5990 C   0  0  1  0  0  3  0  0  0  0  0  0
  160.0650  212.0370  153.2540 C   0  0  1  0  0  3  0  0  0  0  0  0
  160.2490  209.2370  156.7430 O   0  0  0  0  0  0  0  0  0  0  0  0
  158.2420  212.5050  151.7180 O   0  0  0  0  0  0  0  0  0  0  0  0
  159.1400  208.6760  156.1270 N   0  0  2  0  0  0  0  0  0  0  0  0
  160.9420  206.9560  155.5810 C   0  0  0  0  0  2  0  0  0  0  0  0
  160.6130  206.3340  151.6690 N   0  0  0  0  0  0  0  0  0  0  0  0
  162.0780  207.9990  152.7380 C   0  0  0  0  0  2  0  0  0  0  0  0
  159.2890  212.9740  157.1100 N   0  0  0  0  0  2  0  0  0  0  0  0
  157.9460  212.8890  157.2600 O   0  0  0  0  0  1  0  0  0  0  0  0
  159.9960  212.0720  156.2620 C   0  0  0  0  0  0  0  0  0  0  0  0
  161.2460  212.1810  156.1490 O   0  0  0  0  0  0  0  0  0  0  0  0
  162.6440  208.1270  149.4020 C   0  0  0  0  0  2  0  0  0  0  0  0
  162.4210  208.7660  148.1800 O   0  0  0  0  0  1  0  0  0  0  0  0
  160.3790  206.1530  149.3460 O   0  0  0  0  0  0  0  0  0  0  0  0
  160.9070  204.8760  149.0090 C   0  0  0  0  0  2  0  0  0  0  0  0
  161.7290  204.9830  147.8830 O   0  0  0  0  0  0  0  0  0  0  0  0
  161.0400  205.7650  147.0180 N   0  0  0  0  0  2  0  0  0  0  0  0
  161.7400  204.4040  145.1130 O   0  0  0  0  0  1  0  0  0  0  0  0
  161.0300  205.4860  145.6180 C   0  0  0  0  0  0  0  0  0  0  0  0
  160.3760  206.2250  144.8370 O   0  0  0  0  0  0  0  0  0  0  0  0
  2 10  1  0  0  0  0
  3 10  1  1  0  0  0
  3 13  1  0  0  0  0
  4 19  1  0  0  0  0
  5 19  1  0  0  0  0
  6 26  1  1  0  0  0
  6 12  1  0  0  0  0
  6 14  1  0  0  0  0
  7 15  1  0  0  0  0
  8 13  1  0  0  0  0
  8 18  1  0  0  0  0
  8 16  1  1  0  0  0
  9 21  1  6  0  0  0
  9  5  1  0  0  0  0
 11  7  1  0  0  0  0
 12 20  2  0  0  0  0
 13 24  1  6  0  0  0
 14 11  1  1  0  0  0
 14 21  1  0  0  0  0
 15  1  1  6  0  0  0
 15  3  1  0  0  0  0
 17  1  1  0  0  0  0
 17  2  1  0  0  0  0
 18  4  1  6  0  0  0
 18 16  1  0  0  0  0
 20  9  1  0  0  0  0
 22 23  1  0  0  0  0
 24 22  1  0  0  0  0
 25 24  2  0  0  0  0
 27 26  1  0  0  0  0
 28 12  1  0  0  0  0
 29 28  1  0  0  0  0
 30 29  1  0  0  0  0
 31 30  1  0  0  0  0
 32 33  1  0  0  0  0
 33 31  1  0  0  0  0
 34 33  2  0  0  0  0
M  END
>  <MODEL>
2

>  <REMARK>
 VINA RESULT:      -5.7      1.613      2.106
  Name = 
  6 active torsions:
  status: ('A' for Active; 'I' for Inactive)
    1  A    between atoms: C_1  and  O_15
    2  A    between atoms: C_1  and  O_26
    3  A    between atoms: C_7  and  C_16
    4  A    between atoms: N_12  and  O_26
    5  A    between atoms: C_14  and  C_20
    6  A    between atoms: O_15  and  C_19
                            x       y       z     vdW  Elec       q    Type
                         _______ _______ _______ _____ _____    ______ ____

>  <TORSDO>
F 6

$$$$
