=
 OpenBabel11072415233D

 63 71  0  0  1  0  0  0  0  0999 V2000
  162.2720  206.1910  146.4750 P   0  0  1  0  0  0  0  0  0  0  0  0
  162.0100  207.5390  147.6750 C   0  0  1  0  0  0  0  0  0  0  0  0
  160.4890  207.2480  153.2910 C   0  0  0  0  0  2  0  0  0  0  0  0
  163.0100  208.3400  147.1430 O   0  0  0  0  0  1  0  0  0  0  0  0
  161.7770  205.0080  150.8770 C   0  0  1  0  0  3  0  0  0  0  0  0
  161.1280  208.3240  152.4140 C   0  0  1  0  0  3  0  0  0  0  0  0
  163.4260  206.9110  149.7190 O   0  0  0  0  0  0  0  0  0  0  0  0
  161.4280  205.4860  149.4050 C   0  0  0  0  0  2  0  0  0  0  0  0
  163.1570  206.3620  145.2480 O   0  0  0  0  0  0  0  0  0  0  0  0
  160.2830  203.7450  153.7250 O   0  0  0  0  0  0  0  0  0  0  0  0
  161.9710  208.4490  148.8800 C   0  0  0  0  0  0  0  0  0  0  0  0
  160.7810  204.5540  152.8870 C   0  0  0  0  0  0  0  0  0  0  0  0
  162.4980  205.9710  154.0980 C   0  0  0  0  0  1  0  0  0  0  0  0
  161.4280  207.5000  151.1420 C   0  0  1  0  0  0  0  0  0  0  0  0
  162.6720  207.9610  150.1880 C   0  0  1  0  0  3  0  0  0  0  0  0
  161.9150  206.2500  151.7780 C   0  0  1  0  0  3  0  0  0  0  0  0
  161.3380  205.9680  153.1020 C   0  0  2  0  0  0  0  0  0  0  0  0
  163.2380  205.5500  147.7300 O   0  0  0  0  0  0  0  0  0  0  0  0
  162.5590  206.3800  148.7140 C   0  0  1  0  0  0  0  0  0  0  0  0
  159.9090  207.4890  150.5270 C   0  0  0  0  0  1  0  0  0  0  0  0
  160.8520  204.1290  151.5850 O   0  0  0  0  0  0  0  0  0  0  0  0
  161.5660  209.5710  148.8960 O   0  0  0  0  0  0  0  0  0  0  0  0
  160.3440  204.2010  145.0660 S   0  0  0  0  0  0  0  0  0  0  0  0
  160.6720  205.5540  146.0810 C   0  0  0  0  0  2  0  0  0  0  0  0
  161.0050  202.6250  145.5820 C   0  0  1  0  0  3  0  0  0  0  0  0
  161.1300  202.5990  146.9490 O   0  0  0  0  0  0  0  0  0  0  0  0
  158.8350  201.7290  145.1040 O   0  0  0  0  0  1  0  0  0  0  0  0
  160.1830  201.4310  145.1490 C   0  0  2  0  0  3  0  0  0  0  0  0
  161.0880  201.2360  147.3660 C   0  0  2  0  0  3  0  0  0  0  0  0
  160.4100  200.4140  146.2520 C   0  0  0  0  0  2  0  0  0  0  0  0
  161.2750  201.1700  149.8380 C   0  0  0  0  0  1  0  0  0  0  0  0
  160.3110  201.1640  148.6660 C   0  0  0  0  0  2  0  0  0  0  0  0
  160.0890  209.5040  152.4080 C   0  0  0  0  0  2  0  0  0  0  0  0
  160.3070  210.0180  153.7940 C   0  0  1  0  0  3  0  0  0  0  0  0
  158.0710  210.7090  154.6390 O   0  0  0  0  0  0  0  0  0  0  0  0
  158.8650  212.4720  153.2900 C   0  0  1  0  0  3  0  0  0  0  0  0
  159.7770  212.1990  154.3320 O   0  0  0  0  0  0  0  0  0  0  0  0
  161.5000  210.4580  155.7260 C   0  0  2  0  0  3  0  0  0  0  0  0
  157.7030  211.4500  153.5430 C   0  0  0  0  0  2  0  0  0  0  0  0
  162.5480  210.7770  153.5930 O   0  0  0  0  0  1  0  0  0  0  0  0
  160.0590  210.4890  156.0700 C   0  0  2  0  0  3  0  0  0  0  0  0
  161.6700  209.9300  154.3430 C   0  0  2  0  0  3  0  0  0  0  0  0
  159.4790  210.9160  154.6990 C   0  0  2  0  0  0  0  0  0  0  0  0
  159.7450  211.4500  157.2260 C   0  0  1  0  0  3  0  0  0  0  0  0
  160.4090  212.8080  157.2460 C   0  0  0  0  0  1  0  0  0  0  0  0
  158.3500  211.6480  157.2540 O   0  0  0  0  0  1  0  0  0  0  0  0
  162.5730  209.8840  156.6620 C   0  0  0  0  0  2  0  0  0  0  0  0
  163.7820  210.6780  156.6870 O   0  0  0  0  0  1  0  0  0  0  0  0
  158.6960  214.0100  153.0880 C   0  0  1  0  0  3  0  0  0  0  0  0
  158.8970  214.2850  151.6330 C   0  0  0  0  0  0  0  0  0  0  0  0
  160.1250  214.3790  151.2540 O   0  0  0  0  0  0  0  0  0  0  0  0
  157.8460  214.3100  150.6450 O   0  0  0  0  0  0  0  0  0  0  0  0
  157.8450  214.1440  149.2300 C   0  0  0  0  0  0  0  0  0  0  0  0
  156.6870  213.8430  147.2030 N   0  0  0  0  0  2  0  0  0  0  0  0
  158.1520  213.9370  146.6340 S   0  0  1  0  0  3  0  0  0  0  0  0
  156.6750  214.0550  148.6350 C   0  0  0  0  0  3  0  0  0  0  0  0
  158.9840  213.9250  148.2370 C   0  0  0  0  0  2  0  0  0  0  0  0
  158.3920  212.6170  145.4090 C   0  0  0  0  0  2  0  0  0  0  0  0
  159.7960  214.2710  144.5610 C   0  0  0  0  0  1  0  0  0  0  0  0
  160.0340  212.1790  143.7730 C   0  0  0  0  0  1  0  0  0  0  0  0
  158.9950  213.1180  144.1750 N   0  0  0  0  0  0  0  0  0  0  0  0
  157.5060  214.3520  154.9360 C   0  0  0  0  0  1  0  0  0  0  0  0
  157.4580  214.4430  153.5380 O   0  0  0  0  0  0  0  0  0  0  0  0
  1  9  2  6  0  0  0
  1  2  1  0  0  0  0
  1 18  1  0  0  0  0
  2  4  1  6  0  0  0
  2 19  1  0  0  0  0
  2 11  1  0  0  0  0
  5  8  1  6  0  0  0
  5 21  1  0  0  0  0
  5 16  1  0  0  0  0
  6 33  1  6  0  0  0
  6  3  1  0  0  0  0
  7 15  1  0  0  0  0
 11 22  2  0  0  0  0
 12 17  1  0  0  0  0
 12 10  2  0  0  0  0
 14 20  1  6  0  0  0
 14 16  1  0  0  0  0
 14  6  1  0  0  0  0
 15 11  1  6  0  0  0
 15 14  1  0  0  0  0
 16 17  1  0  0  0  0
 17  3  1  0  0  0  0
 17 13  1  0  0  0  0
 18 19  1  0  0  0  0
 19  8  1  0  0  0  0
 19  7  1  0  0  0  0
 21 12  1  0  0  0  0
 23 25  1  0  0  0  0
 23 24  1  0  0  0  0
 24  1  1  0  0  0  0
 25 26  1  0  0  0  0
 26 29  1  0  0  0  0
 27 28  1  0  0  0  0
 28 25  1  0  0  0  0
 28 30  1  0  0  0  0
 29 32  1  0  0  0  0
 30 29  1  0  0  0  0
 32 31  1  0  0  0  0
 33 34  1  0  0  0  0
 34 42  1  0  0  0  0
 34 43  1  0  0  0  0
 35 43  1  0  0  0  0
 36 39  1  0  0  0  0
 36 37  1  0  0  0  0
 37 43  1  0  0  0  0
 38 41  1  0  0  0  0
 38 47  1  0  0  0  0
 39 35  1  0  0  0  0
 40 42  1  0  0  0  0
 41 44  1  0  0  0  0
 42 38  1  0  0  0  0
 43 41  1  0  0  0  0
 44 45  1  0  0  0  0
 44 46  1  0  0  0  0
 47 48  1  0  0  0  0
 49 36  1  0  0  0  0
 49 63  1  0  0  0  0
 50 49  1  0  0  0  0
 51 50  2  0  0  0  0
 52 50  1  0  0  0  0
 53 52  1  0  0  0  0
 54 56  1  0  0  0  0
 55 54  1  0  0  0  0
 55 57  1  0  0  0  0
 56 53  2  0  0  0  0
 57 53  1  0  0  0  0
 58 55  1  0  0  0  0
 60 61  1  0  0  0  0
 61 59  1  0  0  0  0
 61 58  1  0  0  0  0
 63 62  1  0  0  0  0
M  END
>  <MODEL>
1

>  <REMARK>
 VINA RESULT:      -0.6      0.000      0.000
  Name = 
  14 active torsions:
  status: ('A' for Active; 'I' for Inactive)
    1  A    between atoms: C_1  and  O_21
    2  A    between atoms: C_3  and  O_21
    3  A    between atoms: C_3  and  C_27
    4  A    between atoms: C_4  and  S_55
    5  A    between atoms: P_5  and  C_62
    6  A    between atoms: C_7  and  C_36
    7  A    between atoms: C_10  and  C_32
    8  A    between atoms: C_12  and  C_27
    9  A    between atoms: C_15  and  C_32
   10  A    between atoms: C_18  and  C_22
   11  A    between atoms: C_27  and  O_50
   12  A    between atoms: N_30  and  C_45
   13  A    between atoms: S_35  and  C_45
   14  A    between atoms: C_48  and  C_63
                            x       y       z     vdW  Elec       q    Type
                         _______ _______ _______ _____ _____    ______ ____

>  <TORSDO>
F 14

$$$$
=
 OpenBabel11072415233D

 63 71  0  0  1  0  0  0  0  0999 V2000
  161.7240  205.1740  145.8090 P   0  0  1  0  0  0  0  0  0  0  0  0
  161.5830  206.6480  146.8730 C   0  0  1  0  0  0  0  0  0  0  0  0
  160.7630  206.9890  152.6310 C   0  0  0  0  0  2  0  0  0  0  0  0
  162.4940  207.3890  146.1350 O   0  0  0  0  0  1  0  0  0  0  0  0
  161.7940  204.4970  150.3430 C   0  0  1  0  0  3  0  0  0  0  0  0
  161.2690  207.9630  151.5660 C   0  0  1  0  0  3  0  0  0  0  0  0
  163.2500  206.2670  148.7840 O   0  0  0  0  0  0  0  0  0  0  0  0
  161.2590  204.8020  148.8810 C   0  0  0  0  0  2  0  0  0  0  0  0
  162.4510  205.2100  144.4710 O   0  0  0  0  0  0  0  0  0  0  0  0
  160.6830  203.5570  153.4770 O   0  0  0  0  0  0  0  0  0  0  0  0
  161.6720  207.6890  147.9630 C   0  0  0  0  0  0  0  0  0  0  0  0
  161.0590  204.2680  152.4990 C   0  0  0  0  0  0  0  0  0  0  0  0
  162.8810  205.8260  153.3210 C   0  0  0  0  0  1  0  0  0  0  0  0
  161.4290  207.0000  150.3670 C   0  0  1  0  0  0  0  0  0  0  0  0
  162.5380  207.3580  149.2210 C   0  0  1  0  0  3  0  0  0  0  0  0
  162.0140  205.8340  151.0750 C   0  0  1  0  0  3  0  0  0  0  0  0
  161.6090  205.7020  152.4830 C   0  0  2  0  0  0  0  0  0  0  0  0
  162.8490  204.6860  146.9990 O   0  0  0  0  0  0  0  0  0  0  0  0
  162.2780  205.6180  147.9600 C   0  0  1  0  0  0  0  0  0  0  0  0
  159.8470  206.9100  149.9490 C   0  0  0  0  0  1  0  0  0  0  0  0
  160.9800  203.6980  151.2540 O   0  0  0  0  0  0  0  0  0  0  0  0
  161.2500  208.8040  147.9030 O   0  0  0  0  0  0  0  0  0  0  0  0
  159.6070  203.2460  144.6000 S   0  0  0  0  0  0  0  0  0  0  0  0
  160.1020  204.4860  145.6890 C   0  0  0  0  0  2  0  0  0  0  0  0
  160.4250  201.6660  144.7480 C   0  0  1  0  0  3  0  0  0  0  0  0
  161.2610  201.6770  145.8380 O   0  0  0  0  0  0  0  0  0  0  0  0
  158.3260  200.8250  145.5410 O   0  0  0  0  0  1  0  0  0  0  0  0
  159.4860  200.4850  144.8720 C   0  0  2  0  0  3  0  0  0  0  0  0
  161.4340  200.3290  146.2700 C   0  0  2  0  0  3  0  0  0  0  0  0
  160.2570  199.4960  145.7250 C   0  0  0  0  0  2  0  0  0  0  0  0
  161.0370  201.6740  148.3160 C   0  0  0  0  0  1  0  0  0  0  0  0
  161.4710  200.3200  147.7860 C   0  0  0  0  0  2  0  0  0  0  0  0
  160.2130  209.1270  151.5550 C   0  0  0  0  0  2  0  0  0  0  0  0
  160.5600  209.7740  152.8580 C   0  0  1  0  0  3  0  0  0  0  0  0
  158.4380  210.7110  153.7570 O   0  0  0  0  0  0  0  0  0  0  0  0
  159.2460  212.2540  152.1680 C   0  0  1  0  0  3  0  0  0  0  0  0
  160.2110  212.0330  153.1740 O   0  0  0  0  0  0  0  0  0  0  0  0
  161.9130  210.3360  154.6470 C   0  0  2  0  0  3  0  0  0  0  0  0
  158.0430  211.3510  152.6090 C   0  0  0  0  0  2  0  0  0  0  0  0
  162.8260  210.3430  152.4300 O   0  0  0  0  0  1  0  0  0  0  0  0
  160.5050  210.5080  155.0760 C   0  0  2  0  0  3  0  0  0  0  0  0
  161.9500  209.6480  153.3260 C   0  0  2  0  0  3  0  0  0  0  0  0
  159.8580  210.8220  153.7040 C   0  0  2  0  0  0  0  0  0  0  0  0
  160.3350  211.6090  156.1320 C   0  0  1  0  0  3  0  0  0  0  0  0
  158.9590  211.8620  156.7080 C   0  0  0  0  0  1  0  0  0  0  0  0
  161.2060  211.3190  157.2000 O   0  0  0  0  0  1  0  0  0  0  0  0
  163.0110  209.7930  155.5730 C   0  0  0  0  0  2  0  0  0  0  0  0
  162.4830  209.0520  156.6970 O   0  0  0  0  0  1  0  0  0  0  0  0
  159.1620  213.7680  151.8020 C   0  0  1  0  0  3  0  0  0  0  0  0
  159.1510  213.8590  150.3110 C   0  0  0  0  0  0  0  0  0  0  0  0
  158.0330  214.2300  149.7890 O   0  0  0  0  0  0  0  0  0  0  0  0
  160.3100  213.6970  149.4670 O   0  0  0  0  0  0  0  0  0  0  0  0
  160.4850  213.7070  148.0530 C   0  0  0  0  0  0  0  0  0  0  0  0
  161.7270  214.3080  146.1460 N   0  0  0  0  0  2  0  0  0  0  0  0
  160.5760  213.4980  145.4410 S   0  0  1  0  0  3  0  0  0  0  0  0
  161.5800  214.2650  147.5850 C   0  0  0  0  0  3  0  0  0  0  0  0
  159.5580  213.2820  146.9170 C   0  0  0  0  0  2  0  0  0  0  0  0
  159.9980  214.4360  143.9950 C   0  0  0  0  0  2  0  0  0  0  0  0
  160.7520  212.4300  143.0820 C   0  0  0  0  0  1  0  0  0  0  0  0
  159.1680  213.5680  141.9650 C   0  0  0  0  0  1  0  0  0  0  0  0
  160.3810  213.7960  142.7380 N   0  0  0  0  0  0  0  0  0  0  0  0
  158.3200  214.4490  153.7460 C   0  0  0  0  0  1  0  0  0  0  0  0
  158.0480  214.3620  152.3730 O   0  0  0  0  0  0  0  0  0  0  0  0
  1  9  2  6  0  0  0
  1  2  1  0  0  0  0
  1 18  1  0  0  0  0
  2  4  1  6  0  0  0
  2 19  1  0  0  0  0
  2 11  1  0  0  0  0
  5  8  1  6  0  0  0
  5 16  1  0  0  0  0
  5 21  1  0  0  0  0
  6 33  1  6  0  0  0
  6  3  1  0  0  0  0
  7 15  1  0  0  0  0
 12 10  2  0  0  0  0
 14 20  1  6  0  0  0
 14 16  1  0  0  0  0
 14  6  1  0  0  0  0
 15 11  1  6  0  0  0
 15 14  1  0  0  0  0
 16 17  1  0  0  0  0
 17 12  1  0  0  0  0
 17  3  1  0  0  0  0
 17 13  1  0  0  0  0
 18 19  1  0  0  0  0
 19  7  1  0  0  0  0
 19  8  1  0  0  0  0
 21 12  1  0  0  0  0
 22 11  2  0  0  0  0
 23 25  1  0  0  0  0
 23 24  1  0  0  0  0
 24  1  1  0  0  0  0
 25 28  1  0  0  0  0
 25 26  1  0  0  0  0
 26 29  1  0  0  0  0
 28 27  1  0  0  0  0
 28 30  1  0  0  0  0
 29 32  1  0  0  0  0
 30 29  1  0  0  0  0
 32 31  1  0  0  0  0
 33 34  1  0  0  0  0
 34 42  1  0  0  0  0
 34 43  1  0  0  0  0
 36 39  1  0  0  0  0
 36 37  1  0  0  0  0
 37 43  1  0  0  0  0
 38 41  1  0  0  0  0
 38 47  1  0  0  0  0
 39 35  1  0  0  0  0
 40 42  1  0  0  0  0
 41 44  1  0  0  0  0
 42 38  1  0  0  0  0
 43 35  1  0  0  0  0
 43 41  1  0  0  0  0
 44 45  1  0  0  0  0
 44 46  1  0  0  0  0
 47 48  1  0  0  0  0
 49 36  1  0  0  0  0
 49 63  1  0  0  0  0
 50 49  1  0  0  0  0
 51 50  2  0  0  0  0
 52 50  1  0  0  0  0
 53 52  1  0  0  0  0
 54 56  1  0  0  0  0
 55 54  1  0  0  0  0
 55 57  1  0  0  0  0
 56 53  2  0  0  0  0
 57 53  1  0  0  0  0
 58 55  1  0  0  0  0
 60 61  1  0  0  0  0
 61 59  1  0  0  0  0
 61 58  1  0  0  0  0
 63 62  1  0  0  0  0
M  END
>  <MODEL>
2

>  <REMARK>
 VINA RESULT:       1.9      1.457      1.745
  Name = 
  14 active torsions:
  status: ('A' for Active; 'I' for Inactive)
    1  A    between atoms: C_1  and  O_21
    2  A    between atoms: C_3  and  O_21
    3  A    between atoms: C_3  and  C_27
    4  A    between atoms: C_4  and  S_55
    5  A    between atoms: P_5  and  C_62
    6  A    between atoms: C_7  and  C_36
    7  A    between atoms: C_10  and  C_32
    8  A    between atoms: C_12  and  C_27
    9  A    between atoms: C_15  and  C_32
   10  A    between atoms: C_18  and  C_22
   11  A    between atoms: C_27  and  O_50
   12  A    between atoms: N_30  and  C_45
   13  A    between atoms: S_35  and  C_45
   14  A    between atoms: C_48  and  C_63
                            x       y       z     vdW  Elec       q    Type
                         _______ _______ _______ _____ _____    ______ ____

>  <TORSDO>
F 14

$$$$
