=
 OpenBabel11072414503D

 47 53  0  0  1  0  0  0  0  0999 V2000
  161.6830  209.4970  148.2730 C   0  0  0  0  0  3  0  0  0  0  0  0
  161.7870  210.5740  150.5340 C   0  0  0  0  0  0  0  0  0  0  0  0
  162.3360  210.2990  149.2490 N   0  0  0  0  0  2  0  0  0  0  0  0
  161.2640  207.5940  149.7630 C   0  0  0  0  0  0  0  0  0  0  0  0
  161.2410  208.1730  150.9900 C   0  0  0  0  0  0  0  0  0  0  0  0
  161.9420  211.9060  151.0230 N   0  0  0  0  0  1  0  0  0  0  0  0
  161.1900  208.3310  148.5350 N   0  0  0  0  0  0  0  0  0  0  0  0
  161.1520  209.6320  151.2710 C   0  0  0  0  0  0  0  0  0  0  0  0
  161.2360  207.3470  152.1150 O   0  0  0  0  0  1  0  0  0  0  0  0
  161.0790  200.5540  146.4400 C   0  0  0  0  0  0  0  0  0  0  0  0
  161.0190  199.3210  145.6130 C   0  0  0  0  0  1  0  0  0  0  0  0
  161.2040  202.9250  146.5580 C   0  0  0  0  0  3  0  0  0  0  0  0
  161.2660  206.1170  149.6080 C   0  0  0  0  0  0  0  0  0  0  0  0
  161.8860  202.6110  152.1470 C   0  0  0  0  0  2  0  0  0  0  0  0
  161.1030  202.7490  150.8660 C   0  0  0  0  0  0  0  0  0  0  0  0
  161.2690  205.4180  148.3980 C   0  0  0  0  0  3  0  0  0  0  0  0
  161.1730  204.0520  150.1400 C   0  0  0  0  0  0  0  0  0  0  0  0
  160.3560  202.6720  152.1750 C   0  0  0  0  0  2  0  0  0  0  0  0
  161.1540  201.7720  145.8380 N   0  0  0  0  0  0  0  0  0  0  0  0
  161.1770  202.8770  147.9550 C   0  0  0  0  0  0  0  0  0  0  0  0
  161.2160  204.0960  148.7790 C   0  0  0  0  0  0  0  0  0  0  0  0
  161.0980  201.6240  148.6020 C   0  0  0  0  0  0  0  0  0  0  0  0
  161.0490  200.4590  147.8340 C   0  0  0  0  0  3  0  0  0  0  0  0
  161.1940  205.2840  150.6730 N   0  0  0  0  0  2  0  0  0  0  0  0
  161.0590  201.5410  150.0400 N   0  0  0  0  0  2  0  0  0  0  0  0
  160.3480  211.1470  153.1170 C   0  0  0  0  0  3  0  0  0  0  0  0
  160.4350  209.9510  152.5360 C   0  0  0  0  0  3  0  0  0  0  0  0
  160.0810  210.2310  156.2850 C   0  0  1  0  0  3  0  0  0  0  0  0
  159.5790  211.3900  154.3920 C   0  0  2  0  0  0  0  0  0  0  0  0
  160.3770  212.2600  155.3160 C   0  0  0  0  0  3  0  0  0  0  0  0
  160.6730  211.5840  156.3980 C   0  0  0  0  0  3  0  0  0  0  0  0
  159.4320  210.1360  155.0330 O   0  0  0  0  0  0  0  0  0  0  0  0
  157.2520  213.9830  153.6570 C   0  0  0  0  0  2  0  0  0  0  0  0
  157.9350  211.9420  152.6660 C   0  0  0  0  0  2  0  0  0  0  0  0
  158.1960  213.2950  154.5230 N   0  0  0  0  0  2  0  0  0  0  0  0
  158.2370  211.9480  154.1000 N   0  0  2  0  0  0  0  0  0  0  0  0
  157.2270  213.2320  152.3520 C   0  0  2  0  0  3  0  0  0  0  0  0
  157.9630  213.9830  151.2840 C   0  0  0  0  0  0  0  0  0  0  0  0
  159.1120  214.4520  151.5170 O   0  0  0  0  0  0  0  0  0  0  0  0
  155.8800  214.3300  149.8150 C   0  0  0  0  0  1  0  0  0  0  0  0
  158.0740  214.1770  148.9230 O   0  0  0  0  0  0  0  0  0  0  0  0
  157.3530  214.1620  149.9560 C   0  0  0  0  0  0  0  0  0  0  0  0
  161.1310  209.1750  156.4030 C   0  0  0  0  0  0  0  0  0  0  0  0
  162.2640  209.3420  155.8690 O   0  0  0  0  0  0  0  0  0  0  0  0
  160.8390  208.0010  157.1020 O   0  0  0  0  0  0  0  0  0  0  0  0
  159.9960  206.9850  156.5740 C   0  0  0  0  0  2  0  0  0  0  0  0
  160.2700  206.7860  155.0950 C   0  0  0  0  0  1  0  0  0  0  0  0
  1  7  2  0  0  0  0
  1  3  1  0  0  0  0
  2  6  1  0  0  0  0
  2  8  2  0  0  0  0
  3  2  1  0  0  0  0
  4  5  2  0  0  0  0
  5  8  1  0  0  0  0
  5  9  1  0  0  0  0
  7  4  1  0  0  0  0
  8 27  1  0  0  0  0
 10 23  1  0  0  0  0
 11 10  1  0  0  0  0
 12 20  2  0  0  0  0
 13  4  1  0  0  0  0
 13 24  1  0  0  0  0
 14 18  1  0  0  0  0
 15 14  1  0  0  0  0
 15 18  1  0  0  0  0
 16 21  1  0  0  0  0
 16 13  2  0  0  0  0
 17 24  1  0  0  0  0
 17 15  1  0  0  0  0
 19 10  2  0  0  0  0
 19 12  1  0  0  0  0
 20 22  1  0  0  0  0
 20 21  1  0  0  0  0
 21 17  2  0  0  0  0
 22 25  1  0  0  0  0
 23 22  2  0  0  0  0
 25 15  1  0  0  0  0
 27 26  2  0  0  0  0
 28 31  1  0  0  0  0
 28 43  1  6  0  0  0
 29 26  1  6  0  0  0
 29 32  1  0  0  0  0
 29 30  1  0  0  0  0
 30 31  2  0  0  0  0
 32 28  1  0  0  0  0
 33 35  1  0  0  0  0
 36 34  1  6  0  0  0
 36 29  1  0  0  0  0
 36 35  1  0  0  0  0
 37 38  1  6  0  0  0
 37 34  1  0  0  0  0
 37 33  1  0  0  0  0
 38 39  2  0  0  0  0
 40 42  1  0  0  0  0
 41 42  2  0  0  0  0
 42 38  1  0  0  0  0
 43 45  1  0  0  0  0
 44 43  2  0  0  0  0
 46 45  1  0  0  0  0
 47 46  1  0  0  0  0
M  END
>  <MODEL>
1

>  <REMARK>
 VINA RESULT:      -6.6      0.000      0.000
  Name = 
  9 active torsions:
  status: ('A' for Active; 'I' for Inactive)
    1  A    between atoms: C_2  and  O_26
    2  A    between atoms: C_5  and  C_8
    3  A    between atoms: C_8  and  O_26
    4  A    between atoms: C_13  and  C_14
    5  A    between atoms: C_16  and  C_20
    6  A    between atoms: C_16  and  N_36
    7  A    between atoms: C_19  and  C_46
    8  A    between atoms: C_19  and  C_47
    9  A    between atoms: C_27  and  C_42
                            x       y       z     vdW  Elec       q    Type
                         _______ _______ _______ _____ _____    ______ ____

>  <TORSDO>
F 9

$$$$
=
 OpenBabel11072414503D

 47 53  0  0  1  0  0  0  0  0999 V2000
  161.2840  209.4780  147.6670 C   0  0  0  0  0  3  0  0  0  0  0  0
  162.2440  210.6840  149.6440 C   0  0  0  0  0  0  0  0  0  0  0  0
  162.2590  210.3230  148.2660 N   0  0  0  0  0  2  0  0  0  0  0  0
  161.4760  207.6750  149.3180 C   0  0  0  0  0  0  0  0  0  0  0  0
  161.9240  208.3250  150.4220 C   0  0  0  0  0  0  0  0  0  0  0  0
  162.5700  212.0390  149.9530 N   0  0  0  0  0  1  0  0  0  0  0  0
  160.9330  208.3400  148.1700 N   0  0  0  0  0  0  0  0  0  0  0  0
  161.9440  209.8000  150.6250 C   0  0  0  0  0  0  0  0  0  0  0  0
  162.3540  207.5670  151.5110 O   0  0  0  0  0  1  0  0  0  0  0  0
  161.1050  200.4310  146.4870 C   0  0  0  0  0  0  0  0  0  0  0  0
  161.0190  199.1460  145.7460 C   0  0  0  0  0  1  0  0  0  0  0  0
  161.3200  202.7980  146.4440 C   0  0  0  0  0  3  0  0  0  0  0  0
  161.4240  206.1920  149.2670 C   0  0  0  0  0  0  0  0  0  0  0  0
  161.8350  202.8520  152.0600 C   0  0  0  0  0  2  0  0  0  0  0  0
  161.0940  202.9290  150.7490 C   0  0  0  0  0  0  0  0  0  0  0  0
  161.4320  205.4100  148.1090 C   0  0  0  0  0  3  0  0  0  0  0  0
  161.2350  204.1750  149.9370 C   0  0  0  0  0  0  0  0  0  0  0  0
  160.3090  202.9730  152.0370 C   0  0  0  0  0  2  0  0  0  0  0  0
  161.2440  201.6000  145.8040 N   0  0  0  0  0  0  0  0  0  0  0  0
  161.2530  202.8490  147.8390 C   0  0  0  0  0  0  0  0  0  0  0  0
  161.3170  204.1200  148.5780 C   0  0  0  0  0  0  0  0  0  0  0  0
  161.1070  201.6490  148.5690 C   0  0  0  0  0  0  0  0  0  0  0  0
  161.0330  200.4350  147.8830 C   0  0  0  0  0  3  0  0  0  0  0  0
  161.2900  205.4390  150.3840 N   0  0  0  0  0  2  0  0  0  0  0  0
  161.0250  201.6680  150.0080 N   0  0  0  0  0  2  0  0  0  0  0  0
  160.6140  210.5010  152.6460 C   0  0  0  0  0  3  0  0  0  0  0  0
  161.7670  210.2070  152.0450 C   0  0  0  0  0  3  0  0  0  0  0  0
  160.1970  209.2940  155.6980 C   0  0  1  0  0  3  0  0  0  0  0  0
  160.5180  210.8840  154.1020 C   0  0  2  0  0  0  0  0  0  0  0  0
  161.8170  210.6000  154.7950 C   0  0  0  0  0  3  0  0  0  0  0  0
  161.6290  209.6760  155.7040 C   0  0  0  0  0  3  0  0  0  0  0  0
  159.5450  210.0400  154.6900 O   0  0  0  0  0  0  0  0  0  0  0  0
  158.5910  213.7720  153.3100 C   0  0  0  0  0  2  0  0  0  0  0  0
  159.0130  212.4480  155.2300 C   0  0  0  0  0  2  0  0  0  0  0  0
  159.5890  212.7570  153.0120 N   0  0  0  0  0  2  0  0  0  0  0  0
  160.0900  212.2970  154.2490 N   0  0  2  0  0  0  0  0  0  0  0  0
  158.0450  213.4600  154.6780 C   0  0  2  0  0  3  0  0  0  0  0  0
  156.6700  212.8710  154.5890 C   0  0  0  0  0  0  0  0  0  0  0  0
  155.9140  213.1740  153.6240 O   0  0  0  0  0  0  0  0  0  0  0  0
  155.7790  210.5500  155.2470 C   0  0  0  0  0  1  0  0  0  0  0  0
  156.1650  212.2770  156.8280 O   0  0  0  0  0  0  0  0  0  0  0  0
  156.2040  211.9280  155.6180 C   0  0  0  0  0  0  0  0  0  0  0  0
  160.0340  207.8310  155.4450 C   0  0  0  0  0  0  0  0  0  0  0  0
  159.7210  207.0540  156.3900 O   0  0  0  0  0  0  0  0  0  0  0  0
  160.2400  207.3380  154.1550 O   0  0  0  0  0  0  0  0  0  0  0  0
  160.7220  206.0220  153.9060 C   0  0  0  0  0  2  0  0  0  0  0  0
  162.2290  206.0350  153.7320 C   0  0  0  0  0  1  0  0  0  0  0  0
  1  7  2  0  0  0  0
  1  3  1  0  0  0  0
  2  6  1  0  0  0  0
  2  8  2  0  0  0  0
  3  2  1  0  0  0  0
  4  5  2  0  0  0  0
  5  8  1  0  0  0  0
  5  9  1  0  0  0  0
  7  4  1  0  0  0  0
  8 27  1  0  0  0  0
 10 23  1  0  0  0  0
 11 10  1  0  0  0  0
 12 20  2  0  0  0  0
 13  4  1  0  0  0  0
 13 24  1  0  0  0  0
 15 18  1  0  0  0  0
 15 14  1  0  0  0  0
 16 21  1  0  0  0  0
 16 13  2  0  0  0  0
 17 24  1  0  0  0  0
 17 15  1  0  0  0  0
 18 14  1  0  0  0  0
 19 12  1  0  0  0  0
 19 10  2  0  0  0  0
 20 22  1  0  0  0  0
 20 21  1  0  0  0  0
 21 17  2  0  0  0  0
 22 25  1  0  0  0  0
 23 22  2  0  0  0  0
 25 15  1  0  0  0  0
 27 26  2  0  0  0  0
 28 43  1  6  0  0  0
 28 31  1  0  0  0  0
 29 26  1  6  0  0  0
 29 36  1  0  0  0  0
 29 32  1  0  0  0  0
 29 30  1  0  0  0  0
 30 31  2  0  0  0  0
 32 28  1  0  0  0  0
 33 37  1  0  0  0  0
 35 33  1  0  0  0  0
 35 36  1  0  0  0  0
 36 34  1  1  0  0  0
 37 38  1  6  0  0  0
 37 34  1  0  0  0  0
 38 42  1  0  0  0  0
 39 38  2  0  0  0  0
 40 42  1  0  0  0  0
 42 41  2  0  0  0  0
 43 44  2  0  0  0  0
 45 43  1  0  0  0  0
 46 45  1  0  0  0  0
 47 46  1  0  0  0  0
M  END
>  <MODEL>
2

>  <REMARK>
 VINA RESULT:      -6.3      1.688      2.401
  Name = 
  9 active torsions:
  status: ('A' for Active; 'I' for Inactive)
    1  A    between atoms: C_2  and  O_26
    2  A    between atoms: C_5  and  C_8
    3  A    between atoms: C_8  and  O_26
    4  A    between atoms: C_13  and  C_14
    5  A    between atoms: C_16  and  C_20
    6  A    between atoms: C_16  and  N_36
    7  A    between atoms: C_19  and  C_46
    8  A    between atoms: C_19  and  C_47
    9  A    between atoms: C_27  and  C_42
                            x       y       z     vdW  Elec       q    Type
                         _______ _______ _______ _____ _____    ______ ____

>  <TORSDO>
F 9

$$$$
=
 OpenBabel11072414503D

 47 53  0  0  1  0  0  0  0  0999 V2000
  161.9090  205.7780  154.1390 C   0  0  0  0  0  3  0  0  0  0  0  0
  160.6710  207.9280  154.4990 C   0  0  0  0  0  0  0  0  0  0  0  0
  160.8990  206.5500  154.7770 N   0  0  0  0  0  2  0  0  0  0  0  0
  161.2700  206.3870  151.8500 C   0  0  0  0  0  0  0  0  0  0  0  0
  160.6630  207.5890  152.0180 C   0  0  0  0  0  0  0  0  0  0  0  0
  160.3900  208.7680  155.6180 N   0  0  0  0  0  1  0  0  0  0  0  0
  162.0730  205.7540  152.8560 N   0  0  0  0  0  0  0  0  0  0  0  0
  160.7100  208.4330  153.2430 C   0  0  0  0  0  0  0  0  0  0  0  0
  159.9760  208.1430  150.9370 O   0  0  0  0  0  1  0  0  0  0  0  0
  161.1030  200.6050  146.6360 C   0  0  0  0  0  0  0  0  0  0  0  0
  161.0870  199.3660  145.8170 C   0  0  0  0  0  1  0  0  0  0  0  0
  161.0420  201.6350  148.7790 C   0  0  0  0  0  3  0  0  0  0  0  0
  161.2240  205.6760  150.5480 C   0  0  0  0  0  0  0  0  0  0  0  0
  160.6610  206.7020  146.3330 C   0  0  0  0  0  2  0  0  0  0  0  0
  161.3760  205.5280  146.9550 C   0  0  0  0  0  0  0  0  0  0  0  0
  161.1380  204.2930  150.3690 C   0  0  0  0  0  2  0  0  0  0  0  0
  161.2970  205.3660  148.4370 C   0  0  0  0  0  0  0  0  0  0  0  0
  162.1910  206.6590  146.3790 C   0  0  0  0  0  2  0  0  0  0  0  0
  161.0240  200.5240  147.9930 N   0  0  0  0  0  0  0  0  0  0  0  0
  161.1440  202.9000  148.1950 C   0  0  0  0  0  0  0  0  0  0  0  0
  161.1800  204.1310  149.0020 C   0  0  0  0  0  0  0  0  0  0  0  0
  161.2280  203.0100  146.7900 C   0  0  0  0  0  0  0  0  0  0  0  0
  161.2070  201.8510  146.0100 C   0  0  0  0  0  3  0  0  0  0  0  0
  161.3340  206.3320  149.3680 N   0  0  0  0  0  0  0  0  0  0  0  0
  161.3450  204.3000  146.1580 N   0  0  0  0  0  2  0  0  0  0  0  0
  159.5460  210.6570  153.0220 C   0  0  0  0  0  3  0  0  0  0  0  0
  160.6360  209.8930  152.9620 C   0  0  0  0  0  3  0  0  0  0  0  0
  160.2240  212.9270  150.7120 C   0  0  1  0  0  3  0  0  0  0  0  0
  159.5630  212.1390  152.7420 C   0  0  2  0  0  0  0  0  0  0  0  0
  158.3580  212.5240  151.9370 C   0  0  0  0  0  3  0  0  0  0  0  0
  158.7440  212.9650  150.7660 C   0  0  0  0  0  3  0  0  0  0  0  0
  160.6970  212.3970  151.9340 O   0  0  0  0  0  0  0  0  0  0  0  0
  158.4650  214.4410  155.2280 C   0  0  0  0  0  2  0  0  0  0  0  0
  159.1510  212.1740  155.1530 C   0  0  0  0  0  2  0  0  0  0  0  0
  158.9140  214.0950  153.8880 N   0  0  0  0  0  2  0  0  0  0  0  0
  159.6770  212.9120  154.0020 N   0  0  2  0  0  0  0  0  0  0  0  0
  158.4080  213.1590  156.0140 C   0  0  2  0  0  3  0  0  0  0  0  0
  156.9910  212.7120  156.2140 C   0  0  0  0  0  0  0  0  0  0  0  0
  156.3650  213.0440  157.2600 O   0  0  0  0  0  0  0  0  0  0  0  0
  156.1380  210.4340  155.3780 C   0  0  0  0  0  1  0  0  0  0  0  0
  155.8970  212.4380  154.1290 O   0  0  0  0  0  0  0  0  0  0  0  0
  156.3230  211.8990  155.1850 C   0  0  0  0  0  0  0  0  0  0  0  0
  160.6970  212.0900  149.5690 C   0  0  0  0  0  0  0  0  0  0  0  0
  160.1790  212.2250  148.4250 O   0  0  0  0  0  0  0  0  0  0  0  0
  161.7120  211.1540  149.7860 O   0  0  0  0  0  0  0  0  0  0  0  0
  162.6410  210.7840  148.7750 C   0  0  0  0  0  2  0  0  0  0  0  0
  163.0800  212.0030  147.9870 C   0  0  0  0  0  1  0  0  0  0  0  0
  1  3  1  0  0  0  0
  2  3  1  0  0  0  0
  2  6  1  0  0  0  0
  4  5  2  0  0  0  0
  4  7  1  0  0  0  0
  5  8  1  0  0  0  0
  7  1  2  0  0  0  0
  8  2  2  0  0  0  0
  9  5  1  0  0  0  0
 10 19  1  0  0  0  0
 11 10  1  0  0  0  0
 13  4  1  0  0  0  0
 14 18  1  0  0  0  0
 14 15  1  0  0  0  0
 15 17  1  0  0  0  0
 16 13  1  0  0  0  0
 17 21  2  0  0  0  0
 17 24  1  0  0  0  0
 18 15  1  0  0  0  0
 19 12  2  0  0  0  0
 20 12  1  0  0  0  0
 20 21  1  0  0  0  0
 21 16  1  0  0  0  0
 22 20  2  0  0  0  0
 23 10  2  0  0  0  0
 23 22  1  0  0  0  0
 24 13  2  0  0  0  0
 25 22  1  0  0  0  0
 25 15  1  0  0  0  0
 27 26  2  0  0  0  0
 27  8  1  0  0  0  0
 28 43  1  6  0  0  0
 28 31  1  0  0  0  0
 28 32  1  0  0  0  0
 29 26  1  1  0  0  0
 29 36  1  0  0  0  0
 30 29  1  0  0  0  0
 31 30  2  0  0  0  0
 32 29  1  0  0  0  0
 33 37  1  0  0  0  0
 34 37  1  0  0  0  0
 35 36  1  0  0  0  0
 35 33  1  0  0  0  0
 36 34  1  1  0  0  0
 37 38  1  6  0  0  0
 38 39  2  0  0  0  0
 41 42  2  0  0  0  0
 42 40  1  0  0  0  0
 42 38  1  0  0  0  0
 43 45  1  0  0  0  0
 44 43  2  0  0  0  0
 46 45  1  0  0  0  0
 47 46  1  0  0  0  0
M  END
>  <MODEL>
3

>  <REMARK>
 VINA RESULT:      -5.8      2.271      4.762
  Name = 
  9 active torsions:
  status: ('A' for Active; 'I' for Inactive)
    1  A    between atoms: C_2  and  O_26
    2  A    between atoms: C_5  and  C_8
    3  A    between atoms: C_8  and  O_26
    4  A    between atoms: C_13  and  C_14
    5  A    between atoms: C_16  and  C_20
    6  A    between atoms: C_16  and  N_36
    7  A    between atoms: C_19  and  C_46
    8  A    between atoms: C_19  and  C_47
    9  A    between atoms: C_27  and  C_42
                            x       y       z     vdW  Elec       q    Type
                         _______ _______ _______ _____ _____    ______ ____

>  <TORSDO>
F 9

$$$$
=
 OpenBabel11072414503D

 47 53  0  0  1  0  0  0  0  0999 V2000
  161.5890  209.6460  147.7740 C   0  0  0  0  0  3  0  0  0  0  0  0
  162.0580  210.8210  149.9380 C   0  0  0  0  0  0  0  0  0  0  0  0
  162.3930  210.4840  148.5960 N   0  0  0  0  0  2  0  0  0  0  0  0
  161.4090  207.8160  149.3970 C   0  0  0  0  0  0  0  0  0  0  0  0
  161.5850  208.4490  150.5840 C   0  0  0  0  0  0  0  0  0  0  0  0
  162.2930  212.1720  150.3350 N   0  0  0  0  0  1  0  0  0  0  0  0
  161.1410  208.4980  148.1640 N   0  0  0  0  0  0  0  0  0  0  0  0
  161.5470  209.9200  150.8090 C   0  0  0  0  0  0  0  0  0  0  0  0
  161.7570  207.6740  151.7310 O   0  0  0  0  0  1  0  0  0  0  0  0
  161.0440  200.6340  146.4080 C   0  0  0  0  0  0  0  0  0  0  0  0
  160.9490  199.3660  145.6400 C   0  0  0  0  0  1  0  0  0  0  0  0
  161.2130  203.0060  146.4140 C   0  0  0  0  0  3  0  0  0  0  0  0
  161.3820  206.3340  149.3110 C   0  0  0  0  0  0  0  0  0  0  0  0
  161.9810  202.9370  152.0000 C   0  0  0  0  0  2  0  0  0  0  0  0
  161.1790  203.0310  150.7260 C   0  0  0  0  0  0  0  0  0  0  0  0
  161.3530  205.5790  148.1350 C   0  0  0  0  0  3  0  0  0  0  0  0
  161.2610  204.2980  149.9400 C   0  0  0  0  0  0  0  0  0  0  0  0
  160.4530  203.0290  152.0480 C   0  0  0  0  0  2  0  0  0  0  0  0
  161.1310  201.8220  145.7490 N   0  0  0  0  0  0  0  0  0  0  0  0
  161.2080  203.0220  147.8110 C   0  0  0  0  0  0  0  0  0  0  0  0
  161.2820  204.2770  148.5770 C   0  0  0  0  0  0  0  0  0  0  0  0
  161.1180  201.8030  148.5170 C   0  0  0  0  0  0  0  0  0  0  0  0
  161.0350  200.6040  147.8050 C   0  0  0  0  0  3  0  0  0  0  0  0
  161.3130  205.5520  150.4140 N   0  0  0  0  0  2  0  0  0  0  0  0
  161.1000  201.7870  149.9580 N   0  0  0  0  0  2  0  0  0  0  0  0
  160.3870  211.4190  152.4690 C   0  0  0  0  0  3  0  0  0  0  0  0
  161.0420  210.3020  152.1560 C   0  0  0  0  0  3  0  0  0  0  0  0
  157.9850  212.9290  154.1720 C   0  0  1  0  0  3  0  0  0  0  0  0
  159.8880  211.7200  153.8610 C   0  0  2  0  0  0  0  0  0  0  0  0
  158.7600  210.7980  154.2130 C   0  0  0  0  0  3  0  0  0  0  0  0
  157.6650  211.4970  154.3790 C   0  0  0  0  0  3  0  0  0  0  0  0
  159.3540  213.0320  153.8360 O   0  0  0  0  0  0  0  0  0  0  0  0
  161.3790  210.9770  157.0080 C   0  0  0  0  0  2  0  0  0  0  0  0
  161.7670  210.4210  154.7370 C   0  0  0  0  0  2  0  0  0  0  0  0
  160.4600  211.7070  156.1480 N   0  0  0  0  0  2  0  0  0  0  0  0
  160.9980  211.6640  154.8420 N   0  0  2  0  0  0  0  0  0  0  0  0
  162.0930  209.9780  156.1380 C   0  0  2  0  0  3  0  0  0  0  0  0
  161.5810  208.5900  156.3780 C   0  0  0  0  0  0  0  0  0  0  0  0
  162.1170  207.8620  157.2590 O   0  0  0  0  0  0  0  0  0  0  0  0
  160.6670  207.2080  154.4100 C   0  0  0  0  0  1  0  0  0  0  0  0
  159.2630  208.3750  155.9270 O   0  0  0  0  0  0  0  0  0  0  0  0
  160.4430  208.0800  155.5960 C   0  0  0  0  0  0  0  0  0  0  0  0
  157.1420  213.5150  153.0860 C   0  0  0  0  0  0  0  0  0  0  0  0
  155.8820  213.4610  153.1610 O   0  0  0  0  0  0  0  0  0  0  0  0
  157.7660  214.1130  151.9890 O   0  0  0  0  0  0  0  0  0  0  0  0
  157.8460  213.4820  150.7170 C   0  0  0  0  0  2  0  0  0  0  0  0
  156.5660  213.7050  149.9340 C   0  0  0  0  0  1  0  0  0  0  0  0
  1  7  2  0  0  0  0
  1  3  1  0  0  0  0
  2  6  1  0  0  0  0
  2  8  2  0  0  0  0
  3  2  1  0  0  0  0
  4  5  2  0  0  0  0
  5  8  1  0  0  0  0
  5  9  1  0  0  0  0
  7  4  1  0  0  0  0
  8 27  1  0  0  0  0
 10 23  1  0  0  0  0
 11 10  1  0  0  0  0
 12 20  2  0  0  0  0
 13  4  1  0  0  0  0
 13 24  1  0  0  0  0
 14 18  1  0  0  0  0
 15 14  1  0  0  0  0
 15 18  1  0  0  0  0
 16 21  1  0  0  0  0
 16 13  2  0  0  0  0
 17 24  1  0  0  0  0
 17 15  1  0  0  0  0
 19 10  2  0  0  0  0
 19 12  1  0  0  0  0
 20 22  1  0  0  0  0
 20 21  1  0  0  0  0
 21 17  2  0  0  0  0
 22 25  1  0  0  0  0
 23 22  2  0  0  0  0
 25 15  1  0  0  0  0
 27 26  2  0  0  0  0
 28 43  1  6  0  0  0
 28 31  1  0  0  0  0
 29 26  1  6  0  0  0
 29 30  1  0  0  0  0
 29 36  1  0  0  0  0
 30 31  2  0  0  0  0
 32 29  1  0  0  0  0
 32 28  1  0  0  0  0
 34 37  1  0  0  0  0
 35 33  1  0  0  0  0
 36 34  1  1  0  0  0
 36 35  1  0  0  0  0
 37 38  1  1  0  0  0
 37 33  1  0  0  0  0
 38 39  2  0  0  0  0
 40 42  1  0  0  0  0
 42 41  2  0  0  0  0
 42 38  1  0  0  0  0
 43 44  2  0  0  0  0
 45 43  1  0  0  0  0
 46 45  1  0  0  0  0
 47 46  1  0  0  0  0
M  END
>  <MODEL>
4

>  <REMARK>
 VINA RESULT:      -5.6      1.240      4.475
  Name = 
  9 active torsions:
  status: ('A' for Active; 'I' for Inactive)
    1  A    between atoms: C_2  and  O_26
    2  A    between atoms: C_5  and  C_8
    3  A    between atoms: C_8  and  O_26
    4  A    between atoms: C_13  and  C_14
    5  A    between atoms: C_16  and  C_20
    6  A    between atoms: C_16  and  N_36
    7  A    between atoms: C_19  and  C_46
    8  A    between atoms: C_19  and  C_47
    9  A    between atoms: C_27  and  C_42
                            x       y       z     vdW  Elec       q    Type
                         _______ _______ _______ _____ _____    ______ ____

>  <TORSDO>
F 9

$$$$
=
 OpenBabel11072414503D

 47 53  0  0  1  0  0  0  0  0999 V2000
  161.8280  207.3860  155.9660 C   0  0  0  0  0  3  0  0  0  0  0  0
  160.1410  209.2280  156.1780 C   0  0  0  0  0  0  0  0  0  0  0  0
  160.6810  207.9700  156.5730 N   0  0  0  0  0  2  0  0  0  0  0  0
  161.0230  207.6060  153.6600 C   0  0  0  0  0  0  0  0  0  0  0  0
  160.1620  208.6520  153.7420 C   0  0  0  0  0  0  0  0  0  0  0  0
  159.6980  210.0890  157.2270 N   0  0  0  0  0  1  0  0  0  0  0  0
  161.9670  207.2720  154.6860 N   0  0  0  0  0  0  0  0  0  0  0  0
  160.0390  209.6020  154.8810 C   0  0  0  0  0  0  0  0  0  0  0  0
  159.3460  208.9290  152.6440 O   0  0  0  0  0  1  0  0  0  0  0  0
  161.2080  205.6300  146.1300 C   0  0  0  0  0  0  0  0  0  0  0  0
  161.2080  205.4690  144.6530 C   0  0  0  0  0  1  0  0  0  0  0  0
  161.1860  207.0660  148.0250 C   0  0  0  0  0  3  0  0  0  0  0  0
  161.1140  206.7790  152.4310 C   0  0  0  0  0  0  0  0  0  0  0  0
  162.0120  202.6240  151.4010 C   0  0  0  0  0  2  0  0  0  0  0  0
  161.1930  203.6480  150.6560 C   0  0  0  0  0  0  0  0  0  0  0  0
  161.1350  207.2570  151.1180 C   0  0  0  0  0  3  0  0  0  0  0  0
  161.1640  205.0430  151.1890 C   0  0  0  0  0  0  0  0  0  0  0  0
  160.4820  202.5540  151.4130 C   0  0  0  0  0  2  0  0  0  0  0  0
  161.1920  206.8760  146.6780 N   0  0  0  0  0  0  0  0  0  0  0  0
  161.1940  205.9640  148.8850 C   0  0  0  0  0  0  0  0  0  0  0  0
  161.1740  206.1160  150.3490 C   0  0  0  0  0  0  0  0  0  0  0  0
  161.2090  204.6610  148.3400 C   0  0  0  0  0  0  0  0  0  0  0  0
  161.2160  204.4990  146.9530 C   0  0  0  0  0  3  0  0  0  0  0  0
  161.1200  205.4260  152.4750 N   0  0  0  0  0  2  0  0  0  0  0  0
  161.2070  203.5040  149.1990 N   0  0  0  0  0  2  0  0  0  0  0  0
  158.6090  211.2900  153.6760 C   0  0  0  0  0  3  0  0  0  0  0  0
  159.6310  210.9730  154.4710 C   0  0  0  0  0  3  0  0  0  0  0  0
  157.5200  214.1500  154.9340 C   0  0  1  0  0  3  0  0  0  0  0  0
  158.2480  212.7130  153.3260 C   0  0  2  0  0  0  0  0  0  0  0  0
  159.3630  213.6360  153.7150 C   0  0  0  0  0  3  0  0  0  0  0  0
  158.9420  214.4530  154.6480 C   0  0  0  0  0  3  0  0  0  0  0  0
  157.1280  213.0630  154.1190 O   0  0  0  0  0  0  0  0  0  0  0  0
  158.0050  214.3650  150.1820 C   0  0  0  0  0  2  0  0  0  0  0  0
  158.9590  212.3610  151.0120 C   0  0  0  0  0  2  0  0  0  0  0  0
  157.6600  214.1870  151.5840 N   0  0  0  0  0  2  0  0  0  0  0  0
  157.8850  212.8280  151.8930 N   0  0  2  0  0  0  0  0  0  0  0  0
  159.0200  213.3070  149.8430 C   0  0  2  0  0  3  0  0  0  0  0  0
  160.3940  213.8960  149.7220 C   0  0  0  0  0  0  0  0  0  0  0  0
  160.9500  214.4160  150.7290 O   0  0  0  0  0  0  0  0  0  0  0  0
  160.3680  214.0930  147.1580 C   0  0  0  0  0  1  0  0  0  0  0  0
  162.3390  213.6220  148.3940 O   0  0  0  0  0  0  0  0  0  0  0  0
  161.1010  213.8560  148.4320 C   0  0  0  0  0  0  0  0  0  0  0  0
  157.3230  213.8120  156.3760 C   0  0  0  0  0  0  0  0  0  0  0  0
  158.2180  214.0910  157.2220 O   0  0  0  0  0  0  0  0  0  0  0  0
  156.1420  213.1770  156.7690 O   0  0  0  0  0  0  0  0  0  0  0  0
  156.1000  211.8070  157.1500 C   0  0  0  0  0  2  0  0  0  0  0  0
  155.3280  210.9960  156.1260 C   0  0  0  0  0  1  0  0  0  0  0  0
  1  3  1  0  0  0  0
  2  3  1  0  0  0  0
  2  6  1  0  0  0  0
  4  5  2  0  0  0  0
  4  7  1  0  0  0  0
  5  8  1  0  0  0  0
  7  1  2  0  0  0  0
  8  2  2  0  0  0  0
  9  5  1  0  0  0  0
 10 19  2  0  0  0  0
 10 23  1  0  0  0  0
 11 10  1  0  0  0  0
 12 20  2  0  0  0  0
 13 24  1  0  0  0  0
 13  4  1  0  0  0  0
 14 18  1  0  0  0  0
 15 17  1  0  0  0  0
 15 14  1  0  0  0  0
 15 18  1  0  0  0  0
 16 13  2  0  0  0  0
 17 24  1  0  0  0  0
 19 12  1  0  0  0  0
 20 21  1  0  0  0  0
 21 16  1  0  0  0  0
 21 17  2  0  0  0  0
 22 20  1  0  0  0  0
 22 25  1  0  0  0  0
 23 22  2  0  0  0  0
 25 15  1  0  0  0  0
 26 27  2  0  0  0  0
 27  8  1  0  0  0  0
 28 43  1  1  0  0  0
 29 26  1  1  0  0  0
 29 30  1  0  0  0  0
 29 32  1  0  0  0  0
 30 31  2  0  0  0  0
 31 28  1  0  0  0  0
 32 28  1  0  0  0  0
 33 35  1  0  0  0  0
 35 36  1  0  0  0  0
 36 34  1  6  0  0  0
 36 29  1  0  0  0  0
 37 38  1  1  0  0  0
 37 33  1  0  0  0  0
 37 34  1  0  0  0  0
 38 39  2  0  0  0  0
 40 42  1  0  0  0  0
 41 42  2  0  0  0  0
 42 38  1  0  0  0  0
 43 45  1  0  0  0  0
 43 44  2  0  0  0  0
 45 46  1  0  0  0  0
 47 46  1  0  0  0  0
M  END
>  <MODEL>
5

>  <REMARK>
 VINA RESULT:      -5.5      2.651      4.313
  Name = 
  9 active torsions:
  status: ('A' for Active; 'I' for Inactive)
    1  A    between atoms: C_2  and  O_26
    2  A    between atoms: C_5  and  C_8
    3  A    between atoms: C_8  and  O_26
    4  A    between atoms: C_13  and  C_14
    5  A    between atoms: C_16  and  C_20
    6  A    between atoms: C_16  and  N_36
    7  A    between atoms: C_19  and  C_46
    8  A    between atoms: C_19  and  C_47
    9  A    between atoms: C_27  and  C_42
                            x       y       z     vdW  Elec       q    Type
                         _______ _______ _______ _____ _____    ______ ____

>  <TORSDO>
F 9

$$$$
=
 OpenBabel11072414503D

 47 53  0  0  1  0  0  0  0  0999 V2000
  156.5920  214.0470  149.5860 C   0  0  0  0  0  3  0  0  0  0  0  0
  158.1830  213.6370  151.4790 C   0  0  0  0  0  0  0  0  0  0  0  0
  157.2170  214.4360  150.8030 N   0  0  0  0  0  2  0  0  0  0  0  0
  158.6740  213.5320  148.3970 C   0  0  0  0  0  0  0  0  0  0  0  0
  159.5310  213.2330  149.4070 C   0  0  0  0  0  0  0  0  0  0  0  0
  158.0830  213.5810  152.9010 N   0  0  0  0  0  1  0  0  0  0  0  0
  157.2520  213.6200  148.5600 N   0  0  0  0  0  0  0  0  0  0  0  0
  159.1580  212.9650  150.8230 C   0  0  0  0  0  0  0  0  0  0  0  0
  160.8860  213.0950  149.1100 O   0  0  0  0  0  1  0  0  0  0  0  0
  158.6210  214.3220  140.6500 C   0  0  0  0  0  0  0  0  0  0  0  0
  158.3890  214.4530  139.1890 C   0  0  0  0  0  1  0  0  0  0  0  0
  157.7340  214.1990  142.8530 C   0  0  0  0  0  3  0  0  0  0  0  0
  159.1560  213.6940  147.0020 C   0  0  0  0  0  0  0  0  0  0  0  0
  162.9540  214.4530  144.9700 C   0  0  0  0  0  2  0  0  0  0  0  0
  161.7100  213.7670  144.4670 C   0  0  0  0  0  0  0  0  0  0  0  0
  158.3540  213.8660  145.8700 C   0  0  0  0  0  3  0  0  0  0  0  0
  160.5050  213.7650  145.3500 C   0  0  0  0  0  0  0  0  0  0  0  0
  162.9040  212.9280  144.8470 C   0  0  0  0  0  2  0  0  0  0  0  0
  157.5650  214.3240  141.5090 N   0  0  0  0  0  0  0  0  0  0  0  0
  159.0190  214.0640  143.3840 C   0  0  0  0  0  0  0  0  0  0  0  0
  159.2540  213.9140  144.8290 C   0  0  0  0  0  0  0  0  0  0  0  0
  160.1310  214.0590  142.5140 C   0  0  0  0  0  0  0  0  0  0  0  0
  159.9250  214.1890  141.1380 C   0  0  0  0  0  3  0  0  0  0  0  0
  160.4700  213.6200  146.6830 N   0  0  0  0  0  2  0  0  0  0  0  0
  161.4690  213.9110  143.0300 N   0  0  0  0  0  2  0  0  0  0  0  0
  159.7490  211.1940  152.5150 C   0  0  0  0  0  3  0  0  0  0  0  0
  160.0660  212.0020  151.5040 C   0  0  0  0  0  3  0  0  0  0  0  0
  161.7180  208.6130  151.8730 C   0  0  1  0  0  3  0  0  0  0  0  0
  160.7270  210.2270  153.1350 C   0  0  2  0  0  0  0  0  0  0  0  0
  162.1320  210.6370  152.8080 C   0  0  0  0  0  3  0  0  0  0  0  0
  162.6930  209.7100  152.0720 C   0  0  0  0  0  3  0  0  0  0  0  0
  160.5130  208.9680  152.5210 O   0  0  0  0  0  0  0  0  0  0  0  0
  160.3950  211.4440  156.4650 C   0  0  0  0  0  2  0  0  0  0  0  0
  159.0730  210.2050  154.9370 C   0  0  0  0  0  2  0  0  0  0  0  0
  161.1550  211.1610  155.2570 N   0  0  0  0  0  2  0  0  0  0  0  0
  160.4940  210.1030  154.5940 N   0  0  2  0  0  0  0  0  0  0  0  0
  158.9750  211.0200  156.1980 C   0  0  2  0  0  3  0  0  0  0  0  0
  158.0890  212.2100  155.9810 C   0  0  0  0  0  0  0  0  0  0  0  0
  158.5960  213.3580  155.8370 O   0  0  0  0  0  0  0  0  0  0  0  0
  155.8940  212.2420  154.6420 C   0  0  0  0  0  1  0  0  0  0  0  0
  155.9840  211.7170  156.9550 O   0  0  0  0  0  0  0  0  0  0  0  0
  156.6290  212.0400  155.9220 C   0  0  0  0  0  0  0  0  0  0  0  0
  161.4690  208.3740  150.4190 C   0  0  0  0  0  0  0  0  0  0  0  0
  161.9730  209.1440  149.5530 O   0  0  0  0  0  0  0  0  0  0  0  0
  160.6680  207.2970  150.0340 O   0  0  0  0  0  0  0  0  0  0  0  0
  161.0160  206.4270  148.9640 C   0  0  0  0  0  2  0  0  0  0  0  0
  161.1730  205.0050  149.4670 C   0  0  0  0  0  1  0  0  0  0  0  0
  1  3  1  0  0  0  0
  2  6  1  0  0  0  0
  3  2  1  0  0  0  0
  4  7  1  0  0  0  0
  4  5  2  0  0  0  0
  5  8  1  0  0  0  0
  7  1  2  0  0  0  0
  8  2  2  0  0  0  0
  8 27  1  0  0  0  0
  9  5  1  0  0  0  0
 10 23  2  0  0  0  0
 10 19  1  0  0  0  0
 11 10  1  0  0  0  0
 12 20  1  0  0  0  0
 13  4  1  0  0  0  0
 15 18  1  0  0  0  0
 15 14  1  0  0  0  0
 15 17  1  0  0  0  0
 16 13  2  0  0  0  0
 17 24  1  0  0  0  0
 18 14  1  0  0  0  0
 19 12  2  0  0  0  0
 20 21  1  0  0  0  0
 21 17  2  0  0  0  0
 21 16  1  0  0  0  0
 22 25  1  0  0  0  0
 22 20  2  0  0  0  0
 23 22  1  0  0  0  0
 24 13  1  0  0  0  0
 25 15  1  0  0  0  0
 27 26  2  0  0  0  0
 28 43  1  6  0  0  0
 28 31  1  0  0  0  0
 28 32  1  0  0  0  0
 29 26  1  6  0  0  0
 29 36  1  0  0  0  0
 30 29  1  0  0  0  0
 31 30  2  0  0  0  0
 32 29  1  0  0  0  0
 34 37  1  0  0  0  0
 35 33  1  0  0  0  0
 36 34  1  6  0  0  0
 36 35  1  0  0  0  0
 37 38  1  6  0  0  0
 37 33  1  0  0  0  0
 39 38  2  0  0  0  0
 40 42  1  0  0  0  0
 42 38  1  0  0  0  0
 42 41  2  0  0  0  0
 44 43  2  0  0  0  0
 45 43  1  0  0  0  0
 46 47  1  0  0  0  0
 46 45  1  0  0  0  0
M  END
>  <MODEL>
6

>  <REMARK>
 VINA RESULT:      -5.4      4.540      8.642
  Name = 
  9 active torsions:
  status: ('A' for Active; 'I' for Inactive)
    1  A    between atoms: C_2  and  O_26
    2  A    between atoms: C_5  and  C_8
    3  A    between atoms: C_8  and  O_26
    4  A    between atoms: C_13  and  C_14
    5  A    between atoms: C_16  and  C_20
    6  A    between atoms: C_16  and  N_36
    7  A    between atoms: C_19  and  C_46
    8  A    between atoms: C_19  and  C_47
    9  A    between atoms: C_27  and  C_42
                            x       y       z     vdW  Elec       q    Type
                         _______ _______ _______ _____ _____    ______ ____

>  <TORSDO>
F 9

$$$$
=
 OpenBabel11072414503D

 47 53  0  0  1  0  0  0  0  0999 V2000
  161.9740  205.9730  154.4920 C   0  0  0  0  0  3  0  0  0  0  0  0
  160.6790  208.0980  154.7990 C   0  0  0  0  0  0  0  0  0  0  0  0
  160.9370  206.7310  155.1050 N   0  0  0  0  0  2  0  0  0  0  0  0
  161.3470  206.5250  152.1860 C   0  0  0  0  0  0  0  0  0  0  0  0
  160.7090  207.7150  152.3250 C   0  0  0  0  0  0  0  0  0  0  0  0
  160.3640  208.9500  155.9000 N   0  0  0  0  0  1  0  0  0  0  0  0
  162.1520  205.9300  153.2120 N   0  0  0  0  0  0  0  0  0  0  0  0
  160.7200  208.5810  153.5350 C   0  0  0  0  0  0  0  0  0  0  0  0
  160.0220  208.2330  151.2270 O   0  0  0  0  0  1  0  0  0  0  0  0
  161.4740  205.1270  144.5270 C   0  0  0  0  0  0  0  0  0  0  0  0
  161.5050  205.0820  143.0420 C   0  0  0  0  0  1  0  0  0  0  0  0
  161.6400  206.3930  146.5320 C   0  0  0  0  0  3  0  0  0  0  0  0
  161.3340  205.7910  150.8960 C   0  0  0  0  0  0  0  0  0  0  0  0
  161.4860  201.6320  149.5510 C   0  0  0  0  0  2  0  0  0  0  0  0
  160.9030  202.8460  148.8720 C   0  0  0  0  0  0  0  0  0  0  0  0
  161.4970  206.3550  149.6270 C   0  0  0  0  0  3  0  0  0  0  0  0
  161.1120  204.1770  149.5170 C   0  0  0  0  0  0  0  0  0  0  0  0
  159.9700  201.8510  149.5170 C   0  0  0  0  0  2  0  0  0  0  0  0
  161.6670  206.3080  145.1750 N   0  0  0  0  0  0  0  0  0  0  0  0
  161.4070  205.2470  147.2980 C   0  0  0  0  0  0  0  0  0  0  0  0
  161.3550  205.2890  148.7680 C   0  0  0  0  0  0  0  0  0  0  0  0
  161.2020  204.0110  146.6480 C   0  0  0  0  0  0  0  0  0  0  0  0
  161.2370  203.9560  145.2530 C   0  0  0  0  0  3  0  0  0  0  0  0
  161.0860  204.4620  150.8290 N   0  0  0  0  0  2  0  0  0  0  0  0
  160.9500  202.8130  147.4090 N   0  0  0  0  0  2  0  0  0  0  0  0
  159.4930  210.7510  153.1670 C   0  0  0  0  0  3  0  0  0  0  0  0
  160.6150  210.0330  153.2280 C   0  0  0  0  0  3  0  0  0  0  0  0
  160.3810  213.0330  150.9420 C   0  0  1  0  0  3  0  0  0  0  0  0
  159.4760  212.2300  152.8700 C   0  0  2  0  0  0  0  0  0  0  0  0
  158.3820  212.5450  151.8950 C   0  0  0  0  0  3  0  0  0  0  0  0
  158.9080  212.9960  150.7840 C   0  0  0  0  0  3  0  0  0  0  0  0
  160.7000  212.5380  152.2270 O   0  0  0  0  0  0  0  0  0  0  0  0
  157.8980  214.4530  155.1610 C   0  0  0  0  0  2  0  0  0  0  0  0
  158.7650  212.2480  155.2110 C   0  0  0  0  0  2  0  0  0  0  0  0
  158.5360  214.1350  153.8920 N   0  0  0  0  0  2  0  0  0  0  0  0
  159.3700  213.0180  154.1210 N   0  0  2  0  0  0  0  0  0  0  0  0
  157.8450  213.1760  155.9560 C   0  0  2  0  0  3  0  0  0  0  0  0
  156.4540  212.6170  155.9870 C   0  0  0  0  0  0  0  0  0  0  0  0
  155.7270  212.7880  157.0050 O   0  0  0  0  0  0  0  0  0  0  0  0
  156.1430  210.4130  154.6980 C   0  0  0  0  0  1  0  0  0  0  0  0
  155.2920  212.4890  153.9240 O   0  0  0  0  0  0  0  0  0  0  0  0
  155.9300  211.8820  154.8250 C   0  0  0  0  0  0  0  0  0  0  0  0
  161.0540  212.2120  149.8910 C   0  0  0  0  0  0  0  0  0  0  0  0
  161.5640  211.0950  150.1880 O   0  0  0  0  0  0  0  0  0  0  0  0
  161.1170  212.7000  148.5840 O   0  0  0  0  0  0  0  0  0  0  0  0
  159.9920  213.2650  147.9230 C   0  0  0  0  0  2  0  0  0  0  0  0
  159.5800  212.3980  146.7480 C   0  0  0  0  0  1  0  0  0  0  0  0
  1  3  1  0  0  0  0
  2  3  1  0  0  0  0
  2  6  1  0  0  0  0
  4  5  2  0  0  0  0
  4  7  1  0  0  0  0
  5  8  1  0  0  0  0
  7  1  2  0  0  0  0
  8  2  2  0  0  0  0
  9  5  1  0  0  0  0
 10 19  2  0  0  0  0
 10 23  1  0  0  0  0
 11 10  1  0  0  0  0
 12 20  2  0  0  0  0
 13  4  1  0  0  0  0
 15 17  1  0  0  0  0
 15 18  1  0  0  0  0
 15 14  1  0  0  0  0
 16 13  2  0  0  0  0
 17 24  1  0  0  0  0
 18 14  1  0  0  0  0
 19 12  1  0  0  0  0
 20 21  1  0  0  0  0
 21 17  2  0  0  0  0
 21 16  1  0  0  0  0
 22 20  1  0  0  0  0
 22 25  1  0  0  0  0
 23 22  2  0  0  0  0
 24 13  1  0  0  0  0
 25 15  1  0  0  0  0
 26 27  2  0  0  0  0
 27  8  1  0  0  0  0
 28 43  1  6  0  0  0
 28 32  1  0  0  0  0
 29 26  1  1  0  0  0
 29 36  1  0  0  0  0
 30 29  1  0  0  0  0
 31 28  1  0  0  0  0
 31 30  2  0  0  0  0
 32 29  1  0  0  0  0
 33 37  1  0  0  0  0
 34 37  1  0  0  0  0
 35 36  1  0  0  0  0
 35 33  1  0  0  0  0
 36 34  1  1  0  0  0
 37 38  1  6  0  0  0
 38 39  2  0  0  0  0
 40 42  1  0  0  0  0
 41 42  2  0  0  0  0
 42 38  1  0  0  0  0
 43 44  2  0  0  0  0
 45 43  1  0  0  0  0
 46 45  1  0  0  0  0
 47 46  1  0  0  0  0
M  END
>  <MODEL>
7

>  <REMARK>
 VINA RESULT:      -5.4      2.593      4.807
  Name = 
  9 active torsions:
  status: ('A' for Active; 'I' for Inactive)
    1  A    between atoms: C_2  and  O_26
    2  A    between atoms: C_5  and  C_8
    3  A    between atoms: C_8  and  O_26
    4  A    between atoms: C_13  and  C_14
    5  A    between atoms: C_16  and  C_20
    6  A    between atoms: C_16  and  N_36
    7  A    between atoms: C_19  and  C_46
    8  A    between atoms: C_19  and  C_47
    9  A    between atoms: C_27  and  C_42
                            x       y       z     vdW  Elec       q    Type
                         _______ _______ _______ _____ _____    ______ ____

>  <TORSDO>
F 9

$$$$
=
 OpenBabel11072414503D

 47 53  0  0  1  0  0  0  0  0999 V2000
  162.6370  210.6180  149.2750 C   0  0  0  0  0  3  0  0  0  0  0  0
  161.8620  208.3930  148.4170 C   0  0  0  0  0  0  0  0  0  0  0  0
  161.9480  209.8120  148.3260 N   0  0  0  0  0  0  0  0  0  0  0  0
  161.5320  209.6690  151.2480 C   0  0  0  0  0  0  0  0  0  0  0  0
  161.1710  208.4310  150.8230 C   0  0  0  0  0  0  0  0  0  0  0  0
  162.0020  207.6660  147.1970 N   0  0  0  0  0  1  0  0  0  0  0  0
  162.4620  210.5080  150.5510 N   0  0  0  0  0  2  0  0  0  0  0  0
  161.6520  207.7510  149.5900 C   0  0  0  0  0  0  0  0  0  0  0  0
  160.3200  207.6740  151.6290 O   0  0  0  0  0  1  0  0  0  0  0  0
  157.2550  213.5870  156.4440 C   0  0  0  0  0  0  0  0  0  0  0  0
  156.3240  214.4070  157.2600 C   0  0  0  0  0  1  0  0  0  0  0  0
  157.8540  212.6740  154.3320 C   0  0  0  0  0  3  0  0  0  0  0  0
  161.0510  210.2080  152.5450 C   0  0  0  0  0  0  0  0  0  0  0  0
  161.9250  209.6460  156.7930 C   0  0  0  0  0  2  0  0  0  0  0  0
  161.3450  210.8390  156.0760 C   0  0  0  0  0  0  0  0  0  0  0  0
  159.9040  210.9830  152.7380 C   0  0  0  0  0  3  0  0  0  0  0  0
  161.0340  210.6980  154.6220 C   0  0  0  0  0  0  0  0  0  0  0  0
  162.7860  210.8830  156.5220 C   0  0  0  0  0  2  0  0  0  0  0  0
  157.0210  213.4120  155.1150 N   0  0  0  0  0  0  0  0  0  0  0  0
  158.9840  212.0710  154.8900 C   0  0  0  0  0  0  0  0  0  0  0  0
  159.9220  211.2730  154.0840 C   0  0  0  0  0  0  0  0  0  0  0  0
  159.2480  212.2390  156.2670 C   0  0  0  0  0  0  0  0  0  0  0  0
  158.3750  213.0030  157.0450 C   0  0  0  0  0  3  0  0  0  0  0  0
  161.7490  210.0450  153.6930 N   0  0  0  0  0  2  0  0  0  0  0  0
  160.4120  211.6390  156.8710 N   0  0  0  0  0  2  0  0  0  0  0  0
  161.0590  205.3780  148.9850 C   0  0  0  0  0  3  0  0  0  0  0  0
  161.7250  206.2700  149.7180 C   0  0  0  0  0  3  0  0  0  0  0  0
  161.0970  202.9560  151.2380 C   0  0  1  0  0  3  0  0  0  0  0  0
  161.2080  203.8880  149.1650 C   0  0  2  0  0  0  0  0  0  0  0  0
  159.8620  203.2570  149.3600 C   0  0  0  0  0  3  0  0  0  0  0  0
  159.8000  202.7320  150.5590 C   0  0  0  0  0  3  0  0  0  0  0  0
  161.9350  203.6850  150.3640 O   0  0  0  0  0  0  0  0  0  0  0  0
  161.5570  202.0580  146.1300 C   0  0  0  0  0  2  0  0  0  0  0  0
  162.1060  204.2260  146.9150 C   0  0  0  0  0  2  0  0  0  0  0  0
  161.2460  202.1740  147.5460 N   0  0  0  0  0  2  0  0  0  0  0  0
  161.9590  203.2920  148.0330 N   0  0  2  0  0  0  0  0  0  0  0  0
  161.9160  203.4380  145.6470 C   0  0  2  0  0  3  0  0  0  0  0  0
  160.8080  204.0280  144.8270 C   0  0  0  0  0  0  0  0  0  0  0  0
  159.8490  203.3020  144.4450 O   0  0  0  0  0  0  0  0  0  0  0  0
  160.0900  206.4500  145.3090 C   0  0  0  0  0  1  0  0  0  0  0  0
  161.4800  205.8590  143.4780 O   0  0  0  0  0  0  0  0  0  0  0  0
  160.8300  205.4580  144.4810 C   0  0  0  0  0  0  0  0  0  0  0  0
  160.9110  203.7050  152.5180 C   0  0  0  0  0  0  0  0  0  0  0  0
  160.4670  203.1130  153.5410 O   0  0  0  0  0  0  0  0  0  0  0  0
  161.2250  205.0650  152.5600 O   0  0  0  0  0  0  0  0  0  0  0  0
  161.8240  205.6770  153.6960 C   0  0  0  0  0  2  0  0  0  0  0  0
  160.8180  206.5540  154.4170 C   0  0  0  0  0  1  0  0  0  0  0  0
  1  7  1  0  0  0  0
  2  8  2  0  0  0  0
  3  2  1  0  0  0  0
  3  1  2  0  0  0  0
  4 13  1  0  0  0  0
  5  4  2  0  0  0  0
  5  9  1  0  0  0  0
  6  2  1  0  0  0  0
  7  4  1  0  0  0  0
  8 27  1  0  0  0  0
  8  5  1  0  0  0  0
 10 23  1  0  0  0  0
 10 11  1  0  0  0  0
 12 20  2  0  0  0  0
 12 19  1  0  0  0  0
 13 16  2  0  0  0  0
 13 24  1  0  0  0  0
 15 18  1  0  0  0  0
 15 14  1  0  0  0  0
 15 25  1  0  0  0  0
 16 21  1  0  0  0  0
 17 15  1  0  0  0  0
 18 14  1  0  0  0  0
 19 10  2  0  0  0  0
 20 22  1  0  0  0  0
 21 17  2  0  0  0  0
 21 20  1  0  0  0  0
 22 25  1  0  0  0  0
 22 23  2  0  0  0  0
 24 17  1  0  0  0  0
 26 27  2  0  0  0  0
 28 43  1  1  0  0  0
 29 26  1  6  0  0  0
 29 30  1  0  0  0  0
 29 32  1  0  0  0  0
 30 31  2  0  0  0  0
 31 28  1  0  0  0  0
 32 28  1  0  0  0  0
 33 35  1  0  0  0  0
 35 36  1  0  0  0  0
 36 34  1  6  0  0  0
 36 29  1  0  0  0  0
 37 38  1  6  0  0  0
 37 33  1  0  0  0  0
 37 34  1  0  0  0  0
 39 38  2  0  0  0  0
 41 42  2  0  0  0  0
 42 38  1  0  0  0  0
 42 40  1  0  0  0  0
 43 45  1  0  0  0  0
 43 44  2  0  0  0  0
 45 46  1  0  0  0  0
 46 47  1  0  0  0  0
M  END
>  <MODEL>
8

>  <REMARK>
 VINA RESULT:      -5.3      2.674      9.777
  Name = 
  9 active torsions:
  status: ('A' for Active; 'I' for Inactive)
    1  A    between atoms: C_2  and  O_26
    2  A    between atoms: C_5  and  C_8
    3  A    between atoms: C_8  and  O_26
    4  A    between atoms: C_13  and  C_14
    5  A    between atoms: C_16  and  C_20
    6  A    between atoms: C_16  and  N_36
    7  A    between atoms: C_19  and  C_46
    8  A    between atoms: C_19  and  C_47
    9  A    between atoms: C_27  and  C_42
                            x       y       z     vdW  Elec       q    Type
                         _______ _______ _______ _____ _____    ______ ____

>  <TORSDO>
F 9

$$$$
=
 OpenBabel11072414503D

 47 53  0  0  1  0  0  0  0  0999 V2000
  157.7120  214.3640  150.4720 C   0  0  0  0  0  3  0  0  0  0  0  0
  159.3680  213.2990  152.0240 C   0  0  0  0  0  0  0  0  0  0  0  0
  158.5950  214.4130  151.5860 N   0  0  0  0  0  2  0  0  0  0  0  0
  159.3490  213.4280  148.9040 C   0  0  0  0  0  0  0  0  0  0  0  0
  160.2150  212.7810  149.7250 C   0  0  0  0  0  0  0  0  0  0  0  0
  159.4650  213.1040  153.4340 N   0  0  0  0  0  1  0  0  0  0  0  0
  158.0580  213.8930  149.3190 N   0  0  0  0  0  0  0  0  0  0  0  0
  159.9910  212.4620  151.1610 C   0  0  0  0  0  0  0  0  0  0  0  0
  161.4090  212.3020  149.1860 O   0  0  0  0  0  1  0  0  0  0  0  0
  158.3010  214.3080  141.2380 C   0  0  0  0  0  0  0  0  0  0  0  0
  157.8830  214.4530  139.8200 C   0  0  0  0  0  1  0  0  0  0  0  0
  157.7030  214.1480  143.5340 C   0  0  0  0  0  3  0  0  0  0  0  0
  159.6470  213.6120  147.4610 C   0  0  0  0  0  0  0  0  0  0  0  0
  163.1470  214.4440  144.9730 C   0  0  0  0  0  2  0  0  0  0  0  0
  161.8560  213.7470  144.6230 C   0  0  0  0  0  0  0  0  0  0  0  0
  158.7060  213.7870  146.4430 C   0  0  0  0  0  3  0  0  0  0  0  0
  160.7740  213.7200  145.6520 C   0  0  0  0  0  0  0  0  0  0  0  0
  163.0990  212.9190  144.8370 C   0  0  0  0  0  2  0  0  0  0  0  0
  157.3620  214.2860  142.2230 N   0  0  0  0  0  0  0  0  0  0  0  0
  159.0470  214.0230  143.8950 C   0  0  0  0  0  0  0  0  0  0  0  0
  159.4650  213.8590  145.2970 C   0  0  0  0  0  0  0  0  0  0  0  0
  160.0380  214.0420  142.8900 C   0  0  0  0  0  0  0  0  0  0  0  0
  159.6570  214.1850  141.5550 C   0  0  0  0  0  3  0  0  0  0  0  0
  160.9100  213.5590  146.9770 N   0  0  0  0  0  2  0  0  0  0  0  0
  161.4320  213.9050  143.2300 N   0  0  0  0  0  2  0  0  0  0  0  0
  160.1000  210.2080  152.2820 C   0  0  0  0  0  3  0  0  0  0  0  0
  160.6600  211.2080  151.6020 C   0  0  0  0  0  3  0  0  0  0  0  0
  161.6150  207.5240  151.0790 C   0  0  1  0  0  3  0  0  0  0  0  0
  160.8460  208.9560  152.6720 C   0  0  2  0  0  0  0  0  0  0  0  0
  162.3200  209.1570  152.4860 C   0  0  0  0  0  3  0  0  0  0  0  0
  162.7550  208.3400  151.5600 C   0  0  0  0  0  3  0  0  0  0  0  0
  160.4530  207.9400  151.7670 O   0  0  0  0  0  0  0  0  0  0  0  0
  161.2670  208.8190  156.2050 C   0  0  0  0  0  2  0  0  0  0  0  0
  159.5670  209.4760  154.6910 C   0  0  0  0  0  2  0  0  0  0  0  0
  161.6690  208.5240  154.8380 N   0  0  0  0  0  2  0  0  0  0  0  0
  160.4960  208.5410  154.0520 N   0  0  2  0  0  0  0  0  0  0  0  0
  160.0020  209.6290  156.1240 C   0  0  2  0  0  3  0  0  0  0  0  0
  160.2630  211.0710  156.4380 C   0  0  0  0  0  0  0  0  0  0  0  0
  161.4330  211.5360  156.3440 O   0  0  0  0  0  0  0  0  0  0  0  0
  157.7500  211.4550  156.8240 C   0  0  0  0  0  1  0  0  0  0  0  0
  159.3830  213.1330  157.2090 O   0  0  0  0  0  0  0  0  0  0  0  0
  159.1540  211.9500  156.8410 C   0  0  0  0  0  0  0  0  0  0  0  0
  161.4270  207.6830  149.6050 C   0  0  0  0  0  0  0  0  0  0  0  0
  161.2010  208.8240  149.1130 O   0  0  0  0  0  0  0  0  0  0  0  0
  161.4950  206.5540  148.7860 O   0  0  0  0  0  0  0  0  0  0  0  0
  160.5500  205.4930  148.8640 C   0  0  0  0  0  2  0  0  0  0  0  0
  161.2280  204.2120  149.3120 C   0  0  0  0  0  1  0  0  0  0  0  0
  1  3  1  0  0  0  0
  2  6  1  0  0  0  0
  3  2  1  0  0  0  0
  4  7  1  0  0  0  0
  4  5  2  0  0  0  0
  5  8  1  0  0  0  0
  7  1  2  0  0  0  0
  8 27  1  0  0  0  0
  8  2  2  0  0  0  0
  9  5  1  0  0  0  0
 10 23  2  0  0  0  0
 10 19  1  0  0  0  0
 11 10  1  0  0  0  0
 12 20  1  0  0  0  0
 13  4  1  0  0  0  0
 15 18  1  0  0  0  0
 15 14  1  0  0  0  0
 15 17  1  0  0  0  0
 16 13  2  0  0  0  0
 17 24  1  0  0  0  0
 18 14  1  0  0  0  0
 19 12  2  0  0  0  0
 20 21  1  0  0  0  0
 21 17  2  0  0  0  0
 21 16  1  0  0  0  0
 22 25  1  0  0  0  0
 22 20  2  0  0  0  0
 23 22  1  0  0  0  0
 24 13  1  0  0  0  0
 25 15  1  0  0  0  0
 27 26  2  0  0  0  0
 28 43  1  6  0  0  0
 28 31  1  0  0  0  0
 28 32  1  0  0  0  0
 29 26  1  6  0  0  0
 29 36  1  0  0  0  0
 30 29  1  0  0  0  0
 31 30  2  0  0  0  0
 32 29  1  0  0  0  0
 34 37  1  0  0  0  0
 35 33  1  0  0  0  0
 36 34  1  1  0  0  0
 36 35  1  0  0  0  0
 37 33  1  0  0  0  0
 37 38  1  6  0  0  0
 38 42  1  0  0  0  0
 39 38  2  0  0  0  0
 40 42  1  0  0  0  0
 42 41  2  0  0  0  0
 44 43  2  0  0  0  0
 45 46  1  0  0  0  0
 45 43  1  0  0  0  0
 46 47  1  0  0  0  0
M  END
>  <MODEL>
9

>  <REMARK>
 VINA RESULT:      -4.7      4.368      8.786
  Name = 
  9 active torsions:
  status: ('A' for Active; 'I' for Inactive)
    1  A    between atoms: C_2  and  O_26
    2  A    between atoms: C_5  and  C_8
    3  A    between atoms: C_8  and  O_26
    4  A    between atoms: C_13  and  C_14
    5  A    between atoms: C_16  and  C_20
    6  A    between atoms: C_16  and  N_36
    7  A    between atoms: C_19  and  C_46
    8  A    between atoms: C_19  and  C_47
    9  A    between atoms: C_27  and  C_42
                            x       y       z     vdW  Elec       q    Type
                         _______ _______ _______ _____ _____    ______ ____

>  <TORSDO>
F 9

$$$$
