=
 OpenBabel11072411123D

 30 34  0  0  1  0  0  0  0  0999 V2000
  161.4490  204.8150  152.5980 C   0  0  2  0  0  3  0  0  0  0  0  0
  161.2970  204.8150  151.1150 C   0  0  0  0  0  0  0  0  0  0  0  0
  160.9770  209.2550  153.9100 C   0  0  0  0  0  0  0  0  0  0  0  0
  161.7500  209.2760  152.6290 C   0  0  0  0  0  2  0  0  0  0  0  0
  161.0030  206.3390  149.3210 N   0  0  0  0  0  0  0  0  0  0  0  0
  160.3710  204.1470  153.1800 O   0  0  0  0  0  1  0  0  0  0  0  0
  161.1260  206.0820  150.6440 C   0  0  0  0  0  0  0  0  0  0  0  0
  161.2100  203.9720  148.9260 C   0  0  0  0  0  0  0  0  0  0  0  0
  161.3430  203.7570  150.2690 N   0  0  0  0  0  0  0  0  0  0  0  0
  161.2610  202.8040  148.0000 C   0  0  0  0  0  1  0  0  0  0  0  0
  160.8630  208.1310  154.6300 C   0  0  0  0  0  3  0  0  0  0  0  0
  161.2840  206.8240  154.2110 N   0  0  0  0  0  2  0  0  0  0  0  0
  161.1350  208.4200  151.6310 N   0  0  0  0  0  2  0  0  0  0  0  0
  161.3410  206.3000  152.8770 C   0  0  0  0  0  0  0  0  0  0  0  0
  161.0320  205.2960  148.4370 C   0  0  0  0  0  0  0  0  0  0  0  0
  161.1620  207.0010  151.7510 C   0  0  0  0  0  0  0  0  0  0  0  0
  159.4330  212.9490  155.4740 C   0  0  0  0  0  0  0  0  0  0  0  0
  160.7650  210.9460  155.7470 C   0  0  0  0  0  3  0  0  0  0  0  0
  160.2670  212.1470  156.2590 C   0  0  0  0  0  3  0  0  0  0  0  0
  160.4370  210.5300  154.4460 C   0  0  0  0  0  0  0  0  0  0  0  0
  159.5990  211.3480  153.6670 C   0  0  0  0  0  3  0  0  0  0  0  0
  159.1000  212.5500  154.1780 C   0  0  0  0  0  3  0  0  0  0  0  0
  158.8090  214.4530  156.1140 Cl  0  0  0  0  0  0  0  0  0  0  0  0
  159.9490  206.5360  146.6870 O   0  0  0  0  0  1  0  0  0  0  0  0
  160.9180  205.5650  146.9640 C   0  0  1  0  0  3  0  0  0  0  0  0
  162.2900  205.8360  146.3070 C   0  0  1  0  0  3  0  0  0  0  0  0
  162.8420  204.6490  145.7870 O   0  0  0  0  0  0  0  0  0  0  0  0
  162.4640  205.6150  144.8350 C   0  0  1  0  0  3  0  0  0  0  0  0
  160.9580  203.8230  144.4500 F   0  0  0  0  0  0  0  0  0  0  0  0
  161.2470  205.1180  144.0680 C   0  0  0  0  0  2  0  0  0  0  0  0
  1 14  1  0  0  0  0
  1  6  1  1  0  0  0
  2  1  1  0  0  0  0
  3 20  1  0  0  0  0
  3 11  2  0  0  0  0
  4  3  1  0  0  0  0
  5  7  2  0  0  0  0
  7  2  1  0  0  0  0
  7 16  1  0  0  0  0
  8  9  1  0  0  0  0
  9  2  2  0  0  0  0
 10  8  1  0  0  0  0
 12 11  1  0  0  0  0
 13 16  1  0  0  0  0
 13  4  1  0  0  0  0
 14 12  1  0  0  0  0
 15  8  2  0  0  0  0
 15  5  1  0  0  0  0
 16 14  2  0  0  0  0
 17 23  1  0  0  0  0
 17 19  1  0  0  0  0
 18 19  2  0  0  0  0
 20 18  1  0  0  0  0
 21 22  1  0  0  0  0
 21 20  2  0  0  0  0
 22 17  2  0  0  0  0
 25 24  1  1  0  0  0
 25 15  1  0  0  0  0
 26 25  1  6  0  0  0
 27 26  1  0  0  0  0
 28 30  1  6  0  0  0
 28 27  1  0  0  0  0
 28 26  1  0  0  0  0
 30 29  1  0  0  0  0
M  END
>  <MODEL>
1

>  <REMARK>
 VINA RESULT:      -8.1      0.000      0.000
  Name = 
  4 active torsions:
  status: ('A' for Active; 'I' for Inactive)
    1  A    between atoms: C_2  and  C_30
    2  A    between atoms: C_7  and  C_13
    3  A    between atoms: C_24  and  C_30
    4  A    between atoms: C_26  and  C_29
                            x       y       z     vdW  Elec       q    Type
                         _______ _______ _______ _____ _____    ______ ____

>  <TORSDO>
F 4

$$$$
=
 OpenBabel11072411123D

 30 34  0  0  1  0  0  0  0  0999 V2000
  161.2610  202.9470  151.6970 C   0  0  2  0  0  3  0  0  0  0  0  0
  161.2540  202.8490  150.2090 C   0  0  0  0  0  0  0  0  0  0  0  0
  161.2780  207.5020  152.6520 C   0  0  0  0  0  0  0  0  0  0  0  0
  162.1670  207.3190  151.4640 C   0  0  0  0  0  2  0  0  0  0  0  0
  161.3480  204.2480  148.2960 N   0  0  0  0  0  0  0  0  0  0  0  0
  160.0500  202.4730  152.2030 O   0  0  0  0  0  1  0  0  0  0  0  0
  161.3060  204.0850  149.6390 C   0  0  0  0  0  0  0  0  0  0  0  0
  161.2650  201.8510  148.0840 C   0  0  0  0  0  0  0  0  0  0  0  0
  161.2370  201.7290  149.4450 N   0  0  0  0  0  0  0  0  0  0  0  0
  161.2440  200.6150  147.2490 C   0  0  0  0  0  1  0  0  0  0  0  0
  160.9420  206.4630  153.4290 C   0  0  0  0  0  3  0  0  0  0  0  0
  161.2190  205.0830  153.1460 N   0  0  0  0  0  2  0  0  0  0  0  0
  161.5410  206.4740  150.4640 N   0  0  0  0  0  2  0  0  0  0  0  0
  161.3320  204.4510  151.8630 C   0  0  0  0  0  0  0  0  0  0  0  0
  161.3190  203.1430  147.4920 C   0  0  0  0  0  0  0  0  0  0  0  0
  161.3610  205.0770  150.6810 C   0  0  0  0  0  0  0  0  0  0  0  0
  160.0860  211.4790  153.7620 C   0  0  0  0  0  0  0  0  0  0  0  0
  160.7960  209.8930  152.0770 C   0  0  0  0  0  3  0  0  0  0  0  0
  160.4060  211.1870  152.4340 C   0  0  0  0  0  3  0  0  0  0  0  0
  160.8700  208.8750  153.0420 C   0  0  0  0  0  0  0  0  0  0  0  0
  160.5410  209.1830  154.3750 C   0  0  0  0  0  3  0  0  0  0  0  0
  160.1520  210.4770  154.7320 C   0  0  0  0  0  3  0  0  0  0  0  0
  159.5990  213.0990  154.2090 Cl  0  0  0  0  0  0  0  0  0  0  0  0
  160.1110  203.3670  145.4270 O   0  0  0  0  0  1  0  0  0  0  0  0
  161.3860  203.3060  146.0010 C   0  0  1  0  0  3  0  0  0  0  0  0
  162.3270  204.4550  145.5750 C   0  0  1  0  0  3  0  0  0  0  0  0
  162.0110  204.9100  144.2800 O   0  0  0  0  0  0  0  0  0  0  0  0
  161.7640  205.8210  145.3260 C   0  0  1  0  0  3  0  0  0  0  0  0
  160.0020  206.4740  146.7730 F   0  0  0  0  0  0  0  0  0  0  0  0
  160.2630  205.9860  145.5070 C   0  0  0  0  0  2  0  0  0  0  0  0
  1 14  1  0  0  0  0
  1  6  1  1  0  0  0
  2  1  1  0  0  0  0
  3 20  1  0  0  0  0
  3 11  2  0  0  0  0
  4  3  1  0  0  0  0
  5  7  2  0  0  0  0
  7  2  1  0  0  0  0
  7 16  1  0  0  0  0
  8  9  1  0  0  0  0
  9  2  2  0  0  0  0
 10  8  1  0  0  0  0
 12 11  1  0  0  0  0
 13 16  1  0  0  0  0
 13  4  1  0  0  0  0
 14 12  1  0  0  0  0
 15  8  2  0  0  0  0
 15  5  1  0  0  0  0
 16 14  2  0  0  0  0
 17 23  1  0  0  0  0
 17 22  1  0  0  0  0
 18 19  1  0  0  0  0
 18 20  2  0  0  0  0
 19 17  2  0  0  0  0
 20 21  1  0  0  0  0
 21 22  2  0  0  0  0
 25 24  1  1  0  0  0
 25 15  1  0  0  0  0
 26 25  1  1  0  0  0
 27 28  1  0  0  0  0
 27 26  1  0  0  0  0
 28 30  1  1  0  0  0
 28 26  1  0  0  0  0
 30 29  1  0  0  0  0
M  END
>  <MODEL>
2

>  <REMARK>
 VINA RESULT:      -7.6      1.689      2.431
  Name = 
  4 active torsions:
  status: ('A' for Active; 'I' for Inactive)
    1  A    between atoms: C_2  and  C_30
    2  A    between atoms: C_7  and  C_13
    3  A    between atoms: C_24  and  C_30
    4  A    between atoms: C_26  and  C_29
                            x       y       z     vdW  Elec       q    Type
                         _______ _______ _______ _____ _____    ______ ____

>  <TORSDO>
F 4

$$$$
=
 OpenBabel11072411123D

 30 34  0  0  1  0  0  0  0  0999 V2000
  161.3890  211.2200  151.6040 C   0  0  2  0  0  3  0  0  0  0  0  0
  160.4640  211.5200  152.7340 C   0  0  0  0  0  0  0  0  0  0  0  0
  161.5520  206.5780  151.3140 C   0  0  0  0  0  0  0  0  0  0  0  0
  161.5160  206.9060  152.7730 C   0  0  0  0  0  2  0  0  0  0  0  0
  159.2040  210.3920  154.3980 N   0  0  0  0  0  0  0  0  0  0  0  0
  160.8130  211.6400  150.4040 O   0  0  0  0  0  1  0  0  0  0  0  0
  160.0260  210.3720  153.3230 C   0  0  0  0  0  0  0  0  0  0  0  0
  159.2430  212.7970  154.2800 C   0  0  0  0  0  0  0  0  0  0  0  0
  160.0830  212.7330  153.2040 N   0  0  0  0  0  0  0  0  0  0  0  0
  158.8260  214.1340  154.7920 C   0  0  0  0  0  1  0  0  0  0  0  0
  161.8790  207.5070  150.4060 C   0  0  0  0  0  3  0  0  0  0  0  0
  162.0510  208.9080  150.6670 N   0  0  0  0  0  2  0  0  0  0  0  0
  160.4890  207.8890  153.0650 N   0  0  0  0  0  2  0  0  0  0  0  0
  161.4000  209.7070  151.6640 C   0  0  0  0  0  0  0  0  0  0  0  0
  158.7870  211.5960  154.8930 C   0  0  0  0  0  0  0  0  0  0  0  0
  160.6220  209.2460  152.6520 C   0  0  0  0  0  0  0  0  0  0  0  0
  160.9600  202.5110  150.0580 C   0  0  0  0  0  0  0  0  0  0  0  0
  161.0730  204.8730  149.5410 C   0  0  0  0  0  3  0  0  0  0  0  0
  160.8820  203.5510  149.1290 C   0  0  0  0  0  3  0  0  0  0  0  0
  161.3440  205.1710  150.8870 C   0  0  0  0  0  0  0  0  0  0  0  0
  161.4230  204.1130  151.8110 C   0  0  0  0  0  3  0  0  0  0  0  0
  161.2310  202.7920  151.3990 C   0  0  0  0  0  3  0  0  0  0  0  0
  160.7200  200.8560  149.5420 Cl  0  0  0  0  0  0  0  0  0  0  0  0
  158.6020  211.9570  157.2600 O   0  0  0  0  0  1  0  0  0  0  0  0
  157.8920  211.6370  156.0980 C   0  0  1  0  0  3  0  0  0  0  0  0
  156.6330  212.5010  155.8680 C   0  0  1  0  0  3  0  0  0  0  0  0
  155.9480  212.0940  154.7060 O   0  0  0  0  0  0  0  0  0  0  0  0
  155.2770  211.8660  155.9230 C   0  0  1  0  0  3  0  0  0  0  0  0
  154.8610  209.6980  155.0550 F   0  0  0  0  0  0  0  0  0  0  0  0
  155.2320  210.3710  156.2030 C   0  0  0  0  0  2  0  0  0  0  0  0
  1  6  1  6  0  0  0
  1 14  1  0  0  0  0
  1  2  1  0  0  0  0
  2  9  2  0  0  0  0
  2  7  1  0  0  0  0
  3  4  1  0  0  0  0
  4 13  1  0  0  0  0
  5 15  1  0  0  0  0
  7  5  2  0  0  0  0
  8 10  1  0  0  0  0
  8 15  2  0  0  0  0
  9  8  1  0  0  0  0
 11 12  1  0  0  0  0
 11  3  2  0  0  0  0
 12 14  1  0  0  0  0
 14 16  2  0  0  0  0
 15 25  1  0  0  0  0
 16 13  1  0  0  0  0
 16  7  1  0  0  0  0
 17 22  1  0  0  0  0
 18 20  2  0  0  0  0
 19 18  1  0  0  0  0
 19 17  2  0  0  0  0
 20  3  1  0  0  0  0
 20 21  1  0  0  0  0
 22 21  2  0  0  0  0
 23 17  1  0  0  0  0
 25 24  1  1  0  0  0
 26 28  1  0  0  0  0
 26 25  1  1  0  0  0
 27 26  1  0  0  0  0
 27 28  1  0  0  0  0
 28 30  1  1  0  0  0
 29 30  1  0  0  0  0
M  END
>  <MODEL>
3

>  <REMARK>
 VINA RESULT:      -7.0      4.991      9.638
  Name = 
  4 active torsions:
  status: ('A' for Active; 'I' for Inactive)
    1  A    between atoms: C_2  and  C_30
    2  A    between atoms: C_7  and  C_13
    3  A    between atoms: C_24  and  C_30
    4  A    between atoms: C_26  and  C_29
                            x       y       z     vdW  Elec       q    Type
                         _______ _______ _______ _____ _____    ______ ____

>  <TORSDO>
F 4

$$$$
=
 OpenBabel11072411123D

 30 34  0  0  1  0  0  0  0  0999 V2000
  161.8890  210.5770  150.5640 C   0  0  2  0  0  3  0  0  0  0  0  0
  161.2870  210.4940  151.9260 C   0  0  0  0  0  0  0  0  0  0  0  0
  161.9230  206.2170  148.9380 C   0  0  0  0  0  0  0  0  0  0  0  0
  162.2650  206.1260  150.3910 C   0  0  0  0  0  2  0  0  0  0  0  0
  160.4830  208.8720  153.4590 N   0  0  0  0  0  0  0  0  0  0  0  0
  161.0300  211.2760  149.7150 O   0  0  0  0  0  1  0  0  0  0  0  0
  161.0030  209.2020  152.2540 C   0  0  0  0  0  0  0  0  0  0  0  0
  160.5160  211.2130  154.0230 C   0  0  0  0  0  0  0  0  0  0  0  0
  161.0520  211.5030  152.8000 N   0  0  0  0  0  0  0  0  0  0  0  0
  160.2590  212.3280  154.9800 C   0  0  0  0  0  1  0  0  0  0  0  0
  162.0160  207.3800  148.2780 C   0  0  0  0  0  3  0  0  0  0  0  0
  162.2650  208.6620  148.8750 N   0  0  0  0  0  2  0  0  0  0  0  0
  161.3580  206.9230  151.1950 N   0  0  0  0  0  2  0  0  0  0  0  0
  161.8990  209.1110  150.1880 C   0  0  0  0  0  0  0  0  0  0  0  0
  160.2200  209.8630  154.3630 C   0  0  0  0  0  0  0  0  0  0  0  0
  161.3950  208.3470  151.1650 C   0  0  0  0  0  0  0  0  0  0  0  0
  160.9980  202.6230  146.7710 C   0  0  0  0  0  0  0  0  0  0  0  0
  161.7410  204.9260  146.7970 C   0  0  0  0  0  3  0  0  0  0  0  0
  161.4430  203.7590  146.0890 C   0  0  0  0  0  3  0  0  0  0  0  0
  161.5980  204.9740  148.1940 C   0  0  0  0  0  0  0  0  0  0  0  0
  161.1510  203.8220  148.8670 C   0  0  0  0  0  3  0  0  0  0  0  0
  160.8520  202.6540  148.1590 C   0  0  0  0  0  3  0  0  0  0  0  0
  160.6240  201.1610  145.8850 Cl  0  0  0  0  0  0  0  0  0  0  0  0
  158.2660  209.4400  155.6940 O   0  0  0  0  0  1  0  0  0  0  0  0
  159.6640  209.5120  155.7120 C   0  0  1  0  0  3  0  0  0  0  0  0
  160.3520  208.2750  156.3300 C   0  0  1  0  0  3  0  0  0  0  0  0
  161.6160  208.0590  155.7470 O   0  0  0  0  0  0  0  0  0  0  0  0
  161.6250  208.4430  157.1020 C   0  0  1  0  0  3  0  0  0  0  0  0
  163.5520  209.8170  157.2580 F   0  0  0  0  0  0  0  0  0  0  0  0
  162.1720  209.8580  157.2230 C   0  0  0  0  0  2  0  0  0  0  0  0
  1  6  1  6  0  0  0
  1  2  1  0  0  0  0
  2  7  2  0  0  0  0
  2  9  1  0  0  0  0
  3  4  1  0  0  0  0
  4 13  1  0  0  0  0
  5 15  2  0  0  0  0
  7  5  1  0  0  0  0
  8 15  1  0  0  0  0
  8 10  1  0  0  0  0
  9  8  2  0  0  0  0
 11 12  1  0  0  0  0
 11  3  2  0  0  0  0
 12 14  1  0  0  0  0
 14  1  1  0  0  0  0
 14 16  2  0  0  0  0
 15 25  1  0  0  0  0
 16 13  1  0  0  0  0
 16  7  1  0  0  0  0
 17 22  1  0  0  0  0
 18 20  2  0  0  0  0
 19 17  2  0  0  0  0
 19 18  1  0  0  0  0
 20 21  1  0  0  0  0
 20  3  1  0  0  0  0
 22 21  2  0  0  0  0
 23 17  1  0  0  0  0
 25 24  1  6  0  0  0
 26 25  1  6  0  0  0
 26 28  1  0  0  0  0
 27 26  1  0  0  0  0
 27 28  1  0  0  0  0
 28 30  1  6  0  0  0
 30 29  1  0  0  0  0
M  END
>  <MODEL>
4

>  <REMARK>
 VINA RESULT:      -6.6      4.769      9.453
  Name = 
  4 active torsions:
  status: ('A' for Active; 'I' for Inactive)
    1  A    between atoms: C_2  and  C_30
    2  A    between atoms: C_7  and  C_13
    3  A    between atoms: C_24  and  C_30
    4  A    between atoms: C_26  and  C_29
                            x       y       z     vdW  Elec       q    Type
                         _______ _______ _______ _____ _____    ______ ____

>  <TORSDO>
F 4

$$$$
=
 OpenBabel11072411123D

 30 34  0  0  1  0  0  0  0  0999 V2000
  158.1420  213.9920  151.3320 C   0  0  2  0  0  3  0  0  0  0  0  0
  158.7090  212.9790  152.2670 C   0  0  0  0  0  0  0  0  0  0  0  0
  160.5820  213.5670  147.3920 C   0  0  0  0  0  0  0  0  0  0  0  0
  161.5580  213.3890  148.5110 C   0  0  0  0  0  2  0  0  0  0  0  0
  160.4550  211.3760  152.3670 N   0  0  0  0  0  0  0  0  0  0  0  0
  156.8360  213.6360  150.9920 O   0  0  0  0  0  1  0  0  0  0  0  0
  159.7550  212.3190  151.6950 C   0  0  0  0  0  0  0  0  0  0  0  0
  158.9990  211.7520  154.2480 C   0  0  0  0  0  0  0  0  0  0  0  0
  158.3250  212.7070  153.5390 N   0  0  0  0  0  0  0  0  0  0  0  0
  158.5710  211.4560  155.6460 C   0  0  0  0  0  1  0  0  0  0  0  0
  159.3840  214.1290  147.6040 C   0  0  0  0  0  3  0  0  0  0  0  0
  158.8270  214.4530  148.8860 N   0  0  0  0  0  2  0  0  0  0  0  0
  161.0450  212.4750  149.5150 N   0  0  0  0  0  2  0  0  0  0  0  0
  159.0540  213.7920  150.1400 C   0  0  0  0  0  0  0  0  0  0  0  0
  160.0900  211.0650  153.6470 C   0  0  0  0  0  0  0  0  0  0  0  0
  159.9660  212.8400  150.3690 C   0  0  0  0  0  0  0  0  0  0  0  0
  161.8190  212.5840  143.3960 C   0  0  0  0  0  0  0  0  0  0  0  0
  162.3210  213.4740  145.5900 C   0  0  0  0  0  3  0  0  0  0  0  0
  162.7280  213.1530  144.2920 C   0  0  0  0  0  3  0  0  0  0  0  0
  161.0030  213.2290  146.0090 C   0  0  0  0  0  0  0  0  0  0  0  0
  160.1000  212.6530  145.0970 C   0  0  0  0  0  3  0  0  0  0  0  0
  160.5060  212.3330  143.7980 C   0  0  0  0  0  3  0  0  0  0  0  0
  162.3280  212.1830  141.7700 Cl  0  0  0  0  0  0  0  0  0  0  0  0
  161.0640  208.8690  153.6680 O   0  0  0  0  0  1  0  0  0  0  0  0
  160.8700  210.0370  154.4150 C   0  0  1  0  0  3  0  0  0  0  0  0
  162.1630  210.6150  155.0300 C   0  0  1  0  0  3  0  0  0  0  0  0
  161.8770  211.3750  156.1810 O   0  0  0  0  0  0  0  0  0  0  0  0
  162.5930  210.1820  156.3980 C   0  0  1  0  0  3  0  0  0  0  0  0
  162.0410  207.8980  156.7230 F   0  0  0  0  0  0  0  0  0  0  0  0
  161.6980  209.1790  157.1110 C   0  0  0  0  0  2  0  0  0  0  0  0
  1  6  1  6  0  0  0
  1  2  1  0  0  0  0
  2  9  1  0  0  0  0
  3 11  2  0  0  0  0
  3  4  1  0  0  0  0
  4 13  1  0  0  0  0
  5 15  2  0  0  0  0
  7  2  2  0  0  0  0
  7  5  1  0  0  0  0
  8 10  1  0  0  0  0
  9  8  2  0  0  0  0
 11 12  1  0  0  0  0
 12 14  1  0  0  0  0
 13 16  1  0  0  0  0
 14 16  2  0  0  0  0
 14  1  1  0  0  0  0
 15  8  1  0  0  0  0
 15 25  1  0  0  0  0
 16  7  1  0  0  0  0
 17 22  2  0  0  0  0
 17 19  1  0  0  0  0
 18 20  1  0  0  0  0
 19 18  2  0  0  0  0
 20  3  1  0  0  0  0
 21 20  2  0  0  0  0
 22 21  1  0  0  0  0
 23 17  1  0  0  0  0
 25 24  1  6  0  0  0
 26 25  1  1  0  0  0
 26 27  1  0  0  0  0
 26 28  1  0  0  0  0
 27 28  1  0  0  0  0
 28 30  1  1  0  0  0
 29 30  1  0  0  0  0
M  END
>  <MODEL>
5

>  <REMARK>
 VINA RESULT:      -6.1      6.495      9.914
  Name = 
  4 active torsions:
  status: ('A' for Active; 'I' for Inactive)
    1  A    between atoms: C_2  and  C_30
    2  A    between atoms: C_7  and  C_13
    3  A    between atoms: C_24  and  C_30
    4  A    between atoms: C_26  and  C_29
                            x       y       z     vdW  Elec       q    Type
                         _______ _______ _______ _____ _____    ______ ____

>  <TORSDO>
F 4

$$$$
=
 OpenBabel11072411123D

 30 34  0  0  1  0  0  0  0  0999 V2000
  158.7660  214.0720  150.7820 C   0  0  2  0  0  3  0  0  0  0  0  0
  159.3970  213.0840  151.7030 C   0  0  0  0  0  0  0  0  0  0  0  0
  160.8300  213.4420  146.6600 C   0  0  0  0  0  0  0  0  0  0  0  0
  161.9000  213.2850  147.6930 C   0  0  0  0  0  2  0  0  0  0  0  0
  161.1150  211.4480  151.7100 N   0  0  0  0  0  0  0  0  0  0  0  0
  157.4280  213.7330  150.5760 O   0  0  0  0  0  1  0  0  0  0  0  0
  160.3740  212.3800  151.0670 C   0  0  0  0  0  0  0  0  0  0  0  0
  159.8420  211.9290  153.6980 C   0  0  0  0  0  0  0  0  0  0  0  0
  159.1250  212.8700  153.0140 N   0  0  0  0  0  0  0  0  0  0  0  0
  159.5380  211.6970  155.1390 C   0  0  0  0  0  1  0  0  0  0  0  0
  159.6670  214.0380  146.9550 C   0  0  0  0  0  3  0  0  0  0  0  0
  159.2350  214.4230  148.2680 N   0  0  0  0  0  2  0  0  0  0  0  0
  161.4640  212.4220  148.7740 N   0  0  0  0  0  2  0  0  0  0  0  0
  159.5620  213.8070  149.5220 C   0  0  0  0  0  0  0  0  0  0  0  0
  160.8620  211.1950  153.0300 C   0  0  0  0  0  0  0  0  0  0  0  0
  160.4730  212.8440  149.7070 C   0  0  0  0  0  0  0  0  0  0  0  0
  161.6810  212.2780  142.6110 C   0  0  0  0  0  0  0  0  0  0  0  0
  162.3890  213.2650  144.7050 C   0  0  0  0  0  3  0  0  0  0  0  0
  162.6700  212.8860  143.3890 C   0  0  0  0  0  3  0  0  0  0  0  0
  161.1170  213.0410  145.2590 C   0  0  0  0  0  0  0  0  0  0  0  0
  160.1330  212.4260  144.4640 C   0  0  0  0  0  3  0  0  0  0  0  0
  160.4140  212.0470  143.1480 C   0  0  0  0  0  3  0  0  0  0  0  0
  162.0330  211.8040  140.9630 Cl  0  0  0  0  0  0  0  0  0  0  0  0
  162.1920  210.6930  154.9670 O   0  0  0  0  0  1  0  0  0  0  0  0
  161.6890  210.1800  153.7650 C   0  0  1  0  0  3  0  0  0  0  0  0
  160.9660  208.8240  153.9110 C   0  0  1  0  0  3  0  0  0  0  0  0
  160.1040  208.5930  152.8210 O   0  0  0  0  0  0  0  0  0  0  0  0
  161.2180  207.7370  152.9100 C   0  0  1  0  0  3  0  0  0  0  0  0
  162.8450  206.9000  151.4010 F   0  0  0  0  0  0  0  0  0  0  0  0
  162.1910  208.0540  151.7850 C   0  0  0  0  0  2  0  0  0  0  0  0
  1  6  1  6  0  0  0
  1  2  1  0  0  0  0
  2  9  1  0  0  0  0
  3 11  2  0  0  0  0
  3  4  1  0  0  0  0
  4 13  1  0  0  0  0
  5 15  2  0  0  0  0
  7  2  2  0  0  0  0
  7  5  1  0  0  0  0
  8 10  1  0  0  0  0
  9  8  2  0  0  0  0
 11 12  1  0  0  0  0
 12 14  1  0  0  0  0
 13 16  1  0  0  0  0
 14 16  2  0  0  0  0
 14  1  1  0  0  0  0
 15  8  1  0  0  0  0
 15 25  1  0  0  0  0
 16  7  1  0  0  0  0
 17 22  2  0  0  0  0
 17 19  1  0  0  0  0
 18 20  1  0  0  0  0
 19 18  2  0  0  0  0
 20  3  1  0  0  0  0
 21 20  2  0  0  0  0
 22 21  1  0  0  0  0
 23 17  1  0  0  0  0
 25 24  1  1  0  0  0
 26 25  1  6  0  0  0
 27 28  1  0  0  0  0
 27 26  1  0  0  0  0
 28 30  1  6  0  0  0
 28 26  1  0  0  0  0
 29 30  1  0  0  0  0
M  END
>  <MODEL>
6

>  <REMARK>
 VINA RESULT:      -5.5      6.070      9.451
  Name = 
  4 active torsions:
  status: ('A' for Active; 'I' for Inactive)
    1  A    between atoms: C_2  and  C_30
    2  A    between atoms: C_7  and  C_13
    3  A    between atoms: C_24  and  C_30
    4  A    between atoms: C_26  and  C_29
                            x       y       z     vdW  Elec       q    Type
                         _______ _______ _______ _____ _____    ______ ____

>  <TORSDO>
F 4

$$$$
=
 OpenBabel11072411123D

 30 34  0  0  1  0  0  0  0  0999 V2000
  158.3680  213.9020  153.0690 C   0  0  2  0  0  3  0  0  0  0  0  0
  159.1370  212.8590  153.8050 C   0  0  0  0  0  0  0  0  0  0  0  0
  159.6710  213.5210  148.6180 C   0  0  0  0  0  0  0  0  0  0  0  0
  160.9030  213.3010  149.4370 C   0  0  0  0  0  2  0  0  0  0  0  0
  160.8100  211.2230  153.4130 N   0  0  0  0  0  0  0  0  0  0  0  0
  157.0100  213.5780  153.0810 O   0  0  0  0  0  1  0  0  0  0  0  0
  159.9800  212.1930  152.9660 C   0  0  0  0  0  0  0  0  0  0  0  0
  159.9110  211.5840  155.6180 C   0  0  0  0  0  0  0  0  0  0  0  0
  159.0970  212.5650  155.1280 N   0  0  0  0  0  0  0  0  0  0  0  0
  159.8610  211.2640  157.0740 C   0  0  0  0  0  1  0  0  0  0  0  0
  158.5850  214.1000  149.1480 C   0  0  0  0  0  3  0  0  0  0  0  0
  158.3940  214.4060  150.5380 N   0  0  0  0  0  2  0  0  0  0  0  0
  160.6520  212.3740  150.5250 N   0  0  0  0  0  2  0  0  0  0  0  0
  158.9280  213.7130  151.6750 C   0  0  0  0  0  0  0  0  0  0  0  0
  160.7890  210.8900  154.7390 C   0  0  0  0  0  0  0  0  0  0  0  0
  159.8450  212.7390  151.6400 C   0  0  0  0  0  0  0  0  0  0  0  0
  159.7460  212.6190  144.4170 C   0  0  0  0  0  0  0  0  0  0  0  0
  158.5200  212.8710  146.4890 C   0  0  0  0  0  3  0  0  0  0  0  0
  158.5400  212.5780  145.1230 C   0  0  0  0  0  3  0  0  0  0  0  0
  159.7040  213.2060  147.1680 C   0  0  0  0  0  0  0  0  0  0  0  0
  160.9100  213.2450  146.4440 C   0  0  0  0  0  3  0  0  0  0  0  0
  160.9300  212.9530  145.0770 C   0  0  0  0  0  3  0  0  0  0  0  0
  159.7710  212.2530  142.7060 Cl  0  0  0  0  0  0  0  0  0  0  0  0
  162.7070  210.3700  156.0890 O   0  0  0  0  0  1  0  0  0  0  0  0
  161.7200  209.8310  155.2560 C   0  0  1  0  0  3  0  0  0  0  0  0
  160.9650  208.6300  155.8660 C   0  0  1  0  0  3  0  0  0  0  0  0
  159.8030  208.3360  155.1250 O   0  0  0  0  0  0  0  0  0  0  0  0
  160.8220  207.3640  155.0760 C   0  0  1  0  0  3  0  0  0  0  0  0
  160.4580  207.5700  152.7420 F   0  0  0  0  0  0  0  0  0  0  0  0
  161.4410  207.3510  153.6870 C   0  0  0  0  0  2  0  0  0  0  0  0
  1  6  1  6  0  0  0
  1  2  1  0  0  0  0
  2  9  1  0  0  0  0
  3 11  2  0  0  0  0
  3  4  1  0  0  0  0
  4 13  1  0  0  0  0
  5 15  2  0  0  0  0
  7  5  1  0  0  0  0
  7  2  2  0  0  0  0
  8 10  1  0  0  0  0
  9  8  2  0  0  0  0
 11 12  1  0  0  0  0
 12 14  1  0  0  0  0
 13 16  1  0  0  0  0
 14  1  1  0  0  0  0
 15 25  1  0  0  0  0
 15  8  1  0  0  0  0
 16 14  2  0  0  0  0
 16  7  1  0  0  0  0
 17 22  2  0  0  0  0
 17 19  1  0  0  0  0
 18 20  1  0  0  0  0
 19 18  2  0  0  0  0
 20  3  1  0  0  0  0
 21 20  2  0  0  0  0
 22 21  1  0  0  0  0
 23 17  1  0  0  0  0
 25 24  1  1  0  0  0
 26 25  1  6  0  0  0
 27 26  1  0  0  0  0
 28 30  1  6  0  0  0
 28 27  1  0  0  0  0
 28 26  1  0  0  0  0
 29 30  1  0  0  0  0
M  END
>  <MODEL>
7

>  <REMARK>
 VINA RESULT:      -5.4      5.769      9.247
  Name = 
  4 active torsions:
  status: ('A' for Active; 'I' for Inactive)
    1  A    between atoms: C_2  and  C_30
    2  A    between atoms: C_7  and  C_13
    3  A    between atoms: C_24  and  C_30
    4  A    between atoms: C_26  and  C_29
                            x       y       z     vdW  Elec       q    Type
                         _______ _______ _______ _____ _____    ______ ____

>  <TORSDO>
F 4

$$$$
=
 OpenBabel11072411123D

 30 34  0  0  1  0  0  0  0  0999 V2000
  160.8810  201.6800  149.9450 C   0  0  2  0  0  3  0  0  0  0  0  0
  160.7470  202.0880  148.5170 C   0  0  0  0  0  0  0  0  0  0  0  0
  161.3170  205.6430  152.3460 C   0  0  0  0  0  0  0  0  0  0  0  0
  162.0910  205.8320  151.0800 C   0  0  0  0  0  2  0  0  0  0  0  0
  160.7910  204.0440  147.1750 N   0  0  0  0  0  0  0  0  0  0  0  0
  159.6820  201.1170  150.3850 O   0  0  0  0  0  1  0  0  0  0  0  0
  160.8460  203.4410  148.3850 C   0  0  0  0  0  0  0  0  0  0  0  0
  160.5120  201.8640  146.1920 C   0  0  0  0  0  0  0  0  0  0  0  0
  160.5840  201.2930  147.4310 N   0  0  0  0  0  0  0  0  0  0  0  0
  160.3320  200.9830  145.0010 C   0  0  0  0  0  1  0  0  0  0  0  0
  160.9670  204.4190  152.7650 C   0  0  0  0  0  3  0  0  0  0  0  0
  161.1150  203.2040  152.0150 N   0  0  0  0  0  2  0  0  0  0  0  0
  161.3250  205.4000  149.9260 N   0  0  0  0  0  2  0  0  0  0  0  0
  161.0770  203.0360  150.5910 C   0  0  0  0  0  0  0  0  0  0  0  0
  160.6150  203.2760  146.0580 C   0  0  0  0  0  0  0  0  0  0  0  0
  161.0580  204.0220  149.6860 C   0  0  0  0  0  0  0  0  0  0  0  0
  160.5180  209.0630  154.8230 C   0  0  0  0  0  0  0  0  0  0  0  0
  160.9250  208.1010  152.6390 C   0  0  0  0  0  3  0  0  0  0  0  0
  160.6630  209.2150  153.4410 C   0  0  0  0  0  3  0  0  0  0  0  0
  161.0450  206.8210  153.2070 C   0  0  0  0  0  0  0  0  0  0  0  0
  160.8940  206.6830  154.5990 C   0  0  0  0  0  3  0  0  0  0  0  0
  160.6330  207.7970  155.4010 C   0  0  0  0  0  3  0  0  0  0  0  0
  160.1910  210.4580  155.8270 Cl  0  0  0  0  0  0  0  0  0  0  0  0
  159.2830  203.9250  144.1670 O   0  0  0  0  0  1  0  0  0  0  0  0
  160.5750  203.9280  144.7060 C   0  0  1  0  0  3  0  0  0  0  0  0
  161.2600  205.3120  144.6980 C   0  0  1  0  0  3  0  0  0  0  0  0
  161.5090  205.7580  146.0100 O   0  0  0  0  0  0  0  0  0  0  0  0
  162.6490  205.4560  145.2400 C   0  0  1  0  0  3  0  0  0  0  0  0
  164.6530  204.4260  145.9820 F   0  0  0  0  0  0  0  0  0  0  0  0
  163.3060  204.1950  145.7840 C   0  0  0  0  0  2  0  0  0  0  0  0
  1  6  1  1  0  0  0
  1 14  1  0  0  0  0
  2  1  1  0  0  0  0
  3 11  2  0  0  0  0
  3 20  1  0  0  0  0
  4  3  1  0  0  0  0
  5  7  2  0  0  0  0
  7  2  1  0  0  0  0
  7 16  1  0  0  0  0
  8  9  1  0  0  0  0
  9  2  2  0  0  0  0
 10  8  1  0  0  0  0
 12 11  1  0  0  0  0
 13  4  1  0  0  0  0
 14 12  1  0  0  0  0
 15  8  2  0  0  0  0
 15  5  1  0  0  0  0
 16 13  1  0  0  0  0
 16 14  2  0  0  0  0
 17 22  1  0  0  0  0
 17 23  1  0  0  0  0
 18 20  2  0  0  0  0
 18 19  1  0  0  0  0
 19 17  2  0  0  0  0
 20 21  1  0  0  0  0
 21 22  2  0  0  0  0
 25 24  1  1  0  0  0
 25 15  1  0  0  0  0
 26 25  1  1  0  0  0
 26 28  1  0  0  0  0
 26 27  1  0  0  0  0
 28 30  1  1  0  0  0
 28 27  1  0  0  0  0
 30 29  1  0  0  0  0
M  END
>  <MODEL>
8

>  <REMARK>
 VINA RESULT:      -5.3      2.367      3.726
  Name = 
  4 active torsions:
  status: ('A' for Active; 'I' for Inactive)
    1  A    between atoms: C_2  and  C_30
    2  A    between atoms: C_7  and  C_13
    3  A    between atoms: C_24  and  C_30
    4  A    between atoms: C_26  and  C_29
                            x       y       z     vdW  Elec       q    Type
                         _______ _______ _______ _____ _____    ______ ____

>  <TORSDO>
F 4

$$$$
=
 OpenBabel11072411123D

 30 34  0  0  1  0  0  0  0  0999 V2000
  161.5730  205.6890  153.2290 C   0  0  2  0  0  3  0  0  0  0  0  0
  161.2420  207.0860  153.6330 C   0  0  0  0  0  0  0  0  0  0  0  0
  160.9830  205.5430  148.6150 C   0  0  0  0  0  0  0  0  0  0  0  0
  159.8820  206.4020  149.1520 C   0  0  0  0  0  2  0  0  0  0  0  0
  160.4510  209.1110  152.6840 N   0  0  0  0  0  0  0  0  0  0  0  0
  162.9330  205.4530  153.4300 O   0  0  0  0  0  1  0  0  0  0  0  0
  160.8390  207.8210  152.5580 C   0  0  0  0  0  0  0  0  0  0  0  0
  160.9010  208.9310  155.0430 C   0  0  0  0  0  0  0  0  0  0  0  0
  161.2730  207.6280  154.8750 N   0  0  0  0  0  0  0  0  0  0  0  0
  160.9390  209.5220  156.4120 C   0  0  0  0  0  1  0  0  0  0  0  0
  161.6710  204.7210  149.4190 C   0  0  0  0  0  3  0  0  0  0  0  0
  161.5830  204.6840  150.8510 N   0  0  0  0  0  2  0  0  0  0  0  0
  160.3910  207.3760  150.1000 N   0  0  0  0  0  2  0  0  0  0  0  0
  161.2800  205.7650  151.7450 C   0  0  0  0  0  0  0  0  0  0  0  0
  160.4810  209.6970  153.9190 C   0  0  0  0  0  0  0  0  0  0  0  0
  160.8610  206.9840  151.3860 C   0  0  0  0  0  0  0  0  0  0  0  0
  161.6750  205.4760  144.3740 C   0  0  0  0  0  0  0  0  0  0  0  0
  160.3670  206.2030  146.2770 C   0  0  0  0  0  3  0  0  0  0  0  0
  160.5900  206.1850  144.8980 C   0  0  0  0  0  3  0  0  0  0  0  0
  161.2240  205.5130  147.1510 C   0  0  0  0  0  0  0  0  0  0  0  0
  162.3130  204.8050  146.6090 C   0  0  0  0  0  3  0  0  0  0  0  0
  162.5360  204.7870  145.2300 C   0  0  0  0  0  3  0  0  0  0  0  0
  161.9540  205.4530  142.6470 Cl  0  0  0  0  0  0  0  0  0  0  0  0
  160.6340  211.9620  153.1360 O   0  0  0  0  0  1  0  0  0  0  0  0
  160.0330  211.1200  154.0790 C   0  0  1  0  0  3  0  0  0  0  0  0
  158.4950  211.2500  154.1520 C   0  0  1  0  0  3  0  0  0  0  0  0
  158.0070  210.7650  155.3810 O   0  0  0  0  0  0  0  0  0  0  0  0
  157.8740  212.1510  155.1750 C   0  0  1  0  0  3  0  0  0  0  0  0
  159.0080  212.1610  157.2580 F   0  0  0  0  0  0  0  0  0  0  0  0
  158.8260  212.8940  156.1010 C   0  0  0  0  0  2  0  0  0  0  0  0
  1  6  1  6  0  0  0
  1  2  1  0  0  0  0
  2  9  1  0  0  0  0
  3  4  1  0  0  0  0
  3 11  2  0  0  0  0
  4 13  1  0  0  0  0
  5 15  2  0  0  0  0
  7  5  1  0  0  0  0
  7  2  2  0  0  0  0
  8 10  1  0  0  0  0
  9  8  2  0  0  0  0
 11 12  1  0  0  0  0
 12 14  1  0  0  0  0
 13 16  1  0  0  0  0
 14  1  1  0  0  0  0
 15 25  1  0  0  0  0
 15  8  1  0  0  0  0
 16 14  2  0  0  0  0
 16  7  1  0  0  0  0
 17 19  2  0  0  0  0
 17 22  1  0  0  0  0
 18 20  2  0  0  0  0
 19 18  1  0  0  0  0
 20  3  1  0  0  0  0
 21 20  1  0  0  0  0
 22 21  2  0  0  0  0
 23 17  1  0  0  0  0
 25 24  1  6  0  0  0
 26 25  1  1  0  0  0
 26 28  1  0  0  0  0
 26 27  1  0  0  0  0
 28 27  1  0  0  0  0
 28 30  1  1  0  0  0
 30 29  1  0  0  0  0
M  END
>  <MODEL>
9

>  <REMARK>
 VINA RESULT:      -5.3      4.713      9.190
  Name = 
  4 active torsions:
  status: ('A' for Active; 'I' for Inactive)
    1  A    between atoms: C_2  and  C_30
    2  A    between atoms: C_7  and  C_13
    3  A    between atoms: C_24  and  C_30
    4  A    between atoms: C_26  and  C_29
                            x       y       z     vdW  Elec       q    Type
                         _______ _______ _______ _____ _____    ______ ____

>  <TORSDO>
F 4

$$$$
