=
 OpenBabel11072414003D

 29 30  0  0  1  0  0  0  0  0999 V2000
  160.4020  204.3150  149.6830 C   0  0  0  0  0  2  0  0  0  0  0  0
  162.1420  205.5140  147.8790 O   0  0  0  0  0  1  0  0  0  0  0  0
  160.5020  202.2070  146.4950 S   0  0  0  0  0  0  0  0  0  0  0  0
  161.9510  204.1530  147.6230 C   0  0  1  0  0  3  0  0  0  0  0  0
  161.3130  203.4370  148.8150 C   0  0  2  0  0  3  0  0  0  0  0  0
  160.5720  202.2010  148.3170 C   0  0  2  0  0  3  0  0  0  0  0  0
  161.0500  203.9420  146.4190 C   0  0  1  0  0  3  0  0  0  0  0  0
  161.3530  200.7520  150.0350 O   0  0  0  0  0  1  0  0  0  0  0  0
  161.2370  200.9570  148.8000 C   0  0  0  0  0  0  0  0  0  0  0  0
  161.7130  200.0120  147.8960 O   0  0  0  0  0  0  0  0  0  0  0  0
  161.7700  204.2190  145.0950 C   0  0  2  0  0  3  0  0  0  0  0  0
  163.1310  204.4450  145.3130 O   0  0  0  0  0  1  0  0  0  0  0  0
  160.2390  206.2000  145.0560 O   0  0  0  0  0  1  0  0  0  0  0  0
  161.5750  205.7250  143.2580 O   0  0  0  0  0  0  0  0  0  0  0  0
  161.1860  205.4130  144.4120 C   0  0  0  0  0  0  0  0  0  0  0  0
  160.6580  204.0690  151.4760 S   0  0  0  0  0  0  0  0  0  0  0  0
  161.8060  205.4770  151.5980 C   0  0  0  0  0  2  0  0  0  0  0  0
  161.0790  206.8070  151.4490 C   0  0  0  0  0  2  0  0  0  0  0  0
  160.9750  206.7900  154.2250 S   0  0  0  0  0  0  0  0  0  0  0  0
  161.1880  210.8250  154.3450 N   0  0  0  0  0  0  0  0  0  0  0  0
  161.1310  209.5470  154.1310 C   0  0  0  0  0  0  0  0  0  0  0  0
  161.1720  208.9970  152.8310 C   0  0  0  0  0  0  0  0  0  0  0  0
  161.0980  207.5810  152.7280 C   0  0  0  0  0  0  0  0  0  0  0  0
  161.0030  208.4020  155.3820 S   0  0  0  0  0  0  0  0  0  0  0  0
  161.3000  209.8630  151.6950 N   0  0  0  0  0  2  0  0  0  0  0  0
  162.4490  209.9900  150.9910 O   0  0  0  0  0  1  0  0  0  0  0  0
  161.1550  211.3430  155.6210 O   0  0  0  0  0  0  0  0  0  0  0  0
  160.1090  212.2170  156.0100 C   0  0  0  0  0  2  0  0  0  0  0  0
  159.6840  212.9620  154.9070 O   0  0  0  0  0  1  0  0  0  0  0  0
  1 16  1  0  0  0  0
  3  6  1  0  0  0  0
  4  2  1  1  0  0  0
  4  5  1  0  0  0  0
  5  1  1  6  0  0  0
  6  9  1  6  0  0  0
  6  5  1  0  0  0  0
  7 11  1  6  0  0  0
  7  3  1  0  0  0  0
  7  4  1  0  0  0  0
  9  8  1  0  0  0  0
 10  9  2  0  0  0  0
 11 12  1  1  0  0  0
 14 15  2  0  0  0  0
 15 13  1  0  0  0  0
 15 11  1  0  0  0  0
 16 17  1  0  0  0  0
 18 17  1  0  0  0  0
 18 23  1  0  0  0  0
 19 24  1  0  0  0  0
 20 27  1  0  0  0  0
 21 20  2  0  0  0  0
 21 24  1  0  0  0  0
 22 21  1  0  0  0  0
 23 22  2  0  0  0  0
 23 19  1  0  0  0  0
 25 22  1  0  0  0  0
 26 25  1  0  0  0  0
 27 28  1  0  0  0  0
 29 28  1  0  0  0  0
M  END
>  <MODEL>
1

>  <REMARK>
 VINA RESULT:      -6.5      0.000      0.000
  Name = 
  11 active torsions:
  status: ('A' for Active; 'I' for Inactive)
    1  A    between atoms: N_1  and  C_24
    2  A    between atoms: C_3  and  O_5
    3  A    between atoms: O_5  and  N_13
    4  A    between atoms: C_6  and  S_7
    5  A    between atoms: C_6  and  C_12
    6  A    between atoms: S_7  and  C_22
    7  A    between atoms: C_16  and  C_17
    8  A    between atoms: C_16  and  C_28
    9  A    between atoms: C_20  and  C_25
   10  A    between atoms: C_22  and  C_23
   11  A    between atoms: C_23  and  C_26
                            x       y       z     vdW  Elec       q    Type
                         _______ _______ _______ _____ _____    ______ ____

>  <TORSDO>
F 11

$$$$
=
 OpenBabel11072414003D

 29 30  0  0  1  0  0  0  0  0999 V2000
  160.5130  204.2930  149.6480 C   0  0  0  0  0  2  0  0  0  0  0  0
  162.2410  205.4760  147.8210 O   0  0  0  0  0  1  0  0  0  0  0  0
  160.4840  202.2340  146.4270 S   0  0  0  0  0  0  0  0  0  0  0  0
  162.0090  204.1240  147.5490 C   0  0  1  0  0  3  0  0  0  0  0  0
  161.3810  203.4060  148.7450 C   0  0  2  0  0  3  0  0  0  0  0  0
  160.5970  202.1970  148.2460 C   0  0  2  0  0  3  0  0  0  0  0  0
  161.0750  203.9550  146.3640 C   0  0  1  0  0  3  0  0  0  0  0  0
  161.6520  200.1040  147.8400 O   0  0  0  0  0  0  0  0  0  0  0  0
  161.2410  200.9300  148.6940 C   0  0  0  0  0  0  0  0  0  0  0  0
  161.4090  200.6630  150.0500 O   0  0  0  0  0  1  0  0  0  0  0  0
  161.7700  204.2350  145.0280 C   0  0  2  0  0  3  0  0  0  0  0  0
  163.1420  204.4260  145.2170 O   0  0  0  0  0  1  0  0  0  0  0  0
  161.5370  205.7720  143.0650 O   0  0  0  0  0  0  0  0  0  0  0  0
  160.3870  206.1750  145.0040 O   0  0  0  0  0  1  0  0  0  0  0  0
  161.2000  205.4520  144.3750 C   0  0  0  0  0  0  0  0  0  0  0  0
  160.6600  203.8800  151.4220 S   0  0  0  0  0  0  0  0  0  0  0  0
  161.6200  205.3830  151.7880 C   0  0  0  0  0  2  0  0  0  0  0  0
  161.3270  205.9070  153.1890 C   0  0  0  0  0  2  0  0  0  0  0  0
  161.2010  208.2710  151.7340 S   0  0  0  0  0  0  0  0  0  0  0  0
  160.7290  210.4300  155.1170 N   0  0  0  0  0  0  0  0  0  0  0  0
  160.8820  209.5960  154.1370 C   0  0  0  0  0  0  0  0  0  0  0  0
  160.9830  208.2020  154.3410 C   0  0  0  0  0  0  0  0  0  0  0  0
  161.1540  207.3920  153.1860 C   0  0  0  0  0  0  0  0  0  0  0  0
  160.9780  210.0830  152.5100 S   0  0  0  0  0  0  0  0  0  0  0  0
  160.8960  207.6690  155.6700 N   0  0  0  0  0  2  0  0  0  0  0  0
  159.7400  207.2130  156.2060 O   0  0  0  0  0  1  0  0  0  0  0  0
  160.6230  211.7870  154.8990 O   0  0  0  0  0  0  0  0  0  0  0  0
  159.3990  212.4560  155.1440 C   0  0  0  0  0  2  0  0  0  0  0  0
  158.8270  212.8510  153.9320 O   0  0  0  0  0  1  0  0  0  0  0  0
  1 16  1  0  0  0  0
  3  6  1  0  0  0  0
  4  2  1  1  0  0  0
  4  5  1  0  0  0  0
  5  1  1  6  0  0  0
  6  9  1  6  0  0  0
  6  5  1  0  0  0  0
  7 11  1  6  0  0  0
  7  3  1  0  0  0  0
  7  4  1  0  0  0  0
  8  9  2  0  0  0  0
  9 10  1  0  0  0  0
 11 12  1  1  0  0  0
 13 15  2  0  0  0  0
 15 14  1  0  0  0  0
 15 11  1  0  0  0  0
 16 17  1  0  0  0  0
 17 18  1  0  0  0  0
 19 24  1  0  0  0  0
 19 23  1  0  0  0  0
 21 22  1  0  0  0  0
 21 20  2  0  0  0  0
 22 25  1  0  0  0  0
 23 18  1  0  0  0  0
 23 22  2  0  0  0  0
 24 21  1  0  0  0  0
 25 26  1  0  0  0  0
 27 20  1  0  0  0  0
 27 28  1  0  0  0  0
 29 28  1  0  0  0  0
M  END
>  <MODEL>
2

>  <REMARK>
 VINA RESULT:      -6.4      1.484      1.999
  Name = 
  11 active torsions:
  status: ('A' for Active; 'I' for Inactive)
    1  A    between atoms: N_1  and  C_24
    2  A    between atoms: C_3  and  O_5
    3  A    between atoms: O_5  and  N_13
    4  A    between atoms: C_6  and  S_7
    5  A    between atoms: C_6  and  C_12
    6  A    between atoms: S_7  and  C_22
    7  A    between atoms: C_16  and  C_17
    8  A    between atoms: C_16  and  C_28
    9  A    between atoms: C_20  and  C_25
   10  A    between atoms: C_22  and  C_23
   11  A    between atoms: C_23  and  C_26
                            x       y       z     vdW  Elec       q    Type
                         _______ _______ _______ _____ _____    ______ ____

>  <TORSDO>
F 11

$$$$
=
 OpenBabel11072414003D

 29 30  0  0  1  0  0  0  0  0999 V2000
  162.2390  210.0510  152.7880 C   0  0  0  0  0  2  0  0  0  0  0  0
  160.2320  211.9710  152.7290 O   0  0  0  0  0  1  0  0  0  0  0  0
  160.6750  210.2900  156.2680 S   0  0  0  0  0  0  0  0  0  0  0  0
  160.0750  211.0570  153.7760 C   0  0  1  0  0  3  0  0  0  0  0  0
  160.9430  209.8130  153.5740 C   0  0  2  0  0  3  0  0  0  0  0  0
  161.2340  209.1820  154.9320 C   0  0  2  0  0  3  0  0  0  0  0  0
  160.4550  211.6770  155.1080 C   0  0  1  0  0  3  0  0  0  0  0  0
  160.8970  206.9180  154.2850 O   0  0  0  0  0  0  0  0  0  0  0  0
  160.5630  207.8570  155.0520 C   0  0  0  0  0  0  0  0  0  0  0  0
  159.5840  207.6440  156.0180 O   0  0  0  0  0  1  0  0  0  0  0  0
  159.3880  212.6460  155.6270 C   0  0  2  0  0  3  0  0  0  0  0  0
  159.4440  212.7400  157.0200 O   0  0  0  0  0  1  0  0  0  0  0  0
  157.4340  211.0960  155.8490 O   0  0  0  0  0  1  0  0  0  0  0  0
  157.3840  212.8260  154.3500 O   0  0  0  0  0  0  0  0  0  0  0  0
  158.0200  212.1940  155.2300 C   0  0  0  0  0  0  0  0  0  0  0  0
  162.0750  209.6910  151.0030 S   0  0  0  0  0  0  0  0  0  0  0  0
  162.2620  207.8970  151.2540 C   0  0  0  0  0  2  0  0  0  0  0  0
  161.0010  207.1420  150.8540 C   0  0  0  0  0  2  0  0  0  0  0  0
  161.5450  207.1920  148.1300 S   0  0  0  0  0  0  0  0  0  0  0  0
  161.2080  203.1710  147.8990 N   0  0  0  0  0  0  0  0  0  0  0  0
  161.2840  204.4420  148.1460 C   0  0  0  0  0  0  0  0  0  0  0  0
  161.1010  204.9710  149.4420 C   0  0  0  0  0  0  0  0  0  0  0  0
  161.2050  206.3820  149.5830 C   0  0  0  0  0  0  0  0  0  0  0  0
  161.6110  205.6020  146.9460 S   0  0  0  0  0  0  0  0  0  0  0  0
  160.8400  204.0880  150.5410 N   0  0  0  0  0  2  0  0  0  0  0  0
  161.7580  203.8070  151.4950 O   0  0  0  0  0  1  0  0  0  0  0  0
  161.3980  202.6710  146.6290 O   0  0  0  0  0  0  0  0  0  0  0  0
  160.7210  201.4970  146.2160 C   0  0  0  0  0  2  0  0  0  0  0  0
  160.0960  201.7220  144.9870 O   0  0  0  0  0  1  0  0  0  0  0  0
  4  2  1  6  0  0  0
  4  7  1  0  0  0  0
  5  1  1  1  0  0  0
  5  4  1  0  0  0  0
  5  6  1  0  0  0  0
  6  9  1  6  0  0  0
  6  3  1  0  0  0  0
  7 11  1  1  0  0  0
  7  3  1  0  0  0  0
  8  9  2  0  0  0  0
  9 10  1  0  0  0  0
 11 12  1  1  0  0  0
 14 15  2  0  0  0  0
 15 11  1  0  0  0  0
 15 13  1  0  0  0  0
 16 17  1  0  0  0  0
 16  1  1  0  0  0  0
 18 17  1  0  0  0  0
 19 23  1  0  0  0  0
 20 21  2  0  0  0  0
 21 22  1  0  0  0  0
 22 23  2  0  0  0  0
 22 25  1  0  0  0  0
 23 18  1  0  0  0  0
 24 19  1  0  0  0  0
 24 21  1  0  0  0  0
 25 26  1  0  0  0  0
 27 20  1  0  0  0  0
 28 27  1  0  0  0  0
 29 28  1  0  0  0  0
M  END
>  <MODEL>
3

>  <REMARK>
 VINA RESULT:      -6.1      3.233      9.953
  Name = 
  11 active torsions:
  status: ('A' for Active; 'I' for Inactive)
    1  A    between atoms: N_1  and  C_24
    2  A    between atoms: C_3  and  O_5
    3  A    between atoms: O_5  and  N_13
    4  A    between atoms: C_6  and  S_7
    5  A    between atoms: C_6  and  C_12
    6  A    between atoms: S_7  and  C_22
    7  A    between atoms: C_16  and  C_17
    8  A    between atoms: C_16  and  C_28
    9  A    between atoms: C_20  and  C_25
   10  A    between atoms: C_22  and  C_23
   11  A    between atoms: C_23  and  C_26
                            x       y       z     vdW  Elec       q    Type
                         _______ _______ _______ _____ _____    ______ ____

>  <TORSDO>
F 11

$$$$
=
 OpenBabel11072414003D

 29 30  0  0  1  0  0  0  0  0999 V2000
  162.0630  209.9570  152.7810 C   0  0  0  0  0  2  0  0  0  0  0  0
  159.8060  211.5690  152.6160 O   0  0  0  0  0  1  0  0  0  0  0  0
  160.2720  209.9010  156.1580 S   0  0  0  0  0  0  0  0  0  0  0  0
  159.7200  210.6210  153.6410 C   0  0  1  0  0  3  0  0  0  0  0  0
  160.7700  209.5200  153.4820 C   0  0  2  0  0  3  0  0  0  0  0  0
  161.0650  208.9110  154.8490 C   0  0  2  0  0  3  0  0  0  0  0  0
  159.9240  211.2640  155.0010 C   0  0  1  0  0  3  0  0  0  0  0  0
  159.7580  207.1630  155.7950 O   0  0  0  0  0  1  0  0  0  0  0  0
  160.5870  207.5000  154.9120 C   0  0  0  0  0  0  0  0  0  0  0  0
  161.0340  206.5600  153.9880 O   0  0  0  0  0  0  0  0  0  0  0  0
  158.6980  212.0590  155.4620 C   0  0  2  0  0  3  0  0  0  0  0  0
  157.5900  211.7610  154.6640 O   0  0  0  0  0  1  0  0  0  0  0  0
  159.3190  214.2340  156.5360 O   0  0  0  0  0  1  0  0  0  0  0  0
  158.8830  214.1260  154.2900 O   0  0  0  0  0  0  0  0  0  0  0  0
  158.9600  213.5290  155.3930 C   0  0  0  0  0  0  0  0  0  0  0  0
  161.9990  209.7620  150.9640 S   0  0  0  0  0  0  0  0  0  0  0  0
  162.3140  207.9710  151.0530 C   0  0  0  0  0  2  0  0  0  0  0  0
  161.1170  207.1670  150.5590 C   0  0  0  0  0  2  0  0  0  0  0  0
  162.1000  207.2970  147.9630 S   0  0  0  0  0  0  0  0  0  0  0  0
  161.3150  203.3760  147.3770 N   0  0  0  0  0  0  0  0  0  0  0  0
  161.5050  204.6100  147.7280 C   0  0  0  0  0  0  0  0  0  0  0  0
  161.1790  205.0850  149.0170 C   0  0  0  0  0  0  0  0  0  0  0  0
  161.4310  206.4590  149.2800 C   0  0  0  0  0  0  0  0  0  0  0  0
  162.1630  205.7810  146.6860 S   0  0  0  0  0  0  0  0  0  0  0  0
  160.6360  204.1840  149.9930 N   0  0  0  0  0  2  0  0  0  0  0  0
  161.3940  203.5680  150.9290 O   0  0  0  0  0  1  0  0  0  0  0  0
  161.6470  202.9280  146.1170 O   0  0  0  0  0  0  0  0  0  0  0  0
  160.6310  202.5720  145.1950 C   0  0  0  0  0  2  0  0  0  0  0  0
  160.1240  201.3110  145.5170 O   0  0  0  0  0  1  0  0  0  0  0  0
  4  2  1  6  0  0  0
  4  7  1  0  0  0  0
  5  1  1  1  0  0  0
  5  4  1  0  0  0  0
  5  6  1  0  0  0  0
  6  9  1  6  0  0  0
  6  3  1  0  0  0  0
  7 11  1  1  0  0  0
  7  3  1  0  0  0  0
  9  8  1  0  0  0  0
 10  9  2  0  0  0  0
 11 12  1  6  0  0  0
 14 15  2  0  0  0  0
 15 11  1  0  0  0  0
 15 13  1  0  0  0  0
 16 17  1  0  0  0  0
 16  1  1  0  0  0  0
 18 17  1  0  0  0  0
 19 23  1  0  0  0  0
 20 21  2  0  0  0  0
 21 22  1  0  0  0  0
 22 23  2  0  0  0  0
 22 25  1  0  0  0  0
 23 18  1  0  0  0  0
 24 21  1  0  0  0  0
 24 19  1  0  0  0  0
 25 26  1  0  0  0  0
 27 20  1  0  0  0  0
 28 29  1  0  0  0  0
 28 27  1  0  0  0  0
M  END
>  <MODEL>
4

>  <REMARK>
 VINA RESULT:      -5.9      3.218      9.912
  Name = 
  11 active torsions:
  status: ('A' for Active; 'I' for Inactive)
    1  A    between atoms: N_1  and  C_24
    2  A    between atoms: C_3  and  O_5
    3  A    between atoms: O_5  and  N_13
    4  A    between atoms: C_6  and  S_7
    5  A    between atoms: C_6  and  C_12
    6  A    between atoms: S_7  and  C_22
    7  A    between atoms: C_16  and  C_17
    8  A    between atoms: C_16  and  C_28
    9  A    between atoms: C_20  and  C_25
   10  A    between atoms: C_22  and  C_23
   11  A    between atoms: C_23  and  C_26
                            x       y       z     vdW  Elec       q    Type
                         _______ _______ _______ _____ _____    ______ ____

>  <TORSDO>
F 11

$$$$
=
 OpenBabel11072414003D

 29 30  0  0  1  0  0  0  0  0999 V2000
  160.6210  209.4830  152.2810 C   0  0  0  0  0  2  0  0  0  0  0  0
  161.7670  209.9760  154.7630 O   0  0  0  0  0  1  0  0  0  0  0  0
  158.1310  211.4570  154.4050 S   0  0  0  0  0  0  0  0  0  0  0  0
  160.7410  210.8750  154.4530 C   0  0  1  0  0  3  0  0  0  0  0  0
  160.3870  210.8360  152.9640 C   0  0  2  0  0  3  0  0  0  0  0  0
  158.9460  211.3020  152.7820 C   0  0  2  0  0  3  0  0  0  0  0  0
  159.4810  210.5620  155.2380 C   0  0  1  0  0  3  0  0  0  0  0  0
  157.8070  213.2140  151.9430 O   0  0  0  0  0  1  0  0  0  0  0  0
  158.9010  212.6040  152.0590 C   0  0  0  0  0  0  0  0  0  0  0  0
  160.0620  213.1600  151.5300 O   0  0  0  0  0  0  0  0  0  0  0  0
  159.5840  210.9920  156.7050 C   0  0  2  0  0  3  0  0  0  0  0  0
  158.3240  211.3190  157.2120 O   0  0  0  0  0  1  0  0  0  0  0  0
  161.8020  212.0130  157.2600 O   0  0  0  0  0  1  0  0  0  0  0  0
  160.0560  213.3250  156.5720 O   0  0  0  0  0  0  0  0  0  0  0  0
  160.4840  212.1760  156.8500 C   0  0  0  0  0  0  0  0  0  0  0  0
  162.0710  209.4780  151.1670 S   0  0  0  0  0  0  0  0  0  0  0  0
  162.2640  207.6710  151.2770 C   0  0  0  0  0  2  0  0  0  0  0  0
  161.0000  206.9450  150.8330 C   0  0  0  0  0  2  0  0  0  0  0  0
  161.6210  207.0260  148.1260 S   0  0  0  0  0  0  0  0  0  0  0  0
  161.2010  203.0170  147.8210 N   0  0  0  0  0  0  0  0  0  0  0  0
  161.2990  204.2820  148.0900 C   0  0  0  0  0  0  0  0  0  0  0  0
  161.0910  204.7950  149.3890 C   0  0  0  0  0  0  0  0  0  0  0  0
  161.2230  206.2010  149.5560 C   0  0  0  0  0  0  0  0  0  0  0  0
  161.6850  205.4530  146.9190 S   0  0  0  0  0  0  0  0  0  0  0  0
  160.7790  203.9010  150.4670 N   0  0  0  0  0  2  0  0  0  0  0  0
  161.6460  203.6240  151.4690 O   0  0  0  0  0  1  0  0  0  0  0  0
  161.4150  202.5330  146.5490 O   0  0  0  0  0  0  0  0  0  0  0  0
  160.6620  201.4340  146.0670 C   0  0  0  0  0  2  0  0  0  0  0  0
  159.9210  201.8240  144.9490 O   0  0  0  0  0  1  0  0  0  0  0  0
  3  7  1  0  0  0  0
  4  2  1  6  0  0  0
  4  7  1  0  0  0  0
  5  1  1  1  0  0  0
  5  4  1  0  0  0  0
  6  9  1  1  0  0  0
  6  5  1  0  0  0  0
  6  3  1  0  0  0  0
  7 11  1  1  0  0  0
  8  9  1  0  0  0  0
 10  9  2  0  0  0  0
 11 15  1  0  0  0  0
 11 12  1  6  0  0  0
 14 15  2  0  0  0  0
 15 13  1  0  0  0  0
 16 17  1  0  0  0  0
 16  1  1  0  0  0  0
 18 17  1  0  0  0  0
 19 23  1  0  0  0  0
 20 21  2  0  0  0  0
 21 22  1  0  0  0  0
 22 23  2  0  0  0  0
 22 25  1  0  0  0  0
 23 18  1  0  0  0  0
 24 21  1  0  0  0  0
 24 19  1  0  0  0  0
 25 26  1  0  0  0  0
 27 20  1  0  0  0  0
 28 27  1  0  0  0  0
 29 28  1  0  0  0  0
M  END
>  <MODEL>
5

>  <REMARK>
 VINA RESULT:      -5.8      3.322     10.546
  Name = 
  11 active torsions:
  status: ('A' for Active; 'I' for Inactive)
    1  A    between atoms: N_1  and  C_24
    2  A    between atoms: C_3  and  O_5
    3  A    between atoms: O_5  and  N_13
    4  A    between atoms: C_6  and  S_7
    5  A    between atoms: C_6  and  C_12
    6  A    between atoms: S_7  and  C_22
    7  A    between atoms: C_16  and  C_17
    8  A    between atoms: C_16  and  C_28
    9  A    between atoms: C_20  and  C_25
   10  A    between atoms: C_22  and  C_23
   11  A    between atoms: C_23  and  C_26
                            x       y       z     vdW  Elec       q    Type
                         _______ _______ _______ _____ _____    ______ ____

>  <TORSDO>
F 11

$$$$
=
 OpenBabel11072414003D

 29 30  0  0  1  0  0  0  0  0999 V2000
  160.7460  211.0010  152.6010 C   0  0  0  0  0  2  0  0  0  0  0  0
  158.0700  211.4200  153.2210 O   0  0  0  0  0  1  0  0  0  0  0  0
  160.4680  211.8190  156.3250 S   0  0  0  0  0  0  0  0  0  0  0  0
  158.8370  211.0760  154.3390 C   0  0  1  0  0  3  0  0  0  0  0  0
  160.1910  210.4880  153.9370 C   0  0  2  0  0  3  0  0  0  0  0  0
  161.1890  210.7120  155.0680 C   0  0  2  0  0  3  0  0  0  0  0  0
  159.0990  212.2850  155.2190 C   0  0  1  0  0  3  0  0  0  0  0  0
  161.1290  208.3390  155.2230 O   0  0  0  0  0  0  0  0  0  0  0  0
  161.5800  209.4160  155.6900 C   0  0  0  0  0  0  0  0  0  0  0  0
  162.4570  209.3860  156.7710 O   0  0  0  0  0  1  0  0  0  0  0  0
  157.8670  212.6940  156.0330 C   0  0  2  0  0  3  0  0  0  0  0  0
  156.9910  211.6150  156.1750 O   0  0  0  0  0  1  0  0  0  0  0  0
  155.8760  214.1950  155.8070 O   0  0  0  0  0  1  0  0  0  0  0  0
  157.6900  214.4510  154.4330 O   0  0  0  0  0  0  0  0  0  0  0  0
  157.1420  213.8200  155.3710 C   0  0  0  0  0  0  0  0  0  0  0  0
  162.1590  210.0200  151.9820 S   0  0  0  0  0  0  0  0  0  0  0  0
  161.1100  208.5810  151.6000 C   0  0  0  0  0  2  0  0  0  0  0  0
  161.5310  207.9120  150.2970 C   0  0  0  0  0  2  0  0  0  0  0  0
  161.3210  205.6330  151.8720 S   0  0  0  0  0  0  0  0  0  0  0  0
  161.0820  203.2830  148.5920 N   0  0  0  0  0  0  0  0  0  0  0  0
  161.1670  204.1720  149.5320 C   0  0  0  0  0  0  0  0  0  0  0  0
  161.2750  205.5530  149.2560 C   0  0  0  0  0  0  0  0  0  0  0  0
  161.3650  206.4280  150.3720 C   0  0  0  0  0  0  0  0  0  0  0  0
  161.1580  203.7780  151.1860 S   0  0  0  0  0  0  0  0  0  0  0  0
  161.2720  206.0100  147.8960 N   0  0  0  0  0  2  0  0  0  0  0  0
  162.4040  206.1950  147.1790 O   0  0  0  0  0  1  0  0  0  0  0  0
  160.9690  201.9400  148.8800 O   0  0  0  0  0  0  0  0  0  0  0  0
  161.2030  200.9720  147.8720 C   0  0  0  0  0  2  0  0  0  0  0  0
  160.7080  201.4350  146.6510 O   0  0  0  0  0  1  0  0  0  0  0  0
  4  2  1  6  0  0  0
  4  7  1  0  0  0  0
  5  1  1  6  0  0  0
  5  4  1  0  0  0  0
  5  6  1  0  0  0  0
  6  9  1  1  0  0  0
  6  3  1  0  0  0  0
  7 11  1  1  0  0  0
  7  3  1  0  0  0  0
  8  9  2  0  0  0  0
  9 10  1  0  0  0  0
 11 12  1  6  0  0  0
 14 15  2  0  0  0  0
 15 13  1  0  0  0  0
 15 11  1  0  0  0  0
 16  1  1  0  0  0  0
 17 16  1  0  0  0  0
 18 23  1  0  0  0  0
 18 17  1  0  0  0  0
 20 27  1  0  0  0  0
 20 21  2  0  0  0  0
 21 24  1  0  0  0  0
 22 21  1  0  0  0  0
 22 23  2  0  0  0  0
 23 19  1  0  0  0  0
 24 19  1  0  0  0  0
 25 22  1  0  0  0  0
 26 25  1  0  0  0  0
 28 27  1  0  0  0  0
 29 28  1  0  0  0  0
M  END
>  <MODEL>
6

>  <REMARK>
 VINA RESULT:      -5.7      3.152     10.229
  Name = 
  11 active torsions:
  status: ('A' for Active; 'I' for Inactive)
    1  A    between atoms: N_1  and  C_24
    2  A    between atoms: C_3  and  O_5
    3  A    between atoms: O_5  and  N_13
    4  A    between atoms: C_6  and  S_7
    5  A    between atoms: C_6  and  C_12
    6  A    between atoms: S_7  and  C_22
    7  A    between atoms: C_16  and  C_17
    8  A    between atoms: C_16  and  C_28
    9  A    between atoms: C_20  and  C_25
   10  A    between atoms: C_22  and  C_23
   11  A    between atoms: C_23  and  C_26
                            x       y       z     vdW  Elec       q    Type
                         _______ _______ _______ _____ _____    ______ ____

>  <TORSDO>
F 11

$$$$
=
 OpenBabel11072414003D

 29 30  0  0  1  0  0  0  0  0999 V2000
  162.4320  207.1480  148.6240 C   0  0  0  0  0  2  0  0  0  0  0  0
  160.6660  206.1430  150.5200 O   0  0  0  0  0  1  0  0  0  0  0  0
  161.5810  203.5350  147.7090 S   0  0  0  0  0  0  0  0  0  0  0  0
  160.6110  205.4480  149.3080 C   0  0  1  0  0  3  0  0  0  0  0  0
  161.2880  206.2270  148.1780 C   0  0  2  0  0  3  0  0  0  0  0  0
  161.7580  205.2470  147.1080 C   0  0  2  0  0  3  0  0  0  0  0  0
  161.2980  204.0990  149.4170 C   0  0  1  0  0  3  0  0  0  0  0  0
  160.3360  206.4930  145.6640 O   0  0  0  0  0  1  0  0  0  0  0  0
  160.9830  205.4310  145.8480 C   0  0  0  0  0  0  0  0  0  0  0  0
  160.9870  204.4460  144.8650 O   0  0  0  0  0  0  0  0  0  0  0  0
  160.4560  203.0760  150.1870 C   0  0  2  0  0  3  0  0  0  0  0  0
  160.9000  202.9660  151.5070 O   0  0  0  0  0  1  0  0  0  0  0  0
  159.5540  201.3290  148.6350 O   0  0  0  0  0  0  0  0  0  0  0  0
  161.4970  200.9680  149.7920 O   0  0  0  0  0  1  0  0  0  0  0  0
  160.5300  201.7300  149.5400 C   0  0  0  0  0  0  0  0  0  0  0  0
  161.9560  208.9120  148.6820 S   0  0  0  0  0  0  0  0  0  0  0  0
  162.0170  208.9640  150.5010 C   0  0  0  0  0  2  0  0  0  0  0  0
  161.8270  210.3810  151.0270 C   0  0  0  0  0  2  0  0  0  0  0  0
  161.2440  209.0640  153.4030 S   0  0  0  0  0  0  0  0  0  0  0  0
  158.8020  212.0670  154.5690 N   0  0  0  0  0  0  0  0  0  0  0  0
  159.6160  211.2010  154.0510 C   0  0  0  0  0  0  0  0  0  0  0  0
  160.2400  211.4060  152.8010 C   0  0  0  0  0  0  0  0  0  0  0  0
  161.1090  210.3800  152.3380 C   0  0  0  0  0  0  0  0  0  0  0  0
  160.0190  209.7350  154.8120 S   0  0  0  0  0  0  0  0  0  0  0  0
  159.9940  212.6170  152.0720 N   0  0  0  0  0  2  0  0  0  0  0  0
  158.8810  212.8160  151.3290 O   0  0  0  0  0  1  0  0  0  0  0  0
  158.2090  211.8540  155.7940 O   0  0  0  0  0  0  0  0  0  0  0  0
  156.7970  211.8780  155.9170 C   0  0  0  0  0  2  0  0  0  0  0  0
  156.2590  210.7040  155.3860 O   0  0  0  0  0  1  0  0  0  0  0  0
  1 16  1  0  0  0  0
  3  7  1  0  0  0  0
  4  7  1  0  0  0  0
  4  2  1  1  0  0  0
  5  1  1  1  0  0  0
  5  4  1  0  0  0  0
  6  9  1  6  0  0  0
  6  3  1  0  0  0  0
  6  5  1  0  0  0  0
  7 11  1  1  0  0  0
  8  9  1  0  0  0  0
 10  9  2  0  0  0  0
 11 12  1  1  0  0  0
 13 15  2  0  0  0  0
 15 14  1  0  0  0  0
 15 11  1  0  0  0  0
 16 17  1  0  0  0  0
 17 18  1  0  0  0  0
 18 23  1  0  0  0  0
 19 24  1  0  0  0  0
 20 27  1  0  0  0  0
 21 20  2  0  0  0  0
 21 24  1  0  0  0  0
 22 21  1  0  0  0  0
 23 22  2  0  0  0  0
 23 19  1  0  0  0  0
 25 22  1  0  0  0  0
 26 25  1  0  0  0  0
 27 28  1  0  0  0  0
 29 28  1  0  0  0  0
M  END
>  <MODEL>
7

>  <REMARK>
 VINA RESULT:      -5.7      2.513      4.373
  Name = 
  11 active torsions:
  status: ('A' for Active; 'I' for Inactive)
    1  A    between atoms: N_1  and  C_24
    2  A    between atoms: C_3  and  O_5
    3  A    between atoms: O_5  and  N_13
    4  A    between atoms: C_6  and  S_7
    5  A    between atoms: C_6  and  C_12
    6  A    between atoms: S_7  and  C_22
    7  A    between atoms: C_16  and  C_17
    8  A    between atoms: C_16  and  C_28
    9  A    between atoms: C_20  and  C_25
   10  A    between atoms: C_22  and  C_23
   11  A    between atoms: C_23  and  C_26
                            x       y       z     vdW  Elec       q    Type
                         _______ _______ _______ _____ _____    ______ ____

>  <TORSDO>
F 11

$$$$
=
 OpenBabel11072414003D

 29 30  0  0  1  0  0  0  0  0999 V2000
  162.4500  206.4810  148.1900 C   0  0  0  0  0  2  0  0  0  0  0  0
  160.8550  204.7080  149.6170 O   0  0  0  0  0  1  0  0  0  0  0  0
  161.8280  203.3880  146.0320 S   0  0  0  0  0  0  0  0  0  0  0  0
  160.7950  204.4980  148.2350 C   0  0  1  0  0  3  0  0  0  0  0  0
  161.3580  205.6900  147.4580 C   0  0  2  0  0  3  0  0  0  0  0  0
  161.8490  205.2100  146.0950 C   0  0  2  0  0  3  0  0  0  0  0  0
  161.5850  203.2660  147.8320 C   0  0  1  0  0  3  0  0  0  0  0  0
  161.4540  205.8200  143.8300 O   0  0  0  0  0  0  0  0  0  0  0  0
  161.0040  205.7710  145.0030 C   0  0  0  0  0  0  0  0  0  0  0  0
  159.7140  206.2210  145.2680 O   0  0  0  0  0  1  0  0  0  0  0  0
  160.8580  201.9650  148.1880 C   0  0  2  0  0  3  0  0  0  0  0  0
  161.4890  201.3260  149.2590 O   0  0  0  0  0  1  0  0  0  0  0  0
  161.5800  199.8620  147.0360 O   0  0  0  0  0  1  0  0  0  0  0  0
  160.1060  201.2960  146.0280 O   0  0  0  0  0  0  0  0  0  0  0  0
  160.8320  201.0330  147.0200 C   0  0  0  0  0  0  0  0  0  0  0  0
  161.9580  208.1980  148.5790 S   0  0  0  0  0  0  0  0  0  0  0  0
  161.2110  207.7210  150.1700 C   0  0  0  0  0  2  0  0  0  0  0  0
  162.2650  207.5670  151.2600 C   0  0  0  0  0  2  0  0  0  0  0  0
  161.2060  206.3600  153.5270 S   0  0  0  0  0  0  0  0  0  0  0  0
  160.4550  209.9610  155.2010 N   0  0  0  0  0  0  0  0  0  0  0  0
  160.7640  208.8960  154.5280 C   0  0  0  0  0  0  0  0  0  0  0  0
  161.3770  208.9580  153.2580 C   0  0  0  0  0  0  0  0  0  0  0  0
  161.6630  207.7200  152.6200 C   0  0  0  0  0  0  0  0  0  0  0  0
  160.4670  207.3210  155.0970 S   0  0  0  0  0  0  0  0  0  0  0  0
  161.6970  210.2320  152.6830 N   0  0  0  0  0  2  0  0  0  0  0  0
  160.8060  210.9650  151.9750 O   0  0  0  0  0  1  0  0  0  0  0  0
  159.8640  209.8820  156.4430 O   0  0  0  0  0  0  0  0  0  0  0  0
  159.0050  210.9160  156.8920 C   0  0  0  0  0  2  0  0  0  0  0  0
  158.1710  211.3210  155.8480 O   0  0  0  0  0  1  0  0  0  0  0  0
  1 16  1  0  0  0  0
  3  6  1  0  0  0  0
  3  7  1  0  0  0  0
  4  2  1  1  0  0  0
  5  1  1  1  0  0  0
  5  4  1  0  0  0  0
  6  9  1  6  0  0  0
  6  5  1  0  0  0  0
  7 11  1  6  0  0  0
  7  4  1  0  0  0  0
  8  9  2  0  0  0  0
  9 10  1  0  0  0  0
 11 12  1  1  0  0  0
 14 15  2  0  0  0  0
 15 13  1  0  0  0  0
 15 11  1  0  0  0  0
 16 17  1  0  0  0  0
 17 18  1  0  0  0  0
 18 23  1  0  0  0  0
 19 24  1  0  0  0  0
 20 27  1  0  0  0  0
 21 24  1  0  0  0  0
 21 20  2  0  0  0  0
 22 21  1  0  0  0  0
 23 22  2  0  0  0  0
 23 19  1  0  0  0  0
 25 22  1  0  0  0  0
 26 25  1  0  0  0  0
 27 28  1  0  0  0  0
 29 28  1  0  0  0  0
M  END
>  <MODEL>
8

>  <REMARK>
 VINA RESULT:      -5.6      1.790      3.738
  Name = 
  11 active torsions:
  status: ('A' for Active; 'I' for Inactive)
    1  A    between atoms: N_1  and  C_24
    2  A    between atoms: C_3  and  O_5
    3  A    between atoms: O_5  and  N_13
    4  A    between atoms: C_6  and  S_7
    5  A    between atoms: C_6  and  C_12
    6  A    between atoms: S_7  and  C_22
    7  A    between atoms: C_16  and  C_17
    8  A    between atoms: C_16  and  C_28
    9  A    between atoms: C_20  and  C_25
   10  A    between atoms: C_22  and  C_23
   11  A    between atoms: C_23  and  C_26
                            x       y       z     vdW  Elec       q    Type
                         _______ _______ _______ _____ _____    ______ ____

>  <TORSDO>
F 11

$$$$
=
 OpenBabel11072414003D

 29 30  0  0  1  0  0  0  0  0999 V2000
  160.7470  209.5450  152.4970 C   0  0  0  0  0  2  0  0  0  0  0  0
  161.6970  210.1490  155.0370 O   0  0  0  0  0  1  0  0  0  0  0  0
  158.1760  211.7470  154.2720 S   0  0  0  0  0  0  0  0  0  0  0  0
  160.7440  211.0660  154.5840 C   0  0  1  0  0  3  0  0  0  0  0  0
  160.5170  210.9470  153.0760 C   0  0  2  0  0  3  0  0  0  0  0  0
  159.1190  211.4570  152.7400 C   0  0  2  0  0  3  0  0  0  0  0  0
  159.4070  210.8530  155.2730 C   0  0  1  0  0  3  0  0  0  0  0  0
  158.4460  213.6800  152.2270 O   0  0  0  0  0  1  0  0  0  0  0  0
  159.1950  212.7120  151.9390 C   0  0  0  0  0  0  0  0  0  0  0  0
  160.1010  212.8270  150.8890 O   0  0  0  0  0  0  0  0  0  0  0  0
  159.4040  211.3710  156.7150 C   0  0  2  0  0  3  0  0  0  0  0  0
  158.1000  211.6350  157.1400 O   0  0  0  0  0  1  0  0  0  0  0  0
  159.6580  213.8530  156.5030 O   0  0  0  0  0  0  0  0  0  0  0  0
  161.3930  212.5660  157.2610 O   0  0  0  0  0  1  0  0  0  0  0  0
  160.2130  212.6220  156.8330 C   0  0  0  0  0  0  0  0  0  0  0  0
  162.0570  209.4970  151.2220 S   0  0  0  0  0  0  0  0  0  0  0  0
  162.2800  207.6970  151.3880 C   0  0  0  0  0  2  0  0  0  0  0  0
  160.9450  206.9630  151.3590 C   0  0  0  0  0  2  0  0  0  0  0  0
  160.9790  204.1930  151.1510 S   0  0  0  0  0  0  0  0  0  0  0  0
  161.3680  204.4130  147.1340 N   0  0  0  0  0  0  0  0  0  0  0  0
  161.2380  204.5180  148.4200 C   0  0  0  0  0  0  0  0  0  0  0  0
  161.1470  205.7690  149.0680 C   0  0  0  0  0  0  0  0  0  0  0  0
  161.0110  205.7540  150.4830 C   0  0  0  0  0  0  0  0  0  0  0  0
  161.1650  203.1740  149.4590 S   0  0  0  0  0  0  0  0  0  0  0  0
  161.1760  206.9770  148.2940 N   0  0  0  0  0  2  0  0  0  0  0  0
  162.3020  207.7030  148.1040 O   0  0  0  0  0  1  0  0  0  0  0  0
  161.4480  203.1830  146.5170 O   0  0  0  0  0  0  0  0  0  0  0  0
  160.8310  202.9740  145.2590 C   0  0  0  0  0  2  0  0  0  0  0  0
  160.8170  204.1700  144.5370 O   0  0  0  0  0  1  0  0  0  0  0  0
  3  7  1  0  0  0  0
  4  2  1  1  0  0  0
  4  7  1  0  0  0  0
  5  1  1  1  0  0  0
  5  4  1  0  0  0  0
  6  9  1  1  0  0  0
  6  5  1  0  0  0  0
  6  3  1  0  0  0  0
  7 11  1  1  0  0  0
  9  8  1  0  0  0  0
 10  9  2  0  0  0  0
 11 15  1  0  0  0  0
 11 12  1  6  0  0  0
 13 15  2  0  0  0  0
 15 14  1  0  0  0  0
 16 17  1  0  0  0  0
 16  1  1  0  0  0  0
 18 17  1  0  0  0  0
 20 21  2  0  0  0  0
 21 22  1  0  0  0  0
 21 24  1  0  0  0  0
 22 23  2  0  0  0  0
 23 19  1  0  0  0  0
 23 18  1  0  0  0  0
 24 19  1  0  0  0  0
 25 22  1  0  0  0  0
 26 25  1  0  0  0  0
 27 20  1  0  0  0  0
 28 27  1  0  0  0  0
 29 28  1  0  0  0  0
M  END
>  <MODEL>
9

>  <REMARK>
 VINA RESULT:      -5.6      2.819     10.341
  Name = 
  11 active torsions:
  status: ('A' for Active; 'I' for Inactive)
    1  A    between atoms: N_1  and  C_24
    2  A    between atoms: C_3  and  O_5
    3  A    between atoms: O_5  and  N_13
    4  A    between atoms: C_6  and  S_7
    5  A    between atoms: C_6  and  C_12
    6  A    between atoms: S_7  and  C_22
    7  A    between atoms: C_16  and  C_17
    8  A    between atoms: C_16  and  C_28
    9  A    between atoms: C_20  and  C_25
   10  A    between atoms: C_22  and  C_23
   11  A    between atoms: C_23  and  C_26
                            x       y       z     vdW  Elec       q    Type
                         _______ _______ _______ _____ _____    ______ ____

>  <TORSDO>
F 11

$$$$
