=
 OpenBabel11072413423D

 44 48  0  0  1  0  0  0  0  0999 V2000
  161.4030  211.7870  150.8670 C   0  0  1  0  0  3  0  0  0  0  0  0
  156.1550  212.7860  156.5170 C   0  0  0  0  0  2  0  0  0  0  0  0
  157.9880  214.1930  149.2550 O   0  0  0  0  0  0  0  0  0  0  0  0
  155.5980  213.6640  155.4020 C   0  0  0  0  0  2  0  0  0  0  0  0
  159.1590  213.8620  148.5370 C   0  0  1  0  0  3  0  0  0  0  0  0
  161.0790  212.2120  152.2910 C   0  0  2  0  0  3  0  0  0  0  0  0
  157.2290  212.3360  152.2330 C   0  0  0  0  0  3  0  0  0  0  0  0
  157.1210  212.5990  153.6970 C   0  0  1  0  0  3  0  0  0  0  0  0
  161.4560  210.2680  150.9890 C   0  0  1  0  0  3  0  0  0  0  0  0
  160.3200  210.8840  154.3260 C   0  0  1  0  0  3  0  0  0  0  0  0
  161.6750  210.6870  154.6300 O   0  0  0  0  0  1  0  0  0  0  0  0
  157.6750  212.8030  156.4710 C   0  0  0  0  0  2  0  0  0  0  0  0
  160.3560  212.1800  149.9770 O   0  0  0  0  0  0  0  0  0  0  0  0
  160.4070  209.8840  152.0160 C   0  0  0  0  0  2  0  0  0  0  0  0
  159.7200  212.0280  155.1540 C   0  0  1  0  0  3  0  0  0  0  0  0
  155.6890  212.9970  154.0350 C   0  0  0  0  0  2  0  0  0  0  0  0
  158.2560  211.7380  155.5210 C   0  0  2  0  0  3  0  0  0  0  0  0
  161.3720  214.1610  149.3700 O   0  0  0  0  0  0  0  0  0  0  0  0
  160.1390  211.1430  152.8300 C   0  0  2  0  0  3  0  0  0  0  0  0
  157.4470  211.4250  154.3990 O   0  0  0  0  0  0  0  0  0  0  0  0
  157.4110  213.3340  151.3760 C   0  0  0  0  0  3  0  0  0  0  0  0
  160.4640  212.2290  156.3210 O   0  0  0  0  0  1  0  0  0  0  0  0
  157.5380  213.0480  149.9220 C   0  0  0  0  0  2  0  0  0  0  0  0
  160.3610  213.4110  149.3170 C   0  0  0  0  0  0  0  0  0  0  0  0
  160.4750  213.4710  152.3360 O   0  0  0  0  0  1  0  0  0  0  0  0
  157.7760  212.5800  146.8450 C   0  0  0  0  0  1  0  0  0  0  0  0
  159.0110  213.4350  147.0690 C   0  0  2  0  0  3  0  0  0  0  0  0
  159.9300  211.7020  145.6750 O   0  0  0  0  0  1  0  0  0  0  0  0
  160.2530  212.8660  146.3700 C   0  0  1  0  0  3  0  0  0  0  0  0
  160.9720  213.8380  145.4390 C   0  0  0  0  0  2  0  0  0  0  0  0
  161.3090  212.4540  141.9690 C   0  0  1  0  0  0  0  0  0  0  0  0
  160.8880  213.3950  144.0530 N   0  0  0  0  0  0  0  0  0  0  0  0
  161.9060  212.6090  143.3700 C   0  0  2  0  0  3  0  0  0  0  0  0
  162.8180  212.5770  139.9040 O   0  0  0  0  0  0  0  0  0  0  0  0
  159.8630  213.7300  143.1240 C   0  0  0  0  0  0  0  0  0  0  0  0
  163.1470  213.3650  143.3110 N   0  0  0  0  0  1  0  0  0  0  0  0
  158.8340  214.4490  143.4300 N   0  0  0  0  0  2  0  0  0  0  0  0
  162.0460  212.2110  140.8270 C   0  0  0  0  0  0  0  0  0  0  0  0
  161.2070  211.1370  141.5370 N   0  0  0  0  0  2  0  0  0  0  0  0
  160.0600  213.1840  141.8310 N   0  0  0  0  0  2  0  0  0  0  0  0
  161.2520  209.5260  149.6720 C   0  0  0  0  0  2  0  0  0  0  0  0
  161.7230  208.1140  149.7940 C   0  0  0  0  0  0  0  0  0  0  0  0
  162.7390  207.8600  150.4210 O   0  0  0  0  0  0  0  0  0  0  0  0
  160.9460  207.0110  149.1580 C   0  0  0  0  0  1  0  0  0  0  0  0
  1 13  1  6  0  0  0
  1  9  1  0  0  0  0
  1  6  1  0  0  0  0
  3 23  1  0  0  0  0
  4  2  1  0  0  0  0
  5 27  1  6  0  0  0
  5  3  1  0  0  0  0
  5 24  1  0  0  0  0
  6 25  1  6  0  0  0
  6 19  1  0  0  0  0
  8  7  1  6  0  0  0
  8 16  1  0  0  0  0
  8 20  1  0  0  0  0
  9 41  1  6  0  0  0
  9 14  1  0  0  0  0
 10 11  1  6  0  0  0
 10 15  1  0  0  0  0
 12  2  1  0  0  0  0
 15 17  1  0  0  0  0
 15 22  1  1  0  0  0
 16  4  1  0  0  0  0
 17 12  1  6  0  0  0
 19 14  1  6  0  0  0
 19 10  1  0  0  0  0
 20 17  1  0  0  0  0
 21  7  2  0  0  0  0
 23 21  1  0  0  0  0
 24 18  2  0  0  0  0
 24 13  1  0  0  0  0
 27 26  1  1  0  0  0
 29 28  1  6  0  0  0
 29 27  1  0  0  0  0
 30 29  1  0  0  0  0
 31 38  1  6  0  0  0
 31 33  1  0  0  0  0
 32 30  1  0  0  0  0
 33 36  1  6  0  0  0
 33 32  1  0  0  0  0
 34 38  2  0  0  0  0
 35 37  2  0  0  0  0
 35 32  1  0  0  0  0
 38 39  1  0  0  0  0
 39 31  1  0  0  0  0
 40 31  1  0  0  0  0
 40 35  1  0  0  0  0
 41 42  1  0  0  0  0
 42 43  2  0  0  0  0
 44 42  1  0  0  0  0
M  END
>  <MODEL>
1

>  <REMARK>
 VINA RESULT:      -2.0      0.000      0.000
  Name = 
  6 active torsions:
  status: ('A' for Active; 'I' for Inactive)
    1  A    between atoms: C_7  and  C_25
    2  A    between atoms: C_9  and  C_32
    3  A    between atoms: N_12  and  C_27
    4  A    between atoms: C_14  and  C_32
    5  A    between atoms: C_18  and  C_25
    6  A    between atoms: C_18  and  C_27
                            x       y       z     vdW  Elec       q    Type
                         _______ _______ _______ _____ _____    ______ ____

>  <TORSDO>
F 6

$$$$
=
 OpenBabel11072413423D

 44 48  0  0  1  0  0  0  0  0999 V2000
  161.8330  212.3410  149.4060 C   0  0  1  0  0  3  0  0  0  0  0  0
  155.3800  213.7930  153.4940 C   0  0  0  0  0  2  0  0  0  0  0  0
  158.8030  214.2200  146.6980 O   0  0  0  0  0  0  0  0  0  0  0  0
  155.0670  214.4500  152.1550 C   0  0  0  0  0  2  0  0  0  0  0  0
  160.1200  213.8720  146.3250 C   0  0  1  0  0  3  0  0  0  0  0  0
  161.1710  212.9510  150.6320 C   0  0  2  0  0  3  0  0  0  0  0  0
  157.4380  212.7830  149.6920 C   0  0  0  0  0  3  0  0  0  0  0  0
  156.9830  213.2550  151.0310 C   0  0  1  0  0  3  0  0  0  0  0  0
  161.9120  210.8660  149.7830 C   0  0  1  0  0  3  0  0  0  0  0  0
  160.0080  211.8920  152.6340 C   0  0  1  0  0  3  0  0  0  0  0  0
  161.2600  211.8430  153.2620 O   0  0  0  0  0  1  0  0  0  0  0  0
  156.8670  213.9140  153.7880 C   0  0  0  0  0  2  0  0  0  0  0  0
  161.0080  212.5180  148.2520 O   0  0  0  0  0  0  0  0  0  0  0  0
  160.6670  210.5660  150.5980 C   0  0  0  0  0  2  0  0  0  0  0  0
  159.1900  213.1010  153.1070 C   0  0  1  0  0  3  0  0  0  0  0  0
  155.4980  213.5940  150.9710 C   0  0  0  0  0  2  0  0  0  0  0  0
  157.6920  212.7640  153.1800 C   0  0  2  0  0  3  0  0  0  0  0  0
  162.0650  214.4530  147.5730 O   0  0  0  0  0  0  0  0  0  0  0  0
  160.1700  211.9090  151.1130 C   0  0  2  0  0  3  0  0  0  0  0  0
  157.1780  212.2260  151.9710 O   0  0  0  0  0  0  0  0  0  0  0  0
  157.7790  213.6510  148.7470 C   0  0  0  0  0  3  0  0  0  0  0  0
  159.6330  213.5300  154.3630 O   0  0  0  0  0  1  0  0  0  0  0  0
  158.2510  213.1590  147.4250 C   0  0  0  0  0  2  0  0  0  0  0  0
  161.1230  213.6330  147.4180 C   0  0  0  0  0  0  0  0  0  0  0  0
  160.5280  214.1540  150.3340 O   0  0  0  0  0  1  0  0  0  0  0  0
  160.4150  211.7060  145.0450 C   0  0  0  0  0  1  0  0  0  0  0  0
  160.3330  213.2190  144.9510 C   0  0  2  0  0  3  0  0  0  0  0  0
  162.4370  212.8760  143.8330 O   0  0  0  0  0  1  0  0  0  0  0  0
  161.4260  213.8110  144.0500 C   0  0  1  0  0  3  0  0  0  0  0  0
  160.9350  214.3580  142.7130 C   0  0  0  0  0  2  0  0  0  0  0  0
  161.1030  211.5160  140.2700 C   0  0  1  0  0  0  0  0  0  0  0  0
  160.7660  213.2870  141.7390 N   0  0  0  0  0  0  0  0  0  0  0  0
  161.8360  212.4190  141.2670 C   0  0  2  0  0  3  0  0  0  0  0  0
  162.2390  210.8240  138.0830 O   0  0  0  0  0  0  0  0  0  0  0  0
  159.5720  212.9770  141.0290 C   0  0  0  0  0  0  0  0  0  0  0  0
  162.8430  213.2160  140.5830 N   0  0  0  0  0  1  0  0  0  0  0  0
  158.4550  213.6010  141.2110 N   0  0  0  0  0  2  0  0  0  0  0  0
  161.7110  210.8520  139.2240 C   0  0  0  0  0  0  0  0  0  0  0  0
  161.2560  210.1580  140.5160 N   0  0  0  0  0  2  0  0  0  0  0  0
  159.7110  211.9020  140.1160 N   0  0  0  0  0  2  0  0  0  0  0  0
  162.0470  209.9210  148.5930 C   0  0  0  0  0  2  0  0  0  0  0  0
  162.0360  208.5010  149.0550 C   0  0  0  0  0  0  0  0  0  0  0  0
  162.4890  208.2100  150.1510 O   0  0  0  0  0  0  0  0  0  0  0  0
  161.4620  207.4370  148.1810 C   0  0  0  0  0  1  0  0  0  0  0  0
  1 13  1  6  0  0  0
  1  9  1  0  0  0  0
  1  6  1  0  0  0  0
  2 12  1  0  0  0  0
  3 23  1  0  0  0  0
  4  2  1  0  0  0  0
  5 27  1  1  0  0  0
  5  3  1  0  0  0  0
  5 24  1  0  0  0  0
  6 25  1  6  0  0  0
  6 19  1  0  0  0  0
  8  7  1  6  0  0  0
  8 20  1  0  0  0  0
  9 41  1  6  0  0  0
  9 14  1  0  0  0  0
 10 15  1  0  0  0  0
 10 11  1  1  0  0  0
 15 17  1  0  0  0  0
 15 22  1  1  0  0  0
 16  8  1  0  0  0  0
 16  4  1  0  0  0  0
 17 12  1  6  0  0  0
 19 14  1  1  0  0  0
 19 10  1  0  0  0  0
 20 17  1  0  0  0  0
 21  7  2  0  0  0  0
 23 21  1  0  0  0  0
 24 18  2  0  0  0  0
 24 13  1  0  0  0  0
 27 26  1  1  0  0  0
 29 28  1  6  0  0  0
 29 27  1  0  0  0  0
 30 29  1  0  0  0  0
 31 38  1  6  0  0  0
 31 39  1  0  0  0  0
 31 33  1  0  0  0  0
 32 30  1  0  0  0  0
 33 36  1  6  0  0  0
 33 32  1  0  0  0  0
 34 38  2  0  0  0  0
 35 37  2  0  0  0  0
 35 32  1  0  0  0  0
 38 39  1  0  0  0  0
 40 31  1  0  0  0  0
 40 35  1  0  0  0  0
 41 42  1  0  0  0  0
 42 43  2  0  0  0  0
 44 42  1  0  0  0  0
M  END
>  <MODEL>
2

>  <REMARK>
 VINA RESULT:      -0.8      1.755      2.350
  Name = 
  6 active torsions:
  status: ('A' for Active; 'I' for Inactive)
    1  A    between atoms: C_7  and  C_25
    2  A    between atoms: C_9  and  C_32
    3  A    between atoms: N_12  and  C_27
    4  A    between atoms: C_14  and  C_32
    5  A    between atoms: C_18  and  C_25
    6  A    between atoms: C_18  and  C_27
                            x       y       z     vdW  Elec       q    Type
                         _______ _______ _______ _____ _____    ______ ____

>  <TORSDO>
F 6

$$$$
=
 OpenBabel11072413423D

 44 48  0  0  1  0  0  0  0  0999 V2000
  162.5850  209.4720  149.1160 C   0  0  1  0  0  3  0  0  0  0  0  0
  160.8380  201.8950  149.1510 C   0  0  0  0  0  2  0  0  0  0  0  0
  161.5520  208.2490  153.2970 O   0  0  0  0  0  0  0  0  0  0  0  0
  160.8270  202.2340  150.6370 C   0  0  0  0  0  2  0  0  0  0  0  0
  161.9810  209.5380  152.9110 C   0  0  1  0  0  3  0  0  0  0  0  0
  162.9550  208.0430  148.7490 C   0  0  2  0  0  3  0  0  0  0  0  0
  160.3690  206.0080  150.7530 C   0  0  0  0  0  3  0  0  0  0  0  0
  160.7840  204.7080  150.1510 C   0  0  1  0  0  3  0  0  0  0  0  0
  161.5970  209.8410  148.0160 C   0  0  1  0  0  3  0  0  0  0  0  0
  161.9390  206.4010  147.0890 C   0  0  1  0  0  3  0  0  0  0  0  0
  162.8020  206.9350  146.1220 O   0  0  0  0  0  1  0  0  0  0  0  0
  161.8900  202.7340  148.4420 C   0  0  0  0  0  2  0  0  0  0  0  0
  161.9470  209.5110  150.3940 O   0  0  0  0  0  0  0  0  0  0  0  0
  160.8220  208.5750  147.6940 C   0  0  0  0  0  2  0  0  0  0  0  0
  162.4900  205.0930  147.6720 C   0  0  1  0  0  3  0  0  0  0  0  0
  160.1410  203.5630  150.9250 C   0  0  0  0  0  2  0  0  0  0  0  0
  161.3560  204.1060  147.9900 C   0  0  2  0  0  3  0  0  0  0  0  0
  163.8910  209.9640  151.5510 O   0  0  0  0  0  0  0  0  0  0  0  0
  161.6790  207.4220  148.1980 C   0  0  2  0  0  3  0  0  0  0  0  0
  160.3440  204.6610  148.8160 O   0  0  0  0  0  0  0  0  0  0  0  0
  161.0050  206.5000  151.8100 C   0  0  0  0  0  3  0  0  0  0  0  0
  163.3880  204.5000  146.7790 O   0  0  0  0  0  1  0  0  0  0  0  0
  160.5890  207.8080  152.3820 C   0  0  0  0  0  2  0  0  0  0  0  0
  162.6630  209.6850  151.5800 C   0  0  0  0  0  0  0  0  0  0  0  0
  163.4180  207.3230  149.8530 O   0  0  0  0  0  1  0  0  0  0  0  0
  160.7790  210.4640  154.9390 C   0  0  0  0  0  1  0  0  0  0  0  0
  161.2750  210.7520  153.5330 C   0  0  2  0  0  3  0  0  0  0  0  0
  159.0210  210.7730  152.6900 O   0  0  0  0  0  1  0  0  0  0  0  0
  160.2260  211.4740  152.6760 C   0  0  1  0  0  3  0  0  0  0  0  0
  159.9770  212.9310  153.0520 C   0  0  0  0  0  2  0  0  0  0  0  0
  156.4610  213.1810  154.3360 C   0  0  1  0  0  0  0  0  0  0  0  0
  158.7120  213.0820  153.7600 N   0  0  0  0  0  0  0  0  0  0  0  0
  157.3990  212.8800  153.1640 C   0  0  2  0  0  3  0  0  0  0  0  0
  154.2750  214.4530  153.9440 O   0  0  0  0  0  0  0  0  0  0  0  0
  158.5460  213.5340  155.0990 C   0  0  0  0  0  0  0  0  0  0  0  0
  157.1970  213.8440  152.0930 N   0  0  0  0  0  1  0  0  0  0  0  0
  159.5360  213.8260  155.8780 N   0  0  0  0  0  2  0  0  0  0  0  0
  155.1480  213.5870  154.2030 C   0  0  0  0  0  0  0  0  0  0  0  0
  155.5570  212.1650  154.6160 N   0  0  0  0  0  2  0  0  0  0  0  0
  157.1940  213.6150  155.5140 N   0  0  0  0  0  2  0  0  0  0  0  0
  160.6650  210.9950  148.3700 C   0  0  0  0  0  2  0  0  0  0  0  0
  161.0050  212.2030  147.5600 C   0  0  0  0  0  0  0  0  0  0  0  0
  160.2500  212.5790  146.6770 O   0  0  0  0  0  0  0  0  0  0  0  0
  162.2620  212.9570  147.8360 C   0  0  0  0  0  1  0  0  0  0  0  0
  1 13  1  1  0  0  0
  2  4  1  0  0  0  0
  4 16  1  0  0  0  0
  5  3  1  0  0  0  0
  5 27  1  6  0  0  0
  6  1  1  0  0  0  0
  6 25  1  1  0  0  0
  7 21  2  0  0  0  0
  8  7  1  1  0  0  0
  8 16  1  0  0  0  0
  9 41  1  1  0  0  0
  9  1  1  0  0  0  0
 10 11  1  6  0  0  0
 10 15  1  0  0  0  0
 10 19  1  0  0  0  0
 12  2  1  0  0  0  0
 13 24  1  0  0  0  0
 14  9  1  0  0  0  0
 15 22  1  6  0  0  0
 15 17  1  0  0  0  0
 17 12  1  1  0  0  0
 17 20  1  0  0  0  0
 18 24  2  0  0  0  0
 19 14  1  6  0  0  0
 19  6  1  0  0  0  0
 20  8  1  0  0  0  0
 21 23  1  0  0  0  0
 23  3  1  0  0  0  0
 24  5  1  0  0  0  0
 27 26  1  1  0  0  0
 29 28  1  1  0  0  0
 29 30  1  0  0  0  0
 29 27  1  0  0  0  0
 30 32  1  0  0  0  0
 31 38  1  6  0  0  0
 31 39  1  0  0  0  0
 31 40  1  0  0  0  0
 32 35  1  0  0  0  0
 33 36  1  6  0  0  0
 33 32  1  0  0  0  0
 33 31  1  0  0  0  0
 34 38  2  0  0  0  0
 35 40  1  0  0  0  0
 35 37  2  0  0  0  0
 38 39  1  0  0  0  0
 42 44  1  0  0  0  0
 42 41  1  0  0  0  0
 43 42  2  0  0  0  0
M  END
>  <MODEL>
3

>  <REMARK>
 VINA RESULT:       0.3      4.494      9.537
  Name = 
  6 active torsions:
  status: ('A' for Active; 'I' for Inactive)
    1  A    between atoms: C_7  and  C_25
    2  A    between atoms: C_9  and  C_32
    3  A    between atoms: N_12  and  C_27
    4  A    between atoms: C_14  and  C_32
    5  A    between atoms: C_18  and  C_25
    6  A    between atoms: C_18  and  C_27
                            x       y       z     vdW  Elec       q    Type
                         _______ _______ _______ _____ _____    ______ ____

>  <TORSDO>
F 6

$$$$
