=
 OpenBabel11072412563D

 70 73  0  0  1  0  0  0  0  0999 V2000
  161.5030  209.7280  149.6160 C   0  0  1  0  0  3  0  0  0  0  0  0
  162.1410  205.6730  147.4740 C   0  0  2  0  0  0  0  0  0  0  0  0
  162.0780  208.2790  147.6680 C   0  0  0  0  0  3  0  0  0  0  0  0
  163.4650  205.1890  146.8920 C   0  0  0  0  0  1  0  0  0  0  0  0
  161.3070  208.5180  148.7260 C   0  0  0  0  0  0  0  0  0  0  0  0
  161.1660  206.3480  149.8540 C   0  0  1  0  0  3  0  0  0  0  0  0
  161.8970  207.0490  146.8120 C   0  0  0  0  0  2  0  0  0  0  0  0
  162.2950  205.7040  149.0090 C   0  0  0  0  0  2  0  0  0  0  0  0
  160.3600  207.4590  149.1940 C   0  0  0  0  0  2  0  0  0  0  0  0
  159.3220  204.7760  149.8010 O   0  0  0  0  0  1  0  0  0  0  0  0
  160.2650  205.3950  150.6310 C   0  0  1  0  0  3  0  0  0  0  0  0
  161.0300  204.3940  151.5260 C   0  0  0  0  0  0  0  0  0  0  0  0
  162.3650  204.0640  150.8770 C   0  0  0  0  0  1  0  0  0  0  0  0
  161.3230  205.0240  152.8840 C   0  0  0  0  0  1  0  0  0  0  0  0
  160.2730  203.0700  151.7190 C   0  0  0  0  0  2  0  0  0  0  0  0
  160.8450  201.9320  150.8860 C   0  0  0  0  0  2  0  0  0  0  0  0
  160.2860  201.9920  149.5490 N   0  0  0  0  0  2  0  0  0  0  0  0
  161.7410  200.1680  148.7930 O   0  0  0  0  0  1  0  0  0  0  0  0
  160.7240  201.0860  148.5350 C   0  0  0  0  0  0  0  0  0  0  0  0
  160.1850  201.1100  147.3970 O   0  0  0  0  0  0  0  0  0  0  0  0
  160.9920  204.7320  147.0720 C   0  0  0  0  0  2  0  0  0  0  0  0
  161.3680  203.6270  146.0770 C   0  0  0  0  0  2  0  0  0  0  0  0
  159.7610  203.2460  144.2480 C   0  0  0  0  0  1  0  0  0  0  0  0
  160.9760  204.0390  144.6700 C   0  0  0  0  0  2  0  0  0  0  0  0
  162.7530  209.6030  150.4940 C   0  0  0  0  0  2  0  0  0  0  0  0
  162.5550  210.1640  151.9030 C   0  0  1  0  0  3  0  0  0  0  0  0
  161.7230  211.2940  151.8720 O   0  0  0  0  0  1  0  0  0  0  0  0
  161.9280  209.0810  152.7600 C   0  0  0  0  0  2  0  0  0  0  0  0
  160.5380  209.1130  152.6110 O   0  0  0  0  0  0  0  0  0  0  0  0
  160.0040  209.0430  153.9080 C   0  0  2  0  0  3  0  0  0  0  0  0
  158.0280  211.7780  155.3630 C   0  0  0  0  0  2  0  0  0  0  0  0
  159.7640  210.4450  154.4910 C   0  0  2  0  0  3  0  0  0  0  0  0
  158.7300  210.4810  155.5930 C   0  0  0  0  0  2  0  0  0  0  0  0
  159.4120  211.3420  153.4580 O   0  0  0  0  0  0  0  0  0  0  0  0
  158.2370  212.0050  153.8870 C   0  0  0  0  0  2  0  0  0  0  0  0
  160.8740  208.1690  154.8330 C   0  0  2  0  0  3  0  0  0  0  0  0
  160.6050  206.8310  154.6110 F   0  0  0  0  0  0  0  0  0  0  0  0
  160.6300  208.4950  156.2280 N   0  0  0  0  0  1  0  0  0  0  0  0
  161.3780  211.0820  148.9160 C   0  0  0  0  0  2  0  0  0  0  0  0
  161.2430  210.9540  147.4030 C   0  0  0  0  0  2  0  0  0  0  0  0
  162.2630  211.8920  146.7930 C   0  0  0  0  0  2  0  0  0  0  0  0
  161.7270  213.3330  146.7030 C   0  0  0  0  0  2  0  0  0  0  0  0
  159.7140  213.8250  143.6320 N   0  0  0  0  0  0  0  0  0  0  0  0
  159.6100  214.3840  137.6880 C   0  0  0  0  0  1  0  0  0  0  0  0
  161.3760  213.6590  145.3300 N   0  0  0  0  0  0  0  0  0  0  0  0
  158.6450  213.3980  141.6740 C   0  0  0  0  0  0  0  0  0  0  0  0
  159.4520  213.4820  138.9000 C   0  0  1  0  0  3  0  0  0  0  0  0
  160.5710  214.1640  142.5760 N   0  0  0  0  0  0  0  0  0  0  0  0
  160.4920  213.7780  140.0210 C   0  0  1  0  0  3  0  0  0  0  0  0
  159.8500  213.8760  141.3850 C   0  0  0  0  0  0  0  0  0  0  0  0
  158.4350  213.3430  143.1380 C   0  0  0  0  0  3  0  0  0  0  0  0
  157.9740  213.2280  139.3060 C   0  0  1  0  0  3  0  0  0  0  0  0
  160.1490  213.5020  144.9470 C   0  0  0  0  0  3  0  0  0  0  0  0
  157.8570  212.6060  140.6970 C   0  0  0  0  0  2  0  0  0  0  0  0
  161.7220  211.7210  139.0910 C   0  0  0  0  0  0  0  0  0  0  0  0
  161.4980  212.7220  140.0850 N   0  0  0  0  0  2  0  0  0  0  0  0
  161.0440  211.7120  138.0270 O   0  0  0  0  0  0  0  0  0  0  0  0
  162.7670  209.6900  138.1880 C   0  0  0  0  0  1  0  0  0  0  0  0
  162.8020  210.7150  139.3110 C   0  0  0  0  0  3  0  0  0  0  0  0
  164.1740  211.3680  139.3520 C   0  0  0  0  0  1  0  0  0  0  0  0
  157.0440  214.4430  139.1430 C   0  0  0  0  0  2  0  0  0  0  0  0
  155.5940  214.0900  139.4530 C   0  0  0  0  0  2  0  0  0  0  0  0
  155.3750  212.5840  139.3500 C   0  0  0  0  0  2  0  0  0  0  0  0
  153.9110  213.1070  137.3270 C   0  0  0  0  0  1  0  0  0  0  0  0
  154.8910  212.1060  137.9630 C   0  0  2  0  0  0  0  0  0  0  0  0
  154.2910  210.1070  139.2010 O   0  0  0  0  0  1  0  0  0  0  0  0
  154.2130  210.7510  138.1080 C   0  0  0  0  0  0  0  0  0  0  0  0
  153.4720  210.2190  137.0510 O   0  0  0  0  0  0  0  0  0  0  0  0
  157.0740  210.8440  137.3760 C   0  0  0  0  0  1  0  0  0  0  0  0
  156.1360  212.0240  137.0620 C   0  0  0  0  0  2  0  0  0  0  0  0
  1 39  1  6  0  0  0
  1 25  1  0  0  0  0
  2  4  1  6  0  0  0
  2  8  1  0  0  0  0
  3  5  2  0  0  0  0
  5  9  1  0  0  0  0
  5  1  1  0  0  0  0
  6 11  1  6  0  0  0
  7  2  1  0  0  0  0
  7  3  1  0  0  0  0
  8  6  1  0  0  0  0
  9  6  1  0  0  0  0
 11 10  1  6  0  0  0
 11 12  1  0  0  0  0
 12 15  1  0  0  0  0
 12 14  1  0  0  0  0
 13 12  1  0  0  0  0
 16 15  1  0  0  0  0
 17 16  1  0  0  0  0
 19 18  1  0  0  0  0
 19 17  1  0  0  0  0
 20 19  2  0  0  0  0
 21  2  1  0  0  0  0
 22 21  1  0  0  0  0
 23 24  1  0  0  0  0
 24 22  1  0  0  0  0
 25 26  1  0  0  0  0
 26 27  1  6  0  0  0
 26 28  1  0  0  0  0
 29 28  1  0  0  0  0
 30 29  1  6  0  0  0
 30 36  1  0  0  0  0
 31 33  1  0  0  0  0
 32 30  1  6  0  0  0
 32 33  1  0  0  0  0
 34 35  1  0  0  0  0
 34 32  1  0  0  0  0
 35 31  1  0  0  0  0
 36 37  1  1  0  0  0
 36 38  1  0  0  0  0
 40 39  1  0  0  0  0
 41 40  1  0  0  0  0
 42 41  1  0  0  0  0
 43 53  1  0  0  0  0
 45 42  1  0  0  0  0
 46 51  2  0  0  0  0
 47 44  1  6  0  0  0
 47 52  1  0  0  0  0
 47 49  1  0  0  0  0
 48 43  1  0  0  0  0
 49 56  1  1  0  0  0
 49 50  1  0  0  0  0
 50 46  1  0  0  0  0
 50 48  2  0  0  0  0
 51 43  1  0  0  0  0
 52 61  1  1  0  0  0
 52 54  1  0  0  0  0
 53 45  2  0  0  0  0
 54 46  1  0  0  0  0
 55 59  1  0  0  0  0
 55 56  1  0  0  0  0
 57 55  2  0  0  0  0
 58 59  1  0  0  0  0
 59 60  1  0  0  0  0
 61 62  1  0  0  0  0
 63 62  1  0  0  0  0
 65 64  1  6  0  0  0
 65 67  1  0  0  0  0
 65 63  1  0  0  0  0
 67 66  1  0  0  0  0
 68 67  2  0  0  0  0
 70 69  1  0  0  0  0
 70 65  1  0  0  0  0
M  END
>  <MODEL>
1

>  <REMARK>
 VINA RESULT:      -0.6      0.000      0.000
  Name = 
  29 active torsions:
  status: ('A' for Active; 'I' for Inactive)
    1  A    between atoms: C_1  and  C_46
    2  A    between atoms: C_1  and  C_65
    3  A    between atoms: N_2  and  C_15
    4  A    between atoms: C_3  and  O_5
    5  A    between atoms: C_3  and  C_13
    6  A    between atoms: C_3  and  C_27
    7  A    between atoms: O_5  and  C_60
    8  A    between atoms: C_8  and  C_23
    9  A    between atoms: C_9  and  N_17
   10  A    between atoms: C_9  and  C_46
   11  A    between atoms: C_14  and  C_20
   12  A    between atoms: C_14  and  C_56
   13  A    between atoms: C_15  and  C_69
   14  A    between atoms: C_16  and  C_32
   15  A    between atoms: C_20  and  C_24
   16  A    between atoms: C_21  and  C_23
   17  A    between atoms: C_21  and  C_38
   18  A    between atoms: C_24  and  C_55
   19  A    between atoms: C_31  and  N_63
   20  A    between atoms: C_33  and  C_56
   21  A    between atoms: C_37  and  C_41
   22  A    between atoms: C_37  and  C_69
   23  A    between atoms: C_40  and  C_56
   24  A    between atoms: C_41  and  C_57
   25  A    between atoms: C_43  and  C_47
   26  A    between atoms: C_43  and  C_51
   27  A    between atoms: C_43  and  C_65
   28  A    between atoms: C_47  and  C_48
   29  A    between atoms: C_48  and  C_60
                            x       y       z     vdW  Elec       q    Type
                         _______ _______ _______ _____ _____    ______ ____

>  <TORSDO>
F 29

$$$$
=
 OpenBabel11072412563D

 70 73  0  0  1  0  0  0  0  0999 V2000
  161.2290  211.7800  148.3480 C   0  0  1  0  0  3  0  0  0  0  0  0
  158.3040  213.4680  151.5160 C   0  0  2  0  0  0  0  0  0  0  0  0
  159.4810  213.3510  149.1850 C   0  0  0  0  0  3  0  0  0  0  0  0
  156.7860  213.5080  151.3730 C   0  0  0  0  0  1  0  0  0  0  0  0
  160.5960  212.6600  149.4070 C   0  0  0  0  0  0  0  0  0  0  0  0
  160.2260  211.6320  151.5990 C   0  0  1  0  0  3  0  0  0  0  0  0
  158.8400  214.1940  150.2600 C   0  0  0  0  0  2  0  0  0  0  0  0
  158.7180  211.9870  151.6410 C   0  0  0  0  0  2  0  0  0  0  0  0
  161.1300  212.5630  150.8000 C   0  0  0  0  0  2  0  0  0  0  0  0
  161.1230  212.3430  153.7350 O   0  0  0  0  0  1  0  0  0  0  0  0
  160.8710  211.2330  152.9210 C   0  0  1  0  0  3  0  0  0  0  0  0
  160.1340  210.0950  153.6640 C   0  0  0  0  0  0  0  0  0  0  0  0
  158.6770  210.4900  153.8580 C   0  0  0  0  0  1  0  0  0  0  0  0
  160.1570  208.8220  152.8240 C   0  0  0  0  0  1  0  0  0  0  0  0
  160.7230  209.8130  155.0550 C   0  0  0  0  0  2  0  0  0  0  0  0
  161.7870  208.7250  155.0390 C   0  0  0  0  0  2  0  0  0  0  0  0
  161.5840  207.8420  156.1710 N   0  0  0  0  0  2  0  0  0  0  0  0
  159.7690  206.6710  155.0090 O   0  0  0  0  0  0  0  0  0  0  0  0
  160.5980  206.8100  156.1210 C   0  0  0  0  0  0  0  0  0  0  0  0
  160.4770  206.0110  157.0870 O   0  0  0  0  0  1  0  0  0  0  0  0
  158.7560  214.2540  152.7590 C   0  0  0  0  0  2  0  0  0  0  0  0
  157.8430  214.1210  153.9850 C   0  0  0  0  0  2  0  0  0  0  0  0
  155.7550  212.9270  154.5210 C   0  0  0  0  0  1  0  0  0  0  0  0
  156.4130  213.8740  153.5440 C   0  0  0  0  0  2  0  0  0  0  0  0
  160.9650  210.2920  148.6010 C   0  0  0  0  0  2  0  0  0  0  0  0
  162.1660  209.4050  148.2710 C   0  0  1  0  0  3  0  0  0  0  0  0
  163.3670  210.0950  148.4960 O   0  0  0  0  0  1  0  0  0  0  0  0
  162.1010  208.1730  149.1530 C   0  0  0  0  0  2  0  0  0  0  0  0
  162.7330  207.1030  148.5090 O   0  0  0  0  0  0  0  0  0  0  0  0
  162.0910  205.9400  148.9650 C   0  0  2  0  0  3  0  0  0  0  0  0
  162.0770  203.3950  146.3150 C   0  0  0  0  0  2  0  0  0  0  0  0
  161.5010  205.1320  147.7990 C   0  0  2  0  0  3  0  0  0  0  0  0
  161.9380  203.6850  147.7730 C   0  0  0  0  0  2  0  0  0  0  0  0
  161.8110  205.7600  146.5720 O   0  0  0  0  0  0  0  0  0  0  0  0
  162.3590  204.7590  145.7360 C   0  0  0  0  0  2  0  0  0  0  0  0
  161.0380  206.2580  150.0450 C   0  0  2  0  0  3  0  0  0  0  0  0
  161.6610  206.6980  151.1990 F   0  0  0  0  0  0  0  0  0  0  0  0
  160.2310  205.0860  150.3380 N   0  0  0  0  0  1  0  0  0  0  0  0
  160.9770  212.2100  146.9020 C   0  0  0  0  0  2  0  0  0  0  0  0
  159.6320  211.7280  146.3700 C   0  0  0  0  0  2  0  0  0  0  0  0
  158.5830  212.6760  146.9110 C   0  0  0  0  0  2  0  0  0  0  0  0
  157.5790  213.0940  145.8200 C   0  0  0  0  0  2  0  0  0  0  0  0
  159.1520  213.2620  142.4700 N   0  0  0  0  0  0  0  0  0  0  0  0
  159.7250  210.8750  137.0260 C   0  0  0  0  0  1  0  0  0  0  0  0
  158.0590  212.6910  144.5080 N   0  0  0  0  0  0  0  0  0  0  0  0
  159.4230  213.5920  140.2400 C   0  0  0  0  0  0  0  0  0  0  0  0
  159.0600  211.9130  137.9150 C   0  0  1  0  0  3  0  0  0  0  0  0
  158.9560  212.0380  141.8140 N   0  0  0  0  0  0  0  0  0  0  0  0
  158.7050  211.3680  139.3290 C   0  0  1  0  0  3  0  0  0  0  0  0
  159.1370  212.3090  140.4300 C   0  0  0  0  0  0  0  0  0  0  0  0
  159.4840  214.3170  141.5280 C   0  0  0  0  0  3  0  0  0  0  0  0
  159.6840  213.3320  137.8000 C   0  0  1  0  0  3  0  0  0  0  0  0
  158.6270  213.5770  143.7540 C   0  0  0  0  0  3  0  0  0  0  0  0
  159.2260  214.2560  138.9260 C   0  0  0  0  0  2  0  0  0  0  0  0
  156.4100  210.5730  138.4850 C   0  0  0  0  0  0  0  0  0  0  0  0
  157.2650  211.1720  139.4610 N   0  0  0  0  0  2  0  0  0  0  0  0
  156.8860  210.1280  137.4060 O   0  0  0  0  0  0  0  0  0  0  0  0
  154.3570  211.8270  138.9800 C   0  0  0  0  0  1  0  0  0  0  0  0
  154.9550  210.4420  138.7840 C   0  0  0  0  0  3  0  0  0  0  0  0
  154.2150  209.7310  137.6620 C   0  0  0  0  0  1  0  0  0  0  0  0
  161.2140  213.3490  137.6320 C   0  0  0  0  0  2  0  0  0  0  0  0
  161.8340  211.9980  137.9720 C   0  0  0  0  0  2  0  0  0  0  0  0
  163.3560  212.0730  137.9000 C   0  0  0  0  0  2  0  0  0  0  0  0
  165.5100  211.6210  139.1890 C   0  0  0  0  0  1  0  0  0  0  0  0
  164.0550  212.1110  139.2780 C   0  0  2  0  0  0  0  0  0  0  0  0
  163.7350  210.1060  140.6040 O   0  0  0  0  0  0  0  0  0  0  0  0
  163.2830  211.2410  140.2570 C   0  0  0  0  0  0  0  0  0  0  0  0
  162.0840  211.6980  140.8100 O   0  0  0  0  0  1  0  0  0  0  0  0
  163.1280  213.9130  140.8890 C   0  0  0  0  0  1  0  0  0  0  0  0
  164.0790  213.5850  139.7230 C   0  0  0  0  0  2  0  0  0  0  0  0
  1 39  1  6  0  0  0
  1 25  1  0  0  0  0
  1  5  1  0  0  0  0
  2  4  1  6  0  0  0
  2  8  1  0  0  0  0
  2 21  1  0  0  0  0
  3  5  2  0  0  0  0
  3  7  1  0  0  0  0
  5  9  1  0  0  0  0
  6  8  1  0  0  0  0
  6 11  1  1  0  0  0
  7  2  1  0  0  0  0
  9  6  1  0  0  0  0
 11 12  1  0  0  0  0
 11 10  1  1  0  0  0
 12 13  1  0  0  0  0
 12 15  1  0  0  0  0
 14 12  1  0  0  0  0
 16 15  1  0  0  0  0
 16 17  1  0  0  0  0
 18 19  2  0  0  0  0
 19 17  1  0  0  0  0
 19 20  1  0  0  0  0
 21 22  1  0  0  0  0
 24 22  1  0  0  0  0
 24 23  1  0  0  0  0
 26 27  1  1  0  0  0
 26 25  1  0  0  0  0
 26 28  1  0  0  0  0
 29 28  1  0  0  0  0
 30 29  1  6  0  0  0
 30 36  1  0  0  0  0
 31 33  1  0  0  0  0
 32 30  1  1  0  0  0
 33 32  1  0  0  0  0
 34 32  1  0  0  0  0
 35 31  1  0  0  0  0
 35 34  1  0  0  0  0
 36 38  1  1  0  0  0
 36 37  1  0  0  0  0
 40 39  1  0  0  0  0
 40 41  1  0  0  0  0
 42 41  1  0  0  0  0
 43 53  1  0  0  0  0
 45 42  1  0  0  0  0
 46 50  1  0  0  0  0
 46 51  2  0  0  0  0
 47 44  1  1  0  0  0
 47 49  1  0  0  0  0
 48 43  1  0  0  0  0
 49 56  1  6  0  0  0
 49 50  1  0  0  0  0
 50 48  2  0  0  0  0
 51 43  1  0  0  0  0
 52 61  1  1  0  0  0
 52 47  1  0  0  0  0
 52 54  1  0  0  0  0
 53 45  2  0  0  0  0
 54 46  1  0  0  0  0
 55 59  1  0  0  0  0
 55 56  1  0  0  0  0
 57 55  2  0  0  0  0
 59 58  1  0  0  0  0
 60 59  1  0  0  0  0
 61 62  1  0  0  0  0
 63 62  1  0  0  0  0
 63 65  1  0  0  0  0
 65 64  1  6  0  0  0
 65 70  1  0  0  0  0
 65 67  1  0  0  0  0
 67 66  2  0  0  0  0
 67 68  1  0  0  0  0
 70 69  1  0  0  0  0
M  END
>  <MODEL>
2

>  <REMARK>
 VINA RESULT:       0.6      2.333      7.466
  Name = 
  29 active torsions:
  status: ('A' for Active; 'I' for Inactive)
    1  A    between atoms: C_1  and  C_46
    2  A    between atoms: C_1  and  C_65
    3  A    between atoms: N_2  and  C_15
    4  A    between atoms: C_3  and  O_5
    5  A    between atoms: C_3  and  C_13
    6  A    between atoms: C_3  and  C_27
    7  A    between atoms: O_5  and  C_60
    8  A    between atoms: C_8  and  C_23
    9  A    between atoms: C_9  and  N_17
   10  A    between atoms: C_9  and  C_46
   11  A    between atoms: C_14  and  C_20
   12  A    between atoms: C_14  and  C_56
   13  A    between atoms: C_15  and  C_69
   14  A    between atoms: C_16  and  C_32
   15  A    between atoms: C_20  and  C_24
   16  A    between atoms: C_21  and  C_23
   17  A    between atoms: C_21  and  C_38
   18  A    between atoms: C_24  and  C_55
   19  A    between atoms: C_31  and  N_63
   20  A    between atoms: C_33  and  C_56
   21  A    between atoms: C_37  and  C_41
   22  A    between atoms: C_37  and  C_69
   23  A    between atoms: C_40  and  C_56
   24  A    between atoms: C_41  and  C_57
   25  A    between atoms: C_43  and  C_47
   26  A    between atoms: C_43  and  C_51
   27  A    between atoms: C_43  and  C_65
   28  A    between atoms: C_47  and  C_48
   29  A    between atoms: C_48  and  C_60
                            x       y       z     vdW  Elec       q    Type
                         _______ _______ _______ _____ _____    ______ ____

>  <TORSDO>
F 29

$$$$
=
 OpenBabel11072412563D

 70 73  0  0  1  0  0  0  0  0999 V2000
  161.6620  209.6560  149.6960 C   0  0  1  0  0  3  0  0  0  0  0  0
  162.2400  205.6270  147.4900 C   0  0  2  0  0  0  0  0  0  0  0  0
  162.0930  208.2280  147.6960 C   0  0  0  0  0  3  0  0  0  0  0  0
  163.5160  205.1950  146.7750 C   0  0  0  0  0  1  0  0  0  0  0  0
  161.4240  208.4380  148.8280 C   0  0  0  0  0  0  0  0  0  0  0  0
  161.4870  206.2670  149.9590 C   0  0  1  0  0  3  0  0  0  0  0  0
  161.8740  206.9900  146.8600 C   0  0  0  0  0  2  0  0  0  0  0  0
  162.5480  205.6660  149.0010 C   0  0  0  0  0  2  0  0  0  0  0  0
  160.5740  207.3430  149.3870 C   0  0  0  0  0  2  0  0  0  0  0  0
  160.1220  204.2650  150.0540 O   0  0  0  0  0  1  0  0  0  0  0  0
  160.7090  205.2790  150.8220 C   0  0  1  0  0  3  0  0  0  0  0  0
  161.5030  204.7360  152.0310 C   0  0  0  0  0  0  0  0  0  0  0  0
  161.4410  203.2160  152.0260 C   0  0  0  0  0  1  0  0  0  0  0  0
  162.9710  205.1360  151.9160 C   0  0  0  0  0  1  0  0  0  0  0  0
  160.9370  205.2150  153.3780 C   0  0  0  0  0  2  0  0  0  0  0  0
  160.2690  206.5790  153.2890 C   0  0  0  0  0  2  0  0  0  0  0  0
  160.5490  207.3280  154.4990 N   0  0  0  0  0  2  0  0  0  0  0  0
  158.4580  206.5640  155.5290 O   0  0  0  0  0  0  0  0  0  0  0  0
  159.6510  207.2800  155.6090 C   0  0  0  0  0  0  0  0  0  0  0  0
  159.9390  207.8860  156.6750 O   0  0  0  0  0  1  0  0  0  0  0  0
  161.0940  204.6390  147.2060 C   0  0  0  0  0  2  0  0  0  0  0  0
  161.5000  203.3640  146.4560 C   0  0  0  0  0  2  0  0  0  0  0  0
  160.8540  201.0310  145.9930 C   0  0  0  0  0  1  0  0  0  0  0  0
  160.3420  202.3840  146.4320 C   0  0  0  0  0  2  0  0  0  0  0  0
  162.9710  209.5570  150.4850 C   0  0  0  0  0  2  0  0  0  0  0  0
  163.0670  210.5790  151.6180 C   0  0  1  0  0  3  0  0  0  0  0  0
  162.9120  211.8830  151.1220 O   0  0  0  0  0  1  0  0  0  0  0  0
  161.9750  210.2740  152.6260 C   0  0  0  0  0  2  0  0  0  0  0  0
  162.5390  210.1310  153.8980 O   0  0  0  0  0  0  0  0  0  0  0  0
  161.4970  210.3510  154.8140 C   0  0  2  0  0  3  0  0  0  0  0  0
  158.7180  212.7460  154.9970 C   0  0  0  0  0  2  0  0  0  0  0  0
  160.7490  211.6580  154.5080 C   0  0  2  0  0  3  0  0  0  0  0  0
  159.9250  212.1770  155.6640 C   0  0  0  0  0  2  0  0  0  0  0  0
  159.9370  211.4900  153.3640 O   0  0  0  0  0  0  0  0  0  0  0  0
  158.6460  211.9520  153.7170 C   0  0  0  0  0  2  0  0  0  0  0  0
  162.0020  210.2970  156.2700 C   0  0  2  0  0  3  0  0  0  0  0  0
  162.3230  211.5690  156.7070 F   0  0  0  0  0  0  0  0  0  0  0  0
  163.1630  209.4310  156.3800 N   0  0  0  0  0  1  0  0  0  0  0  0
  161.4670  211.0040  148.9990 C   0  0  0  0  0  2  0  0  0  0  0  0
  161.4390  210.8840  147.4790 C   0  0  0  0  0  2  0  0  0  0  0  0
  162.2990  212.0070  146.9380 C   0  0  0  0  0  2  0  0  0  0  0  0
  161.4810  213.2930  146.7180 C   0  0  0  0  0  2  0  0  0  0  0  0
  159.8460  213.7580  143.4260 N   0  0  0  0  0  0  0  0  0  0  0  0
  160.3870  213.8550  137.4800 C   0  0  0  0  0  1  0  0  0  0  0  0
  161.3060  213.5460  145.2970 N   0  0  0  0  0  0  0  0  0  0  0  0
  158.9310  213.2970  141.4000 C   0  0  0  0  0  0  0  0  0  0  0  0
  160.0080  213.0740  138.7270 C   0  0  1  0  0  3  0  0  0  0  0  0
  160.8360  213.9180  142.4460 N   0  0  0  0  0  0  0  0  0  0  0  0
  160.9610  213.3420  139.9280 C   0  0  1  0  0  3  0  0  0  0  0  0
  160.2050  213.6170  141.2080 C   0  0  0  0  0  0  0  0  0  0  0  0
  158.5740  213.3810  142.8340 C   0  0  0  0  0  3  0  0  0  0  0  0
  158.4770  213.0150  138.9910 C   0  0  1  0  0  3  0  0  0  0  0  0
  160.1120  213.4940  144.7990 C   0  0  0  0  0  3  0  0  0  0  0  0
  158.1550  212.5210  140.4000 C   0  0  0  0  0  2  0  0  0  0  0  0
  161.5680  210.8500  139.7510 C   0  0  0  0  0  0  0  0  0  0  0  0
  161.8260  212.1920  140.1690 N   0  0  0  0  0  2  0  0  0  0  0  0
  160.5320  210.5750  139.0860 O   0  0  0  0  0  0  0  0  0  0  0  0
  162.1640  208.4960  139.3800 C   0  0  0  0  0  1  0  0  0  0  0  0
  162.5650  209.7890  140.0740 C   0  0  0  0  0  3  0  0  0  0  0  0
  163.9650  210.1830  139.6300 C   0  0  0  0  0  1  0  0  0  0  0  0
  157.7160  214.3080  138.6490 C   0  0  0  0  0  2  0  0  0  0  0  0
  156.2350  214.0410  138.4000 C   0  0  0  0  0  2  0  0  0  0  0  0
  155.8380  212.6740  138.9460 C   0  0  0  0  0  2  0  0  0  0  0  0
  154.0810  211.2370  140.1100 C   0  0  0  0  0  1  0  0  0  0  0  0
  154.3730  212.5840  139.4280 C   0  0  2  0  0  0  0  0  0  0  0  0
  153.1070  211.7710  137.5250 O   0  0  0  0  0  0  0  0  0  0  0  0
  153.4410  212.7670  138.2400 C   0  0  0  0  0  0  0  0  0  0  0  0
  152.9180  214.0280  137.9430 O   0  0  0  0  0  1  0  0  0  0  0  0
  152.7210  214.1470  140.6680 C   0  0  0  0  0  1  0  0  0  0  0  0
  154.1810  213.6960  140.4760 C   0  0  0  0  0  2  0  0  0  0  0  0
  1 39  1  6  0  0  0
  1 25  1  0  0  0  0
  2  4  1  6  0  0  0
  2  8  1  0  0  0  0
  3  5  2  0  0  0  0
  5  9  1  0  0  0  0
  5  1  1  0  0  0  0
  6 11  1  6  0  0  0
  7  2  1  0  0  0  0
  7  3  1  0  0  0  0
  8  6  1  0  0  0  0
  9  6  1  0  0  0  0
 11 10  1  6  0  0  0
 11 12  1  0  0  0  0
 12 15  1  0  0  0  0
 13 12  1  0  0  0  0
 14 12  1  0  0  0  0
 16 15  1  0  0  0  0
 16 17  1  0  0  0  0
 17 19  1  0  0  0  0
 18 19  2  0  0  0  0
 19 20  1  0  0  0  0
 21  2  1  0  0  0  0
 22 21  1  0  0  0  0
 23 24  1  0  0  0  0
 24 22  1  0  0  0  0
 25 26  1  0  0  0  0
 26 27  1  6  0  0  0
 26 28  1  0  0  0  0
 28 29  1  0  0  0  0
 30 29  1  6  0  0  0
 30 36  1  0  0  0  0
 31 33  1  0  0  0  0
 32 30  1  1  0  0  0
 32 33  1  0  0  0  0
 34 35  1  0  0  0  0
 34 32  1  0  0  0  0
 35 31  1  0  0  0  0
 36 38  1  6  0  0  0
 36 37  1  0  0  0  0
 40 39  1  0  0  0  0
 41 40  1  0  0  0  0
 42 41  1  0  0  0  0
 43 53  1  0  0  0  0
 45 42  1  0  0  0  0
 46 51  2  0  0  0  0
 47 44  1  6  0  0  0
 47 52  1  0  0  0  0
 47 49  1  0  0  0  0
 48 43  1  0  0  0  0
 49 56  1  1  0  0  0
 49 50  1  0  0  0  0
 50 46  1  0  0  0  0
 50 48  2  0  0  0  0
 51 43  1  0  0  0  0
 52 61  1  1  0  0  0
 52 54  1  0  0  0  0
 53 45  2  0  0  0  0
 54 46  1  0  0  0  0
 55 59  1  0  0  0  0
 55 56  1  0  0  0  0
 57 55  2  0  0  0  0
 58 59  1  0  0  0  0
 60 59  1  0  0  0  0
 62 61  1  0  0  0  0
 62 63  1  0  0  0  0
 63 65  1  0  0  0  0
 65 64  1  1  0  0  0
 65 70  1  0  0  0  0
 66 67  2  0  0  0  0
 67 65  1  0  0  0  0
 68 67  1  0  0  0  0
 70 69  1  0  0  0  0
M  END
>  <MODEL>
3

>  <REMARK>
 VINA RESULT:       0.8      1.789      2.971
  Name = 
  29 active torsions:
  status: ('A' for Active; 'I' for Inactive)
    1  A    between atoms: C_1  and  C_46
    2  A    between atoms: C_1  and  C_65
    3  A    between atoms: N_2  and  C_15
    4  A    between atoms: C_3  and  O_5
    5  A    between atoms: C_3  and  C_13
    6  A    between atoms: C_3  and  C_27
    7  A    between atoms: O_5  and  C_60
    8  A    between atoms: C_8  and  C_23
    9  A    between atoms: C_9  and  N_17
   10  A    between atoms: C_9  and  C_46
   11  A    between atoms: C_14  and  C_20
   12  A    between atoms: C_14  and  C_56
   13  A    between atoms: C_15  and  C_69
   14  A    between atoms: C_16  and  C_32
   15  A    between atoms: C_20  and  C_24
   16  A    between atoms: C_21  and  C_23
   17  A    between atoms: C_21  and  C_38
   18  A    between atoms: C_24  and  C_55
   19  A    between atoms: C_31  and  N_63
   20  A    between atoms: C_33  and  C_56
   21  A    between atoms: C_37  and  C_41
   22  A    between atoms: C_37  and  C_69
   23  A    between atoms: C_40  and  C_56
   24  A    between atoms: C_41  and  C_57
   25  A    between atoms: C_43  and  C_47
   26  A    between atoms: C_43  and  C_51
   27  A    between atoms: C_43  and  C_65
   28  A    between atoms: C_47  and  C_48
   29  A    between atoms: C_48  and  C_60
                            x       y       z     vdW  Elec       q    Type
                         _______ _______ _______ _____ _____    ______ ____

>  <TORSDO>
F 29

$$$$
=
 OpenBabel11072412563D

 70 73  0  0  1  0  0  0  0  0999 V2000
  161.2170  211.7660  148.3440 C   0  0  1  0  0  3  0  0  0  0  0  0
  158.5600  213.3990  151.7660 C   0  0  2  0  0  0  0  0  0  0  0  0
  159.7110  213.4390  149.4200 C   0  0  0  0  0  3  0  0  0  0  0  0
  157.0630  213.6740  151.6580 C   0  0  0  0  0  1  0  0  0  0  0  0
  160.7160  212.5720  149.5250 C   0  0  0  0  0  0  0  0  0  0  0  0
  160.1980  211.3140  151.5610 C   0  0  1  0  0  3  0  0  0  0  0  0
  159.1960  214.2080  150.6120 C   0  0  0  0  0  2  0  0  0  0  0  0
  158.7560  211.8720  151.6790 C   0  0  0  0  0  2  0  0  0  0  0  0
  161.2280  212.2080  150.8810 C   0  0  0  0  0  2  0  0  0  0  0  0
  159.8490  209.7970  153.4190 O   0  0  0  0  0  1  0  0  0  0  0  0
  160.7760  210.6470  152.8040 C   0  0  1  0  0  3  0  0  0  0  0  0
  162.1520  209.9800  152.5800 C   0  0  0  0  0  0  0  0  0  0  0  0
  161.9400  208.5600  152.0760 C   0  0  0  0  0  1  0  0  0  0  0  0
  162.9310  210.7350  151.5090 C   0  0  0  0  0  1  0  0  0  0  0  0
  162.9870  209.8910  153.8670 C   0  0  0  0  0  2  0  0  0  0  0  0
  162.2750  210.4760  155.0780 C   0  0  0  0  0  2  0  0  0  0  0  0
  161.0830  209.6980  155.3540 N   0  0  0  0  0  2  0  0  0  0  0  0
  162.2100  208.5070  157.1790 O   0  0  0  0  0  1  0  0  0  0  0  0
  161.0650  208.7490  156.4220 C   0  0  0  0  0  0  0  0  0  0  0  0
  160.0030  208.1260  156.6880 O   0  0  0  0  0  0  0  0  0  0  0  0
  159.1180  213.9330  153.0970 C   0  0  0  0  0  2  0  0  0  0  0  0
  159.4440  212.8630  154.1470 C   0  0  0  0  0  2  0  0  0  0  0  0
  157.8080  214.0450  155.5600 C   0  0  0  0  0  1  0  0  0  0  0  0
  159.1750  213.4020  155.5390 C   0  0  0  0  0  2  0  0  0  0  0  0
  160.9000  210.2740  148.4870 C   0  0  0  0  0  2  0  0  0  0  0  0
  161.9340  209.3730  147.8120 C   0  0  1  0  0  3  0  0  0  0  0  0
  163.1770  210.0210  147.7310 O   0  0  0  0  0  1  0  0  0  0  0  0
  162.0630  208.1030  148.6320 C   0  0  0  0  0  2  0  0  0  0  0  0
  160.8060  207.5070  148.7720 O   0  0  0  0  0  0  0  0  0  0  0  0
  160.9990  206.1320  148.5560 C   0  0  2  0  0  3  0  0  0  0  0  0
  161.2450  203.6990  151.2980 C   0  0  0  0  0  2  0  0  0  0  0  0
  161.6380  205.4580  149.7800 C   0  0  2  0  0  3  0  0  0  0  0  0
  161.4200  203.9630  149.8390 C   0  0  0  0  0  2  0  0  0  0  0  0
  161.1700  206.0690  150.9650 O   0  0  0  0  0  0  0  0  0  0  0  0
  160.7320  205.0210  151.8110 C   0  0  0  0  0  2  0  0  0  0  0  0
  161.7960  205.8670  147.2640 C   0  0  2  0  0  3  0  0  0  0  0  0
  161.3980  204.6690  146.6990 F   0  0  0  0  0  0  0  0  0  0  0  0
  163.2230  205.8320  147.5370 N   0  0  0  0  0  1  0  0  0  0  0  0
  160.8720  212.3370  146.9680 C   0  0  0  0  0  2  0  0  0  0  0  0
  159.4220  212.0830  146.5700 C   0  0  0  0  0  2  0  0  0  0  0  0
  158.6150  213.2500  147.0970 C   0  0  0  0  0  2  0  0  0  0  0  0
  157.5600  213.7170  146.0770 C   0  0  0  0  0  2  0  0  0  0  0  0
  158.9670  213.3790  142.6670 N   0  0  0  0  0  0  0  0  0  0  0  0
  158.6180  210.8230  137.2820 C   0  0  0  0  0  1  0  0  0  0  0  0
  157.8510  213.1720  144.7610 N   0  0  0  0  0  0  0  0  0  0  0  0
  159.2190  213.5780  140.4190 C   0  0  0  0  0  0  0  0  0  0  0  0
  158.3050  212.0200  138.1620 C   0  0  1  0  0  3  0  0  0  0  0  0
  158.4130  212.2450  142.0570 N   0  0  0  0  0  0  0  0  0  0  0  0
  157.8770  211.6230  139.6050 C   0  0  1  0  0  3  0  0  0  0  0  0
  158.6000  212.4280  140.6590 C   0  0  0  0  0  0  0  0  0  0  0  0
  159.5350  214.2830  141.6810 C   0  0  0  0  0  3  0  0  0  0  0  0
  159.2900  213.2090  137.9800 C   0  0  1  0  0  3  0  0  0  0  0  0
  158.6080  213.8510  143.9600 C   0  0  0  0  0  3  0  0  0  0  0  0
  159.1550  214.2450  139.0940 C   0  0  0  0  0  2  0  0  0  0  0  0
  155.3990  211.1190  139.1380 C   0  0  0  0  0  0  0  0  0  0  0  0
  156.4450  211.8350  139.7970 N   0  0  0  0  0  2  0  0  0  0  0  0
  155.6700  210.1890  138.3310 O   0  0  0  0  0  0  0  0  0  0  0  0
  153.4800  212.4940  138.4620 C   0  0  0  0  0  1  0  0  0  0  0  0
  153.9820  211.4580  139.4570 C   0  0  0  0  0  3  0  0  0  0  0  0
  153.0860  210.2310  139.3970 C   0  0  0  0  0  1  0  0  0  0  0  0
  160.7560  212.7990  137.7550 C   0  0  0  0  0  2  0  0  0  0  0  0
  160.8680  211.3740  137.2240 C   0  0  0  0  0  2  0  0  0  0  0  0
  162.1470  210.7130  137.7280 C   0  0  0  0  0  2  0  0  0  0  0  0
  160.5720  210.0180  139.6100 C   0  0  0  0  0  1  0  0  0  0  0  0
  162.0360  210.1130  139.1470 C   0  0  2  0  0  0  0  0  0  0  0  0
  162.4890  211.0340  141.3460 O   0  0  0  0  0  1  0  0  0  0  0  0
  162.8230  210.9780  140.1210 C   0  0  0  0  0  0  0  0  0  0  0  0
  163.9400  211.6920  139.6830 O   0  0  0  0  0  0  0  0  0  0  0  0
  161.9110  207.7790  138.0350 C   0  0  0  0  0  1  0  0  0  0  0  0
  162.6020  208.6840  139.0710 C   0  0  0  0  0  2  0  0  0  0  0  0
  1 39  1  6  0  0  0
  1 25  1  0  0  0  0
  1  5  1  0  0  0  0
  2  4  1  6  0  0  0
  2 21  1  0  0  0  0
  3  5  2  0  0  0  0
  3  7  1  0  0  0  0
  5  9  1  0  0  0  0
  6  8  1  0  0  0  0
  6 11  1  1  0  0  0
  7  2  1  0  0  0  0
  8  2  1  0  0  0  0
  9  6  1  0  0  0  0
 11 10  1  6  0  0  0
 12 11  1  0  0  0  0
 12 15  1  0  0  0  0
 13 12  1  0  0  0  0
 14 12  1  0  0  0  0
 15 16  1  0  0  0  0
 16 17  1  0  0  0  0
 17 19  1  0  0  0  0
 19 20  2  0  0  0  0
 19 18  1  0  0  0  0
 21 22  1  0  0  0  0
 22 24  1  0  0  0  0
 24 23  1  0  0  0  0
 26 27  1  1  0  0  0
 26 25  1  0  0  0  0
 26 28  1  0  0  0  0
 28 29  1  0  0  0  0
 30 29  1  1  0  0  0
 31 35  1  0  0  0  0
 32 30  1  6  0  0  0
 32 33  1  0  0  0  0
 32 34  1  0  0  0  0
 33 31  1  0  0  0  0
 34 35  1  0  0  0  0
 36 37  1  1  0  0  0
 36 38  1  0  0  0  0
 36 30  1  0  0  0  0
 40 39  1  0  0  0  0
 40 41  1  0  0  0  0
 42 41  1  0  0  0  0
 43 53  1  0  0  0  0
 45 42  1  0  0  0  0
 46 50  1  0  0  0  0
 46 51  2  0  0  0  0
 47 44  1  1  0  0  0
 47 49  1  0  0  0  0
 48 43  1  0  0  0  0
 49 56  1  6  0  0  0
 49 50  1  0  0  0  0
 50 48  2  0  0  0  0
 51 43  1  0  0  0  0
 52 61  1  1  0  0  0
 52 47  1  0  0  0  0
 52 54  1  0  0  0  0
 53 45  2  0  0  0  0
 54 46  1  0  0  0  0
 55 59  1  0  0  0  0
 55 56  1  0  0  0  0
 57 55  2  0  0  0  0
 58 59  1  0  0  0  0
 60 59  1  0  0  0  0
 62 63  1  0  0  0  0
 62 61  1  0  0  0  0
 63 65  1  0  0  0  0
 65 64  1  1  0  0  0
 65 67  1  0  0  0  0
 67 66  1  0  0  0  0
 68 67  2  0  0  0  0
 69 70  1  0  0  0  0
 70 65  1  0  0  0  0
M  END
>  <MODEL>
4

>  <REMARK>
 VINA RESULT:       1.0      2.445      7.345
  Name = 
  29 active torsions:
  status: ('A' for Active; 'I' for Inactive)
    1  A    between atoms: C_1  and  C_46
    2  A    between atoms: C_1  and  C_65
    3  A    between atoms: N_2  and  C_15
    4  A    between atoms: C_3  and  O_5
    5  A    between atoms: C_3  and  C_13
    6  A    between atoms: C_3  and  C_27
    7  A    between atoms: O_5  and  C_60
    8  A    between atoms: C_8  and  C_23
    9  A    between atoms: C_9  and  N_17
   10  A    between atoms: C_9  and  C_46
   11  A    between atoms: C_14  and  C_20
   12  A    between atoms: C_14  and  C_56
   13  A    between atoms: C_15  and  C_69
   14  A    between atoms: C_16  and  C_32
   15  A    between atoms: C_20  and  C_24
   16  A    between atoms: C_21  and  C_23
   17  A    between atoms: C_21  and  C_38
   18  A    between atoms: C_24  and  C_55
   19  A    between atoms: C_31  and  N_63
   20  A    between atoms: C_33  and  C_56
   21  A    between atoms: C_37  and  C_41
   22  A    between atoms: C_37  and  C_69
   23  A    between atoms: C_40  and  C_56
   24  A    between atoms: C_41  and  C_57
   25  A    between atoms: C_43  and  C_47
   26  A    between atoms: C_43  and  C_51
   27  A    between atoms: C_43  and  C_65
   28  A    between atoms: C_47  and  C_48
   29  A    between atoms: C_48  and  C_60
                            x       y       z     vdW  Elec       q    Type
                         _______ _______ _______ _____ _____    ______ ____

>  <TORSDO>
F 29

$$$$
=
 OpenBabel11072412563D

 70 73  0  0  1  0  0  0  0  0999 V2000
  161.2970  211.5760  148.3790 C   0  0  1  0  0  3  0  0  0  0  0  0
  158.7430  213.2180  151.8740 C   0  0  2  0  0  0  0  0  0  0  0  0
  160.1670  213.3740  149.6880 C   0  0  0  0  0  3  0  0  0  0  0  0
  157.4050  213.9340  151.7200 C   0  0  0  0  0  1  0  0  0  0  0  0
  160.8770  212.2490  149.6700 C   0  0  0  0  0  0  0  0  0  0  0  0
  159.7710  210.8270  151.3290 C   0  0  1  0  0  3  0  0  0  0  0  0
  159.7230  214.0140  150.9800 C   0  0  0  0  0  2  0  0  0  0  0  0
  158.5300  211.7470  151.4620 C   0  0  0  0  0  2  0  0  0  0  0  0
  161.0850  211.4950  150.9440 C   0  0  0  0  0  2  0  0  0  0  0  0
  159.7860  208.4870  151.9620 O   0  0  0  0  0  1  0  0  0  0  0  0
  159.9750  209.7930  152.4300 C   0  0  1  0  0  3  0  0  0  0  0  0
  161.2920  209.9650  153.2200 C   0  0  0  0  0  0  0  0  0  0  0  0
  162.4030  210.3560  152.2580 C   0  0  0  0  0  1  0  0  0  0  0  0
  161.1480  211.0930  154.2370 C   0  0  0  0  0  1  0  0  0  0  0  0
  161.7320  208.6750  153.9310 C   0  0  0  0  0  2  0  0  0  0  0  0
  161.1360  207.4220  153.3080 C   0  0  0  0  0  2  0  0  0  0  0  0
  160.7440  206.5050  154.3610 N   0  0  0  0  0  2  0  0  0  0  0  0
  159.8670  208.3470  155.7230 O   0  0  0  0  0  0  0  0  0  0  0  0
  160.0880  206.9830  155.5360 C   0  0  0  0  0  0  0  0  0  0  0  0
  159.6990  206.1670  156.4130 O   0  0  0  0  0  1  0  0  0  0  0  0
  159.2400  213.2980  153.3280 C   0  0  0  0  0  2  0  0  0  0  0  0
  158.2950  214.0100  154.3050 C   0  0  0  0  0  2  0  0  0  0  0  0
  157.9450  211.6160  154.7720 C   0  0  0  0  0  1  0  0  0  0  0  0
  157.7340  213.0160  155.3030 C   0  0  0  0  0  2  0  0  0  0  0  0
  160.7420  210.1520  148.2630 C   0  0  0  0  0  2  0  0  0  0  0  0
  161.7840  209.1380  147.7900 C   0  0  1  0  0  3  0  0  0  0  0  0
  163.0360  209.4130  148.3620 O   0  0  0  0  0  1  0  0  0  0  0  0
  161.3190  207.7540  148.2010 C   0  0  0  0  0  2  0  0  0  0  0  0
  162.3600  207.0850  148.8530 O   0  0  0  0  0  0  0  0  0  0  0  0
  162.2440  205.7330  148.4890 C   0  0  2  0  0  3  0  0  0  0  0  0
  160.5980  204.6700  145.3810 C   0  0  0  0  0  2  0  0  0  0  0  0
  162.0860  205.5740  146.9690 C   0  0  2  0  0  3  0  0  0  0  0  0
  160.6560  205.6690  146.4880 C   0  0  0  0  0  2  0  0  0  0  0  0
  162.6640  204.3540  146.5500 O   0  0  0  0  0  0  0  0  0  0  0  0
  161.6900  203.7000  145.7590 C   0  0  0  0  0  2  0  0  0  0  0  0
  161.1140  205.0310  149.2680 C   0  0  2  0  0  3  0  0  0  0  0  0
  160.7400  205.8000  150.3550 F   0  0  0  0  0  0  0  0  0  0  0  0
  161.5400  203.7170  149.7190 N   0  0  0  0  0  1  0  0  0  0  0  0
  161.1080  212.4120  147.1120 C   0  0  0  0  0  2  0  0  0  0  0  0
  159.6710  212.3950  146.6030 C   0  0  0  0  0  2  0  0  0  0  0  0
  159.0430  213.7060  147.0290 C   0  0  0  0  0  2  0  0  0  0  0  0
  158.4070  214.4440  145.8370 C   0  0  0  0  0  2  0  0  0  0  0  0
  160.6040  213.5900  142.9780 N   0  0  0  0  0  0  0  0  0  0  0  0
  161.0530  211.6820  137.3380 C   0  0  0  0  0  1  0  0  0  0  0  0
  158.8640  213.8690  144.5810 N   0  0  0  0  0  0  0  0  0  0  0  0
  161.6730  213.7190  140.9790 C   0  0  0  0  0  0  0  0  0  0  0  0
  161.0110  212.8550  138.3020 C   0  0  1  0  0  3  0  0  0  0  0  0
  159.8590  212.8750  142.0300 N   0  0  0  0  0  0  0  0  0  0  0  0
  159.9850  212.6620  139.4560 C   0  0  1  0  0  3  0  0  0  0  0  0
  160.5750  212.9930  140.8070 C   0  0  0  0  0  0  0  0  0  0  0  0
  161.8090  214.1480  142.3890 C   0  0  0  0  0  3  0  0  0  0  0  0
  162.4110  213.4400  138.6410 C   0  0  1  0  0  3  0  0  0  0  0  0
  160.0650  214.1340  144.1780 C   0  0  0  0  0  3  0  0  0  0  0  0
  162.3660  214.3800  139.8440 C   0  0  0  0  0  2  0  0  0  0  0  0
  157.4990  213.0780  138.9480 C   0  0  0  0  0  0  0  0  0  0  0  0
  158.8210  213.5210  139.2640 N   0  0  0  0  0  2  0  0  0  0  0  0
  157.2450  211.8480  138.8420 O   0  0  0  0  0  0  0  0  0  0  0  0
  156.2100  214.3790  137.3120 C   0  0  0  0  0  1  0  0  0  0  0  0
  156.4170  214.0930  138.7920 C   0  0  0  0  0  3  0  0  0  0  0  0
  155.1080  213.6130  139.3990 C   0  0  0  0  0  1  0  0  0  0  0  0
  163.5290  212.3920  138.7750 C   0  0  0  0  0  2  0  0  0  0  0  0
  163.1090  211.0420  138.2040 C   0  0  0  0  0  2  0  0  0  0  0  0
  162.5120  210.1610  139.2960 C   0  0  0  0  0  2  0  0  0  0  0  0
  160.4590  208.9040  138.4490 C   0  0  0  0  0  1  0  0  0  0  0  0
  161.9560  208.8100  138.7900 C   0  0  2  0  0  0  0  0  0  0  0  0
  161.2130  207.3930  140.6130 O   0  0  0  0  0  1  0  0  0  0  0  0
  162.1710  207.7480  139.8580 C   0  0  0  0  0  0  0  0  0  0  0  0
  163.4150  207.1290  139.9940 O   0  0  0  0  0  0  0  0  0  0  0  0
  162.5740  207.0130  137.0320 C   0  0  0  0  0  1  0  0  0  0  0  0
  162.7160  208.4750  137.4940 C   0  0  0  0  0  2  0  0  0  0  0  0
  1 39  1  6  0  0  0
  1  5  1  0  0  0  0
  2  4  1  6  0  0  0
  2 21  1  0  0  0  0
  3  7  1  0  0  0  0
  5  3  2  0  0  0  0
  5  9  1  0  0  0  0
  6  8  1  0  0  0  0
  6 11  1  1  0  0  0
  7  2  1  0  0  0  0
  8  2  1  0  0  0  0
  9  6  1  0  0  0  0
 11 10  1  6  0  0  0
 11 12  1  0  0  0  0
 12 15  1  0  0  0  0
 12 14  1  0  0  0  0
 13 12  1  0  0  0  0
 16 15  1  0  0  0  0
 16 17  1  0  0  0  0
 17 19  1  0  0  0  0
 19 18  2  0  0  0  0
 19 20  1  0  0  0  0
 21 22  1  0  0  0  0
 22 24  1  0  0  0  0
 23 24  1  0  0  0  0
 25  1  1  0  0  0  0
 26 28  1  0  0  0  0
 26 25  1  0  0  0  0
 26 27  1  1  0  0  0
 28 29  1  0  0  0  0
 30 29  1  6  0  0  0
 30 36  1  0  0  0  0
 31 35  1  0  0  0  0
 31 33  1  0  0  0  0
 32 30  1  1  0  0  0
 33 32  1  0  0  0  0
 34 32  1  0  0  0  0
 35 34  1  0  0  0  0
 36 38  1  1  0  0  0
 36 37  1  0  0  0  0
 40 41  1  0  0  0  0
 40 39  1  0  0  0  0
 42 41  1  0  0  0  0
 43 53  1  0  0  0  0
 45 42  1  0  0  0  0
 46 51  2  0  0  0  0
 47 44  1  1  0  0  0
 47 52  1  0  0  0  0
 47 49  1  0  0  0  0
 48 43  1  0  0  0  0
 49 56  1  6  0  0  0
 49 50  1  0  0  0  0
 50 46  1  0  0  0  0
 50 48  2  0  0  0  0
 51 43  1  0  0  0  0
 52 61  1  1  0  0  0
 52 54  1  0  0  0  0
 53 45  2  0  0  0  0
 54 46  1  0  0  0  0
 55 56  1  0  0  0  0
 57 55  2  0  0  0  0
 58 59  1  0  0  0  0
 59 55  1  0  0  0  0
 59 60  1  0  0  0  0
 62 61  1  0  0  0  0
 62 63  1  0  0  0  0
 65 64  1  6  0  0  0
 65 63  1  0  0  0  0
 65 67  1  0  0  0  0
 67 68  2  0  0  0  0
 67 66  1  0  0  0  0
 69 70  1  0  0  0  0
 70 65  1  0  0  0  0
M  END
>  <MODEL>
5

>  <REMARK>
 VINA RESULT:       1.0      2.272      7.186
  Name = 
  29 active torsions:
  status: ('A' for Active; 'I' for Inactive)
    1  A    between atoms: C_1  and  C_46
    2  A    between atoms: C_1  and  C_65
    3  A    between atoms: N_2  and  C_15
    4  A    between atoms: C_3  and  O_5
    5  A    between atoms: C_3  and  C_13
    6  A    between atoms: C_3  and  C_27
    7  A    between atoms: O_5  and  C_60
    8  A    between atoms: C_8  and  C_23
    9  A    between atoms: C_9  and  N_17
   10  A    between atoms: C_9  and  C_46
   11  A    between atoms: C_14  and  C_20
   12  A    between atoms: C_14  and  C_56
   13  A    between atoms: C_15  and  C_69
   14  A    between atoms: C_16  and  C_32
   15  A    between atoms: C_20  and  C_24
   16  A    between atoms: C_21  and  C_23
   17  A    between atoms: C_21  and  C_38
   18  A    between atoms: C_24  and  C_55
   19  A    between atoms: C_31  and  N_63
   20  A    between atoms: C_33  and  C_56
   21  A    between atoms: C_37  and  C_41
   22  A    between atoms: C_37  and  C_69
   23  A    between atoms: C_40  and  C_56
   24  A    between atoms: C_41  and  C_57
   25  A    between atoms: C_43  and  C_47
   26  A    between atoms: C_43  and  C_51
   27  A    between atoms: C_43  and  C_65
   28  A    between atoms: C_47  and  C_48
   29  A    between atoms: C_48  and  C_60
                            x       y       z     vdW  Elec       q    Type
                         _______ _______ _______ _____ _____    ______ ____

>  <TORSDO>
F 29

$$$$
=
 OpenBabel11072412563D

 70 73  0  0  1  0  0  0  0  0999 V2000
  161.2290  211.7800  148.3480 C   0  0  1  0  0  3  0  0  0  0  0  0
  158.4570  213.3490  151.7090 C   0  0  2  0  0  0  0  0  0  0  0  0
  159.6280  213.3970  149.3720 C   0  0  0  0  0  3  0  0  0  0  0  0
  156.9500  213.5430  151.5810 C   0  0  0  0  0  1  0  0  0  0  0  0
  160.6750  212.5860  149.5060 C   0  0  0  0  0  0  0  0  0  0  0  0
  160.2040  211.3490  151.5660 C   0  0  1  0  0  3  0  0  0  0  0  0
  159.0620  214.1640  150.5420 C   0  0  0  0  0  2  0  0  0  0  0  0
  158.7330  211.8320  151.6590 C   0  0  0  0  0  2  0  0  0  0  0  0
  161.1920  212.2790  150.8750 C   0  0  0  0  0  2  0  0  0  0  0  0
  160.6360  211.5760  153.9400 O   0  0  0  0  0  1  0  0  0  0  0  0
  160.8030  210.7410  152.8290 C   0  0  1  0  0  3  0  0  0  0  0  0
  160.3640  209.2840  153.0980 C   0  0  0  0  0  0  0  0  0  0  0  0
  158.9160  209.2780  153.5640 C   0  0  0  0  0  1  0  0  0  0  0  0
  160.4350  208.4700  151.8100 C   0  0  0  0  0  1  0  0  0  0  0  0
  161.2020  208.6020  154.1920 C   0  0  0  0  0  2  0  0  0  0  0  0
  161.9940  207.4100  153.6760 C   0  0  0  0  0  2  0  0  0  0  0  0
  161.0740  206.4050  153.1780 N   0  0  0  0  0  2  0  0  0  0  0  0
  162.7140  205.6340  151.5250 O   0  0  0  0  0  0  0  0  0  0  0  0
  161.4640  205.5140  152.1320 C   0  0  0  0  0  0  0  0  0  0  0  0
  160.6760  204.6070  151.7540 O   0  0  0  0  0  1  0  0  0  0  0  0
  158.9740  213.9420  153.0320 C   0  0  0  0  0  2  0  0  0  0  0  0
  158.8670  213.0140  154.2500 C   0  0  0  0  0  2  0  0  0  0  0  0
  157.5300  212.4900  156.2520 C   0  0  0  0  0  1  0  0  0  0  0  0
  157.5060  213.1660  154.9010 C   0  0  0  0  0  2  0  0  0  0  0  0
  160.9410  210.2820  148.4970 C   0  0  0  0  0  2  0  0  0  0  0  0
  162.0580  209.3990  147.9400 C   0  0  1  0  0  3  0  0  0  0  0  0
  163.2480  209.5950  148.6580 O   0  0  0  0  0  1  0  0  0  0  0  0
  161.6160  207.9520  148.0520 C   0  0  0  0  0  2  0  0  0  0  0  0
  162.3750  207.1630  147.1810 O   0  0  0  0  0  0  0  0  0  0  0  0
  162.1870  205.8330  147.5940 C   0  0  2  0  0  3  0  0  0  0  0  0
  160.6470  203.8970  144.8780 C   0  0  0  0  0  2  0  0  0  0  0  0
  162.1630  204.8720  146.3950 C   0  0  2  0  0  3  0  0  0  0  0  0
  161.1340  205.2280  145.3460 C   0  0  0  0  0  2  0  0  0  0  0  0
  161.9670  203.5470  146.8450 O   0  0  0  0  0  0  0  0  0  0  0  0
  160.9060  203.0150  146.0740 C   0  0  0  0  0  2  0  0  0  0  0  0
  160.9360  205.6870  148.4830 C   0  0  2  0  0  3  0  0  0  0  0  0
  160.7310  204.3560  148.7970 F   0  0  0  0  0  0  0  0  0  0  0  0
  159.7630  206.2200  147.8110 N   0  0  0  0  0  1  0  0  0  0  0  0
  160.9130  212.3300  146.9570 C   0  0  0  0  0  2  0  0  0  0  0  0
  159.4310  212.2400  146.6100 C   0  0  0  0  0  2  0  0  0  0  0  0
  158.7720  213.4740  147.1870 C   0  0  0  0  0  2  0  0  0  0  0  0
  157.8000  214.1220  146.1830 C   0  0  0  0  0  2  0  0  0  0  0  0
  159.0430  213.6040  142.7320 N   0  0  0  0  0  0  0  0  0  0  0  0
  158.2000  211.1090  137.3730 C   0  0  0  0  0  1  0  0  0  0  0  0
  157.9770  213.5430  144.8610 N   0  0  0  0  0  0  0  0  0  0  0  0
  159.2470  213.7680  140.4760 C   0  0  0  0  0  0  0  0  0  0  0  0
  158.0700  212.3370  138.2560 C   0  0  1  0  0  3  0  0  0  0  0  0
  158.3300  212.5500  142.1450 N   0  0  0  0  0  0  0  0  0  0  0  0
  157.6410  211.9990  139.7140 C   0  0  1  0  0  3  0  0  0  0  0  0
  158.4940  212.7060  140.7410 C   0  0  0  0  0  0  0  0  0  0  0  0
  159.6900  214.4280  141.7240 C   0  0  0  0  0  3  0  0  0  0  0  0
  159.1920  213.3910  138.0380 C   0  0  1  0  0  3  0  0  0  0  0  0
  158.7880  214.1200  144.0330 C   0  0  0  0  0  3  0  0  0  0  0  0
  159.2250  214.4370  139.1510 C   0  0  0  0  0  2  0  0  0  0  0  0
  155.1070  211.5660  139.7470 C   0  0  0  0  0  0  0  0  0  0  0  0
  156.2550  212.3920  139.9500 N   0  0  0  0  0  2  0  0  0  0  0  0
  155.2370  210.3740  139.3590 O   0  0  0  0  0  0  0  0  0  0  0  0
  153.3190  213.0190  138.8960 C   0  0  0  0  0  1  0  0  0  0  0  0
  153.7560  212.1240  140.0460 C   0  0  0  0  0  3  0  0  0  0  0  0
  152.7270  211.0220  140.2430 C   0  0  0  0  0  1  0  0  0  0  0  0
  160.5860  212.7970  137.7690 C   0  0  0  0  0  2  0  0  0  0  0  0
  160.5870  211.2780  137.8970 C   0  0  0  0  0  2  0  0  0  0  0  0
  161.9690  210.7750  138.3030 C   0  0  0  0  0  2  0  0  0  0  0  0
  160.5570  209.0130  139.4910 C   0  0  0  0  0  1  0  0  0  0  0  0
  161.9500  209.6540  139.3670 C   0  0  2  0  0  0  0  0  0  0  0  0
  163.5390  210.0290  141.1610 O   0  0  0  0  0  0  0  0  0  0  0  0
  162.3680  210.2310  140.7110 C   0  0  0  0  0  0  0  0  0  0  0  0
  161.4780  211.0160  141.4470 O   0  0  0  0  0  1  0  0  0  0  0  0
  162.2680  207.4090  138.1170 C   0  0  0  0  0  1  0  0  0  0  0  0
  162.9290  208.5690  138.8850 C   0  0  0  0  0  2  0  0  0  0  0  0
  1 39  1  6  0  0  0
  1 25  1  0  0  0  0
  1  5  1  0  0  0  0
  2  4  1  6  0  0  0
  2 21  1  0  0  0  0
  3  5  2  0  0  0  0
  3  7  1  0  0  0  0
  5  9  1  0  0  0  0
  6  8  1  0  0  0  0
  6 11  1  1  0  0  0
  7  2  1  0  0  0  0
  8  2  1  0  0  0  0
  9  6  1  0  0  0  0
 11 12  1  0  0  0  0
 11 10  1  1  0  0  0
 12 13  1  0  0  0  0
 12 15  1  0  0  0  0
 14 12  1  0  0  0  0
 16 15  1  0  0  0  0
 17 16  1  0  0  0  0
 18 19  2  0  0  0  0
 19 17  1  0  0  0  0
 20 19  1  0  0  0  0
 21 22  1  0  0  0  0
 22 24  1  0  0  0  0
 24 23  1  0  0  0  0
 26 28  1  0  0  0  0
 26 25  1  0  0  0  0
 26 27  1  1  0  0  0
 29 28  1  0  0  0  0
 30 29  1  6  0  0  0
 30 36  1  0  0  0  0
 31 33  1  0  0  0  0
 31 35  1  0  0  0  0
 32 34  1  0  0  0  0
 32 30  1  1  0  0  0
 33 32  1  0  0  0  0
 35 34  1  0  0  0  0
 36 38  1  6  0  0  0
 36 37  1  0  0  0  0
 40 39  1  0  0  0  0
 40 41  1  0  0  0  0
 42 41  1  0  0  0  0
 43 53  1  0  0  0  0
 45 42  1  0  0  0  0
 46 50  1  0  0  0  0
 46 51  2  0  0  0  0
 47 44  1  1  0  0  0
 47 49  1  0  0  0  0
 48 43  1  0  0  0  0
 49 56  1  6  0  0  0
 49 50  1  0  0  0  0
 50 48  2  0  0  0  0
 51 43  1  0  0  0  0
 52 61  1  1  0  0  0
 52 47  1  0  0  0  0
 52 54  1  0  0  0  0
 53 45  2  0  0  0  0
 54 46  1  0  0  0  0
 55 56  1  0  0  0  0
 55 59  1  0  0  0  0
 57 55  2  0  0  0  0
 58 59  1  0  0  0  0
 59 60  1  0  0  0  0
 61 62  1  0  0  0  0
 62 63  1  0  0  0  0
 63 65  1  0  0  0  0
 65 64  1  1  0  0  0
 65 67  1  0  0  0  0
 67 66  2  0  0  0  0
 67 68  1  0  0  0  0
 69 70  1  0  0  0  0
 70 65  1  0  0  0  0
M  END
>  <MODEL>
6

>  <REMARK>
 VINA RESULT:       1.0      2.343      7.268
  Name = 
  29 active torsions:
  status: ('A' for Active; 'I' for Inactive)
    1  A    between atoms: C_1  and  C_46
    2  A    between atoms: C_1  and  C_65
    3  A    between atoms: N_2  and  C_15
    4  A    between atoms: C_3  and  O_5
    5  A    between atoms: C_3  and  C_13
    6  A    between atoms: C_3  and  C_27
    7  A    between atoms: O_5  and  C_60
    8  A    between atoms: C_8  and  C_23
    9  A    between atoms: C_9  and  N_17
   10  A    between atoms: C_9  and  C_46
   11  A    between atoms: C_14  and  C_20
   12  A    between atoms: C_14  and  C_56
   13  A    between atoms: C_15  and  C_69
   14  A    between atoms: C_16  and  C_32
   15  A    between atoms: C_20  and  C_24
   16  A    between atoms: C_21  and  C_23
   17  A    between atoms: C_21  and  C_38
   18  A    between atoms: C_24  and  C_55
   19  A    between atoms: C_31  and  N_63
   20  A    between atoms: C_33  and  C_56
   21  A    between atoms: C_37  and  C_41
   22  A    between atoms: C_37  and  C_69
   23  A    between atoms: C_40  and  C_56
   24  A    between atoms: C_41  and  C_57
   25  A    between atoms: C_43  and  C_47
   26  A    between atoms: C_43  and  C_51
   27  A    between atoms: C_43  and  C_65
   28  A    between atoms: C_47  and  C_48
   29  A    between atoms: C_48  and  C_60
                            x       y       z     vdW  Elec       q    Type
                         _______ _______ _______ _____ _____    ______ ____

>  <TORSDO>
F 29

$$$$
=
 OpenBabel11072412563D

 70 73  0  0  1  0  0  0  0  0999 V2000
  161.6620  209.6560  149.6960 C   0  0  1  0  0  3  0  0  0  0  0  0
  162.1770  205.6410  147.4490 C   0  0  2  0  0  0  0  0  0  0  0  0
  162.0210  208.2400  147.6730 C   0  0  0  0  0  3  0  0  0  0  0  0
  163.4270  205.2210  146.6810 C   0  0  0  0  0  1  0  0  0  0  0  0
  161.3980  208.4400  148.8320 C   0  0  0  0  0  0  0  0  0  0  0  0
  161.5210  206.2640  149.9500 C   0  0  1  0  0  3  0  0  0  0  0  0
  161.7770  207.0050  146.8410 C   0  0  0  0  0  2  0  0  0  0  0  0
  162.5470  205.6760  148.9470 C   0  0  0  0  0  2  0  0  0  0  0  0
  160.5780  207.3360  149.4200 C   0  0  0  0  0  2  0  0  0  0  0  0
  159.7820  204.5860  150.1380 O   0  0  0  0  0  1  0  0  0  0  0  0
  160.7860  205.2670  150.8380 C   0  0  1  0  0  3  0  0  0  0  0  0
  161.7170  204.3210  151.6300 C   0  0  0  0  0  0  0  0  0  0  0  0
  162.7180  203.6920  150.6730 C   0  0  0  0  0  1  0  0  0  0  0  0
  162.5070  205.1130  152.6670 C   0  0  0  0  0  1  0  0  0  0  0  0
  160.9560  203.1760  152.3180 C   0  0  0  0  0  2  0  0  0  0  0  0
  161.1310  201.8400  151.6120 C   0  0  0  0  0  2  0  0  0  0  0  0
  159.9350  201.5420  150.8480 N   0  0  0  0  0  2  0  0  0  0  0  0
  161.2690  200.7320  148.9560 O   0  0  0  0  0  1  0  0  0  0  0  0
  160.0270  200.9640  149.5450 C   0  0  0  0  0  0  0  0  0  0  0  0
  158.9780  200.6540  148.9210 O   0  0  0  0  0  0  0  0  0  0  0  0
  161.0280  204.6470  147.2070 C   0  0  0  0  0  2  0  0  0  0  0  0
  161.3810  203.4390  146.3290 C   0  0  0  0  0  2  0  0  0  0  0  0
  160.1130  202.8120  144.3110 C   0  0  0  0  0  1  0  0  0  0  0  0
  161.1400  203.7700  144.8680 C   0  0  0  0  0  2  0  0  0  0  0  0
  162.9590  209.5230  150.5010 C   0  0  0  0  0  2  0  0  0  0  0  0
  162.8930  210.2150  151.8630 C   0  0  1  0  0  3  0  0  0  0  0  0
  163.0770  211.6000  151.7220 O   0  0  0  0  0  1  0  0  0  0  0  0
  161.5340  209.9310  152.4730 C   0  0  0  0  0  2  0  0  0  0  0  0
  161.0680  211.0760  153.1280 O   0  0  0  0  0  0  0  0  0  0  0  0
  161.1920  210.8160  154.5030 C   0  0  2  0  0  3  0  0  0  0  0  0
  161.1700  207.2100  155.2060 C   0  0  0  0  0  2  0  0  0  0  0  0
  161.8100  209.4330  154.7590 C   0  0  2  0  0  3  0  0  0  0  0  0
  161.0070  208.2870  154.1860 C   0  0  0  0  0  2  0  0  0  0  0  0
  162.0130  209.2450  156.1450 O   0  0  0  0  0  0  0  0  0  0  0  0
  161.4400  207.9920  156.4670 C   0  0  0  0  0  2  0  0  0  0  0  0
  159.8500  210.9990  155.2390 C   0  0  2  0  0  3  0  0  0  0  0  0
  158.8030  210.6410  154.4090 F   0  0  0  0  0  0  0  0  0  0  0  0
  159.6840  212.3750  155.6730 N   0  0  0  0  0  1  0  0  0  0  0  0
  161.5150  211.0050  148.9890 C   0  0  0  0  0  2  0  0  0  0  0  0
  161.4840  210.8750  147.4700 C   0  0  0  0  0  2  0  0  0  0  0  0
  162.3100  212.0180  146.9190 C   0  0  0  0  0  2  0  0  0  0  0  0
  161.4700  213.2990  146.7560 C   0  0  0  0  0  2  0  0  0  0  0  0
  159.5520  213.4880  143.5920 N   0  0  0  0  0  0  0  0  0  0  0  0
  159.6460  213.7020  137.6260 C   0  0  0  0  0  1  0  0  0  0  0  0
  161.1540  213.5240  145.3540 N   0  0  0  0  0  0  0  0  0  0  0  0
  158.5890  212.8850  141.6260 C   0  0  0  0  0  0  0  0  0  0  0  0
  159.4960  212.8620  138.8820 C   0  0  1  0  0  3  0  0  0  0  0  0
  160.4280  213.8210  142.5490 N   0  0  0  0  0  0  0  0  0  0  0  0
  160.4720  213.2850  140.0200 C   0  0  1  0  0  3  0  0  0  0  0  0
  159.7720  213.4200  141.3520 C   0  0  0  0  0  0  0  0  0  0  0  0
  158.3250  212.9000  143.0830 C   0  0  0  0  0  3  0  0  0  0  0  0
  158.0210  212.5390  139.2500 C   0  0  1  0  0  3  0  0  0  0  0  0
  159.9550  213.2690  144.9390 C   0  0  0  0  0  3  0  0  0  0  0  0
  157.8880  211.9910  140.6700 C   0  0  0  0  0  2  0  0  0  0  0  0
  162.6270  212.0930  139.2820 C   0  0  0  0  0  0  0  0  0  0  0  0
  161.5360  212.3000  140.1820 N   0  0  0  0  0  2  0  0  0  0  0  0
  162.7540  212.8130  138.2550 O   0  0  0  0  0  0  0  0  0  0  0  0
  163.0920  209.6830  139.1960 C   0  0  0  0  0  1  0  0  0  0  0  0
  163.6370  211.0440  139.6030 C   0  0  0  0  0  3  0  0  0  0  0  0
  164.9520  211.2940  138.8810 C   0  0  0  0  0  1  0  0  0  0  0  0
  157.0270  213.6830  138.9820 C   0  0  0  0  0  2  0  0  0  0  0  0
  155.5830  213.1920  139.0040 C   0  0  0  0  0  2  0  0  0  0  0  0
  154.9390  213.4850  140.3560 C   0  0  0  0  0  2  0  0  0  0  0  0
  152.5300  213.6620  139.5350 C   0  0  0  0  0  1  0  0  0  0  0  0
  153.4950  212.9530  140.4990 C   0  0  2  0  0  0  0  0  0  0  0  0
  152.8240  212.1560  142.6900 O   0  0  0  0  0  1  0  0  0  0  0  0
  153.0260  213.1550  141.9320 C   0  0  0  0  0  0  0  0  0  0  0  0
  152.8460  214.4450  142.4380 O   0  0  0  0  0  0  0  0  0  0  0  0
  152.5270  211.0570  139.0260 C   0  0  0  0  0  1  0  0  0  0  0  0
  153.5320  211.4610  140.1200 C   0  0  0  0  0  2  0  0  0  0  0  0
  1 39  1  6  0  0  0
  1 25  1  0  0  0  0
  2  4  1  6  0  0  0
  2  8  1  0  0  0  0
  3  5  2  0  0  0  0
  5  9  1  0  0  0  0
  5  1  1  0  0  0  0
  6 11  1  6  0  0  0
  7  2  1  0  0  0  0
  7  3  1  0  0  0  0
  8  6  1  0  0  0  0
  9  6  1  0  0  0  0
 11 10  1  6  0  0  0
 11 12  1  0  0  0  0
 12 15  1  0  0  0  0
 12 14  1  0  0  0  0
 13 12  1  0  0  0  0
 16 15  1  0  0  0  0
 17 16  1  0  0  0  0
 18 19  1  0  0  0  0
 19 17  1  0  0  0  0
 20 19  2  0  0  0  0
 21  2  1  0  0  0  0
 22 21  1  0  0  0  0
 23 24  1  0  0  0  0
 24 22  1  0  0  0  0
 25 26  1  0  0  0  0
 26 27  1  6  0  0  0
 26 28  1  0  0  0  0
 28 29  1  0  0  0  0
 30 29  1  6  0  0  0
 30 36  1  0  0  0  0
 31 35  1  0  0  0  0
 32 30  1  1  0  0  0
 32 34  1  0  0  0  0
 33 32  1  0  0  0  0
 33 31  1  0  0  0  0
 34 35  1  0  0  0  0
 36 37  1  6  0  0  0
 36 38  1  0  0  0  0
 40 39  1  0  0  0  0
 41 40  1  0  0  0  0
 42 41  1  0  0  0  0
 43 53  1  0  0  0  0
 45 42  1  0  0  0  0
 46 51  2  0  0  0  0
 47 44  1  6  0  0  0
 47 52  1  0  0  0  0
 47 49  1  0  0  0  0
 48 43  1  0  0  0  0
 49 56  1  1  0  0  0
 49 50  1  0  0  0  0
 50 46  1  0  0  0  0
 50 48  2  0  0  0  0
 51 43  1  0  0  0  0
 52 61  1  1  0  0  0
 52 54  1  0  0  0  0
 53 45  2  0  0  0  0
 54 46  1  0  0  0  0
 55 59  1  0  0  0  0
 55 56  1  0  0  0  0
 57 55  2  0  0  0  0
 58 59  1  0  0  0  0
 60 59  1  0  0  0  0
 61 62  1  0  0  0  0
 62 63  1  0  0  0  0
 63 65  1  0  0  0  0
 65 64  1  6  0  0  0
 65 67  1  0  0  0  0
 67 68  2  0  0  0  0
 67 66  1  0  0  0  0
 69 70  1  0  0  0  0
 70 65  1  0  0  0  0
M  END
>  <MODEL>
7

>  <REMARK>
 VINA RESULT:       1.5      1.580      2.163
  Name = 
  29 active torsions:
  status: ('A' for Active; 'I' for Inactive)
    1  A    between atoms: C_1  and  C_46
    2  A    between atoms: C_1  and  C_65
    3  A    between atoms: N_2  and  C_15
    4  A    between atoms: C_3  and  O_5
    5  A    between atoms: C_3  and  C_13
    6  A    between atoms: C_3  and  C_27
    7  A    between atoms: O_5  and  C_60
    8  A    between atoms: C_8  and  C_23
    9  A    between atoms: C_9  and  N_17
   10  A    between atoms: C_9  and  C_46
   11  A    between atoms: C_14  and  C_20
   12  A    between atoms: C_14  and  C_56
   13  A    between atoms: C_15  and  C_69
   14  A    between atoms: C_16  and  C_32
   15  A    between atoms: C_20  and  C_24
   16  A    between atoms: C_21  and  C_23
   17  A    between atoms: C_21  and  C_38
   18  A    between atoms: C_24  and  C_55
   19  A    between atoms: C_31  and  N_63
   20  A    between atoms: C_33  and  C_56
   21  A    between atoms: C_37  and  C_41
   22  A    between atoms: C_37  and  C_69
   23  A    between atoms: C_40  and  C_56
   24  A    between atoms: C_41  and  C_57
   25  A    between atoms: C_43  and  C_47
   26  A    between atoms: C_43  and  C_51
   27  A    between atoms: C_43  and  C_65
   28  A    between atoms: C_47  and  C_48
   29  A    between atoms: C_48  and  C_60
                            x       y       z     vdW  Elec       q    Type
                         _______ _______ _______ _____ _____    ______ ____

>  <TORSDO>
F 29

$$$$
