=
 OpenBabel11072414053D

 62 68  0  0  1  0  0  0  0  0999 V2000
  161.6700  206.2320  149.9810 C   0  0  2  0  0  3  0  0  0  0  0  0
  162.1400  210.1620  150.6410 O   0  0  0  0  0  0  0  0  0  0  0  0
  162.4620  207.5540  150.0660 C   0  0  1  0  0  3  0  0  0  0  0  0
  161.3310  204.2870  151.5520 C   0  0  2  0  0  3  0  0  0  0  0  0
  161.6640  207.1840  153.1520 C   0  0  0  0  0  3  0  0  0  0  0  0
  160.1030  208.8040  150.5810 O   0  0  0  0  0  0  0  0  0  0  0  0
  160.6990  206.3690  152.7510 C   0  0  0  0  0  3  0  0  0  0  0  0
  162.3650  205.1160  150.7630 C   0  0  0  0  0  2  0  0  0  0  0  0
  162.8160  208.0390  148.8010 O   0  0  0  0  0  1  0  0  0  0  0  0
  161.7020  208.5320  152.6820 N   0  0  0  0  0  0  0  0  0  0  0  0
  160.8830  204.9050  152.8960 C   0  0  0  0  0  2  0  0  0  0  0  0
  161.5550  208.8150  150.9720 S   0  0  0  0  0  0  0  0  0  0  0  0
  161.8100  202.9180  151.7440 N   0  0  0  0  0  2  0  0  0  0  0  0
  160.7650  202.0720  151.5620 O   0  0  0  0  0  1  0  0  0  0  0  0
  162.1940  209.5880  153.5570 C   0  0  0  0  0  2  0  0  0  0  0  0
  159.2860  209.7570  154.4330 C   0  0  1  0  0  3  0  0  0  0  0  0
  159.2080  212.2120  153.5780 C   0  0  2  0  0  0  0  0  0  0  0  0
  160.1770  211.6620  155.9140 C   0  0  0  0  0  0  0  0  0  0  0  0
  160.2990  208.5190  155.3350 S   0  0  0  0  0  0  0  0  0  0  0  0
  159.3540  212.5470  156.6350 O   0  0  0  0  0  0  0  0  0  0  0  0
  159.8160  212.1960  152.3080 O   0  0  0  0  0  0  0  0  0  0  0  0
  157.7000  213.5810  154.9560 C   0  0  1  0  0  3  0  0  0  0  0  0
  161.2910  211.2980  156.4760 N   0  0  0  0  0  0  0  0  0  0  0  0
  157.9700  209.7020  154.8810 O   0  0  0  0  0  1  0  0  0  0  0  0
  159.8370  211.1810  154.5220 C   0  0  1  0  0  3  0  0  0  0  0  0
  162.2760  210.3750  155.9760 C   0  0  0  0  0  0  0  0  0  0  0  0
  158.4790  211.7440  152.3770 C   0  0  0  0  0  2  0  0  0  0  0  0
  161.9550  209.2490  155.0270 C   0  0  2  0  0  3  0  0  0  0  0  0
  158.0160  212.9430  156.3060 C   0  0  2  0  0  0  0  0  0  0  0  0
  163.4610  210.4890  156.3900 O   0  0  0  0  0  0  0  0  0  0  0  0
  157.9200  214.4480  156.1800 C   0  0  0  0  0  2  0  0  0  0  0  0
  158.9150  213.6240  154.0520 C   0  0  0  0  0  2  0  0  0  0  0  0
  156.3120  211.1120  156.5110 C   0  0  0  0  0  1  0  0  0  0  0  0
  155.8540  213.3210  157.2600 O   0  0  0  0  0  1  0  0  0  0  0  0
  156.8690  212.3780  157.1360 C   0  0  2  0  0  3  0  0  0  0  0  0
  161.3560  205.7750  148.5630 C   0  0  0  0  0  2  0  0  0  0  0  0
  160.4210  206.7770  147.9110 C   0  0  0  0  0  2  0  0  0  0  0  0
  160.8440  207.0420  146.4660 C   0  0  0  0  0  2  0  0  0  0  0  0
  161.3500  205.8570  145.7570 N   0  0  0  0  0  0  0  0  0  0  0  0
  162.8030  205.7410  145.8690 C   0  0  0  0  0  2  0  0  0  0  0  0
  163.2060  204.2810  145.8740 C   0  0  0  0  0  2  0  0  0  0  0  0
  162.7020  203.6410  147.0800 N   0  0  0  0  0  2  0  0  0  0  0  0
  161.5720  202.7670  147.0570 C   0  0  0  0  0  0  0  0  0  0  0  0
  160.9210  202.5980  145.9920 O   0  0  0  0  0  0  0  0  0  0  0  0
  159.1080  201.0020  149.2420 C   0  0  0  0  0  1  0  0  0  0  0  0
  161.3230  200.5990  148.2350 C   0  0  0  0  0  2  0  0  0  0  0  0
  159.9480  201.1780  147.9940 C   0  0  2  0  0  3  0  0  0  0  0  0
  161.1100  202.1000  148.3120 C   0  0  2  0  0  3  0  0  0  0  0  0
  160.9050  205.8520  144.3600 C   0  0  0  0  0  2  0  0  0  0  0  0
  161.8330  206.4710  143.5090 O   0  0  0  0  0  0  0  0  0  0  0  0
  161.6530  205.8500  142.2710 C   0  0  0  0  0  2  0  0  0  0  0  0
  162.7250  205.7750  140.2800 O   0  0  0  0  0  1  0  0  0  0  0  0
  162.2670  206.6420  141.2140 N   0  0  0  0  0  0  0  0  0  0  0  0
  161.2230  207.4330  140.5800 C   0  0  0  0  0  2  0  0  0  0  0  0
  162.9230  209.9290  140.4490 O   0  0  0  0  0  0  0  0  0  0  0  0
  160.7150  208.2390  138.3230 N   0  0  0  0  0  2  0  0  0  0  0  0
  161.7530  208.1540  139.3400 C   0  0  1  0  0  3  0  0  0  0  0  0
  161.2100  210.5530  138.9000 C   0  0  1  0  0  3  0  0  0  0  0  0
  159.5710  209.9620  137.2170 O   0  0  0  0  0  0  0  0  0  0  0  0
  160.4190  209.6040  138.0750 C   0  0  0  0  0  0  0  0  0  0  0  0
  160.2920  211.3090  139.8480 C   0  0  0  0  0  1  0  0  0  0  0  0
  162.0490  209.5850  139.6680 C   0  0  0  0  0  0  0  0  0  0  0  0
  1 36  1  6  0  0  0
  1  3  1  0  0  0  0
  1  8  1  0  0  0  0
  2 12  2  0  0  0  0
  3  9  1  6  0  0  0
  3 12  1  0  0  0  0
  4 13  1  1  0  0  0
  4 11  1  0  0  0  0
  6 12  2  0  0  0  0
  7 11  1  0  0  0  0
  7  5  2  0  0  0  0
  8  4  1  0  0  0  0
 10  5  1  0  0  0  0
 10 15  1  0  0  0  0
 12 10  1  0  0  0  0
 14 13  1  0  0  0  0
 16 25  1  0  0  0  0
 16 24  1  1  0  0  0
 16 19  1  0  0  0  0
 17 27  1  6  0  0  0
 17 32  1  0  0  0  0
 17 25  1  0  0  0  0
 18 23  2  0  0  0  0
 18 20  1  0  0  0  0
 21 27  1  0  0  0  0
 21 17  1  0  0  0  0
 22 32  1  6  0  0  0
 22 31  1  0  0  0  0
 22 29  1  0  0  0  0
 25 18  1  1  0  0  0
 26 30  2  0  0  0  0
 26 23  1  0  0  0  0
 28 15  1  6  0  0  0
 28 19  1  0  0  0  0
 28 26  1  0  0  0  0
 29 20  1  0  0  0  0
 29 35  1  1  0  0  0
 31 29  1  0  0  0  0
 35 33  1  6  0  0  0
 35 34  1  0  0  0  0
 37 36  1  0  0  0  0
 38 37  1  0  0  0  0
 39 40  1  0  0  0  0
 39 38  1  0  0  0  0
 40 41  1  0  0  0  0
 41 42  1  0  0  0  0
 43 42  1  0  0  0  0
 44 43  2  0  0  0  0
 46 48  1  0  0  0  0
 47 46  1  0  0  0  0
 47 48  1  0  0  0  0
 47 45  1  1  0  0  0
 48 43  1  6  0  0  0
 49 39  1  0  0  0  0
 50 49  1  0  0  0  0
 51 50  1  0  0  0  0
 52 53  1  0  0  0  0
 53 51  1  0  0  0  0
 54 53  1  0  0  0  0
 56 57  1  0  0  0  0
 57 62  1  0  0  0  0
 57 54  1  1  0  0  0
 58 62  1  0  0  0  0
 58 61  1  1  0  0  0
 59 60  2  0  0  0  0
 60 56  1  0  0  0  0
 60 58  1  0  0  0  0
 62 55  2  0  0  0  0
M  END
>  <MODEL>
1

>  <REMARK>
 VINA RESULT:      -2.5      0.000      0.000
  Name = 
  18 active torsions:
  status: ('A' for Active; 'I' for Inactive)
    1  A    between atoms: C_4  and  O_7
    2  A    between atoms: C_4  and  N_56
    3  A    between atoms: N_5  and  C_47
    4  A    between atoms: O_7  and  C_55
    5  A    between atoms: C_10  and  C_38
    6  A    between atoms: C_13  and  C_47
    7  A    between atoms: C_13  and  N_56
    8  A    between atoms: C_18  and  C_59
    9  A    between atoms: N_19  and  C_38
   10  A    between atoms: N_19  and  C_55
   11  A    between atoms: C_21  and  C_61
   12  A    between atoms: C_26  and  N_32
   13  A    between atoms: C_29  and  C_45
   14  A    between atoms: C_31  and  C_37
   15  A    between atoms: C_31  and  C_59
   16  A    between atoms: C_37  and  N_56
   17  A    between atoms: C_41  and  C_52
   18  A    between atoms: C_52  and  N_53
                            x       y       z     vdW  Elec       q    Type
                         _______ _______ _______ _____ _____    ______ ____

>  <TORSDO>
F 18

$$$$
=
 OpenBabel11072414053D

 62 68  0  0  1  0  0  0  0  0999 V2000
  160.6770  212.1070  149.7070 C   0  0  2  0  0  3  0  0  0  0  0  0
  162.7770  210.8700  146.5190 O   0  0  0  0  0  0  0  0  0  0  0  0
  161.8340  212.1550  148.6870 C   0  0  1  0  0  3  0  0  0  0  0  0
  158.4670  213.3080  149.9080 C   0  0  2  0  0  3  0  0  0  0  0  0
  159.3560  212.7800  146.7470 C   0  0  0  0  0  3  0  0  0  0  0  0
  160.8560  209.8430  147.6390 O   0  0  0  0  0  0  0  0  0  0  0  0
  158.5670  212.2420  147.6660 C   0  0  0  0  0  3  0  0  0  0  0  0
  159.9990  213.4720  149.8420 C   0  0  0  0  0  2  0  0  0  0  0  0
  163.0540  211.7620  149.2530 O   0  0  0  0  0  1  0  0  0  0  0  0
  160.4110  212.0090  146.1700 N   0  0  0  0  0  0  0  0  0  0  0  0
  157.7670  213.1310  148.5410 C   0  0  0  0  0  2  0  0  0  0  0  0
  161.4840  211.1490  147.2370 S   0  0  0  0  0  0  0  0  0  0  0  0
  157.8650  214.4070  150.6630 N   0  0  0  0  0  2  0  0  0  0  0  0
  157.7350  214.0140  151.9550 O   0  0  0  0  0  1  0  0  0  0  0  0
  160.7810  212.2200  144.7770 C   0  0  0  0  0  2  0  0  0  0  0  0
  160.1720  213.1570  141.9480 C   0  0  1  0  0  3  0  0  0  0  0  0
  161.6560  211.2290  141.0270 C   0  0  2  0  0  0  0  0  0  0  0  0
  162.7260  213.4420  141.8350 C   0  0  0  0  0  0  0  0  0  0  0  0
  160.0370  214.4530  143.2420 S   0  0  0  0  0  0  0  0  0  0  0  0
  163.4350  213.7130  140.6510 O   0  0  0  0  0  0  0  0  0  0  0  0
  161.2790  210.0780  141.7470 O   0  0  0  0  0  0  0  0  0  0  0  0
  162.7840  211.8970  138.9470 C   0  0  1  0  0  3  0  0  0  0  0  0
  163.1530  214.0100  142.9240 N   0  0  0  0  0  0  0  0  0  0  0  0
  159.8180  213.6900  140.7120 O   0  0  0  0  0  1  0  0  0  0  0  0
  161.5490  212.4950  141.8850 C   0  0  1  0  0  3  0  0  0  0  0  0
  162.5850  213.9350  144.2450 C   0  0  0  0  0  0  0  0  0  0  0  0
  160.4250  210.4760  140.6930 C   0  0  0  0  0  2  0  0  0  0  0  0
  161.1230  213.6850  144.5080 C   0  0  2  0  0  3  0  0  0  0  0  0
  163.0540  213.3530  139.3160 C   0  0  2  0  0  0  0  0  0  0  0  0
  163.3440  214.1360  145.2300 O   0  0  0  0  0  0  0  0  0  0  0  0
  164.1350  212.5210  138.6580 C   0  0  0  0  0  2  0  0  0  0  0  0
  162.8700  210.9820  140.1520 C   0  0  0  0  0  2  0  0  0  0  0  0
  161.0630  214.3030  138.1190 C   0  0  0  0  0  1  0  0  0  0  0  0
  163.2450  214.4170  137.1810 O   0  0  0  0  0  1  0  0  0  0  0  0
  162.5500  214.4500  138.3850 C   0  0  2  0  0  3  0  0  0  0  0  0
  161.0650  211.5650  151.0760 C   0  0  0  0  0  2  0  0  0  0  0  0
  161.0380  210.0480  151.0380 C   0  0  0  0  0  2  0  0  0  0  0  0
  161.9310  209.4700  152.1360 C   0  0  0  0  0  2  0  0  0  0  0  0
  161.2610  209.3010  153.4350 N   0  0  0  0  0  0  0  0  0  0  0  0
  162.1000  209.7630  154.5380 C   0  0  0  0  0  2  0  0  0  0  0  0
  161.7600  211.1990  154.8800 C   0  0  0  0  0  2  0  0  0  0  0  0
  160.5380  211.2360  155.6690 N   0  0  0  0  0  2  0  0  0  0  0  0
  159.2890  211.6510  155.1100 C   0  0  0  0  0  0  0  0  0  0  0  0
  159.2350  212.0870  153.9290 O   0  0  0  0  0  0  0  0  0  0  0  0
  155.8450  212.7350  156.0720 C   0  0  0  0  0  1  0  0  0  0  0  0
  157.0200  210.6840  155.3650 C   0  0  0  0  0  2  0  0  0  0  0  0
  156.8870  212.1710  155.1280 C   0  0  2  0  0  3  0  0  0  0  0  0
  158.0500  211.6370  155.9440 C   0  0  2  0  0  3  0  0  0  0  0  0
  160.8210  207.9150  153.6220 C   0  0  0  0  0  2  0  0  0  0  0  0
  161.5340  207.0220  152.8070 O   0  0  0  0  0  0  0  0  0  0  0  0
  160.5530  206.2420  152.1890 C   0  0  0  0  0  2  0  0  0  0  0  0
  160.2430  204.2750  151.1130 O   0  0  0  0  0  1  0  0  0  0  0  0
  161.1720  205.2360  151.3350 N   0  0  0  0  0  0  0  0  0  0  0  0
  161.4580  205.8520  150.0490 C   0  0  0  0  0  2  0  0  0  0  0  0
  161.9940  203.3120  148.4980 O   0  0  0  0  0  0  0  0  0  0  0  0
  160.1560  206.2520  148.0130 N   0  0  0  0  0  2  0  0  0  0  0  0
  160.6160  205.2260  148.9370 C   0  0  1  0  0  3  0  0  0  0  0  0
  161.5710  204.7940  146.6690 C   0  0  1  0  0  3  0  0  0  0  0  0
  160.4360  206.7190  145.7310 O   0  0  0  0  0  0  0  0  0  0  0  0
  160.6970  205.9940  146.7270 C   0  0  0  0  0  0  0  0  0  0  0  0
  163.0010  205.2070  146.3570 C   0  0  0  0  0  1  0  0  0  0  0  0
  161.4700  204.3370  148.0870 C   0  0  0  0  0  0  0  0  0  0  0  0
  1  8  1  0  0  0  0
  1 36  1  1  0  0  0
  2 12  2  0  0  0  0
  3  9  1  1  0  0  0
  3  1  1  0  0  0  0
  4 13  1  6  0  0  0
  5  7  2  0  0  0  0
  7 11  1  0  0  0  0
  8  4  1  0  0  0  0
 10  5  1  0  0  0  0
 10 12  1  0  0  0  0
 11  4  1  0  0  0  0
 12  6  2  0  0  0  0
 12  3  1  0  0  0  0
 13 14  1  0  0  0  0
 15 10  1  0  0  0  0
 16 24  1  6  0  0  0
 16 19  1  0  0  0  0
 17 32  1  6  0  0  0
 17 21  1  0  0  0  0
 17 25  1  0  0  0  0
 18 23  2  0  0  0  0
 19 28  1  0  0  0  0
 20 18  1  0  0  0  0
 22 31  1  6  0  0  0
 22 29  1  0  0  0  0
 22 32  1  0  0  0  0
 23 26  1  0  0  0  0
 25 18  1  6  0  0  0
 25 16  1  0  0  0  0
 26 28  1  0  0  0  0
 26 30  2  0  0  0  0
 27 17  1  0  0  0  0
 27 21  1  0  0  0  0
 28 15  1  6  0  0  0
 29 35  1  6  0  0  0
 29 20  1  0  0  0  0
 31 29  1  0  0  0  0
 34 35  1  0  0  0  0
 35 33  1  6  0  0  0
 37 36  1  0  0  0  0
 37 38  1  0  0  0  0
 38 39  1  0  0  0  0
 39 49  1  0  0  0  0
 39 40  1  0  0  0  0
 40 41  1  0  0  0  0
 41 42  1  0  0  0  0
 43 42  1  0  0  0  0
 44 43  2  0  0  0  0
 46 48  1  0  0  0  0
 47 46  1  0  0  0  0
 47 48  1  0  0  0  0
 47 45  1  1  0  0  0
 48 43  1  6  0  0  0
 50 49  1  0  0  0  0
 51 50  1  0  0  0  0
 52 53  1  0  0  0  0
 53 51  1  0  0  0  0
 54 53  1  0  0  0  0
 56 57  1  0  0  0  0
 57 54  1  1  0  0  0
 58 61  1  1  0  0  0
 58 60  1  0  0  0  0
 58 62  1  0  0  0  0
 59 60  2  0  0  0  0
 60 56  1  0  0  0  0
 62 55  2  0  0  0  0
 62 57  1  0  0  0  0
M  END
>  <MODEL>
2

>  <REMARK>
 VINA RESULT:      -1.9      3.616     11.715
  Name = 
  18 active torsions:
  status: ('A' for Active; 'I' for Inactive)
    1  A    between atoms: C_4  and  O_7
    2  A    between atoms: C_4  and  N_56
    3  A    between atoms: N_5  and  C_47
    4  A    between atoms: O_7  and  C_55
    5  A    between atoms: C_10  and  C_38
    6  A    between atoms: C_13  and  C_47
    7  A    between atoms: C_13  and  N_56
    8  A    between atoms: C_18  and  C_59
    9  A    between atoms: N_19  and  C_38
   10  A    between atoms: N_19  and  C_55
   11  A    between atoms: C_21  and  C_61
   12  A    between atoms: C_26  and  N_32
   13  A    between atoms: C_29  and  C_45
   14  A    between atoms: C_31  and  C_37
   15  A    between atoms: C_31  and  C_59
   16  A    between atoms: C_37  and  N_56
   17  A    between atoms: C_41  and  C_52
   18  A    between atoms: C_52  and  N_53
                            x       y       z     vdW  Elec       q    Type
                         _______ _______ _______ _____ _____    ______ ____

>  <TORSDO>
F 18

$$$$
