=
 OpenBabel11072411473D

 53 60  0  0  1  0  0  0  0  0999 V2000
  161.5280  203.8180  151.2120 N   0  0  0  0  0  2  0  0  0  0  0  0
  161.1710  203.7230  149.8020 C   0  0  0  0  0  2  0  0  0  0  0  0
  161.7480  205.2360  151.4580 C   0  0  1  0  0  3  0  0  0  0  0  0
  160.4910  205.0280  149.4210 C   0  0  0  0  0  2  0  0  0  0  0  0
  160.8910  206.0170  150.4860 C   0  0  2  0  0  3  0  0  0  0  0  0
  161.2000  207.0310  153.2410 C   0  0  2  0  0  3  0  0  0  0  0  0
  161.3750  205.5960  152.8900 C   0  0  2  0  0  0  0  0  0  0  0  0
  162.3840  206.3180  153.5540 O   0  0  0  0  0  0  0  0  0  0  0  0
  160.7960  204.6240  153.7140 O   0  0  0  0  0  1  0  0  0  0  0  0
  160.3930  207.2400  154.5100 C   0  0  0  0  0  2  0  0  0  0  0  0
  160.6320  208.6400  155.0460 C   0  0  1  0  0  3  0  0  0  0  0  0
  160.4200  209.6680  153.9490 C   0  0  0  0  0  2  0  0  0  0  0  0
  159.3200  210.2270  155.9570 C   0  0  1  0  0  3  0  0  0  0  0  0
  159.3010  210.5130  154.4670 C   0  0  1  0  0  3  0  0  0  0  0  0
  159.7440  208.8960  156.1110 O   0  0  0  0  0  0  0  0  0  0  0  0
  159.4980  211.9830  154.1040 C   0  0  0  0  0  2  0  0  0  0  0  0
  156.5700  214.2540  152.8000 C   0  0  0  0  0  2  0  0  0  0  0  0
  155.5530  213.9030  153.8810 C   0  0  0  0  0  2  0  0  0  0  0  0
  158.0170  213.8150  153.0930 C   0  0  1  0  0  3  0  0  0  0  0  0
  158.3720  214.1110  154.4260 O   0  0  0  0  0  0  0  0  0  0  0  0
  158.1800  212.7470  154.1220 C   0  0  2  0  0  0  0  0  0  0  0  0
  155.6640  212.4310  154.2160 C   0  0  0  0  0  2  0  0  0  0  0  0
  156.9930  212.1720  154.9050 C   0  0  0  0  0  2  0  0  0  0  0  0
  160.2140  211.0720  156.6320 O   0  0  0  0  0  0  0  0  0  0  0  0
  161.3650  210.9180  156.0120 O   0  0  0  0  0  0  0  0  0  0  0  0
  162.3330  211.2270  156.9720 C   0  0  0  0  0  3  0  0  0  0  0  0
  163.1600  209.9900  157.2600 C   0  0  0  0  0  2  0  0  0  0  0  0
  163.7110  211.0710  156.3610 C   0  0  0  0  0  2  0  0  0  0  0  0
  161.7040  207.1570  149.8850 C   0  0  0  0  0  2  0  0  0  0  0  0
  161.2050  207.5900  148.5030 C   0  0  2  0  0  3  0  0  0  0  0  0
  160.6790  206.1010  144.0970 O   0  0  0  0  0  1  0  0  0  0  0  0
  160.1320  206.2350  145.3650 C   0  0  0  0  0  3  0  0  0  0  0  0
  161.7010  206.6940  147.4050 C   0  0  0  0  0  0  0  0  0  0  0  0
  160.9120  206.4630  146.3860 C   0  0  0  0  0  0  0  0  0  0  0  0
  163.4430  205.0430  146.8040 C   0  0  0  0  0  2  0  0  0  0  0  0
  163.0700  206.1370  147.4580 C   0  0  0  0  0  3  0  0  0  0  0  0
  162.1850  211.2680  148.9610 N   0  0  0  0  0  2  0  0  0  0  0  0
  162.2100  209.4620  150.4240 O   0  0  0  0  0  0  0  0  0  0  0  0
  161.9890  209.8820  149.2560 C   0  0  0  0  0  0  0  0  0  0  0  0
  161.5440  208.9820  148.2370 N   0  0  0  0  0  2  0  0  0  0  0  0
  161.8860  211.8780  147.6660 C   0  0  2  0  0  3  0  0  0  0  0  0
  163.1070  212.5970  147.1020 C   0  0  0  0  0  2  0  0  0  0  0  0
  162.6760  213.7210  146.1790 C   0  0  0  0  0  2  0  0  0  0  0  0
  162.9640  212.9520  143.5820 N   0  0  0  0  0  0  0  0  0  0  0  0
  161.6990  212.5660  143.8830 O   0  0  0  0  0  0  0  0  0  0  0  0
  162.4810  213.1890  144.8030 C   0  0  0  0  0  0  0  0  0  0  0  0
  160.7760  212.8110  147.7990 N   0  0  0  0  0  2  0  0  0  0  0  0
  159.6390  212.1140  147.5710 O   0  0  0  0  0  0  0  0  0  0  0  0
  157.8360  213.0570  149.4770 C   0  0  0  0  0  1  0  0  0  0  0  0
  159.0330  213.8310  145.8370 C   0  0  0  0  0  1  0  0  0  0  0  0
  157.3000  212.5290  147.1140 C   0  0  0  0  0  2  0  0  0  0  0  0
  158.7100  213.0550  147.0980 C   0  0  1  0  0  0  0  0  0  0  0  0
  157.7000  213.6390  148.0740 C   0  0  2  0  0  3  0  0  0  0  0  0
  2  1  1  0  0  0  0
  3  1  1  1  0  0  0
  3  7  1  0  0  0  0
  4  2  1  0  0  0  0
  4  5  1  0  0  0  0
  5 29  1  6  0  0  0
  5  3  1  0  0  0  0
  6  8  1  0  0  0  0
  6 10  1  1  0  0  0
  7  6  1  0  0  0  0
  7  8  1  0  0  0  0
  7  9  1  1  0  0  0
 11 10  1  6  0  0  0
 11 15  1  0  0  0  0
 12 14  1  0  0  0  0
 12 11  1  0  0  0  0
 13 15  1  0  0  0  0
 13 24  1  1  0  0  0
 14 16  1  1  0  0  0
 14 13  1  0  0  0  0
 17 18  1  0  0  0  0
 18 22  1  0  0  0  0
 19 17  1  1  0  0  0
 19 21  1  0  0  0  0
 19 20  1  0  0  0  0
 21 16  1  6  0  0  0
 21 20  1  0  0  0  0
 21 23  1  0  0  0  0
 22 23  1  0  0  0  0
 25 24  1  0  0  0  0
 25 26  1  0  0  0  0
 26 27  1  0  0  0  0
 28 26  1  0  0  0  0
 28 27  1  0  0  0  0
 30 29  1  1  0  0  0
 31 32  1  0  0  0  0
 32 34  2  0  0  0  0
 33 36  1  0  0  0  0
 33 30  1  0  0  0  0
 34 33  2  0  0  0  0
 35 36  2  0  0  0  0
 37 39  1  0  0  0  0
 39 38  2  0  0  0  0
 40 30  1  0  0  0  0
 40 39  1  0  0  0  0
 41 42  1  1  0  0  0
 41 47  1  0  0  0  0
 41 37  1  0  0  0  0
 43 42  1  0  0  0  0
 44 45  1  0  0  0  0
 44 46  2  0  0  0  0
 45 46  1  0  0  0  0
 46 43  1  0  0  0  0
 48 47  1  0  0  0  0
 51 53  1  0  0  0  0
 52 50  1  6  0  0  0
 52 51  1  0  0  0  0
 52 48  1  0  0  0  0
 52 53  1  0  0  0  0
 53 49  1  1  0  0  0
M  END
>  <MODEL>
1

>  <REMARK>
 VINA RESULT:      -6.1      0.000      0.000
  Name = 
  20 active torsions:
  status: ('A' for Active; 'I' for Inactive)
    1  A    between atoms: C_1  and  C_48
    2  A    between atoms: C_8  and  C_18
    3  A    between atoms: C_8  and  C_32
    4  A    between atoms: N_10  and  C_42
    5  A    between atoms: N_10  and  O_52
    6  A    between atoms: C_11  and  C_35
    7  A    between atoms: C_11  and  C_40
    8  A    between atoms: C_11  and  N_43
    9  A    between atoms: C_12  and  O_52
   10  A    between atoms: O_13  and  C_19
   11  A    between atoms: O_13  and  O_27
   12  A    between atoms: N_15  and  C_42
   13  A    between atoms: C_16  and  C_30
   14  A    between atoms: C_16  and  C_33
   15  A    between atoms: C_18  and  C_42
   16  A    between atoms: C_20  and  C_48
   17  A    between atoms: C_21  and  O_27
   18  A    between atoms: C_26  and  C_34
   19  A    between atoms: C_35  and  C_51
   20  A    between atoms: C_40  and  C_53
                            x       y       z     vdW  Elec       q    Type
                         _______ _______ _______ _____ _____    ______ ____

>  <TORSDO>
F 20

$$$$
=
 OpenBabel11072411473D

 53 60  0  0  1  0  0  0  0  0999 V2000
  162.9400  213.1760  147.5620 N   0  0  0  0  0  2  0  0  0  0  0  0
  162.5120  214.4300  146.9520 C   0  0  0  0  0  2  0  0  0  0  0  0
  161.8760  212.8180  148.4900 C   0  0  1  0  0  3  0  0  0  0  0  0
  160.9910  214.4300  146.9430 C   0  0  0  0  0  2  0  0  0  0  0  0
  160.5820  213.3990  147.9640 C   0  0  2  0  0  3  0  0  0  0  0  0
  162.3130  210.6420  149.8230 C   0  0  2  0  0  3  0  0  0  0  0  0
  161.7580  211.3040  148.6120 C   0  0  2  0  0  0  0  0  0  0  0  0
  163.0060  210.6540  148.5870 O   0  0  0  0  0  0  0  0  0  0  0  0
  160.7970  210.6270  147.8520 O   0  0  0  0  0  1  0  0  0  0  0  0
  161.7380  209.2560  150.0600 C   0  0  0  0  0  2  0  0  0  0  0  0
  162.1720  208.3230  148.9440 C   0  0  1  0  0  3  0  0  0  0  0  0
  162.5050  206.9510  149.5030 C   0  0  0  0  0  2  0  0  0  0  0  0
  161.1070  206.8570  147.6070 C   0  0  1  0  0  3  0  0  0  0  0  0
  161.5360  206.0440  148.8150 C   0  0  1  0  0  3  0  0  0  0  0  0
  161.1360  208.2070  147.9950 O   0  0  0  0  0  0  0  0  0  0  0  0
  162.1750  204.7000  148.4760 C   0  0  0  0  0  2  0  0  0  0  0  0
  161.0090  200.9800  148.9570 C   0  0  0  0  0  2  0  0  0  0  0  0
  159.9510  201.2420  150.0250 C   0  0  0  0  0  2  0  0  0  0  0  0
  161.5280  202.2320  148.2260 C   0  0  1  0  0  3  0  0  0  0  0  0
  160.4620  203.0860  147.8740 O   0  0  0  0  0  0  0  0  0  0  0  0
  161.2980  203.5340  148.9180 C   0  0  2  0  0  0  0  0  0  0  0  0
  160.4490  202.3130  150.9730 C   0  0  0  0  0  2  0  0  0  0  0  0
  160.5240  203.6400  150.2370 C   0  0  0  0  0  2  0  0  0  0  0  0
  161.9820  206.6720  146.5260 O   0  0  0  0  0  0  0  0  0  0  0  0
  161.2030  206.4650  145.4860 O   0  0  0  0  0  0  0  0  0  0  0  0
  161.7660  205.3660  144.8310 C   0  0  0  0  0  3  0  0  0  0  0  0
  160.7180  204.2800  144.6940 C   0  0  0  0  0  2  0  0  0  0  0  0
  161.0540  205.1540  143.5090 C   0  0  0  0  0  2  0  0  0  0  0  0
  159.8100  214.0500  149.1050 C   0  0  0  0  0  2  0  0  0  0  0  0
  158.4960  213.3320  149.4310 C   0  0  2  0  0  3  0  0  0  0  0  0
  156.0040  214.1890  145.5630 O   0  0  0  0  0  1  0  0  0  0  0  0
  157.2190  214.2920  146.2250 C   0  0  0  0  0  3  0  0  0  0  0  0
  157.3030  214.0100  148.8220 C   0  0  0  0  0  0  0  0  0  0  0  0
  157.2650  214.1530  147.5220 C   0  0  0  0  0  0  0  0  0  0  0  0
  155.1960  213.6450  150.0660 C   0  0  0  0  0  2  0  0  0  0  0  0
  156.1790  214.4490  149.6760 C   0  0  0  0  0  3  0  0  0  0  0  0
  159.1680  213.2570  153.2050 N   0  0  0  0  0  2  0  0  0  0  0  0
  160.3710  214.1600  151.4330 O   0  0  0  0  0  0  0  0  0  0  0  0
  159.3320  213.5560  151.8160 C   0  0  0  0  0  0  0  0  0  0  0  0
  158.3310  213.1700  150.8690 N   0  0  0  0  0  2  0  0  0  0  0  0
  158.0450  212.4940  153.7480 C   0  0  2  0  0  3  0  0  0  0  0  0
  157.5700  213.0850  155.0720 C   0  0  0  0  0  2  0  0  0  0  0  0
  156.0560  213.0400  155.1550 C   0  0  0  0  0  2  0  0  0  0  0  0
  155.1580  210.4990  154.7610 N   0  0  0  0  0  0  0  0  0  0  0  0
  155.3820  210.5460  156.0980 O   0  0  0  0  0  0  0  0  0  0  0  0
  155.6060  211.6290  155.3090 C   0  0  0  0  0  0  0  0  0  0  0  0
  158.4310  211.1030  153.9350 N   0  0  0  0  0  2  0  0  0  0  0  0
  159.3550  211.0750  154.9230 O   0  0  0  0  0  0  0  0  0  0  0  0
  160.9640  209.9760  156.9180 C   0  0  0  0  0  1  0  0  0  0  0  0
  160.2180  209.5720  153.1020 C   0  0  0  0  0  1  0  0  0  0  0  0
  161.7450  210.7700  154.7020 C   0  0  0  0  0  2  0  0  0  0  0  0
  160.3670  210.2140  154.4670 C   0  0  1  0  0  0  0  0  0  0  0  0
  161.2810  209.5530  155.4870 C   0  0  2  0  0  3  0  0  0  0  0  0
  2  1  1  0  0  0  0
  3  1  1  6  0  0  0
  3  7  1  0  0  0  0
  4  2  1  0  0  0  0
  4  5  1  0  0  0  0
  5  3  1  0  0  0  0
  5 29  1  1  0  0  0
  6 10  1  6  0  0  0
  7  9  1  6  0  0  0
  7  6  1  0  0  0  0
  8  7  1  0  0  0  0
  8  6  1  0  0  0  0
 11 12  1  0  0  0  0
 11 10  1  1  0  0  0
 13 24  1  6  0  0  0
 13 15  1  0  0  0  0
 13 14  1  0  0  0  0
 14 16  1  6  0  0  0
 14 12  1  0  0  0  0
 15 11  1  0  0  0  0
 17 18  1  0  0  0  0
 18 22  1  0  0  0  0
 19 21  1  0  0  0  0
 19 17  1  1  0  0  0
 20 19  1  0  0  0  0
 20 21  1  0  0  0  0
 21 16  1  6  0  0  0
 21 23  1  0  0  0  0
 23 22  1  0  0  0  0
 25 24  1  0  0  0  0
 26 25  1  0  0  0  0
 27 26  1  0  0  0  0
 28 27  1  0  0  0  0
 28 26  1  0  0  0  0
 30 29  1  1  0  0  0
 30 40  1  0  0  0  0
 31 32  1  0  0  0  0
 32 34  2  0  0  0  0
 33 30  1  0  0  0  0
 33 36  1  0  0  0  0
 34 33  2  0  0  0  0
 36 35  2  0  0  0  0
 37 41  1  0  0  0  0
 38 39  2  0  0  0  0
 39 37  1  0  0  0  0
 40 39  1  0  0  0  0
 41 47  1  0  0  0  0
 41 42  1  1  0  0  0
 42 43  1  0  0  0  0
 43 46  1  0  0  0  0
 44 46  2  0  0  0  0
 44 45  1  0  0  0  0
 46 45  1  0  0  0  0
 47 48  1  0  0  0  0
 51 53  1  0  0  0  0
 52 50  1  6  0  0  0
 52 51  1  0  0  0  0
 52 48  1  0  0  0  0
 52 53  1  0  0  0  0
 53 49  1  1  0  0  0
M  END
>  <MODEL>
2

>  <REMARK>
 VINA RESULT:      -5.5      2.710      9.792
  Name = 
  20 active torsions:
  status: ('A' for Active; 'I' for Inactive)
    1  A    between atoms: C_1  and  C_48
    2  A    between atoms: C_8  and  C_18
    3  A    between atoms: C_8  and  C_32
    4  A    between atoms: N_10  and  C_42
    5  A    between atoms: N_10  and  O_52
    6  A    between atoms: C_11  and  C_35
    7  A    between atoms: C_11  and  C_40
    8  A    between atoms: C_11  and  N_43
    9  A    between atoms: C_12  and  O_52
   10  A    between atoms: O_13  and  C_19
   11  A    between atoms: O_13  and  O_27
   12  A    between atoms: N_15  and  C_42
   13  A    between atoms: C_16  and  C_30
   14  A    between atoms: C_16  and  C_33
   15  A    between atoms: C_18  and  C_42
   16  A    between atoms: C_20  and  C_48
   17  A    between atoms: C_21  and  O_27
   18  A    between atoms: C_26  and  C_34
   19  A    between atoms: C_35  and  C_51
   20  A    between atoms: C_40  and  C_53
                            x       y       z     vdW  Elec       q    Type
                         _______ _______ _______ _____ _____    ______ ____

>  <TORSDO>
F 20

$$$$
=
 OpenBabel11072411473D

 53 60  0  0  1  0  0  0  0  0999 V2000
  163.3100  213.2650  147.8430 N   0  0  0  0  0  2  0  0  0  0  0  0
  162.8810  214.1820  146.7940 C   0  0  0  0  0  2  0  0  0  0  0  0
  162.2020  212.3370  148.0210 C   0  0  1  0  0  3  0  0  0  0  0  0
  161.9250  213.4170  145.8910 C   0  0  0  0  0  2  0  0  0  0  0  0
  161.4650  212.2330  146.7030 C   0  0  2  0  0  3  0  0  0  0  0  0
  161.9200  210.1860  149.4320 C   0  0  2  0  0  3  0  0  0  0  0  0
  162.7120  210.9670  148.4440 C   0  0  2  0  0  0  0  0  0  0  0  0
  163.0780  210.9140  149.8020 O   0  0  0  0  0  0  0  0  0  0  0  0
  163.6270  210.2910  147.6270 O   0  0  0  0  0  1  0  0  0  0  0  0
  162.2460  208.7030  149.4190 C   0  0  0  0  0  2  0  0  0  0  0  0
  161.3950  207.9810  150.4490 C   0  0  1  0  0  3  0  0  0  0  0  0
  161.1770  206.5370  150.0350 C   0  0  0  0  0  2  0  0  0  0  0  0
  161.8390  206.7580  152.2860 C   0  0  1  0  0  3  0  0  0  0  0  0
  161.7900  205.7530  151.1500 C   0  0  1  0  0  3  0  0  0  0  0  0
  162.0370  208.0210  151.7030 O   0  0  0  0  0  0  0  0  0  0  0  0
  160.9820  204.4940  151.4560 C   0  0  0  0  0  2  0  0  0  0  0  0
  159.8890  201.5600  149.0840 C   0  0  0  0  0  2  0  0  0  0  0  0
  160.9230  201.7980  147.9880 C   0  0  0  0  0  2  0  0  0  0  0  0
  160.1470  202.3110  150.4040 C   0  0  1  0  0  3  0  0  0  0  0  0
  161.5050  202.2210  150.7750 O   0  0  0  0  0  0  0  0  0  0  0  0
  161.0670  203.4820  150.3190 C   0  0  2  0  0  0  0  0  0  0  0  0
  161.1110  203.2870  147.7900 C   0  0  0  0  0  2  0  0  0  0  0  0
  161.7800  203.8760  149.0210 C   0  0  0  0  0  2  0  0  0  0  0  0
  160.6390  206.7720  153.0120 O   0  0  0  0  0  0  0  0  0  0  0  0
  161.0020  206.8660  154.2740 O   0  0  0  0  0  0  0  0  0  0  0  0
  160.4000  208.0410  154.7330 C   0  0  0  0  0  3  0  0  0  0  0  0
  160.5630  208.1280  156.2370 C   0  0  0  0  0  2  0  0  0  0  0  0
  161.4600  208.9430  155.3350 C   0  0  0  0  0  2  0  0  0  0  0  0
  159.9630  212.2990  146.9480 C   0  0  0  0  0  2  0  0  0  0  0  0
  159.3360  213.6240  146.5010 C   0  0  2  0  0  3  0  0  0  0  0  0
  156.7470  214.0640  150.3760 O   0  0  0  0  0  1  0  0  0  0  0  0
  157.5990  213.2760  149.6140 C   0  0  0  0  0  3  0  0  0  0  0  0
  157.9730  213.8440  147.0910 C   0  0  0  0  0  0  0  0  0  0  0  0
  157.7870  213.5560  148.3540 C   0  0  0  0  0  0  0  0  0  0  0  0
  155.9440  213.7020  145.6820 C   0  0  0  0  0  2  0  0  0  0  0  0
  156.8910  214.4270  146.2690 C   0  0  0  0  0  3  0  0  0  0  0  0
  159.4220  212.7440  142.7710 N   0  0  0  0  0  2  0  0  0  0  0  0
  159.2750  211.4180  144.6750 O   0  0  0  0  0  0  0  0  0  0  0  0
  159.3290  212.5800  144.1890 C   0  0  0  0  0  0  0  0  0  0  0  0
  159.3020  213.7240  145.0480 N   0  0  0  0  0  2  0  0  0  0  0  0
  159.5700  214.0370  142.1060 C   0  0  2  0  0  3  0  0  0  0  0  0
  158.2730  214.4520  141.4190 C   0  0  0  0  0  2  0  0  0  0  0  0
  158.3110  214.0730  139.9500 C   0  0  0  0  0  2  0  0  0  0  0  0
  156.0850  213.8700  138.3940 N   0  0  0  0  0  0  0  0  0  0  0  0
  155.5880  213.8260  139.6560 O   0  0  0  0  0  0  0  0  0  0  0  0
  156.9220  213.9550  139.4290 C   0  0  0  0  0  0  0  0  0  0  0  0
  160.6510  213.9770  141.1320 N   0  0  0  0  0  2  0  0  0  0  0  0
  160.7640  212.6860  140.7420 O   0  0  0  0  0  0  0  0  0  0  0  0
  161.3450  210.6820  138.8930 C   0  0  0  0  0  1  0  0  0  0  0  0
  163.1000  213.6150  140.7890 C   0  0  0  0  0  1  0  0  0  0  0  0
  162.6210  211.1520  140.9670 C   0  0  0  0  0  2  0  0  0  0  0  0
  162.1310  212.4900  140.4840 C   0  0  1  0  0  0  0  0  0  0  0  0
  162.5400  211.4300  139.4740 C   0  0  2  0  0  3  0  0  0  0  0  0
  2  1  1  0  0  0  0
  3  1  1  6  0  0  0
  3  7  1  0  0  0  0
  4  5  1  0  0  0  0
  4  2  1  0  0  0  0
  5 29  1  1  0  0  0
  5  3  1  0  0  0  0
  6 10  1  6  0  0  0
  6  8  1  0  0  0  0
  7  9  1  6  0  0  0
  7  6  1  0  0  0  0
  7  8  1  0  0  0  0
 11 10  1  6  0  0  0
 11 15  1  0  0  0  0
 12 11  1  0  0  0  0
 12 14  1  0  0  0  0
 13 24  1  6  0  0  0
 14 16  1  1  0  0  0
 14 13  1  0  0  0  0
 15 13  1  0  0  0  0
 18 17  1  0  0  0  0
 19 17  1  6  0  0  0
 19 20  1  0  0  0  0
 21 19  1  0  0  0  0
 21 20  1  0  0  0  0
 21 16  1  1  0  0  0
 22 18  1  0  0  0  0
 22 23  1  0  0  0  0
 23 21  1  0  0  0  0
 24 25  1  0  0  0  0
 25 26  1  0  0  0  0
 26 28  1  0  0  0  0
 26 27  1  0  0  0  0
 28 27  1  0  0  0  0
 30 29  1  6  0  0  0
 30 33  1  0  0  0  0
 32 31  1  0  0  0  0
 33 34  2  0  0  0  0
 34 32  2  0  0  0  0
 35 36  2  0  0  0  0
 36 33  1  0  0  0  0
 37 39  1  0  0  0  0
 39 38  2  0  0  0  0
 39 40  1  0  0  0  0
 40 30  1  0  0  0  0
 41 42  1  6  0  0  0
 41 37  1  0  0  0  0
 43 42  1  0  0  0  0
 44 46  2  0  0  0  0
 44 45  1  0  0  0  0
 46 45  1  0  0  0  0
 46 43  1  0  0  0  0
 47 41  1  0  0  0  0
 48 47  1  0  0  0  0
 52 48  1  0  0  0  0
 52 50  1  1  0  0  0
 52 51  1  0  0  0  0
 53 49  1  6  0  0  0
 53 52  1  0  0  0  0
 53 51  1  0  0  0  0
M  END
>  <MODEL>
3

>  <REMARK>
 VINA RESULT:      -4.5      3.223      8.355
  Name = 
  20 active torsions:
  status: ('A' for Active; 'I' for Inactive)
    1  A    between atoms: C_1  and  C_48
    2  A    between atoms: C_8  and  C_18
    3  A    between atoms: C_8  and  C_32
    4  A    between atoms: N_10  and  C_42
    5  A    between atoms: N_10  and  O_52
    6  A    between atoms: C_11  and  C_35
    7  A    between atoms: C_11  and  C_40
    8  A    between atoms: C_11  and  N_43
    9  A    between atoms: C_12  and  O_52
   10  A    between atoms: O_13  and  C_19
   11  A    between atoms: O_13  and  O_27
   12  A    between atoms: N_15  and  C_42
   13  A    between atoms: C_16  and  C_30
   14  A    between atoms: C_16  and  C_33
   15  A    between atoms: C_18  and  C_42
   16  A    between atoms: C_20  and  C_48
   17  A    between atoms: C_21  and  O_27
   18  A    between atoms: C_26  and  C_34
   19  A    between atoms: C_35  and  C_51
   20  A    between atoms: C_40  and  C_53
                            x       y       z     vdW  Elec       q    Type
                         _______ _______ _______ _____ _____    ______ ____

>  <TORSDO>
F 20

$$$$
=
 OpenBabel11072411473D

 53 60  0  0  1  0  0  0  0  0999 V2000
  161.5270  207.9450  154.3270 N   0  0  0  0  0  2  0  0  0  0  0  0
  161.0670  206.6300  154.7590 C   0  0  0  0  0  2  0  0  0  0  0  0
  161.9010  207.7810  152.9290 C   0  0  1  0  0  3  0  0  0  0  0  0
  160.4930  205.9300  153.5380 C   0  0  0  0  0  2  0  0  0  0  0  0
  161.0590  206.6650  152.3490 C   0  0  2  0  0  3  0  0  0  0  0  0
  160.7350  210.0830  152.7260 C   0  0  2  0  0  3  0  0  0  0  0  0
  161.6640  209.0710  152.1550 C   0  0  2  0  0  0  0  0  0  0  0  0
  160.3400  209.1970  151.6930 O   0  0  0  0  0  0  0  0  0  0  0  0
  162.5970  209.4760  151.1940 O   0  0  0  0  0  1  0  0  0  0  0  0
  160.9360  211.4710  152.1440 C   0  0  0  0  0  2  0  0  0  0  0  0
  159.6010  212.0380  151.6950 C   0  0  1  0  0  3  0  0  0  0  0  0
  158.6740  212.2110  152.8850 C   0  0  0  0  0  2  0  0  0  0  0  0
  158.7530  214.1140  151.4960 C   0  0  1  0  0  3  0  0  0  0  0  0
  158.3970  213.6800  152.9060 C   0  0  1  0  0  3  0  0  0  0  0  0
  159.8030  213.2840  151.0690 O   0  0  0  0  0  0  0  0  0  0  0  0
  156.9530  213.9680  153.3090 C   0  0  0  0  0  2  0  0  0  0  0  0
  155.8410  211.3820  156.0480 C   0  0  0  0  0  2  0  0  0  0  0  0
  156.3800  212.1350  157.2600 C   0  0  0  0  0  2  0  0  0  0  0  0
  155.7790  212.1960  154.7430 C   0  0  1  0  0  3  0  0  0  0  0  0
  155.2560  213.4860  154.9790 O   0  0  0  0  0  0  0  0  0  0  0  0
  156.6350  213.4170  154.6950 C   0  0  2  0  0  0  0  0  0  0  0  0
  157.7040  212.7770  156.9050 C   0  0  0  0  0  2  0  0  0  0  0  0
  157.4690  213.8860  155.8930 C   0  0  0  0  0  2  0  0  0  0  0  0
  157.6660  213.9630  150.6220 O   0  0  0  0  0  0  0  0  0  0  0  0
  158.1590  214.1790  149.4210 O   0  0  0  0  0  0  0  0  0  0  0  0
  157.0820  213.9840  148.5520 C   0  0  0  0  0  3  0  0  0  0  0  0
  157.5720  214.0910  147.1220 C   0  0  0  0  0  2  0  0  0  0  0  0
  157.3220  212.7320  147.7320 C   0  0  0  0  0  2  0  0  0  0  0  0
  161.9370  205.7400  151.5140 C   0  0  0  0  0  2  0  0  0  0  0  0
  161.1430  204.9000  150.5090 C   0  0  2  0  0  3  0  0  0  0  0  0
  160.1800  200.5210  149.1670 O   0  0  0  0  0  1  0  0  0  0  0  0
  159.7210  201.8130  149.3760 C   0  0  0  0  0  3  0  0  0  0  0  0
  161.1020  203.4460  150.8790 C   0  0  0  0  0  0  0  0  0  0  0  0
  160.4070  202.6310  150.1270 C   0  0  0  0  0  0  0  0  0  0  0  0
  162.5430  201.7990  152.0340 C   0  0  0  0  0  2  0  0  0  0  0  0
  161.8790  202.9490  152.0360 C   0  0  0  0  0  3  0  0  0  0  0  0
  161.5390  206.0510  146.8730 N   0  0  0  0  0  2  0  0  0  0  0  0
  160.1570  206.7870  148.5910 O   0  0  0  0  0  0  0  0  0  0  0  0
  161.0780  206.0060  148.2260 C   0  0  0  0  0  0  0  0  0  0  0  0
  161.6520  205.0830  149.1560 N   0  0  0  0  0  2  0  0  0  0  0  0
  162.5430  205.1420  146.3220 C   0  0  2  0  0  3  0  0  0  0  0  0
  162.7780  205.4180  144.8400 C   0  0  0  0  0  2  0  0  0  0  0  0
  161.4640  205.7240  144.1470 C   0  0  0  0  0  2  0  0  0  0  0  0
  162.4790  206.5610  141.7620 N   0  0  0  0  0  0  0  0  0  0  0  0
  161.3520  205.8970  141.4050 O   0  0  0  0  0  0  0  0  0  0  0  0
  161.7140  206.0150  142.7090 C   0  0  0  0  0  0  0  0  0  0  0  0
  162.1220  203.7610  146.5100 N   0  0  0  0  0  2  0  0  0  0  0  0
  160.8690  203.6550  146.0100 O   0  0  0  0  0  0  0  0  0  0  0  0
  159.1900  203.0030  143.8820 C   0  0  0  0  0  1  0  0  0  0  0  0
  161.6650  201.3000  146.3820 C   0  0  0  0  0  1  0  0  0  0  0  0
  159.2330  201.8740  146.0900 C   0  0  0  0  0  2  0  0  0  0  0  0
  160.6570  202.2800  145.8170 C   0  0  1  0  0  0  0  0  0  0  0  0
  159.7690  201.8310  144.6670 C   0  0  2  0  0  3  0  0  0  0  0  0
  1  2  1  0  0  0  0
  3  1  1  1  0  0  0
  4  2  1  0  0  0  0
  5 29  1  1  0  0  0
  5  3  1  0  0  0  0
  5  4  1  0  0  0  0
  6 10  1  6  0  0  0
  7  9  1  6  0  0  0
  7  6  1  0  0  0  0
  7  3  1  0  0  0  0
  8  7  1  0  0  0  0
  8  6  1  0  0  0  0
 11 10  1  1  0  0  0
 11 12  1  0  0  0  0
 12 14  1  0  0  0  0
 13 24  1  6  0  0  0
 13 14  1  0  0  0  0
 14 16  1  6  0  0  0
 15 13  1  0  0  0  0
 15 11  1  0  0  0  0
 17 18  1  0  0  0  0
 19 20  1  0  0  0  0
 19 17  1  1  0  0  0
 21 16  1  6  0  0  0
 21 19  1  0  0  0  0
 21 20  1  0  0  0  0
 21 23  1  0  0  0  0
 22 18  1  0  0  0  0
 23 22  1  0  0  0  0
 25 24  1  0  0  0  0
 26 25  1  0  0  0  0
 27 28  1  0  0  0  0
 27 26  1  0  0  0  0
 28 26  1  0  0  0  0
 30 33  1  0  0  0  0
 30 29  1  1  0  0  0
 31 32  1  0  0  0  0
 32 34  2  0  0  0  0
 33 36  1  0  0  0  0
 34 33  2  0  0  0  0
 35 36  2  0  0  0  0
 37 39  1  0  0  0  0
 39 38  2  0  0  0  0
 39 40  1  0  0  0  0
 40 30  1  0  0  0  0
 41 42  1  6  0  0  0
 41 47  1  0  0  0  0
 41 37  1  0  0  0  0
 43 42  1  0  0  0  0
 44 46  2  0  0  0  0
 45 44  1  0  0  0  0
 45 46  1  0  0  0  0
 46 43  1  0  0  0  0
 48 47  1  0  0  0  0
 52 48  1  0  0  0  0
 52 51  1  0  0  0  0
 52 50  1  1  0  0  0
 53 49  1  6  0  0  0
 53 52  1  0  0  0  0
 53 51  1  0  0  0  0
M  END
>  <MODEL>
4

>  <REMARK>
 VINA RESULT:      -3.9      3.304      6.702
  Name = 
  20 active torsions:
  status: ('A' for Active; 'I' for Inactive)
    1  A    between atoms: C_1  and  C_48
    2  A    between atoms: C_8  and  C_18
    3  A    between atoms: C_8  and  C_32
    4  A    between atoms: N_10  and  C_42
    5  A    between atoms: N_10  and  O_52
    6  A    between atoms: C_11  and  C_35
    7  A    between atoms: C_11  and  C_40
    8  A    between atoms: C_11  and  N_43
    9  A    between atoms: C_12  and  O_52
   10  A    between atoms: O_13  and  C_19
   11  A    between atoms: O_13  and  O_27
   12  A    between atoms: N_15  and  C_42
   13  A    between atoms: C_16  and  C_30
   14  A    between atoms: C_16  and  C_33
   15  A    between atoms: C_18  and  C_42
   16  A    between atoms: C_20  and  C_48
   17  A    between atoms: C_21  and  O_27
   18  A    between atoms: C_26  and  C_34
   19  A    between atoms: C_35  and  C_51
   20  A    between atoms: C_40  and  C_53
                            x       y       z     vdW  Elec       q    Type
                         _______ _______ _______ _____ _____    ______ ____

>  <TORSDO>
F 20

$$$$
=
 OpenBabel11072411473D

 53 60  0  0  1  0  0  0  0  0999 V2000
  160.3960  206.9540  155.7500 N   0  0  0  0  0  2  0  0  0  0  0  0
  160.0850  207.7350  156.9410 C   0  0  0  0  0  2  0  0  0  0  0  0
  160.0950  207.8300  154.6260 C   0  0  1  0  0  3  0  0  0  0  0  0
  160.3070  209.1980  156.5910 C   0  0  0  0  0  2  0  0  0  0  0  0
  160.2850  209.2590  155.0850 C   0  0  2  0  0  3  0  0  0  0  0  0
  160.4360  206.8930  152.2380 C   0  0  2  0  0  3  0  0  0  0  0  0
  161.0150  207.5310  153.4500 C   0  0  2  0  0  0  0  0  0  0  0  0
  161.1600  206.1520  153.2050 O   0  0  0  0  0  0  0  0  0  0  0  0
  162.2310  208.2150  153.3390 O   0  0  0  0  0  1  0  0  0  0  0  0
  161.2980  207.0740  151.0000 C   0  0  0  0  0  2  0  0  0  0  0  0
  160.8550  206.1040  149.9200 C   0  0  1  0  0  3  0  0  0  0  0  0
  161.9460  205.9420  148.8770 C   0  0  0  0  0  2  0  0  0  0  0  0
  161.0620  203.8840  149.6090 C   0  0  1  0  0  3  0  0  0  0  0  0
  162.2830  204.4870  148.9400 C   0  0  1  0  0  3  0  0  0  0  0  0
  160.5660  204.8520  150.4980 O   0  0  0  0  0  0  0  0  0  0  0  0
  162.5860  203.9240  147.5530 C   0  0  0  0  0  2  0  0  0  0  0  0
  160.1940  204.7500  144.5480 C   0  0  0  0  0  2  0  0  0  0  0  0
  160.3070  206.2690  144.6200 C   0  0  0  0  0  2  0  0  0  0  0  0
  161.2400  203.9740  145.3720 C   0  0  1  0  0  3  0  0  0  0  0  0
  162.5260  204.5300  145.2020 O   0  0  0  0  0  0  0  0  0  0  0  0
  161.9180  204.7440  146.4560 C   0  0  2  0  0  0  0  0  0  0  0  0
  160.3510  206.7020  146.0700 C   0  0  0  0  0  2  0  0  0  0  0  0
  161.6560  206.2360  146.6930 C   0  0  0  0  0  2  0  0  0  0  0  0
  160.0650  203.5690  148.6730 O   0  0  0  0  0  0  0  0  0  0  0  0
  160.0980  202.2580  148.5640 O   0  0  0  0  0  0  0  0  0  0  0  0
  160.8270  201.8250  149.6750 C   0  0  0  0  0  3  0  0  0  0  0  0
  160.1650  200.5900  150.2530 C   0  0  0  0  0  2  0  0  0  0  0  0
  161.3990  200.4510  149.3930 C   0  0  0  0  0  2  0  0  0  0  0  0
  159.1220  210.1140  154.5980 C   0  0  0  0  0  2  0  0  0  0  0  0
  159.3680  211.6180  154.7620 C   0  0  2  0  0  3  0  0  0  0  0  0
  155.2670  211.3290  156.9990 O   0  0  0  0  0  1  0  0  0  0  0  0
  155.9450  211.3710  155.7890 C   0  0  0  0  0  3  0  0  0  0  0  0
  158.4020  212.2580  155.7170 C   0  0  0  0  0  0  0  0  0  0  0  0
  157.1720  211.8150  155.7490 C   0  0  0  0  0  0  0  0  0  0  0  0
  160.0420  213.9190  156.5370 C   0  0  0  0  0  2  0  0  0  0  0  0
  158.8580  213.3250  156.6340 C   0  0  0  0  0  3  0  0  0  0  0  0
  160.1200  212.5740  151.1260 N   0  0  0  0  0  2  0  0  0  0  0  0
  160.6480  210.6860  152.3740 O   0  0  0  0  0  0  0  0  0  0  0  0
  160.0650  211.8020  152.3290 C   0  0  0  0  0  0  0  0  0  0  0  0
  159.3560  212.2940  153.4710 N   0  0  0  0  0  2  0  0  0  0  0  0
  159.5490  213.9120  150.9870 C   0  0  2  0  0  3  0  0  0  0  0  0
  158.0380  213.8880  151.1960 C   0  0  0  0  0  2  0  0  0  0  0  0
  157.6930  214.3600  152.5960 C   0  0  0  0  0  2  0  0  0  0  0  0
  154.9830  214.4010  152.3270 N   0  0  0  0  0  0  0  0  0  0  0  0
  155.1630  213.9720  153.6010 O   0  0  0  0  0  0  0  0  0  0  0  0
  156.2220  214.2710  152.8040 C   0  0  0  0  0  0  0  0  0  0  0  0
  159.8600  214.4530  149.6720 N   0  0  0  0  0  2  0  0  0  0  0  0
  160.9390  213.7800  149.2090 O   0  0  0  0  0  0  0  0  0  0  0  0
  162.1630  211.4020  148.4230 C   0  0  0  0  0  1  0  0  0  0  0  0
  159.2680  213.7890  147.3310 C   0  0  0  0  0  1  0  0  0  0  0  0
  161.7170  213.3520  146.9590 C   0  0  0  0  0  2  0  0  0  0  0  0
  160.5740  213.3130  147.9360 C   0  0  1  0  0  0  0  0  0  0  0  0
  161.1780  212.0120  147.4320 C   0  0  2  0  0  3  0  0  0  0  0  0
  1  2  1  0  0  0  0
  3  5  1  0  0  0  0
  3  1  1  1  0  0  0
  4  2  1  0  0  0  0
  5 29  1  1  0  0  0
  5  4  1  0  0  0  0
  6 10  1  6  0  0  0
  6  8  1  0  0  0  0
  6  7  1  0  0  0  0
  7  9  1  6  0  0  0
  7  3  1  0  0  0  0
  8  7  1  0  0  0  0
 11 15  1  0  0  0  0
 11 10  1  1  0  0  0
 12 14  1  0  0  0  0
 12 11  1  0  0  0  0
 13 24  1  6  0  0  0
 13 15  1  0  0  0  0
 14 16  1  6  0  0  0
 14 13  1  0  0  0  0
 17 18  1  0  0  0  0
 18 22  1  0  0  0  0
 19 17  1  6  0  0  0
 19 21  1  0  0  0  0
 20 19  1  0  0  0  0
 20 21  1  0  0  0  0
 21 23  1  0  0  0  0
 21 16  1  1  0  0  0
 22 23  1  0  0  0  0
 25 24  1  0  0  0  0
 25 26  1  0  0  0  0
 26 27  1  0  0  0  0
 28 26  1  0  0  0  0
 28 27  1  0  0  0  0
 30 29  1  6  0  0  0
 30 33  1  0  0  0  0
 32 31  1  0  0  0  0
 33 34  2  0  0  0  0
 33 36  1  0  0  0  0
 34 32  2  0  0  0  0
 35 36  2  0  0  0  0
 37 39  1  0  0  0  0
 39 38  2  0  0  0  0
 39 40  1  0  0  0  0
 40 30  1  0  0  0  0
 41 37  1  0  0  0  0
 41 42  1  6  0  0  0
 42 43  1  0  0  0  0
 43 46  1  0  0  0  0
 44 46  2  0  0  0  0
 44 45  1  0  0  0  0
 46 45  1  0  0  0  0
 47 41  1  0  0  0  0
 48 47  1  0  0  0  0
 51 53  1  0  0  0  0
 51 52  1  0  0  0  0
 52 50  1  6  0  0  0
 52 48  1  0  0  0  0
 53 52  1  0  0  0  0
 53 49  1  1  0  0  0
M  END
>  <MODEL>
5

>  <REMARK>
 VINA RESULT:      -3.8      2.650      8.873
  Name = 
  20 active torsions:
  status: ('A' for Active; 'I' for Inactive)
    1  A    between atoms: C_1  and  C_48
    2  A    between atoms: C_8  and  C_18
    3  A    between atoms: C_8  and  C_32
    4  A    between atoms: N_10  and  C_42
    5  A    between atoms: N_10  and  O_52
    6  A    between atoms: C_11  and  C_35
    7  A    between atoms: C_11  and  C_40
    8  A    between atoms: C_11  and  N_43
    9  A    between atoms: C_12  and  O_52
   10  A    between atoms: O_13  and  C_19
   11  A    between atoms: O_13  and  O_27
   12  A    between atoms: N_15  and  C_42
   13  A    between atoms: C_16  and  C_30
   14  A    between atoms: C_16  and  C_33
   15  A    between atoms: C_18  and  C_42
   16  A    between atoms: C_20  and  C_48
   17  A    between atoms: C_21  and  O_27
   18  A    between atoms: C_26  and  C_34
   19  A    between atoms: C_35  and  C_51
   20  A    between atoms: C_40  and  C_53
                            x       y       z     vdW  Elec       q    Type
                         _______ _______ _______ _____ _____    ______ ____

>  <TORSDO>
F 20

$$$$
=
 OpenBabel11072411473D

 53 60  0  0  1  0  0  0  0  0999 V2000
  161.6960  205.2240  150.8910 N   0  0  0  0  0  2  0  0  0  0  0  0
  162.0040  204.8920  152.2770 C   0  0  0  0  0  2  0  0  0  0  0  0
  161.0830  206.5440  150.9390 C   0  0  1  0  0  3  0  0  0  0  0  0
  162.2570  206.2010  153.0080 C   0  0  0  0  0  2  0  0  0  0  0  0
  161.6320  207.2700  152.1480 C   0  0  2  0  0  3  0  0  0  0  0  0
  162.7570  207.2180  149.0840 C   0  0  2  0  0  3  0  0  0  0  0  0
  161.3950  207.3280  149.6720 C   0  0  2  0  0  0  0  0  0  0  0  0
  162.3650  208.3280  149.8720 O   0  0  0  0  0  0  0  0  0  0  0  0
  160.3440  207.7700  148.8610 O   0  0  0  0  0  1  0  0  0  0  0  0
  162.8120  207.6350  147.6250 C   0  0  0  0  0  2  0  0  0  0  0  0
  162.6470  206.4150  146.7360 C   0  0  1  0  0  3  0  0  0  0  0  0
  162.8900  205.1450  147.5320 C   0  0  0  0  0  2  0  0  0  0  0  0
  160.9290  205.0520  146.2280 C   0  0  1  0  0  3  0  0  0  0  0  0
  161.5910  204.4130  147.4350 C   0  0  1  0  0  3  0  0  0  0  0  0
  161.3440  206.3940  146.2000 O   0  0  0  0  0  0  0  0  0  0  0  0
  161.8080  202.9070  147.3120 C   0  0  0  0  0  2  0  0  0  0  0  0
  161.3290  200.3230  150.2310 C   0  0  0  0  0  2  0  0  0  0  0  0
  160.0470  200.9150  150.8080 C   0  0  0  0  0  2  0  0  0  0  0  0
  161.7270  200.8500  148.8400 C   0  0  1  0  0  3  0  0  0  0  0  0
  160.6060  200.9050  147.9840 O   0  0  0  0  0  0  0  0  0  0  0  0
  161.1080  202.1450  148.4310 C   0  0  2  0  0  0  0  0  0  0  0  0
  160.1200  202.4250  150.7510 C   0  0  0  0  0  2  0  0  0  0  0  0
  160.0780  202.8750  149.3010 C   0  0  0  0  0  2  0  0  0  0  0  0
  161.3220  204.4270  145.0350 O   0  0  0  0  0  0  0  0  0  0  0  0
  160.3310  204.6390  144.1940 O   0  0  0  0  0  0  0  0  0  0  0  0
  159.2580  203.9130  144.7160 C   0  0  0  0  0  3  0  0  0  0  0  0
  158.4970  203.2630  143.5780 C   0  0  0  0  0  2  0  0  0  0  0  0
  159.4540  202.4420  144.4090 C   0  0  0  0  0  2  0  0  0  0  0  0
  160.4970  207.9630  152.8920 C   0  0  0  0  0  2  0  0  0  0  0  0
  160.9440  209.2260  153.6350 C   0  0  2  0  0  3  0  0  0  0  0  0
  159.8430  206.4790  157.2610 O   0  0  0  0  0  1  0  0  0  0  0  0
  159.4230  207.1300  156.1090 C   0  0  0  0  0  3  0  0  0  0  0  0
  160.8660  209.0740  155.1260 C   0  0  0  0  0  0  0  0  0  0  0  0
  160.1400  208.1020  155.6160 C   0  0  0  0  0  0  0  0  0  0  0  0
  162.7620  210.5810  155.6340 C   0  0  0  0  0  2  0  0  0  0  0  0
  161.6410  209.9730  156.0080 C   0  0  0  0  0  3  0  0  0  0  0  0
  159.9640  212.4970  151.8920 N   0  0  0  0  0  2  0  0  0  0  0  0
  161.7710  211.0650  151.6000 O   0  0  0  0  0  0  0  0  0  0  0  0
  160.6890  211.3040  152.2010 C   0  0  0  0  0  0  0  0  0  0  0  0
  160.1930  210.3910  153.1850 N   0  0  0  0  0  2  0  0  0  0  0  0
  158.7430  212.9130  152.5810 C   0  0  2  0  0  3  0  0  0  0  0  0
  158.1980  214.2110  151.9950 C   0  0  0  0  0  2  0  0  0  0  0  0
  156.7040  214.0920  151.7550 C   0  0  0  0  0  2  0  0  0  0  0  0
  156.8210  213.3930  149.1250 N   0  0  0  0  0  0  0  0  0  0  0  0
  155.6530  214.0760  149.2140 O   0  0  0  0  0  0  0  0  0  0  0  0
  156.4470  213.8980  150.3020 C   0  0  0  0  0  0  0  0  0  0  0  0
  159.0060  213.0810  154.0030 N   0  0  0  0  0  2  0  0  0  0  0  0
  157.8700  212.7470  154.6600 O   0  0  0  0  0  0  0  0  0  0  0  0
  156.0130  211.7150  156.4650 C   0  0  0  0  0  1  0  0  0  0  0  0
  159.5110  213.4570  156.4270 C   0  0  0  0  0  1  0  0  0  0  0  0
  157.0520  213.9630  156.5850 C   0  0  0  0  0  2  0  0  0  0  0  0
  158.1100  213.0620  156.0080 C   0  0  1  0  0  0  0  0  0  0  0  0
  157.1580  212.5240  157.0650 C   0  0  2  0  0  3  0  0  0  0  0  0
  1  2  1  0  0  0  0
  2  4  1  0  0  0  0
  3  1  1  6  0  0  0
  3  5  1  0  0  0  0
  5 29  1  1  0  0  0
  5  4  1  0  0  0  0
  6 10  1  6  0  0  0
  6  7  1  0  0  0  0
  6  8  1  0  0  0  0
  7  9  1  6  0  0  0
  7  8  1  0  0  0  0
  7  3  1  0  0  0  0
 11 12  1  0  0  0  0
 11 10  1  1  0  0  0
 13 24  1  6  0  0  0
 13 14  1  0  0  0  0
 14 16  1  6  0  0  0
 14 12  1  0  0  0  0
 15 13  1  0  0  0  0
 15 11  1  0  0  0  0
 17 18  1  0  0  0  0
 19 17  1  1  0  0  0
 20 21  1  0  0  0  0
 20 19  1  0  0  0  0
 21 16  1  6  0  0  0
 21 19  1  0  0  0  0
 21 23  1  0  0  0  0
 22 18  1  0  0  0  0
 23 22  1  0  0  0  0
 25 26  1  0  0  0  0
 25 24  1  0  0  0  0
 27 28  1  0  0  0  0
 27 26  1  0  0  0  0
 28 26  1  0  0  0  0
 30 29  1  6  0  0  0
 30 33  1  0  0  0  0
 32 31  1  0  0  0  0
 33 34  2  0  0  0  0
 33 36  1  0  0  0  0
 34 32  2  0  0  0  0
 35 36  2  0  0  0  0
 37 39  1  0  0  0  0
 37 41  1  0  0  0  0
 38 39  2  0  0  0  0
 39 40  1  0  0  0  0
 40 30  1  0  0  0  0
 41 42  1  6  0  0  0
 41 47  1  0  0  0  0
 43 42  1  0  0  0  0
 44 45  1  0  0  0  0
 44 46  2  0  0  0  0
 45 46  1  0  0  0  0
 46 43  1  0  0  0  0
 47 48  1  0  0  0  0
 48 52  1  0  0  0  0
 51 53  1  0  0  0  0
 52 50  1  1  0  0  0
 52 51  1  0  0  0  0
 52 53  1  0  0  0  0
 53 49  1  6  0  0  0
M  END
>  <MODEL>
6

>  <REMARK>
 VINA RESULT:      -3.4      3.146      9.426
  Name = 
  20 active torsions:
  status: ('A' for Active; 'I' for Inactive)
    1  A    between atoms: C_1  and  C_48
    2  A    between atoms: C_8  and  C_18
    3  A    between atoms: C_8  and  C_32
    4  A    between atoms: N_10  and  C_42
    5  A    between atoms: N_10  and  O_52
    6  A    between atoms: C_11  and  C_35
    7  A    between atoms: C_11  and  C_40
    8  A    between atoms: C_11  and  N_43
    9  A    between atoms: C_12  and  O_52
   10  A    between atoms: O_13  and  C_19
   11  A    between atoms: O_13  and  O_27
   12  A    between atoms: N_15  and  C_42
   13  A    between atoms: C_16  and  C_30
   14  A    between atoms: C_16  and  C_33
   15  A    between atoms: C_18  and  C_42
   16  A    between atoms: C_20  and  C_48
   17  A    between atoms: C_21  and  O_27
   18  A    between atoms: C_26  and  C_34
   19  A    between atoms: C_35  and  C_51
   20  A    between atoms: C_40  and  C_53
                            x       y       z     vdW  Elec       q    Type
                         _______ _______ _______ _____ _____    ______ ____

>  <TORSDO>
F 20

$$$$
