=
 OpenBabel11072410233D

 51 58  0  0  1  0  0  0  0  0999 V2000
  161.5380  208.9160  155.3820 C   0  0  0  0  0  2  0  0  0  0  0  0
  161.7130  205.4540  149.9770 C   0  0  2  0  0  3  0  0  0  0  0  0
  160.7180  209.2210  151.1420 O   0  0  0  0  0  0  0  0  0  0  0  0
  161.7620  204.9500  151.4340 C   0  0  2  0  0  3  0  0  0  0  0  0
  160.7740  205.7060  152.3440 C   0  0  0  0  0  2  0  0  0  0  0  0
  160.9470  210.9850  153.9550 C   0  0  0  0  0  2  0  0  0  0  0  0
  160.0320  205.8380  154.6150 O   0  0  0  0  0  1  0  0  0  0  0  0
  162.2780  209.0850  152.9540 C   0  0  1  0  0  3  0  0  0  0  0  0
  161.5260  208.2440  154.0090 C   0  0  1  0  0  3  0  0  0  0  0  0
  162.1550  206.8550  154.1280 C   0  0  0  0  0  2  0  0  0  0  0  0
  163.0740  205.0350  151.9110 O   0  0  0  0  0  1  0  0  0  0  0  0
  160.9520  210.3380  155.3510 C   0  0  1  0  0  3  0  0  0  0  0  0
  162.4730  207.7020  150.8730 N   0  0  0  0  0  2  0  0  0  0  0  0
  161.7920  208.7310  151.5870 C   0  0  0  0  0  0  0  0  0  0  0  0
  162.2080  210.6010  153.1930 C   0  0  0  0  0  2  0  0  0  0  0  0
  161.5940  207.5250  148.6940 N   0  0  0  0  0  2  0  0  0  0  0  0
  161.1700  205.7210  153.8180 C   0  0  2  0  0  3  0  0  0  0  0  0
  161.8440  206.9530  149.8320 C   0  0  0  0  0  0  0  0  0  0  0  0
  159.5860  210.4050  156.0300 C   0  0  1  0  0  3  0  0  0  0  0  0
  157.6460  214.4530  152.1080 C   0  0  1  0  0  3  0  0  0  0  0  0
  159.4960  211.6540  156.9210 C   0  0  1  0  0  3  0  0  0  0  0  0
  158.3450  214.4040  153.4190 C   0  0  1  0  0  3  0  0  0  0  0  0
  159.8450  213.1070  154.4070 O   0  0  0  0  0  0  0  0  0  0  0  0
  157.7000  214.1390  154.6120 O   0  0  0  0  0  0  0  0  0  0  0  0
  159.1520  213.2140  153.2190 C   0  0  2  0  0  3  0  0  0  0  0  0
  160.7850  212.4030  157.1920 C   0  0  0  0  0  3  0  0  0  0  0  0
  159.8660  213.4430  152.0480 O   0  0  0  0  0  0  0  0  0  0  0  0
  158.7880  213.5080  155.2650 C   0  0  1  0  0  0  0  0  0  0  0  0
  160.5470  213.8220  156.9470 N   0  0  0  0  0  0  0  0  0  0  0  0
  158.4470  212.6490  156.4730 C   0  0  2  0  0  3  0  0  0  0  0  0
  158.8690  214.0510  151.2290 C   0  0  1  0  0  3  0  0  0  0  0  0
  159.1260  214.0140  156.6540 C   0  0  2  0  0  3  0  0  0  0  0  0
  158.0550  213.9310  148.9880 O   0  0  0  0  0  1  0  0  0  0  0  0
  158.5190  213.1570  150.0480 C   0  0  0  0  0  2  0  0  0  0  0  0
  156.6220  213.4940  152.0480 O   0  0  0  0  0  0  0  0  0  0  0  0
  155.4280  214.2190  152.0820 C   0  0  0  0  0  2  0  0  0  0  0  0
  154.4960  214.4490  154.3580 C   0  0  0  0  0  2  0  0  0  0  0  0
  154.9220  212.3050  153.4920 N   0  0  0  0  0  2  0  0  0  0  0  0
  154.4720  213.6220  153.1030 C   0  0  2  0  0  3  0  0  0  0  0  0
  155.0240  212.3780  154.9410 C   0  0  0  0  0  2  0  0  0  0  0  0
  155.1840  213.7170  155.3280 O   0  0  0  0  0  0  0  0  0  0  0  0
  157.0910  209.6400  155.7360 O   0  0  0  0  0  0  0  0  0  0  0  0
  158.2100  210.1860  154.8570 S   0  0  0  0  0  3  0  0  0  0  0  0
  160.5340  204.8630  149.1910 C   0  0  0  0  0  2  0  0  0  0  0  0
  160.5290  203.3430  149.1980 C   0  0  0  0  0  2  0  0  0  0  0  0
  161.3210  202.8340  145.9630 C   0  0  0  0  0  2  0  0  0  0  0  0
  161.4070  202.8440  148.1560 N   0  0  0  0  0  0  0  0  0  0  0  0
  161.7570  200.5550  148.2100 F   0  0  0  0  0  0  0  0  0  0  0  0
  161.2510  203.6670  147.0870 O   0  0  0  0  0  0  0  0  0  0  0  0
  160.8440  201.5160  146.3230 N   0  0  0  0  0  2  0  0  0  0  0  0
  160.9000  201.5420  147.7610 C   0  0  2  0  0  3  0  0  0  0  0  0
  2 44  1  1  0  0  0
  2  4  1  0  0  0  0
  3 14  2  0  0  0  0
  4 11  1  1  0  0  0
  4  5  1  0  0  0  0
  5 17  1  0  0  0  0
  6 12  1  0  0  0  0
  8 15  1  1  0  0  0
  8  9  1  0  0  0  0
  9 10  1  1  0  0  0
  9  1  1  0  0  0  0
 12  1  1  0  0  0  0
 12 19  1  6  0  0  0
 13 14  1  0  0  0  0
 14  8  1  0  0  0  0
 15  6  1  0  0  0  0
 16 18  2  0  0  0  0
 17 10  1  0  0  0  0
 17  7  1  1  0  0  0
 18  2  1  0  0  0  0
 18 13  1  0  0  0  0
 19 43  1  6  0  0  0
 20 35  1  1  0  0  0
 20 22  1  0  0  0  0
 21 19  1  6  0  0  0
 21 26  1  0  0  0  0
 22 24  1  1  0  0  0
 24 28  1  0  0  0  0
 25 27  1  6  0  0  0
 25 22  1  0  0  0  0
 25 23  1  0  0  0  0
 28 23  1  6  0  0  0
 28 30  1  0  0  0  0
 28 32  1  0  0  0  0
 29 26  2  0  0  0  0
 30 32  1  0  0  0  0
 30 21  1  0  0  0  0
 31 27  1  0  0  0  0
 31 20  1  0  0  0  0
 32 29  1  0  0  0  0
 33 34  1  0  0  0  0
 34 31  1  0  0  0  0
 35 36  1  0  0  0  0
 36 39  1  0  0  0  0
 37 41  1  0  0  0  0
 38 40  1  0  0  0  0
 39 38  1  0  0  0  0
 39 37  1  0  0  0  0
 40 41  1  0  0  0  0
 43 42  2  0  0  0  0
 44 45  1  0  0  0  0
 46 50  1  0  0  0  0
 46 49  1  0  0  0  0
 47 45  1  0  0  0  0
 49 47  1  0  0  0  0
 50 51  1  0  0  0  0
 51 47  1  0  0  0  0
 51 48  1  0  0  0  0
M  END
>  <MODEL>
1

>  <REMARK>
 VINA RESULT:      -3.0      0.000      0.000
  Name = 
  10 active torsions:
  status: ('A' for Active; 'I' for Inactive)
    1  A    between atoms: C_2  and  O_10
    2  A    between atoms: C_3  and  C_20
    3  A    between atoms: C_9  and  C_23
    4  A    between atoms: O_10  and  C_19
    5  A    between atoms: C_14  and  C_48
    6  A    between atoms: S_18  and  C_20
    7  A    between atoms: C_19  and  C_29
    8  A    between atoms: C_20  and  C_38
    9  A    between atoms: N_22  and  C_28
   10  A    between atoms: C_23  and  C_28
                            x       y       z     vdW  Elec       q    Type
                         _______ _______ _______ _____ _____    ______ ____

>  <TORSDO>
F 10

$$$$
=
 OpenBabel11072410233D

 51 58  0  0  1  0  0  0  0  0999 V2000
  161.0180  211.2130  152.5550 C   0  0  0  0  0  2  0  0  0  0  0  0
  162.0550  205.7530  149.3400 C   0  0  2  0  0  3  0  0  0  0  0  0
  160.8280  209.5510  148.5620 O   0  0  0  0  0  0  0  0  0  0  0  0
  161.8990  205.9480  150.8610 C   0  0  2  0  0  3  0  0  0  0  0  0
  160.7720  206.9430  151.2060 C   0  0  0  0  0  2  0  0  0  0  0  0
  160.6060  212.3860  150.2930 C   0  0  0  0  0  2  0  0  0  0  0  0
  159.7000  207.9990  153.0670 O   0  0  0  0  0  1  0  0  0  0  0  0
  162.1050  210.3570  150.4210 C   0  0  1  0  0  3  0  0  0  0  0  0
  161.2220  210.0060  151.6380 C   0  0  1  0  0  3  0  0  0  0  0  0
  161.8520  208.8690  152.4430 C   0  0  0  0  0  2  0  0  0  0  0  0
  163.1240  206.3430  151.4080 O   0  0  0  0  0  1  0  0  0  0  0  0
  160.4160  212.4220  151.8180 C   0  0  1  0  0  3  0  0  0  0  0  0
  162.6320  208.2200  149.2200 N   0  0  0  0  0  2  0  0  0  0  0  0
  161.8330  209.3980  149.3080 C   0  0  0  0  0  0  0  0  0  0  0  0
  161.9720  211.8110  149.9450 C   0  0  0  0  0  2  0  0  0  0  0  0
  162.0880  207.0300  147.2610 N   0  0  0  0  0  2  0  0  0  0  0  0
  160.9460  207.6380  152.5540 C   0  0  2  0  0  3  0  0  0  0  0  0
  162.1780  207.0400  148.5560 C   0  0  0  0  0  0  0  0  0  0  0  0
  158.9640  212.6670  152.2210 C   0  0  1  0  0  3  0  0  0  0  0  0
  161.1610  210.1820  157.1730 C   0  0  1  0  0  3  0  0  0  0  0  0
  158.8770  213.8470  153.2030 C   0  0  1  0  0  3  0  0  0  0  0  0
  160.3080  211.3330  156.7780 C   0  0  1  0  0  3  0  0  0  0  0  0
  158.7670  211.7540  155.2420 O   0  0  0  0  0  0  0  0  0  0  0  0
  160.8120  212.4960  156.2290 O   0  0  0  0  0  0  0  0  0  0  0  0
  159.5970  210.7340  155.6630 C   0  0  2  0  0  3  0  0  0  0  0  0
  157.5260  214.1210  153.8330 C   0  0  0  0  0  3  0  0  0  0  0  0
  159.0230  209.5740  156.1690 O   0  0  0  0  0  0  0  0  0  0  0  0
  159.6860  212.8180  155.4310 C   0  0  1  0  0  0  0  0  0  0  0  0
  157.7170  214.2740  155.2710 N   0  0  0  0  0  0  0  0  0  0  0  0
  159.9180  213.8080  154.2990 C   0  0  2  0  0  3  0  0  0  0  0  0
  160.0810  209.0750  156.9850 C   0  0  1  0  0  3  0  0  0  0  0  0
  159.1520  214.2320  155.5590 C   0  0  2  0  0  3  0  0  0  0  0  0
  159.7070  206.7400  156.6540 O   0  0  0  0  0  1  0  0  0  0  0  0
  160.6220  207.7650  156.4290 C   0  0  0  0  0  2  0  0  0  0  0  0
  162.2350  210.0220  156.2820 O   0  0  0  0  0  0  0  0  0  0  0  0
  163.3820  210.3330  157.0160 C   0  0  0  0  0  2  0  0  0  0  0  0
  164.4050  211.4930  155.0910 C   0  0  0  0  0  2  0  0  0  0  0  0
  165.1980  211.9300  157.2600 N   0  0  0  0  0  2  0  0  0  0  0  0
  163.9870  211.6390  156.5280 C   0  0  2  0  0  3  0  0  0  0  0  0
  166.2070  212.0990  156.2270 C   0  0  0  0  0  2  0  0  0  0  0  0
  165.8000  211.4250  155.0660 O   0  0  0  0  0  0  0  0  0  0  0  0
  157.6430  214.2670  150.6100 O   0  0  0  0  0  0  0  0  0  0  0  0
  157.8470  212.7670  150.7860 S   0  0  0  0  0  3  0  0  0  0  0  0
  161.0180  204.7810  148.7610 C   0  0  0  0  0  2  0  0  0  0  0  0
  161.6550  203.5820  148.0780 C   0  0  0  0  0  2  0  0  0  0  0  0
  160.0510  201.1950  149.8330 C   0  0  0  0  0  2  0  0  0  0  0  0
  160.7700  202.4360  148.1720 N   0  0  0  0  0  0  0  0  0  0  0  0
  161.4950  200.5660  147.0130 F   0  0  0  0  0  0  0  0  0  0  0  0
  160.1540  202.5160  149.3790 O   0  0  0  0  0  0  0  0  0  0  0  0
  161.1470  200.4230  149.2890 N   0  0  0  0  0  2  0  0  0  0  0  0
  161.6110  201.2530  148.2080 C   0  0  2  0  0  3  0  0  0  0  0  0
  2 44  1  6  0  0  0
  2  4  1  0  0  0  0
  3 14  2  0  0  0  0
  4  5  1  0  0  0  0
  4 11  1  6  0  0  0
  5 17  1  0  0  0  0
  6 12  1  0  0  0  0
  8 15  1  6  0  0  0
  8  9  1  0  0  0  0
  9 10  1  1  0  0  0
  9  1  1  0  0  0  0
 10 17  1  0  0  0  0
 12 19  1  6  0  0  0
 12  1  1  0  0  0  0
 13 14  1  0  0  0  0
 14  8  1  0  0  0  0
 15  6  1  0  0  0  0
 16 18  2  0  0  0  0
 17  7  1  6  0  0  0
 18 13  1  0  0  0  0
 18  2  1  0  0  0  0
 19 43  1  6  0  0  0
 20 35  1  6  0  0  0
 21 19  1  1  0  0  0
 21 26  1  0  0  0  0
 21 30  1  0  0  0  0
 22 24  1  6  0  0  0
 22 20  1  0  0  0  0
 25 23  1  1  0  0  0
 25 27  1  0  0  0  0
 25 22  1  0  0  0  0
 26 29  2  0  0  0  0
 27 31  1  0  0  0  0
 28 23  1  6  0  0  0
 28 32  1  0  0  0  0
 28 24  1  0  0  0  0
 29 32  1  0  0  0  0
 30 28  1  0  0  0  0
 30 32  1  0  0  0  0
 31 20  1  0  0  0  0
 34 33  1  0  0  0  0
 34 31  1  0  0  0  0
 35 36  1  0  0  0  0
 37 39  1  0  0  0  0
 39 36  1  0  0  0  0
 39 38  1  0  0  0  0
 40 38  1  0  0  0  0
 41 37  1  0  0  0  0
 41 40  1  0  0  0  0
 42 43  2  0  0  0  0
 45 47  1  0  0  0  0
 45 44  1  0  0  0  0
 47 51  1  0  0  0  0
 47 49  1  0  0  0  0
 48 51  1  0  0  0  0
 49 46  1  0  0  0  0
 50 46  1  0  0  0  0
 51 50  1  0  0  0  0
M  END
>  <MODEL>
2

>  <REMARK>
 VINA RESULT:      -2.5      2.429      5.341
  Name = 
  10 active torsions:
  status: ('A' for Active; 'I' for Inactive)
    1  A    between atoms: C_2  and  O_10
    2  A    between atoms: C_3  and  C_20
    3  A    between atoms: C_9  and  C_23
    4  A    between atoms: O_10  and  C_19
    5  A    between atoms: C_14  and  C_48
    6  A    between atoms: S_18  and  C_20
    7  A    between atoms: C_19  and  C_29
    8  A    between atoms: C_20  and  C_38
    9  A    between atoms: N_22  and  C_28
   10  A    between atoms: C_23  and  C_28
                            x       y       z     vdW  Elec       q    Type
                         _______ _______ _______ _____ _____    ______ ____

>  <TORSDO>
F 10

$$$$
=
 OpenBabel11072410233D

 51 58  0  0  1  0  0  0  0  0999 V2000
  162.2490  207.3600  151.6210 C   0  0  0  0  0  2  0  0  0  0  0  0
  161.3540  203.7320  146.3990 C   0  0  2  0  0  3  0  0  0  0  0  0
  160.8160  207.5970  147.5420 O   0  0  0  0  0  0  0  0  0  0  0  0
  161.5890  203.2710  147.8520 C   0  0  2  0  0  3  0  0  0  0  0  0
  160.8060  204.1270  148.8670 C   0  0  0  0  0  2  0  0  0  0  0  0
  161.5950  209.4230  150.2140 C   0  0  0  0  0  2  0  0  0  0  0  0
  160.4300  204.3830  151.2160 O   0  0  0  0  0  1  0  0  0  0  0  0
  162.6200  207.3980  149.1050 C   0  0  1  0  0  3  0  0  0  0  0  0
  161.9810  206.6490  150.2940 C   0  0  1  0  0  3  0  0  0  0  0  0
  162.5200  205.2200  150.3750 C   0  0  0  0  0  2  0  0  0  0  0  0
  162.9610  203.2700  148.1230 O   0  0  0  0  0  1  0  0  0  0  0  0
  161.7660  208.8210  151.6190 C   0  0  1  0  0  3  0  0  0  0  0  0
  162.3980  205.9420  147.0770 N   0  0  0  0  0  2  0  0  0  0  0  0
  161.9080  207.0410  147.8410 C   0  0  0  0  0  0  0  0  0  0  0  0
  162.6950  208.9220  149.2880 C   0  0  0  0  0  2  0  0  0  0  0  0
  161.1880  205.7660  145.0630 N   0  0  0  0  0  2  0  0  0  0  0  0
  161.4220  204.1560  150.2630 C   0  0  2  0  0  3  0  0  0  0  0  0
  161.5670  205.2120  146.1740 C   0  0  0  0  0  0  0  0  0  0  0  0
  160.5280  209.0110  152.4910 C   0  0  1  0  0  3  0  0  0  0  0  0
  158.8620  212.1770  157.2590 C   0  0  1  0  0  3  0  0  0  0  0  0
  160.4580  207.9110  153.5620 C   0  0  1  0  0  3  0  0  0  0  0  0
  159.5190  210.8810  156.9450 C   0  0  1  0  0  3  0  0  0  0  0  0
  160.9380  210.1110  155.4270 O   0  0  0  0  0  0  0  0  0  0  0  0
  158.8280  209.7720  156.4970 O   0  0  0  0  0  0  0  0  0  0  0  0
  160.2850  211.2750  155.7770 C   0  0  2  0  0  3  0  0  0  0  0  0
  161.7650  207.4790  154.1940 C   0  0  0  0  0  3  0  0  0  0  0  0
  161.0430  212.3680  156.1820 O   0  0  0  0  0  0  0  0  0  0  0  0
  159.8710  209.2190  155.7120 C   0  0  1  0  0  0  0  0  0  0  0  0
  161.5890  207.4680  155.6430 N   0  0  0  0  0  0  0  0  0  0  0  0
  159.4620  208.1940  154.6640 C   0  0  2  0  0  3  0  0  0  0  0  0
  160.0950  213.0860  156.9700 C   0  0  1  0  0  3  0  0  0  0  0  0
  160.1850  207.7540  155.9450 C   0  0  2  0  0  3  0  0  0  0  0  0
  159.2200  214.2010  155.0500 O   0  0  0  0  0  1  0  0  0  0  0  0
  159.7480  214.4170  156.3190 C   0  0  0  0  0  2  0  0  0  0  0  0
  157.8040  212.4340  156.3710 O   0  0  0  0  0  0  0  0  0  0  0  0
  156.7450  212.8760  157.1680 C   0  0  0  0  0  2  0  0  0  0  0  0
  155.6820  212.2680  155.0240 C   0  0  0  0  0  2  0  0  0  0  0  0
  155.0580  214.2620  156.1010 N   0  0  0  0  0  2  0  0  0  0  0  0
  155.4520  212.8980  156.3690 C   0  0  2  0  0  3  0  0  0  0  0  0
  154.9180  214.3140  154.6550 C   0  0  0  0  0  2  0  0  0  0  0  0
  155.6900  213.2950  154.0770 O   0  0  0  0  0  0  0  0  0  0  0  0
  158.9450  211.0950  152.7220 O   0  0  0  0  0  0  0  0  0  0  0  0
  160.3670  210.7140  153.1160 S   0  0  0  0  0  3  0  0  0  0  0  0
  160.0310  203.2090  145.8220 C   0  0  0  0  0  2  0  0  0  0  0  0
  159.7620  201.7600  146.1950 C   0  0  0  0  0  2  0  0  0  0  0  0
  161.1050  198.9160  144.9870 C   0  0  0  0  0  2  0  0  0  0  0  0
  160.8960  200.9370  145.8170 N   0  0  0  0  0  0  0  0  0  0  0  0
  162.3400  200.4350  147.5570 F   0  0  0  0  0  0  0  0  0  0  0  0
  160.4840  200.1550  144.7860 O   0  0  0  0  0  0  0  0  0  0  0  0
  161.3140  198.7200  146.4050 N   0  0  0  0  0  2  0  0  0  0  0  0
  161.1670  200.0510  146.9340 C   0  0  2  0  0  3  0  0  0  0  0  0
  2 44  1  1  0  0  0
  2  4  1  0  0  0  0
  3 14  2  0  0  0  0
  4 11  1  1  0  0  0
  4  5  1  0  0  0  0
  5 17  1  0  0  0  0
  6 12  1  0  0  0  0
  8 15  1  1  0  0  0
  8  9  1  0  0  0  0
  9 10  1  1  0  0  0
  9  1  1  0  0  0  0
 12  1  1  0  0  0  0
 12 19  1  6  0  0  0
 13 14  1  0  0  0  0
 14  8  1  0  0  0  0
 15  6  1  0  0  0  0
 16 18  2  0  0  0  0
 17 10  1  0  0  0  0
 17  7  1  1  0  0  0
 18  2  1  0  0  0  0
 18 13  1  0  0  0  0
 19 43  1  1  0  0  0
 20 35  1  6  0  0  0
 21 19  1  1  0  0  0
 21 26  1  0  0  0  0
 21 30  1  0  0  0  0
 22 24  1  6  0  0  0
 22 20  1  0  0  0  0
 25 23  1  1  0  0  0
 25 27  1  0  0  0  0
 25 22  1  0  0  0  0
 26 29  2  0  0  0  0
 27 31  1  0  0  0  0
 28 23  1  6  0  0  0
 28 32  1  0  0  0  0
 28 24  1  0  0  0  0
 29 32  1  0  0  0  0
 30 28  1  0  0  0  0
 30 32  1  0  0  0  0
 31 20  1  0  0  0  0
 33 34  1  0  0  0  0
 34 31  1  0  0  0  0
 35 36  1  0  0  0  0
 37 39  1  0  0  0  0
 38 39  1  0  0  0  0
 39 36  1  0  0  0  0
 40 38  1  0  0  0  0
 41 40  1  0  0  0  0
 41 37  1  0  0  0  0
 42 43  2  0  0  0  0
 44 45  1  0  0  0  0
 46 50  1  0  0  0  0
 47 45  1  0  0  0  0
 47 51  1  0  0  0  0
 49 46  1  0  0  0  0
 49 47  1  0  0  0  0
 50 51  1  0  0  0  0
 51 48  1  0  0  0  0
M  END
>  <MODEL>
3

>  <REMARK>
 VINA RESULT:      -0.2      2.435      4.275
  Name = 
  10 active torsions:
  status: ('A' for Active; 'I' for Inactive)
    1  A    between atoms: C_2  and  O_10
    2  A    between atoms: C_3  and  C_20
    3  A    between atoms: C_9  and  C_23
    4  A    between atoms: O_10  and  C_19
    5  A    between atoms: C_14  and  C_48
    6  A    between atoms: S_18  and  C_20
    7  A    between atoms: C_19  and  C_29
    8  A    between atoms: C_20  and  C_38
    9  A    between atoms: N_22  and  C_28
   10  A    between atoms: C_23  and  C_28
                            x       y       z     vdW  Elec       q    Type
                         _______ _______ _______ _____ _____    ______ ____

>  <TORSDO>
F 10

$$$$
