=
 OpenBabel11072413533D

 46 50  0  0  1  0  0  0  0  0999 V2000
  161.2990  208.3600  153.0370 N   0  0  0  0  0  2  0  0  0  0  0  0
  160.4140  206.9270  154.8390 C   0  0  0  0  0  3  0  0  0  0  0  0
  161.1310  209.1620  155.3620 C   0  0  0  0  0  0  0  0  0  0  0  0
  160.3150  207.7220  157.0610 C   0  0  0  0  0  3  0  0  0  0  0  0
  160.8230  208.9170  156.6650 N   0  0  0  0  0  0  0  0  0  0  0  0
  160.9440  208.1490  154.4070 C   0  0  0  0  0  0  0  0  0  0  0  0
  160.1080  206.7370  156.1490 N   0  0  0  0  0  0  0  0  0  0  0  0
  163.0290  210.6760  155.4880 N   0  0  0  0  0  1  0  0  0  0  0  0
  161.6880  210.4940  154.9570 C   0  0  2  0  0  3  0  0  0  0  0  0
  160.7630  211.6680  155.2990 C   0  0  2  0  0  3  0  0  0  0  0  0
  160.0540  213.6020  157.1170 S   0  0  0  0  0  1  0  0  0  0  0  0
  160.7280  211.9440  156.7980 C   0  0  0  0  0  2  0  0  0  0  0  0
  159.3830  211.6240  154.6130 C   0  0  0  0  0  2  0  0  0  0  0  0
  158.1100  213.6790  154.7020 O   0  0  0  0  0  1  0  0  0  0  0  0
  158.9580  212.9090  153.9030 C   0  0  2  0  0  3  0  0  0  0  0  0
  158.3040  212.5970  152.5530 C   0  0  2  0  0  3  0  0  0  0  0  0
  158.3590  211.2210  152.3250 O   0  0  0  0  0  1  0  0  0  0  0  0
  160.1930  213.8860  151.7000 O   0  0  0  0  0  1  0  0  0  0  0  0
  158.9380  213.3490  151.3710 C   0  0  2  0  0  3  0  0  0  0  0  0
  157.9260  214.4520  149.2430 N   0  0  0  0  0  0  0  0  0  0  0  0
  157.9680  214.3830  150.7330 C   0  0  1  0  0  3  0  0  0  0  0  0
  158.6710  213.4010  148.5620 C   0  0  0  0  0  1  0  0  0  0  0  0
  156.8540  213.7810  149.9980 C   0  0  0  0  0  2  0  0  0  0  0  0
  162.3830  209.0610  150.5680 C   0  0  0  0  0  1  0  0  0  0  0  0
  160.5630  207.5900  149.4250 C   0  0  0  0  0  1  0  0  0  0  0  0
  162.0010  206.6650  151.4320 C   0  0  1  0  0  3  0  0  0  0  0  0
  161.4710  207.8460  150.6200 C   0  0  0  0  0  0  0  0  0  0  0  0
  160.8310  207.4930  151.9610 C   0  0  2  0  0  3  0  0  0  0  0  0
  161.1200  201.8180  148.3000 C   0  0  0  0  0  3  0  0  0  0  0  0
  161.6100  204.2630  152.0460 C   0  0  0  0  0  2  0  0  0  0  0  0
  160.9370  202.8480  149.1300 C   0  0  0  0  0  0  0  0  0  0  0  0
  160.3580  202.6400  150.5120 C   0  0  2  0  0  3  0  0  0  0  0  0
  161.4240  202.8070  151.6020 C   0  0  0  0  0  2  0  0  0  0  0  0
  161.5000  205.3140  150.9320 C   0  0  2  0  0  3  0  0  0  0  0  0
  162.2590  204.9100  149.6730 C   0  0  0  0  0  2  0  0  0  0  0  0
  161.3020  204.2390  148.6950 C   0  0  0  0  0  2  0  0  0  0  0  0
  159.6020  201.4550  150.6430 O   0  0  0  0  0  0  0  0  0  0  0  0
  158.6910  201.4600  149.6860 O   0  0  0  0  0  1  0  0  0  0  0  0
  161.6570  201.9980  146.9930 N   0  0  0  0  0  2  0  0  0  0  0  0
  160.7720  202.1100  145.8430 C   0  0  0  0  0  2  0  0  0  0  0  0
  162.7360  205.3720  145.0350 C   0  0  0  0  0  2  0  0  0  0  0  0
  161.5180  206.0750  144.4130 C   0  0  0  0  0  2  0  0  0  0  0  0
  161.0500  203.4080  145.1090 C   0  0  2  0  0  3  0  0  0  0  0  0
  162.4870  203.8880  145.3830 C   0  0  0  0  0  2  0  0  0  0  0  0
  160.0500  204.4550  145.5150 C   0  0  0  0  0  3  0  0  0  0  0  0
  160.2720  205.7300  145.1810 C   0  0  0  0  0  3  0  0  0  0  0  0
  1  6  1  0  0  0  0
  2  7  1  0  0  0  0
  3  5  2  0  0  0  0
  5  4  1  0  0  0  0
  6  2  2  0  0  0  0
  6  3  1  0  0  0  0
  7  4  2  0  0  0  0
  9 10  1  0  0  0  0
  9  3  1  0  0  0  0
  9  8  1  1  0  0  0
 10 13  1  1  0  0  0
 10 12  1  0  0  0  0
 12 11  1  0  0  0  0
 15 13  1  0  0  0  0
 15 14  1  1  0  0  0
 16 17  1  6  0  0  0
 16 15  1  0  0  0  0
 19 18  1  1  0  0  0
 19 16  1  0  0  0  0
 20 23  1  0  0  0  0
 20 21  1  0  0  0  0
 21 19  1  6  0  0  0
 22 20  1  0  0  0  0
 23 21  1  0  0  0  0
 24 27  1  0  0  0  0
 25 27  1  0  0  0  0
 26 27  1  6  0  0  0
 26 28  1  0  0  0  0
 27 28  1  0  0  0  0
 28  1  1  1  0  0  0
 29 31  2  0  0  0  0
 31 32  1  0  0  0  0
 32 37  1  6  0  0  0
 32 33  1  0  0  0  0
 33 30  1  0  0  0  0
 34 35  1  6  0  0  0
 34 26  1  0  0  0  0
 34 30  1  0  0  0  0
 36 31  1  0  0  0  0
 36 35  1  0  0  0  0
 38 37  1  0  0  0  0
 39 29  1  0  0  0  0
 40 39  1  0  0  0  0
 41 44  1  0  0  0  0
 42 41  1  0  0  0  0
 42 46  1  0  0  0  0
 43 44  1  0  0  0  0
 43 45  1  0  0  0  0
 43 40  1  1  0  0  0
 46 45  2  0  0  0  0
M  END
>  <MODEL>
1

>  <REMARK>
 VINA RESULT:      -5.2      0.000      0.000
  Name = 
  15 active torsions:
  status: ('A' for Active; 'I' for Inactive)
    1  A    between atoms: C_4  and  N_29
    2  A    between atoms: C_5  and  C_46
    3  A    between atoms: N_7  and  C_25
    4  A    between atoms: N_7  and  C_41
    5  A    between atoms: C_9  and  O_15
    6  A    between atoms: C_12  and  C_31
    7  A    between atoms: C_12  and  C_45
    8  A    between atoms: C_16  and  C_22
    9  A    between atoms: C_19  and  C_21
   10  A    between atoms: C_19  and  N_29
   11  A    between atoms: C_28  and  C_37
   12  A    between atoms: C_28  and  C_38
   13  A    between atoms: C_28  and  C_46
   14  A    between atoms: C_31  and  C_38
   15  A    between atoms: C_32  and  C_45
                            x       y       z     vdW  Elec       q    Type
                         _______ _______ _______ _____ _____    ______ ____

>  <TORSDO>
F 15

$$$$
=
 OpenBabel11072413533D

 46 50  0  0  1  0  0  0  0  0999 V2000
  161.2620  208.0060  152.8850 N   0  0  0  0  0  2  0  0  0  0  0  0
  160.2850  206.6240  154.6800 C   0  0  0  0  0  3  0  0  0  0  0  0
  161.0230  208.8550  155.1880 C   0  0  0  0  0  0  0  0  0  0  0  0
  160.1190  207.4620  156.8810 C   0  0  0  0  0  3  0  0  0  0  0  0
  160.6640  208.6400  156.4830 N   0  0  0  0  0  0  0  0  0  0  0  0
  160.8530  207.8270  154.2450 C   0  0  0  0  0  0  0  0  0  0  0  0
  159.9280  206.4640  155.9800 N   0  0  0  0  0  0  0  0  0  0  0  0
  162.8060  210.4640  155.5660 N   0  0  0  0  0  1  0  0  0  0  0  0
  161.6200  210.1690  154.7790 C   0  0  2  0  0  3  0  0  0  0  0  0
  160.6110  211.3230  154.7920 C   0  0  2  0  0  3  0  0  0  0  0  0
  159.4920  211.7740  157.2600 S   0  0  0  0  0  1  0  0  0  0  0  0
  160.7640  212.1960  156.0320 C   0  0  0  0  0  2  0  0  0  0  0  0
  159.1620  210.9170  154.4540 C   0  0  0  0  0  2  0  0  0  0  0  0
  158.9200  213.2660  153.9250 O   0  0  0  0  0  1  0  0  0  0  0  0
  158.2220  212.0670  154.0900 C   0  0  2  0  0  3  0  0  0  0  0  0
  157.1130  212.2180  155.1350 C   0  0  2  0  0  3  0  0  0  0  0  0
  156.6950  210.9500  155.5450 O   0  0  0  0  0  1  0  0  0  0  0  0
  155.9040  213.1770  153.2450 O   0  0  0  0  0  1  0  0  0  0  0  0
  155.9050  213.0320  154.6410 C   0  0  2  0  0  3  0  0  0  0  0  0
  155.0340  214.3310  156.7200 N   0  0  0  0  0  0  0  0  0  0  0  0
  155.7390  214.3760  155.4060 C   0  0  1  0  0  3  0  0  0  0  0  0
  154.7510  212.9910  157.2150 C   0  0  0  0  0  1  0  0  0  0  0  0
  156.5010  214.4500  156.6540 C   0  0  0  0  0  2  0  0  0  0  0  0
  162.3350  208.7300  150.4180 C   0  0  0  0  0  1  0  0  0  0  0  0
  160.5170  207.2620  149.2700 C   0  0  0  0  0  1  0  0  0  0  0  0
  161.9650  206.3270  151.2640 C   0  0  1  0  0  3  0  0  0  0  0  0
  161.4280  207.5120  150.4640 C   0  0  0  0  0  0  0  0  0  0  0  0
  160.7940  207.1460  151.8040 C   0  0  2  0  0  3  0  0  0  0  0  0
  161.0260  201.5400  148.0560 C   0  0  0  0  0  3  0  0  0  0  0  0
  161.6550  203.9020  151.8350 C   0  0  0  0  0  2  0  0  0  0  0  0
  160.8650  202.5460  148.9210 C   0  0  0  0  0  0  0  0  0  0  0  0
  160.3610  202.2910  150.3240 C   0  0  2  0  0  3  0  0  0  0  0  0
  161.4760  202.4540  151.3630 C   0  0  0  0  0  2  0  0  0  0  0  0
  161.4670  204.9780  150.7550 C   0  0  2  0  0  3  0  0  0  0  0  0
  162.1700  204.6220  149.4500 C   0  0  0  0  0  2  0  0  0  0  0  0
  161.1780  203.9550  148.5040 C   0  0  0  0  0  2  0  0  0  0  0  0
  159.6360  201.0870  150.4620 O   0  0  0  0  0  0  0  0  0  0  0  0
  158.5310  201.2070  149.7490 O   0  0  0  0  0  1  0  0  0  0  0  0
  161.4930  201.7650  146.7290 N   0  0  0  0  0  2  0  0  0  0  0  0
  160.5690  202.1850  145.6860 C   0  0  0  0  0  2  0  0  0  0  0  0
  162.8480  205.3260  145.3820 C   0  0  0  0  0  2  0  0  0  0  0  0
  161.7630  206.1740  144.6970 C   0  0  0  0  0  2  0  0  0  0  0  0
  161.0240  203.5090  145.1020 C   0  0  2  0  0  3  0  0  0  0  0  0
  162.4510  203.8450  145.5710 C   0  0  0  0  0  2  0  0  0  0  0  0
  160.0630  204.6000  145.4890 C   0  0  0  0  0  3  0  0  0  0  0  0
  160.4160  205.8750  145.2930 C   0  0  0  0  0  3  0  0  0  0  0  0
  1  6  1  0  0  0  0
  2  7  1  0  0  0  0
  3  5  2  0  0  0  0
  5  4  1  0  0  0  0
  6  2  2  0  0  0  0
  6  3  1  0  0  0  0
  7  4  2  0  0  0  0
  9 10  1  0  0  0  0
  9  3  1  0  0  0  0
  9  8  1  1  0  0  0
 10 13  1  1  0  0  0
 10 12  1  0  0  0  0
 12 11  1  0  0  0  0
 15 14  1  1  0  0  0
 15 13  1  0  0  0  0
 15 16  1  0  0  0  0
 16 17  1  6  0  0  0
 19 18  1  6  0  0  0
 19 16  1  0  0  0  0
 20 22  1  0  0  0  0
 21 19  1  1  0  0  0
 21 23  1  0  0  0  0
 21 20  1  0  0  0  0
 23 20  1  0  0  0  0
 24 27  1  0  0  0  0
 25 27  1  0  0  0  0
 26 27  1  6  0  0  0
 26 28  1  0  0  0  0
 27 28  1  0  0  0  0
 28  1  1  1  0  0  0
 29 31  2  0  0  0  0
 31 32  1  0  0  0  0
 32 37  1  6  0  0  0
 32 33  1  0  0  0  0
 33 30  1  0  0  0  0
 34 35  1  6  0  0  0
 34 26  1  0  0  0  0
 34 30  1  0  0  0  0
 36 31  1  0  0  0  0
 36 35  1  0  0  0  0
 38 37  1  0  0  0  0
 39 29  1  0  0  0  0
 40 39  1  0  0  0  0
 41 44  1  0  0  0  0
 42 46  1  0  0  0  0
 42 41  1  0  0  0  0
 43 45  1  0  0  0  0
 43 44  1  0  0  0  0
 43 40  1  1  0  0  0
 46 45  2  0  0  0  0
M  END
>  <MODEL>
2

>  <REMARK>
 VINA RESULT:      -4.9      1.941      2.559
  Name = 
  15 active torsions:
  status: ('A' for Active; 'I' for Inactive)
    1  A    between atoms: C_4  and  N_29
    2  A    between atoms: C_5  and  C_46
    3  A    between atoms: N_7  and  C_25
    4  A    between atoms: N_7  and  C_41
    5  A    between atoms: C_9  and  O_15
    6  A    between atoms: C_12  and  C_31
    7  A    between atoms: C_12  and  C_45
    8  A    between atoms: C_16  and  C_22
    9  A    between atoms: C_19  and  C_21
   10  A    between atoms: C_19  and  N_29
   11  A    between atoms: C_28  and  C_37
   12  A    between atoms: C_28  and  C_38
   13  A    between atoms: C_28  and  C_46
   14  A    between atoms: C_31  and  C_38
   15  A    between atoms: C_32  and  C_45
                            x       y       z     vdW  Elec       q    Type
                         _______ _______ _______ _____ _____    ______ ____

>  <TORSDO>
F 15

$$$$
=
 OpenBabel11072413533D

 46 50  0  0  1  0  0  0  0  0999 V2000
  161.9900  208.4670  152.3630 N   0  0  0  0  0  2  0  0  0  0  0  0
  161.9600  210.1820  150.5900 C   0  0  0  0  0  3  0  0  0  0  0  0
  160.8250  210.6200  152.6640 C   0  0  0  0  0  0  0  0  0  0  0  0
  160.7910  212.2100  150.9040 C   0  0  0  0  0  3  0  0  0  0  0  0
  160.4320  211.8190  152.1540 N   0  0  0  0  0  0  0  0  0  0  0  0
  161.5980  209.7540  151.8730 C   0  0  0  0  0  0  0  0  0  0  0  0
  161.5560  211.3950  150.1320 N   0  0  0  0  0  0  0  0  0  0  0  0
  159.0110  209.8340  154.0790 N   0  0  0  0  0  1  0  0  0  0  0  0
  160.4130  210.2180  154.0490 C   0  0  2  0  0  3  0  0  0  0  0  0
  160.7500  211.2720  155.1110 C   0  0  2  0  0  3  0  0  0  0  0  0
  161.7810  209.0420  156.3410 S   0  0  0  0  0  1  0  0  0  0  0  0
  161.9000  210.8250  156.0070 C   0  0  0  0  0  2  0  0  0  0  0  0
  159.5310  211.8520  155.8550 C   0  0  0  0  0  2  0  0  0  0  0  0
  159.8270  214.2530  155.8500 O   0  0  0  0  0  1  0  0  0  0  0  0
  159.0390  213.2110  155.3560 C   0  0  2  0  0  3  0  0  0  0  0  0
  157.5640  213.4230  155.7120 C   0  0  2  0  0  3  0  0  0  0  0  0
  157.2090  212.5380  156.7330 O   0  0  0  0  0  1  0  0  0  0  0  0
  155.6540  212.2520  154.7460 O   0  0  0  0  0  1  0  0  0  0  0  0
  156.6100  213.2550  154.5190 C   0  0  2  0  0  3  0  0  0  0  0  0
  156.7090  213.6580  151.9510 N   0  0  0  0  0  0  0  0  0  0  0  0
  157.3650  213.1000  153.1690 C   0  0  1  0  0  3  0  0  0  0  0  0
  155.5150  214.4520  152.2100 C   0  0  0  0  0  1  0  0  0  0  0  0
  157.8290  214.3650  152.5960 C   0  0  0  0  0  2  0  0  0  0  0  0
  160.9790  206.0180  153.2240 C   0  0  0  0  0  1  0  0  0  0  0  0
  162.6440  204.8370  151.6070 C   0  0  0  0  0  1  0  0  0  0  0  0
  161.1230  206.8270  150.7830 C   0  0  1  0  0  3  0  0  0  0  0  0
  161.7670  206.0410  151.9240 C   0  0  0  0  0  0  0  0  0  0  0  0
  162.3690  207.3710  151.4790 C   0  0  2  0  0  3  0  0  0  0  0  0
  161.1570  203.9230  145.7180 C   0  0  0  0  0  3  0  0  0  0  0  0
  161.7460  207.4610  148.4360 C   0  0  0  0  0  2  0  0  0  0  0  0
  161.5520  204.5850  146.8100 C   0  0  0  0  0  0  0  0  0  0  0  0
  162.5250  205.7390  146.7090 C   0  0  2  0  0  3  0  0  0  0  0  0
  161.8310  207.0850  146.9520 C   0  0  0  0  0  2  0  0  0  0  0  0
  161.4880  206.2950  149.4010 C   0  0  2  0  0  3  0  0  0  0  0  0
  160.3970  205.3550  148.8990 C   0  0  0  0  0  2  0  0  0  0  0  0
  161.0350  204.1830  148.1620 C   0  0  0  0  0  2  0  0  0  0  0  0
  163.3180  205.7190  145.5410 O   0  0  0  0  0  0  0  0  0  0  0  0
  163.9570  204.5630  145.5180 O   0  0  0  0  0  1  0  0  0  0  0  0
  160.2480  202.8290  145.7970 N   0  0  0  0  0  2  0  0  0  0  0  0
  160.6730  201.5590  146.3660 C   0  0  0  0  0  2  0  0  0  0  0  0
  161.7130  200.4330  149.9440 C   0  0  0  0  0  2  0  0  0  0  0  0
  160.6680  201.3220  150.6390 C   0  0  0  0  0  2  0  0  0  0  0  0
  160.8020  201.6900  147.8710 C   0  0  2  0  0  3  0  0  0  0  0  0
  161.8110  200.6650  148.4200 C   0  0  0  0  0  2  0  0  0  0  0  0
  159.4560  201.5150  148.5210 C   0  0  0  0  0  3  0  0  0  0  0  0
  159.3920  201.3410  149.8450 C   0  0  0  0  0  3  0  0  0  0  0  0
  2  6  1  0  0  0  0
  3  9  1  0  0  0  0
  4  5  2  0  0  0  0
  5  3  1  0  0  0  0
  6  1  1  0  0  0  0
  6  3  2  0  0  0  0
  7  2  2  0  0  0  0
  7  4  1  0  0  0  0
  9  8  1  6  0  0  0
  9 10  1  0  0  0  0
 10 13  1  1  0  0  0
 10 12  1  0  0  0  0
 12 11  1  0  0  0  0
 15 16  1  0  0  0  0
 15 14  1  1  0  0  0
 15 13  1  0  0  0  0
 16 17  1  1  0  0  0
 19 18  1  1  0  0  0
 19 16  1  0  0  0  0
 20 22  1  0  0  0  0
 20 23  1  0  0  0  0
 20 21  1  0  0  0  0
 21 19  1  1  0  0  0
 23 21  1  0  0  0  0
 25 27  1  0  0  0  0
 26 28  1  0  0  0  0
 26 27  1  1  0  0  0
 27 24  1  0  0  0  0
 28 27  1  0  0  0  0
 28  1  1  1  0  0  0
 29 39  1  0  0  0  0
 29 31  2  0  0  0  0
 31 36  1  0  0  0  0
 32 37  1  6  0  0  0
 32 31  1  0  0  0  0
 32 33  1  0  0  0  0
 33 30  1  0  0  0  0
 34 30  1  6  0  0  0
 34 26  1  0  0  0  0
 35 34  1  0  0  0  0
 36 35  1  0  0  0  0
 38 37  1  0  0  0  0
 39 40  1  0  0  0  0
 41 42  1  0  0  0  0
 43 40  1  6  0  0  0
 43 44  1  0  0  0  0
 43 45  1  0  0  0  0
 44 41  1  0  0  0  0
 45 46  2  0  0  0  0
 46 42  1  0  0  0  0
M  END
>  <MODEL>
3

>  <REMARK>
 VINA RESULT:      -4.2      2.666      4.350
  Name = 
  15 active torsions:
  status: ('A' for Active; 'I' for Inactive)
    1  A    between atoms: C_4  and  N_29
    2  A    between atoms: C_5  and  C_46
    3  A    between atoms: N_7  and  C_25
    4  A    between atoms: N_7  and  C_41
    5  A    between atoms: C_9  and  O_15
    6  A    between atoms: C_12  and  C_31
    7  A    between atoms: C_12  and  C_45
    8  A    between atoms: C_16  and  C_22
    9  A    between atoms: C_19  and  C_21
   10  A    between atoms: C_19  and  N_29
   11  A    between atoms: C_28  and  C_37
   12  A    between atoms: C_28  and  C_38
   13  A    between atoms: C_28  and  C_46
   14  A    between atoms: C_31  and  C_38
   15  A    between atoms: C_32  and  C_45
                            x       y       z     vdW  Elec       q    Type
                         _______ _______ _______ _____ _____    ______ ____

>  <TORSDO>
F 15

$$$$
=
 OpenBabel11072413533D

 46 50  0  0  1  0  0  0  0  0999 V2000
  161.3260  207.7360  152.7180 N   0  0  0  0  0  2  0  0  0  0  0  0
  161.7350  208.9620  150.6170 C   0  0  0  0  0  3  0  0  0  0  0  0
  161.5980  206.5620  150.5680 C   0  0  0  0  0  0  0  0  0  0  0  0
  162.0360  207.7920  148.5870 C   0  0  0  0  0  3  0  0  0  0  0  0
  161.8540  206.6110  149.2320 N   0  0  0  0  0  0  0  0  0  0  0  0
  161.5480  207.7570  151.3040 C   0  0  0  0  0  0  0  0  0  0  0  0
  161.9710  208.9590  149.2800 N   0  0  0  0  0  0  0  0  0  0  0  0
  162.6260  204.8010  151.8910 N   0  0  0  0  0  1  0  0  0  0  0  0
  161.3990  205.2410  151.2490 C   0  0  2  0  0  3  0  0  0  0  0  0
  160.8070  204.1670  150.3270 C   0  0  2  0  0  3  0  0  0  0  0  0
  161.0720  201.7300  151.5670 S   0  0  0  0  0  1  0  0  0  0  0  0
  160.0070  203.1290  151.1070 C   0  0  0  0  0  2  0  0  0  0  0  0
  161.7940  203.5890  149.2930 C   0  0  0  0  0  2  0  0  0  0  0  0
  161.0620  201.5280  148.2560 O   0  0  0  0  0  1  0  0  0  0  0  0
  161.1570  202.9110  148.0800 C   0  0  2  0  0  3  0  0  0  0  0  0
  161.9250  203.2490  146.7990 C   0  0  2  0  0  3  0  0  0  0  0  0
  162.8320  204.2760  147.0680 O   0  0  0  0  0  1  0  0  0  0  0  0
  160.4500  202.5250  144.9950 O   0  0  0  0  0  1  0  0  0  0  0  0
  161.0190  203.6450  145.6210 C   0  0  2  0  0  3  0  0  0  0  0  0
  161.0370  205.9180  144.3560 N   0  0  0  0  0  0  0  0  0  0  0  0
  161.7190  204.6210  144.6330 C   0  0  1  0  0  3  0  0  0  0  0  0
  159.8800  206.1920  145.1980 C   0  0  0  0  0  1  0  0  0  0  0  0
  162.2020  205.8550  145.2550 C   0  0  0  0  0  2  0  0  0  0  0  0
  161.8060  207.9510  155.4540 C   0  0  0  0  0  1  0  0  0  0  0  0
  159.4370  208.9990  155.7210 C   0  0  0  0  0  1  0  0  0  0  0  0
  161.1120  209.8680  153.8810 C   0  0  1  0  0  3  0  0  0  0  0  0
  160.6790  208.7840  154.8660 C   0  0  0  0  0  0  0  0  0  0  0  0
  160.3780  208.6270  153.3780 C   0  0  2  0  0  3  0  0  0  0  0  0
  157.6260  214.2290  152.1760 C   0  0  0  0  0  3  0  0  0  0  0  0
  158.9950  210.8450  154.8080 C   0  0  0  0  0  2  0  0  0  0  0  0
  158.4850  213.4860  152.8790 C   0  0  0  0  0  0  0  0  0  0  0  0
  158.2900  213.2660  154.3630 C   0  0  2  0  0  3  0  0  0  0  0  0
  157.8320  211.8340  154.6650 C   0  0  0  0  0  2  0  0  0  0  0  0
  160.1770  211.0730  153.8560 C   0  0  2  0  0  3  0  0  0  0  0  0
  159.7280  211.3550  152.4260 C   0  0  0  0  0  2  0  0  0  0  0  0
  159.6700  212.8610  152.1990 C   0  0  0  0  0  2  0  0  0  0  0  0
  157.4980  214.2530  154.9890 O   0  0  0  0  0  0  0  0  0  0  0  0
  157.9970  214.4530  156.1960 O   0  0  0  0  0  1  0  0  0  0  0  0
  157.8000  214.4520  150.7800 N   0  0  0  0  0  2  0  0  0  0  0  0
  157.1540  213.5800  149.8100 C   0  0  0  0  0  2  0  0  0  0  0  0
  158.1380  212.5970  146.1740 C   0  0  0  0  0  2  0  0  0  0  0  0
  159.2860  213.6170  146.0990 C   0  0  0  0  0  2  0  0  0  0  0  0
  157.7690  213.7950  148.4410 C   0  0  2  0  0  3  0  0  0  0  0  0
  157.2780  212.7230  147.4510 C   0  0  0  0  0  2  0  0  0  0  0  0
  159.2700  213.7820  148.5410 C   0  0  0  0  0  3  0  0  0  0  0  0
  159.9950  213.6980  147.4210 C   0  0  0  0  0  3  0  0  0  0  0  0
  2  6  1  0  0  0  0
  3  9  1  0  0  0  0
  3  6  2  0  0  0  0
  4  5  2  0  0  0  0
  4  7  1  0  0  0  0
  5  3  1  0  0  0  0
  6  1  1  0  0  0  0
  7  2  2  0  0  0  0
  9  8  1  6  0  0  0
 10 13  1  1  0  0  0
 10 12  1  0  0  0  0
 10  9  1  0  0  0  0
 12 11  1  0  0  0  0
 15 14  1  1  0  0  0
 15 13  1  0  0  0  0
 16 17  1  1  0  0  0
 16 15  1  0  0  0  0
 19 18  1  6  0  0  0
 19 16  1  0  0  0  0
 20 21  1  0  0  0  0
 20 22  1  0  0  0  0
 20 23  1  0  0  0  0
 21 23  1  0  0  0  0
 21 19  1  1  0  0  0
 26 27  1  1  0  0  0
 27 24  1  0  0  0  0
 27 25  1  0  0  0  0
 28  1  1  6  0  0  0
 28 26  1  0  0  0  0
 28 27  1  0  0  0  0
 29 31  2  0  0  0  0
 31 32  1  0  0  0  0
 32 33  1  0  0  0  0
 32 37  1  6  0  0  0
 33 30  1  0  0  0  0
 34 35  1  6  0  0  0
 34 26  1  0  0  0  0
 34 30  1  0  0  0  0
 36 35  1  0  0  0  0
 36 31  1  0  0  0  0
 37 38  1  0  0  0  0
 39 29  1  0  0  0  0
 40 39  1  0  0  0  0
 41 44  1  0  0  0  0
 42 41  1  0  0  0  0
 42 46  1  0  0  0  0
 43 45  1  0  0  0  0
 43 40  1  1  0  0  0
 44 43  1  0  0  0  0
 46 45  2  0  0  0  0
M  END
>  <MODEL>
4

>  <REMARK>
 VINA RESULT:      -3.9      2.857      9.673
  Name = 
  15 active torsions:
  status: ('A' for Active; 'I' for Inactive)
    1  A    between atoms: C_4  and  N_29
    2  A    between atoms: C_5  and  C_46
    3  A    between atoms: N_7  and  C_25
    4  A    between atoms: N_7  and  C_41
    5  A    between atoms: C_9  and  O_15
    6  A    between atoms: C_12  and  C_31
    7  A    between atoms: C_12  and  C_45
    8  A    between atoms: C_16  and  C_22
    9  A    between atoms: C_19  and  C_21
   10  A    between atoms: C_19  and  N_29
   11  A    between atoms: C_28  and  C_37
   12  A    between atoms: C_28  and  C_38
   13  A    between atoms: C_28  and  C_46
   14  A    between atoms: C_31  and  C_38
   15  A    between atoms: C_32  and  C_45
                            x       y       z     vdW  Elec       q    Type
                         _______ _______ _______ _____ _____    ______ ____

>  <TORSDO>
F 15

$$$$
=
 OpenBabel11072413533D

 46 50  0  0  1  0  0  0  0  0999 V2000
  162.1860  206.8330  150.9930 N   0  0  0  0  0  2  0  0  0  0  0  0
  161.6110  205.7930  153.1540 C   0  0  0  0  0  3  0  0  0  0  0  0
  161.1910  204.5810  151.1200 C   0  0  0  0  0  0  0  0  0  0  0  0
  160.6160  203.6520  153.2260 C   0  0  0  0  0  3  0  0  0  0  0  0
  160.6660  203.5740  151.8710 N   0  0  0  0  0  0  0  0  0  0  0  0
  161.6690  205.7390  151.7570 C   0  0  0  0  0  0  0  0  0  0  0  0
  161.0920  204.7550  153.8600 N   0  0  0  0  0  0  0  0  0  0  0  0
  160.4510  205.5180  149.0030 N   0  0  0  0  0  1  0  0  0  0  0  0
  161.2330  204.4630  149.6260 C   0  0  2  0  0  3  0  0  0  0  0  0
  160.8430  203.0710  149.1170 C   0  0  2  0  0  3  0  0  0  0  0  0
  159.5350  200.8480  150.0620 S   0  0  0  0  0  1  0  0  0  0  0  0
  160.9120  202.0230  150.2220 C   0  0  0  0  0  2  0  0  0  0  0  0
  161.5060  202.6610  147.7870 C   0  0  0  0  0  2  0  0  0  0  0  0
  161.0540  200.6940  146.4520 O   0  0  0  0  0  1  0  0  0  0  0  0
  160.5890  201.9700  146.7770 C   0  0  2  0  0  3  0  0  0  0  0  0
  160.4170  202.8270  145.5190 C   0  0  2  0  0  3  0  0  0  0  0  0
  160.1320  201.9950  144.4350 O   0  0  0  0  0  1  0  0  0  0  0  0
  162.8210  203.1830  145.7440 O   0  0  0  0  0  1  0  0  0  0  0  0
  161.6380  203.7060  145.1980 C   0  0  2  0  0  3  0  0  0  0  0  0
  161.2760  206.1560  144.4020 N   0  0  0  0  0  0  0  0  0  0  0  0
  161.4020  205.2030  145.5430 C   0  0  1  0  0  3  0  0  0  0  0  0
  161.2040  205.5290  143.0890 C   0  0  0  0  0  1  0  0  0  0  0  0
  160.0860  205.7070  145.1450 C   0  0  0  0  0  2  0  0  0  0  0  0
  161.6750  208.7710  149.0570 C   0  0  0  0  0  1  0  0  0  0  0  0
  162.7150  210.5460  150.6530 C   0  0  0  0  0  1  0  0  0  0  0  0
  160.9000  208.8380  151.5120 C   0  0  1  0  0  3  0  0  0  0  0  0
  161.9470  209.2430  150.4760 C   0  0  0  0  0  0  0  0  0  0  0  0
  162.2820  208.1880  151.5270 C   0  0  2  0  0  3  0  0  0  0  0  0
  159.3080  213.2850  154.9430 C   0  0  0  0  0  3  0  0  0  0  0  0
  160.5800  209.0740  153.9900 C   0  0  0  0  0  2  0  0  0  0  0  0
  160.0220  212.3160  154.3640 C   0  0  0  0  0  0  0  0  0  0  0  0
  160.8040  211.3220  155.1950 C   0  0  2  0  0  3  0  0  0  0  0  0
  160.1480  209.9360  155.1830 C   0  0  0  0  0  2  0  0  0  0  0  0
  160.7770  209.8270  152.6660 C   0  0  2  0  0  3  0  0  0  0  0  0
  159.6510  210.8170  152.3860 C   0  0  0  0  0  2  0  0  0  0  0  0
  160.0630  212.2040  152.8660 C   0  0  0  0  0  2  0  0  0  0  0  0
  161.1180  211.7840  156.4920 O   0  0  0  0  0  0  0  0  0  0  0  0
  162.1090  211.0370  156.9460 O   0  0  0  0  0  1  0  0  0  0  0  0
  158.5730  214.2320  154.1750 N   0  0  0  0  0  2  0  0  0  0  0  0
  157.1260  214.1200  154.0570 C   0  0  0  0  0  2  0  0  0  0  0  0
  157.3400  214.4530  150.1850 C   0  0  0  0  0  2  0  0  0  0  0  0
  155.9180  213.9150  149.9570 C   0  0  0  0  0  2  0  0  0  0  0  0
  156.7530  213.8030  152.6220 C   0  0  2  0  0  3  0  0  0  0  0  0
  157.8140  214.3540  151.6520 C   0  0  0  0  0  2  0  0  0  0  0  0
  155.3950  214.3660  152.3050 C   0  0  0  0  0  3  0  0  0  0  0  0
  154.9940  214.4180  151.0310 C   0  0  0  0  0  3  0  0  0  0  0  0
  1  6  1  0  0  0  0
  2  7  1  0  0  0  0
  3  6  1  0  0  0  0
  3  5  2  0  0  0  0
  4  7  2  0  0  0  0
  5  4  1  0  0  0  0
  6  2  2  0  0  0  0
  9  8  1  6  0  0  0
  9  3  1  0  0  0  0
 10 13  1  6  0  0  0
 10  9  1  0  0  0  0
 10 12  1  0  0  0  0
 11 12  1  0  0  0  0
 15 14  1  6  0  0  0
 15 13  1  0  0  0  0
 16 17  1  6  0  0  0
 16 15  1  0  0  0  0
 19 16  1  0  0  0  0
 19 18  1  1  0  0  0
 20 23  1  0  0  0  0
 20 21  1  0  0  0  0
 21 19  1  6  0  0  0
 22 20  1  0  0  0  0
 23 21  1  0  0  0  0
 24 27  1  0  0  0  0
 26 27  1  6  0  0  0
 26 28  1  0  0  0  0
 26 34  1  0  0  0  0
 27 25  1  0  0  0  0
 27 28  1  0  0  0  0
 28  1  1  6  0  0  0
 30 33  1  0  0  0  0
 31 29  2  0  0  0  0
 31 32  1  0  0  0  0
 32 37  1  1  0  0  0
 33 32  1  0  0  0  0
 34 35  1  6  0  0  0
 34 30  1  0  0  0  0
 35 36  1  0  0  0  0
 36 31  1  0  0  0  0
 37 38  1  0  0  0  0
 39 29  1  0  0  0  0
 40 39  1  0  0  0  0
 41 44  1  0  0  0  0
 42 41  1  0  0  0  0
 42 46  1  0  0  0  0
 43 40  1  1  0  0  0
 44 43  1  0  0  0  0
 45 43  1  0  0  0  0
 46 45  2  0  0  0  0
M  END
>  <MODEL>
5

>  <REMARK>
 VINA RESULT:      -3.7      3.349     10.065
  Name = 
  15 active torsions:
  status: ('A' for Active; 'I' for Inactive)
    1  A    between atoms: C_4  and  N_29
    2  A    between atoms: C_5  and  C_46
    3  A    between atoms: N_7  and  C_25
    4  A    between atoms: N_7  and  C_41
    5  A    between atoms: C_9  and  O_15
    6  A    between atoms: C_12  and  C_31
    7  A    between atoms: C_12  and  C_45
    8  A    between atoms: C_16  and  C_22
    9  A    between atoms: C_19  and  C_21
   10  A    between atoms: C_19  and  N_29
   11  A    between atoms: C_28  and  C_37
   12  A    between atoms: C_28  and  C_38
   13  A    between atoms: C_28  and  C_46
   14  A    between atoms: C_31  and  C_38
   15  A    between atoms: C_32  and  C_45
                            x       y       z     vdW  Elec       q    Type
                         _______ _______ _______ _____ _____    ______ ____

>  <TORSDO>
F 15

$$$$
=
 OpenBabel11072413533D

 46 50  0  0  1  0  0  0  0  0999 V2000
  161.7480  209.9010  150.9160 N   0  0  0  0  0  2  0  0  0  0  0  0
  162.3460  210.9200  148.7510 C   0  0  0  0  0  3  0  0  0  0  0  0
  160.9860  212.1620  150.2970 C   0  0  0  0  0  0  0  0  0  0  0  0
  161.5540  213.0710  148.1800 C   0  0  0  0  0  3  0  0  0  0  0  0
  160.9220  213.1650  149.3780 N   0  0  0  0  0  0  0  0  0  0  0  0
  161.6990  210.9910  149.9900 C   0  0  0  0  0  0  0  0  0  0  0  0
  162.2650  211.9540  147.8740 N   0  0  0  0  0  0  0  0  0  0  0  0
  160.1120  211.0010  152.2450 N   0  0  0  0  0  1  0  0  0  0  0  0
  160.2790  212.2980  151.6120 C   0  0  2  0  0  3  0  0  0  0  0  0
  158.9580  213.0720  151.5130 C   0  0  2  0  0  3  0  0  0  0  0  0
  157.0810  213.3020  149.5200 S   0  0  0  0  0  1  0  0  0  0  0  0
  158.7550  213.6700  150.1250 C   0  0  0  0  0  2  0  0  0  0  0  0
  158.6850  214.0350  152.6850 C   0  0  0  0  0  2  0  0  0  0  0  0
  156.3900  214.4460  153.3350 O   0  0  0  0  0  1  0  0  0  0  0  0
  157.5130  213.6550  153.5910 C   0  0  2  0  0  3  0  0  0  0  0  0
  157.9150  213.7350  155.0670 C   0  0  2  0  0  3  0  0  0  0  0  0
  159.2870  213.9810  155.1540 O   0  0  0  0  0  1  0  0  0  0  0  0
  158.6480  212.0000  156.6180 O   0  0  0  0  0  1  0  0  0  0  0  0
  157.5560  212.4770  155.8740 C   0  0  2  0  0  3  0  0  0  0  0  0
  155.7130  210.6610  155.6010 N   0  0  0  0  0  0  0  0  0  0  0  0
  156.8730  211.3850  155.0040 C   0  0  1  0  0  3  0  0  0  0  0  0
  155.2440  211.2030  156.8700 C   0  0  0  0  0  1  0  0  0  0  0  0
  155.5070  211.7170  154.5950 C   0  0  0  0  0  2  0  0  0  0  0  0
  160.9260  207.9380  152.7140 C   0  0  0  0  0  1  0  0  0  0  0  0
  162.6990  206.3380  151.6780 C   0  0  0  0  0  1  0  0  0  0  0  0
  161.0350  207.6990  150.1520 C   0  0  1  0  0  3  0  0  0  0  0  0
  161.7250  207.4940  151.5000 C   0  0  0  0  0  0  0  0  0  0  0  0
  162.2250  208.5730  150.5420 C   0  0  2  0  0  3  0  0  0  0  0  0
  161.3880  202.9880  146.7220 C   0  0  0  0  0  3  0  0  0  0  0  0
  161.5990  207.3690  147.7290 C   0  0  0  0  0  2  0  0  0  0  0  0
  161.7080  204.0740  147.4300 C   0  0  0  0  0  0  0  0  0  0  0  0
  162.5570  205.1730  146.8290 C   0  0  2  0  0  3  0  0  0  0  0  0
  161.7280  206.4260  146.5260 C   0  0  0  0  0  2  0  0  0  0  0  0
  161.4580  206.6840  149.0950 C   0  0  2  0  0  3  0  0  0  0  0  0
  160.4720  205.5210  149.0650 C   0  0  0  0  0  2  0  0  0  0  0  0
  161.2300  204.2170  148.8480 C   0  0  0  0  0  2  0  0  0  0  0  0
  163.3530  204.7500  145.7410 O   0  0  0  0  0  0  0  0  0  0  0  0
  162.7860  205.2030  144.6380 O   0  0  0  0  0  1  0  0  0  0  0  0
  160.5950  201.9420  147.2760 N   0  0  0  0  0  2  0  0  0  0  0  0
  161.2270  200.8310  147.9710 C   0  0  0  0  0  2  0  0  0  0  0  0
  159.7120  202.3750  151.2080 C   0  0  0  0  0  2  0  0  0  0  0  0
  160.9040  201.9620  152.0870 C   0  0  0  0  0  2  0  0  0  0  0  0
  161.0430  200.9930  149.4680 C   0  0  2  0  0  3  0  0  0  0  0  0
  159.7720  201.8060  149.7720 C   0  0  0  0  0  2  0  0  0  0  0  0
  162.2550  201.6500  150.0690 C   0  0  0  0  0  3  0  0  0  0  0  0
  162.1890  202.1110  151.3220 C   0  0  0  0  0  3  0  0  0  0  0  0
  2  6  1  0  0  0  0
  3  9  1  0  0  0  0
  4  5  2  0  0  0  0
  5  3  1  0  0  0  0
  6  3  2  0  0  0  0
  6  1  1  0  0  0  0
  7  4  1  0  0  0  0
  7  2  2  0  0  0  0
  9  8  1  6  0  0  0
 10 12  1  6  0  0  0
 10  9  1  0  0  0  0
 10 13  1  0  0  0  0
 11 12  1  0  0  0  0
 13 15  1  0  0  0  0
 15 14  1  1  0  0  0
 15 16  1  0  0  0  0
 16 17  1  6  0  0  0
 16 19  1  0  0  0  0
 19 18  1  6  0  0  0
 20 22  1  0  0  0  0
 21 20  1  0  0  0  0
 21 19  1  1  0  0  0
 23 21  1  0  0  0  0
 23 20  1  0  0  0  0
 26 28  1  0  0  0  0
 26 27  1  1  0  0  0
 27 25  1  0  0  0  0
 27 24  1  0  0  0  0
 28  1  1  1  0  0  0
 28 27  1  0  0  0  0
 29 39  1  0  0  0  0
 29 31  2  0  0  0  0
 31 36  1  0  0  0  0
 32 37  1  6  0  0  0
 32 31  1  0  0  0  0
 33 32  1  0  0  0  0
 33 30  1  0  0  0  0
 34 30  1  6  0  0  0
 34 26  1  0  0  0  0
 35 34  1  0  0  0  0
 36 35  1  0  0  0  0
 38 37  1  0  0  0  0
 39 40  1  0  0  0  0
 41 42  1  0  0  0  0
 43 40  1  6  0  0  0
 43 44  1  0  0  0  0
 43 45  1  0  0  0  0
 44 41  1  0  0  0  0
 45 46  2  0  0  0  0
 46 42  1  0  0  0  0
M  END
>  <MODEL>
6

>  <REMARK>
 VINA RESULT:      -3.6      3.035      5.526
  Name = 
  15 active torsions:
  status: ('A' for Active; 'I' for Inactive)
    1  A    between atoms: C_4  and  N_29
    2  A    between atoms: C_5  and  C_46
    3  A    between atoms: N_7  and  C_25
    4  A    between atoms: N_7  and  C_41
    5  A    between atoms: C_9  and  O_15
    6  A    between atoms: C_12  and  C_31
    7  A    between atoms: C_12  and  C_45
    8  A    between atoms: C_16  and  C_22
    9  A    between atoms: C_19  and  C_21
   10  A    between atoms: C_19  and  N_29
   11  A    between atoms: C_28  and  C_37
   12  A    between atoms: C_28  and  C_38
   13  A    between atoms: C_28  and  C_46
   14  A    between atoms: C_31  and  C_38
   15  A    between atoms: C_32  and  C_45
                            x       y       z     vdW  Elec       q    Type
                         _______ _______ _______ _____ _____    ______ ____

>  <TORSDO>
F 15

$$$$
=
 OpenBabel11072413533D

 46 50  0  0  1  0  0  0  0  0999 V2000
  159.7180  210.4660  153.1090 N   0  0  0  0  0  2  0  0  0  0  0  0
  159.4610  212.4430  151.6560 C   0  0  0  0  0  3  0  0  0  0  0  0
  157.9420  212.1330  153.4950 C   0  0  0  0  0  0  0  0  0  0  0  0
  157.7160  213.9890  152.0350 C   0  0  0  0  0  3  0  0  0  0  0  0
  157.2990  213.2680  153.1080 N   0  0  0  0  0  0  0  0  0  0  0  0
  159.0470  211.6800  152.7540 C   0  0  0  0  0  0  0  0  0  0  0  0
  158.7950  213.5780  151.3200 N   0  0  0  0  0  0  0  0  0  0  0  0
  156.0260  211.1270  154.6010 N   0  0  0  0  0  1  0  0  0  0  0  0
  157.4580  211.3610  154.6850 C   0  0  2  0  0  3  0  0  0  0  0  0
  157.8670  211.9890  156.0230 C   0  0  2  0  0  3  0  0  0  0  0  0
  156.6550  214.1610  157.1890 S   0  0  0  0  0  1  0  0  0  0  0  0
  156.6550  212.3730  156.8640 C   0  0  0  0  0  2  0  0  0  0  0  0
  158.9590  213.0740  155.9200 C   0  0  0  0  0  2  0  0  0  0  0  0
  160.6190  214.2130  157.2610 O   0  0  0  0  0  1  0  0  0  0  0  0
  160.1000  212.9590  156.9300 C   0  0  2  0  0  3  0  0  0  0  0  0
  161.2020  212.0310  156.4080 C   0  0  2  0  0  3  0  0  0  0  0  0
  161.1420  211.9910  155.0130 O   0  0  0  0  0  1  0  0  0  0  0  0
  162.4030  210.0540  157.1830 O   0  0  0  0  0  1  0  0  0  0  0  0
  161.1280  210.6040  156.9760 C   0  0  2  0  0  3  0  0  0  0  0  0
  160.4990  208.2270  156.1260 N   0  0  0  0  0  0  0  0  0  0  0  0
  160.1800  209.6840  156.1550 C   0  0  1  0  0  3  0  0  0  0  0  0
  161.5630  207.8160  157.0330 C   0  0  0  0  0  1  0  0  0  0  0  0
  159.4080  208.7450  156.9700 C   0  0  0  0  0  2  0  0  0  0  0  0
  162.5000  210.4830  152.9680 C   0  0  0  0  0  1  0  0  0  0  0  0
  162.3280  209.2220  150.6970 C   0  0  0  0  0  1  0  0  0  0  0  0
  160.9860  208.4060  152.8140 C   0  0  1  0  0  3  0  0  0  0  0  0
  161.7530  209.5030  152.0780 C   0  0  0  0  0  0  0  0  0  0  0  0
  160.2270  209.5300  152.1120 C   0  0  2  0  0  3  0  0  0  0  0  0
  161.1400  204.3980  148.5710 C   0  0  0  0  0  3  0  0  0  0  0  0
  161.5080  205.9510  152.7800 C   0  0  0  0  0  2  0  0  0  0  0  0
  160.7940  205.0810  149.6670 C   0  0  0  0  0  0  0  0  0  0  0  0
  160.5810  204.3750  150.9880 C   0  0  2  0  0  3  0  0  0  0  0  0
  161.7200  204.6640  151.9730 C   0  0  0  0  0  2  0  0  0  0  0  0
  160.8610  207.1130  152.0130 C   0  0  2  0  0  3  0  0  0  0  0  0
  161.4620  207.3010  150.6240 C   0  0  0  0  0  2  0  0  0  0  0  0
  160.6050  206.5700  149.5970 C   0  0  0  0  0  2  0  0  0  0  0  0
  160.2830  203.0010  150.8610 O   0  0  0  0  0  0  0  0  0  0  0  0
  160.9140  202.3690  151.8340 O   0  0  0  0  0  1  0  0  0  0  0  0
  161.3380  205.0460  147.3190 N   0  0  0  0  0  2  0  0  0  0  0  0
  162.2190  204.4610  146.3190 C   0  0  0  0  0  2  0  0  0  0  0  0
  159.3190  202.6460  144.4620 C   0  0  0  0  0  2  0  0  0  0  0  0
  159.7590  201.2470  144.9260 C   0  0  0  0  0  2  0  0  0  0  0  0
  161.5270  203.2870  145.6530 C   0  0  2  0  0  3  0  0  0  0  0  0
  160.3170  203.7660  144.8310 C   0  0  0  0  0  2  0  0  0  0  0  0
  161.1060  202.2810  146.6900 C   0  0  0  0  0  3  0  0  0  0  0  0
  160.2620  201.3050  146.3410 C   0  0  0  0  0  3  0  0  0  0  0  0
  2  6  1  0  0  0  0
  3  9  1  0  0  0  0
  4  5  2  0  0  0  0
  5  3  1  0  0  0  0
  6  1  1  0  0  0  0
  6  3  2  0  0  0  0
  7  2  2  0  0  0  0
  7  4  1  0  0  0  0
  9  8  1  1  0  0  0
  9 10  1  0  0  0  0
 10 13  1  6  0  0  0
 10 12  1  0  0  0  0
 12 11  1  0  0  0  0
 13 15  1  0  0  0  0
 15 14  1  6  0  0  0
 16 17  1  6  0  0  0
 16 15  1  0  0  0  0
 16 19  1  0  0  0  0
 19 18  1  6  0  0  0
 20 21  1  0  0  0  0
 20 23  1  0  0  0  0
 20 22  1  0  0  0  0
 21 23  1  0  0  0  0
 21 19  1  1  0  0  0
 25 27  1  0  0  0  0
 26 27  1  6  0  0  0
 27 28  1  0  0  0  0
 27 24  1  0  0  0  0
 28 26  1  0  0  0  0
 28  1  1  1  0  0  0
 29 31  2  0  0  0  0
 31 32  1  0  0  0  0
 32 37  1  6  0  0  0
 32 33  1  0  0  0  0
 33 30  1  0  0  0  0
 34 35  1  6  0  0  0
 34 30  1  0  0  0  0
 34 26  1  0  0  0  0
 36 31  1  0  0  0  0
 36 35  1  0  0  0  0
 37 38  1  0  0  0  0
 39 29  1  0  0  0  0
 40 39  1  0  0  0  0
 41 44  1  0  0  0  0
 41 42  1  0  0  0  0
 42 46  1  0  0  0  0
 43 40  1  1  0  0  0
 43 45  1  0  0  0  0
 44 43  1  0  0  0  0
 46 45  2  0  0  0  0
M  END
>  <MODEL>
7

>  <REMARK>
 VINA RESULT:      -3.6      2.220      4.815
  Name = 
  15 active torsions:
  status: ('A' for Active; 'I' for Inactive)
    1  A    between atoms: C_4  and  N_29
    2  A    between atoms: C_5  and  C_46
    3  A    between atoms: N_7  and  C_25
    4  A    between atoms: N_7  and  C_41
    5  A    between atoms: C_9  and  O_15
    6  A    between atoms: C_12  and  C_31
    7  A    between atoms: C_12  and  C_45
    8  A    between atoms: C_16  and  C_22
    9  A    between atoms: C_19  and  C_21
   10  A    between atoms: C_19  and  N_29
   11  A    between atoms: C_28  and  C_37
   12  A    between atoms: C_28  and  C_38
   13  A    between atoms: C_28  and  C_46
   14  A    between atoms: C_31  and  C_38
   15  A    between atoms: C_32  and  C_45
                            x       y       z     vdW  Elec       q    Type
                         _______ _______ _______ _____ _____    ______ ____

>  <TORSDO>
F 15

$$$$
=
 OpenBabel11072413533D

 46 50  0  0  1  0  0  0  0  0999 V2000
  161.9280  208.7610  152.1840 N   0  0  0  0  0  2  0  0  0  0  0  0
  161.8800  210.3660  150.3120 C   0  0  0  0  0  3  0  0  0  0  0  0
  160.8530  210.9690  152.4000 C   0  0  0  0  0  0  0  0  0  0  0  0
  160.7980  212.4510  150.5490 C   0  0  0  0  0  3  0  0  0  0  0  0
  160.4800  212.1500  151.8340 N   0  0  0  0  0  0  0  0  0  0  0  0
  161.5610  210.0290  151.6320 C   0  0  0  0  0  0  0  0  0  0  0  0
  161.4990  211.5630  149.7970 N   0  0  0  0  0  0  0  0  0  0  0  0
  160.0050  209.3030  153.9530 N   0  0  0  0  0  1  0  0  0  0  0  0
  160.4880  210.6670  153.8230 C   0  0  2  0  0  3  0  0  0  0  0  0
  159.5190  211.6890  154.4300 C   0  0  2  0  0  3  0  0  0  0  0  0
  160.0860  213.2820  156.5950 S   0  0  0  0  0  1  0  0  0  0  0  0
  159.5540  211.6670  155.9540 C   0  0  0  0  0  2  0  0  0  0  0  0
  158.1080  211.6870  153.8100 C   0  0  0  0  0  2  0  0  0  0  0  0
  158.3260  214.0900  153.9890 O   0  0  0  0  0  1  0  0  0  0  0  0
  157.5360  213.0630  153.4670 C   0  0  2  0  0  3  0  0  0  0  0  0
  156.0870  213.1880  153.9480 C   0  0  2  0  0  3  0  0  0  0  0  0
  155.6010  214.4530  153.6110 O   0  0  0  0  0  1  0  0  0  0  0  0
  156.6790  213.8360  156.2240 O   0  0  0  0  0  1  0  0  0  0  0  0
  155.9130  212.9460  155.4560 C   0  0  2  0  0  3  0  0  0  0  0  0
  155.1920  210.8860  156.8730 N   0  0  0  0  0  0  0  0  0  0  0  0
  156.1150  211.4540  155.8470 C   0  0  1  0  0  3  0  0  0  0  0  0
  154.0860  211.7570  157.2480 C   0  0  0  0  0  1  0  0  0  0  0  0
  155.0140  210.5770  155.4440 C   0  0  0  0  0  2  0  0  0  0  0  0
  161.1090  206.3240  153.2560 C   0  0  0  0  0  1  0  0  0  0  0  0
  162.7590  205.1300  151.6350 C   0  0  0  0  0  1  0  0  0  0  0  0
  161.0850  206.9690  150.7630 C   0  0  1  0  0  3  0  0  0  0  0  0
  161.8290  206.3010  151.9180 C   0  0  0  0  0  0  0  0  0  0  0  0
  162.3280  207.6290  151.3550 C   0  0  2  0  0  3  0  0  0  0  0  0
  161.1740  203.6030  145.9940 C   0  0  0  0  0  3  0  0  0  0  0  0
  161.3780  207.4520  148.3180 C   0  0  0  0  0  2  0  0  0  0  0  0
  161.5430  204.4300  146.9760 C   0  0  0  0  0  0  0  0  0  0  0  0
  162.2870  205.7120  146.6750 C   0  0  2  0  0  3  0  0  0  0  0  0
  161.3950  206.9430  146.8710 C   0  0  0  0  0  2  0  0  0  0  0  0
  161.4130  206.3650  149.4020 C   0  0  2  0  0  3  0  0  0  0  0  0
  160.4620  205.2110  149.1010 C   0  0  0  0  0  2  0  0  0  0  0  0
  161.2250  204.0910  148.4050 C   0  0  0  0  0  2  0  0  0  0  0  0
  162.9660  205.7020  145.4360 O   0  0  0  0  0  0  0  0  0  0  0  0
  162.0540  205.5800  144.4880 O   0  0  0  0  0  1  0  0  0  0  0  0
  160.4780  202.3890  146.2620 N   0  0  0  0  0  2  0  0  0  0  0  0
  161.2120  201.1900  146.6420 C   0  0  0  0  0  2  0  0  0  0  0  0
  159.0290  201.2140  149.8650 C   0  0  0  0  0  2  0  0  0  0  0  0
  160.1700  200.7150  150.7660 C   0  0  0  0  0  2  0  0  0  0  0  0
  160.8220  200.7770  148.0480 C   0  0  2  0  0  3  0  0  0  0  0  0
  159.3780  201.2110  148.3600 C   0  0  0  0  0  2  0  0  0  0  0  0
  161.7840  201.3660  149.0440 C   0  0  0  0  0  3  0  0  0  0  0  0
  161.4730  201.3340  150.3440 C   0  0  0  0  0  3  0  0  0  0  0  0
  2  6  1  0  0  0  0
  3  9  1  0  0  0  0
  4  5  2  0  0  0  0
  5  3  1  0  0  0  0
  6  1  1  0  0  0  0
  6  3  2  0  0  0  0
  7  2  2  0  0  0  0
  7  4  1  0  0  0  0
  9  8  1  6  0  0  0
  9 10  1  0  0  0  0
 10 13  1  1  0  0  0
 10 12  1  0  0  0  0
 12 11  1  0  0  0  0
 15 13  1  0  0  0  0
 15 16  1  0  0  0  0
 15 14  1  1  0  0  0
 16 17  1  1  0  0  0
 16 19  1  0  0  0  0
 19 18  1  1  0  0  0
 20 22  1  0  0  0  0
 21 19  1  6  0  0  0
 21 20  1  0  0  0  0
 23 21  1  0  0  0  0
 23 20  1  0  0  0  0
 25 27  1  0  0  0  0
 26 28  1  0  0  0  0
 26 27  1  1  0  0  0
 27 24  1  0  0  0  0
 28 27  1  0  0  0  0
 28  1  1  1  0  0  0
 29 39  1  0  0  0  0
 29 31  2  0  0  0  0
 31 36  1  0  0  0  0
 32 37  1  6  0  0  0
 32 33  1  0  0  0  0
 32 31  1  0  0  0  0
 33 30  1  0  0  0  0
 34 30  1  6  0  0  0
 34 26  1  0  0  0  0
 35 34  1  0  0  0  0
 36 35  1  0  0  0  0
 38 37  1  0  0  0  0
 39 40  1  0  0  0  0
 41 42  1  0  0  0  0
 43 40  1  6  0  0  0
 43 44  1  0  0  0  0
 43 45  1  0  0  0  0
 44 41  1  0  0  0  0
 45 46  2  0  0  0  0
 46 42  1  0  0  0  0
M  END
>  <MODEL>
8

>  <REMARK>
 VINA RESULT:      -3.5      2.798      4.900
  Name = 
  15 active torsions:
  status: ('A' for Active; 'I' for Inactive)
    1  A    between atoms: C_4  and  N_29
    2  A    between atoms: C_5  and  C_46
    3  A    between atoms: N_7  and  C_25
    4  A    between atoms: N_7  and  C_41
    5  A    between atoms: C_9  and  O_15
    6  A    between atoms: C_12  and  C_31
    7  A    between atoms: C_12  and  C_45
    8  A    between atoms: C_16  and  C_22
    9  A    between atoms: C_19  and  C_21
   10  A    between atoms: C_19  and  N_29
   11  A    between atoms: C_28  and  C_37
   12  A    between atoms: C_28  and  C_38
   13  A    between atoms: C_28  and  C_46
   14  A    between atoms: C_31  and  C_38
   15  A    between atoms: C_32  and  C_45
                            x       y       z     vdW  Elec       q    Type
                         _______ _______ _______ _____ _____    ______ ____

>  <TORSDO>
F 15

$$$$
=
 OpenBabel11072413533D

 46 50  0  0  1  0  0  0  0  0999 V2000
  160.1460  213.8180  148.9850 N   0  0  0  0  0  2  0  0  0  0  0  0
  157.9590  213.7270  147.8490 C   0  0  0  0  0  3  0  0  0  0  0  0
  158.0300  213.9840  150.2390 C   0  0  0  0  0  0  0  0  0  0  0  0
  155.9560  213.8430  149.0960 C   0  0  0  0  0  3  0  0  0  0  0  0
  156.6690  213.9660  150.2450 N   0  0  0  0  0  0  0  0  0  0  0  0
  158.7160  213.8470  149.0200 C   0  0  0  0  0  0  0  0  0  0  0  0
  156.6020  213.7300  147.9060 N   0  0  0  0  0  0  0  0  0  0  0  0
  160.0970  213.5020  151.4230 N   0  0  0  0  0  1  0  0  0  0  0  0
  158.7870  214.1230  151.5260 C   0  0  2  0  0  3  0  0  0  0  0  0
  158.0030  213.6280  152.7470 C   0  0  2  0  0  3  0  0  0  0  0  0
  155.6430  213.6000  154.1530 S   0  0  0  0  0  1  0  0  0  0  0  0
  156.7430  214.4530  152.9840 C   0  0  0  0  0  2  0  0  0  0  0  0
  158.8600  213.3710  154.0030 C   0  0  0  0  0  2  0  0  0  0  0  0
  158.1430  211.0700  153.7830 O   0  0  0  0  0  1  0  0  0  0  0  0
  159.1220  211.9020  154.3340 C   0  0  2  0  0  3  0  0  0  0  0  0
  159.2290  211.6930  155.8480 C   0  0  2  0  0  3  0  0  0  0  0  0
  159.3020  212.9370  156.4770 O   0  0  0  0  0  1  0  0  0  0  0  0
  161.4460  211.5830  156.8620 O   0  0  0  0  0  1  0  0  0  0  0  0
  160.4250  210.8230  156.2680 C   0  0  2  0  0  3  0  0  0  0  0  0
  161.6710  208.6690  155.5080 N   0  0  0  0  0  0  0  0  0  0  0  0
  160.9250  209.9010  155.1200 C   0  0  1  0  0  3  0  0  0  0  0  0
  161.6780  208.3840  156.9370 C   0  0  0  0  0  1  0  0  0  0  0  0
  160.2660  208.5950  155.0740 C   0  0  0  0  0  2  0  0  0  0  0  0
  162.8290  214.4230  148.5420 C   0  0  0  0  0  1  0  0  0  0  0  0
  163.0240  212.2360  147.1430 C   0  0  0  0  0  1  0  0  0  0  0  0
  161.9130  212.2300  149.5330 C   0  0  1  0  0  3  0  0  0  0  0  0
  162.3770  212.9940  148.2940 C   0  0  0  0  0  0  0  0  0  0  0  0
  160.8960  212.6720  148.4830 C   0  0  2  0  0  3  0  0  0  0  0  0
  162.0450  206.4960  150.6230 C   0  0  0  0  0  3  0  0  0  0  0  0
  161.6230  210.1950  148.0930 C   0  0  0  0  0  2  0  0  0  0  0  0
  162.3480  207.7120  150.1590 C   0  0  0  0  0  0  0  0  0  0  0  0
  162.6560  207.9300  148.6940 C   0  0  2  0  0  3  0  0  0  0  0  0
  161.5170  208.6690  147.9820 C   0  0  0  0  0  2  0  0  0  0  0  0
  162.1410  210.7250  149.4380 C   0  0  2  0  0  3  0  0  0  0  0  0
  161.4960  210.0240  150.6290 C   0  0  0  0  0  2  0  0  0  0  0  0
  162.3950  208.8850  151.0960 C   0  0  0  0  0  2  0  0  0  0  0  0
  163.0790  206.7650  148.0180 O   0  0  0  0  0  0  0  0  0  0  0  0
  162.1190  206.4270  147.1760 O   0  0  0  0  0  1  0  0  0  0  0  0
  161.7600  206.2720  152.0000 N   0  0  0  0  0  2  0  0  0  0  0  0
  161.2810  204.9740  152.4510 C   0  0  0  0  0  2  0  0  0  0  0  0
  160.3730  203.0510  149.1900 C   0  0  0  0  0  2  0  0  0  0  0  0
  161.2150  201.8190  149.5590 C   0  0  0  0  0  2  0  0  0  0  0  0
  161.4810  203.9470  151.3530 C   0  0  2  0  0  3  0  0  0  0  0  0
  160.5500  204.2390  150.1620 C   0  0  0  0  0  2  0  0  0  0  0  0
  161.2410  202.5630  151.8910 C   0  0  0  0  0  3  0  0  0  0  0  0
  161.1160  201.5450  151.0340 C   0  0  0  0  0  3  0  0  0  0  0  0
  1  6  1  0  0  0  0
  2  7  2  0  0  0  0
  2  6  1  0  0  0  0
  3  5  1  0  0  0  0
  3  9  1  0  0  0  0
  4  5  2  0  0  0  0
  6  3  2  0  0  0  0
  7  4  1  0  0  0  0
  9  8  1  6  0  0  0
  9 10  1  0  0  0  0
 10 12  1  1  0  0  0
 10 13  1  0  0  0  0
 12 11  1  0  0  0  0
 13 15  1  0  0  0  0
 15 14  1  1  0  0  0
 15 16  1  0  0  0  0
 16 19  1  0  0  0  0
 16 17  1  1  0  0  0
 19 18  1  6  0  0  0
 20 22  1  0  0  0  0
 21 20  1  0  0  0  0
 21 19  1  1  0  0  0
 23 21  1  0  0  0  0
 23 20  1  0  0  0  0
 25 27  1  0  0  0  0
 26 27  1  6  0  0  0
 27 28  1  0  0  0  0
 27 24  1  0  0  0  0
 28  1  1  1  0  0  0
 28 26  1  0  0  0  0
 29 39  1  0  0  0  0
 31 29  2  0  0  0  0
 31 36  1  0  0  0  0
 32 37  1  6  0  0  0
 32 31  1  0  0  0  0
 33 30  1  0  0  0  0
 33 32  1  0  0  0  0
 34 30  1  6  0  0  0
 34 26  1  0  0  0  0
 34 35  1  0  0  0  0
 35 36  1  0  0  0  0
 38 37  1  0  0  0  0
 39 40  1  0  0  0  0
 41 42  1  0  0  0  0
 41 44  1  0  0  0  0
 42 46  1  0  0  0  0
 43 45  1  0  0  0  0
 43 40  1  1  0  0  0
 44 43  1  0  0  0  0
 46 45  2  0  0  0  0
M  END
>  <MODEL>
9

>  <REMARK>
 VINA RESULT:      -3.4      2.816      6.667
  Name = 
  15 active torsions:
  status: ('A' for Active; 'I' for Inactive)
    1  A    between atoms: C_4  and  N_29
    2  A    between atoms: C_5  and  C_46
    3  A    between atoms: N_7  and  C_25
    4  A    between atoms: N_7  and  C_41
    5  A    between atoms: C_9  and  O_15
    6  A    between atoms: C_12  and  C_31
    7  A    between atoms: C_12  and  C_45
    8  A    between atoms: C_16  and  C_22
    9  A    between atoms: C_19  and  C_21
   10  A    between atoms: C_19  and  N_29
   11  A    between atoms: C_28  and  C_37
   12  A    between atoms: C_28  and  C_38
   13  A    between atoms: C_28  and  C_46
   14  A    between atoms: C_31  and  C_38
   15  A    between atoms: C_32  and  C_45
                            x       y       z     vdW  Elec       q    Type
                         _______ _______ _______ _____ _____    ______ ____

>  <TORSDO>
F 15

$$$$
