=
 OpenBabel11072410143D

 37 39  0  0  1  0  0  0  0  0999 V2000
  160.8550  209.6120  154.5860 C   0  0  0  0  0  0  0  0  0  0  0  0
  161.1490  208.6370  153.6640 C   0  0  0  0  0  0  0  0  0  0  0  0
  161.6800  208.6750  152.3760 C   0  0  0  0  0  3  0  0  0  0  0  0
  160.8330  207.4660  154.2880 C   0  0  0  0  0  0  0  0  0  0  0  0
  160.3700  207.7240  155.4840 O   0  0  0  0  0  0  0  0  0  0  0  0
  161.5460  206.2260  152.3730 C   0  0  0  0  0  3  0  0  0  0  0  0
  160.3750  209.0150  155.7040 N   0  0  0  0  0  0  0  0  0  0  0  0
  161.8810  207.4380  151.7230 C   0  0  0  0  0  0  0  0  0  0  0  0
  161.0090  206.2300  153.6760 C   0  0  0  0  0  3  0  0  0  0  0  0
  161.0680  211.0870  154.4330 C   0  0  0  0  0  2  0  0  0  0  0  0
  159.8470  211.8550  153.9070 C   0  0  2  0  0  3  0  0  0  0  0  0
  157.8600  213.0670  152.1030 O   0  0  0  0  0  0  0  0  0  0  0  0
  159.0590  212.9710  151.7130 C   0  0  0  0  0  0  0  0  0  0  0  0
  160.0550  212.3730  152.5520 N   0  0  0  0  0  2  0  0  0  0  0  0
  158.4810  213.6520  149.4230 C   0  0  0  0  0  1  0  0  0  0  0  0
  159.4320  213.4430  150.4530 O   0  0  0  0  0  0  0  0  0  0  0  0
  159.3060  212.9200  154.8560 C   0  0  0  0  0  2  0  0  0  0  0  0
  158.2180  212.3500  155.7540 C   0  0  1  0  0  3  0  0  0  0  0  0
  157.2640  213.4030  156.0760 N   0  0  0  0  0  2  0  0  0  0  0  0
  156.0560  211.7940  154.9600 C   0  0  0  0  0  2  0  0  0  0  0  0
  157.4630  211.2600  155.0320 C   0  0  0  0  0  2  0  0  0  0  0  0
  156.1340  213.2160  155.2540 N   0  0  0  0  0  2  0  0  0  0  0  0
  162.4390  207.3880  150.3380 C   0  0  0  0  0  2  0  0  0  0  0  0
  161.5960  208.1900  149.3550 C   0  0  0  0  0  2  0  0  0  0  0  0
  161.3310  207.4300  148.2130 O   0  0  0  0  0  0  0  0  0  0  0  0
  160.9630  206.1710  148.6960 C   0  0  0  0  0  2  0  0  0  0  0  0
  161.1330  205.0980  147.6080 C   0  0  1  0  0  3  0  0  0  0  0  0
  163.1490  204.7730  146.1470 C   0  0  0  0  0  1  0  0  0  0  0  0
  161.9080  205.6210  146.3920 C   0  0  1  0  0  3  0  0  0  0  0  0
  159.8800  206.1870  145.2320 O   0  0  0  0  0  1  0  0  0  0  0  0
  161.6120  205.4600  143.9180 O   0  0  0  0  0  0  0  0  0  0  0  0
  161.0640  205.7620  145.1570 C   0  0  0  0  0  0  0  0  0  0  0  0
  161.7620  203.9610  148.1340 O   0  0  0  0  0  0  0  0  0  0  0  0
  160.8270  203.3990  149.0110 C   0  0  2  0  0  3  0  0  0  0  0  0
  161.3370  203.4030  150.3110 O   0  0  0  0  0  1  0  0  0  0  0  0
  160.5200  201.9700  148.5980 C   0  0  0  0  0  2  0  0  0  0  0  0
  161.0020  201.7330  147.3100 O   0  0  0  0  0  1  0  0  0  0  0  0
  1  7  2  0  0  0  0
  2  4  1  0  0  0  0
  2  1  1  0  0  0  0
  3  2  2  0  0  0  0
  4  5  1  0  0  0  0
  5  7  1  0  0  0  0
  6  9  1  0  0  0  0
  8  6  2  0  0  0  0
  8  3  1  0  0  0  0
  9  4  2  0  0  0  0
 10  1  1  0  0  0  0
 11 10  1  1  0  0  0
 11 17  1  0  0  0  0
 13 12  2  0  0  0  0
 13 14  1  0  0  0  0
 14 11  1  0  0  0  0
 15 16  1  0  0  0  0
 16 13  1  0  0  0  0
 18 17  1  6  0  0  0
 18 19  1  0  0  0  0
 20 21  1  0  0  0  0
 20 22  1  0  0  0  0
 21 18  1  0  0  0  0
 22 19  1  0  0  0  0
 23  8  1  0  0  0  0
 24 23  1  0  0  0  0
 25 26  1  0  0  0  0
 25 24  1  0  0  0  0
 27 33  1  0  0  0  0
 27 26  1  1  0  0  0
 29 28  1  6  0  0  0
 29 27  1  0  0  0  0
 31 32  2  0  0  0  0
 32 30  1  0  0  0  0
 32 29  1  0  0  0  0
 33 34  1  0  0  0  0
 34 35  1  1  0  0  0
 36 34  1  0  0  0  0
 37 36  1  0  0  0  0
M  END
>  <MODEL>
1

>  <REMARK>
 VINA RESULT:      -7.2      0.000      0.000
  Name = 
  16 active torsions:
  status: ('A' for Active; 'I' for Inactive)
    1  A    between atoms: C_1  and  C_24
    2  A    between atoms: C_2  and  C_22
    3  A    between atoms: C_2  and  O_33
    4  A    between atoms: C_4  and  C_21
    5  A    between atoms: C_4  and  C_34
    6  A    between atoms: C_6  and  C_11
    7  A    between atoms: C_8  and  C_18
    8  A    between atoms: C_11  and  C_27
    9  A    between atoms: C_15  and  O_23
   10  A    between atoms: C_18  and  O_29
   11  A    between atoms: C_21  and  O_33
   12  A    between atoms: C_22  and  O_29
   13  A    between atoms: C_22  and  C_30
   14  A    between atoms: C_24  and  C_27
   15  A    between atoms: C_27  and  N_32
   16  A    between atoms: C_30  and  C_35
                            x       y       z     vdW  Elec       q    Type
                         _______ _______ _______ _____ _____    ______ ____

>  <TORSDO>
F 16

$$$$
=
 OpenBabel11072410143D

 37 39  0  0  1  0  0  0  0  0999 V2000
  160.5400  210.0730  154.6380 C   0  0  0  0  0  0  0  0  0  0  0  0
  160.8990  209.0280  153.8220 C   0  0  0  0  0  0  0  0  0  0  0  0
  161.4520  208.9670  152.5450 C   0  0  0  0  0  3  0  0  0  0  0  0
  160.6280  207.9100  154.5550 C   0  0  0  0  0  0  0  0  0  0  0  0
  160.1300  208.2610  155.7130 O   0  0  0  0  0  0  0  0  0  0  0  0
  161.4380  206.5250  152.7830 C   0  0  0  0  0  3  0  0  0  0  0  0
  160.0680  209.5660  155.8030 N   0  0  0  0  0  0  0  0  0  0  0  0
  161.7260  207.6830  152.0210 C   0  0  0  0  0  0  0  0  0  0  0  0
  160.8760  206.6300  154.0710 C   0  0  0  0  0  3  0  0  0  0  0  0
  160.6830  211.5350  154.3430 C   0  0  0  0  0  2  0  0  0  0  0  0
  159.5020  212.1470  153.5760 C   0  0  2  0  0  3  0  0  0  0  0  0
  157.0090  213.5470  154.2800 O   0  0  0  0  0  0  0  0  0  0  0  0
  157.0210  212.2820  154.2890 C   0  0  0  0  0  0  0  0  0  0  0  0
  158.2180  211.5610  153.9680 N   0  0  0  0  0  2  0  0  0  0  0  0
  155.6740  211.0130  155.9070 C   0  0  0  0  0  1  0  0  0  0  0  0
  155.8680  211.5660  154.6170 O   0  0  0  0  0  0  0  0  0  0  0  0
  159.6790  212.1890  152.0610 C   0  0  0  0  0  2  0  0  0  0  0  0
  159.1960  213.5150  151.4910 C   0  0  1  0  0  3  0  0  0  0  0  0
  160.2240  214.0620  150.6170 N   0  0  0  0  0  2  0  0  0  0  0  0
  158.3800  213.7440  149.2790 C   0  0  0  0  0  2  0  0  0  0  0  0
  157.9560  213.3040  150.6560 C   0  0  0  0  0  2  0  0  0  0  0  0
  159.8330  213.8010  149.2880 N   0  0  0  0  0  2  0  0  0  0  0  0
  162.3130  207.5240  150.6560 C   0  0  0  0  0  2  0  0  0  0  0  0
  161.2400  207.4880  149.5750 C   0  0  0  0  0  2  0  0  0  0  0  0
  161.6410  206.6640  148.5220 O   0  0  0  0  0  0  0  0  0  0  0  0
  160.7280  205.6050  148.5260 C   0  0  0  0  0  2  0  0  0  0  0  0
  161.4160  204.2910  148.1200 C   0  0  1  0  0  3  0  0  0  0  0  0
  160.7090  203.8180  150.4830 C   0  0  0  0  0  1  0  0  0  0  0  0
  161.3900  203.2490  149.2450 C   0  0  1  0  0  3  0  0  0  0  0  0
  161.5180  201.0510  148.2800 O   0  0  0  0  0  0  0  0  0  0  0  0
  159.4650  201.6650  149.0940 O   0  0  0  0  0  1  0  0  0  0  0  0
  160.8020  201.9310  148.8300 C   0  0  0  0  0  0  0  0  0  0  0  0
  160.8290  203.7690  146.9590 O   0  0  0  0  0  0  0  0  0  0  0  0
  161.7960  203.9240  145.9590 C   0  0  2  0  0  3  0  0  0  0  0  0
  162.8610  204.6850  146.4450 O   0  0  0  0  0  1  0  0  0  0  0  0
  161.1900  204.6210  144.7530 C   0  0  0  0  0  2  0  0  0  0  0  0
  160.8840  205.9440  145.0730 O   0  0  0  0  0  1  0  0  0  0  0  0
  1  7  2  0  0  0  0
  2  4  1  0  0  0  0
  2  1  1  0  0  0  0
  3  2  2  0  0  0  0
  4  5  1  0  0  0  0
  5  7  1  0  0  0  0
  6  9  1  0  0  0  0
  8  3  1  0  0  0  0
  8  6  2  0  0  0  0
  9  4  2  0  0  0  0
 10  1  1  0  0  0  0
 11 17  1  6  0  0  0
 11 14  1  0  0  0  0
 11 10  1  0  0  0  0
 12 13  2  0  0  0  0
 13 16  1  0  0  0  0
 14 13  1  0  0  0  0
 16 15  1  0  0  0  0
 18 17  1  6  0  0  0
 19 18  1  0  0  0  0
 20 22  1  0  0  0  0
 20 21  1  0  0  0  0
 21 18  1  0  0  0  0
 22 19  1  0  0  0  0
 23  8  1  0  0  0  0
 24 23  1  0  0  0  0
 25 26  1  0  0  0  0
 25 24  1  0  0  0  0
 27 26  1  1  0  0  0
 27 29  1  0  0  0  0
 29 28  1  1  0  0  0
 30 32  2  0  0  0  0
 32 31  1  0  0  0  0
 32 29  1  0  0  0  0
 33 27  1  0  0  0  0
 34 35  1  1  0  0  0
 34 33  1  0  0  0  0
 36 37  1  0  0  0  0
 36 34  1  0  0  0  0
M  END
>  <MODEL>
2

>  <REMARK>
 VINA RESULT:      -7.1      1.547      3.789
  Name = 
  16 active torsions:
  status: ('A' for Active; 'I' for Inactive)
    1  A    between atoms: C_1  and  C_24
    2  A    between atoms: C_2  and  C_22
    3  A    between atoms: C_2  and  O_33
    4  A    between atoms: C_4  and  C_21
    5  A    between atoms: C_4  and  C_34
    6  A    between atoms: C_6  and  C_11
    7  A    between atoms: C_8  and  C_18
    8  A    between atoms: C_11  and  C_27
    9  A    between atoms: C_15  and  O_23
   10  A    between atoms: C_18  and  O_29
   11  A    between atoms: C_21  and  O_33
   12  A    between atoms: C_22  and  O_29
   13  A    between atoms: C_22  and  C_30
   14  A    between atoms: C_24  and  C_27
   15  A    between atoms: C_27  and  N_32
   16  A    between atoms: C_30  and  C_35
                            x       y       z     vdW  Elec       q    Type
                         _______ _______ _______ _____ _____    ______ ____

>  <TORSDO>
F 16

$$$$
=
 OpenBabel11072410143D

 37 39  0  0  1  0  0  0  0  0999 V2000
  161.1020  207.4180  149.3850 C   0  0  0  0  0  0  0  0  0  0  0  0
  161.2150  207.8240  150.6930 C   0  0  0  0  0  0  0  0  0  0  0  0
  160.8450  207.2430  151.9040 C   0  0  0  0  0  3  0  0  0  0  0  0
  161.8580  209.0250  150.6260 C   0  0  0  0  0  0  0  0  0  0  0  0
  162.0960  209.3200  149.3730 O   0  0  0  0  0  0  0  0  0  0  0  0
  161.8230  209.2030  153.0090 C   0  0  0  0  0  3  0  0  0  0  0  0
  161.6570  208.3660  148.5920 N   0  0  0  0  0  0  0  0  0  0  0  0
  161.1600  207.9540  153.0840 C   0  0  0  0  0  0  0  0  0  0  0  0
  162.1790  209.7570  151.7640 C   0  0  0  0  0  3  0  0  0  0  0  0
  160.5180  206.1300  148.8920 C   0  0  0  0  0  2  0  0  0  0  0  0
  161.5030  205.2390  148.1220 C   0  0  2  0  0  3  0  0  0  0  0  0
  163.6490  204.7460  146.1660 O   0  0  0  0  0  0  0  0  0  0  0  0
  162.5550  205.2380  145.7610 C   0  0  0  0  0  0  0  0  0  0  0  0
  161.4910  205.5090  146.6810 N   0  0  0  0  0  2  0  0  0  0  0  0
  161.0920  205.4770  143.8010 C   0  0  0  0  0  1  0  0  0  0  0  0
  162.3710  205.5310  144.4090 O   0  0  0  0  0  0  0  0  0  0  0  0
  161.3900  203.7490  148.4310 C   0  0  0  0  0  2  0  0  0  0  0  0
  160.5590  203.5130  149.6840 C   0  0  1  0  0  3  0  0  0  0  0  0
  160.1080  202.1280  149.7040 N   0  0  0  0  0  2  0  0  0  0  0  0
  161.3990  202.3860  151.5910 C   0  0  0  0  0  2  0  0  0  0  0  0
  161.4000  203.7340  150.9180 C   0  0  0  0  0  2  0  0  0  0  0  0
  160.9380  201.4260  150.6000 N   0  0  0  0  0  2  0  0  0  0  0  0
  160.7930  207.4080  154.4260 C   0  0  0  0  0  2  0  0  0  0  0  0
  160.8710  208.4700  155.5140 C   0  0  0  0  0  2  0  0  0  0  0  0
  159.6010  208.9840  155.7810 O   0  0  0  0  0  0  0  0  0  0  0  0
  159.8140  210.3330  156.0810 C   0  0  0  0  0  2  0  0  0  0  0  0
  158.6960  211.2060  155.4890 C   0  0  1  0  0  3  0  0  0  0  0  0
  158.0150  213.0470  157.0570 C   0  0  0  0  0  1  0  0  0  0  0  0
  157.6800  211.6500  156.5510 C   0  0  1  0  0  3  0  0  0  0  0  0
  155.9340  210.7660  155.1550 O   0  0  0  0  0  0  0  0  0  0  0  0
  155.2680  212.2600  156.7600 O   0  0  0  0  0  1  0  0  0  0  0  0
  156.2520  211.5380  156.0990 C   0  0  0  0  0  0  0  0  0  0  0  0
  159.2370  212.3230  154.8380 O   0  0  0  0  0  0  0  0  0  0  0  0
  158.9800  212.1130  153.4780 C   0  0  2  0  0  3  0  0  0  0  0  0
  160.1310  212.3780  152.7330 O   0  0  0  0  0  1  0  0  0  0  0  0
  157.8600  213.0280  153.0130 C   0  0  0  0  0  2  0  0  0  0  0  0
  157.9400  213.2170  151.6330 O   0  0  0  0  0  1  0  0  0  0  0  0
  1  2  1  0  0  0  0
  2  3  1  0  0  0  0
  3  8  2  0  0  0  0
  4  2  2  0  0  0  0
  4  9  1  0  0  0  0
  5  4  1  0  0  0  0
  6  8  1  0  0  0  0
  7  5  1  0  0  0  0
  7  1  2  0  0  0  0
  8 23  1  0  0  0  0
  9  6  2  0  0  0  0
 10  1  1  0  0  0  0
 11 17  1  6  0  0  0
 11 10  1  0  0  0  0
 13 12  2  0  0  0  0
 13 14  1  0  0  0  0
 14 11  1  0  0  0  0
 15 16  1  0  0  0  0
 16 13  1  0  0  0  0
 18 17  1  6  0  0  0
 18 19  1  0  0  0  0
 18 21  1  0  0  0  0
 19 22  1  0  0  0  0
 21 20  1  0  0  0  0
 22 20  1  0  0  0  0
 23 24  1  0  0  0  0
 24 25  1  0  0  0  0
 25 26  1  0  0  0  0
 27 26  1  1  0  0  0
 27 29  1  0  0  0  0
 29 28  1  6  0  0  0
 30 32  2  0  0  0  0
 32 29  1  0  0  0  0
 32 31  1  0  0  0  0
 33 27  1  0  0  0  0
 34 35  1  6  0  0  0
 34 33  1  0  0  0  0
 36 34  1  0  0  0  0
 37 36  1  0  0  0  0
M  END
>  <MODEL>
3

>  <REMARK>
 VINA RESULT:      -6.9      3.323      9.783
  Name = 
  16 active torsions:
  status: ('A' for Active; 'I' for Inactive)
    1  A    between atoms: C_1  and  C_24
    2  A    between atoms: C_2  and  C_22
    3  A    between atoms: C_2  and  O_33
    4  A    between atoms: C_4  and  C_21
    5  A    between atoms: C_4  and  C_34
    6  A    between atoms: C_6  and  C_11
    7  A    between atoms: C_8  and  C_18
    8  A    between atoms: C_11  and  C_27
    9  A    between atoms: C_15  and  O_23
   10  A    between atoms: C_18  and  O_29
   11  A    between atoms: C_21  and  O_33
   12  A    between atoms: C_22  and  O_29
   13  A    between atoms: C_22  and  C_30
   14  A    between atoms: C_24  and  C_27
   15  A    between atoms: C_27  and  N_32
   16  A    between atoms: C_30  and  C_35
                            x       y       z     vdW  Elec       q    Type
                         _______ _______ _______ _____ _____    ______ ____

>  <TORSDO>
F 16

$$$$
=
 OpenBabel11072410143D

 37 39  0  0  1  0  0  0  0  0999 V2000
  161.0670  207.3140  148.7520 C   0  0  0  0  0  0  0  0  0  0  0  0
  161.2420  207.6830  150.0640 C   0  0  0  0  0  0  0  0  0  0  0  0
  160.8400  207.1170  151.2720 C   0  0  0  0  0  3  0  0  0  0  0  0
  161.9930  208.8200  150.0050 C   0  0  0  0  0  0  0  0  0  0  0  0
  162.2350  209.1150  148.7530 O   0  0  0  0  0  0  0  0  0  0  0  0
  162.0170  208.9560  152.3910 C   0  0  0  0  0  3  0  0  0  0  0  0
  161.6950  208.2200  147.9640 N   0  0  0  0  0  0  0  0  0  0  0  0
  161.2410  207.7740  152.4570 C   0  0  0  0  0  0  0  0  0  0  0  0
  162.4020  209.4980  151.1480 C   0  0  0  0  0  3  0  0  0  0  0  0
  160.3560  206.0960  148.2480 C   0  0  0  0  0  2  0  0  0  0  0  0
  161.2470  204.8540  148.1010 C   0  0  2  0  0  3  0  0  0  0  0  0
  160.2590  202.1150  148.5400 O   0  0  0  0  0  0  0  0  0  0  0  0
  160.8230  202.7210  149.4970 C   0  0  0  0  0  0  0  0  0  0  0  0
  161.3050  204.0600  149.3320 N   0  0  0  0  0  2  0  0  0  0  0  0
  161.1650  202.8320  151.9280 C   0  0  0  0  0  1  0  0  0  0  0  0
  160.9820  202.0930  150.7340 O   0  0  0  0  0  0  0  0  0  0  0  0
  162.6340  205.1290  147.5260 C   0  0  0  0  0  2  0  0  0  0  0  0
  162.7370  204.6360  146.0910 C   0  0  1  0  0  3  0  0  0  0  0  0
  161.7440  203.5930  145.8710 N   0  0  0  0  0  2  0  0  0  0  0  0
  161.2100  205.2780  144.3970 C   0  0  0  0  0  2  0  0  0  0  0  0
  162.4350  205.7600  145.1290 C   0  0  0  0  0  2  0  0  0  0  0  0
  160.6650  204.1760  145.1760 N   0  0  0  0  0  2  0  0  0  0  0  0
  160.8480  207.2390  153.7970 C   0  0  0  0  0  2  0  0  0  0  0  0
  160.9770  208.2920  154.8900 C   0  0  0  0  0  2  0  0  0  0  0  0
  159.7290  208.8520  155.1720 O   0  0  0  0  0  0  0  0  0  0  0  0
  159.9670  210.2260  155.2770 C   0  0  0  0  0  2  0  0  0  0  0  0
  158.7930  211.0280  154.6920 C   0  0  1  0  0  3  0  0  0  0  0  0
  158.0380  212.6820  156.4250 C   0  0  0  0  0  1  0  0  0  0  0  0
  157.7280  211.3540  155.7470 C   0  0  1  0  0  3  0  0  0  0  0  0
  155.6290  210.2570  155.3370 O   0  0  0  0  0  1  0  0  0  0  0  0
  155.7720  212.4330  154.6320 O   0  0  0  0  0  0  0  0  0  0  0  0
  156.3230  211.3020  155.2180 C   0  0  0  0  0  0  0  0  0  0  0  0
  159.2550  212.2050  154.0880 O   0  0  0  0  0  0  0  0  0  0  0  0
  158.9950  212.0420  152.7220 C   0  0  2  0  0  3  0  0  0  0  0  0
  160.1960  212.0080  152.0120 O   0  0  0  0  0  1  0  0  0  0  0  0
  158.1440  213.1930  152.2140 C   0  0  0  0  0  2  0  0  0  0  0  0
  158.0150  213.1140  150.8270 O   0  0  0  0  0  1  0  0  0  0  0  0
  1  2  1  0  0  0  0
  2  3  1  0  0  0  0
  3  8  2  0  0  0  0
  4  2  2  0  0  0  0
  4  9  1  0  0  0  0
  5  4  1  0  0  0  0
  6  8  1  0  0  0  0
  7  1  2  0  0  0  0
  7  5  1  0  0  0  0
  8 23  1  0  0  0  0
  9  6  2  0  0  0  0
 10  1  1  0  0  0  0
 11 17  1  1  0  0  0
 11 10  1  0  0  0  0
 11 14  1  0  0  0  0
 12 13  2  0  0  0  0
 13 16  1  0  0  0  0
 14 13  1  0  0  0  0
 16 15  1  0  0  0  0
 18 17  1  1  0  0  0
 19 18  1  0  0  0  0
 20 21  1  0  0  0  0
 20 22  1  0  0  0  0
 21 18  1  0  0  0  0
 22 19  1  0  0  0  0
 23 24  1  0  0  0  0
 24 25  1  0  0  0  0
 25 26  1  0  0  0  0
 27 26  1  1  0  0  0
 27 29  1  0  0  0  0
 29 28  1  6  0  0  0
 31 32  2  0  0  0  0
 32 30  1  0  0  0  0
 32 29  1  0  0  0  0
 33 27  1  0  0  0  0
 34 35  1  6  0  0  0
 34 33  1  0  0  0  0
 36 34  1  0  0  0  0
 37 36  1  0  0  0  0
M  END
>  <MODEL>
4

>  <REMARK>
 VINA RESULT:      -6.9      3.467      9.953
  Name = 
  16 active torsions:
  status: ('A' for Active; 'I' for Inactive)
    1  A    between atoms: C_1  and  C_24
    2  A    between atoms: C_2  and  C_22
    3  A    between atoms: C_2  and  O_33
    4  A    between atoms: C_4  and  C_21
    5  A    between atoms: C_4  and  C_34
    6  A    between atoms: C_6  and  C_11
    7  A    between atoms: C_8  and  C_18
    8  A    between atoms: C_11  and  C_27
    9  A    between atoms: C_15  and  O_23
   10  A    between atoms: C_18  and  O_29
   11  A    between atoms: C_21  and  O_33
   12  A    between atoms: C_22  and  O_29
   13  A    between atoms: C_22  and  C_30
   14  A    between atoms: C_24  and  C_27
   15  A    between atoms: C_27  and  N_32
   16  A    between atoms: C_30  and  C_35
                            x       y       z     vdW  Elec       q    Type
                         _______ _______ _______ _____ _____    ______ ____

>  <TORSDO>
F 16

$$$$
=
 OpenBabel11072410143D

 37 39  0  0  1  0  0  0  0  0999 V2000
  160.7920  209.7700  155.4200 C   0  0  0  0  0  0  0  0  0  0  0  0
  160.8630  208.9810  154.2980 C   0  0  0  0  0  0  0  0  0  0  0  0
  161.0510  209.2650  152.9470 C   0  0  0  0  0  3  0  0  0  0  0  0
  160.7360  207.7060  154.7650 C   0  0  0  0  0  0  0  0  0  0  0  0
  160.5860  207.7340  156.0650 O   0  0  0  0  0  0  0  0  0  0  0  0
  160.9670  206.8460  152.5470 C   0  0  0  0  0  3  0  0  0  0  0  0
  160.6220  208.9680  156.5000 N   0  0  0  0  0  0  0  0  0  0  0  0
  161.1040  208.1670  152.0580 C   0  0  0  0  0  0  0  0  0  0  0  0
  160.7760  206.6010  153.9220 C   0  0  0  0  0  3  0  0  0  0  0  0
  160.9310  211.2600  155.4810 C   0  0  0  0  0  2  0  0  0  0  0  0
  159.6020  212.0260  155.4220 C   0  0  2  0  0  3  0  0  0  0  0  0
  156.9560  212.5360  156.6100 O   0  0  0  0  0  0  0  0  0  0  0  0
  157.1630  211.4280  156.0350 C   0  0  0  0  0  0  0  0  0  0  0  0
  158.4410  211.1320  155.4580 N   0  0  0  0  0  2  0  0  0  0  0  0
  155.3000  210.3720  154.8300 C   0  0  0  0  0  1  0  0  0  0  0  0
  156.1490  210.4710  155.9600 O   0  0  0  0  0  0  0  0  0  0  0  0
  159.5060  213.0510  154.2960 C   0  0  0  0  0  2  0  0  0  0  0  0
  158.8840  212.4370  153.0510 C   0  0  1  0  0  3  0  0  0  0  0  0
  157.6690  213.1670  152.7130 N   0  0  0  0  0  2  0  0  0  0  0  0
  159.0670  213.4190  150.9030 C   0  0  0  0  0  2  0  0  0  0  0  0
  159.8280  212.5610  151.8790 C   0  0  0  0  0  2  0  0  0  0  0  0
  157.9800  214.0370  151.6480 N   0  0  0  0  0  2  0  0  0  0  0  0
  161.2950  208.3810  150.5920 C   0  0  0  0  0  2  0  0  0  0  0  0
  162.3530  207.4500  150.0140 C   0  0  0  0  0  2  0  0  0  0  0  0
  161.9430  206.9650  148.7700 O   0  0  0  0  0  0  0  0  0  0  0  0
  161.3800  205.7130  149.0400 C   0  0  0  0  0  2  0  0  0  0  0  0
  161.3210  204.8560  147.7650 C   0  0  1  0  0  3  0  0  0  0  0  0
  163.3190  204.8030  146.2440 C   0  0  0  0  0  1  0  0  0  0  0  0
  162.0220  205.5290  146.5780 C   0  0  1  0  0  3  0  0  0  0  0  0
  161.5200  205.3050  144.2380 O   0  0  0  0  0  0  0  0  0  0  0  0
  159.8740  206.2450  145.5260 O   0  0  0  0  0  1  0  0  0  0  0  0
  161.1390  205.6950  145.3740 C   0  0  0  0  0  0  0  0  0  0  0  0
  161.8710  203.5880  148.0000 O   0  0  0  0  0  0  0  0  0  0  0  0
  160.7990  202.8000  148.4360 C   0  0  2  0  0  3  0  0  0  0  0  0
  161.0600  202.3150  149.7190 O   0  0  0  0  0  1  0  0  0  0  0  0
  160.5960  201.6290  147.4880 C   0  0  0  0  0  2  0  0  0  0  0  0
  161.0470  201.9660  146.2120 O   0  0  0  0  0  1  0  0  0  0  0  0
  1 10  1  0  0  0  0
  1  7  2  0  0  0  0
  2  4  1  0  0  0  0
  2  1  1  0  0  0  0
  3  2  2  0  0  0  0
  4  5  1  0  0  0  0
  5  7  1  0  0  0  0
  6  9  1  0  0  0  0
  8  6  2  0  0  0  0
  8  3  1  0  0  0  0
  9  4  2  0  0  0  0
 11 17  1  6  0  0  0
 11 14  1  0  0  0  0
 11 10  1  0  0  0  0
 13 12  2  0  0  0  0
 14 13  1  0  0  0  0
 15 16  1  0  0  0  0
 16 13  1  0  0  0  0
 18 17  1  1  0  0  0
 19 18  1  0  0  0  0
 20 22  1  0  0  0  0
 20 21  1  0  0  0  0
 21 18  1  0  0  0  0
 22 19  1  0  0  0  0
 23  8  1  0  0  0  0
 24 23  1  0  0  0  0
 25 26  1  0  0  0  0
 25 24  1  0  0  0  0
 27 33  1  0  0  0  0
 27 26  1  1  0  0  0
 29 28  1  6  0  0  0
 29 27  1  0  0  0  0
 30 32  2  0  0  0  0
 32 31  1  0  0  0  0
 32 29  1  0  0  0  0
 33 34  1  0  0  0  0
 34 35  1  1  0  0  0
 36 34  1  0  0  0  0
 37 36  1  0  0  0  0
M  END
>  <MODEL>
5

>  <REMARK>
 VINA RESULT:      -6.7      1.756      2.710
  Name = 
  16 active torsions:
  status: ('A' for Active; 'I' for Inactive)
    1  A    between atoms: C_1  and  C_24
    2  A    between atoms: C_2  and  C_22
    3  A    between atoms: C_2  and  O_33
    4  A    between atoms: C_4  and  C_21
    5  A    between atoms: C_4  and  C_34
    6  A    between atoms: C_6  and  C_11
    7  A    between atoms: C_8  and  C_18
    8  A    between atoms: C_11  and  C_27
    9  A    between atoms: C_15  and  O_23
   10  A    between atoms: C_18  and  O_29
   11  A    between atoms: C_21  and  O_33
   12  A    between atoms: C_22  and  O_29
   13  A    between atoms: C_22  and  C_30
   14  A    between atoms: C_24  and  C_27
   15  A    between atoms: C_27  and  N_32
   16  A    between atoms: C_30  and  C_35
                            x       y       z     vdW  Elec       q    Type
                         _______ _______ _______ _____ _____    ______ ____

>  <TORSDO>
F 16

$$$$
=
 OpenBabel11072410143D

 37 39  0  0  1  0  0  0  0  0999 V2000
  160.9550  206.0830  150.4410 C   0  0  0  0  0  0  0  0  0  0  0  0
  161.0020  206.6680  151.6830 C   0  0  0  0  0  0  0  0  0  0  0  0
  160.7990  207.9730  152.1260 C   0  0  0  0  0  3  0  0  0  0  0  0
  161.2810  205.6420  152.5370 C   0  0  0  0  0  0  0  0  0  0  0  0
  161.4070  204.5330  151.8550 O   0  0  0  0  0  0  0  0  0  0  0  0
  161.1940  207.1380  154.3990 C   0  0  0  0  0  3  0  0  0  0  0  0
  161.2090  204.7580  150.5810 N   0  0  0  0  0  0  0  0  0  0  0  0
  160.8990  208.2060  153.5170 C   0  0  0  0  0  0  0  0  0  0  0  0
  161.3930  205.8320  153.9100 C   0  0  0  0  0  3  0  0  0  0  0  0
  160.6280  206.7540  149.1430 C   0  0  0  0  0  2  0  0  0  0  0  0
  161.8480  207.2920  148.3800 C   0  0  2  0  0  3  0  0  0  0  0  0
  162.3280  209.7050  149.9990 O   0  0  0  0  0  0  0  0  0  0  0  0
  161.9430  209.8410  148.8010 C   0  0  0  0  0  0  0  0  0  0  0  0
  161.6830  208.6930  147.9830 N   0  0  0  0  0  2  0  0  0  0  0  0
  162.8180  212.0560  148.1940 C   0  0  0  0  0  1  0  0  0  0  0  0
  161.7620  211.1140  148.2580 O   0  0  0  0  0  0  0  0  0  0  0  0
  162.3140  206.4150  147.2220 C   0  0  0  0  0  2  0  0  0  0  0  0
  161.2170  205.4530  146.7900 C   0  0  1  0  0  3  0  0  0  0  0  0
  160.7600  205.8170  145.4560 N   0  0  0  0  0  2  0  0  0  0  0  0
  161.5880  203.6790  145.2650 C   0  0  0  0  0  2  0  0  0  0  0  0
  161.7550  204.0450  146.7170 C   0  0  0  0  0  2  0  0  0  0  0  0
  161.3570  204.9220  144.5450 N   0  0  0  0  0  2  0  0  0  0  0  0
  160.7040  209.5770  154.0780 C   0  0  0  0  0  2  0  0  0  0  0  0
  160.2320  209.5380  155.5260 C   0  0  0  0  0  2  0  0  0  0  0  0
  159.2030  210.4620  155.7240 O   0  0  0  0  0  0  0  0  0  0  0  0
  159.6690  211.6480  155.1500 C   0  0  0  0  0  2  0  0  0  0  0  0
  158.5050  212.4640  154.5640 C   0  0  1  0  0  3  0  0  0  0  0  0
  157.1940  213.8410  156.2050 C   0  0  0  0  0  1  0  0  0  0  0  0
  157.2880  212.4950  155.4980 C   0  0  1  0  0  3  0  0  0  0  0  0
  155.2690  213.0000  154.2950 O   0  0  0  0  0  0  0  0  0  0  0  0
  155.6390  210.7810  154.7380 O   0  0  0  0  0  1  0  0  0  0  0  0
  156.0020  212.1190  154.8210 C   0  0  0  0  0  0  0  0  0  0  0  0
  158.9220  213.7690  154.2640 O   0  0  0  0  0  0  0  0  0  0  0  0
  158.8090  213.8780  152.8730 C   0  0  2  0  0  3  0  0  0  0  0  0
  157.5780  214.4490  152.5420 O   0  0  0  0  0  1  0  0  0  0  0  0
  158.9120  212.5030  152.2340 C   0  0  0  0  0  2  0  0  0  0  0  0
  160.0460  212.4390  151.4240 O   0  0  0  0  0  1  0  0  0  0  0  0
  1  7  2  0  0  0  0
  1  2  1  0  0  0  0
  2  3  2  0  0  0  0
  2  4  1  0  0  0  0
  3  8  1  0  0  0  0
  4  9  2  0  0  0  0
  5  4  1  0  0  0  0
  7  5  1  0  0  0  0
  8 23  1  0  0  0  0
  8  6  2  0  0  0  0
  9  6  1  0  0  0  0
 10  1  1  0  0  0  0
 11 17  1  6  0  0  0
 11 10  1  0  0  0  0
 13 12  2  0  0  0  0
 14 11  1  0  0  0  0
 14 13  1  0  0  0  0
 15 16  1  0  0  0  0
 16 13  1  0  0  0  0
 18 17  1  6  0  0  0
 19 18  1  0  0  0  0
 20 21  1  0  0  0  0
 21 18  1  0  0  0  0
 22 20  1  0  0  0  0
 22 19  1  0  0  0  0
 23 24  1  0  0  0  0
 24 25  1  0  0  0  0
 26 25  1  0  0  0  0
 27 26  1  1  0  0  0
 27 29  1  0  0  0  0
 29 28  1  6  0  0  0
 30 32  2  0  0  0  0
 31 32  1  0  0  0  0
 32 29  1  0  0  0  0
 33 27  1  0  0  0  0
 34 35  1  1  0  0  0
 34 33  1  0  0  0  0
 36 34  1  0  0  0  0
 37 36  1  0  0  0  0
M  END
>  <MODEL>
6

>  <REMARK>
 VINA RESULT:      -6.7      3.684      9.276
  Name = 
  16 active torsions:
  status: ('A' for Active; 'I' for Inactive)
    1  A    between atoms: C_1  and  C_24
    2  A    between atoms: C_2  and  C_22
    3  A    between atoms: C_2  and  O_33
    4  A    between atoms: C_4  and  C_21
    5  A    between atoms: C_4  and  C_34
    6  A    between atoms: C_6  and  C_11
    7  A    between atoms: C_8  and  C_18
    8  A    between atoms: C_11  and  C_27
    9  A    between atoms: C_15  and  O_23
   10  A    between atoms: C_18  and  O_29
   11  A    between atoms: C_21  and  O_33
   12  A    between atoms: C_22  and  O_29
   13  A    between atoms: C_22  and  C_30
   14  A    between atoms: C_24  and  C_27
   15  A    between atoms: C_27  and  N_32
   16  A    between atoms: C_30  and  C_35
                            x       y       z     vdW  Elec       q    Type
                         _______ _______ _______ _____ _____    ______ ____

>  <TORSDO>
F 16

$$$$
=
 OpenBabel11072410143D

 37 39  0  0  1  0  0  0  0  0999 V2000
  161.0970  207.2010  149.1590 C   0  0  0  0  0  0  0  0  0  0  0  0
  161.2380  207.7220  150.4220 C   0  0  0  0  0  0  0  0  0  0  0  0
  160.8770  207.2600  151.6860 C   0  0  0  0  0  3  0  0  0  0  0  0
  161.9000  208.9000  150.2370 C   0  0  0  0  0  0  0  0  0  0  0  0
  162.1230  209.0750  148.9590 O   0  0  0  0  0  0  0  0  0  0  0  0
  161.9050  209.2950  152.5940 C   0  0  0  0  0  3  0  0  0  0  0  0
  161.6560  208.0620  148.2740 N   0  0  0  0  0  0  0  0  0  0  0  0
  161.2230  208.0700  152.7920 C   0  0  0  0  0  0  0  0  0  0  0  0
  162.2510  209.7270  151.2980 C   0  0  0  0  0  3  0  0  0  0  0  0
  160.4840  205.8840  148.7930 C   0  0  0  0  0  2  0  0  0  0  0  0
  161.3650  204.9980  147.9010 C   0  0  2  0  0  3  0  0  0  0  0  0
  163.0340  204.7490  145.4880 O   0  0  0  0  0  0  0  0  0  0  0  0
  161.7820  204.8750  145.3530 C   0  0  0  0  0  0  0  0  0  0  0  0
  160.9340  205.0150  146.5000 N   0  0  0  0  0  2  0  0  0  0  0  0
  161.5900  205.8260  143.0950 C   0  0  0  0  0  1  0  0  0  0  0  0
  161.2060  204.8840  144.0810 O   0  0  0  0  0  0  0  0  0  0  0  0
  161.5780  203.5800  148.4220 C   0  0  0  0  0  2  0  0  0  0  0  0
  160.5940  203.2550  149.5370 C   0  0  1  0  0  3  0  0  0  0  0  0
  160.4060  201.8120  149.6020 N   0  0  0  0  0  2  0  0  0  0  0  0
  161.2700  202.4170  151.6470 C   0  0  0  0  0  2  0  0  0  0  0  0
  161.1470  203.7010  150.8690 C   0  0  0  0  0  2  0  0  0  0  0  0
  161.1770  201.3330  150.6810 N   0  0  0  0  0  2  0  0  0  0  0  0
  160.8670  207.6550  154.1830 C   0  0  0  0  0  2  0  0  0  0  0  0
  160.7100  208.8520  155.1120 C   0  0  0  0  0  2  0  0  0  0  0  0
  159.4900  209.4890  154.8770 O   0  0  0  0  0  0  0  0  0  0  0  0
  159.1730  210.1170  156.0870 C   0  0  0  0  0  2  0  0  0  0  0  0
  158.3090  211.3640  155.8430 C   0  0  1  0  0  3  0  0  0  0  0  0
  160.4850  212.5170  156.3350 C   0  0  0  0  0  1  0  0  0  0  0  0
  159.1540  212.6210  155.6010 C   0  0  1  0  0  3  0  0  0  0  0  0
  160.1060  212.2720  153.4210 O   0  0  0  0  0  0  0  0  0  0  0  0
  158.6060  213.9970  153.5910 O   0  0  0  0  0  1  0  0  0  0  0  0
  159.3330  212.9530  154.1470 C   0  0  0  0  0  0  0  0  0  0  0  0
  157.4330  211.1520  154.7690 O   0  0  0  0  0  0  0  0  0  0  0  0
  156.1550  211.4020  155.2850 C   0  0  2  0  0  3  0  0  0  0  0  0
  155.3200  210.3140  155.0250 O   0  0  0  0  0  1  0  0  0  0  0  0
  155.5700  212.6480  154.6430 C   0  0  0  0  0  2  0  0  0  0  0  0
  155.7960  213.7560  155.4600 O   0  0  0  0  0  1  0  0  0  0  0  0
  1  2  1  0  0  0  0
  2  3  1  0  0  0  0
  3  8  2  0  0  0  0
  4  2  2  0  0  0  0
  4  9  1  0  0  0  0
  5  4  1  0  0  0  0
  6  8  1  0  0  0  0
  7  5  1  0  0  0  0
  7  1  2  0  0  0  0
  8 23  1  0  0  0  0
  9  6  2  0  0  0  0
 10  1  1  0  0  0  0
 11 17  1  1  0  0  0
 11 10  1  0  0  0  0
 13 12  2  0  0  0  0
 13 14  1  0  0  0  0
 14 11  1  0  0  0  0
 15 16  1  0  0  0  0
 16 13  1  0  0  0  0
 18 17  1  6  0  0  0
 18 19  1  0  0  0  0
 18 21  1  0  0  0  0
 19 22  1  0  0  0  0
 21 20  1  0  0  0  0
 22 20  1  0  0  0  0
 23 24  1  0  0  0  0
 25 24  1  0  0  0  0
 25 26  1  0  0  0  0
 27 26  1  6  0  0  0
 29 27  1  0  0  0  0
 29 28  1  6  0  0  0
 30 32  2  0  0  0  0
 31 32  1  0  0  0  0
 32 29  1  0  0  0  0
 33 34  1  0  0  0  0
 33 27  1  0  0  0  0
 34 35  1  6  0  0  0
 36 34  1  0  0  0  0
 36 37  1  0  0  0  0
M  END
>  <MODEL>
7

>  <REMARK>
 VINA RESULT:      -6.6      3.497      9.795
  Name = 
  16 active torsions:
  status: ('A' for Active; 'I' for Inactive)
    1  A    between atoms: C_1  and  C_24
    2  A    between atoms: C_2  and  C_22
    3  A    between atoms: C_2  and  O_33
    4  A    between atoms: C_4  and  C_21
    5  A    between atoms: C_4  and  C_34
    6  A    between atoms: C_6  and  C_11
    7  A    between atoms: C_8  and  C_18
    8  A    between atoms: C_11  and  C_27
    9  A    between atoms: C_15  and  O_23
   10  A    between atoms: C_18  and  O_29
   11  A    between atoms: C_21  and  O_33
   12  A    between atoms: C_22  and  O_29
   13  A    between atoms: C_22  and  C_30
   14  A    between atoms: C_24  and  C_27
   15  A    between atoms: C_27  and  N_32
   16  A    between atoms: C_30  and  C_35
                            x       y       z     vdW  Elec       q    Type
                         _______ _______ _______ _____ _____    ______ ____

>  <TORSDO>
F 16

$$$$
=
 OpenBabel11072410143D

 37 39  0  0  1  0  0  0  0  0999 V2000
  161.5610  206.0900  152.1050 C   0  0  0  0  0  0  0  0  0  0  0  0
  161.5550  207.4620  152.0240 C   0  0  0  0  0  0  0  0  0  0  0  0
  161.8350  208.3540  150.9920 C   0  0  0  0  0  3  0  0  0  0  0  0
  161.1500  207.8780  153.2590 C   0  0  0  0  0  0  0  0  0  0  0  0
  160.9450  206.8340  154.0220 O   0  0  0  0  0  0  0  0  0  0  0  0
  161.2710  210.1590  152.5550 C   0  0  0  0  0  3  0  0  0  0  0  0
  161.1770  205.7320  153.3550 N   0  0  0  0  0  0  0  0  0  0  0  0
  161.6870  209.7320  151.2710 C   0  0  0  0  0  0  0  0  0  0  0  0
  160.9990  209.2240  153.5740 C   0  0  0  0  0  3  0  0  0  0  0  0
  161.8790  205.1270  151.0040 C   0  0  0  0  0  2  0  0  0  0  0  0
  160.6850  204.7660  150.1090 C   0  0  2  0  0  3  0  0  0  0  0  0
  161.2210  202.3820  151.7520 O   0  0  0  0  0  0  0  0  0  0  0  0
  160.9620  202.2300  150.5220 C   0  0  0  0  0  0  0  0  0  0  0  0
  160.7100  203.3640  149.6830 N   0  0  0  0  0  2  0  0  0  0  0  0
  161.1990  200.7290  148.5910 C   0  0  0  0  0  1  0  0  0  0  0  0
  160.9220  200.9520  149.9620 O   0  0  0  0  0  0  0  0  0  0  0  0
  160.4520  205.7200  148.9400 C   0  0  0  0  0  2  0  0  0  0  0  0
  161.6440  205.7240  147.9940 C   0  0  1  0  0  3  0  0  0  0  0  0
  161.8560  204.3750  147.4880 N   0  0  0  0  0  2  0  0  0  0  0  0
  161.4150  205.6690  145.6370 C   0  0  0  0  0  2  0  0  0  0  0  0
  161.3660  206.6150  146.8080 C   0  0  0  0  0  2  0  0  0  0  0  0
  161.3240  204.3240  146.1840 N   0  0  0  0  0  2  0  0  0  0  0  0
  161.9740  210.7580  150.2240 C   0  0  0  0  0  2  0  0  0  0  0  0
  162.0640  210.1430  148.8330 C   0  0  0  0  0  2  0  0  0  0  0  0
  161.3780  210.9340  147.9090 O   0  0  0  0  0  0  0  0  0  0  0  0
  162.0490  212.1610  147.9170 C   0  0  0  0  0  2  0  0  0  0  0  0
  161.0740  213.3170  147.6410 C   0  0  1  0  0  3  0  0  0  0  0  0
  162.4080  213.3560  145.5130 C   0  0  0  0  0  1  0  0  0  0  0  0
  161.0950  213.7580  146.1710 C   0  0  1  0  0  3  0  0  0  0  0  0
  159.8710  212.1320  144.8910 O   0  0  0  0  0  0  0  0  0  0  0  0
  158.8060  214.1310  145.2450 O   0  0  0  0  0  1  0  0  0  0  0  0
  159.9020  213.2900  145.3870 C   0  0  0  0  0  0  0  0  0  0  0  0
  159.7730  212.9640  148.0250 O   0  0  0  0  0  0  0  0  0  0  0  0
  159.3950  213.9290  148.9660 C   0  0  2  0  0  3  0  0  0  0  0  0
  159.7680  213.5120  150.2450 O   0  0  0  0  0  1  0  0  0  0  0  0
  157.8910  214.1350  148.9240 C   0  0  0  0  0  2  0  0  0  0  0  0
  157.2390  212.9820  149.3640 O   0  0  0  0  0  1  0  0  0  0  0  0
  1  7  2  0  0  0  0
  2  1  1  0  0  0  0
  2  4  1  0  0  0  0
  3  8  1  0  0  0  0
  3  2  2  0  0  0  0
  4  9  2  0  0  0  0
  4  5  1  0  0  0  0
  6  9  1  0  0  0  0
  7  5  1  0  0  0  0
  8  6  2  0  0  0  0
 10  1  1  0  0  0  0
 11 17  1  6  0  0  0
 11 10  1  0  0  0  0
 13 12  2  0  0  0  0
 14 11  1  0  0  0  0
 14 13  1  0  0  0  0
 15 16  1  0  0  0  0
 16 13  1  0  0  0  0
 18 17  1  1  0  0  0
 19 18  1  0  0  0  0
 20 22  1  0  0  0  0
 20 21  1  0  0  0  0
 21 18  1  0  0  0  0
 22 19  1  0  0  0  0
 23  8  1  0  0  0  0
 24 23  1  0  0  0  0
 25 26  1  0  0  0  0
 25 24  1  0  0  0  0
 27 26  1  6  0  0  0
 27 33  1  0  0  0  0
 29 28  1  6  0  0  0
 29 27  1  0  0  0  0
 30 32  2  0  0  0  0
 31 32  1  0  0  0  0
 32 29  1  0  0  0  0
 33 34  1  0  0  0  0
 34 35  1  1  0  0  0
 36 34  1  0  0  0  0
 36 37  1  0  0  0  0
M  END
>  <MODEL>
8

>  <REMARK>
 VINA RESULT:      -6.5      3.721      8.608
  Name = 
  16 active torsions:
  status: ('A' for Active; 'I' for Inactive)
    1  A    between atoms: C_1  and  C_24
    2  A    between atoms: C_2  and  C_22
    3  A    between atoms: C_2  and  O_33
    4  A    between atoms: C_4  and  C_21
    5  A    between atoms: C_4  and  C_34
    6  A    between atoms: C_6  and  C_11
    7  A    between atoms: C_8  and  C_18
    8  A    between atoms: C_11  and  C_27
    9  A    between atoms: C_15  and  O_23
   10  A    between atoms: C_18  and  O_29
   11  A    between atoms: C_21  and  O_33
   12  A    between atoms: C_22  and  O_29
   13  A    between atoms: C_22  and  C_30
   14  A    between atoms: C_24  and  C_27
   15  A    between atoms: C_27  and  N_32
   16  A    between atoms: C_30  and  C_35
                            x       y       z     vdW  Elec       q    Type
                         _______ _______ _______ _____ _____    ______ ____

>  <TORSDO>
F 16

$$$$
=
 OpenBabel11072410143D

 37 39  0  0  1  0  0  0  0  0999 V2000
  160.4450  210.8920  153.9210 C   0  0  0  0  0  0  0  0  0  0  0  0
  160.6510  209.5530  153.6900 C   0  0  0  0  0  0  0  0  0  0  0  0
  160.8190  208.8040  152.5280 C   0  0  0  0  0  3  0  0  0  0  0  0
  160.7070  208.9940  154.9330 C   0  0  0  0  0  0  0  0  0  0  0  0
  160.5310  209.9260  155.8350 O   0  0  0  0  0  0  0  0  0  0  0  0
  161.1010  206.8420  153.9720 C   0  0  0  0  0  3  0  0  0  0  0  0
  160.3760  211.0910  155.2600 N   0  0  0  0  0  0  0  0  0  0  0  0
  161.0500  207.4180  152.6800 C   0  0  0  0  0  0  0  0  0  0  0  0
  160.9240  207.6340  155.1240 C   0  0  0  0  0  3  0  0  0  0  0  0
  160.3610  211.9790  152.8940 C   0  0  0  0  0  2  0  0  0  0  0  0
  158.9610  212.5840  152.7210 C   0  0  2  0  0  3  0  0  0  0  0  0
  157.7770  214.0170  155.0050 O   0  0  0  0  0  0  0  0  0  0  0  0
  157.4430  212.8130  154.8010 C   0  0  0  0  0  0  0  0  0  0  0  0
  158.0070  212.0740  153.7100 N   0  0  0  0  0  2  0  0  0  0  0  0
  155.5670  212.9180  156.3850 C   0  0  0  0  0  1  0  0  0  0  0  0
  156.5220  212.1830  155.6390 O   0  0  0  0  0  0  0  0  0  0  0  0
  158.4090  212.5200  151.3000 C   0  0  0  0  0  2  0  0  0  0  0  0
  157.9600  213.8940  150.8260 C   0  0  1  0  0  3  0  0  0  0  0  0
  157.9910  213.9320  149.3710 N   0  0  0  0  0  2  0  0  0  0  0  0
  155.7970  214.3120  149.9540 C   0  0  0  0  0  2  0  0  0  0  0  0
  156.5370  214.1570  151.2570 C   0  0  0  0  0  2  0  0  0  0  0  0
  156.6650  213.7780  148.9160 N   0  0  0  0  0  2  0  0  0  0  0  0
  161.2330  206.5390  151.4860 C   0  0  0  0  0  2  0  0  0  0  0  0
  161.2730  207.3390  150.1900 C   0  0  0  0  0  2  0  0  0  0  0  0
  160.5240  206.6960  149.2020 O   0  0  0  0  0  0  0  0  0  0  0  0
  161.4140  206.5140  148.1380 C   0  0  0  0  0  2  0  0  0  0  0  0
  161.2700  205.1050  147.5430 C   0  0  1  0  0  3  0  0  0  0  0  0
  163.3180  204.6790  146.1530 C   0  0  0  0  0  1  0  0  0  0  0  0
  161.8330  205.0140  146.1180 C   0  0  1  0  0  3  0  0  0  0  0  0
  161.2380  202.8370  145.2900 O   0  0  0  0  0  1  0  0  0  0  0  0
  160.1170  204.6020  144.3520 O   0  0  0  0  0  0  0  0  0  0  0  0
  161.0630  204.0830  145.2260 C   0  0  0  0  0  0  0  0  0  0  0  0
  161.8870  204.1570  148.3710 O   0  0  0  0  0  0  0  0  0  0  0  0
  160.8470  203.3390  148.8290 C   0  0  2  0  0  3  0  0  0  0  0  0
  160.6830  203.5110  150.2050 O   0  0  0  0  0  1  0  0  0  0  0  0
  161.1650  201.8820  148.5400 C   0  0  0  0  0  2  0  0  0  0  0  0
  160.7530  201.0840  149.6070 O   0  0  0  0  0  1  0  0  0  0  0  0
  1  7  2  0  0  0  0
  2  1  1  0  0  0  0
  2  4  1  0  0  0  0
  3  8  1  0  0  0  0
  3  2  2  0  0  0  0
  4  9  2  0  0  0  0
  4  5  1  0  0  0  0
  6  9  1  0  0  0  0
  7  5  1  0  0  0  0
  8  6  2  0  0  0  0
 10  1  1  0  0  0  0
 11 17  1  6  0  0  0
 11 10  1  0  0  0  0
 11 14  1  0  0  0  0
 13 12  2  0  0  0  0
 13 16  1  0  0  0  0
 14 13  1  0  0  0  0
 16 15  1  0  0  0  0
 18 21  1  0  0  0  0
 18 17  1  6  0  0  0
 19 18  1  0  0  0  0
 20 21  1  0  0  0  0
 22 19  1  0  0  0  0
 22 20  1  0  0  0  0
 23  8  1  0  0  0  0
 24 23  1  0  0  0  0
 25 24  1  0  0  0  0
 26 25  1  0  0  0  0
 27 26  1  1  0  0  0
 27 33  1  0  0  0  0
 29 28  1  1  0  0  0
 29 27  1  0  0  0  0
 31 32  2  0  0  0  0
 32 30  1  0  0  0  0
 32 29  1  0  0  0  0
 33 34  1  0  0  0  0
 34 35  1  1  0  0  0
 36 34  1  0  0  0  0
 36 37  1  0  0  0  0
M  END
>  <MODEL>
9

>  <REMARK>
 VINA RESULT:      -6.4      1.936      3.159
  Name = 
  16 active torsions:
  status: ('A' for Active; 'I' for Inactive)
    1  A    between atoms: C_1  and  C_24
    2  A    between atoms: C_2  and  C_22
    3  A    between atoms: C_2  and  O_33
    4  A    between atoms: C_4  and  C_21
    5  A    between atoms: C_4  and  C_34
    6  A    between atoms: C_6  and  C_11
    7  A    between atoms: C_8  and  C_18
    8  A    between atoms: C_11  and  C_27
    9  A    between atoms: C_15  and  O_23
   10  A    between atoms: C_18  and  O_29
   11  A    between atoms: C_21  and  O_33
   12  A    between atoms: C_22  and  O_29
   13  A    between atoms: C_22  and  C_30
   14  A    between atoms: C_24  and  C_27
   15  A    between atoms: C_27  and  N_32
   16  A    between atoms: C_30  and  C_35
                            x       y       z     vdW  Elec       q    Type
                         _______ _______ _______ _____ _____    ______ ____

>  <TORSDO>
F 16

$$$$
