=
 OpenBabel11072412233D

 27 30  0  0  1  0  0  0  0  0999 V2000
  160.9790  206.8740  151.5360 O   0  0  0  0  0  0  0  0  0  0  0  0
  160.3640  206.0830  149.3200 C   0  0  2  0  0  3  0  0  0  0  0  0
  160.7300  206.2440  147.8360 C   0  0  0  0  0  2  0  0  0  0  0  0
  162.1270  206.2680  147.6590 O   0  0  0  0  0  0  0  0  0  0  0  0
  162.5100  207.3700  149.7600 C   0  0  0  0  0  2  0  0  0  0  0  0
  162.5930  207.4640  148.2360 C   0  0  0  0  0  2  0  0  0  0  0  0
  161.0520  207.1700  150.1710 C   0  0  2  0  0  3  0  0  0  0  0  0
  161.2070  202.1420  150.6110 N   0  0  0  0  0  2  0  0  0  0  0  0
  161.1650  201.4080  148.2520 N   0  0  0  0  0  1  0  0  0  0  0  0
  161.0560  202.4420  149.2200 C   0  0  0  0  0  0  0  0  0  0  0  0
  160.6260  204.7280  149.8090 N   0  0  0  0  0  0  0  0  0  0  0  0
  160.4430  204.3770  151.2220 C   0  0  0  0  0  2  0  0  0  0  0  0
  161.3520  203.2110  151.5940 C   0  0  0  0  0  2  0  0  0  0  0  0
  160.7990  203.6900  148.8340 C   0  0  0  0  0  3  0  0  0  0  0  0
  161.5100  207.9910  152.1840 C   0  0  0  0  0  2  0  0  0  0  0  0
  159.6800  212.4150  154.4940 C   0  0  0  0  0  2  0  0  0  0  0  0
  160.7770  208.8900  155.7010 C   0  0  1  0  0  3  0  0  0  0  0  0
  160.8110  207.7680  154.6470 C   0  0  0  0  0  0  0  0  0  0  0  0
  162.0720  209.2110  156.1250 O   0  0  0  0  0  1  0  0  0  0  0  0
  160.7010  209.9180  153.5540 C   0  0  1  0  0  3  0  0  0  0  0  0
  160.4160  211.4640  155.4500 C   0  0  0  0  0  2  0  0  0  0  0  0
  160.5540  208.4420  153.2810 C   0  0  1  0  0  3  0  0  0  0  0  0
  159.8930  210.8490  152.6660 C   0  0  0  0  0  2  0  0  0  0  0  0
  160.1710  210.0530  154.9460 C   0  0  2  0  0  3  0  0  0  0  0  0
  159.7920  206.8720  154.9040 F   0  0  0  0  0  0  0  0  0  0  0  0
  162.0240  207.0930  154.6800 F   0  0  0  0  0  0  0  0  0  0  0  0
  160.1220  212.2330  153.1030 N   0  0  0  0  0  2  0  0  0  0  0  0
  1 15  1  0  0  0  0
  2  3  1  6  0  0  0
  2 11  1  0  0  0  0
  2  7  1  0  0  0  0
  4  3  1  0  0  0  0
  4  6  1  0  0  0  0
  5  7  1  0  0  0  0
  6  5  1  0  0  0  0
  7  1  1  1  0  0  0
  8 13  1  0  0  0  0
  9 10  1  0  0  0  0
 10  8  1  0  0  0  0
 11 12  1  0  0  0  0
 12 13  1  0  0  0  0
 14 10  2  0  0  0  0
 14 11  1  0  0  0  0
 16 21  1  0  0  0  0
 17 19  1  6  0  0  0
 18 26  1  0  0  0  0
 18 25  1  0  0  0  0
 18 17  1  0  0  0  0
 20 23  1  6  0  0  0
 20 24  1  0  0  0  0
 22 15  1  6  0  0  0
 22 20  1  0  0  0  0
 22 18  1  0  0  0  0
 23 27  1  0  0  0  0
 24 21  1  1  0  0  0
 24 17  1  0  0  0  0
 27 16  1  0  0  0  0
M  END
>  <MODEL>
1

>  <REMARK>
 VINA RESULT:      -7.8      0.000      0.000
  Name = 
  4 active torsions:
  status: ('A' for Active; 'I' for Inactive)
    1  A    between atoms: O_7  and  C_22
    2  A    between atoms: O_7  and  C_25
    3  A    between atoms: C_9  and  N_12
    4  A    between atoms: C_17  and  C_25
                            x       y       z     vdW  Elec       q    Type
                         _______ _______ _______ _____ _____    ______ ____

>  <TORSDO>
F 4

$$$$
=
 OpenBabel11072412233D

 27 30  0  0  1  0  0  0  0  0999 V2000
  161.0900  207.0530  151.3760 O   0  0  0  0  0  0  0  0  0  0  0  0
  160.3890  206.1240  149.2400 C   0  0  2  0  0  3  0  0  0  0  0  0
  160.7080  206.1760  147.7370 C   0  0  0  0  0  2  0  0  0  0  0  0
  162.0990  206.1610  147.5150 O   0  0  0  0  0  0  0  0  0  0  0  0
  162.5690  207.3970  149.5210 C   0  0  0  0  0  2  0  0  0  0  0  0
  162.6030  207.3850  147.9930 C   0  0  0  0  0  2  0  0  0  0  0  0
  161.1230  207.2530  149.9920 C   0  0  2  0  0  3  0  0  0  0  0  0
  161.2120  202.2660  150.7740 N   0  0  0  0  0  2  0  0  0  0  0  0
  161.1380  201.3820  148.4670 N   0  0  0  0  0  1  0  0  0  0  0  0
  161.0480  202.4780  149.3670 C   0  0  0  0  0  0  0  0  0  0  0  0
  160.6450  204.8000  149.8120 N   0  0  0  0  0  0  0  0  0  0  0  0
  160.4740  204.5420  151.2470 C   0  0  0  0  0  2  0  0  0  0  0  0
  161.3770  203.3950  151.6840 C   0  0  0  0  0  2  0  0  0  0  0  0
  160.7970  203.7010  148.9050 C   0  0  0  0  0  3  0  0  0  0  0  0
  160.5370  208.2200  151.9040 C   0  0  0  0  0  2  0  0  0  0  0  0
  160.4990  208.2050  157.2200 C   0  0  0  0  0  2  0  0  0  0  0  0
  161.4650  210.7480  154.4470 C   0  0  1  0  0  3  0  0  0  0  0  0
  161.7470  210.1800  153.0440 C   0  0  0  0  0  0  0  0  0  0  0  0
  160.2900  211.5080  154.4460 O   0  0  0  0  0  1  0  0  0  0  0  0
  160.6050  208.5280  154.3830 C   0  0  1  0  0  3  0  0  0  0  0  0
  160.5120  209.6080  156.5940 C   0  0  0  0  0  2  0  0  0  0  0  0
  161.3700  208.6830  153.0930 C   0  0  1  0  0  3  0  0  0  0  0  0
  160.6780  207.1630  155.0470 C   0  0  0  0  0  2  0  0  0  0  0  0
  161.2820  209.5040  155.2910 C   0  0  2  0  0  3  0  0  0  0  0  0
  163.0970  210.2930  152.7700 F   0  0  0  0  0  0  0  0  0  0  0  0
  161.0320  210.8710  152.0760 F   0  0  0  0  0  0  0  0  0  0  0  0
  159.9200  207.2100  156.3040 N   0  0  0  0  0  2  0  0  0  0  0  0
  1 15  1  0  0  0  0
  2  3  1  6  0  0  0
  2 11  1  0  0  0  0
  2  7  1  0  0  0  0
  4  3  1  0  0  0  0
  4  6  1  0  0  0  0
  5  7  1  0  0  0  0
  6  5  1  0  0  0  0
  7  1  1  1  0  0  0
  8 13  1  0  0  0  0
  9 10  1  0  0  0  0
 10  8  1  0  0  0  0
 11 12  1  0  0  0  0
 12 13  1  0  0  0  0
 14 10  2  0  0  0  0
 14 11  1  0  0  0  0
 17 19  1  6  0  0  0
 17 24  1  0  0  0  0
 18 22  1  0  0  0  0
 18 17  1  0  0  0  0
 20 23  1  1  0  0  0
 20 24  1  0  0  0  0
 21 16  1  0  0  0  0
 22 15  1  6  0  0  0
 22 20  1  0  0  0  0
 23 27  1  0  0  0  0
 24 21  1  1  0  0  0
 25 18  1  0  0  0  0
 26 18  1  0  0  0  0
 27 16  1  0  0  0  0
M  END
>  <MODEL>
2

>  <REMARK>
 VINA RESULT:      -7.7      1.988      2.493
  Name = 
  4 active torsions:
  status: ('A' for Active; 'I' for Inactive)
    1  A    between atoms: O_7  and  C_22
    2  A    between atoms: O_7  and  C_25
    3  A    between atoms: C_9  and  N_12
    4  A    between atoms: C_17  and  C_25
                            x       y       z     vdW  Elec       q    Type
                         _______ _______ _______ _____ _____    ______ ____

>  <TORSDO>
F 4

$$$$
=
 OpenBabel11072412233D

 27 30  0  0  1  0  0  0  0  0999 V2000
  161.6080  209.3930  152.7820 O   0  0  0  0  0  0  0  0  0  0  0  0
  161.1320  211.1220  154.4250 C   0  0  2  0  0  3  0  0  0  0  0  0
  160.1020  212.2110  154.7680 C   0  0  0  0  0  2  0  0  0  0  0  0
  158.7870  211.7380  154.5890 O   0  0  0  0  0  0  0  0  0  0  0  0
  159.4010  210.3300  152.7420 C   0  0  0  0  0  2  0  0  0  0  0  0
  158.6050  211.5490  153.2070 C   0  0  0  0  0  2  0  0  0  0  0  0
  160.8870  210.5710  153.0050 C   0  0  2  0  0  3  0  0  0  0  0  0
  161.2370  207.9830  157.2610 N   0  0  0  0  0  2  0  0  0  0  0  0
  159.2880  206.9610  156.1350 N   0  0  0  0  0  1  0  0  0  0  0  0
  160.2570  207.9970  156.2170 C   0  0  0  0  0  0  0  0  0  0  0  0
  161.1820  210.0710  155.4420 N   0  0  0  0  0  0  0  0  0  0  0  0
  161.9530  210.2410  156.6790 C   0  0  0  0  0  2  0  0  0  0  0  0
  162.3850  208.8830  157.2190 C   0  0  0  0  0  2  0  0  0  0  0  0
  160.2460  208.9900  155.3300 C   0  0  0  0  0  3  0  0  0  0  0  0
  160.8920  208.7030  151.8010 C   0  0  0  0  0  2  0  0  0  0  0  0
  161.5410  205.6100  147.5270 C   0  0  0  0  0  2  0  0  0  0  0  0
  161.4210  205.0630  151.3700 C   0  0  1  0  0  3  0  0  0  0  0  0
  161.6640  206.2960  152.2610 C   0  0  0  0  0  0  0  0  0  0  0  0
  160.0940  204.6310  151.4760 O   0  0  0  0  0  1  0  0  0  0  0  0
  161.1920  206.9980  150.0000 C   0  0  1  0  0  3  0  0  0  0  0  0
  161.0940  204.8560  148.7880 C   0  0  0  0  0  2  0  0  0  0  0  0
  161.7150  207.5160  151.3160 C   0  0  1  0  0  3  0  0  0  0  0  0
  161.7150  207.6870  148.7510 C   0  0  0  0  0  2  0  0  0  0  0  0
  161.6910  205.5880  149.9760 C   0  0  2  0  0  3  0  0  0  0  0  0
  162.8860  206.1670  152.8920 F   0  0  0  0  0  0  0  0  0  0  0  0
  160.6710  206.4160  153.2230 F   0  0  0  0  0  0  0  0  0  0  0  0
  161.1400  207.0250  147.5720 N   0  0  0  0  0  2  0  0  0  0  0  0
  2  3  1  1  0  0  0
  2 11  1  0  0  0  0
  4  3  1  0  0  0  0
  5  7  1  0  0  0  0
  5  6  1  0  0  0  0
  6  4  1  0  0  0  0
  7  1  1  1  0  0  0
  7  2  1  0  0  0  0
  9 10  1  0  0  0  0
 10  8  1  0  0  0  0
 11 12  1  0  0  0  0
 12 13  1  0  0  0  0
 13  8  1  0  0  0  0
 14 11  1  0  0  0  0
 14 10  2  0  0  0  0
 15  1  1  0  0  0  0
 16 27  1  0  0  0  0
 16 21  1  0  0  0  0
 17 19  1  6  0  0  0
 17 18  1  0  0  0  0
 18 25  1  0  0  0  0
 18 26  1  0  0  0  0
 20 23  1  6  0  0  0
 20 22  1  0  0  0  0
 22 15  1  1  0  0  0
 22 18  1  0  0  0  0
 24 21  1  6  0  0  0
 24 20  1  0  0  0  0
 24 17  1  0  0  0  0
 27 23  1  0  0  0  0
M  END
>  <MODEL>
3

>  <REMARK>
 VINA RESULT:      -7.2      2.490      6.973
  Name = 
  4 active torsions:
  status: ('A' for Active; 'I' for Inactive)
    1  A    between atoms: O_7  and  C_22
    2  A    between atoms: O_7  and  C_25
    3  A    between atoms: C_9  and  N_12
    4  A    between atoms: C_17  and  C_25
                            x       y       z     vdW  Elec       q    Type
                         _______ _______ _______ _____ _____    ______ ____

>  <TORSDO>
F 4

$$$$
=
 OpenBabel11072412233D

 27 30  0  0  1  0  0  0  0  0999 V2000
  161.2100  205.9050  151.4420 O   0  0  0  0  0  0  0  0  0  0  0  0
  162.3770  208.0360  151.5480 C   0  0  2  0  0  3  0  0  0  0  0  0
  162.7880  209.2330  150.6750 C   0  0  0  0  0  2  0  0  0  0  0  0
  161.7360  209.6220  149.8230 O   0  0  0  0  0  0  0  0  0  0  0  0
  160.9280  207.3740  149.5690 C   0  0  0  0  0  2  0  0  0  0  0  0
  161.5610  208.5860  148.8870 C   0  0  0  0  0  2  0  0  0  0  0  0
  161.8600  206.8760  150.6730 C   0  0  2  0  0  3  0  0  0  0  0  0
  159.7370  209.0820  154.6870 N   0  0  0  0  0  2  0  0  0  0  0  0
  160.2990  206.9530  155.8090 N   0  0  0  0  0  1  0  0  0  0  0  0
  160.4700  207.8520  154.7220 C   0  0  0  0  0  0  0  0  0  0  0  0
  161.4320  208.4200  152.5990 N   0  0  0  0  0  0  0  0  0  0  0  0
  160.4530  209.4930  152.3910 C   0  0  0  0  0  2  0  0  0  0  0  0
  160.0780  210.1270  153.7260 C   0  0  0  0  0  2  0  0  0  0  0  0
  161.3010  207.5460  153.7290 C   0  0  0  0  0  3  0  0  0  0  0  0
  160.4170  205.1910  150.5410 C   0  0  0  0  0  2  0  0  0  0  0  0
  161.5490  202.7480  145.9580 C   0  0  0  0  0  2  0  0  0  0  0  0
  160.6980  201.6270  149.5780 C   0  0  1  0  0  3  0  0  0  0  0  0
  160.8840  202.6690  150.6960 C   0  0  0  0  0  0  0  0  0  0  0  0
  159.3420  201.3380  149.3910 O   0  0  0  0  0  1  0  0  0  0  0  0
  160.8850  203.7640  148.5450 C   0  0  1  0  0  3  0  0  0  0  0  0
  160.8210  201.8630  146.9810 C   0  0  0  0  0  2  0  0  0  0  0  0
  161.2080  204.0080  149.9970 C   0  0  1  0  0  3  0  0  0  0  0  0
  161.6800  204.5750  147.5350 C   0  0  0  0  0  2  0  0  0  0  0  0
  161.2570  202.3280  148.3580 C   0  0  2  0  0  3  0  0  0  0  0  0
  161.9580  202.3040  151.4850 F   0  0  0  0  0  0  0  0  0  0  0  0
  159.7490  202.7520  151.4910 F   0  0  0  0  0  0  0  0  0  0  0  0
  161.2700  204.1760  146.1820 N   0  0  0  0  0  2  0  0  0  0  0  0
  2  3  1  6  0  0  0
  2 11  1  0  0  0  0
  4  3  1  0  0  0  0
  5  7  1  0  0  0  0
  6  5  1  0  0  0  0
  6  4  1  0  0  0  0
  7  1  1  1  0  0  0
  7  2  1  0  0  0  0
  8 10  1  0  0  0  0
 10  9  1  0  0  0  0
 11 14  1  0  0  0  0
 12 11  1  0  0  0  0
 12 13  1  0  0  0  0
 13  8  1  0  0  0  0
 14 10  2  0  0  0  0
 15  1  1  0  0  0  0
 16 27  1  0  0  0  0
 16 21  1  0  0  0  0
 17 19  1  6  0  0  0
 17 18  1  0  0  0  0
 18 25  1  0  0  0  0
 18 26  1  0  0  0  0
 20 23  1  6  0  0  0
 20 22  1  0  0  0  0
 22 15  1  1  0  0  0
 22 18  1  0  0  0  0
 24 21  1  6  0  0  0
 24 20  1  0  0  0  0
 24 17  1  0  0  0  0
 27 23  1  0  0  0  0
M  END
>  <MODEL>
4

>  <REMARK>
 VINA RESULT:      -7.0      2.870      7.355
  Name = 
  4 active torsions:
  status: ('A' for Active; 'I' for Inactive)
    1  A    between atoms: O_7  and  C_22
    2  A    between atoms: O_7  and  C_25
    3  A    between atoms: C_9  and  N_12
    4  A    between atoms: C_17  and  C_25
                            x       y       z     vdW  Elec       q    Type
                         _______ _______ _______ _____ _____    ______ ____

>  <TORSDO>
F 4

$$$$
=
 OpenBabel11072412233D

 27 30  0  0  1  0  0  0  0  0999 V2000
  161.1720  206.7870  152.2540 O   0  0  0  0  0  0  0  0  0  0  0  0
  162.1810  208.7260  153.3200 C   0  0  2  0  0  3  0  0  0  0  0  0
  162.5140  210.2060  153.0680 C   0  0  0  0  0  2  0  0  0  0  0  0
  161.4450  210.8630  152.4280 O   0  0  0  0  0  0  0  0  0  0  0  0
  160.8030  208.9040  151.1930 C   0  0  0  0  0  2  0  0  0  0  0  0
  161.3540  210.3290  151.1300 C   0  0  0  0  0  2  0  0  0  0  0  0
  161.7570  208.0330  152.0080 C   0  0  2  0  0  3  0  0  0  0  0  0
  159.2600  208.3360  156.3580 N   0  0  0  0  0  2  0  0  0  0  0  0
  158.7600  210.7460  156.1240 N   0  0  0  0  0  1  0  0  0  0  0  0
  159.4950  209.5980  155.7220 C   0  0  0  0  0  0  0  0  0  0  0  0
  161.2010  208.5570  154.3950 N   0  0  0  0  0  0  0  0  0  0  0  0
  161.2090  207.3680  155.2560 C   0  0  0  0  0  2  0  0  0  0  0  0
  159.8100  207.1050  155.7990 C   0  0  0  0  0  2  0  0  0  0  0  0
  160.4130  209.6970  154.7630 C   0  0  0  0  0  3  0  0  0  0  0  0
  161.8950  205.8800  151.4760 C   0  0  0  0  0  2  0  0  0  0  0  0
  160.6770  201.1500  149.3780 C   0  0  0  0  0  2  0  0  0  0  0  0
  161.1410  204.7620  148.0270 C   0  0  1  0  0  3  0  0  0  0  0  0
  161.0490  205.9100  149.0500 C   0  0  0  0  0  0  0  0  0  0  0  0
  162.4470  204.6360  147.5430 O   0  0  0  0  0  1  0  0  0  0  0  0
  161.3350  203.8070  150.2000 C   0  0  1  0  0  3  0  0  0  0  0  0
  161.2050  202.1740  148.3610 C   0  0  0  0  0  2  0  0  0  0  0  0
  160.9690  205.2490  150.4440 C   0  0  1  0  0  3  0  0  0  0  0  0
  160.7290  202.7890  151.1530 C   0  0  0  0  0  2  0  0  0  0  0  0
  160.7640  203.5440  148.8420 C   0  0  2  0  0  3  0  0  0  0  0  0
  159.8880  206.6260  148.8270 F   0  0  0  0  0  0  0  0  0  0  0  0
  162.1350  206.7650  148.9350 F   0  0  0  0  0  0  0  0  0  0  0  0
  161.1520  201.4460  150.7390 N   0  0  0  0  0  2  0  0  0  0  0  0
  2  3  1  6  0  0  0
  2 11  1  0  0  0  0
  4  3  1  0  0  0  0
  5  7  1  0  0  0  0
  6  5  1  0  0  0  0
  6  4  1  0  0  0  0
  7  1  1  1  0  0  0
  7  2  1  0  0  0  0
 10  9  1  0  0  0  0
 10  8  1  0  0  0  0
 11 14  1  0  0  0  0
 11 12  1  0  0  0  0
 12 13  1  0  0  0  0
 13  8  1  0  0  0  0
 14 10  2  0  0  0  0
 15  1  1  0  0  0  0
 16 27  1  0  0  0  0
 17 19  1  1  0  0  0
 17 24  1  0  0  0  0
 17 18  1  0  0  0  0
 18 22  1  0  0  0  0
 20 22  1  0  0  0  0
 20 23  1  1  0  0  0
 21 16  1  0  0  0  0
 22 15  1  1  0  0  0
 24 21  1  6  0  0  0
 24 20  1  0  0  0  0
 25 18  1  0  0  0  0
 26 18  1  0  0  0  0
 27 23  1  0  0  0  0
M  END
>  <MODEL>
5

>  <REMARK>
 VINA RESULT:      -6.7      2.572      7.583
  Name = 
  4 active torsions:
  status: ('A' for Active; 'I' for Inactive)
    1  A    between atoms: O_7  and  C_22
    2  A    between atoms: O_7  and  C_25
    3  A    between atoms: C_9  and  N_12
    4  A    between atoms: C_17  and  C_25
                            x       y       z     vdW  Elec       q    Type
                         _______ _______ _______ _____ _____    ______ ____

>  <TORSDO>
F 4

$$$$
=
 OpenBabel11072412233D

 27 30  0  0  1  0  0  0  0  0999 V2000
  161.1380  209.3900  152.6560 O   0  0  0  0  0  0  0  0  0  0  0  0
  159.8970  210.1850  154.5910 C   0  0  2  0  0  3  0  0  0  0  0  0
  160.0920  210.6500  156.0440 C   0  0  0  0  0  2  0  0  0  0  0  0
  161.2060  211.5050  156.1560 O   0  0  0  0  0  0  0  0  0  0  0  0
  162.4260  210.3630  154.4290 C   0  0  0  0  0  2  0  0  0  0  0  0
  162.3490  210.7220  155.9130 C   0  0  0  0  0  2  0  0  0  0  0  0
  161.1920  209.5490  154.0450 C   0  0  2  0  0  3  0  0  0  0  0  0
  158.3550  213.3440  152.2340 N   0  0  0  0  0  2  0  0  0  0  0  0
  156.3530  213.3880  153.6830 N   0  0  0  0  0  1  0  0  0  0  0  0
  157.6240  212.8420  153.3580 C   0  0  0  0  0  0  0  0  0  0  0  0
  159.3850  211.2560  153.7340 N   0  0  0  0  0  0  0  0  0  0  0  0
  159.9680  211.5230  152.4140 C   0  0  0  0  0  2  0  0  0  0  0  0
  159.7550  212.9830  152.0320 C   0  0  0  0  0  2  0  0  0  0  0  0
  158.1310  211.8530  154.0910 C   0  0  0  0  0  3  0  0  0  0  0  0
  160.4620  208.1860  152.4490 C   0  0  0  0  0  2  0  0  0  0  0  0
  161.1950  205.1390  148.1550 C   0  0  0  0  0  2  0  0  0  0  0  0
  161.5950  204.6900  151.9920 C   0  0  1  0  0  3  0  0  0  0  0  0
  161.7050  205.9720  152.8400 C   0  0  0  0  0  0  0  0  0  0  0  0
  160.3900  204.0290  152.2500 O   0  0  0  0  0  1  0  0  0  0  0  0
  160.8700  206.5120  150.6400 C   0  0  1  0  0  3  0  0  0  0  0  0
  161.0330  204.3530  149.4650 C   0  0  0  0  0  2  0  0  0  0  0  0
  161.4300  207.1540  151.8840 C   0  0  1  0  0  3  0  0  0  0  0  0
  161.1200  207.2470  149.3340 C   0  0  0  0  0  2  0  0  0  0  0  0
  161.6120  205.2150  150.5720 C   0  0  2  0  0  3  0  0  0  0  0  0
  162.9920  206.0830  153.3310 F   0  0  0  0  0  0  0  0  0  0  0  0
  160.8170  205.9390  153.9060 F   0  0  0  0  0  0  0  0  0  0  0  0
  160.5500  206.4590  148.2330 N   0  0  0  0  0  2  0  0  0  0  0  0
  2 11  1  6  0  0  0
  2  3  1  0  0  0  0
  3  4  1  0  0  0  0
  5  6  1  0  0  0  0
  6  4  1  0  0  0  0
  7  1  1  6  0  0  0
  7  5  1  0  0  0  0
  7  2  1  0  0  0  0
  8 10  1  0  0  0  0
 10  9  1  0  0  0  0
 10 14  2  0  0  0  0
 11 14  1  0  0  0  0
 12 11  1  0  0  0  0
 13  8  1  0  0  0  0
 13 12  1  0  0  0  0
 15  1  1  0  0  0  0
 16 27  1  0  0  0  0
 16 21  1  0  0  0  0
 17 19  1  1  0  0  0
 17 18  1  0  0  0  0
 18 25  1  0  0  0  0
 18 26  1  0  0  0  0
 20 23  1  6  0  0  0
 20 22  1  0  0  0  0
 22 15  1  1  0  0  0
 22 18  1  0  0  0  0
 24 21  1  6  0  0  0
 24 20  1  0  0  0  0
 24 17  1  0  0  0  0
 27 23  1  0  0  0  0
M  END
>  <MODEL>
6

>  <REMARK>
 VINA RESULT:      -6.6      2.275      7.646
  Name = 
  4 active torsions:
  status: ('A' for Active; 'I' for Inactive)
    1  A    between atoms: O_7  and  C_22
    2  A    between atoms: O_7  and  C_25
    3  A    between atoms: C_9  and  N_12
    4  A    between atoms: C_17  and  C_25
                            x       y       z     vdW  Elec       q    Type
                         _______ _______ _______ _____ _____    ______ ____

>  <TORSDO>
F 4

$$$$
=
 OpenBabel11072412233D

 27 30  0  0  1  0  0  0  0  0999 V2000
  161.3060  205.7040  151.7800 O   0  0  0  0  0  0  0  0  0  0  0  0
  162.4020  207.8630  152.0090 C   0  0  2  0  0  3  0  0  0  0  0  0
  162.7160  209.1480  151.2250 C   0  0  0  0  0  2  0  0  0  0  0  0
  161.6000  209.5690  150.4770 O   0  0  0  0  0  0  0  0  0  0  0  0
  160.8550  207.3210  150.0680 C   0  0  0  0  0  2  0  0  0  0  0  0
  161.4020  208.6140  149.4630 C   0  0  0  0  0  2  0  0  0  0  0  0
  161.8710  206.7650  151.0640 C   0  0  2  0  0  3  0  0  0  0  0  0
  159.7520  208.6800  155.2060 N   0  0  0  0  0  2  0  0  0  0  0  0
  159.5560  211.0050  154.3900 N   0  0  0  0  0  1  0  0  0  0  0  0
  160.0920  209.6960  154.2550 C   0  0  0  0  0  0  0  0  0  0  0  0
  161.5130  208.1140  153.1450 N   0  0  0  0  0  0  0  0  0  0  0  0
  161.4440  207.1860  154.2810 C   0  0  0  0  0  2  0  0  0  0  0  0
  160.0780  207.2810  154.9520 C   0  0  0  0  0  2  0  0  0  0  0  0
  160.9210  209.4160  153.2520 C   0  0  0  0  0  3  0  0  0  0  0  0
  160.5000  205.0280  150.8610 C   0  0  0  0  0  2  0  0  0  0  0  0
  161.4630  202.7570  146.1510 C   0  0  0  0  0  2  0  0  0  0  0  0
  160.8200  201.5030  149.7710 C   0  0  1  0  0  3  0  0  0  0  0  0
  161.0360  202.5160  150.9110 C   0  0  0  0  0  0  0  0  0  0  0  0
  159.4640  201.1850  149.6420 O   0  0  0  0  0  1  0  0  0  0  0  0
  160.9040  203.6760  148.7990 C   0  0  1  0  0  3  0  0  0  0  0  0
  160.8080  201.8220  147.1800 C   0  0  0  0  0  2  0  0  0  0  0  0
  161.2920  203.8830  150.2410 C   0  0  1  0  0  3  0  0  0  0  0  0
  161.6280  204.5370  147.7770 C   0  0  0  0  0  2  0  0  0  0  0  0
  161.3010  202.2560  148.5480 C   0  0  2  0  0  3  0  0  0  0  0  0
  162.1560  202.1540  151.6350 F   0  0  0  0  0  0  0  0  0  0  0  0
  159.9400  202.5440  151.7630 F   0  0  0  0  0  0  0  0  0  0  0  0
  161.1610  204.1690  146.4350 N   0  0  0  0  0  2  0  0  0  0  0  0
  2  3  1  6  0  0  0
  2 11  1  0  0  0  0
  4  3  1  0  0  0  0
  5  7  1  0  0  0  0
  6  5  1  0  0  0  0
  6  4  1  0  0  0  0
  7  1  1  1  0  0  0
  7  2  1  0  0  0  0
 10  9  1  0  0  0  0
 10  8  1  0  0  0  0
 11 14  1  0  0  0  0
 11 12  1  0  0  0  0
 12 13  1  0  0  0  0
 13  8  1  0  0  0  0
 14 10  2  0  0  0  0
 15  1  1  0  0  0  0
 16 27  1  0  0  0  0
 16 21  1  0  0  0  0
 17 19  1  6  0  0  0
 17 18  1  0  0  0  0
 18 25  1  0  0  0  0
 18 26  1  0  0  0  0
 20 23  1  6  0  0  0
 20 22  1  0  0  0  0
 22 15  1  1  0  0  0
 22 18  1  0  0  0  0
 24 21  1  6  0  0  0
 24 20  1  0  0  0  0
 24 17  1  0  0  0  0
 27 23  1  0  0  0  0
M  END
>  <MODEL>
7

>  <REMARK>
 VINA RESULT:      -6.6      2.716      7.446
  Name = 
  4 active torsions:
  status: ('A' for Active; 'I' for Inactive)
    1  A    between atoms: O_7  and  C_22
    2  A    between atoms: O_7  and  C_25
    3  A    between atoms: C_9  and  N_12
    4  A    between atoms: C_17  and  C_25
                            x       y       z     vdW  Elec       q    Type
                         _______ _______ _______ _____ _____    ______ ____

>  <TORSDO>
F 4

$$$$
=
 OpenBabel11072412233D

 27 30  0  0  1  0  0  0  0  0999 V2000
  161.1910  206.9250  151.9710 O   0  0  0  0  0  0  0  0  0  0  0  0
  162.2730  208.9140  152.8590 C   0  0  2  0  0  3  0  0  0  0  0  0
  162.7560  210.3130  152.4440 C   0  0  0  0  0  2  0  0  0  0  0  0
  161.8080  210.9520  151.6210 O   0  0  0  0  0  0  0  0  0  0  0  0
  161.1040  208.8920  150.6040 C   0  0  0  0  0  2  0  0  0  0  0  0
  161.7820  210.2470  150.4030 C   0  0  0  0  0  2  0  0  0  0  0  0
  161.9030  208.0760  151.6180 C   0  0  2  0  0  3  0  0  0  0  0  0
  159.2460  209.0260  155.8140 N   0  0  0  0  0  2  0  0  0  0  0  0
  160.0950  206.8810  156.7030 N   0  0  0  0  0  1  0  0  0  0  0  0
  160.1850  207.9460  155.7660 C   0  0  0  0  0  0  0  0  0  0  0  0
  161.1940  208.9740  153.8470 N   0  0  0  0  0  0  0  0  0  0  0  0
  160.0550  209.8840  153.6790 C   0  0  0  0  0  2  0  0  0  0  0  0
  159.4660  210.2420  155.0390 C   0  0  0  0  0  2  0  0  0  0  0  0
  161.1350  207.9340  154.8330 C   0  0  0  0  0  3  0  0  0  0  0  0
  161.8700  205.8690  151.3600 C   0  0  0  0  0  2  0  0  0  0  0  0
  160.6640  201.0380  149.4970 C   0  0  0  0  0  2  0  0  0  0  0  0
  161.1230  204.5800  147.9700 C   0  0  1  0  0  3  0  0  0  0  0  0
  161.0270  205.7770  148.9350 C   0  0  0  0  0  0  0  0  0  0  0  0
  162.4300  204.4320  147.4930 O   0  0  0  0  0  1  0  0  0  0  0  0
  161.3160  203.7340  150.1880 C   0  0  1  0  0  3  0  0  0  0  0  0
  161.1910  202.0110  148.4320 C   0  0  0  0  0  2  0  0  0  0  0  0
  160.9470  205.1850  150.3590 C   0  0  1  0  0  3  0  0  0  0  0  0
  160.7110  202.7640  151.1890 C   0  0  0  0  0  2  0  0  0  0  0  0
  160.7480  203.4030  148.8440 C   0  0  2  0  0  3  0  0  0  0  0  0
  159.8660  206.4790  148.6750 F   0  0  0  0  0  0  0  0  0  0  0  0
  162.1130  206.6270  148.7780 F   0  0  0  0  0  0  0  0  0  0  0  0
  161.1370  201.4020  150.8420 N   0  0  0  0  0  2  0  0  0  0  0  0
  2  3  1  6  0  0  0
  2 11  1  0  0  0  0
  4  3  1  0  0  0  0
  5  7  1  0  0  0  0
  6  5  1  0  0  0  0
  6  4  1  0  0  0  0
  7  1  1  1  0  0  0
  7  2  1  0  0  0  0
 10  8  1  0  0  0  0
 10  9  1  0  0  0  0
 11 14  1  0  0  0  0
 12 11  1  0  0  0  0
 12 13  1  0  0  0  0
 13  8  1  0  0  0  0
 14 10  2  0  0  0  0
 15  1  1  0  0  0  0
 16 27  1  0  0  0  0
 17 19  1  1  0  0  0
 17 24  1  0  0  0  0
 17 18  1  0  0  0  0
 18 22  1  0  0  0  0
 20 22  1  0  0  0  0
 20 23  1  1  0  0  0
 21 16  1  0  0  0  0
 22 15  1  1  0  0  0
 24 21  1  6  0  0  0
 24 20  1  0  0  0  0
 25 18  1  0  0  0  0
 26 18  1  0  0  0  0
 27 23  1  0  0  0  0
M  END
>  <MODEL>
8

>  <REMARK>
 VINA RESULT:      -6.5      2.746      7.453
  Name = 
  4 active torsions:
  status: ('A' for Active; 'I' for Inactive)
    1  A    between atoms: O_7  and  C_22
    2  A    between atoms: O_7  and  C_25
    3  A    between atoms: C_9  and  N_12
    4  A    between atoms: C_17  and  C_25
                            x       y       z     vdW  Elec       q    Type
                         _______ _______ _______ _____ _____    ______ ____

>  <TORSDO>
F 4

$$$$
=
 OpenBabel11072412233D

 27 30  0  0  1  0  0  0  0  0999 V2000
  161.2020  205.0470  149.2210 O   0  0  0  0  0  0  0  0  0  0  0  0
  161.9570  202.8260  148.5780 C   0  0  2  0  0  3  0  0  0  0  0  0
  161.7570  201.3380  148.9120 C   0  0  0  0  0  2  0  0  0  0  0  0
  160.3920  201.0410  149.0970 O   0  0  0  0  0  0  0  0  0  0  0  0
  159.9090  203.1990  150.0350 C   0  0  0  0  0  2  0  0  0  0  0  0
  159.9870  201.6920  150.2760 C   0  0  0  0  0  2  0  0  0  0  0  0
  161.2930  203.7180  149.6480 C   0  0  2  0  0  3  0  0  0  0  0  0
  160.5740  203.6740  144.6690 N   0  0  0  0  0  2  0  0  0  0  0  0
  159.7070  201.3640  144.5230 N   0  0  0  0  0  1  0  0  0  0  0  0
  160.3650  202.3850  145.2590 C   0  0  0  0  0  0  0  0  0  0  0  0
  161.5200  203.1490  147.2180 N   0  0  0  0  0  0  0  0  0  0  0  0
  162.0300  204.3310  146.5130 C   0  0  0  0  0  2  0  0  0  0  0  0
  161.0120  204.8040  145.4810 C   0  0  0  0  0  2  0  0  0  0  0  0
  160.8010  202.1420  146.4930 C   0  0  0  0  0  3  0  0  0  0  0  0
  160.5400  205.7190  150.2500 C   0  0  0  0  0  2  0  0  0  0  0  0
  161.2090  207.7980  155.0970 C   0  0  0  0  0  2  0  0  0  0  0  0
  161.9420  208.9280  151.4540 C   0  0  1  0  0  3  0  0  0  0  0  0
  162.0020  207.8280  150.3780 C   0  0  0  0  0  0  0  0  0  0  0  0
  160.8240  209.7470  151.2630 O   0  0  0  0  0  1  0  0  0  0  0  0
  160.9550  206.9660  152.3750 C   0  0  1  0  0  3  0  0  0  0  0  0
  161.2190  208.8320  153.9610 C   0  0  0  0  0  2  0  0  0  0  0  0
  161.5500  206.5200  151.0630 C   0  0  1  0  0  3  0  0  0  0  0  0
  161.0370  205.9730  153.5220 C   0  0  0  0  0  2  0  0  0  0  0  0
  161.8030  208.1430  152.7410 C   0  0  2  0  0  3  0  0  0  0  0  0
  163.3080  207.6810  149.9500 F   0  0  0  0  0  0  0  0  0  0  0  0
  161.2060  208.1550  149.2900 F   0  0  0  0  0  0  0  0  0  0  0  0
  160.4570  206.5900  154.7220 N   0  0  0  0  0  2  0  0  0  0  0  0
  1 15  1  0  0  0  0
  2 11  1  6  0  0  0
  2  3  1  0  0  0  0
  2  7  1  0  0  0  0
  3  4  1  0  0  0  0
  4  6  1  0  0  0  0
  5  6  1  0  0  0  0
  7  1  1  6  0  0  0
  7  5  1  0  0  0  0
  8 10  1  0  0  0  0
  8 13  1  0  0  0  0
  9 10  1  0  0  0  0
 10 14  2  0  0  0  0
 12 11  1  0  0  0  0
 13 12  1  0  0  0  0
 14 11  1  0  0  0  0
 17 19  1  6  0  0  0
 17 24  1  0  0  0  0
 18 22  1  0  0  0  0
 18 17  1  0  0  0  0
 20 24  1  0  0  0  0
 20 23  1  1  0  0  0
 21 16  1  0  0  0  0
 22 15  1  6  0  0  0
 22 20  1  0  0  0  0
 23 27  1  0  0  0  0
 24 21  1  1  0  0  0
 25 18  1  0  0  0  0
 26 18  1  0  0  0  0
 27 16  1  0  0  0  0
M  END
>  <MODEL>
9

>  <REMARK>
 VINA RESULT:      -6.4      2.894      4.645
  Name = 
  4 active torsions:
  status: ('A' for Active; 'I' for Inactive)
    1  A    between atoms: O_7  and  C_22
    2  A    between atoms: O_7  and  C_25
    3  A    between atoms: C_9  and  N_12
    4  A    between atoms: C_17  and  C_25
                            x       y       z     vdW  Elec       q    Type
                         _______ _______ _______ _____ _____    ______ ____

>  <TORSDO>
F 4

$$$$
