=
 OpenBabel11072412373D

 31 35  0  0  1  0  0  0  0  0999 V2000
  161.3300  208.7030  152.8610 C   0  0  0  0  0  0  0  0  0  0  0  0
  160.9520  208.5200  154.1990 C   0  0  0  0  0  3  0  0  0  0  0  0
  161.0310  206.1190  153.9000 C   0  0  0  0  0  3  0  0  0  0  0  0
  161.4160  206.2960  152.5660 C   0  0  0  0  0  0  0  0  0  0  0  0
  161.5620  207.5880  152.0480 C   0  0  0  0  0  3  0  0  0  0  0  0
  160.8010  207.2300  154.7150 C   0  0  0  0  0  3  0  0  0  0  0  0
  161.8090  209.9930  150.9250 O   0  0  0  0  0  1  0  0  0  0  0  0
  161.5050  210.0720  152.2870 C   0  0  1  0  0  3  0  0  0  0  0  0
  160.2710  210.8910  152.4920 C   0  0  0  0  0  3  0  0  0  0  0  0
  160.3240  211.9820  153.1600 N   0  0  0  0  0  0  0  0  0  0  0  0
  159.1330  212.7640  153.3540 C   0  0  0  0  0  2  0  0  0  0  0  0
  156.9460  213.0870  155.8340 C   0  0  0  0  0  0  0  0  0  0  0  0
  157.5000  210.9590  155.1310 C   0  0  0  0  0  2  0  0  0  0  0  0
  158.0350  212.2600  155.5070 N   0  0  0  0  0  0  0  0  0  0  0  0
  156.0500  211.1130  155.4850 C   0  0  0  0  0  0  0  0  0  0  0  0
  158.3750  214.4520  154.9410 N   0  0  0  0  0  2  0  0  0  0  0  0
  155.2120  210.1780  155.4080 O   0  0  0  0  0  0  0  0  0  0  0  0
  157.0950  214.3170  155.4930 N   0  0  0  0  0  0  0  0  0  0  0  0
  158.9900  213.1300  154.8260 C   0  0  2  0  0  3  0  0  0  0  0  0
  155.6920  212.4320  155.8940 N   0  0  0  0  0  2  0  0  0  0  0  0
  161.6460  205.1130  151.6910 C   0  0  0  0  0  2  0  0  0  0  0  0
  160.3850  202.2110  149.1450 C   0  0  1  0  0  3  0  0  0  0  0  0
  161.5330  203.4560  145.6500 C   0  0  0  0  0  1  0  0  0  0  0  0
  161.4490  204.4500  147.8820 C   0  0  0  0  0  3  0  0  0  0  0  0
  161.2230  204.3180  149.3590 C   0  0  1  0  0  0  0  0  0  0  0  0
  160.1510  205.1010  149.8200 O   0  0  0  0  0  0  0  0  0  0  0  0
  160.2420  200.9760  149.7470 F   0  0  0  0  0  0  0  0  0  0  0  0
  161.2270  203.0250  149.9330 O   0  0  0  0  0  0  0  0  0  0  0  0
  160.9610  202.0300  147.7340 C   0  0  0  0  0  2  0  0  0  0  0  0
  161.2820  203.3660  147.1140 C   0  0  0  0  0  0  0  0  0  0  0  0
  161.4450  205.4950  150.2320 C   0  0  1  0  0  3  0  0  0  0  0  0
  1  2  1  0  0  0  0
  2  6  2  0  0  0  0
  3  6  1  0  0  0  0
  4  3  2  0  0  0  0
  5  4  1  0  0  0  0
  5  1  2  0  0  0  0
  8  7  1  6  0  0  0
  8  9  1  0  0  0  0
  8  1  1  0  0  0  0
  9 10  2  0  0  0  0
 10 11  1  0  0  0  0
 12 20  1  0  0  0  0
 13 15  1  0  0  0  0
 13 14  1  0  0  0  0
 14 12  1  0  0  0  0
 15 20  1  0  0  0  0
 16 18  1  0  0  0  0
 17 15  2  0  0  0  0
 18 12  2  0  0  0  0
 19 11  1  6  0  0  0
 19 16  1  0  0  0  0
 19 14  1  0  0  0  0
 21  4  1  0  0  0  0
 22 27  1  1  0  0  0
 22 28  1  0  0  0  0
 23 30  1  0  0  0  0
 25 24  1  6  0  0  0
 25 26  1  0  0  0  0
 25 28  1  0  0  0  0
 25 31  1  0  0  0  0
 26 31  1  0  0  0  0
 29 22  1  0  0  0  0
 30 29  1  0  0  0  0
 30 24  2  0  0  0  0
 31 21  1  1  0  0  0
M  END
>  <MODEL>
1

>  <REMARK>
 VINA RESULT:      -9.0      0.000      0.000
  Name = 
  6 active torsions:
  status: ('A' for Active; 'I' for Inactive)
    1  A    between atoms: C_10  and  C_26
    2  A    between atoms: C_11  and  C_26
    3  A    between atoms: C_12  and  C_20
    4  A    between atoms: C_12  and  C_31
    5  A    between atoms: C_15  and  C_24
    6  A    between atoms: C_15  and  N_27
                            x       y       z     vdW  Elec       q    Type
                         _______ _______ _______ _____ _____    ______ ____

>  <TORSDO>
F 6

$$$$
=
 OpenBabel11072412373D

 31 35  0  0  1  0  0  0  0  0999 V2000
  161.1570  208.8480  153.1530 C   0  0  0  0  0  0  0  0  0  0  0  0
  160.7750  208.6520  154.4880 C   0  0  0  0  0  3  0  0  0  0  0  0
  160.9110  206.2540  154.1830 C   0  0  0  0  0  3  0  0  0  0  0  0
  161.3010  206.4440  152.8520 C   0  0  0  0  0  0  0  0  0  0  0  0
  161.4200  207.7400  152.3380 C   0  0  0  0  0  3  0  0  0  0  0  0
  160.6510  207.3570  155.0000 C   0  0  0  0  0  3  0  0  0  0  0  0
  161.9960  210.1750  151.3710 O   0  0  0  0  0  1  0  0  0  0  0  0
  161.3040  210.2230  152.5840 C   0  0  1  0  0  3  0  0  0  0  0  0
  159.9640  210.8570  152.3880 C   0  0  0  0  0  3  0  0  0  0  0  0
  159.8770  212.0820  152.0250 N   0  0  0  0  0  0  0  0  0  0  0  0
  158.5860  212.6860  151.8390 C   0  0  0  0  0  2  0  0  0  0  0  0
  159.2110  214.1560  148.9260 C   0  0  0  0  0  0  0  0  0  0  0  0
  157.1600  213.1410  149.2230 C   0  0  0  0  0  2  0  0  0  0  0  0
  158.1360  214.0390  149.8230 N   0  0  0  0  0  0  0  0  0  0  0  0
  157.7220  212.9580  147.8440 C   0  0  0  0  0  0  0  0  0  0  0  0
  160.1560  214.2810  150.8740 N   0  0  0  0  0  2  0  0  0  0  0  0
  157.1390  212.3150  146.9340 O   0  0  0  0  0  0  0  0  0  0  0  0
  160.3620  214.2560  149.4890 N   0  0  0  0  0  0  0  0  0  0  0  0
  158.7410  214.0370  151.1530 C   0  0  2  0  0  3  0  0  0  0  0  0
  159.0040  213.5570  147.6590 N   0  0  0  0  0  2  0  0  0  0  0  0
  161.5650  205.2700  151.9760 C   0  0  0  0  0  2  0  0  0  0  0  0
  160.4090  202.3720  149.3750 C   0  0  1  0  0  3  0  0  0  0  0  0
  161.6370  203.6580  145.9210 C   0  0  0  0  0  1  0  0  0  0  0  0
  161.4800  204.6330  148.1570 C   0  0  0  0  0  3  0  0  0  0  0  0
  161.2150  204.4870  149.6270 C   0  0  1  0  0  0  0  0  0  0  0  0
  160.1220  205.2540  150.0640 O   0  0  0  0  0  0  0  0  0  0  0  0
  160.2640  201.1310  149.9640 F   0  0  0  0  0  0  0  0  0  0  0  0
  161.2190  203.1910  150.1910 O   0  0  0  0  0  0  0  0  0  0  0  0
  161.0260  202.2080  147.9790 C   0  0  0  0  0  2  0  0  0  0  0  0
  161.3470  203.5530  147.3770 C   0  0  0  0  0  0  0  0  0  0  0  0
  161.3990  205.6600  150.5140 C   0  0  1  0  0  3  0  0  0  0  0  0
  1  2  1  0  0  0  0
  2  6  2  0  0  0  0
  3  6  1  0  0  0  0
  4  3  2  0  0  0  0
  5  4  1  0  0  0  0
  5  1  2  0  0  0  0
  8  7  1  6  0  0  0
  8  1  1  0  0  0  0
  9  8  1  0  0  0  0
 10  9  2  0  0  0  0
 11 10  1  0  0  0  0
 12 18  2  0  0  0  0
 12 14  1  0  0  0  0
 13 14  1  0  0  0  0
 14 19  1  0  0  0  0
 15 13  1  0  0  0  0
 16 19  1  0  0  0  0
 17 15  2  0  0  0  0
 18 16  1  0  0  0  0
 19 11  1  6  0  0  0
 20 15  1  0  0  0  0
 20 12  1  0  0  0  0
 21  4  1  0  0  0  0
 22 27  1  1  0  0  0
 22 28  1  0  0  0  0
 23 30  1  0  0  0  0
 25 24  1  6  0  0  0
 25 26  1  0  0  0  0
 25 28  1  0  0  0  0
 25 31  1  0  0  0  0
 26 31  1  0  0  0  0
 29 22  1  0  0  0  0
 30 29  1  0  0  0  0
 30 24  2  0  0  0  0
 31 21  1  1  0  0  0
M  END
>  <MODEL>
2

>  <REMARK>
 VINA RESULT:      -8.9      2.676      3.773
  Name = 
  6 active torsions:
  status: ('A' for Active; 'I' for Inactive)
    1  A    between atoms: C_10  and  C_26
    2  A    between atoms: C_11  and  C_26
    3  A    between atoms: C_12  and  C_20
    4  A    between atoms: C_12  and  C_31
    5  A    between atoms: C_15  and  C_24
    6  A    between atoms: C_15  and  N_27
                            x       y       z     vdW  Elec       q    Type
                         _______ _______ _______ _____ _____    ______ ____

>  <TORSDO>
F 6

$$$$
=
 OpenBabel11072412373D

 31 35  0  0  1  0  0  0  0  0999 V2000
  161.0800  208.5810  153.0050 C   0  0  0  0  0  0  0  0  0  0  0  0
  160.8760  208.3300  154.3700 C   0  0  0  0  0  3  0  0  0  0  0  0
  161.0690  205.9500  153.9690 C   0  0  0  0  0  3  0  0  0  0  0  0
  161.2820  206.1960  152.6070 C   0  0  0  0  0  0  0  0  0  0  0  0
  161.2830  207.5100  152.1270 C   0  0  0  0  0  3  0  0  0  0  0  0
  160.8690  207.0170  154.8490 C   0  0  0  0  0  3  0  0  0  0  0  0
  161.8200  210.8150  153.3240 O   0  0  0  0  0  1  0  0  0  0  0  0
  161.1000  209.9770  152.4700 C   0  0  1  0  0  3  0  0  0  0  0  0
  161.6940  210.0060  151.0990 C   0  0  0  0  0  3  0  0  0  0  0  0
  161.4510  210.9850  150.3100 N   0  0  0  0  0  0  0  0  0  0  0  0
  162.0260  211.0060  148.9930 C   0  0  0  0  0  2  0  0  0  0  0  0
  161.9210  213.0900  146.4070 C   0  0  0  0  0  0  0  0  0  0  0  0
  159.9270  212.4070  147.3460 C   0  0  0  0  0  2  0  0  0  0  0  0
  161.2590  212.9200  147.6340 N   0  0  0  0  0  0  0  0  0  0  0  0
  159.8760  212.5160  145.8500 C   0  0  0  0  0  0  0  0  0  0  0  0
  163.5060  212.5060  147.7670 N   0  0  0  0  0  2  0  0  0  0  0  0
  158.8500  212.2610  145.1680 O   0  0  0  0  0  0  0  0  0  0  0  0
  163.1790  212.8280  146.4440 N   0  0  0  0  0  0  0  0  0  0  0  0
  162.2810  212.4450  148.5630 C   0  0  2  0  0  3  0  0  0  0  0  0
  161.1130  212.9100  145.2580 N   0  0  0  0  0  2  0  0  0  0  0  0
  161.4800  205.0600  151.6650 C   0  0  0  0  0  2  0  0  0  0  0  0
  160.4480  202.3360  148.8350 C   0  0  1  0  0  3  0  0  0  0  0  0
  161.7950  203.8570  145.5250 C   0  0  0  0  0  1  0  0  0  0  0  0
  161.5450  204.6790  147.8130 C   0  0  0  0  0  3  0  0  0  0  0  0
  161.2260  204.4340  149.2580 C   0  0  1  0  0  0  0  0  0  0  0  0
  160.1100  205.1640  149.7030 O   0  0  0  0  0  0  0  0  0  0  0  0
  160.2910  201.0580  149.3340 F   0  0  0  0  0  0  0  0  0  0  0  0
  161.2200  203.1030  149.7340 O   0  0  0  0  0  0  0  0  0  0  0  0
  161.1180  202.2700  147.4560 C   0  0  0  0  0  2  0  0  0  0  0  0
  161.4510  203.6540  146.9580 C   0  0  0  0  0  0  0  0  0  0  0  0
  161.3660  205.5460  150.2280 C   0  0  1  0  0  3  0  0  0  0  0  0
  1  2  1  0  0  0  0
  2  6  2  0  0  0  0
  3  6  1  0  0  0  0
  4  3  2  0  0  0  0
  5  4  1  0  0  0  0
  5  1  2  0  0  0  0
  8  1  1  0  0  0  0
  8  7  1  1  0  0  0
  9  8  1  0  0  0  0
 10  9  2  0  0  0  0
 11 10  1  0  0  0  0
 12 18  2  0  0  0  0
 12 14  1  0  0  0  0
 13 14  1  0  0  0  0
 14 19  1  0  0  0  0
 15 13  1  0  0  0  0
 16 19  1  0  0  0  0
 17 15  2  0  0  0  0
 18 16  1  0  0  0  0
 19 11  1  6  0  0  0
 20 15  1  0  0  0  0
 20 12  1  0  0  0  0
 21  4  1  0  0  0  0
 22 27  1  1  0  0  0
 22 28  1  0  0  0  0
 23 30  1  0  0  0  0
 25 24  1  6  0  0  0
 25 26  1  0  0  0  0
 25 28  1  0  0  0  0
 25 31  1  0  0  0  0
 26 31  1  0  0  0  0
 29 22  1  0  0  0  0
 30 29  1  0  0  0  0
 30 24  2  0  0  0  0
 31 21  1  1  0  0  0
M  END
>  <MODEL>
3

>  <REMARK>
 VINA RESULT:      -8.8      3.630      5.496
  Name = 
  6 active torsions:
  status: ('A' for Active; 'I' for Inactive)
    1  A    between atoms: C_10  and  C_26
    2  A    between atoms: C_11  and  C_26
    3  A    between atoms: C_12  and  C_20
    4  A    between atoms: C_12  and  C_31
    5  A    between atoms: C_15  and  C_24
    6  A    between atoms: C_15  and  N_27
                            x       y       z     vdW  Elec       q    Type
                         _______ _______ _______ _____ _____    ______ ____

>  <TORSDO>
F 6

$$$$
=
 OpenBabel11072412373D

 31 35  0  0  1  0  0  0  0  0999 V2000
  160.8950  207.8860  154.3030 C   0  0  0  0  0  0  0  0  0  0  0  0
  160.8190  209.0880  153.5840 C   0  0  0  0  0  3  0  0  0  0  0  0
  161.2990  207.8990  151.5300 C   0  0  0  0  0  3  0  0  0  0  0  0
  161.3670  206.6950  152.2420 C   0  0  0  0  0  0  0  0  0  0  0  0
  161.1680  206.6910  153.6270 C   0  0  0  0  0  3  0  0  0  0  0  0
  161.0230  209.0930  152.2010 C   0  0  0  0  0  3  0  0  0  0  0  0
  161.8760  208.0730  156.4570 O   0  0  0  0  0  1  0  0  0  0  0  0
  160.6730  207.8530  155.7810 C   0  0  1  0  0  3  0  0  0  0  0  0
  159.6600  208.8750  156.1840 C   0  0  0  0  0  3  0  0  0  0  0  0
  160.0360  210.0180  156.6230 N   0  0  0  0  0  0  0  0  0  0  0  0
  159.0570  210.9970  157.0100 C   0  0  0  0  0  2  0  0  0  0  0  0
  158.6650  213.0800  154.4510 C   0  0  0  0  0  0  0  0  0  0  0  0
  156.8960  212.7810  155.9020 C   0  0  0  0  0  2  0  0  0  0  0  0
  158.3280  213.0310  155.8150 N   0  0  0  0  0  0  0  0  0  0  0  0
  156.4770  212.9080  154.4670 C   0  0  0  0  0  0  0  0  0  0  0  0
  160.4160  212.1980  155.3810 N   0  0  0  0  0  2  0  0  0  0  0  0
  155.2790  212.8570  154.0840 O   0  0  0  0  0  0  0  0  0  0  0  0
  159.8180  212.5850  154.1740 N   0  0  0  0  0  0  0  0  0  0  0  0
  159.4520  212.3650  156.4680 C   0  0  2  0  0  3  0  0  0  0  0  0
  157.5660  213.0650  153.5590 N   0  0  0  0  0  2  0  0  0  0  0  0
  161.6760  205.4240  151.5310 C   0  0  0  0  0  2  0  0  0  0  0  0
  160.3420  202.1650  149.5060 C   0  0  1  0  0  3  0  0  0  0  0  0
  161.3370  202.8730  145.8180 C   0  0  0  0  0  1  0  0  0  0  0  0
  161.3330  204.1920  147.8760 C   0  0  0  0  0  3  0  0  0  0  0  0
  161.1670  204.2840  149.3650 C   0  0  1  0  0  0  0  0  0  0  0  0
  160.1070  205.1240  149.7460 O   0  0  0  0  0  0  0  0  0  0  0  0
  160.2350  201.0350  150.2920 F   0  0  0  0  0  0  0  0  0  0  0  0
  161.2070  203.0930  150.1260 O   0  0  0  0  0  0  0  0  0  0  0  0
  160.8630  201.7750  148.1150 C   0  0  0  0  0  2  0  0  0  0  0  0
  161.1460  203.0040  147.2880 C   0  0  0  0  0  0  0  0  0  0  0  0
  161.4130  205.5800  150.0410 C   0  0  1  0  0  3  0  0  0  0  0  0
  1  8  1  0  0  0  0
  2  1  2  0  0  0  0
  3  6  2  0  0  0  0
  3  4  1  0  0  0  0
  4  5  2  0  0  0  0
  5  1  1  0  0  0  0
  6  2  1  0  0  0  0
  8  9  1  0  0  0  0
  8  7  1  1  0  0  0
  9 10  2  0  0  0  0
 10 11  1  0  0  0  0
 12 14  1  0  0  0  0
 14 13  1  0  0  0  0
 14 19  1  0  0  0  0
 15 13  1  0  0  0  0
 16 19  1  0  0  0  0
 17 15  2  0  0  0  0
 18 12  2  0  0  0  0
 18 16  1  0  0  0  0
 19 11  1  6  0  0  0
 20 12  1  0  0  0  0
 20 15  1  0  0  0  0
 21  4  1  0  0  0  0
 22 28  1  0  0  0  0
 22 27  1  1  0  0  0
 23 30  1  0  0  0  0
 25 24  1  6  0  0  0
 25 26  1  0  0  0  0
 25 31  1  0  0  0  0
 25 28  1  0  0  0  0
 26 31  1  0  0  0  0
 29 22  1  0  0  0  0
 30 24  2  0  0  0  0
 30 29  1  0  0  0  0
 31 21  1  1  0  0  0
M  END
>  <MODEL>
4

>  <REMARK>
 VINA RESULT:      -8.6      1.695      2.462
  Name = 
  6 active torsions:
  status: ('A' for Active; 'I' for Inactive)
    1  A    between atoms: C_10  and  C_26
    2  A    between atoms: C_11  and  C_26
    3  A    between atoms: C_12  and  C_20
    4  A    between atoms: C_12  and  C_31
    5  A    between atoms: C_15  and  C_24
    6  A    between atoms: C_15  and  N_27
                            x       y       z     vdW  Elec       q    Type
                         _______ _______ _______ _____ _____    ______ ____

>  <TORSDO>
F 6

$$$$
=
 OpenBabel11072412373D

 31 35  0  0  1  0  0  0  0  0999 V2000
  161.2380  208.4210  152.5590 C   0  0  0  0  0  0  0  0  0  0  0  0
  161.2330  207.0320  152.7560 C   0  0  0  0  0  3  0  0  0  0  0  0
  160.4440  207.3490  155.0230 C   0  0  0  0  0  3  0  0  0  0  0  0
  160.4380  208.7350  154.8280 C   0  0  0  0  0  0  0  0  0  0  0  0
  160.8380  209.2690  153.5980 C   0  0  0  0  0  3  0  0  0  0  0  0
  160.8400  206.4990  153.9860 C   0  0  0  0  0  3  0  0  0  0  0  0
  162.5440  210.0670  151.4540 O   0  0  0  0  0  1  0  0  0  0  0  0
  161.6480  209.0150  151.2500 C   0  0  1  0  0  3  0  0  0  0  0  0
  162.2650  207.9760  150.3700 C   0  0  0  0  0  3  0  0  0  0  0  0
  162.1060  208.0270  149.1010 N   0  0  0  0  0  0  0  0  0  0  0  0
  162.7020  207.0240  148.2610 C   0  0  0  0  0  2  0  0  0  0  0  0
  161.3320  204.1910  147.1950 C   0  0  0  0  0  0  0  0  0  0  0  0
  160.8300  204.9180  149.3280 C   0  0  0  0  0  2  0  0  0  0  0  0
  160.9440  205.3230  147.9340 N   0  0  0  0  0  0  0  0  0  0  0  0
  160.9930  203.4300  149.2270 C   0  0  0  0  0  0  0  0  0  0  0  0
  162.3120  205.8330  146.1700 N   0  0  0  0  0  2  0  0  0  0  0  0
  160.8710  202.6480  150.2050 O   0  0  0  0  0  0  0  0  0  0  0  0
  162.1310  204.4450  146.2210 N   0  0  0  0  0  0  0  0  0  0  0  0
  161.6520  206.4450  147.3230 C   0  0  2  0  0  3  0  0  0  0  0  0
  161.3320  202.9730  147.9180 N   0  0  0  0  0  2  0  0  0  0  0  0
  160.0320  209.6430  155.9360 C   0  0  0  0  0  2  0  0  0  0  0  0
  156.4310  211.5170  155.7950 C   0  0  1  0  0  3  0  0  0  0  0  0
  156.9440  214.3540  153.1920 C   0  0  0  0  0  1  0  0  0  0  0  0
  158.4290  212.7800  154.3280 C   0  0  0  0  0  3  0  0  0  0  0  0
  158.6310  211.5820  155.2090 C   0  0  1  0  0  0  0  0  0  0  0  0
  159.3250  211.8860  156.3930 O   0  0  0  0  0  0  0  0  0  0  0  0
  155.3760  210.7080  156.1680 F   0  0  0  0  0  0  0  0  0  0  0  0
  157.5370  210.7160  155.4360 O   0  0  0  0  0  0  0  0  0  0  0  0
  156.0020  212.4140  154.6260 C   0  0  0  0  0  2  0  0  0  0  0  0
  157.1780  213.1910  154.0900 C   0  0  0  0  0  0  0  0  0  0  0  0
  160.0070  211.0840  155.4490 C   0  0  1  0  0  3  0  0  0  0  0  0
  1  2  2  0  0  0  0
  1  5  1  0  0  0  0
  2  6  1  0  0  0  0
  4  3  1  0  0  0  0
  4 21  1  0  0  0  0
  5  4  2  0  0  0  0
  6  3  2  0  0  0  0
  8  7  1  1  0  0  0
  8  1  1  0  0  0  0
  9  8  1  0  0  0  0
 10  9  2  0  0  0  0
 11 10  1  0  0  0  0
 12 20  1  0  0  0  0
 12 14  1  0  0  0  0
 14 13  1  0  0  0  0
 15 13  1  0  0  0  0
 15 17  2  0  0  0  0
 16 18  1  0  0  0  0
 16 19  1  0  0  0  0
 18 12  2  0  0  0  0
 19 14  1  0  0  0  0
 19 11  1  1  0  0  0
 20 15  1  0  0  0  0
 22 27  1  6  0  0  0
 23 30  1  0  0  0  0
 25 24  1  6  0  0  0
 25 28  1  0  0  0  0
 25 31  1  0  0  0  0
 25 26  1  0  0  0  0
 28 22  1  0  0  0  0
 29 22  1  0  0  0  0
 30 24  2  0  0  0  0
 30 29  1  0  0  0  0
 31 21  1  1  0  0  0
 31 26  1  0  0  0  0
M  END
>  <MODEL>
5

>  <REMARK>
 VINA RESULT:      -8.4      4.587      9.473
  Name = 
  6 active torsions:
  status: ('A' for Active; 'I' for Inactive)
    1  A    between atoms: C_10  and  C_26
    2  A    between atoms: C_11  and  C_26
    3  A    between atoms: C_12  and  C_20
    4  A    between atoms: C_12  and  C_31
    5  A    between atoms: C_15  and  C_24
    6  A    between atoms: C_15  and  N_27
                            x       y       z     vdW  Elec       q    Type
                         _______ _______ _______ _____ _____    ______ ____

>  <TORSDO>
F 6

$$$$
=
 OpenBabel11072412373D

 31 35  0  0  1  0  0  0  0  0999 V2000
  161.0240  209.3460  156.2400 C   0  0  0  0  0  0  0  0  0  0  0  0
  160.4720  208.3220  157.0250 C   0  0  0  0  0  3  0  0  0  0  0  0
  160.2820  206.9130  155.0650 C   0  0  0  0  0  3  0  0  0  0  0  0
  160.8400  207.9280  154.2790 C   0  0  0  0  0  0  0  0  0  0  0  0
  161.2070  209.1440  154.8670 C   0  0  0  0  0  3  0  0  0  0  0  0
  160.1000  207.1100  156.4370 C   0  0  0  0  0  3  0  0  0  0  0  0
  162.4240  211.2560  156.0670 O   0  0  0  0  0  1  0  0  0  0  0  0
  161.4360  210.6490  156.8460 C   0  0  1  0  0  3  0  0  0  0  0  0
  160.2590  211.5590  156.9870 C   0  0  0  0  0  3  0  0  0  0  0  0
  160.2690  212.7170  156.4390 N   0  0  0  0  0  0  0  0  0  0  0  0
  159.1340  213.5880  156.5780 C   0  0  0  0  0  2  0  0  0  0  0  0
  156.9950  211.9000  154.6780 C   0  0  0  0  0  0  0  0  0  0  0  0
  156.2110  212.8550  156.6280 C   0  0  0  0  0  2  0  0  0  0  0  0
  157.0070  213.0870  155.4300 N   0  0  0  0  0  0  0  0  0  0  0  0
  155.6130  211.5100  156.3390 C   0  0  0  0  0  0  0  0  0  0  0  0
  158.9670  212.7210  154.3060 N   0  0  0  0  0  2  0  0  0  0  0  0
  154.7660  210.9500  157.0840 O   0  0  0  0  0  0  0  0  0  0  0  0
  158.0970  211.6510  154.0660 N   0  0  0  0  0  0  0  0  0  0  0  0
  158.3530  213.6320  155.2720 C   0  0  2  0  0  3  0  0  0  0  0  0
  156.1120  210.8980  155.1510 N   0  0  0  0  0  2  0  0  0  0  0  0
  161.0200  207.7250  152.8150 C   0  0  0  0  0  2  0  0  0  0  0  0
  161.4400  206.6290  148.9270 C   0  0  1  0  0  3  0  0  0  0  0  0
  160.8190  202.7940  148.9550 C   0  0  0  0  0  1  0  0  0  0  0  0
  161.1270  204.4940  150.6840 C   0  0  0  0  0  3  0  0  0  0  0  0
  161.2590  205.9330  151.0890 C   0  0  1  0  0  0  0  0  0  0  0  0
  162.5000  206.2230  151.6790 O   0  0  0  0  0  0  0  0  0  0  0  0
  161.1930  207.6550  148.0370 F   0  0  0  0  0  0  0  0  0  0  0  0
  160.8540  206.9340  150.1750 O   0  0  0  0  0  0  0  0  0  0  0  0
  160.8790  205.3150  148.3650 C   0  0  0  0  0  2  0  0  0  0  0  0
  160.9880  204.2090  149.3840 C   0  0  0  0  0  0  0  0  0  0  0  0
  161.3700  206.2730  152.5270 C   0  0  1  0  0  3  0  0  0  0  0  0
  1  8  1  0  0  0  0
  1  2  1  0  0  0  0
  3  6  1  0  0  0  0
  4  5  1  0  0  0  0
  4  3  2  0  0  0  0
  5  1  2  0  0  0  0
  6  2  2  0  0  0  0
  8  7  1  6  0  0  0
  8  9  1  0  0  0  0
 10 11  1  0  0  0  0
 10  9  2  0  0  0  0
 12 20  1  0  0  0  0
 12 14  1  0  0  0  0
 14 13  1  0  0  0  0
 15 13  1  0  0  0  0
 15 17  2  0  0  0  0
 16 19  1  0  0  0  0
 18 16  1  0  0  0  0
 18 12  2  0  0  0  0
 19 14  1  0  0  0  0
 19 11  1  1  0  0  0
 20 15  1  0  0  0  0
 21  4  1  0  0  0  0
 22 27  1  6  0  0  0
 22 28  1  0  0  0  0
 23 30  1  0  0  0  0
 25 24  1  6  0  0  0
 25 26  1  0  0  0  0
 25 31  1  0  0  0  0
 26 31  1  0  0  0  0
 28 25  1  0  0  0  0
 29 22  1  0  0  0  0
 29 30  1  0  0  0  0
 30 24  2  0  0  0  0
 31 21  1  6  0  0  0
M  END
>  <MODEL>
6

>  <REMARK>
 VINA RESULT:      -8.0      2.296      3.220
  Name = 
  6 active torsions:
  status: ('A' for Active; 'I' for Inactive)
    1  A    between atoms: C_10  and  C_26
    2  A    between atoms: C_11  and  C_26
    3  A    between atoms: C_12  and  C_20
    4  A    between atoms: C_12  and  C_31
    5  A    between atoms: C_15  and  C_24
    6  A    between atoms: C_15  and  N_27
                            x       y       z     vdW  Elec       q    Type
                         _______ _______ _______ _____ _____    ______ ____

>  <TORSDO>
F 6

$$$$
=
 OpenBabel11072412373D

 31 35  0  0  1  0  0  0  0  0999 V2000
  161.5850  208.4830  152.5670 C   0  0  0  0  0  0  0  0  0  0  0  0
  161.1640  207.9880  153.8100 C   0  0  0  0  0  3  0  0  0  0  0  0
  161.0400  205.7530  152.8870 C   0  0  0  0  0  3  0  0  0  0  0  0
  161.4680  206.2400  151.6470 C   0  0  0  0  0  0  0  0  0  0  0  0
  161.7370  207.6040  151.4880 C   0  0  0  0  0  3  0  0  0  0  0  0
  160.8900  206.6270  153.9670 C   0  0  0  0  0  3  0  0  0  0  0  0
  161.8540  210.2620  151.0170 O   0  0  0  0  0  1  0  0  0  0  0  0
  161.8910  209.9330  152.3740 C   0  0  1  0  0  3  0  0  0  0  0  0
  160.9240  210.7810  153.1360 C   0  0  0  0  0  3  0  0  0  0  0  0
  159.7400  210.9720  152.6870 N   0  0  0  0  0  0  0  0  0  0  0  0
  158.8150  211.7880  153.4240 C   0  0  0  0  0  2  0  0  0  0  0  0
  157.2490  214.3000  151.9150 C   0  0  0  0  0  0  0  0  0  0  0  0
  156.5550  213.6880  154.0290 C   0  0  0  0  0  2  0  0  0  0  0  0
  157.7160  213.9880  153.2030 N   0  0  0  0  0  0  0  0  0  0  0  0
  155.4260  214.0680  153.1160 C   0  0  0  0  0  0  0  0  0  0  0  0
  159.1430  213.3090  151.5470 N   0  0  0  0  0  2  0  0  0  0  0  0
  154.2160  214.0560  153.4620 O   0  0  0  0  0  0  0  0  0  0  0  0
  158.0140  213.8970  150.9640 N   0  0  0  0  0  0  0  0  0  0  0  0
  158.9550  213.2430  152.9960 C   0  0  2  0  0  3  0  0  0  0  0  0
  155.8430  214.4210  151.7980 N   0  0  0  0  0  2  0  0  0  0  0  0
  161.6140  205.3140  150.4900 C   0  0  0  0  0  2  0  0  0  0  0  0
  160.8260  203.0480  147.2130 C   0  0  1  0  0  3  0  0  0  0  0  0
  161.5800  205.4140  144.2250 C   0  0  0  0  0  1  0  0  0  0  0  0
  161.3970  205.7110  146.6450 C   0  0  0  0  0  3  0  0  0  0  0  0
  161.2580  205.1330  148.0220 C   0  0  1  0  0  0  0  0  0  0  0  0
  160.0760  205.5350  148.6670 O   0  0  0  0  0  0  0  0  0  0  0  0
  160.9430  201.6910  147.4420 F   0  0  0  0  0  0  0  0  0  0  0  0
  161.5290  203.7580  148.2100 O   0  0  0  0  0  0  0  0  0  0  0  0
  161.3700  203.3810  145.8170 C   0  0  0  0  0  2  0  0  0  0  0  0
  161.4080  204.8730  145.6010 C   0  0  0  0  0  0  0  0  0  0  0  0
  161.2870  206.0400  149.1940 C   0  0  1  0  0  3  0  0  0  0  0  0
  1  2  1  0  0  0  0
  2  6  2  0  0  0  0
  3  6  1  0  0  0  0
  4  3  2  0  0  0  0
  5  4  1  0  0  0  0
  5  1  2  0  0  0  0
  8  7  1  6  0  0  0
  8  1  1  0  0  0  0
  8  9  1  0  0  0  0
 10  9  2  0  0  0  0
 10 11  1  0  0  0  0
 12 14  1  0  0  0  0
 14 13  1  0  0  0  0
 15 17  2  0  0  0  0
 15 13  1  0  0  0  0
 16 19  1  0  0  0  0
 18 16  1  0  0  0  0
 18 12  2  0  0  0  0
 19 14  1  0  0  0  0
 19 11  1  6  0  0  0
 20 12  1  0  0  0  0
 20 15  1  0  0  0  0
 21  4  1  0  0  0  0
 22 27  1  1  0  0  0
 22 28  1  0  0  0  0
 23 30  1  0  0  0  0
 25 24  1  6  0  0  0
 25 28  1  0  0  0  0
 25 26  1  0  0  0  0
 25 31  1  0  0  0  0
 26 31  1  0  0  0  0
 29 22  1  0  0  0  0
 30 29  1  0  0  0  0
 30 24  2  0  0  0  0
 31 21  1  1  0  0  0
M  END
>  <MODEL>
7

>  <REMARK>
 VINA RESULT:      -7.9      1.905      2.388
  Name = 
  6 active torsions:
  status: ('A' for Active; 'I' for Inactive)
    1  A    between atoms: C_10  and  C_26
    2  A    between atoms: C_11  and  C_26
    3  A    between atoms: C_12  and  C_20
    4  A    between atoms: C_12  and  C_31
    5  A    between atoms: C_15  and  C_24
    6  A    between atoms: C_15  and  N_27
                            x       y       z     vdW  Elec       q    Type
                         _______ _______ _______ _____ _____    ______ ____

>  <TORSDO>
F 6

$$$$
=
 OpenBabel11072412373D

 31 35  0  0  1  0  0  0  0  0999 V2000
  161.3010  208.7020  153.2200 C   0  0  0  0  0  0  0  0  0  0  0  0
  160.8820  208.5050  154.5440 C   0  0  0  0  0  3  0  0  0  0  0  0
  160.8040  206.1140  154.1720 C   0  0  0  0  0  3  0  0  0  0  0  0
  161.2310  206.3040  152.8520 C   0  0  0  0  0  0  0  0  0  0  0  0
  161.4760  207.5980  152.3780 C   0  0  0  0  0  3  0  0  0  0  0  0
  160.6320  207.2140  155.0170 C   0  0  0  0  0  3  0  0  0  0  0  0
  162.3880  210.0000  151.5540 O   0  0  0  0  0  1  0  0  0  0  0  0
  161.5820  210.0730  152.6930 C   0  0  1  0  0  3  0  0  0  0  0  0
  160.3070  210.7860  152.3770 C   0  0  0  0  0  3  0  0  0  0  0  0
  159.8040  211.6130  153.2160 N   0  0  0  0  0  0  0  0  0  0  0  0
  158.5770  212.2950  152.9060 C   0  0  0  0  0  2  0  0  0  0  0  0
  158.2810  211.3760  156.0850 C   0  0  0  0  0  0  0  0  0  0  0  0
  160.0760  212.6980  155.4890 C   0  0  0  0  0  2  0  0  0  0  0  0
  158.6350  212.5280  155.3630 N   0  0  0  0  0  0  0  0  0  0  0  0
  160.4170  211.6510  156.5080 C   0  0  0  0  0  0  0  0  0  0  0  0
  156.8960  211.3800  154.4150 N   0  0  0  0  0  2  0  0  0  0  0  0
  161.5680  211.5020  156.9940 O   0  0  0  0  0  0  0  0  0  0  0  0
  157.3310  210.6910  155.5540 N   0  0  0  0  0  0  0  0  0  0  0  0
  157.7770  212.5240  154.1810 C   0  0  2  0  0  3  0  0  0  0  0  0
  159.3210  210.8100  156.8610 N   0  0  0  0  0  2  0  0  0  0  0  0
  161.4000  205.1360  151.9460 C   0  0  0  0  0  2  0  0  0  0  0  0
  160.4260  202.3210  149.1840 C   0  0  1  0  0  3  0  0  0  0  0  0
  161.7900  203.7630  145.8450 C   0  0  0  0  0  1  0  0  0  0  0  0
  161.5090  204.6470  148.1060 C   0  0  0  0  0  3  0  0  0  0  0  0
  161.1770  204.4390  149.5550 C   0  0  1  0  0  0  0  0  0  0  0  0
  160.0500  205.1690  149.9680 O   0  0  0  0  0  0  0  0  0  0  0  0
  160.2770  201.0560  149.7180 F   0  0  0  0  0  0  0  0  0  0  0  0
  161.1800  203.1220  150.0690 O   0  0  0  0  0  0  0  0  0  0  0  0
  161.1110  202.2240  147.8140 C   0  0  0  0  0  2  0  0  0  0  0  0
  161.4340  203.5960  147.2800 C   0  0  0  0  0  0  0  0  0  0  0  0
  161.2960  205.5800  150.4940 C   0  0  1  0  0  3  0  0  0  0  0  0
  1  2  1  0  0  0  0
  2  6  2  0  0  0  0
  3  6  1  0  0  0  0
  4  3  2  0  0  0  0
  5  4  1  0  0  0  0
  5  1  2  0  0  0  0
  8  7  1  6  0  0  0
  8  1  1  0  0  0  0
  9  8  1  0  0  0  0
  9 10  2  0  0  0  0
 11 10  1  0  0  0  0
 12 20  1  0  0  0  0
 13 15  1  0  0  0  0
 14 13  1  0  0  0  0
 14 12  1  0  0  0  0
 15 20  1  0  0  0  0
 15 17  2  0  0  0  0
 16 18  1  0  0  0  0
 18 12  2  0  0  0  0
 19 11  1  6  0  0  0
 19 16  1  0  0  0  0
 19 14  1  0  0  0  0
 21  4  1  0  0  0  0
 22 27  1  1  0  0  0
 22 28  1  0  0  0  0
 23 30  1  0  0  0  0
 25 24  1  6  0  0  0
 25 26  1  0  0  0  0
 25 28  1  0  0  0  0
 25 31  1  0  0  0  0
 26 31  1  0  0  0  0
 29 22  1  0  0  0  0
 30 29  1  0  0  0  0
 30 24  2  0  0  0  0
 31 21  1  1  0  0  0
M  END
>  <MODEL>
8

>  <REMARK>
 VINA RESULT:      -7.8      1.562      2.031
  Name = 
  6 active torsions:
  status: ('A' for Active; 'I' for Inactive)
    1  A    between atoms: C_10  and  C_26
    2  A    between atoms: C_11  and  C_26
    3  A    between atoms: C_12  and  C_20
    4  A    between atoms: C_12  and  C_31
    5  A    between atoms: C_15  and  C_24
    6  A    between atoms: C_15  and  N_27
                            x       y       z     vdW  Elec       q    Type
                         _______ _______ _______ _____ _____    ______ ____

>  <TORSDO>
F 6

$$$$
=
 OpenBabel11072412373D

 31 35  0  0  1  0  0  0  0  0999 V2000
  161.4070  206.1470  151.9920 C   0  0  0  0  0  0  0  0  0  0  0  0
  161.4730  207.0670  150.9350 C   0  0  0  0  0  3  0  0  0  0  0  0
  161.0150  208.8800  152.4720 C   0  0  0  0  0  3  0  0  0  0  0  0
  160.9570  207.9680  153.5330 C   0  0  0  0  0  0  0  0  0  0  0  0
  161.1500  206.6030  153.2910 C   0  0  0  0  0  3  0  0  0  0  0  0
  161.2750  208.4290  151.1750 C   0  0  0  0  0  3  0  0  0  0  0  0
  161.0030  203.9400  152.7680 O   0  0  0  0  0  1  0  0  0  0  0  0
  161.6220  204.6860  151.7620 C   0  0  1  0  0  3  0  0  0  0  0  0
  161.0970  204.2810  150.4230 C   0  0  0  0  0  3  0  0  0  0  0  0
  160.6370  203.1000  150.2400 N   0  0  0  0  0  0  0  0  0  0  0  0
  160.1330  202.7170  148.9490 C   0  0  0  0  0  2  0  0  0  0  0  0
  161.2370  202.9380  145.8240 C   0  0  0  0  0  0  0  0  0  0  0  0
  161.2220  204.8480  147.1180 C   0  0  0  0  0  2  0  0  0  0  0  0
  161.5870  203.4390  147.0890 N   0  0  0  0  0  0  0  0  0  0  0  0
  160.8380  205.0930  145.6880 C   0  0  0  0  0  0  0  0  0  0  0  0
  160.8960  201.2580  147.1520 N   0  0  0  0  0  2  0  0  0  0  0  0
  160.5350  206.2260  145.2320 O   0  0  0  0  0  0  0  0  0  0  0  0
  160.8100  201.7260  145.8350 N   0  0  0  0  0  0  0  0  0  0  0  0
  161.2920  202.3600  148.0280 C   0  0  2  0  0  3  0  0  0  0  0  0
  160.8170  203.9130  144.8860 N   0  0  0  0  0  2  0  0  0  0  0  0
  160.6650  208.4450  154.9130 C   0  0  0  0  0  2  0  0  0  0  0  0
  157.6350  211.0310  155.7050 C   0  0  1  0  0  3  0  0  0  0  0  0
  158.9560  214.4530  154.4260 C   0  0  0  0  0  1  0  0  0  0  0  0
  159.9550  212.2480  154.7670 C   0  0  0  0  0  3  0  0  0  0  0  0
  159.8140  210.7890  155.0870 C   0  0  1  0  0  0  0  0  0  0  0  0
  160.4960  210.4190  156.2590 O   0  0  0  0  0  0  0  0  0  0  0  0
  156.3980  210.4230  155.7750 F   0  0  0  0  0  0  0  0  0  0  0  0
  158.5330  210.1980  155.0030 O   0  0  0  0  0  0  0  0  0  0  0  0
  157.4980  212.3940  155.0130 C   0  0  0  0  0  2  0  0  0  0  0  0
  158.8540  213.0100  154.7740 C   0  0  0  0  0  0  0  0  0  0  0  0
  161.0140  209.9200  155.0420 C   0  0  1  0  0  3  0  0  0  0  0  0
  1  5  1  0  0  0  0
  2  6  1  0  0  0  0
  2  1  2  0  0  0  0
  3  4  1  0  0  0  0
  4 21  1  0  0  0  0
  5  4  2  0  0  0  0
  6  3  2  0  0  0  0
  8  1  1  0  0  0  0
  8  7  1  1  0  0  0
  9  8  1  0  0  0  0
 10  9  2  0  0  0  0
 11 10  1  0  0  0  0
 12 18  2  0  0  0  0
 12 14  1  0  0  0  0
 14 13  1  0  0  0  0
 14 19  1  0  0  0  0
 15 13  1  0  0  0  0
 16 19  1  0  0  0  0
 17 15  2  0  0  0  0
 18 16  1  0  0  0  0
 19 11  1  1  0  0  0
 20 15  1  0  0  0  0
 20 12  1  0  0  0  0
 22 27  1  6  0  0  0
 23 30  1  0  0  0  0
 24 30  2  0  0  0  0
 25 24  1  6  0  0  0
 25 26  1  0  0  0  0
 28 25  1  0  0  0  0
 28 22  1  0  0  0  0
 29 22  1  0  0  0  0
 30 29  1  0  0  0  0
 31 21  1  1  0  0  0
 31 25  1  0  0  0  0
 31 26  1  0  0  0  0
M  END
>  <MODEL>
9

>  <REMARK>
 VINA RESULT:      -7.8      5.372     10.292
  Name = 
  6 active torsions:
  status: ('A' for Active; 'I' for Inactive)
    1  A    between atoms: C_10  and  C_26
    2  A    between atoms: C_11  and  C_26
    3  A    between atoms: C_12  and  C_20
    4  A    between atoms: C_12  and  C_31
    5  A    between atoms: C_15  and  C_24
    6  A    between atoms: C_15  and  N_27
                            x       y       z     vdW  Elec       q    Type
                         _______ _______ _______ _____ _____    ______ ____

>  <TORSDO>
F 6

$$$$
