=
 OpenBabel11072412333D

 51 56  0  0  1  0  0  0  0  0999 V2000
  158.1920  213.3280  153.7580 C   0  0  1  0  0  3  0  0  0  0  0  0
  162.5350  210.2000  152.2910 C   0  0  0  0  0  2  0  0  0  0  0  0
  160.8570  208.3600  152.9400 C   0  0  2  0  0  3  0  0  0  0  0  0
  157.7120  213.0770  155.1800 C   0  0  0  0  0  2  0  0  0  0  0  0
  161.4240  211.1070  152.8520 C   0  0  1  0  0  3  0  0  0  0  0  0
  162.2720  208.6800  152.4320 C   0  0  1  0  0  3  0  0  0  0  0  0
  158.6910  212.1330  153.2390 O   0  0  0  0  0  0  0  0  0  0  0  0
  159.1740  210.6710  157.1930 C   0  0  0  0  0  1  0  0  0  0  0  0
  157.0670  213.8240  152.8370 C   0  0  0  0  0  2  0  0  0  0  0  0
  158.8510  212.7950  156.0550 N   0  0  0  0  0  2  0  0  0  0  0  0
  159.4740  212.5080  152.1490 C   0  0  1  0  0  3  0  0  0  0  0  0
  160.6950  211.3520  155.3580 C   0  0  0  0  0  2  0  0  0  0  0  0
  160.3710  211.3450  151.7630 C   0  0  0  0  0  2  0  0  0  0  0  0
  160.8280  210.5130  154.1140 C   0  0  0  0  0  0  0  0  0  0  0  0
  159.2600  211.4040  155.8700 C   0  0  1  0  0  3  0  0  0  0  0  0
  157.4640  213.6670  151.3730 C   0  0  0  0  0  0  0  0  0  0  0  0
  160.5570  209.2020  154.1510 C   0  0  0  0  0  3  0  0  0  0  0  0
  158.5610  212.9640  151.0420 C   0  0  0  0  0  3  0  0  0  0  0  0
  160.6600  206.8560  153.1730 C   0  0  2  0  0  3  0  0  0  0  0  0
  160.8730  206.5300  154.5140 O   0  0  0  0  0  1  0  0  0  0  0  0
  161.4870  205.9660  152.2460 C   0  0  0  0  0  2  0  0  0  0  0  0
  160.9050  204.6690  152.1610 O   0  0  0  0  0  0  0  0  0  0  0  0
  160.9050  202.1790  148.7600 C   0  0  0  0  0  0  0  0  0  0  0  0
  161.0260  202.5020  151.1600 C   0  0  0  0  0  3  0  0  0  0  0  0
  160.8010  203.5610  148.5910 C   0  0  0  0  0  3  0  0  0  0  0  0
  160.8020  204.4250  149.6950 C   0  0  0  0  0  0  0  0  0  0  0  0
  161.0290  201.6530  150.0540 C   0  0  0  0  0  3  0  0  0  0  0  0
  160.8940  203.8870  151.0030 C   0  0  0  0  0  0  0  0  0  0  0  0
  160.9050  201.3520  147.6270 O   0  0  0  0  0  0  0  0  0  0  0  0
  161.5740  199.4790  146.2590 C   0  0  0  0  0  1  0  0  0  0  0  0
  161.2960  199.9860  147.6600 C   0  0  0  0  0  2  0  0  0  0  0  0
  160.7860  205.8920  149.4230 C   0  0  0  0  0  2  0  0  0  0  0  0
  161.5300  206.2030  148.1380 C   0  0  0  0  0  2  0  0  0  0  0  0
  160.5290  206.4980  147.0390 C   0  0  0  0  0  2  0  0  0  0  0  0
  160.3510  205.1520  145.1280 C   0  0  0  0  0  2  0  0  0  0  0  0
  161.1250  206.2250  145.7410 N   0  0  0  0  0  0  0  0  0  0  0  0
  161.1740  203.8890  145.1540 C   0  0  0  0  0  2  0  0  0  0  0  0
  162.4590  205.6950  145.9950 C   0  0  0  0  0  2  0  0  0  0  0  0
  162.5910  204.3750  145.2880 C   0  0  0  0  0  2  0  0  0  0  0  0
  162.3060  209.0380  150.2420 C   0  0  0  0  0  1  0  0  0  0  0  0
  162.5020  208.0440  151.2030 O   0  0  0  0  0  0  0  0  0  0  0  0
  156.5570  214.0660  150.3410 N   0  0  0  0  0  2  0  0  0  0  0  0
  156.3850  213.3490  149.1430 N   0  0  0  0  0  2  0  0  0  0  0  0
  156.8470  213.0550  146.8850 O   0  0  0  0  0  0  0  0  0  0  0  0
  158.4590  214.2310  148.1070 N   0  0  0  0  0  2  0  0  0  0  0  0
  157.2150  213.5320  147.9930 C   0  0  0  0  0  0  0  0  0  0  0  0
  161.0820  213.1050  145.5540 C   0  0  0  0  0  2  0  0  0  0  0  0
  160.9630  213.5950  147.3040 S   0  0  0  0  0  0  0  0  0  0  0  0
  159.3920  214.4530  147.0140 C   0  0  1  0  0  3  0  0  0  0  0  0
  159.9970  213.8110  144.7770 C   0  0  0  0  0  2  0  0  0  0  0  0
  158.8230  213.9820  145.7000 C   0  0  0  0  0  2  0  0  0  0  0  0
  1  9  1  6  0  0  0
  1  4  1  0  0  0  0
  2  6  1  0  0  0  0
  2  5  1  0  0  0  0
  3 19  1  1  0  0  0
  3 17  1  0  0  0  0
  4 10  1  0  0  0  0
  5 13  1  6  0  0  0
  5 14  1  0  0  0  0
  6 41  1  6  0  0  0
  6  3  1  0  0  0  0
  7  1  1  0  0  0  0
 11 18  1  6  0  0  0
 11  7  1  0  0  0  0
 12 15  1  0  0  0  0
 13 11  1  0  0  0  0
 14 17  2  0  0  0  0
 14 12  1  0  0  0  0
 15 10  1  0  0  0  0
 15  8  1  1  0  0  0
 16  9  1  0  0  0  0
 18 16  2  0  0  0  0
 19 20  1  1  0  0  0
 21 19  1  0  0  0  0
 22 21  1  0  0  0  0
 23 27  1  0  0  0  0
 25 23  2  0  0  0  0
 25 26  1  0  0  0  0
 26 28  2  0  0  0  0
 27 24  2  0  0  0  0
 28 24  1  0  0  0  0
 28 22  1  0  0  0  0
 29 31  1  0  0  0  0
 29 23  1  0  0  0  0
 30 31  1  0  0  0  0
 32 26  1  0  0  0  0
 33 32  1  0  0  0  0
 34 33  1  0  0  0  0
 35 37  1  0  0  0  0
 35 36  1  0  0  0  0
 36 38  1  0  0  0  0
 36 34  1  0  0  0  0
 37 39  1  0  0  0  0
 39 38  1  0  0  0  0
 40 41  1  0  0  0  0
 42 16  1  0  0  0  0
 43 42  1  0  0  0  0
 44 46  2  0  0  0  0
 46 45  1  0  0  0  0
 46 43  1  0  0  0  0
 47 48  1  0  0  0  0
 49 48  1  0  0  0  0
 49 45  1  1  0  0  0
 50 47  1  0  0  0  0
 50 51  1  0  0  0  0
 51 49  1  0  0  0  0
M  END
>  <MODEL>
1

>  <REMARK>
 VINA RESULT:      -8.0      0.000      0.000
  Name = 
  14 active torsions:
  status: ('A' for Active; 'I' for Inactive)
    1  A    between atoms: C_4  and  O_9
    2  A    between atoms: C_4  and  C_20
    3  A    between atoms: C_5  and  C_20
    4  A    between atoms: C_8  and  O_28
    5  A    between atoms: O_9  and  C_51
    6  A    between atoms: N_10  and  C_35
    7  A    between atoms: C_12  and  O_25
    8  A    between atoms: N_14  and  N_29
    9  A    between atoms: N_14  and  C_37
   10  A    between atoms: C_16  and  C_35
   11  A    between atoms: C_16  and  C_42
   12  A    between atoms: C_27  and  N_43
   13  A    between atoms: O_28  and  C_45
   14  A    between atoms: C_41  and  C_42
                            x       y       z     vdW  Elec       q    Type
                         _______ _______ _______ _____ _____    ______ ____

>  <TORSDO>
F 14

$$$$
