=
 OpenBabel11072411123D

 30 34  0  0  1  0  0  0  0  0999 V2000
  161.5740  209.2080  148.7190 O   0  0  0  0  0  0  0  0  0  0  0  0
  161.5200  206.6550  153.8600 C   0  0  0  0  0  0  0  0  0  0  0  0
  159.4420  210.9120  151.8260 C   0  0  0  0  0  2  0  0  0  0  0  0
  161.7330  207.1420  155.0010 O   0  0  0  0  0  0  0  0  0  0  0  0
  161.0790  205.2570  153.7660 C   0  0  0  0  0  3  0  0  0  0  0  0
  159.6200  211.3670  153.2810 C   0  0  0  0  0  2  0  0  0  0  0  0
  162.3880  213.1090  148.3930 C   0  0  0  0  0  2  0  0  0  0  0  0
  161.5850  208.7810  150.0410 C   0  0  0  0  0  0  0  0  0  0  0  0
  161.2350  208.8840  152.5490 C   0  0  2  0  0  3  0  0  0  0  0  0
  161.7990  205.5880  148.3560 C   0  0  0  0  0  1  0  0  0  0  0  0
  161.3020  214.4530  146.8300 C   0  0  0  0  0  1  0  0  0  0  0  0
  161.0170  211.9390  150.1960 C   0  0  0  0  0  0  0  0  0  0  0  0
  160.8870  204.6780  152.5850 C   0  0  0  0  0  0  0  0  0  0  0  0
  163.1260  210.1070  151.4430 C   0  0  0  0  0  1  0  0  0  0  0  0
  161.4510  206.9410  148.7540 N   0  0  0  0  0  0  0  0  0  0  0  0
  161.4350  209.6590  153.8720 C   0  0  0  0  0  2  0  0  0  0  0  0
  160.7420  210.9000  151.0450 C   0  0  0  0  0  0  0  0  0  0  0  0
  161.5140  208.0810  147.8500 C   0  0  0  0  0  2  0  0  0  0  0  0
  161.8400  207.4540  152.6050 C   0  0  2  0  0  3  0  0  0  0  0  0
  161.0840  213.4350  147.8410 N   0  0  0  0  0  0  0  0  0  0  0  0
  161.0260  211.1320  153.8380 C   0  0  0  0  0  2  0  0  0  0  0  0
  160.3470  214.0730  148.9220 C   0  0  0  0  0  2  0  0  0  0  0  0
  161.4850  206.7070  151.3320 C   0  0  0  0  0  0  0  0  0  0  0  0
  161.6680  209.6820  151.2610 C   0  0  1  0  0  0  0  0  0  0  0  0
  161.5360  207.4640  150.0750 C   0  0  0  0  0  0  0  0  0  0  0  0
  159.8570  213.7700  151.2250 O   0  0  0  0  0  1  0  0  0  0  0  0
  160.0040  213.0710  150.0270 C   0  0  2  0  0  3  0  0  0  0  0  0
  162.2680  211.9180  149.3350 C   0  0  0  0  0  2  0  0  0  0  0  0
  160.4620  203.3230  152.5270 N   0  0  0  0  0  1  0  0  0  0  0  0
  161.0670  205.4360  151.3390 C   0  0  0  0  0  3  0  0  0  0  0  0
  1  8  1  0  0  0  0
  2  4  2  0  0  0  0
  3  6  1  0  0  0  0
  5  2  1  0  0  0  0
  6 21  1  0  0  0  0
  7 28  1  0  0  0  0
  8 25  2  0  0  0  0
  8 24  1  0  0  0  0
  9 19  1  0  0  0  0
  9 16  1  1  0  0  0
 10 15  1  0  0  0  0
 11 20  1  0  0  0  0
 12 17  2  0  0  0  0
 13  5  2  0  0  0  0
 15 25  1  0  0  0  0
 17 24  1  0  0  0  0
 17  3  1  0  0  0  0
 18  1  1  0  0  0  0
 18 15  1  0  0  0  0
 19 23  1  6  0  0  0
 19  2  1  0  0  0  0
 20  7  1  0  0  0  0
 20 22  1  0  0  0  0
 21 16  1  0  0  0  0
 22 27  1  0  0  0  0
 23 30  2  0  0  0  0
 24 14  1  1  0  0  0
 24  9  1  0  0  0  0
 25 23  1  0  0  0  0
 27 12  1  0  0  0  0
 27 26  1  1  0  0  0
 28 12  1  0  0  0  0
 29 13  1  0  0  0  0
 30 13  1  0  0  0  0
M  END
>  <MODEL>
1

>  <REMARK>
 VINA RESULT:      -4.3      0.000      0.000
  Name = 
  0 active torsions:
  status: ('A' for Active; 'I' for Inactive)
                            x       y       z     vdW  Elec       q    Type
                         _______ _______ _______ _____ _____    ______ ____

>  <TORSDO>
F 0

$$$$
=
 OpenBabel11072411123D

 30 34  0  0  1  0  0  0  0  0999 V2000
  160.8080  205.7090  153.0060 O   0  0  0  0  0  0  0  0  0  0  0  0
  161.6780  210.8950  150.7050 C   0  0  0  0  0  0  0  0  0  0  0  0
  160.0320  206.3200  148.9920 C   0  0  0  0  0  2  0  0  0  0  0  0
  162.2980  211.2160  149.6580 O   0  0  0  0  0  0  0  0  0  0  0  0
  160.9510  211.9410  151.4360 C   0  0  0  0  0  3  0  0  0  0  0  0
  160.7010  206.8600  147.7200 C   0  0  0  0  0  2  0  0  0  0  0  0
  162.2800  202.4320  151.2530 C   0  0  0  0  0  2  0  0  0  0  0  0
  161.1020  206.8620  152.2900 C   0  0  0  0  0  0  0  0  0  0  0  0
  161.5000  208.3370  150.2680 C   0  0  2  0  0  3  0  0  0  0  0  0
  160.1740  208.3260  155.4640 C   0  0  0  0  0  1  0  0  0  0  0  0
  161.0990  200.4230  151.2380 C   0  0  0  0  0  1  0  0  0  0  0  0
  161.2610  204.4840  150.1360 C   0  0  0  0  0  0  0  0  0  0  0  0
  160.3200  211.6680  152.5740 C   0  0  0  0  0  0  0  0  0  0  0  0
  163.2130  206.6670  151.0220 C   0  0  0  0  0  1  0  0  0  0  0  0
  160.2370  207.5130  154.2610 N   0  0  0  0  0  0  0  0  0  0  0  0
  162.2180  208.5430  148.9140 C   0  0  0  0  0  2  0  0  0  0  0  0
  161.0290  205.8290  150.0230 C   0  0  0  0  0  0  0  0  0  0  0  0
  160.2760  206.0580  154.2810 C   0  0  0  0  0  2  0  0  0  0  0  0
  161.7890  209.4870  151.2710 C   0  0  2  0  0  3  0  0  0  0  0  0
  160.9700  201.8520  151.0140 N   0  0  0  0  0  0  0  0  0  0  0  0
  162.1270  207.3710  147.9370 C   0  0  0  0  0  2  0  0  0  0  0  0
  160.7140  202.0290  149.5930 C   0  0  0  0  0  2  0  0  0  0  0  0
  160.9450  209.2910  152.5180 C   0  0  0  0  0  0  0  0  0  0  0  0
  161.7070  206.9070  150.8980 C   0  0  1  0  0  0  0  0  0  0  0  0
  160.7950  207.9180  153.0160 C   0  0  0  0  0  0  0  0  0  0  0  0
  160.8390  203.6980  147.9090 O   0  0  0  0  0  1  0  0  0  0  0  0
  160.4960  203.5030  149.2470 C   0  0  2  0  0  3  0  0  0  0  0  0
  162.1880  203.9520  151.2150 C   0  0  0  0  0  2  0  0  0  0  0  0
  159.6270  212.7020  153.2600 N   0  0  0  0  0  1  0  0  0  0  0  0
  160.2940  210.3000  153.1090 C   0  0  0  0  0  3  0  0  0  0  0  0
  1 18  1  0  0  0  0
  2  5  1  0  0  0  0
  3 17  1  0  0  0  0
  4  2  2  0  0  0  0
  5 13  2  0  0  0  0
  6 21  1  0  0  0  0
  6  3  1  0  0  0  0
  8  1  1  0  0  0  0
  8 25  2  0  0  0  0
  9 16  1  6  0  0  0
  9 24  1  0  0  0  0
  9 19  1  0  0  0  0
 12 28  1  0  0  0  0
 13 30  1  0  0  0  0
 13 29  1  0  0  0  0
 15 18  1  0  0  0  0
 15 10  1  0  0  0  0
 17 12  2  0  0  0  0
 17 24  1  0  0  0  0
 19  2  1  6  0  0  0
 19 23  1  0  0  0  0
 20 11  1  0  0  0  0
 20  7  1  0  0  0  0
 21 16  1  0  0  0  0
 22 20  1  0  0  0  0
 23 25  1  0  0  0  0
 23 30  2  0  0  0  0
 24 14  1  1  0  0  0
 24  8  1  0  0  0  0
 25 15  1  0  0  0  0
 27 26  1  6  0  0  0
 27 22  1  0  0  0  0
 27 12  1  0  0  0  0
 28  7  1  0  0  0  0
M  END
>  <MODEL>
2

>  <REMARK>
 VINA RESULT:      -4.3      2.496      7.440
  Name = 
  0 active torsions:
  status: ('A' for Active; 'I' for Inactive)
                            x       y       z     vdW  Elec       q    Type
                         _______ _______ _______ _____ _____    ______ ____

>  <TORSDO>
F 0

$$$$
=
 OpenBabel11072411123D

 30 34  0  0  1  0  0  0  0  0999 V2000
  161.5930  208.4890  148.6350 O   0  0  0  0  0  0  0  0  0  0  0  0
  160.7880  207.5670  154.2430 C   0  0  0  0  0  0  0  0  0  0  0  0
  162.6830  204.8590  150.2870 C   0  0  0  0  0  2  0  0  0  0  0  0
  160.2490  206.5910  154.8280 O   0  0  0  0  0  0  0  0  0  0  0  0
  161.4250  208.6070  155.0600 C   0  0  0  0  0  3  0  0  0  0  0  0
  162.1080  203.7210  151.1430 C   0  0  0  0  0  2  0  0  0  0  0  0
  160.3530  205.8140  145.9350 C   0  0  0  0  0  2  0  0  0  0  0  0
  161.3310  208.0780  149.9360 C   0  0  0  0  0  0  0  0  0  0  0  0
  161.0650  206.4890  151.8920 C   0  0  2  0  0  3  0  0  0  0  0  0
  161.9560  211.5930  150.5110 C   0  0  0  0  0  1  0  0  0  0  0  0
  161.5810  205.3730  144.0040 C   0  0  0  0  0  1  0  0  0  0  0  0
  161.4100  205.3690  148.2110 C   0  0  0  0  0  0  0  0  0  0  0  0
  161.9660  209.6830  154.4980 C   0  0  0  0  0  0  0  0  0  0  0  0
  159.3370  206.6260  150.0780 C   0  0  0  0  0  1  0  0  0  0  0  0
  162.0130  210.2180  150.0450 N   0  0  0  0  0  0  0  0  0  0  0  0
  160.4560  205.1800  152.4470 C   0  0  0  0  0  2  0  0  0  0  0  0
  161.6170  205.6350  149.5380 C   0  0  0  0  0  0  0  0  0  0  0  0
  162.0090  209.8510  148.6360 C   0  0  0  0  0  2  0  0  0  0  0  0
  160.6650  207.7310  152.7350 C   0  0  2  0  0  3  0  0  0  0  0  0
  161.6930  205.5450  145.4410 N   0  0  0  0  0  0  0  0  0  0  0  0
  160.6570  203.9400  151.5750 C   0  0  0  0  0  2  0  0  0  0  0  0
  162.0610  204.2480  145.9880 C   0  0  0  0  0  2  0  0  0  0  0  0
  161.4080  208.9500  152.2180 C   0  0  0  0  0  0  0  0  0  0  0  0
  160.8420  206.7000  150.3460 C   0  0  1  0  0  0  0  0  0  0  0  0
  161.5500  209.0800  150.7630 C   0  0  0  0  0  0  0  0  0  0  0  0
  162.0340  203.0580  148.0420 O   0  0  0  0  0  1  0  0  0  0  0  0
  162.2690  204.3230  147.5020 C   0  0  2  0  0  3  0  0  0  0  0  0
  160.4100  206.1850  147.4110 C   0  0  0  0  0  2  0  0  0  0  0  0
  162.5740  210.6750  155.3150 N   0  0  0  0  0  1  0  0  0  0  0  0
  161.9820  209.8400  153.0370 C   0  0  0  0  0  3  0  0  0  0  0  0
  1 18  1  0  0  0  0
  1  8  1  0  0  0  0
  2  4  2  0  0  0  0
  2  5  1  0  0  0  0
  3  6  1  0  0  0  0
  6 21  1  0  0  0  0
  7 28  1  0  0  0  0
  8 24  1  0  0  0  0
  8 25  2  0  0  0  0
  9 16  1  1  0  0  0
  9 19  1  0  0  0  0
 11 20  1  0  0  0  0
 12 17  2  0  0  0  0
 13  5  2  0  0  0  0
 13 29  1  0  0  0  0
 15 10  1  0  0  0  0
 15 25  1  0  0  0  0
 17  3  1  0  0  0  0
 17 24  1  0  0  0  0
 18 15  1  0  0  0  0
 19 23  1  6  0  0  0
 19  2  1  0  0  0  0
 20  7  1  0  0  0  0
 20 22  1  0  0  0  0
 21 16  1  0  0  0  0
 22 27  1  0  0  0  0
 23 30  2  0  0  0  0
 24 14  1  6  0  0  0
 24  9  1  0  0  0  0
 25 23  1  0  0  0  0
 27 26  1  1  0  0  0
 27 12  1  0  0  0  0
 28 12  1  0  0  0  0
 30 13  1  0  0  0  0
M  END
>  <MODEL>
3

>  <REMARK>
 VINA RESULT:      -2.5      2.673      6.096
  Name = 
  0 active torsions:
  status: ('A' for Active; 'I' for Inactive)
                            x       y       z     vdW  Elec       q    Type
                         _______ _______ _______ _____ _____    ______ ____

>  <TORSDO>
F 0

$$$$
=
 OpenBabel11072411123D

 30 34  0  0  1  0  0  0  0  0999 V2000
  161.3270  207.7750  147.8900 O   0  0  0  0  0  0  0  0  0  0  0  0
  161.5240  203.1110  151.2300 C   0  0  0  0  0  0  0  0  0  0  0  0
  160.0820  208.0240  151.8250 C   0  0  0  0  0  2  0  0  0  0  0  0
  162.0010  202.9700  152.3860 O   0  0  0  0  0  0  0  0  0  0  0  0
  160.7960  201.9840  150.6310 C   0  0  0  0  0  3  0  0  0  0  0  0
  160.5660  207.7100  153.2470 C   0  0  0  0  0  2  0  0  0  0  0  0
  162.8660  211.2440  149.1480 C   0  0  0  0  0  2  0  0  0  0  0  0
  161.4490  206.7730  148.8440 C   0  0  0  0  0  0  0  0  0  0  0  0
  161.5080  205.7100  151.1440 C   0  0  2  0  0  3  0  0  0  0  0  0
  160.7480  204.7620  145.9220 C   0  0  0  0  0  1  0  0  0  0  0  0
  161.8570  213.2810  148.6360 C   0  0  0  0  0  1  0  0  0  0  0  0
  161.5710  209.5200  150.5060 C   0  0  0  0  0  0  0  0  0  0  0  0
  160.3140  202.0610  149.3940 C   0  0  0  0  0  0  0  0  0  0  0  0
  163.4220  207.0930  150.2950 C   0  0  0  0  0  1  0  0  0  0  0  0
  160.7480  205.7930  146.9450 N   0  0  0  0  0  0  0  0  0  0  0  0
  162.0600  205.7370  152.5890 C   0  0  0  0  0  2  0  0  0  0  0  0
  161.2200  208.2400  150.8450 C   0  0  0  0  0  0  0  0  0  0  0  0
  160.9070  207.2100  146.6510 C   0  0  0  0  0  2  0  0  0  0  0  0
  161.8080  204.3680  150.4220 C   0  0  2  0  0  3  0  0  0  0  0  0
  161.5890  211.9360  149.1110 N   0  0  0  0  0  0  0  0  0  0  0  0
  161.9610  207.0840  153.3050 C   0  0  0  0  0  2  0  0  0  0  0  0
  161.1700  212.0620  150.4990 C   0  0  0  0  0  2  0  0  0  0  0  0
  161.1200  204.3610  149.0690 C   0  0  0  0  0  0  0  0  0  0  0  0
  161.8970  206.9710  150.2820 C   0  0  1  0  0  0  0  0  0  0  0  0
  161.1360  205.6130  148.3020 C   0  0  0  0  0  0  0  0  0  0  0  0
  160.9800  210.7580  152.4740 O   0  0  0  0  0  1  0  0  0  0  0  0
  160.7980  210.7010  151.0920 C   0  0  2  0  0  3  0  0  0  0  0  0
  162.6470  209.7700  149.4650 C   0  0  0  0  0  2  0  0  0  0  0  0
  159.6160  200.9530  148.8410 N   0  0  0  0  0  1  0  0  0  0  0  0
  160.4560  203.2940  148.6080 C   0  0  0  0  0  3  0  0  0  0  0  0
  1  8  1  0  0  0  0
  2  4  2  0  0  0  0
  3  6  1  0  0  0  0
  5  2  1  0  0  0  0
  6 21  1  0  0  0  0
  7 28  1  0  0  0  0
  8 24  1  0  0  0  0
  9 16  1  1  0  0  0
 10 15  1  0  0  0  0
 11 20  1  0  0  0  0
 12 17  2  0  0  0  0
 12 27  1  0  0  0  0
 13  5  2  0  0  0  0
 15 25  1  0  0  0  0
 16 21  1  0  0  0  0
 17  3  1  0  0  0  0
 18 15  1  0  0  0  0
 18  1  1  0  0  0  0
 19 23  1  6  0  0  0
 19  9  1  0  0  0  0
 19  2  1  0  0  0  0
 20  7  1  0  0  0  0
 20 22  1  0  0  0  0
 22 27  1  0  0  0  0
 24 14  1  1  0  0  0
 24 17  1  0  0  0  0
 24  9  1  0  0  0  0
 25  8  2  0  0  0  0
 25 23  1  0  0  0  0
 27 26  1  1  0  0  0
 28 12  1  0  0  0  0
 29 13  1  0  0  0  0
 30 23  2  0  0  0  0
 30 13  1  0  0  0  0
M  END
>  <MODEL>
4

>  <REMARK>
 VINA RESULT:      -1.7      2.176      3.249
  Name = 
  0 active torsions:
  status: ('A' for Active; 'I' for Inactive)
                            x       y       z     vdW  Elec       q    Type
                         _______ _______ _______ _____ _____    ______ ____

>  <TORSDO>
F 0

$$$$
=
 OpenBabel11072411123D

 30 34  0  0  1  0  0  0  0  0999 V2000
  161.1140  204.8910  151.8210 O   0  0  0  0  0  0  0  0  0  0  0  0
  160.7770  203.1650  146.3570 C   0  0  0  0  0  0  0  0  0  0  0  0
  163.0430  207.0530  148.8720 C   0  0  0  0  0  2  0  0  0  0  0  0
  160.4900  203.8230  145.3230 O   0  0  0  0  0  0  0  0  0  0  0  0
  161.2060  201.7690  146.2020 C   0  0  0  0  0  3  0  0  0  0  0  0
  162.7690  207.7280  147.5200 C   0  0  0  0  0  2  0  0  0  0  0  0
  160.3720  208.6950  152.8030 C   0  0  0  0  0  2  0  0  0  0  0  0
  161.0050  204.6740  150.4540 C   0  0  0  0  0  0  0  0  0  0  0  0
  161.1800  205.1630  147.9730 C   0  0  2  0  0  3  0  0  0  0  0  0
  160.8710  201.2590  151.6360 C   0  0  0  0  0  1  0  0  0  0  0  0
  161.5810  209.7800  154.4730 C   0  0  0  0  0  1  0  0  0  0  0  0
  161.5990  207.8170  150.7480 C   0  0  0  0  0  0  0  0  0  0  0  0
  161.4730  201.0140  147.2640 C   0  0  0  0  0  0  0  0  0  0  0  0
  159.3860  206.2030  149.3860 C   0  0  0  0  0  1  0  0  0  0  0  0
  161.2070  202.6570  151.4280 N   0  0  0  0  0  0  0  0  0  0  0  0
  160.8970  206.1340  146.8040 C   0  0  0  0  0  2  0  0  0  0  0  0
  161.8010  206.9220  149.7320 C   0  0  0  0  0  0  0  0  0  0  0  0
  161.2210  203.6430  152.4990 C   0  0  0  0  0  2  0  0  0  0  0  0
  160.5550  203.7600  147.7400 C   0  0  2  0  0  3  0  0  0  0  0  0
  161.7150  208.9310  153.3040 N   0  0  0  0  0  0  0  0  0  0  0  0
  161.3250  207.5840  147.0350 C   0  0  0  0  0  2  0  0  0  0  0  0
  162.3820  209.7270  152.2850 C   0  0  0  0  0  2  0  0  0  0  0  0
  160.9890  202.8250  148.8550 C   0  0  0  0  0  0  0  0  0  0  0  0
  160.8480  205.7530  149.3970 C   0  0  1  0  0  0  0  0  0  0  0  0
  161.0360  203.3780  150.2130 C   0  0  0  0  0  0  0  0  0  0  0  0
  162.7060  209.7840  149.9340 O   0  0  0  0  0  1  0  0  0  0  0  0
  162.6350  208.9080  151.0180 C   0  0  2  0  0  3  0  0  0  0  0  0
  160.4110  207.6650  151.6820 C   0  0  0  0  0  2  0  0  0  0  0  0
  161.8850  199.6650  147.0820 N   0  0  0  0  0  1  0  0  0  0  0  0
  161.3900  201.5690  148.6210 C   0  0  0  0  0  3  0  0  0  0  0  0
  1 18  1  0  0  0  0
  3 17  1  0  0  0  0
  4  2  2  0  0  0  0
  5  2  1  0  0  0  0
  5 13  2  0  0  0  0
  6  3  1  0  0  0  0
  7 20  1  0  0  0  0
  8  1  1  0  0  0  0
  9 16  1  6  0  0  0
  9 24  1  0  0  0  0
 12 27  1  0  0  0  0
 12 28  1  0  0  0  0
 13 30  1  0  0  0  0
 15 10  1  0  0  0  0
 15 18  1  0  0  0  0
 16 21  1  0  0  0  0
 17 12  2  0  0  0  0
 19  2  1  6  0  0  0
 19  9  1  0  0  0  0
 19 23  1  0  0  0  0
 20 11  1  0  0  0  0
 21  6  1  0  0  0  0
 22 20  1  0  0  0  0
 23 25  1  0  0  0  0
 24 14  1  1  0  0  0
 24 17  1  0  0  0  0
 24  8  1  0  0  0  0
 25  8  2  0  0  0  0
 25 15  1  0  0  0  0
 27 26  1  6  0  0  0
 27 22  1  0  0  0  0
 28  7  1  0  0  0  0
 29 13  1  0  0  0  0
 30 23  2  0  0  0  0
M  END
>  <MODEL>
5

>  <REMARK>
 VINA RESULT:      -1.7      3.273      6.324
  Name = 
  0 active torsions:
  status: ('A' for Active; 'I' for Inactive)
                            x       y       z     vdW  Elec       q    Type
                         _______ _______ _______ _____ _____    ______ ____

>  <TORSDO>
F 0

$$$$
=
 OpenBabel11072411123D

 30 34  0  0  1  0  0  0  0  0999 V2000
  161.1690  206.9740  148.0930 O   0  0  0  0  0  0  0  0  0  0  0  0
  161.4090  201.2450  147.8360 C   0  0  0  0  0  0  0  0  0  0  0  0
  159.7340  204.7250  151.2510 C   0  0  0  0  0  2  0  0  0  0  0  0
  161.8370  200.4200  148.6840 O   0  0  0  0  0  0  0  0  0  0  0  0
  160.7580  200.7290  146.6240 C   0  0  0  0  0  3  0  0  0  0  0  0
  160.1650  203.5990  152.2010 C   0  0  0  0  0  2  0  0  0  0  0  0
  162.5000  208.9240  151.3190 C   0  0  0  0  0  2  0  0  0  0  0  0
  161.2890  205.5970  148.2270 C   0  0  0  0  0  0  0  0  0  0  0  0
  161.2870  203.3380  149.3760 C   0  0  2  0  0  3  0  0  0  0  0  0
  160.8090  205.8280  144.6510 C   0  0  0  0  0  1  0  0  0  0  0  0
  161.4300  210.8350  152.1150 C   0  0  0  0  0  1  0  0  0  0  0  0
  161.2180  206.7230  151.2360 C   0  0  0  0  0  0  0  0  0  0  0  0
  160.3310  201.5540  145.6730 C   0  0  0  0  0  0  0  0  0  0  0  0
  163.1780  204.9580  149.6860 C   0  0  0  0  0  1  0  0  0  0  0  0
  160.7190  206.0030  146.0900 N   0  0  0  0  0  0  0  0  0  0  0  0
  161.7700  202.4660  150.5580 C   0  0  0  0  0  2  0  0  0  0  0  0
  160.9060  205.5070  150.6880 C   0  0  0  0  0  0  0  0  0  0  0  0
  160.8310  207.2980  146.7470 C   0  0  0  0  0  2  0  0  0  0  0  0
  161.6760  202.7340  147.9990 C   0  0  2  0  0  3  0  0  0  0  0  0
  161.1980  209.4830  151.6390 N   0  0  0  0  0  0  0  0  0  0  0  0
  161.5810  203.0780  151.9460 C   0  0  0  0  0  2  0  0  0  0  0  0
  160.7100  208.7200  152.7780 C   0  0  0  0  0  2  0  0  0  0  0  0
  161.0530  203.5640  146.8910 C   0  0  0  0  0  0  0  0  0  0  0  0
  161.6620  204.8640  149.5040 C   0  0  1  0  0  0  0  0  0  0  0  0
  161.0510  205.0210  147.0660 C   0  0  0  0  0  0  0  0  0  0  0  0
  160.4840  206.4710  153.5070 O   0  0  0  0  0  1  0  0  0  0  0  0
  160.3690  207.2830  152.3770 C   0  0  2  0  0  3  0  0  0  0  0  0
  162.3300  207.5700  150.6430 C   0  0  0  0  0  2  0  0  0  0  0  0
  159.7060  201.0250  144.5110 N   0  0  0  0  0  1  0  0  0  0  0  0
  160.4560  203.0100  145.8290 C   0  0  0  0  0  3  0  0  0  0  0  0
  1  8  1  0  0  0  0
  2 19  1  0  0  0  0
  2  4  2  0  0  0  0
  3  6  1  0  0  0  0
  5  2  1  0  0  0  0
  7 20  1  0  0  0  0
  8 24  1  0  0  0  0
  9 24  1  0  0  0  0
  9 16  1  1  0  0  0
 10 15  1  0  0  0  0
 12 27  1  0  0  0  0
 13 30  1  0  0  0  0
 13  5  2  0  0  0  0
 15 18  1  0  0  0  0
 15 25  1  0  0  0  0
 16 21  1  0  0  0  0
 17 12  2  0  0  0  0
 17  3  1  0  0  0  0
 18  1  1  0  0  0  0
 19 23  1  6  0  0  0
 19  9  1  0  0  0  0
 20 11  1  0  0  0  0
 20 22  1  0  0  0  0
 21  6  1  0  0  0  0
 23 25  1  0  0  0  0
 24 14  1  1  0  0  0
 24 17  1  0  0  0  0
 25  8  2  0  0  0  0
 27 22  1  0  0  0  0
 27 26  1  1  0  0  0
 28 12  1  0  0  0  0
 28  7  1  0  0  0  0
 29 13  1  0  0  0  0
 30 23  2  0  0  0  0
M  END
>  <MODEL>
6

>  <REMARK>
 VINA RESULT:      -1.4      3.294      6.234
  Name = 
  0 active torsions:
  status: ('A' for Active; 'I' for Inactive)
                            x       y       z     vdW  Elec       q    Type
                         _______ _______ _______ _____ _____    ______ ____

>  <TORSDO>
F 0

$$$$
