=
 OpenBabel11072413313D

 36 38  0  0  1  0  0  0  0  0999 V2000
  160.9350  204.8460  151.3840 C   0  0  0  0  0  0  0  0  0  0  0  0
  161.3500  204.9890  152.6780 N   0  0  0  0  0  0  0  0  0  0  0  0
  160.7720  206.1110  149.1990 C   0  0  0  0  0  3  0  0  0  0  0  0
  161.5860  208.0560  150.0580 N   0  0  0  0  0  0  0  0  0  0  0  0
  161.5620  207.1140  151.0150 C   0  0  0  0  0  0  0  0  0  0  0  0
  161.8650  206.1720  153.1350 C   0  0  0  0  0  3  0  0  0  0  0  0
  161.9720  207.2480  152.3000 N   0  0  0  0  0  0  0  0  0  0  0  0
  161.0640  205.9430  150.5380 C   0  0  0  0  0  0  0  0  0  0  0  0
  161.1260  207.4380  148.9370 C   0  0  0  0  0  3  0  0  0  0  0  0
  162.1120  209.4300  150.1370 C   0  0  2  0  0  3  0  0  0  0  0  0
  161.4570  210.2320  151.2550 C   0  0  0  0  0  1  0  0  0  0  0  0
  161.9390  210.1820  148.8170 C   0  0  0  0  0  2  0  0  0  0  0  0
  162.4830  211.5330  148.9300 N   0  0  0  0  0  2  0  0  0  0  0  0
  161.3500  213.5360  148.6170 F   0  0  0  0  0  0  0  0  0  0  0  0
  162.7790  212.8550  146.9960 O   0  0  0  0  0  1  0  0  0  0  0  0
  161.8480  212.4250  147.9550 C   0  0  1  0  0  0  0  0  0  0  0  0
  160.7650  211.7660  147.3280 O   0  0  0  0  0  0  0  0  0  0  0  0
  158.8560  213.0000  144.3270 C   0  0  0  0  0  2  0  0  0  0  0  0
  158.3100  214.2340  145.0450 C   0  0  0  0  0  2  0  0  0  0  0  0
  160.0010  212.3360  145.1090 C   0  0  0  0  0  2  0  0  0  0  0  0
  157.7790  213.8720  146.4410 C   0  0  0  0  0  2  0  0  0  0  0  0
  158.5870  212.7690  147.1420 C   0  0  0  0  0  2  0  0  0  0  0  0
  160.0120  212.7050  146.6000 C   0  0  0  0  0  3  0  0  0  0  0  0
  160.3800  203.5400  150.9150 C   0  0  0  0  0  2  0  0  0  0  0  0
  159.5100  201.3950  149.2100 O   0  0  0  0  0  0  0  0  0  0  0  0
  160.5480  202.0280  148.8790 C   0  0  0  0  0  0  0  0  0  0  0  0
  161.0240  203.1140  149.6790 N   0  0  0  0  0  2  0  0  0  0  0  0
  161.3050  201.6210  147.6560 C   0  0  0  0  0  2  0  0  0  0  0  0
  160.8440  202.3660  146.4020 C   0  0  2  0  0  3  0  0  0  0  0  0
  159.4700  201.8580  144.5040 O   0  0  0  0  0  0  0  0  0  0  0  0
  160.6280  200.0920  145.3890 O   0  0  0  0  0  1  0  0  0  0  0  0
  160.2660  201.4330  145.3820 C   0  0  0  0  0  0  0  0  0  0  0  0
  161.8820  203.1270  145.8520 O   0  0  0  0  0  0  0  0  0  0  0  0
  161.5000  204.4540  146.0550 C   0  0  0  0  0  2  0  0  0  0  0  0
  161.0300  204.9950  144.8560 O   0  0  0  0  0  0  0  0  0  0  0  0
  160.3250  206.1370  145.2410 C   0  0  0  0  0  1  0  0  0  0  0  0
  1  2  1  0  0  0  0
  2  6  2  0  0  0  0
  3  8  1  0  0  0  0
  4 10  1  0  0  0  0
  4  5  1  0  0  0  0
  5  7  2  0  0  0  0
  7  6  1  0  0  0  0
  8  5  1  0  0  0  0
  8  1  2  0  0  0  0
  9  3  2  0  0  0  0
  9  4  1  0  0  0  0
 10 11  1  1  0  0  0
 12 13  1  0  0  0  0
 12 10  1  0  0  0  0
 16 15  1  6  0  0  0
 16 14  1  0  0  0  0
 16 13  1  0  0  0  0
 17 16  1  0  0  0  0
 18 19  1  0  0  0  0
 18 20  1  0  0  0  0
 19 21  1  0  0  0  0
 20 23  1  0  0  0  0
 21 22  1  0  0  0  0
 23 22  1  0  0  0  0
 23 17  1  0  0  0  0
 24  1  1  0  0  0  0
 26 25  2  0  0  0  0
 26 27  1  0  0  0  0
 27 24  1  0  0  0  0
 28 26  1  0  0  0  0
 29 28  1  1  0  0  0
 30 32  2  0  0  0  0
 32 31  1  0  0  0  0
 32 29  1  0  0  0  0
 33 34  1  0  0  0  0
 33 29  1  0  0  0  0
 35 36  1  0  0  0  0
 35 34  1  0  0  0  0
M  END
>  <MODEL>
1

>  <REMARK>
 VINA RESULT:      -7.4      0.000      0.000
  Name = 
  14 active torsions:
  status: ('A' for Active; 'I' for Inactive)
    1  A    between atoms: O_2  and  C_25
    2  A    between atoms: O_2  and  C_31
    3  A    between atoms: C_4  and  C_10
    4  A    between atoms: O_5  and  C_12
    5  A    between atoms: C_10  and  N_23
    6  A    between atoms: C_11  and  C_20
    7  A    between atoms: C_12  and  O_36
    8  A    between atoms: N_14  and  C_21
    9  A    between atoms: C_20  and  C_22
   10  A    between atoms: C_21  and  C_35
   11  A    between atoms: C_22  and  C_33
   12  A    between atoms: C_22  and  O_36
   13  A    between atoms: C_31  and  N_34
   14  A    between atoms: N_34  and  C_35
                            x       y       z     vdW  Elec       q    Type
                         _______ _______ _______ _____ _____    ______ ____

>  <TORSDO>
F 14

$$$$
=
 OpenBabel11072413313D

 36 38  0  0  1  0  0  0  0  0999 V2000
  161.5540  207.2300  150.7570 C   0  0  0  0  0  0  0  0  0  0  0  0
  161.5630  205.8720  150.8960 N   0  0  0  0  0  0  0  0  0  0  0  0
  161.3910  209.3650  152.1050 C   0  0  0  0  0  3  0  0  0  0  0  0
  161.1080  208.2970  154.0960 N   0  0  0  0  0  0  0  0  0  0  0  0
  161.2560  207.3920  153.1140 C   0  0  0  0  0  0  0  0  0  0  0  0
  161.4240  205.2790  152.1230 C   0  0  0  0  0  3  0  0  0  0  0  0
  161.2660  206.0430  153.2450 N   0  0  0  0  0  0  0  0  0  0  0  0
  161.4100  207.9990  151.9080 C   0  0  0  0  0  0  0  0  0  0  0  0
  161.2150  209.5070  153.4850 C   0  0  0  0  0  3  0  0  0  0  0  0
  160.9860  208.0640  155.5450 C   0  0  2  0  0  3  0  0  0  0  0  0
  159.6760  207.3770  155.9090 C   0  0  0  0  0  1  0  0  0  0  0  0
  161.1050  209.3640  156.3420 C   0  0  0  0  0  2  0  0  0  0  0  0
  159.8090  209.7310  156.9060 N   0  0  0  0  0  2  0  0  0  0  0  0
  158.4940  211.6120  157.2600 F   0  0  0  0  0  0  0  0  0  0  0  0
  160.4370  211.8680  156.1220 O   0  0  0  0  0  1  0  0  0  0  0  0
  159.3510  211.0090  156.3530 C   0  0  1  0  0  0  0  0  0  0  0  0
  158.6340  210.7880  155.1540 O   0  0  0  0  0  0  0  0  0  0  0  0
  157.6500  213.4610  152.6920 C   0  0  0  0  0  2  0  0  0  0  0  0
  156.6760  214.1420  153.6540 C   0  0  0  0  0  2  0  0  0  0  0  0
  158.5680  212.4600  153.4120 C   0  0  0  0  0  2  0  0  0  0  0  0
  155.7840  213.1090  154.3610 C   0  0  0  0  0  2  0  0  0  0  0  0
  156.4990  211.7850  154.6710 C   0  0  0  0  0  2  0  0  0  0  0  0
  158.0090  211.9860  154.7620 C   0  0  0  0  0  3  0  0  0  0  0  0
  161.7120  207.8460  149.4040 C   0  0  0  0  0  2  0  0  0  0  0  0
  160.5700  206.9370  146.9270 O   0  0  0  0  0  0  0  0  0  0  0  0
  161.6980  206.4840  147.2590 C   0  0  0  0  0  0  0  0  0  0  0  0
  162.3250  206.9070  148.4720 N   0  0  0  0  0  2  0  0  0  0  0  0
  162.3740  205.4720  146.3900 C   0  0  0  0  0  2  0  0  0  0  0  0
  161.8100  204.0620  146.5760 C   0  0  2  0  0  3  0  0  0  0  0  0
  160.7640  202.3740  145.2320 O   0  0  0  0  0  1  0  0  0  0  0  0
  160.7780  204.4820  144.3400 O   0  0  0  0  0  0  0  0  0  0  0  0
  161.0960  203.5830  145.3490 C   0  0  0  0  0  0  0  0  0  0  0  0
  160.9770  203.9910  147.6980 O   0  0  0  0  0  0  0  0  0  0  0  0
  161.4570  202.9040  148.4320 C   0  0  0  0  0  2  0  0  0  0  0  0
  160.4130  202.0100  148.6820 O   0  0  0  0  0  0  0  0  0  0  0  0
  161.0380  200.8910  149.2360 C   0  0  0  0  0  1  0  0  0  0  0  0
  1  2  2  0  0  0  0
  1  8  1  0  0  0  0
  2  6  1  0  0  0  0
  3  9  2  0  0  0  0
  4 10  1  0  0  0  0
  5  7  1  0  0  0  0
  5  4  1  0  0  0  0
  6  7  2  0  0  0  0
  8  3  1  0  0  0  0
  8  5  2  0  0  0  0
  9  4  1  0  0  0  0
 10 11  1  6  0  0  0
 10 12  1  0  0  0  0
 12 13  1  0  0  0  0
 16 15  1  6  0  0  0
 16 13  1  0  0  0  0
 16 14  1  0  0  0  0
 17 16  1  0  0  0  0
 18 20  1  0  0  0  0
 18 19  1  0  0  0  0
 19 21  1  0  0  0  0
 20 23  1  0  0  0  0
 21 22  1  0  0  0  0
 22 23  1  0  0  0  0
 23 17  1  0  0  0  0
 24  1  1  0  0  0  0
 25 26  2  0  0  0  0
 26 27  1  0  0  0  0
 27 24  1  0  0  0  0
 28 26  1  0  0  0  0
 29 28  1  6  0  0  0
 29 33  1  0  0  0  0
 30 32  1  0  0  0  0
 31 32  2  0  0  0  0
 32 29  1  0  0  0  0
 33 34  1  0  0  0  0
 34 35  1  0  0  0  0
 35 36  1  0  0  0  0
M  END
>  <MODEL>
2

>  <REMARK>
 VINA RESULT:      -7.2      4.082      5.911
  Name = 
  14 active torsions:
  status: ('A' for Active; 'I' for Inactive)
    1  A    between atoms: O_2  and  C_25
    2  A    between atoms: O_2  and  C_31
    3  A    between atoms: C_4  and  C_10
    4  A    between atoms: O_5  and  C_12
    5  A    between atoms: C_10  and  N_23
    6  A    between atoms: C_11  and  C_20
    7  A    between atoms: C_12  and  O_36
    8  A    between atoms: N_14  and  C_21
    9  A    between atoms: C_20  and  C_22
   10  A    between atoms: C_21  and  C_35
   11  A    between atoms: C_22  and  C_33
   12  A    between atoms: C_22  and  O_36
   13  A    between atoms: C_31  and  N_34
   14  A    between atoms: N_34  and  C_35
                            x       y       z     vdW  Elec       q    Type
                         _______ _______ _______ _____ _____    ______ ____

>  <TORSDO>
F 14

$$$$
=
 OpenBabel11072413313D

 36 38  0  0  1  0  0  0  0  0999 V2000
  161.2590  209.3120  153.8780 C   0  0  0  0  0  0  0  0  0  0  0  0
  161.5770  210.3110  153.0030 N   0  0  0  0  0  0  0  0  0  0  0  0
  160.9140  206.8080  153.9950 C   0  0  0  0  0  3  0  0  0  0  0  0
  161.2420  206.4790  151.7670 N   0  0  0  0  0  0  0  0  0  0  0  0
  161.3860  207.7830  152.0570 C   0  0  0  0  0  0  0  0  0  0  0  0
  161.8000  210.0540  151.6760 C   0  0  0  0  0  3  0  0  0  0  0  0
  161.7020  208.7790  151.1940 N   0  0  0  0  0  0  0  0  0  0  0  0
  161.1790  208.0150  153.3790 C   0  0  0  0  0  0  0  0  0  0  0  0
  160.9770  205.8750  152.9560 C   0  0  0  0  0  3  0  0  0  0  0  0
  161.4490  205.7990  150.4760 C   0  0  2  0  0  3  0  0  0  0  0  0
  160.6250  206.4260  149.3580 C   0  0  0  0  0  1  0  0  0  0  0  0
  161.1230  204.3080  150.5590 C   0  0  0  0  0  2  0  0  0  0  0  0
  160.4340  203.8720  149.3480 N   0  0  0  0  0  2  0  0  0  0  0  0
  161.4460  201.9170  150.0860 F   0  0  0  0  0  0  0  0  0  0  0  0
  159.7150  201.7400  148.6340 O   0  0  0  0  0  1  0  0  0  0  0  0
  160.8340  202.5080  148.9910 C   0  0  1  0  0  0  0  0  0  0  0  0
  161.7690  202.5390  147.9300 O   0  0  0  0  0  0  0  0  0  0  0  0
  162.4930  205.4650  145.6750 C   0  0  0  0  0  2  0  0  0  0  0  0
  161.0820  205.5010  145.0880 C   0  0  0  0  0  2  0  0  0  0  0  0
  162.5720  204.5870  146.9350 C   0  0  0  0  0  2  0  0  0  0  0  0
  160.6020  204.0910  144.7110 C   0  0  0  0  0  2  0  0  0  0  0  0
  161.0960  202.9950  145.6670 C   0  0  0  0  0  2  0  0  0  0  0  0
  161.4240  203.5720  147.0410 C   0  0  0  0  0  3  0  0  0  0  0  0
  161.0260  209.6260  155.3210 C   0  0  0  0  0  2  0  0  0  0  0  0
  158.2350  210.1760  155.7390 O   0  0  0  0  0  0  0  0  0  0  0  0
  159.0260  211.1550  155.6700 C   0  0  0  0  0  0  0  0  0  0  0  0
  160.4280  210.9460  155.4770 N   0  0  0  0  0  2  0  0  0  0  0  0
  158.4910  212.5470  155.7630 C   0  0  0  0  0  2  0  0  0  0  0  0
  157.6600  212.9440  154.5410 C   0  0  2  0  0  3  0  0  0  0  0  0
  155.3530  213.1880  153.9350 O   0  0  0  0  0  0  0  0  0  0  0  0
  155.7440  212.4250  156.0580 O   0  0  0  0  0  1  0  0  0  0  0  0
  156.1900  212.8700  154.8210 C   0  0  0  0  0  0  0  0  0  0  0  0
  157.9960  212.1690  153.4240 O   0  0  0  0  0  0  0  0  0  0  0  0
  158.3640  213.0940  152.4450 C   0  0  0  0  0  2  0  0  0  0  0  0
  159.7400  213.0100  152.2150 O   0  0  0  0  0  0  0  0  0  0  0  0
  159.8810  213.2650  150.8500 C   0  0  0  0  0  1  0  0  0  0  0  0
  1 24  1  0  0  0  0
  2  1  2  0  0  0  0
  4  5  1  0  0  0  0
  4  9  1  0  0  0  0
  5  8  2  0  0  0  0
  6  2  1  0  0  0  0
  7  6  2  0  0  0  0
  7  5  1  0  0  0  0
  8  1  1  0  0  0  0
  8  3  1  0  0  0  0
  9  3  2  0  0  0  0
 10 11  1  6  0  0  0
 10 12  1  0  0  0  0
 10  4  1  0  0  0  0
 13 12  1  0  0  0  0
 16 15  1  6  0  0  0
 16 13  1  0  0  0  0
 16 14  1  0  0  0  0
 17 16  1  0  0  0  0
 18 20  1  0  0  0  0
 19 18  1  0  0  0  0
 20 23  1  0  0  0  0
 21 19  1  0  0  0  0
 21 22  1  0  0  0  0
 22 23  1  0  0  0  0
 23 17  1  0  0  0  0
 24 27  1  0  0  0  0
 26 25  2  0  0  0  0
 26 28  1  0  0  0  0
 27 26  1  0  0  0  0
 29 32  1  0  0  0  0
 29 28  1  1  0  0  0
 30 32  2  0  0  0  0
 32 31  1  0  0  0  0
 33 29  1  0  0  0  0
 34 33  1  0  0  0  0
 35 34  1  0  0  0  0
 36 35  1  0  0  0  0
M  END
>  <MODEL>
3

>  <REMARK>
 VINA RESULT:      -7.1      4.498      9.548
  Name = 
  14 active torsions:
  status: ('A' for Active; 'I' for Inactive)
    1  A    between atoms: O_2  and  C_25
    2  A    between atoms: O_2  and  C_31
    3  A    between atoms: C_4  and  C_10
    4  A    between atoms: O_5  and  C_12
    5  A    between atoms: C_10  and  N_23
    6  A    between atoms: C_11  and  C_20
    7  A    between atoms: C_12  and  O_36
    8  A    between atoms: N_14  and  C_21
    9  A    between atoms: C_20  and  C_22
   10  A    between atoms: C_21  and  C_35
   11  A    between atoms: C_22  and  C_33
   12  A    between atoms: C_22  and  O_36
   13  A    between atoms: C_31  and  N_34
   14  A    between atoms: N_34  and  C_35
                            x       y       z     vdW  Elec       q    Type
                         _______ _______ _______ _____ _____    ______ ____

>  <TORSDO>
F 14

$$$$
=
 OpenBabel11072413313D

 36 38  0  0  1  0  0  0  0  0999 V2000
  161.0370  207.5170  154.2230 C   0  0  0  0  0  0  0  0  0  0  0  0
  161.0340  206.1720  153.9830 N   0  0  0  0  0  0  0  0  0  0  0  0
  161.3830  209.7410  153.0670 C   0  0  0  0  0  3  0  0  0  0  0  0
  161.9010  208.8160  151.0530 N   0  0  0  0  0  0  0  0  0  0  0  0
  161.6260  207.8440  151.9390 C   0  0  0  0  0  0  0  0  0  0  0  0
  161.3190  205.6680  152.7420 C   0  0  0  0  0  3  0  0  0  0  0  0
  161.6210  206.5090  151.7080 N   0  0  0  0  0  0  0  0  0  0  0  0
  161.3290  208.3650  153.1580 C   0  0  0  0  0  0  0  0  0  0  0  0
  161.7300  209.9800  151.7340 C   0  0  0  0  0  3  0  0  0  0  0  0
  162.1990  208.6870  149.6160 C   0  0  2  0  0  3  0  0  0  0  0  0
  162.0670  210.0160  148.8820 C   0  0  0  0  0  1  0  0  0  0  0  0
  161.3000  207.6530  148.9380 C   0  0  0  0  0  2  0  0  0  0  0  0
  161.9610  207.1030  147.7580 N   0  0  0  0  0  2  0  0  0  0  0  0
  160.0210  205.8400  147.9430 F   0  0  0  0  0  0  0  0  0  0  0  0
  160.8540  206.2180  145.8700 O   0  0  0  0  0  1  0  0  0  0  0  0
  161.1900  205.9820  147.2120 C   0  0  1  0  0  0  0  0  0  0  0  0
  161.9300  204.7820  147.3310 O   0  0  0  0  0  0  0  0  0  0  0  0
  160.8840  201.2630  148.1670 C   0  0  0  0  0  2  0  0  0  0  0  0
  159.9170  201.6970  149.2690 C   0  0  0  0  0  2  0  0  0  0  0  0
  161.3220  202.4450  147.2870 C   0  0  0  0  0  2  0  0  0  0  0  0
  160.5560  202.7530  150.1830 C   0  0  0  0  0  2  0  0  0  0  0  0
  161.4930  203.7230  149.4450 C   0  0  0  0  0  2  0  0  0  0  0  0
  161.1340  203.8100  147.9640 C   0  0  0  0  0  3  0  0  0  0  0  0
  160.7190  208.0350  155.5880 C   0  0  0  0  0  2  0  0  0  0  0  0
  160.6620  210.3810  157.2490 O   0  0  0  0  0  0  0  0  0  0  0  0
  159.7520  210.2450  156.3880 C   0  0  0  0  0  0  0  0  0  0  0  0
  159.7330  209.1070  155.5220 N   0  0  0  0  0  2  0  0  0  0  0  0
  158.6680  211.2690  156.2890 C   0  0  0  0  0  2  0  0  0  0  0  0
  158.7070  212.0460  154.9720 C   0  0  2  0  0  3  0  0  0  0  0  0
  158.8510  214.3220  154.2300 O   0  0  0  0  0  0  0  0  0  0  0  0
  158.6640  214.0280  156.4930 O   0  0  0  0  0  1  0  0  0  0  0  0
  158.7530  213.5260  155.2010 C   0  0  0  0  0  0  0  0  0  0  0  0
  157.6310  211.7020  154.1460 O   0  0  0  0  0  0  0  0  0  0  0  0
  156.4950  211.9110  154.9310 C   0  0  0  0  0  2  0  0  0  0  0  0
  155.4270  211.1720  154.4160 O   0  0  0  0  0  0  0  0  0  0  0  0
  155.1150  210.2600  155.4250 C   0  0  0  0  0  1  0  0  0  0  0  0
  1 24  1  0  0  0  0
  2  1  1  0  0  0  0
  3  8  1  0  0  0  0
  4  9  1  0  0  0  0
  4  5  1  0  0  0  0
  5  8  1  0  0  0  0
  6  2  2  0  0  0  0
  7  5  2  0  0  0  0
  7  6  1  0  0  0  0
  8  1  2  0  0  0  0
  9  3  2  0  0  0  0
 10 11  1  6  0  0  0
 10  4  1  0  0  0  0
 12 10  1  0  0  0  0
 13 12  1  0  0  0  0
 16 15  1  6  0  0  0
 16 17  1  0  0  0  0
 16 13  1  0  0  0  0
 16 14  1  0  0  0  0
 17 23  1  0  0  0  0
 18 19  1  0  0  0  0
 19 21  1  0  0  0  0
 20 23  1  0  0  0  0
 20 18  1  0  0  0  0
 22 21  1  0  0  0  0
 23 22  1  0  0  0  0
 26 25  2  0  0  0  0
 27 24  1  0  0  0  0
 27 26  1  0  0  0  0
 28 26  1  0  0  0  0
 29 32  1  0  0  0  0
 29 28  1  1  0  0  0
 30 32  2  0  0  0  0
 32 31  1  0  0  0  0
 33 34  1  0  0  0  0
 33 29  1  0  0  0  0
 35 34  1  0  0  0  0
 35 36  1  0  0  0  0
M  END
>  <MODEL>
4

>  <REMARK>
 VINA RESULT:      -7.0      4.560      9.510
  Name = 
  14 active torsions:
  status: ('A' for Active; 'I' for Inactive)
    1  A    between atoms: O_2  and  C_25
    2  A    between atoms: O_2  and  C_31
    3  A    between atoms: C_4  and  C_10
    4  A    between atoms: O_5  and  C_12
    5  A    between atoms: C_10  and  N_23
    6  A    between atoms: C_11  and  C_20
    7  A    between atoms: C_12  and  O_36
    8  A    between atoms: N_14  and  C_21
    9  A    between atoms: C_20  and  C_22
   10  A    between atoms: C_21  and  C_35
   11  A    between atoms: C_22  and  C_33
   12  A    between atoms: C_22  and  O_36
   13  A    between atoms: C_31  and  N_34
   14  A    between atoms: N_34  and  C_35
                            x       y       z     vdW  Elec       q    Type
                         _______ _______ _______ _____ _____    ______ ____

>  <TORSDO>
F 14

$$$$
=
 OpenBabel11072413313D

 36 38  0  0  1  0  0  0  0  0999 V2000
  161.9650  208.9860  150.0310 C   0  0  0  0  0  0  0  0  0  0  0  0
  161.9560  208.7350  148.6880 N   0  0  0  0  0  0  0  0  0  0  0  0
  161.5910  207.8580  152.2650 C   0  0  0  0  0  3  0  0  0  0  0  0
  161.0070  205.8540  151.3570 N   0  0  0  0  0  0  0  0  0  0  0  0
  161.3060  206.7240  150.3780 C   0  0  0  0  0  0  0  0  0  0  0  0
  161.6310  207.5000  148.1950 C   0  0  0  0  0  3  0  0  0  0  0  0
  161.3000  206.4820  149.0440 N   0  0  0  0  0  0  0  0  0  0  0  0
  161.6430  207.9370  150.8880 C   0  0  0  0  0  0  0  0  0  0  0  0
  161.2040  206.5380  152.5160 C   0  0  0  0  0  3  0  0  0  0  0  0
  160.6640  204.4260  151.2410 C   0  0  2  0  0  3  0  0  0  0  0  0
  160.8310  203.6860  152.5630 C   0  0  0  0  0  1  0  0  0  0  0  0
  161.4990  203.7250  150.1690 C   0  0  0  0  0  2  0  0  0  0  0  0
  160.6700  203.4020  149.0120 N   0  0  0  0  0  2  0  0  0  0  0  0
  161.7470  201.4030  149.4950 F   0  0  0  0  0  0  0  0  0  0  0  0
  159.5850  201.3140  148.8220 O   0  0  0  0  0  1  0  0  0  0  0  0
  160.8070  201.9860  148.6600 C   0  0  1  0  0  0  0  0  0  0  0  0
  161.2660  201.8590  147.3280 O   0  0  0  0  0  0  0  0  0  0  0  0
  162.7130  204.9230  145.6860 C   0  0  0  0  0  2  0  0  0  0  0  0
  161.3570  205.4410  145.2090 C   0  0  0  0  0  2  0  0  0  0  0  0
  162.5690  203.8030  146.7300 C   0  0  0  0  0  2  0  0  0  0  0  0
  160.5240  204.3140  144.5780 C   0  0  0  0  0  2  0  0  0  0  0  0
  160.7210  202.9490  145.2540 C   0  0  0  0  0  2  0  0  0  0  0  0
  161.1970  203.1140  146.6950 C   0  0  0  0  0  3  0  0  0  0  0  0
  162.3280  210.3440  150.5370 C   0  0  0  0  0  2  0  0  0  0  0  0
  163.0110  211.8940  148.2140 O   0  0  0  0  0  0  0  0  0  0  0  0
  161.9010  212.1170  148.7670 C   0  0  0  0  0  0  0  0  0  0  0  0
  161.4980  211.3700  149.9180 N   0  0  0  0  0  2  0  0  0  0  0  0
  161.0100  213.1920  148.2330 C   0  0  0  0  0  2  0  0  0  0  0  0
  159.9920  212.6660  147.2200 C   0  0  2  0  0  3  0  0  0  0  0  0
  159.7380  212.5200  144.8400 O   0  0  0  0  0  0  0  0  0  0  0  0
  161.4990  213.7870  145.5730 O   0  0  0  0  0  1  0  0  0  0  0  0
  160.3980  212.9750  145.8110 C   0  0  0  0  0  0  0  0  0  0  0  0
  158.7080  213.1560  147.4880 O   0  0  0  0  0  0  0  0  0  0  0  0
  158.8640  213.9730  148.6090 C   0  0  0  0  0  2  0  0  0  0  0  0
  158.0050  213.5450  149.6250 O   0  0  0  0  0  0  0  0  0  0  0  0
  156.7890  213.3150  148.9780 C   0  0  0  0  0  1  0  0  0  0  0  0
  1 24  1  0  0  0  0
  1  8  1  0  0  0  0
  2  1  2  0  0  0  0
  3  9  2  0  0  0  0
  4  9  1  0  0  0  0
  5  8  2  0  0  0  0
  5  4  1  0  0  0  0
  6  2  1  0  0  0  0
  6  7  2  0  0  0  0
  7  5  1  0  0  0  0
  8  3  1  0  0  0  0
 10  4  1  0  0  0  0
 10 11  1  1  0  0  0
 12 10  1  0  0  0  0
 13 12  1  0  0  0  0
 16 15  1  1  0  0  0
 16 13  1  0  0  0  0
 16 14  1  0  0  0  0
 17 16  1  0  0  0  0
 18 20  1  0  0  0  0
 19 18  1  0  0  0  0
 21 19  1  0  0  0  0
 21 22  1  0  0  0  0
 22 23  1  0  0  0  0
 23 20  1  0  0  0  0
 23 17  1  0  0  0  0
 25 26  2  0  0  0  0
 26 27  1  0  0  0  0
 27 24  1  0  0  0  0
 28 26  1  0  0  0  0
 29 33  1  0  0  0  0
 29 28  1  1  0  0  0
 30 32  2  0  0  0  0
 31 32  1  0  0  0  0
 32 29  1  0  0  0  0
 33 34  1  0  0  0  0
 34 35  1  0  0  0  0
 36 35  1  0  0  0  0
M  END
>  <MODEL>
5

>  <REMARK>
 VINA RESULT:      -6.7      2.618      8.806
  Name = 
  14 active torsions:
  status: ('A' for Active; 'I' for Inactive)
    1  A    between atoms: O_2  and  C_25
    2  A    between atoms: O_2  and  C_31
    3  A    between atoms: C_4  and  C_10
    4  A    between atoms: O_5  and  C_12
    5  A    between atoms: C_10  and  N_23
    6  A    between atoms: C_11  and  C_20
    7  A    between atoms: C_12  and  O_36
    8  A    between atoms: N_14  and  C_21
    9  A    between atoms: C_20  and  C_22
   10  A    between atoms: C_21  and  C_35
   11  A    between atoms: C_22  and  C_33
   12  A    between atoms: C_22  and  O_36
   13  A    between atoms: C_31  and  N_34
   14  A    between atoms: N_34  and  C_35
                            x       y       z     vdW  Elec       q    Type
                         _______ _______ _______ _____ _____    ______ ____

>  <TORSDO>
F 14

$$$$
=
 OpenBabel11072413313D

 36 38  0  0  1  0  0  0  0  0999 V2000
  160.4690  209.4560  155.8980 C   0  0  0  0  0  0  0  0  0  0  0  0
  160.0940  208.3330  156.5790 N   0  0  0  0  0  0  0  0  0  0  0  0
  161.2240  210.2320  153.6110 C   0  0  0  0  0  3  0  0  0  0  0  0
  161.2360  208.1420  152.7090 N   0  0  0  0  0  0  0  0  0  0  0  0
  160.8340  208.0790  153.9890 C   0  0  0  0  0  0  0  0  0  0  0  0
  160.0850  207.1030  155.9780 C   0  0  0  0  0  3  0  0  0  0  0  0
  160.4610  206.9700  154.6710 N   0  0  0  0  0  0  0  0  0  0  0  0
  160.8330  209.3110  154.5620 C   0  0  0  0  0  0  0  0  0  0  0  0
  161.4520  209.4630  152.4660 C   0  0  0  0  0  3  0  0  0  0  0  0
  161.3110  207.0550  151.7170 C   0  0  2  0  0  3  0  0  0  0  0  0
  162.6850  206.3960  151.6910 C   0  0  0  0  0  1  0  0  0  0  0  0
  160.9660  207.5430  150.3100 C   0  0  0  0  0  2  0  0  0  0  0  0
  161.9460  207.0480  149.3480 N   0  0  0  0  0  2  0  0  0  0  0  0
  160.0080  205.9190  148.7460 F   0  0  0  0  0  0  0  0  0  0  0  0
  161.2110  206.9200  147.1080 O   0  0  0  0  0  1  0  0  0  0  0  0
  161.2920  206.2260  148.3250 C   0  0  1  0  0  0  0  0  0  0  0  0
  161.9990  205.0120  148.1540 O   0  0  0  0  0  0  0  0  0  0  0  0
  160.8700  201.4210  148.0930 C   0  0  0  0  0  2  0  0  0  0  0  0
  159.8640  201.6050  149.2300 C   0  0  0  0  0  2  0  0  0  0  0  0
  161.3620  202.7670  147.5350 C   0  0  0  0  0  2  0  0  0  0  0  0
  160.4800  202.4000  150.3910 C   0  0  0  0  0  2  0  0  0  0  0  0
  161.4600  203.4940  149.9390 C   0  0  0  0  0  2  0  0  0  0  0  0
  161.1640  203.9370  148.5090 C   0  0  0  0  0  3  0  0  0  0  0  0
  160.4640  210.7850  156.5820 C   0  0  0  0  0  2  0  0  0  0  0  0
  159.6830  213.4460  155.8270 O   0  0  0  0  0  0  0  0  0  0  0  0
  158.7920  212.6730  156.2680 C   0  0  0  0  0  0  0  0  0  0  0  0
  159.1150  211.3320  156.6480 N   0  0  0  0  0  2  0  0  0  0  0  0
  157.3910  213.1690  156.4240 C   0  0  0  0  0  2  0  0  0  0  0  0
  156.8570  213.8400  155.1570 C   0  0  2  0  0  3  0  0  0  0  0  0
  154.8080  214.1560  156.3610 O   0  0  0  0  0  1  0  0  0  0  0  0
  154.6490  214.2970  154.0810 O   0  0  0  0  0  0  0  0  0  0  0  0
  155.3840  214.0980  155.2430 C   0  0  0  0  0  0  0  0  0  0  0  0
  157.1670  213.0910  154.0160 O   0  0  0  0  0  0  0  0  0  0  0  0
  157.6190  214.0280  153.0840 C   0  0  0  0  0  2  0  0  0  0  0  0
  157.9470  213.3810  151.8900 O   0  0  0  0  0  0  0  0  0  0  0  0
  158.6230  212.2280  152.2930 C   0  0  0  0  0  1  0  0  0  0  0  0
  1  2  1  0  0  0  0
  1 24  1  0  0  0  0
  3  8  1  0  0  0  0
  4  5  1  0  0  0  0
  5  8  1  0  0  0  0
  5  7  2  0  0  0  0
  6  2  2  0  0  0  0
  7  6  1  0  0  0  0
  8  1  2  0  0  0  0
  9  4  1  0  0  0  0
  9  3  2  0  0  0  0
 10 11  1  6  0  0  0
 10  4  1  0  0  0  0
 12 10  1  0  0  0  0
 13 12  1  0  0  0  0
 16 15  1  6  0  0  0
 16 14  1  0  0  0  0
 16 13  1  0  0  0  0
 17 16  1  0  0  0  0
 17 23  1  0  0  0  0
 18 19  1  0  0  0  0
 19 21  1  0  0  0  0
 20 18  1  0  0  0  0
 20 23  1  0  0  0  0
 22 21  1  0  0  0  0
 23 22  1  0  0  0  0
 24 27  1  0  0  0  0
 25 26  2  0  0  0  0
 26 28  1  0  0  0  0
 26 27  1  0  0  0  0
 29 32  1  0  0  0  0
 29 28  1  1  0  0  0
 31 32  2  0  0  0  0
 32 30  1  0  0  0  0
 33 29  1  0  0  0  0
 34 33  1  0  0  0  0
 35 36  1  0  0  0  0
 35 34  1  0  0  0  0
M  END
>  <MODEL>
6

>  <REMARK>
 VINA RESULT:      -6.7      4.972     10.115
  Name = 
  14 active torsions:
  status: ('A' for Active; 'I' for Inactive)
    1  A    between atoms: O_2  and  C_25
    2  A    between atoms: O_2  and  C_31
    3  A    between atoms: C_4  and  C_10
    4  A    between atoms: O_5  and  C_12
    5  A    between atoms: C_10  and  N_23
    6  A    between atoms: C_11  and  C_20
    7  A    between atoms: C_12  and  O_36
    8  A    between atoms: N_14  and  C_21
    9  A    between atoms: C_20  and  C_22
   10  A    between atoms: C_21  and  C_35
   11  A    between atoms: C_22  and  C_33
   12  A    between atoms: C_22  and  O_36
   13  A    between atoms: C_31  and  N_34
   14  A    between atoms: N_34  and  C_35
                            x       y       z     vdW  Elec       q    Type
                         _______ _______ _______ _____ _____    ______ ____

>  <TORSDO>
F 14

$$$$
=
 OpenBabel11072413313D

 36 38  0  0  1  0  0  0  0  0999 V2000
  160.8290  208.2170  154.3080 C   0  0  0  0  0  0  0  0  0  0  0  0
  160.9560  206.8570  154.3100 N   0  0  0  0  0  0  0  0  0  0  0  0
  161.1340  210.2400  152.8180 C   0  0  0  0  0  3  0  0  0  0  0  0
  161.9480  209.0440  151.0610 N   0  0  0  0  0  0  0  0  0  0  0  0
  161.6480  208.2130  152.0720 C   0  0  0  0  0  0  0  0  0  0  0  0
  161.4190  206.1820  153.2120 C   0  0  0  0  0  3  0  0  0  0  0  0
  161.7720  206.8630  152.0810 N   0  0  0  0  0  0  0  0  0  0  0  0
  161.1750  208.8990  153.1450 C   0  0  0  0  0  0  0  0  0  0  0  0
  161.6110  210.2840  151.5050 C   0  0  0  0  0  3  0  0  0  0  0  0
  162.4180  208.7060  149.7050 C   0  0  2  0  0  3  0  0  0  0  0  0
  161.9120  209.6930  148.6600 C   0  0  0  0  0  1  0  0  0  0  0  0
  162.0050  207.2920  149.2960 C   0  0  0  0  0  2  0  0  0  0  0  0
  161.8860  207.2000  147.8440 N   0  0  0  0  0  2  0  0  0  0  0  0
  160.0120  205.9230  148.3420 F   0  0  0  0  0  0  0  0  0  0  0  0
  160.5780  206.1790  146.1640 O   0  0  0  0  0  1  0  0  0  0  0  0
  161.0800  206.0350  147.4670 C   0  0  1  0  0  0  0  0  0  0  0  0
  161.8560  204.8560  147.5690 O   0  0  0  0  0  0  0  0  0  0  0  0
  160.8960  201.2890  148.2980 C   0  0  0  0  0  2  0  0  0  0  0  0
  159.9190  201.6660  149.4120 C   0  0  0  0  0  2  0  0  0  0  0  0
  161.3050  202.5070  147.4540 C   0  0  0  0  0  2  0  0  0  0  0  0
  160.5330  202.7090  150.3580 C   0  0  0  0  0  2  0  0  0  0  0  0
  161.4450  203.7230  149.6500 C   0  0  0  0  0  2  0  0  0  0  0  0
  161.0840  203.8470  148.1720 C   0  0  0  0  0  3  0  0  0  0  0  0
  160.3170  208.9240  155.5220 C   0  0  0  0  0  2  0  0  0  0  0  0
  159.3870  211.0690  157.1950 O   0  0  0  0  0  0  0  0  0  0  0  0
  158.8800  210.9530  156.0480 C   0  0  0  0  0  0  0  0  0  0  0  0
  159.3100  209.9140  155.1630 N   0  0  0  0  0  2  0  0  0  0  0  0
  157.7990  211.8910  155.6170 C   0  0  0  0  0  2  0  0  0  0  0  0
  156.6920  212.0360  156.6630 C   0  0  2  0  0  3  0  0  0  0  0  0
  154.6410  210.9470  157.2610 O   0  0  0  0  0  1  0  0  0  0  0  0
  155.5250  210.3510  155.2340 O   0  0  0  0  0  0  0  0  0  0  0  0
  155.5650  211.0800  156.4150 C   0  0  0  0  0  0  0  0  0  0  0  0
  156.2240  213.3540  156.7290 O   0  0  0  0  0  0  0  0  0  0  0  0
  156.3310  213.8380  155.4240 C   0  0  0  0  0  2  0  0  0  0  0  0
  155.0560  214.0890  154.9110 O   0  0  0  0  0  0  0  0  0  0  0  0
  155.1780  213.8500  153.5410 C   0  0  0  0  0  1  0  0  0  0  0  0
  1  2  1  0  0  0  0
  1 24  1  0  0  0  0
  3  8  1  0  0  0  0
  4  9  1  0  0  0  0
  4  5  1  0  0  0  0
  5  7  2  0  0  0  0
  5  8  1  0  0  0  0
  6  2  2  0  0  0  0
  7  6  1  0  0  0  0
  8  1  2  0  0  0  0
  9  3  2  0  0  0  0
 10 11  1  6  0  0  0
 10  4  1  0  0  0  0
 12 10  1  0  0  0  0
 13 12  1  0  0  0  0
 16 15  1  6  0  0  0
 16 17  1  0  0  0  0
 16 13  1  0  0  0  0
 16 14  1  0  0  0  0
 17 23  1  0  0  0  0
 18 19  1  0  0  0  0
 19 21  1  0  0  0  0
 20 23  1  0  0  0  0
 20 18  1  0  0  0  0
 22 21  1  0  0  0  0
 23 22  1  0  0  0  0
 26 25  2  0  0  0  0
 27 24  1  0  0  0  0
 27 26  1  0  0  0  0
 28 26  1  0  0  0  0
 29 28  1  6  0  0  0
 29 33  1  0  0  0  0
 31 32  2  0  0  0  0
 32 29  1  0  0  0  0
 32 30  1  0  0  0  0
 34 33  1  0  0  0  0
 35 34  1  0  0  0  0
 36 35  1  0  0  0  0
M  END
>  <MODEL>
7

>  <REMARK>
 VINA RESULT:      -6.7      5.221      9.831
  Name = 
  14 active torsions:
  status: ('A' for Active; 'I' for Inactive)
    1  A    between atoms: O_2  and  C_25
    2  A    between atoms: O_2  and  C_31
    3  A    between atoms: C_4  and  C_10
    4  A    between atoms: O_5  and  C_12
    5  A    between atoms: C_10  and  N_23
    6  A    between atoms: C_11  and  C_20
    7  A    between atoms: C_12  and  O_36
    8  A    between atoms: N_14  and  C_21
    9  A    between atoms: C_20  and  C_22
   10  A    between atoms: C_21  and  C_35
   11  A    between atoms: C_22  and  C_33
   12  A    between atoms: C_22  and  O_36
   13  A    between atoms: C_31  and  N_34
   14  A    between atoms: N_34  and  C_35
                            x       y       z     vdW  Elec       q    Type
                         _______ _______ _______ _____ _____    ______ ____

>  <TORSDO>
F 14

$$$$
=
 OpenBabel11072413313D

 36 38  0  0  1  0  0  0  0  0999 V2000
  162.0820  208.8160  150.8620 C   0  0  0  0  0  0  0  0  0  0  0  0
  161.8570  208.8840  149.5160 N   0  0  0  0  0  0  0  0  0  0  0  0
  161.9460  207.2210  152.8210 C   0  0  0  0  0  3  0  0  0  0  0  0
  161.0750  205.5100  151.5980 N   0  0  0  0  0  0  0  0  0  0  0  0
  161.2990  206.5680  150.8000 C   0  0  0  0  0  0  0  0  0  0  0  0
  161.3640  207.8120  148.8200 C   0  0  0  0  0  3  0  0  0  0  0  0
  161.0780  206.6420  149.4650 N   0  0  0  0  0  0  0  0  0  0  0  0
  161.8040  207.6140  151.5050 C   0  0  0  0  0  0  0  0  0  0  0  0
  161.4940  205.8980  152.8320 C   0  0  0  0  0  3  0  0  0  0  0  0
  160.6040  204.1650  151.2250 C   0  0  2  0  0  3  0  0  0  0  0  0
  160.7110  203.1780  152.3810 C   0  0  0  0  0  1  0  0  0  0  0  0
  161.3670  203.6070  150.0230 C   0  0  0  0  0  2  0  0  0  0  0  0
  160.4330  203.1160  149.0140 N   0  0  0  0  0  2  0  0  0  0  0  0
  161.6300  201.1290  149.1300 F   0  0  0  0  0  0  0  0  0  0  0  0
  160.0540  201.3310  147.5150 O   0  0  0  0  0  1  0  0  0  0  0  0
  161.0330  202.0180  148.2500 C   0  0  1  0  0  0  0  0  0  0  0  0
  162.0350  202.5190  147.3860 O   0  0  0  0  0  0  0  0  0  0  0  0
  162.3160  205.8290  145.6150 C   0  0  0  0  0  2  0  0  0  0  0  0
  160.8760  205.8010  145.1030 C   0  0  0  0  0  2  0  0  0  0  0  0
  162.5610  204.7770  146.7080 C   0  0  0  0  0  2  0  0  0  0  0  0
  160.5220  204.4240  144.5190 C   0  0  0  0  0  2  0  0  0  0  0  0
  161.1840  203.2510  145.2600 C   0  0  0  0  0  2  0  0  0  0  0  0
  161.5320  203.6360  146.6950 C   0  0  0  0  0  3  0  0  0  0  0  0
  162.6240  210.0020  151.5920 C   0  0  0  0  0  2  0  0  0  0  0  0
  160.4290  211.7540  152.2090 O   0  0  0  0  0  0  0  0  0  0  0  0
  160.9030  211.0500  153.1410 C   0  0  0  0  0  0  0  0  0  0  0  0
  161.9860  210.1490  152.8940 N   0  0  0  0  0  2  0  0  0  0  0  0
  160.3470  211.1780  154.5220 C   0  0  0  0  0  2  0  0  0  0  0  0
  158.8870  210.7310  154.6160 C   0  0  2  0  0  3  0  0  0  0  0  0
  158.3820  213.0740  154.5260 O   0  0  0  0  0  1  0  0  0  0  0  0
  156.5760  211.6680  154.4600 O   0  0  0  0  0  0  0  0  0  0  0  0
  157.9440  211.8930  154.5390 C   0  0  0  0  0  0  0  0  0  0  0  0
  158.6580  209.9780  155.7730 O   0  0  0  0  0  0  0  0  0  0  0  0
  159.9250  209.7760  156.3240 C   0  0  0  0  0  2  0  0  0  0  0  0
  160.1130  208.4150  156.5810 O   0  0  0  0  0  0  0  0  0  0  0  0
  161.4870  208.2190  156.4330 C   0  0  0  0  0  1  0  0  0  0  0  0
  1  8  1  0  0  0  0
  1 24  1  0  0  0  0
  2  1  2  0  0  0  0
  3  9  2  0  0  0  0
  4  9  1  0  0  0  0
  5  8  2  0  0  0  0
  5  4  1  0  0  0  0
  6  7  2  0  0  0  0
  6  2  1  0  0  0  0
  7  5  1  0  0  0  0
  8  3  1  0  0  0  0
 10  4  1  0  0  0  0
 10 11  1  1  0  0  0
 12 10  1  0  0  0  0
 13 12  1  0  0  0  0
 16 15  1  6  0  0  0
 16 13  1  0  0  0  0
 16 14  1  0  0  0  0
 17 16  1  0  0  0  0
 18 20  1  0  0  0  0
 19 18  1  0  0  0  0
 21 19  1  0  0  0  0
 21 22  1  0  0  0  0
 22 23  1  0  0  0  0
 23 20  1  0  0  0  0
 23 17  1  0  0  0  0
 24 27  1  0  0  0  0
 25 26  2  0  0  0  0
 26 28  1  0  0  0  0
 27 26  1  0  0  0  0
 29 28  1  1  0  0  0
 29 33  1  0  0  0  0
 30 32  1  0  0  0  0
 31 32  2  0  0  0  0
 32 29  1  0  0  0  0
 33 34  1  0  0  0  0
 34 35  1  0  0  0  0
 36 35  1  0  0  0  0
M  END
>  <MODEL>
8

>  <REMARK>
 VINA RESULT:      -6.7      4.177      9.349
  Name = 
  14 active torsions:
  status: ('A' for Active; 'I' for Inactive)
    1  A    between atoms: O_2  and  C_25
    2  A    between atoms: O_2  and  C_31
    3  A    between atoms: C_4  and  C_10
    4  A    between atoms: O_5  and  C_12
    5  A    between atoms: C_10  and  N_23
    6  A    between atoms: C_11  and  C_20
    7  A    between atoms: C_12  and  O_36
    8  A    between atoms: N_14  and  C_21
    9  A    between atoms: C_20  and  C_22
   10  A    between atoms: C_21  and  C_35
   11  A    between atoms: C_22  and  C_33
   12  A    between atoms: C_22  and  O_36
   13  A    between atoms: C_31  and  N_34
   14  A    between atoms: N_34  and  C_35
                            x       y       z     vdW  Elec       q    Type
                         _______ _______ _______ _____ _____    ______ ____

>  <TORSDO>
F 14

$$$$
=
 OpenBabel11072413313D

 36 38  0  0  1  0  0  0  0  0999 V2000
  161.4420  207.7110  148.4250 C   0  0  0  0  0  0  0  0  0  0  0  0
  161.9740  208.9470  148.6570 N   0  0  0  0  0  0  0  0  0  0  0  0
  160.7360  205.5960  149.6210 C   0  0  0  0  0  3  0  0  0  0  0  0
  161.4100  206.3180  151.6720 N   0  0  0  0  0  0  0  0  0  0  0  0
  161.6400  207.2750  150.7580 C   0  0  0  0  0  0  0  0  0  0  0  0
  162.3310  209.3460  149.9170 C   0  0  0  0  0  3  0  0  0  0  0  0
  162.1670  208.5040  150.9810 N   0  0  0  0  0  0  0  0  0  0  0  0
  161.2630  206.8680  149.5180 C   0  0  0  0  0  0  0  0  0  0  0  0
  160.8330  205.2970  150.9840 C   0  0  0  0  0  3  0  0  0  0  0  0
  161.6070  206.3780  153.1310 C   0  0  2  0  0  3  0  0  0  0  0  0
  161.2050  205.0780  153.8180 C   0  0  0  0  0  1  0  0  0  0  0  0
  160.8320  207.5350  153.7630 C   0  0  0  0  0  2  0  0  0  0  0  0
  161.2590  207.7360  155.1440 N   0  0  0  0  0  2  0  0  0  0  0  0
  159.3310  208.9150  155.6770 F   0  0  0  0  0  0  0  0  0  0  0  0
  161.1550  209.2060  156.9890 O   0  0  0  0  0  1  0  0  0  0  0  0
  160.7150  208.9900  155.6740 C   0  0  1  0  0  0  0  0  0  0  0  0
  161.0930  210.0710  154.8440 O   0  0  0  0  0  0  0  0  0  0  0  0
  159.0690  213.2420  154.6940 C   0  0  0  0  0  2  0  0  0  0  0  0
  157.9770  212.6330  153.8150 C   0  0  0  0  0  2  0  0  0  0  0  0
  159.9880  212.1690  155.3010 C   0  0  0  0  0  2  0  0  0  0  0  0
  158.5840  211.8230  152.6590 C   0  0  0  0  0  2  0  0  0  0  0  0
  159.8810  211.0890  153.0330 C   0  0  0  0  0  2  0  0  0  0  0  0
  159.9540  210.8370  154.5360 C   0  0  0  0  0  3  0  0  0  0  0  0
  161.0600  207.3070  147.0380 C   0  0  0  0  0  2  0  0  0  0  0  0
  160.2730  205.5650  144.8900 O   0  0  0  0  0  0  0  0  0  0  0  0
  161.2760  205.2370  145.5790 C   0  0  0  0  0  0  0  0  0  0  0  0
  161.7250  206.0690  146.6530 N   0  0  0  0  0  2  0  0  0  0  0  0
  161.9850  203.9540  145.2910 C   0  0  0  0  0  2  0  0  0  0  0  0
  161.4120  202.7720  146.0760 C   0  0  2  0  0  3  0  0  0  0  0  0
  159.6070  202.5670  144.5100 O   0  0  0  0  0  0  0  0  0  0  0  0
  160.4560  200.5950  145.3070 O   0  0  0  0  0  1  0  0  0  0  0  0
  160.4350  201.9830  145.2580 C   0  0  0  0  0  0  0  0  0  0  0  0
  160.8310  203.1940  147.2780 O   0  0  0  0  0  0  0  0  0  0  0  0
  161.2060  202.2280  148.2140 C   0  0  0  0  0  2  0  0  0  0  0  0
  160.1670  202.0340  149.1290 O   0  0  0  0  0  0  0  0  0  0  0  0
  160.7560  201.3290  150.1790 C   0  0  0  0  0  1  0  0  0  0  0  0
  1  2  2  0  0  0  0
  1  8  1  0  0  0  0
  2  6  1  0  0  0  0
  3  9  2  0  0  0  0
  4 10  1  0  0  0  0
  5  7  1  0  0  0  0
  5  4  1  0  0  0  0
  6  7  2  0  0  0  0
  8  3  1  0  0  0  0
  8  5  2  0  0  0  0
  9  4  1  0  0  0  0
 10 12  1  0  0  0  0
 10 11  1  1  0  0  0
 12 13  1  0  0  0  0
 13 16  1  0  0  0  0
 16 14  1  1  0  0  0
 16 15  1  0  0  0  0
 17 16  1  0  0  0  0
 18 20  1  0  0  0  0
 19 18  1  0  0  0  0
 21 22  1  0  0  0  0
 21 19  1  0  0  0  0
 22 23  1  0  0  0  0
 23 17  1  0  0  0  0
 23 20  1  0  0  0  0
 24  1  1  0  0  0  0
 25 26  2  0  0  0  0
 26 27  1  0  0  0  0
 27 24  1  0  0  0  0
 28 26  1  0  0  0  0
 29 28  1  6  0  0  0
 29 33  1  0  0  0  0
 30 32  2  0  0  0  0
 32 31  1  0  0  0  0
 32 29  1  0  0  0  0
 33 34  1  0  0  0  0
 34 35  1  0  0  0  0
 35 36  1  0  0  0  0
M  END
>  <MODEL>
9

>  <REMARK>
 VINA RESULT:      -6.7      3.663      5.775
  Name = 
  14 active torsions:
  status: ('A' for Active; 'I' for Inactive)
    1  A    between atoms: O_2  and  C_25
    2  A    between atoms: O_2  and  C_31
    3  A    between atoms: C_4  and  C_10
    4  A    between atoms: O_5  and  C_12
    5  A    between atoms: C_10  and  N_23
    6  A    between atoms: C_11  and  C_20
    7  A    between atoms: C_12  and  O_36
    8  A    between atoms: N_14  and  C_21
    9  A    between atoms: C_20  and  C_22
   10  A    between atoms: C_21  and  C_35
   11  A    between atoms: C_22  and  C_33
   12  A    between atoms: C_22  and  O_36
   13  A    between atoms: C_31  and  N_34
   14  A    between atoms: N_34  and  C_35
                            x       y       z     vdW  Elec       q    Type
                         _______ _______ _______ _____ _____    ______ ____

>  <TORSDO>
F 14

$$$$
