=
 OpenBabel11072414313D

 65 71  0  0  1  0  0  0  0  0999 V2000
  160.3020  205.3590  151.3350 C   0  0  1  0  0  3  0  0  0  0  0  0
  160.4100  204.4080  148.8110 C   0  0  1  0  0  3  0  0  0  0  0  0
  159.3120  203.3730  149.0010 C   0  0  0  0  0  1  0  0  0  0  0  0
  161.6630  202.1510  150.4830 C   0  0  0  0  0  2  0  0  0  0  0  0
  162.8340  203.5860  151.9470 O   0  0  0  0  0  0  0  0  0  0  0  0
  161.4440  206.6400  149.5560 C   0  0  1  0  0  0  0  0  0  0  0  0
  162.8630  206.4570  150.0750 C   0  0  0  0  0  2  0  0  0  0  0  0
  162.2050  202.4850  149.0980 C   0  0  0  0  0  2  0  0  0  0  0  0
  160.3650  205.5940  149.8040 C   0  0  2  0  0  3  0  0  0  0  0  0
  161.8310  207.2030  150.9010 C   0  0  2  0  0  0  0  0  0  0  0  0
  160.4950  203.9430  151.8780 C   0  0  0  0  0  2  0  0  0  0  0  0
  161.8280  203.8670  148.5320 C   0  0  1  0  0  3  0  0  0  0  0  0
  161.2300  206.3600  152.0170 C   0  0  0  0  0  2  0  0  0  0  0  0
  161.7630  203.2820  151.4450 C   0  0  0  0  0  0  0  0  0  0  0  0
  161.2580  207.5860  148.5430 O   0  0  0  0  0  1  0  0  0  0  0  0
  161.0070  209.4480  151.4770 N   0  0  0  0  0  0  0  0  0  0  0  0
  161.6170  209.5630  150.1100 C   0  0  2  0  0  3  0  0  0  0  0  0
  162.2200  208.6670  151.1140 C   0  0  2  0  0  3  0  0  0  0  0  0
  161.3740  210.5520  152.3820 C   0  0  0  0  0  2  0  0  0  0  0  0
  157.2970  213.8620  154.6420 O   0  0  0  0  0  1  0  0  0  0  0  0
  160.1670  211.3010  152.9760 C   0  0  1  0  0  3  0  0  0  0  0  0
  159.3070  212.6490  154.9910 C   0  0  0  0  0  2  0  0  0  0  0  0
  158.5280  213.9780  149.7240 C   0  0  0  0  0  0  0  0  0  0  0  0
  159.8520  214.1710  150.3820 C   0  0  0  0  0  2  0  0  0  0  0  0
  158.0190  212.7680  154.1450 C   0  0  2  0  0  0  0  0  0  0  0  0
  160.4750  211.8360  154.3760 C   0  0  1  0  0  3  0  0  0  0  0  0
  160.2810  212.9430  151.1160 C   0  0  0  0  0  3  0  0  0  0  0  0
  158.4200  214.1820  148.3200 N   0  0  0  0  0  1  0  0  0  0  0  0
  158.3400  213.0080  152.6800 C   0  0  0  0  0  0  0  0  0  0  0  0
  157.4190  213.7570  150.4290 C   0  0  0  0  0  3  0  0  0  0  0  0
  159.6010  212.4220  152.1430 C   0  0  0  0  0  0  0  0  0  0  0  0
  157.3730  213.5170  151.8880 C   0  0  0  0  0  3  0  0  0  0  0  0
  157.2280  211.4460  154.2610 C   0  0  0  0  0  3  0  0  0  0  0  0
  157.2780  210.8870  155.6730 C   0  0  0  0  0  2  0  0  0  0  0  0
  156.0070  211.5600  155.1690 C   0  0  0  0  0  2  0  0  0  0  0  0
  160.8490  210.7920  155.2350 O   0  0  0  0  0  0  0  0  0  0  0  0
  161.2780  211.4440  156.3950 C   0  0  0  0  0  1  0  0  0  0  0  0
  162.4710  210.8220  149.8800 C   0  0  0  0  0  2  0  0  0  0  0  0
  161.1020  211.2240  147.9940 O   0  0  0  0  0  1  0  0  0  0  0  0
  162.4220  211.2930  148.4350 C   0  0  0  0  0  2  0  0  0  0  0  0
  162.0900  203.8850  147.1540 O   0  0  0  0  0  0  0  0  0  0  0  0
  164.4060  204.4550  147.2600 C   0  0  0  0  0  1  0  0  0  0  0  0
  162.9930  204.9350  146.9430 C   0  0  1  0  0  3  0  0  0  0  0  0
  162.9310  205.3500  145.4820 C   0  0  0  0  0  2  0  0  0  0  0  0
  162.1380  204.3420  144.6700 C   0  0  0  0  0  2  0  0  0  0  0  0
  161.0510  205.0540  143.8690 C   0  0  1  0  0  3  0  0  0  0  0  0
  159.8850  206.4140  145.4310 O   0  0  0  0  0  1  0  0  0  0  0  0
  158.7150  204.5940  144.6800 O   0  0  0  0  0  0  0  0  0  0  0  0
  159.8430  205.4080  144.6820 C   0  0  0  0  0  0  0  0  0  0  0  0
  161.5940  206.2450  143.0860 C   0  0  0  0  0  2  0  0  0  0  0  0
  161.3780  206.1060  141.6490 N   0  0  0  0  0  2  0  0  0  0  0  0
  162.2800  207.0240  140.9590 C   0  0  1  0  0  3  0  0  0  0  0  0
  163.1850  206.2350  140.0370 C   0  0  0  0  0  1  0  0  0  0  0  0
  161.5240  208.0940  140.1670 C   0  0  2  0  0  3  0  0  0  0  0  0
  161.3070  207.6920  138.7430 C   0  0  0  0  0  0  0  0  0  0  0  0
  162.2670  206.9540  138.0550 O   0  0  0  0  0  0  0  0  0  0  0  0
  160.2220  207.9850  138.1790 O   0  0  0  0  0  1  0  0  0  0  0  0
  162.1940  209.3860  140.2480 N   0  0  0  0  0  2  0  0  0  0  0  0
  161.8730  210.0980  139.0230 C   0  0  0  0  0  2  0  0  0  0  0  0
  162.8210  211.2730  138.8330 C   0  0  0  0  0  2  0  0  0  0  0  0
  162.4500  212.4170  139.7600 C   0  0  0  0  0  2  0  0  0  0  0  0
  163.6240  213.3680  139.9380 C   0  0  0  0  0  2  0  0  0  0  0  0
  163.4900  213.8770  137.5220 F   0  0  0  0  0  0  0  0  0  0  0  0
  165.4740  213.6050  138.4990 O   0  0  0  0  0  0  0  0  0  0  0  0
  164.2600  213.6420  138.6160 C   0  0  0  0  0  0  0  0  0  0  0  0
  1 11  1  6  0  0  0
  1 13  1  0  0  0  0
  2  3  1  1  0  0  0
  2  9  1  0  0  0  0
  4 14  1  0  0  0  0
  6 15  1  6  0  0  0
  6  9  1  0  0  0  0
  6  7  1  0  0  0  0
  6 10  1  0  0  0  0
  7 10  1  0  0  0  0
  8  4  1  0  0  0  0
  9  1  1  0  0  0  0
 10 18  1  0  0  0  0
 10 13  1  0  0  0  0
 12  2  1  0  0  0  0
 12  8  1  0  0  0  0
 14 11  1  0  0  0  0
 14  5  2  0  0  0  0
 16 19  1  0  0  0  0
 17 18  1  0  0  0  0
 17 16  1  0  0  0  0
 18 16  1  0  0  0  0
 19 21  1  0  0  0  0
 21 26  1  0  0  0  0
 23 24  1  0  0  0  0
 23 30  2  0  0  0  0
 24 27  1  0  0  0  0
 25 33  1  0  0  0  0
 25 20  1  0  0  0  0
 25 22  1  0  0  0  0
 26 22  1  0  0  0  0
 26 36  1  0  0  0  0
 27 31  2  0  0  0  0
 28 23  1  0  0  0  0
 29 25  1  0  0  0  0
 30 32  1  0  0  0  0
 31 29  1  0  0  0  0
 31 21  1  0  0  0  0
 32 29  2  0  0  0  0
 33 35  1  0  0  0  0
 33 34  1  0  0  0  0
 35 34  1  0  0  0  0
 36 37  1  0  0  0  0
 38 17  1  0  0  0  0
 39 40  1  0  0  0  0
 40 38  1  0  0  0  0
 41 12  1  0  0  0  0
 43 41  1  0  0  0  0
 43 42  1  0  0  0  0
 44 43  1  0  0  0  0
 45 44  1  0  0  0  0
 46 45  1  0  0  0  0
 46 49  1  0  0  0  0
 48 49  2  0  0  0  0
 49 47  1  0  0  0  0
 50 46  1  0  0  0  0
 51 50  1  0  0  0  0
 52 51  1  0  0  0  0
 53 52  1  0  0  0  0
 54 58  1  0  0  0  0
 54 52  1  0  0  0  0
 55 54  1  0  0  0  0
 56 55  2  0  0  0  0
 57 55  1  0  0  0  0
 59 58  1  0  0  0  0
 60 59  1  0  0  0  0
 60 61  1  0  0  0  0
 61 62  1  0  0  0  0
 63 65  1  0  0  0  0
 64 65  2  0  0  0  0
 65 62  1  0  0  0  0
M  END
>  <MODEL>
1

>  <REMARK>
 VINA RESULT:      -0.6      0.000      0.000
  Name = 
  24 active torsions:
  status: ('A' for Active; 'I' for Inactive)
    1  A    between atoms: C_1  and  C_19
    2  A    between atoms: C_2  and  C_48
    3  A    between atoms: C_2  and  C_56
    4  A    between atoms: C_4  and  C_57
    5  A    between atoms: C_11  and  CA_55
    6  A    between atoms: O_15  and  C_29
    7  A    between atoms: N_18  and  C_57
    8  A    between atoms: C_22  and  C_53
    9  A    between atoms: C_22  and  C_58
   10  A    between atoms: C_25  and  N_34
   11  A    between atoms: C_25  and  CA_55
   12  A    between atoms: C_27  and  C_47
   13  A    between atoms: C_27  and  C_48
   14  A    between atoms: C_27  and  C_50
   15  A    between atoms: O_28  and  C_44
   16  A    between atoms: O_28  and  C_56
   17  A    between atoms: C_32  and  C_45
   18  A    between atoms: N_34  and  C_47
   19  A    between atoms: C_36  and  C_42
   20  A    between atoms: C_45  and  C_65
   21  A    between atoms: C_46  and  N_59
   22  A    between atoms: C_46  and  C_60
   23  A    between atoms: C_53  and  C_60
   24  A    between atoms: CA_55  and  N_59
                            x       y       z     vdW  Elec       q    Type
                         _______ _______ _______ _____ _____    ______ ____

>  <TORSDO>
F 24

$$$$
=
 OpenBabel11072414313D

 65 71  0  0  1  0  0  0  0  0999 V2000
  160.4880  205.8390  151.6870 C   0  0  1  0  0  3  0  0  0  0  0  0
  160.1970  204.6970  149.2590 C   0  0  1  0  0  3  0  0  0  0  0  0
  159.1740  203.6650  149.7080 C   0  0  0  0  0  1  0  0  0  0  0  0
  161.7710  202.5940  150.8580 C   0  0  0  0  0  2  0  0  0  0  0  0
  163.1330  204.1540  151.9920 O   0  0  0  0  0  0  0  0  0  0  0  0
  161.2810  206.9940  149.6510 C   0  0  1  0  0  0  0  0  0  0  0  0
  162.7710  206.8710  149.9340 C   0  0  0  0  0  2  0  0  0  0  0  0
  162.0640  202.8260  149.3800 C   0  0  0  0  0  2  0  0  0  0  0  0
  160.2880  205.9550  150.1540 C   0  0  2  0  0  3  0  0  0  0  0  0
  161.8730  207.6650  150.8660 C   0  0  2  0  0  0  0  0  0  0  0  0
  160.8060  204.4720  152.2940 C   0  0  0  0  0  2  0  0  0  0  0  0
  161.5620  204.1550  148.7840 C   0  0  1  0  0  3  0  0  0  0  0  0
  161.4900  206.9020  152.1260 C   0  0  0  0  0  2  0  0  0  0  0  0
  162.0010  203.7970  151.7020 C   0  0  0  0  0  0  0  0  0  0  0  0
  160.9030  207.8560  148.6160 O   0  0  0  0  0  1  0  0  0  0  0  0
  161.0410  209.9560  151.1940 N   0  0  0  0  0  0  0  0  0  0  0  0
  161.6250  209.9170  149.8120 C   0  0  2  0  0  3  0  0  0  0  0  0
  162.2530  209.1460  150.9010 C   0  0  2  0  0  3  0  0  0  0  0  0
  161.4140  211.1600  151.9590 C   0  0  0  0  0  2  0  0  0  0  0  0
  157.1600  212.2300  155.6250 O   0  0  0  0  0  1  0  0  0  0  0  0
  160.3670  211.5880  153.0020 C   0  0  1  0  0  3  0  0  0  0  0  0
  157.9080  212.2490  153.3720 C   0  0  0  0  0  2  0  0  0  0  0  0
  160.7660  208.7790  156.5200 C   0  0  0  0  0  0  0  0  0  0  0  0
  160.2720  208.3720  155.1730 C   0  0  0  0  0  2  0  0  0  0  0  0
  158.3300  212.3240  154.8570 C   0  0  2  0  0  0  0  0  0  0  0  0
  159.0110  211.8700  152.3510 C   0  0  1  0  0  3  0  0  0  0  0  0
  160.6120  209.3920  154.1370 C   0  0  0  0  0  3  0  0  0  0  0  0
  161.6390  207.9050  157.2260 N   0  0  0  0  0  1  0  0  0  0  0  0
  159.2600  211.1820  155.2270 C   0  0  0  0  0  0  0  0  0  0  0  0
  160.3060  209.8660  157.1380 C   0  0  0  0  0  3  0  0  0  0  0  0
  160.1600  210.6510  154.1640 C   0  0  0  0  0  0  0  0  0  0  0  0
  159.4050  210.8710  156.5330 C   0  0  0  0  0  3  0  0  0  0  0  0
  159.0760  213.6560  155.0920 C   0  0  0  0  0  3  0  0  0  0  0  0
  158.4520  214.4530  156.2250 C   0  0  0  0  0  2  0  0  0  0  0  0
  159.7690  213.7200  156.4500 C   0  0  0  0  0  2  0  0  0  0  0  0
  159.1300  212.8650  151.3690 O   0  0  0  0  0  0  0  0  0  0  0  0
  157.8180  213.3070  151.1730 C   0  0  0  0  0  1  0  0  0  0  0  0
  162.4630  211.1450  149.4220 C   0  0  0  0  0  2  0  0  0  0  0  0
  162.7670  212.5930  147.5780 O   0  0  0  0  0  1  0  0  0  0  0  0
  161.7820  211.9910  148.3570 C   0  0  0  0  0  2  0  0  0  0  0  0
  161.5880  204.0710  147.3850 O   0  0  0  0  0  0  0  0  0  0  0  0
  163.6060  205.2490  147.8720 C   0  0  0  0  0  1  0  0  0  0  0  0
  162.4000  205.1240  146.9460 C   0  0  1  0  0  3  0  0  0  0  0  0
  162.8900  204.8140  145.5410 C   0  0  0  0  0  2  0  0  0  0  0  0
  161.8030  204.1310  144.7310 C   0  0  0  0  0  2  0  0  0  0  0  0
  161.0110  205.1660  143.9370 C   0  0  1  0  0  3  0  0  0  0  0  0
  160.5650  207.0730  145.2840 O   0  0  0  0  0  1  0  0  0  0  0  0
  158.8210  205.5990  145.0960 O   0  0  0  0  0  0  0  0  0  0  0  0
  160.1130  206.0130  144.7870 C   0  0  0  0  0  0  0  0  0  0  0  0
  161.9020  206.0010  143.0220 C   0  0  0  0  0  2  0  0  0  0  0  0
  161.3630  206.1010  141.6690 N   0  0  0  0  0  2  0  0  0  0  0  0
  162.1770  207.0560  140.9220 C   0  0  1  0  0  3  0  0  0  0  0  0
  163.2780  206.3120  140.1960 C   0  0  0  0  0  1  0  0  0  0  0  0
  161.3480  207.8730  139.9280 C   0  0  2  0  0  3  0  0  0  0  0  0
  161.8420  207.7220  138.5240 C   0  0  0  0  0  0  0  0  0  0  0  0
  162.1660  206.4690  138.0130 O   0  0  0  0  0  1  0  0  0  0  0  0
  161.9180  208.7370  137.7860 O   0  0  0  0  0  0  0  0  0  0  0  0
  161.2900  209.2770  140.3130 N   0  0  0  0  0  2  0  0  0  0  0  0
  162.6530  209.7780  140.2630 C   0  0  0  0  0  2  0  0  0  0  0  0
  162.6680  211.2150  139.7660 C   0  0  0  0  0  2  0  0  0  0  0  0
  161.3360  211.8910  140.0370 C   0  0  0  0  0  2  0  0  0  0  0  0
  161.4670  212.9100  141.1590 C   0  0  0  0  0  2  0  0  0  0  0  0
  162.6190  212.2640  143.2490 F   0  0  0  0  0  0  0  0  0  0  0  0
  160.5480  211.5460  142.8450 O   0  0  0  0  0  0  0  0  0  0  0  0
  161.5030  212.2110  142.4770 C   0  0  0  0  0  0  0  0  0  0  0  0
  1 13  1  6  0  0  0
  1 11  1  0  0  0  0
  2  3  1  1  0  0  0
  2  9  1  0  0  0  0
  4 14  1  0  0  0  0
  6 15  1  6  0  0  0
  6  7  1  0  0  0  0
  6  9  1  0  0  0  0
  6 10  1  0  0  0  0
  7 10  1  0  0  0  0
  8  4  1  0  0  0  0
  9  1  1  0  0  0  0
 10 18  1  0  0  0  0
 10 13  1  0  0  0  0
 12  2  1  0  0  0  0
 12  8  1  0  0  0  0
 14  5  2  0  0  0  0
 14 11  1  0  0  0  0
 16 19  1  0  0  0  0
 17 18  1  0  0  0  0
 17 16  1  0  0  0  0
 18 16  1  0  0  0  0
 19 21  1  0  0  0  0
 21 31  1  0  0  0  0
 22 25  1  0  0  0  0
 23 30  2  0  0  0  0
 23 28  1  0  0  0  0
 24 23  1  0  0  0  0
 25 33  1  0  0  0  0
 25 29  1  0  0  0  0
 25 20  1  0  0  0  0
 26 21  1  0  0  0  0
 26 22  1  0  0  0  0
 27 31  2  0  0  0  0
 27 24  1  0  0  0  0
 29 32  2  0  0  0  0
 31 29  1  0  0  0  0
 32 30  1  0  0  0  0
 33 34  1  0  0  0  0
 33 35  1  0  0  0  0
 34 35  1  0  0  0  0
 36 26  1  0  0  0  0
 37 36  1  0  0  0  0
 38 17  1  0  0  0  0
 39 40  1  0  0  0  0
 40 38  1  0  0  0  0
 41 12  1  0  0  0  0
 43 41  1  0  0  0  0
 43 42  1  0  0  0  0
 44 43  1  0  0  0  0
 45 44  1  0  0  0  0
 46 45  1  0  0  0  0
 46 49  1  0  0  0  0
 49 48  2  0  0  0  0
 49 47  1  0  0  0  0
 50 46  1  0  0  0  0
 51 50  1  0  0  0  0
 52 51  1  0  0  0  0
 53 52  1  0  0  0  0
 54 58  1  0  0  0  0
 54 52  1  0  0  0  0
 55 54  1  0  0  0  0
 56 55  1  0  0  0  0
 57 55  2  0  0  0  0
 59 58  1  0  0  0  0
 60 61  1  0  0  0  0
 60 59  1  0  0  0  0
 61 62  1  0  0  0  0
 62 65  1  0  0  0  0
 65 64  2  0  0  0  0
 65 63  1  0  0  0  0
M  END
>  <MODEL>
2

>  <REMARK>
 VINA RESULT:      -0.3      1.779      3.215
  Name = 
  24 active torsions:
  status: ('A' for Active; 'I' for Inactive)
    1  A    between atoms: C_1  and  C_19
    2  A    between atoms: C_2  and  C_48
    3  A    between atoms: C_2  and  C_56
    4  A    between atoms: C_4  and  C_57
    5  A    between atoms: C_11  and  CA_55
    6  A    between atoms: O_15  and  C_29
    7  A    between atoms: N_18  and  C_57
    8  A    between atoms: C_22  and  C_53
    9  A    between atoms: C_22  and  C_58
   10  A    between atoms: C_25  and  N_34
   11  A    between atoms: C_25  and  CA_55
   12  A    between atoms: C_27  and  C_47
   13  A    between atoms: C_27  and  C_48
   14  A    between atoms: C_27  and  C_50
   15  A    between atoms: O_28  and  C_44
   16  A    between atoms: O_28  and  C_56
   17  A    between atoms: C_32  and  C_45
   18  A    between atoms: N_34  and  C_47
   19  A    between atoms: C_36  and  C_42
   20  A    between atoms: C_45  and  C_65
   21  A    between atoms: C_46  and  N_59
   22  A    between atoms: C_46  and  C_60
   23  A    between atoms: C_53  and  C_60
   24  A    between atoms: CA_55  and  N_59
                            x       y       z     vdW  Elec       q    Type
                         _______ _______ _______ _____ _____    ______ ____

>  <TORSDO>
F 24

$$$$
=
 OpenBabel11072414313D

 65 71  0  0  1  0  0  0  0  0999 V2000
  160.3660  205.2400  151.3480 C   0  0  1  0  0  3  0  0  0  0  0  0
  160.3240  204.2760  148.8270 C   0  0  1  0  0  3  0  0  0  0  0  0
  159.2540  203.2300  149.0920 C   0  0  0  0  0  1  0  0  0  0  0  0
  161.7090  202.0450  150.4270 C   0  0  0  0  0  2  0  0  0  0  0  0
  162.9540  203.5010  151.8050 O   0  0  0  0  0  0  0  0  0  0  0  0
  161.3760  206.5250  149.4940 C   0  0  1  0  0  0  0  0  0  0  0  0
  162.8270  206.3620  149.9210 C   0  0  0  0  0  2  0  0  0  0  0  0
  162.1570  202.3770  149.0080 C   0  0  0  0  0  2  0  0  0  0  0  0
  160.3290  205.4670  149.8150 C   0  0  2  0  0  3  0  0  0  0  0  0
  161.8420  207.1000  150.8090 C   0  0  2  0  0  0  0  0  0  0  0  0
  160.6110  203.8300  151.8850 C   0  0  0  0  0  2  0  0  0  0  0  0
  161.7280  203.7510  148.4600 C   0  0  1  0  0  3  0  0  0  0  0  0
  161.3240  206.2560  151.9640 C   0  0  0  0  0  2  0  0  0  0  0  0
  161.8570  203.1820  151.3740 C   0  0  0  0  0  0  0  0  0  0  0  0
  161.1140  207.4630  148.4900 O   0  0  0  0  0  1  0  0  0  0  0  0
  161.0590  209.3170  151.5320 N   0  0  0  0  0  0  0  0  0  0  0  0
  161.4680  209.4650  150.0950 C   0  0  2  0  0  3  0  0  0  0  0  0
  162.2250  208.5700  150.9890 C   0  0  2  0  0  3  0  0  0  0  0  0
  161.5260  210.4170  152.3940 C   0  0  0  0  0  2  0  0  0  0  0  0
  157.7690  213.5290  155.3760 O   0  0  0  0  0  1  0  0  0  0  0  0
  160.4020  211.1160  153.1810 C   0  0  1  0  0  3  0  0  0  0  0  0
  159.7820  212.2700  155.3940 C   0  0  0  0  0  2  0  0  0  0  0  0
  158.4830  214.1070  150.3890 C   0  0  0  0  0  0  0  0  0  0  0  0
  159.8720  214.2250  150.9190 C   0  0  0  0  0  2  0  0  0  0  0  0
  158.4150  212.4810  154.7040 C   0  0  2  0  0  0  0  0  0  0  0  0
  160.8640  211.5110  154.5850 C   0  0  1  0  0  3  0  0  0  0  0  0
  160.3520  212.9280  151.4840 C   0  0  0  0  0  3  0  0  0  0  0  0
  158.2330  214.4460  149.0300 N   0  0  0  0  0  1  0  0  0  0  0  0
  158.5860  212.8580  153.2430 C   0  0  0  0  0  0  0  0  0  0  0  0
  157.4500  213.8290  151.1830 C   0  0  0  0  0  3  0  0  0  0  0  0
  159.7730  212.3160  152.5220 C   0  0  0  0  0  0  0  0  0  0  0  0
  157.5510  213.4500  152.6090 C   0  0  0  0  0  3  0  0  0  0  0  0
  157.6160  211.1610  154.7770 C   0  0  0  0  0  3  0  0  0  0  0  0
  156.7760  211.0860  156.0400 C   0  0  0  0  0  2  0  0  0  0  0  0
  156.1070  211.3730  154.7010 C   0  0  0  0  0  2  0  0  0  0  0  0
  161.3060  210.3850  155.2970 O   0  0  0  0  0  0  0  0  0  0  0  0
  161.5120  210.8640  156.5940 C   0  0  0  0  0  1  0  0  0  0  0  0
  162.2540  210.7460  149.7680 C   0  0  0  0  0  2  0  0  0  0  0  0
  161.4160  212.5070  148.4320 O   0  0  0  0  0  1  0  0  0  0  0  0
  161.9870  211.2390  148.3540 C   0  0  0  0  0  2  0  0  0  0  0  0
  161.9010  203.7650  147.0680 O   0  0  0  0  0  0  0  0  0  0  0  0
  163.9820  204.8050  147.6020 C   0  0  0  0  0  1  0  0  0  0  0  0
  162.6960  204.8830  146.7860 C   0  0  1  0  0  3  0  0  0  0  0  0
  163.0490  204.8730  145.3070 C   0  0  0  0  0  2  0  0  0  0  0  0
  161.9300  204.2530  144.4910 C   0  0  0  0  0  2  0  0  0  0  0  0
  161.1020  205.3470  143.8200 C   0  0  1  0  0  3  0  0  0  0  0  0
  159.0110  205.5900  144.9230 O   0  0  0  0  0  0  0  0  0  0  0  0
  160.5350  207.2380  145.3790 O   0  0  0  0  0  1  0  0  0  0  0  0
  160.1670  206.0480  144.7570 C   0  0  0  0  0  0  0  0  0  0  0  0
  161.9660  206.3200  143.0240 C   0  0  0  0  0  2  0  0  0  0  0  0
  161.3800  206.6430  141.7260 N   0  0  0  0  0  2  0  0  0  0  0  0
  162.4590  207.0110  140.8150 C   0  0  1  0  0  3  0  0  0  0  0  0
  162.9290  205.7760  140.0740 C   0  0  0  0  0  1  0  0  0  0  0  0
  162.0350  208.0930  139.8180 C   0  0  2  0  0  3  0  0  0  0  0  0
  162.0960  209.4630  140.4140 C   0  0  0  0  0  0  0  0  0  0  0  0
  163.1630  210.3130  140.1400 O   0  0  0  0  0  0  0  0  0  0  0  0
  161.1450  209.8650  141.1330 O   0  0  0  0  0  1  0  0  0  0  0  0
  160.7110  207.8200  139.2710 N   0  0  0  0  0  2  0  0  0  0  0  0
  160.8050  208.0210  137.8360 C   0  0  0  0  0  2  0  0  0  0  0  0
  159.5210  208.6380  137.3050 C   0  0  0  0  0  2  0  0  0  0  0  0
  158.8030  209.4080  138.4000 C   0  0  0  0  0  2  0  0  0  0  0  0
  159.0210  210.9050  138.2370 C   0  0  0  0  0  2  0  0  0  0  0  0
  156.8310  211.9730  137.8220 F   0  0  0  0  0  0  0  0  0  0  0  0
  157.7240  212.0110  139.8630 O   0  0  0  0  0  0  0  0  0  0  0  0
  157.8130  211.6470  138.7010 C   0  0  0  0  0  0  0  0  0  0  0  0
  1 11  1  6  0  0  0
  1 13  1  0  0  0  0
  2  3  1  1  0  0  0
  2  9  1  0  0  0  0
  4 14  1  0  0  0  0
  6 15  1  6  0  0  0
  6  9  1  0  0  0  0
  6  7  1  0  0  0  0
  6 10  1  0  0  0  0
  7 10  1  0  0  0  0
  8  4  1  0  0  0  0
  9  1  1  0  0  0  0
 10 18  1  0  0  0  0
 10 13  1  0  0  0  0
 12  2  1  0  0  0  0
 12  8  1  0  0  0  0
 14  5  2  0  0  0  0
 14 11  1  0  0  0  0
 16 19  1  0  0  0  0
 17 18  1  0  0  0  0
 17 16  1  0  0  0  0
 18 16  1  0  0  0  0
 19 21  1  0  0  0  0
 21 26  1  0  0  0  0
 23 24  1  0  0  0  0
 23 30  2  0  0  0  0
 24 27  1  0  0  0  0
 25 33  1  0  0  0  0
 25 20  1  0  0  0  0
 25 22  1  0  0  0  0
 26 36  1  0  0  0  0
 26 22  1  0  0  0  0
 27 31  2  0  0  0  0
 28 23  1  0  0  0  0
 29 25  1  0  0  0  0
 30 32  1  0  0  0  0
 31 21  1  0  0  0  0
 31 29  1  0  0  0  0
 32 29  2  0  0  0  0
 33 34  1  0  0  0  0
 35 33  1  0  0  0  0
 35 34  1  0  0  0  0
 36 37  1  0  0  0  0
 38 17  1  0  0  0  0
 40 39  1  0  0  0  0
 40 38  1  0  0  0  0
 41 12  1  0  0  0  0
 43 41  1  0  0  0  0
 43 42  1  0  0  0  0
 44 43  1  0  0  0  0
 45 44  1  0  0  0  0
 46 45  1  0  0  0  0
 46 49  1  0  0  0  0
 49 47  2  0  0  0  0
 49 48  1  0  0  0  0
 50 46  1  0  0  0  0
 51 50  1  0  0  0  0
 52 51  1  0  0  0  0
 53 52  1  0  0  0  0
 54 55  1  0  0  0  0
 54 52  1  0  0  0  0
 55 57  1  0  0  0  0
 56 55  2  0  0  0  0
 58 54  1  0  0  0  0
 59 58  1  0  0  0  0
 60 59  1  0  0  0  0
 60 61  1  0  0  0  0
 62 61  1  0  0  0  0
 62 65  1  0  0  0  0
 63 65  1  0  0  0  0
 65 64  2  0  0  0  0
M  END
>  <MODEL>
3

>  <REMARK>
 VINA RESULT:      -0.2      1.663      2.172
  Name = 
  24 active torsions:
  status: ('A' for Active; 'I' for Inactive)
    1  A    between atoms: C_1  and  C_19
    2  A    between atoms: C_2  and  C_48
    3  A    between atoms: C_2  and  C_56
    4  A    between atoms: C_4  and  C_57
    5  A    between atoms: C_11  and  CA_55
    6  A    between atoms: O_15  and  C_29
    7  A    between atoms: N_18  and  C_57
    8  A    between atoms: C_22  and  C_53
    9  A    between atoms: C_22  and  C_58
   10  A    between atoms: C_25  and  N_34
   11  A    between atoms: C_25  and  CA_55
   12  A    between atoms: C_27  and  C_47
   13  A    between atoms: C_27  and  C_48
   14  A    between atoms: C_27  and  C_50
   15  A    between atoms: O_28  and  C_44
   16  A    between atoms: O_28  and  C_56
   17  A    between atoms: C_32  and  C_45
   18  A    between atoms: N_34  and  C_47
   19  A    between atoms: C_36  and  C_42
   20  A    between atoms: C_45  and  C_65
   21  A    between atoms: C_46  and  N_59
   22  A    between atoms: C_46  and  C_60
   23  A    between atoms: C_53  and  C_60
   24  A    between atoms: CA_55  and  N_59
                            x       y       z     vdW  Elec       q    Type
                         _______ _______ _______ _____ _____    ______ ____

>  <TORSDO>
F 24

$$$$
=
 OpenBabel11072414313D

 65 71  0  0  1  0  0  0  0  0999 V2000
  160.1990  204.8420  152.0800 C   0  0  1  0  0  3  0  0  0  0  0  0
  160.2580  204.5790  149.3940 C   0  0  1  0  0  3  0  0  0  0  0  0
  159.2550  203.4380  149.3400 C   0  0  0  0  0  1  0  0  0  0  0  0
  161.7620  202.0900  150.3920 C   0  0  0  0  0  2  0  0  0  0  0  0
  162.8880  203.2000  152.1450 O   0  0  0  0  0  0  0  0  0  0  0  0
  161.1500  206.6290  150.6620 C   0  0  1  0  0  0  0  0  0  0  0  0
  162.6020  206.4450  151.0770 C   0  0  0  0  0  2  0  0  0  0  0  0
  162.2090  202.8110  149.1260 C   0  0  0  0  0  2  0  0  0  0  0  0
  160.1700  205.4640  150.6600 C   0  0  2  0  0  3  0  0  0  0  0  0
  161.5570  206.8620  152.0960 C   0  0  2  0  0  0  0  0  0  0  0  0
  160.5280  203.3560  152.2330 C   0  0  0  0  0  2  0  0  0  0  0  0
  161.6990  204.2540  148.9460 C   0  0  1  0  0  3  0  0  0  0  0  0
  161.0780  205.7130  152.9710 C   0  0  0  0  0  2  0  0  0  0  0  0
  161.8210  202.9420  151.6100 C   0  0  0  0  0  0  0  0  0  0  0  0
  160.8420  207.7820  149.9320 O   0  0  0  0  0  1  0  0  0  0  0  0
  160.5600  208.9950  152.8080 N   0  0  0  0  0  0  0  0  0  0  0  0
  161.5310  209.3310  151.7130 C   0  0  2  0  0  3  0  0  0  0  0  0
  161.8400  208.2510  152.6690 C   0  0  2  0  0  3  0  0  0  0  0  0
  160.6320  209.9090  153.9620 C   0  0  0  0  0  2  0  0  0  0  0  0
  156.2100  213.3450  155.1110 O   0  0  0  0  0  1  0  0  0  0  0  0
  159.3360  210.6990  154.2160 C   0  0  1  0  0  3  0  0  0  0  0  0
  157.9700  212.0010  155.9650 C   0  0  0  0  0  2  0  0  0  0  0  0
  158.8600  213.6140  150.7950 C   0  0  0  0  0  0  0  0  0  0  0  0
  159.9330  213.6980  151.8270 C   0  0  0  0  0  2  0  0  0  0  0  0
  157.0010  212.2340  154.7840 C   0  0  2  0  0  0  0  0  0  0  0  0
  159.2330  211.1510  155.6740 C   0  0  1  0  0  3  0  0  0  0  0  0
  160.0700  212.4150  152.5780 C   0  0  0  0  0  3  0  0  0  0  0  0
  159.1850  213.8880  149.4380 N   0  0  0  0  0  1  0  0  0  0  0  0
  157.7540  212.5220  153.4970 C   0  0  0  0  0  0  0  0  0  0  0  0
  157.5830  213.4270  151.1250 C   0  0  0  0  0  3  0  0  0  0  0  0
  159.0930  211.8880  153.3230 C   0  0  0  0  0  0  0  0  0  0  0  0
  157.0920  213.1230  152.4870 C   0  0  0  0  0  3  0  0  0  0  0  0
  156.1550  210.9570  154.5790 C   0  0  0  0  0  3  0  0  0  0  0  0
  155.9770  210.1910  155.8790 C   0  0  0  0  0  2  0  0  0  0  0  0
  154.8180  211.0030  155.3130 C   0  0  0  0  0  2  0  0  0  0  0  0
  159.2880  210.0480  156.5410 O   0  0  0  0  0  0  0  0  0  0  0  0
  160.5320  210.1700  157.1670 C   0  0  0  0  0  1  0  0  0  0  0  0
  162.3900  210.5820  151.9640 C   0  0  0  0  0  2  0  0  0  0  0  0
  163.8800  210.8500  153.7800 O   0  0  0  0  0  1  0  0  0  0  0  0
  163.7560  210.2360  152.5360 C   0  0  0  0  0  2  0  0  0  0  0  0
  161.8910  204.6460  147.6130 O   0  0  0  0  0  0  0  0  0  0  0  0
  162.2990  206.9980  147.6460 C   0  0  0  0  0  1  0  0  0  0  0  0
  161.2630  205.8910  147.4790 C   0  0  1  0  0  3  0  0  0  0  0  0
  160.6590  205.9880  146.0880 C   0  0  0  0  0  2  0  0  0  0  0  0
  161.7470  206.0770  145.0330 C   0  0  0  0  0  2  0  0  0  0  0  0
  161.5420  204.9950  143.9760 C   0  0  1  0  0  3  0  0  0  0  0  0
  160.9930  202.9950  145.1380 O   0  0  0  0  0  1  0  0  0  0  0  0
  159.2810  203.8960  143.9120 O   0  0  0  0  0  0  0  0  0  0  0  0
  160.5850  203.9220  144.3970 C   0  0  0  0  0  0  0  0  0  0  0  0
  161.1980  205.5780  142.6090 C   0  0  0  0  0  2  0  0  0  0  0  0
  161.8160  206.8840  142.3950 N   0  0  0  0  0  2  0  0  0  0  0  0
  162.2980  206.9420  141.0180 C   0  0  1  0  0  3  0  0  0  0  0  0
  162.0710  205.6000  140.3530 C   0  0  0  0  0  1  0  0  0  0  0  0
  161.6180  208.0510  140.2110 C   0  0  2  0  0  3  0  0  0  0  0  0
  161.5160  207.7100  138.7590 C   0  0  0  0  0  0  0  0  0  0  0  0
  160.3440  207.9540  138.0490 O   0  0  0  0  0  0  0  0  0  0  0  0
  162.5200  207.2400  138.1650 O   0  0  0  0  0  1  0  0  0  0  0  0
  162.2880  209.3310  140.4010 N   0  0  0  0  0  2  0  0  0  0  0  0
  161.3070  210.3620  140.1060 C   0  0  0  0  0  2  0  0  0  0  0  0
  161.5180  211.5640  141.0140 C   0  0  0  0  0  2  0  0  0  0  0  0
  160.5020  211.5680  142.1430 C   0  0  0  0  0  2  0  0  0  0  0  0
  160.4970  212.9120  142.8570 C   0  0  0  0  0  2  0  0  0  0  0  0
  162.7410  212.7910  143.8870 F   0  0  0  0  0  0  0  0  0  0  0  0
  160.9210  212.8190  145.1720 O   0  0  0  0  0  0  0  0  0  0  0  0
  161.3940  212.8570  144.0480 C   0  0  0  0  0  0  0  0  0  0  0  0
  1 11  1  6  0  0  0
  1 13  1  0  0  0  0
  2  3  1  1  0  0  0
  2  9  1  0  0  0  0
  4 14  1  0  0  0  0
  6 15  1  6  0  0  0
  6  7  1  0  0  0  0
  6 10  1  0  0  0  0
  7 10  1  0  0  0  0
  8  4  1  0  0  0  0
  9  6  1  0  0  0  0
  9  1  1  0  0  0  0
 10 18  1  0  0  0  0
 10 13  1  0  0  0  0
 12  8  1  0  0  0  0
 12  2  1  0  0  0  0
 14  5  2  0  0  0  0
 14 11  1  0  0  0  0
 16 19  1  0  0  0  0
 17 38  1  0  0  0  0
 17 18  1  0  0  0  0
 17 16  1  0  0  0  0
 18 16  1  0  0  0  0
 19 21  1  0  0  0  0
 21 26  1  0  0  0  0
 23 30  2  0  0  0  0
 23 24  1  0  0  0  0
 24 27  1  0  0  0  0
 25 20  1  0  0  0  0
 25 22  1  0  0  0  0
 26 22  1  0  0  0  0
 26 36  1  0  0  0  0
 27 31  2  0  0  0  0
 28 23  1  0  0  0  0
 29 25  1  0  0  0  0
 30 32  1  0  0  0  0
 31 29  1  0  0  0  0
 31 21  1  0  0  0  0
 32 29  2  0  0  0  0
 33 25  1  0  0  0  0
 33 35  1  0  0  0  0
 33 34  1  0  0  0  0
 35 34  1  0  0  0  0
 36 37  1  0  0  0  0
 38 40  1  0  0  0  0
 40 39  1  0  0  0  0
 41 12  1  0  0  0  0
 43 41  1  0  0  0  0
 43 42  1  0  0  0  0
 44 43  1  0  0  0  0
 45 44  1  0  0  0  0
 46 49  1  0  0  0  0
 46 45  1  0  0  0  0
 48 49  2  0  0  0  0
 49 47  1  0  0  0  0
 50 46  1  0  0  0  0
 51 50  1  0  0  0  0
 52 51  1  0  0  0  0
 53 52  1  0  0  0  0
 54 58  1  0  0  0  0
 54 52  1  0  0  0  0
 55 54  1  0  0  0  0
 56 55  2  0  0  0  0
 57 55  1  0  0  0  0
 59 58  1  0  0  0  0
 59 60  1  0  0  0  0
 60 61  1  0  0  0  0
 61 62  1  0  0  0  0
 62 65  1  0  0  0  0
 63 65  1  0  0  0  0
 65 64  2  0  0  0  0
M  END
>  <MODEL>
4

>  <REMARK>
 VINA RESULT:       1.4      1.908      2.374
  Name = 
  24 active torsions:
  status: ('A' for Active; 'I' for Inactive)
    1  A    between atoms: C_1  and  C_19
    2  A    between atoms: C_2  and  C_48
    3  A    between atoms: C_2  and  C_56
    4  A    between atoms: C_4  and  C_57
    5  A    between atoms: C_11  and  CA_55
    6  A    between atoms: O_15  and  C_29
    7  A    between atoms: N_18  and  C_57
    8  A    between atoms: C_22  and  C_53
    9  A    between atoms: C_22  and  C_58
   10  A    between atoms: C_25  and  N_34
   11  A    between atoms: C_25  and  CA_55
   12  A    between atoms: C_27  and  C_47
   13  A    between atoms: C_27  and  C_48
   14  A    between atoms: C_27  and  C_50
   15  A    between atoms: O_28  and  C_44
   16  A    between atoms: O_28  and  C_56
   17  A    between atoms: C_32  and  C_45
   18  A    between atoms: N_34  and  C_47
   19  A    between atoms: C_36  and  C_42
   20  A    between atoms: C_45  and  C_65
   21  A    between atoms: C_46  and  N_59
   22  A    between atoms: C_46  and  C_60
   23  A    between atoms: C_53  and  C_60
   24  A    between atoms: CA_55  and  N_59
                            x       y       z     vdW  Elec       q    Type
                         _______ _______ _______ _____ _____    ______ ____

>  <TORSDO>
F 24

$$$$
