=
 OpenBabel11072414343D

 36 42  0  0  1  0  0  0  0  0999 V2000
  157.8150  213.7570  152.0830 C   0  0  0  0  0  3  0  0  0  0  0  0
  157.9120  213.6360  149.6610 C   0  0  0  0  0  0  0  0  0  0  0  0
  162.2840  212.6990  140.9340 C   0  0  0  0  0  3  0  0  0  0  0  0
  160.0230  213.8010  151.0110 C   0  0  0  0  0  3  0  0  0  0  0  0
  157.9210  213.5360  144.8720 C   0  0  0  0  0  0  0  0  0  0  0  0
  159.3680  213.4110  144.7350 C   0  0  0  0  0  0  0  0  0  0  0  0
  157.2020  214.3910  144.2290 N   0  0  0  0  0  0  0  0  0  0  0  0
  161.7560  213.5340  139.8400 C   0  0  0  0  0  3  0  0  0  0  0  0
  159.9280  213.4470  143.5510 C   0  0  0  0  0  0  0  0  0  0  0  0
  159.3750  213.2420  147.2820 C   0  0  0  0  0  0  0  0  0  0  0  0
  163.7280  214.1070  146.2450 O   0  0  0  0  0  1  0  0  0  0  0  0
  158.0130  213.2570  147.2950 C   0  0  0  0  0  0  0  0  0  0  0  0
  159.3790  213.9840  149.6550 C   0  0  1  0  0  3  0  0  0  0  0  0
  155.9610  213.6980  145.9990 N   0  0  0  0  0  0  0  0  0  0  0  0
  160.0580  213.2830  148.5560 N   0  0  0  0  0  0  0  0  0  0  0  0
  161.6900  212.6720  142.1260 C   0  0  0  0  0  3  0  0  0  0  0  0
  159.2910  213.7410  152.1290 C   0  0  0  0  0  3  0  0  0  0  0  0
  157.2230  212.9780  146.0460 C   0  0  1  0  0  3  0  0  0  0  0  0
  161.3620  212.6360  148.7600 C   0  0  2  0  0  3  0  0  0  0  0  0
  162.5010  213.4790  148.1840 C   0  0  0  0  0  2  0  0  0  0  0  0
  160.1820  213.1380  145.9820 C   0  0  2  0  0  3  0  0  0  0  0  0
  160.6950  214.3270  140.0190 C   0  0  0  0  0  3  0  0  0  0  0  0
  157.1590  213.6920  150.9210 C   0  0  0  0  0  3  0  0  0  0  0  0
  155.9750  214.4530  144.9480 C   0  0  0  0  0  3  0  0  0  0  0  0
  162.5750  213.4420  146.6600 C   0  0  1  0  0  3  0  0  0  0  0  0
  157.3100  213.3470  148.5470 N   0  0  0  0  0  0  0  0  0  0  0  0
  160.4920  213.4860  142.3780 C   0  0  0  0  0  0  0  0  0  0  0  0
  159.9840  214.4530  141.3430 C   0  0  0  0  0  2  0  0  0  0  0  0
  161.3630  214.1070  146.0320 C   0  0  0  0  0  2  0  0  0  0  0  0
  161.5510  208.7310  148.9280 C   0  0  0  0  0  1  0  0  0  0  0  0
  162.7100  210.7170  148.2280 O   0  0  0  0  0  0  0  0  0  0  0  0
  161.3820  211.1930  148.2420 C   0  0  1  0  0  3  0  0  0  0  0  0
  161.8680  210.1840  149.2200 C   0  0  1  0  0  0  0  0  0  0  0  0
  162.3550  210.5640  150.6090 C   0  0  0  0  0  2  0  0  0  0  0  0
  161.4910  209.5730  152.3810 C   0  0  0  0  0  1  0  0  0  0  0  0
  162.4690  209.4190  151.3990 O   0  0  0  0  0  0  0  0  0  0  0  0
  1 17  1  0  0  0  0
  2 23  1  0  0  0  0
  3 16  2  0  0  0  0
  4 17  2  0  0  0  0
  6  5  1  0  0  0  0
  6 21  1  0  0  0  0
  7  5  2  0  0  0  0
  7 24  1  0  0  0  0
  8 22  2  0  0  0  0
  8  3  1  0  0  0  0
  9  6  2  0  0  0  0
 10 12  2  0  0  0  0
 10 15  1  0  0  0  0
 12 26  1  0  0  0  0
 13  2  1  0  0  0  0
 13  4  1  1  0  0  0
 14 18  1  0  0  0  0
 15 19  1  0  0  0  0
 15 13  1  0  0  0  0
 16 27  1  0  0  0  0
 18  5  1  6  0  0  0
 18 12  1  0  0  0  0
 19 20  1  6  0  0  0
 21 29  1  1  0  0  0
 21 10  1  0  0  0  0
 22 28  1  0  0  0  0
 23  1  2  0  0  0  0
 24 14  2  0  0  0  0
 25 11  1  1  0  0  0
 25 20  1  0  0  0  0
 26  2  2  0  0  0  0
 27  9  2  0  0  0  0
 28 27  1  0  0  0  0
 29 25  1  0  0  0  0
 31 33  1  0  0  0  0
 32 31  1  6  0  0  0
 32 19  1  0  0  0  0
 32 33  1  0  0  0  0
 33 30  1  6  0  0  0
 33 34  1  0  0  0  0
 34 36  1  0  0  0  0
 36 35  1  0  0  0  0
M  END
>  <MODEL>
1

>  <REMARK>
 VINA RESULT:      -4.1      0.000      0.000
  Name = 
  3 active torsions:
  status: ('A' for Active; 'I' for Inactive)
    1  A    between atoms: C_3  and  O_20
    2  A    between atoms: C_3  and  C_30
    3  A    between atoms: C_24  and  C_25
                            x       y       z     vdW  Elec       q    Type
                         _______ _______ _______ _____ _____    ______ ____

>  <TORSDO>
F 3

$$$$
