=
 OpenBabel11072409593D

 54 59  0  0  1  0  0  0  0  0999 V2000
  162.2900  207.6510  151.1050 C   0  0  2  0  0  3  0  0  0  0  0  0
  161.7720  207.3820  149.6910 C   0  0  1  0  0  3  0  0  0  0  0  0
  161.4830  205.3440  150.9670 C   0  0  0  0  0  2  0  0  0  0  0  0
  159.5980  206.3950  150.0090 O   0  0  0  0  0  1  0  0  0  0  0  0
  160.9410  206.0980  149.7570 C   0  0  1  0  0  0  0  0  0  0  0  0
  162.5240  206.2420  151.6270 C   0  0  0  0  0  2  0  0  0  0  0  0
  160.5460  210.5130  152.8160 O   0  0  0  0  0  0  0  0  0  0  0  0
  161.2690  208.3800  152.0060 C   0  0  2  0  0  3  0  0  0  0  0  0
  161.6600  209.8530  152.2330 C   0  0  2  0  0  3  0  0  0  0  0  0
  159.3270  209.6110  154.7060 C   0  0  1  0  0  3  0  0  0  0  0  0
  159.5340  208.7800  155.8110 O   0  0  0  0  0  1  0  0  0  0  0  0
  162.6370  209.7950  153.2420 O   0  0  0  0  0  0  0  0  0  0  0  0
  158.5580  210.8350  155.1590 C   0  0  0  0  0  2  0  0  0  0  0  0
  160.9370  211.3870  155.0150 C   0  0  0  0  0  2  0  0  0  0  0  0
  161.4090  207.9770  153.4290 C   0  0  0  0  0  0  0  0  0  0  0  0
  160.6550  210.1520  154.1790 C   0  0  2  0  0  0  0  0  0  0  0  0
  159.5830  211.9190  155.4450 C   0  0  0  0  0  2  0  0  0  0  0  0
  161.8370  209.1820  154.1920 C   0  0  2  0  0  3  0  0  0  0  0  0
  161.1190  206.8940  153.9080 O   0  0  0  0  0  0  0  0  0  0  0  0
  161.7940  209.6240  148.7600 C   0  0  0  0  0  0  0  0  0  0  0  0
  162.4690  210.7200  148.5380 C   0  0  0  0  0  3  0  0  0  0  0  0
  161.1220  208.5290  148.9790 C   0  0  0  0  0  3  0  0  0  0  0  0
  161.8080  212.0590  148.3690 C   0  0  1  0  0  3  0  0  0  0  0  0
  161.9530  213.1690  144.2680 C   0  0  0  0  0  2  0  0  0  0  0  0
  161.6530  212.4930  146.9050 C   0  0  1  0  0  3  0  0  0  0  0  0
  162.5740  214.0910  145.3360 C   0  0  0  0  0  2  0  0  0  0  0  0
  158.2810  213.0500  145.0820 C   0  0  0  0  0  1  0  0  0  0  0  0
  160.5000  213.3300  144.1170 N   0  0  0  0  0  2  0  0  0  0  0  0
  159.7490  213.2750  145.3800 C   0  0  2  0  0  3  0  0  0  0  0  0
  160.2430  212.2020  146.3620 C   0  0  0  0  0  2  0  0  0  0  0  0
  162.0410  213.8910  146.6940 N   0  0  0  0  0  2  0  0  0  0  0  0
  160.4800  212.1270  149.1190 C   0  0  0  0  0  2  0  0  0  0  0  0
  160.2210  213.5240  149.6830 C   0  0  1  0  0  3  0  0  0  0  0  0
  158.9210  214.0980  149.2160 C   0  0  0  0  0  3  0  0  0  0  0  0
  158.1210  213.4100  148.6050 O   0  0  0  0  0  0  0  0  0  0  0  0
  160.3160  213.5430  151.2120 C   0  0  0  0  0  2  0  0  0  0  0  0
  159.1090  214.1720  151.9060 C   0  0  0  0  0  2  0  0  0  0  0  0
  158.3410  213.1430  152.7150 C   0  0  0  0  0  2  0  0  0  0  0  0
  156.9080  213.5980  152.9120 C   0  0  0  0  0  2  0  0  0  0  0  0
  155.8700  212.8580  155.0840 C   0  0  0  0  0  0  0  0  0  0  0  0
  156.6430  213.7910  154.3310 N   0  0  0  0  0  2  0  0  0  0  0  0
  155.4200  211.8170  154.5300 O   0  0  0  0  0  0  0  0  0  0  0  0
  155.6360  213.1030  156.4380 O   0  0  0  0  0  0  0  0  0  0  0  0
  153.5920  214.4380  157.2480 C   0  0  0  0  0  3  0  0  0  0  0  0
  154.5500  213.8140  156.8690 C   0  0  0  0  0  0  0  0  0  0  0  0
  161.0720  205.2370  148.4780 C   0  0  1  0  0  3  0  0  0  0  0  0
  161.0800  206.4280  146.2460 C   0  0  0  0  0  2  0  0  0  0  0  0
  161.8740  205.1580  146.0860 C   0  0  1  0  0  0  0  0  0  0  0  0
  161.9350  205.9120  147.4040 C   0  0  2  0  0  3  0  0  0  0  0  0
  161.1040  204.0170  145.9590 F   0  0  0  0  0  0  0  0  0  0  0  0
  162.9800  205.3040  145.2560 O   0  0  0  0  0  1  0  0  0  0  0  0
  161.6450  203.8540  148.8000 C   0  0  0  0  0  2  0  0  0  0  0  0
  160.5550  202.7990  148.8070 C   0  0  0  0  0  2  0  0  0  0  0  0
  160.9980  201.6200  147.9680 C   0  0  0  0  0  1  0  0  0  0  0  0
  1  6  1  1  0  0  0
  1  8  1  0  0  0  0
  2 22  1  1  0  0  0
  2  5  1  0  0  0  0
  2  1  1  0  0  0  0
  3  6  1  0  0  0  0
  5  4  1  1  0  0  0
  5  3  1  0  0  0  0
  7 16  1  0  0  0  0
  8  9  1  0  0  0  0
  8 15  1  1  0  0  0
  9  7  1  1  0  0  0
  9 12  1  0  0  0  0
 10 13  1  0  0  0  0
 10 11  1  1  0  0  0
 13 17  1  0  0  0  0
 14 17  1  0  0  0  0
 15 19  2  0  0  0  0
 15 18  1  0  0  0  0
 16 18  1  0  0  0  0
 16 10  1  0  0  0  0
 16 14  1  1  0  0  0
 18 12  1  6  0  0  0
 20 22  2  0  0  0  0
 21 20  2  0  0  0  0
 23 21  1  6  0  0  0
 23 32  1  0  0  0  0
 24 26  1  0  0  0  0
 25 23  1  1  0  0  0
 26 31  1  0  0  0  0
 28 24  1  0  0  0  0
 28 29  1  0  0  0  0
 29 27  1  6  0  0  0
 29 30  1  0  0  0  0
 30 25  1  0  0  0  0
 31 25  1  0  0  0  0
 33 32  1  1  0  0  0
 33 36  1  0  0  0  0
 34 33  1  0  0  0  0
 35 34  2  0  0  0  0
 36 37  1  0  0  0  0
 37 38  1  0  0  0  0
 38 39  1  0  0  0  0
 39 41  1  0  0  0  0
 40 43  1  0  0  0  0
 41 40  1  0  0  0  0
 42 40  2  0  0  0  0
 43 45  1  0  0  0  0
 45 44  3  0  0  0  0
 46 52  1  1  0  0  0
 46  5  1  0  0  0  0
 47 49  1  0  0  0  0
 48 51  1  6  0  0  0
 48 47  1  0  0  0  0
 48 49  1  0  0  0  0
 49 46  1  1  0  0  0
 50 48  1  0  0  0  0
 52 53  1  0  0  0  0
 54 53  1  0  0  0  0
M  END
>  <MODEL>
1

>  <REMARK>
 VINA RESULT:      -5.8      0.000      0.000
  Name = 
  18 active torsions:
  status: ('A' for Active; 'I' for Inactive)
    1  A    between atoms: C_1  and  C_54
    2  A    between atoms: C_4  and  O_34
    3  A    between atoms: C_6  and  C_14
    4  A    between atoms: N_7  and  C_12
    5  A    between atoms: C_10  and  C_14
    6  A    between atoms: C_10  and  C_24
    7  A    between atoms: C_11  and  C_14
    8  A    between atoms: C_12  and  C_41
    9  A    between atoms: C_13  and  C_24
   10  A    between atoms: C_16  and  C_25
   11  A    between atoms: C_17  and  C_19
   12  A    between atoms: C_20  and  C_26
   13  A    between atoms: C_24  and  C_46
   14  A    between atoms: C_25  and  C_45
   15  A    between atoms: C_25  and  C_54
   16  A    between atoms: O_34  and  C_43
   17  A    between atoms: C_41  and  C_51
   18  A    between atoms: C_46  and  C_51
                            x       y       z     vdW  Elec       q    Type
                         _______ _______ _______ _____ _____    ______ ____

>  <TORSDO>
F 18

$$$$
=
 OpenBabel11072409593D

 54 59  0  0  1  0  0  0  0  0999 V2000
  160.2090  213.1180  151.5920 C   0  0  2  0  0  3  0  0  0  0  0  0
  159.8980  212.1590  152.7420 C   0  0  1  0  0  3  0  0  0  0  0  0
  158.5930  214.1670  153.1010 C   0  0  0  0  0  2  0  0  0  0  0  0
  157.4930  212.0920  152.8540 O   0  0  0  0  0  1  0  0  0  0  0  0
  158.6290  212.6760  153.4220 C   0  0  1  0  0  0  0  0  0  0  0  0
  159.7640  214.4530  152.1660 C   0  0  0  0  0  2  0  0  0  0  0  0
  159.5910  212.2880  147.9740 O   0  0  0  0  0  0  0  0  0  0  0  0
  159.4150  212.8110  150.3020 C   0  0  2  0  0  3  0  0  0  0  0  0
  160.3180  212.8530  149.0540 C   0  0  2  0  0  3  0  0  0  0  0  0
  157.3110  212.9230  147.4500 C   0  0  1  0  0  3  0  0  0  0  0  0
  156.4520  214.0180  147.5800 O   0  0  0  0  0  1  0  0  0  0  0  0
  160.4300  214.2240  148.7600 O   0  0  0  0  0  0  0  0  0  0  0  0
  157.1770  212.3670  146.0470 C   0  0  0  0  0  2  0  0  0  0  0  0
  159.1590  213.7960  146.1590 C   0  0  0  0  0  2  0  0  0  0  0  0
  158.5640  213.9590  149.8980 C   0  0  0  0  0  0  0  0  0  0  0  0
  158.7700  213.3630  147.5610 C   0  0  2  0  0  0  0  0  0  0  0  0
  158.2830  212.9940  145.2160 C   0  0  0  0  0  2  0  0  0  0  0  0
  159.0750  214.4530  148.5900 C   0  0  2  0  0  3  0  0  0  0  0  0
  157.5610  214.3550  150.4690 O   0  0  0  0  0  0  0  0  0  0  0  0
  161.0000  210.1190  152.0220 C   0  0  0  0  0  0  0  0  0  0  0  0
  162.1020  209.5410  151.6250 C   0  0  0  0  0  3  0  0  0  0  0  0
  159.9020  210.6950  152.4220 C   0  0  0  0  0  3  0  0  0  0  0  0
  162.1070  208.3020  150.7750 C   0  0  1  0  0  3  0  0  0  0  0  0
  161.6480  204.4490  152.5110 C   0  0  0  0  0  2  0  0  0  0  0  0
  161.8460  207.0100  151.5610 C   0  0  1  0  0  3  0  0  0  0  0  0
  160.8210  204.8350  151.2690 C   0  0  0  0  0  2  0  0  0  0  0  0
  160.5530  206.8330  155.2080 C   0  0  0  0  0  1  0  0  0  0  0  0
  161.0810  204.9340  153.7770 N   0  0  0  0  0  2  0  0  0  0  0  0
  160.7400  206.3640  153.7800 C   0  0  2  0  0  3  0  0  0  0  0  0
  161.7710  207.2610  153.0770 C   0  0  0  0  0  2  0  0  0  0  0  0
  160.6690  206.2860  151.0690 N   0  0  0  0  0  2  0  0  0  0  0  0
  161.1610  208.4370  149.5840 C   0  0  0  0  0  2  0  0  0  0  0  0
  161.9250  208.6660  148.2800 C   0  0  1  0  0  3  0  0  0  0  0  0
  162.7730  209.8980  148.3220 C   0  0  0  0  0  3  0  0  0  0  0  0
  162.3410  210.9340  148.7990 O   0  0  0  0  0  0  0  0  0  0  0  0
  162.7530  207.4390  147.8860 C   0  0  0  0  0  2  0  0  0  0  0  0
  161.9360  206.1570  147.7310 C   0  0  0  0  0  2  0  0  0  0  0  0
  162.2810  205.4360  146.4410 C   0  0  0  0  0  2  0  0  0  0  0  0
  161.1600  204.4920  146.0540 C   0  0  0  0  0  2  0  0  0  0  0  0
  160.9420  201.9840  146.0890 C   0  0  0  0  0  0  0  0  0  0  0  0
  161.3540  203.2030  146.7030 N   0  0  0  0  0  2  0  0  0  0  0  0
  160.4190  201.9990  144.9400 O   0  0  0  0  0  0  0  0  0  0  0  0
  161.1390  200.7790  146.7670 O   0  0  0  0  0  0  0  0  0  0  0  0
  161.3540  198.5350  145.5290 C   0  0  0  0  0  3  0  0  0  0  0  0
  161.2530  199.5860  146.1080 C   0  0  0  0  0  0  0  0  0  0  0  0
  158.6410  212.4530  154.9540 C   0  0  1  0  0  3  0  0  0  0  0  0
  158.0690  213.4560  157.2050 C   0  0  0  0  0  2  0  0  0  0  0  0
  156.8200  212.8110  156.6660 C   0  0  1  0  0  0  0  0  0  0  0  0
  157.7840  213.4830  155.7030 C   0  0  2  0  0  3  0  0  0  0  0  0
  156.7910  211.4340  156.7920 F   0  0  0  0  0  0  0  0  0  0  0  0
  155.6630  213.5240  156.9570 O   0  0  0  0  0  1  0  0  0  0  0  0
  158.1690  211.0400  155.3090 C   0  0  0  0  0  2  0  0  0  0  0  0
  159.3450  210.1170  155.5620 C   0  0  0  0  0  2  0  0  0  0  0  0
  160.4120  210.8700  156.3270 C   0  0  0  0  0  1  0  0  0  0  0  0
  1  6  1  1  0  0  0
  1  2  1  0  0  0  0
  2 22  1  6  0  0  0
  2  5  1  0  0  0  0
  3  5  1  0  0  0  0
  5  4  1  6  0  0  0
  5 46  1  0  0  0  0
  6  3  1  0  0  0  0
  8 15  1  6  0  0  0
  8  1  1  0  0  0  0
  9  7  1  6  0  0  0
  9  8  1  0  0  0  0
 10 16  1  0  0  0  0
 10 11  1  6  0  0  0
 12  9  1  0  0  0  0
 13 10  1  0  0  0  0
 15 19  2  0  0  0  0
 16 14  1  6  0  0  0
 16  7  1  0  0  0  0
 16 18  1  0  0  0  0
 17 13  1  0  0  0  0
 17 14  1  0  0  0  0
 18 12  1  1  0  0  0
 18 15  1  0  0  0  0
 20 22  2  0  0  0  0
 21 20  2  0  0  0  0
 23 32  1  6  0  0  0
 23 21  1  0  0  0  0
 24 28  1  0  0  0  0
 25 23  1  6  0  0  0
 25 30  1  0  0  0  0
 26 24  1  0  0  0  0
 28 29  1  0  0  0  0
 29 27  1  1  0  0  0
 30 29  1  0  0  0  0
 31 26  1  0  0  0  0
 31 25  1  0  0  0  0
 33 36  1  1  0  0  0
 33 34  1  0  0  0  0
 33 32  1  0  0  0  0
 34 35  2  0  0  0  0
 37 36  1  0  0  0  0
 38 37  1  0  0  0  0
 39 38  1  0  0  0  0
 39 41  1  0  0  0  0
 40 41  1  0  0  0  0
 40 43  1  0  0  0  0
 42 40  2  0  0  0  0
 44 45  3  0  0  0  0
 45 43  1  0  0  0  0
 46 52  1  6  0  0  0
 48 50  1  6  0  0  0
 48 51  1  0  0  0  0
 48 47  1  0  0  0  0
 49 46  1  6  0  0  0
 49 48  1  0  0  0  0
 49 47  1  0  0  0  0
 52 53  1  0  0  0  0
 53 54  1  0  0  0  0
M  END
>  <MODEL>
2

>  <REMARK>
 VINA RESULT:      -3.6      3.670     10.359
  Name = 
  18 active torsions:
  status: ('A' for Active; 'I' for Inactive)
    1  A    between atoms: C_1  and  C_54
    2  A    between atoms: C_4  and  O_34
    3  A    between atoms: C_6  and  C_14
    4  A    between atoms: N_7  and  C_12
    5  A    between atoms: C_10  and  C_14
    6  A    between atoms: C_10  and  C_24
    7  A    between atoms: C_11  and  C_14
    8  A    between atoms: C_12  and  C_41
    9  A    between atoms: C_13  and  C_24
   10  A    between atoms: C_16  and  C_25
   11  A    between atoms: C_17  and  C_19
   12  A    between atoms: C_20  and  C_26
   13  A    between atoms: C_24  and  C_46
   14  A    between atoms: C_25  and  C_45
   15  A    between atoms: C_25  and  C_54
   16  A    between atoms: O_34  and  C_43
   17  A    between atoms: C_41  and  C_51
   18  A    between atoms: C_46  and  C_51
                            x       y       z     vdW  Elec       q    Type
                         _______ _______ _______ _____ _____    ______ ____

>  <TORSDO>
F 18

$$$$
=
 OpenBabel11072409593D

 54 59  0  0  1  0  0  0  0  0999 V2000
  160.2450  213.0160  151.4300 C   0  0  2  0  0  3  0  0  0  0  0  0
  159.6450  212.2260  152.5940 C   0  0  1  0  0  3  0  0  0  0  0  0
  158.6960  214.4520  152.6650 C   0  0  0  0  0  2  0  0  0  0  0  0
  157.2700  212.5850  152.4230 O   0  0  0  0  0  1  0  0  0  0  0  0
  158.4260  213.0110  153.0840 C   0  0  1  0  0  0  0  0  0  0  0  0
  159.9910  214.4520  151.8600 C   0  0  0  0  0  2  0  0  0  0  0  0
  159.8930  212.1370  147.7880 O   0  0  0  0  0  0  0  0  0  0  0  0
  159.5500  212.7430  150.0780 C   0  0  2  0  0  3  0  0  0  0  0  0
  160.5650  212.6670  148.9210 C   0  0  2  0  0  3  0  0  0  0  0  0
  157.7400  212.9580  147.0360 C   0  0  1  0  0  3  0  0  0  0  0  0
  156.9770  214.1300  147.0600 O   0  0  0  0  0  1  0  0  0  0  0  0
  160.8290  214.0120  148.6100 O   0  0  0  0  0  0  0  0  0  0  0  0
  157.6860  212.3750  145.6380 C   0  0  0  0  0  2  0  0  0  0  0  0
  159.7730  213.6220  145.9090 C   0  0  0  0  0  2  0  0  0  0  0  0
  158.8490  213.9500  149.5700 C   0  0  0  0  0  0  0  0  0  0  0  0
  159.2170  213.2690  147.2760 C   0  0  2  0  0  0  0  0  0  0  0  0
  158.9180  212.8750  144.9030 C   0  0  0  0  0  2  0  0  0  0  0  0
  159.5230  214.3570  148.3060 C   0  0  2  0  0  3  0  0  0  0  0  0
  157.8380  214.4520  150.0340 O   0  0  0  0  0  0  0  0  0  0  0  0
  160.4000  209.9200  152.5190 C   0  0  0  0  0  0  0  0  0  0  0  0
  161.3860  209.0760  152.6700 C   0  0  0  0  0  3  0  0  0  0  0  0
  159.4170  210.7620  152.3720 C   0  0  0  0  0  3  0  0  0  0  0  0
  161.4350  207.7510  151.9620 C   0  0  1  0  0  3  0  0  0  0  0  0
  163.1170  208.3320  148.1010 C   0  0  0  0  0  2  0  0  0  0  0  0
  161.8800  207.8480  150.4970 C   0  0  1  0  0  3  0  0  0  0  0  0
  162.4600  209.5160  148.8390 C   0  0  0  0  0  2  0  0  0  0  0  0
  160.3420  205.8490  147.5570 C   0  0  0  0  0  1  0  0  0  0  0  0
  162.1590  207.4640  147.4020 N   0  0  0  0  0  2  0  0  0  0  0  0
  161.0240  207.0230  148.2270 C   0  0  2  0  0  3  0  0  0  0  0  0
  161.4010  206.6430  149.6670 C   0  0  0  0  0  2  0  0  0  0  0  0
  161.4960  209.1220  149.8800 N   0  0  0  0  0  2  0  0  0  0  0  0
  162.2690  206.7340  152.7370 C   0  0  0  0  0  2  0  0  0  0  0  0
  161.4890  206.1400  153.9100 C   0  0  1  0  0  3  0  0  0  0  0  0
  160.2660  206.9350  154.2450 C   0  0  0  0  0  3  0  0  0  0  0  0
  160.2260  207.6180  155.2540 O   0  0  0  0  0  0  0  0  0  0  0  0
  161.1410  204.6670  153.6700 C   0  0  0  0  0  2  0  0  0  0  0  0
  160.3340  204.4140  152.3980 C   0  0  0  0  0  2  0  0  0  0  0  0
  160.9310  203.2830  151.5820 C   0  0  0  0  0  2  0  0  0  0  0  0
  160.6190  203.4780  150.1110 C   0  0  0  0  0  2  0  0  0  0  0  0
  160.8340  201.2100  149.0400 C   0  0  0  0  0  0  0  0  0  0  0  0
  161.3570  202.5070  149.3170 N   0  0  0  0  0  2  0  0  0  0  0  0
  159.6890  200.8870  149.4620 O   0  0  0  0  0  0  0  0  0  0  0  0
  161.5950  200.3150  148.2860 O   0  0  0  0  0  0  0  0  0  0  0  0
  161.0600  199.8130  145.8210 C   0  0  0  0  0  3  0  0  0  0  0  0
  161.3110  200.0470  146.9750 C   0  0  0  0  0  0  0  0  0  0  0  0
  158.2350  212.9180  154.6170 C   0  0  1  0  0  3  0  0  0  0  0  0
  155.7790  212.3370  154.7960 C   0  0  0  0  0  2  0  0  0  0  0  0
  156.3560  212.3030  156.1870 C   0  0  1  0  0  0  0  0  0  0  0  0
  157.2110  211.8470  155.0160 C   0  0  2  0  0  3  0  0  0  0  0  0
  156.5430  213.5490  156.7570 F   0  0  0  0  0  0  0  0  0  0  0  0
  155.8250  211.2890  156.9770 O   0  0  0  0  0  1  0  0  0  0  0  0
  159.5650  212.6430  155.3240 C   0  0  0  0  0  2  0  0  0  0  0  0
  159.4540  211.4490  156.2520 C   0  0  0  0  0  2  0  0  0  0  0  0
  160.7910  210.7440  156.3180 C   0  0  0  0  0  1  0  0  0  0  0  0
  1  6  1  1  0  0  0
  1  2  1  0  0  0  0
  2 22  1  6  0  0  0
  2  5  1  0  0  0  0
  3  5  1  0  0  0  0
  5  4  1  6  0  0  0
  5 46  1  0  0  0  0
  6  3  1  0  0  0  0
  8 15  1  6  0  0  0
  8  1  1  0  0  0  0
  9  7  1  6  0  0  0
  9  8  1  0  0  0  0
 10 11  1  6  0  0  0
 10 16  1  0  0  0  0
 12  9  1  0  0  0  0
 13 10  1  0  0  0  0
 15 19  2  0  0  0  0
 16 14  1  6  0  0  0
 16  7  1  0  0  0  0
 16 18  1  0  0  0  0
 17 13  1  0  0  0  0
 17 14  1  0  0  0  0
 18 12  1  1  0  0  0
 18 15  1  0  0  0  0
 20 21  2  0  0  0  0
 22 20  2  0  0  0  0
 23 21  1  1  0  0  0
 23 32  1  0  0  0  0
 24 26  1  0  0  0  0
 25 23  1  1  0  0  0
 26 31  1  0  0  0  0
 28 24  1  0  0  0  0
 28 29  1  0  0  0  0
 29 27  1  6  0  0  0
 29 30  1  0  0  0  0
 30 25  1  0  0  0  0
 31 25  1  0  0  0  0
 33 32  1  6  0  0  0
 33 34  1  0  0  0  0
 34 35  2  0  0  0  0
 36 33  1  0  0  0  0
 37 36  1  0  0  0  0
 38 37  1  0  0  0  0
 39 38  1  0  0  0  0
 40 41  1  0  0  0  0
 40 42  2  0  0  0  0
 41 39  1  0  0  0  0
 43 40  1  0  0  0  0
 44 45  3  0  0  0  0
 45 43  1  0  0  0  0
 46 52  1  1  0  0  0
 47 49  1  0  0  0  0
 47 48  1  0  0  0  0
 48 50  1  1  0  0  0
 48 51  1  0  0  0  0
 49 46  1  6  0  0  0
 49 48  1  0  0  0  0
 52 53  1  0  0  0  0
 53 54  1  0  0  0  0
M  END
>  <MODEL>
3

>  <REMARK>
 VINA RESULT:      -3.1      3.412      9.880
  Name = 
  18 active torsions:
  status: ('A' for Active; 'I' for Inactive)
    1  A    between atoms: C_1  and  C_54
    2  A    between atoms: C_4  and  O_34
    3  A    between atoms: C_6  and  C_14
    4  A    between atoms: N_7  and  C_12
    5  A    between atoms: C_10  and  C_14
    6  A    between atoms: C_10  and  C_24
    7  A    between atoms: C_11  and  C_14
    8  A    between atoms: C_12  and  C_41
    9  A    between atoms: C_13  and  C_24
   10  A    between atoms: C_16  and  C_25
   11  A    between atoms: C_17  and  C_19
   12  A    between atoms: C_20  and  C_26
   13  A    between atoms: C_24  and  C_46
   14  A    between atoms: C_25  and  C_45
   15  A    between atoms: C_25  and  C_54
   16  A    between atoms: O_34  and  C_43
   17  A    between atoms: C_41  and  C_51
   18  A    between atoms: C_46  and  C_51
                            x       y       z     vdW  Elec       q    Type
                         _______ _______ _______ _____ _____    ______ ____

>  <TORSDO>
F 18

$$$$
