=
 OpenBabel11072413453D

 44 50  0  0  1  0  0  0  0  0999 V2000
  161.0540  207.9790  151.5870 C   0  0  0  0  0  0  0  0  0  0  0  0
  161.2070  206.1250  150.3830 C   0  0  0  0  0  0  0  0  0  0  0  0
  161.8770  209.4270  148.9490 N   0  0  0  0  0  0  0  0  0  0  0  0
  161.0870  209.3000  152.0090 C   0  0  0  0  0  0  0  0  0  0  0  0
  162.1860  205.7700  148.1400 C   0  0  0  0  0  2  0  0  0  0  0  0
  160.7960  205.8050  151.6580 C   0  0  0  0  0  3  0  0  0  0  0  0
  160.7060  206.9420  152.3880 N   0  0  0  0  0  0  0  0  0  0  0  0
  161.4570  205.2390  149.2940 N   0  0  0  0  0  2  0  0  0  0  0  0
  161.4420  210.3740  151.1870 C   0  0  0  0  0  3  0  0  0  0  0  0
  161.8030  210.4520  149.8400 C   0  0  0  0  0  0  0  0  0  0  0  0
  161.7850  207.2310  147.8400 C   0  0  0  0  0  2  0  0  0  0  0  0
  161.3730  207.4720  150.2780 C   0  0  0  0  0  0  0  0  0  0  0  0
  161.7110  208.0910  149.0850 C   0  0  0  0  0  0  0  0  0  0  0  0
  161.4920  209.2380  155.7610 O   0  0  0  0  0  0  0  0  0  0  0  0
  161.9090  209.4240  154.4120 C   0  0  2  0  0  3  0  0  0  0  0  0
  157.9260  213.5250  156.1810 C   0  0  0  0  0  2  0  0  0  0  0  0
  159.1510  210.8850  154.8810 C   0  0  2  0  0  3  0  0  0  0  0  0
  156.7640  211.2570  155.7740 C   0  0  1  0  0  3  0  0  0  0  0  0
  157.1900  212.3270  156.7950 C   0  0  0  0  0  2  0  0  0  0  0  0
  163.0130  210.4880  157.2020 C   0  0  0  0  0  1  0  0  0  0  0  0
  159.9650  210.9060  153.5900 C   0  0  0  0  0  2  0  0  0  0  0  0
  163.1150  210.3410  154.1640 C   0  0  0  0  0  1  0  0  0  0  0  0
  155.3520  211.5430  155.3100 C   0  0  0  0  0  1  0  0  0  0  0  0
  161.6200  210.3810  156.6030 C   0  0  1  0  0  3  0  0  0  0  0  0
  157.6750  211.1520  154.5470 C   0  0  0  0  0  2  0  0  0  0  0  0
  161.1490  211.7130  156.0100 C   0  0  0  0  0  2  0  0  0  0  0  0
  160.7240  209.5920  153.4420 C   0  0  1  0  0  3  0  0  0  0  0  0
  159.6920  211.7820  155.9300 N   0  0  1  0  0  0  0  0  0  0  0  0
  159.3360  213.1810  155.6680 C   0  0  0  0  0  2  0  0  0  0  0  0
  162.0810  211.8240  149.3320 C   0  0  0  0  0  2  0  0  0  0  0  0
  163.4620  212.5990  147.5930 C   0  0  0  0  0  2  0  0  0  0  0  0
  162.1390  213.1940  147.4450 C   0  0  2  0  0  3  0  0  0  0  0  0
  162.2640  211.7960  147.8910 N   0  0  0  0  0  0  0  0  0  0  0  0
  161.7510  213.2260  145.9740 C   0  0  0  0  0  2  0  0  0  0  0  0
  159.4720  213.4440  146.8630 C   0  0  0  0  0  3  0  0  0  0  0  0
  160.2940  213.5290  145.8010 C   0  0  0  0  0  0  0  0  0  0  0  0
  158.0090  213.7760  146.8160 C   0  0  1  0  0  3  0  0  0  0  0  0
  157.2270  212.4860  146.6520 C   0  0  0  0  0  1  0  0  0  0  0  0
  156.9990  213.8650  150.4340 C   0  0  0  0  0  1  0  0  0  0  0  0
  157.5760  214.4520  148.1090 C   0  0  2  0  0  3  0  0  0  0  0  0
  156.8830  213.4310  148.9880 C   0  0  2  0  0  3  0  0  0  0  0  0
  156.0640  214.4530  148.2320 C   0  0  0  0  0  2  0  0  0  0  0  0
  159.8210  213.9780  144.4470 C   0  0  0  0  0  2  0  0  0  0  0  0
  159.6330  212.7880  143.5240 C   0  0  0  0  0  1  0  0  0  0  0  0
  1  4  2  0  0  0  0
  1  7  1  0  0  0  0
  2  6  1  0  0  0  0
  3 13  2  0  0  0  0
  3 10  1  0  0  0  0
  5  8  1  0  0  0  0
  6  7  2  0  0  0  0
  8  2  1  0  0  0  0
  9  4  1  0  0  0  0
 10  9  2  0  0  0  0
 11  5  1  0  0  0  0
 11 13  1  0  0  0  0
 12  2  2  0  0  0  0
 12  1  1  0  0  0  0
 13 12  1  0  0  0  0
 14 24  1  0  0  0  0
 15 22  1  1  0  0  0
 15 14  1  0  0  0  0
 16 19  1  0  0  0  0
 17 21  1  6  0  0  0
 17 28  1  0  0  0  0
 18 23  1  6  0  0  0
 18 19  1  0  0  0  0
 24 20  1  6  0  0  0
 25 17  1  0  0  0  0
 25 18  1  0  0  0  0
 26 24  1  0  0  0  0
 27  4  1  6  0  0  0
 27 21  1  0  0  0  0
 27 15  1  0  0  0  0
 28 29  1  6  0  0  0
 28 26  1  0  0  0  0
 29 16  1  0  0  0  0
 30 10  1  0  0  0  0
 31 33  1  0  0  0  0
 32 34  1  6  0  0  0
 32 31  1  0  0  0  0
 32 33  1  0  0  0  0
 33 30  1  0  0  0  0
 36 34  1  0  0  0  0
 36 35  2  0  0  0  0
 37 38  1  1  0  0  0
 37 35  1  0  0  0  0
 40 37  1  6  0  0  0
 40 42  1  0  0  0  0
 40 41  1  0  0  0  0
 41 39  1  1  0  0  0
 42 41  1  0  0  0  0
 43 36  1  0  0  0  0
 44 43  1  0  0  0  0
M  END
>  <MODEL>
1

>  <REMARK>
 VINA RESULT:      -6.6      0.000      0.000
  Name = 
  8 active torsions:
  status: ('A' for Active; 'I' for Inactive)
    1  A    between atoms: C_7  and  C_38
    2  A    between atoms: C_13  and  C_18
    3  A    between atoms: C_17  and  C_25
    4  A    between atoms: C_17  and  N_37
    5  A    between atoms: C_18  and  C_19
    6  A    between atoms: C_22  and  C_44
    7  A    between atoms: C_26  and  C_35
    8  A    between atoms: C_26  and  C_44
                            x       y       z     vdW  Elec       q    Type
                         _______ _______ _______ _____ _____    ______ ____

>  <TORSDO>
F 8

$$$$
=
 OpenBabel11072413453D

 44 50  0  0  1  0  0  0  0  0999 V2000
  161.1090  207.8980  151.3130 C   0  0  0  0  0  0  0  0  0  0  0  0
  161.2720  206.0390  150.1170 C   0  0  0  0  0  0  0  0  0  0  0  0
  161.9820  209.3340  148.6840 N   0  0  0  0  0  0  0  0  0  0  0  0
  161.1420  209.2210  151.7310 C   0  0  0  0  0  0  0  0  0  0  0  0
  162.2860  205.6720  147.8910 C   0  0  0  0  0  2  0  0  0  0  0  0
  160.8390  205.7250  151.3870 C   0  0  0  0  0  3  0  0  0  0  0  0
  160.7430  206.8650  152.1110 N   0  0  0  0  0  0  0  0  0  0  0  0
  161.5360  205.1490  149.0350 N   0  0  0  0  0  2  0  0  0  0  0  0
  161.5150  210.2890  150.9110 C   0  0  0  0  0  3  0  0  0  0  0  0
  161.8980  210.3610  149.5700 C   0  0  0  0  0  0  0  0  0  0  0  0
  161.8960  207.1350  147.5800 C   0  0  0  0  0  2  0  0  0  0  0  0
  161.4460  207.3860  150.0110 C   0  0  0  0  0  0  0  0  0  0  0  0
  161.8070  207.9990  148.8210 C   0  0  0  0  0  0  0  0  0  0  0  0
  161.5070  209.2020  155.4880 O   0  0  0  0  0  0  0  0  0  0  0  0
  161.9350  209.3840  154.1410 C   0  0  2  0  0  3  0  0  0  0  0  0
  157.8510  213.4210  155.8260 C   0  0  0  0  0  2  0  0  0  0  0  0
  159.1430  210.7940  154.5660 C   0  0  2  0  0  3  0  0  0  0  0  0
  156.7400  211.1260  155.4290 C   0  0  1  0  0  3  0  0  0  0  0  0
  157.1320  212.2140  156.4440 C   0  0  0  0  0  2  0  0  0  0  0  0
  162.9860  210.4960  156.9320 C   0  0  0  0  0  1  0  0  0  0  0  0
  159.9710  210.8190  153.2830 C   0  0  0  0  0  2  0  0  0  0  0  0
  163.1250  210.3230  153.8970 C   0  0  0  0  0  1  0  0  0  0  0  0
  155.3270  211.3790  154.9470 C   0  0  0  0  0  1  0  0  0  0  0  0
  161.6020  210.3560  156.3190 C   0  0  1  0  0  3  0  0  0  0  0  0
  157.6660  211.0270  154.2130 C   0  0  0  0  0  2  0  0  0  0  0  0
  161.1110  211.6730  155.7080 C   0  0  0  0  0  2  0  0  0  0  0  0
  160.7580  209.5190  153.1570 C   0  0  1  0  0  3  0  0  0  0  0  0
  159.6540  211.7120  155.6120 N   0  0  1  0  0  0  0  0  0  0  0  0
  159.2740  213.1010  155.3330 C   0  0  0  0  0  2  0  0  0  0  0  0
  162.1910  211.7310  149.0620 C   0  0  0  0  0  2  0  0  0  0  0  0
  162.0520  212.7260  146.9350 C   0  0  0  0  0  2  0  0  0  0  0  0
  161.3150  213.5460  147.8890 C   0  0  2  0  0  3  0  0  0  0  0  0
  161.2650  212.0780  147.9990 N   0  0  0  0  0  0  0  0  0  0  0  0
  160.0310  214.0530  147.2480 C   0  0  0  0  0  2  0  0  0  0  0  0
  160.6780  213.9910  144.8810 C   0  0  0  0  0  3  0  0  0  0  0  0
  159.8740  213.5280  145.8540 C   0  0  0  0  0  0  0  0  0  0  0  0
  160.6450  213.4980  143.4640 C   0  0  1  0  0  3  0  0  0  0  0  0
  159.8030  214.4530  142.6390 C   0  0  0  0  0  1  0  0  0  0  0  0
  163.2270  213.9620  140.7740 C   0  0  0  0  0  1  0  0  0  0  0  0
  162.0510  213.4570  142.8820 C   0  0  2  0  0  3  0  0  0  0  0  0
  161.9560  213.3990  141.3710 C   0  0  2  0  0  3  0  0  0  0  0  0
  162.2920  212.1490  142.1530 C   0  0  0  0  0  2  0  0  0  0  0  0
  158.8550  212.4490  145.6150 C   0  0  0  0  0  2  0  0  0  0  0  0
  157.6030  212.7070  146.4320 C   0  0  0  0  0  1  0  0  0  0  0  0
  1  4  2  0  0  0  0
  1  7  1  0  0  0  0
  2  6  1  0  0  0  0
  3 13  2  0  0  0  0
  3 10  1  0  0  0  0
  5  8  1  0  0  0  0
  6  7  2  0  0  0  0
  8  2  1  0  0  0  0
  9  4  1  0  0  0  0
 10  9  2  0  0  0  0
 11  5  1  0  0  0  0
 11 13  1  0  0  0  0
 12  2  2  0  0  0  0
 12  1  1  0  0  0  0
 13 12  1  0  0  0  0
 14 24  1  0  0  0  0
 15 22  1  1  0  0  0
 15 14  1  0  0  0  0
 16 19  1  0  0  0  0
 17 21  1  6  0  0  0
 17 28  1  0  0  0  0
 18 23  1  6  0  0  0
 18 19  1  0  0  0  0
 24 20  1  6  0  0  0
 25 17  1  0  0  0  0
 25 18  1  0  0  0  0
 26 24  1  0  0  0  0
 27  4  1  6  0  0  0
 27 21  1  0  0  0  0
 27 15  1  0  0  0  0
 28 29  1  6  0  0  0
 28 26  1  0  0  0  0
 29 16  1  0  0  0  0
 30 10  1  0  0  0  0
 31 32  1  0  0  0  0
 31 33  1  0  0  0  0
 32 34  1  6  0  0  0
 32 33  1  0  0  0  0
 33 30  1  0  0  0  0
 35 36  2  0  0  0  0
 36 34  1  0  0  0  0
 37 38  1  6  0  0  0
 37 35  1  0  0  0  0
 40 37  1  1  0  0  0
 41 39  1  6  0  0  0
 41 42  1  0  0  0  0
 41 40  1  0  0  0  0
 42 40  1  0  0  0  0
 43 36  1  0  0  0  0
 43 44  1  0  0  0  0
M  END
>  <MODEL>
2

>  <REMARK>
 VINA RESULT:      -6.4      1.206      3.111
  Name = 
  8 active torsions:
  status: ('A' for Active; 'I' for Inactive)
    1  A    between atoms: C_7  and  C_38
    2  A    between atoms: C_13  and  C_18
    3  A    between atoms: C_17  and  C_25
    4  A    between atoms: C_17  and  N_37
    5  A    between atoms: C_18  and  C_19
    6  A    between atoms: C_22  and  C_44
    7  A    between atoms: C_26  and  C_35
    8  A    between atoms: C_26  and  C_44
                            x       y       z     vdW  Elec       q    Type
                         _______ _______ _______ _____ _____    ______ ____

>  <TORSDO>
F 8

$$$$
=
 OpenBabel11072413453D

 44 50  0  0  1  0  0  0  0  0999 V2000
  161.2760  209.1650  151.9790 C   0  0  0  0  0  0  0  0  0  0  0  0
  161.7750  209.6780  149.8820 C   0  0  0  0  0  0  0  0  0  0  0  0
  161.9560  206.2400  151.1310 N   0  0  0  0  0  0  0  0  0  0  0  0
  161.0270  208.4810  153.1600 C   0  0  0  0  0  0  0  0  0  0  0  0
  162.1150  208.2010  147.9280 C   0  0  0  0  0  2  0  0  0  0  0  0
  161.4570  210.8300  150.5670 C   0  0  0  0  0  3  0  0  0  0  0  0
  161.1530  210.5080  151.8470 N   0  0  0  0  0  0  0  0  0  0  0  0
  162.1310  209.5460  148.5080 N   0  0  0  0  0  2  0  0  0  0  0  0
  161.1560  207.0960  153.3030 C   0  0  0  0  0  3  0  0  0  0  0  0
  161.5540  206.0890  152.4200 C   0  0  0  0  0  0  0  0  0  0  0  0
  162.6150  207.1430  148.9370 C   0  0  0  0  0  2  0  0  0  0  0  0
  161.6890  208.6070  150.7180 C   0  0  0  0  0  0  0  0  0  0  0  0
  162.0250  207.3230  150.3210 C   0  0  0  0  0  0  0  0  0  0  0  0
  161.3540  210.0790  156.5640 O   0  0  0  0  0  0  0  0  0  0  0  0
  161.7590  209.7490  155.2390 C   0  0  2  0  0  3  0  0  0  0  0  0
  157.0510  213.4410  155.3560 C   0  0  0  0  0  2  0  0  0  0  0  0
  158.7700  210.7610  155.2120 C   0  0  2  0  0  3  0  0  0  0  0  0
  156.3360  211.0480  156.0030 C   0  0  1  0  0  3  0  0  0  0  0  0
  156.5340  212.5050  156.4570 C   0  0  0  0  0  2  0  0  0  0  0  0
  162.5860  212.0660  157.2590 C   0  0  0  0  0  1  0  0  0  0  0  0
  159.5950  210.3790  153.9860 C   0  0  0  0  0  2  0  0  0  0  0  0
  162.7810  210.6720  154.5610 C   0  0  0  0  0  1  0  0  0  0  0  0
  154.9050  210.8580  155.5450 C   0  0  0  0  0  1  0  0  0  0  0  0
  161.2500  211.4740  156.8410 C   0  0  1  0  0  3  0  0  0  0  0  0
  157.2780  210.5970  154.8830 C   0  0  0  0  0  2  0  0  0  0  0  0
  160.5550  212.3250  155.7740 C   0  0  0  0  0  2  0  0  0  0  0  0
  160.5860  209.2810  154.3580 C   0  0  1  0  0  3  0  0  0  0  0  0
  159.1120  212.0970  155.7560 N   0  0  1  0  0  0  0  0  0  0  0  0
  158.5120  213.1680  154.9540 C   0  0  0  0  0  2  0  0  0  0  0  0
  161.5840  204.7140  152.9920 C   0  0  0  0  0  2  0  0  0  0  0  0
  161.0340  202.5150  152.3600 C   0  0  0  0  0  2  0  0  0  0  0  0
  161.1200  203.3440  151.1630 C   0  0  2  0  0  3  0  0  0  0  0  0
  160.5380  203.9020  152.3950 N   0  0  0  0  0  0  0  0  0  0  0  0
  160.0050  202.9680  150.1980 C   0  0  0  0  0  2  0  0  0  0  0  0
  161.1050  203.7360  148.1420 C   0  0  0  0  0  3  0  0  0  0  0  0
  160.5370  202.7230  148.8190 C   0  0  0  0  0  0  0  0  0  0  0  0
  161.7170  203.5910  146.7790 C   0  0  1  0  0  3  0  0  0  0  0  0
  160.8660  202.6340  145.9660 C   0  0  0  0  0  1  0  0  0  0  0  0
  161.1890  205.9240  143.8820 C   0  0  0  0  0  1  0  0  0  0  0  0
  161.7580  204.9370  146.0690 C   0  0  2  0  0  3  0  0  0  0  0  0
  161.7550  204.7020  144.5720 C   0  0  2  0  0  3  0  0  0  0  0  0
  163.0400  205.0830  145.2710 C   0  0  0  0  0  2  0  0  0  0  0  0
  160.4670  201.3240  148.2730 C   0  0  0  0  0  2  0  0  0  0  0  0
  161.6510  200.5040  148.7500 C   0  0  0  0  0  1  0  0  0  0  0  0
  1  4  1  0  0  0  0
  2  6  2  0  0  0  0
  2 12  1  0  0  0  0
  3 10  2  0  0  0  0
  4  9  2  0  0  0  0
  5  8  1  0  0  0  0
  5 11  1  0  0  0  0
  6  7  1  0  0  0  0
  7  1  2  0  0  0  0
  8  2  1  0  0  0  0
 10 30  1  0  0  0  0
 10  9  1  0  0  0  0
 11 13  1  0  0  0  0
 12  1  1  0  0  0  0
 13 12  2  0  0  0  0
 13  3  1  0  0  0  0
 14 24  1  0  0  0  0
 15 22  1  6  0  0  0
 15 14  1  0  0  0  0
 16 19  1  0  0  0  0
 17 21  1  6  0  0  0
 17 28  1  0  0  0  0
 18 23  1  6  0  0  0
 18 19  1  0  0  0  0
 21 27  1  0  0  0  0
 24 20  1  6  0  0  0
 25 17  1  0  0  0  0
 25 18  1  0  0  0  0
 26 24  1  0  0  0  0
 27  4  1  6  0  0  0
 27 15  1  0  0  0  0
 28 29  1  6  0  0  0
 28 26  1  0  0  0  0
 29 16  1  0  0  0  0
 31 33  1  0  0  0  0
 32 34  1  6  0  0  0
 32 31  1  0  0  0  0
 32 33  1  0  0  0  0
 33 30  1  0  0  0  0
 35 36  2  0  0  0  0
 36 34  1  0  0  0  0
 37 38  1  6  0  0  0
 37 35  1  0  0  0  0
 40 37  1  1  0  0  0
 41 39  1  6  0  0  0
 41 42  1  0  0  0  0
 41 40  1  0  0  0  0
 42 40  1  0  0  0  0
 43 44  1  0  0  0  0
 43 36  1  0  0  0  0
M  END
>  <MODEL>
3

>  <REMARK>
 VINA RESULT:      -6.2      3.234      6.721
  Name = 
  8 active torsions:
  status: ('A' for Active; 'I' for Inactive)
    1  A    between atoms: C_7  and  C_38
    2  A    between atoms: C_13  and  C_18
    3  A    between atoms: C_17  and  C_25
    4  A    between atoms: C_17  and  N_37
    5  A    between atoms: C_18  and  C_19
    6  A    between atoms: C_22  and  C_44
    7  A    between atoms: C_26  and  C_35
    8  A    between atoms: C_26  and  C_44
                            x       y       z     vdW  Elec       q    Type
                         _______ _______ _______ _____ _____    ______ ____

>  <TORSDO>
F 8

$$$$
=
 OpenBabel11072413453D

 44 50  0  0  1  0  0  0  0  0999 V2000
  158.6860  213.9130  144.7200 C   0  0  0  0  0  0  0  0  0  0  0  0
  156.9760  214.2140  146.0970 C   0  0  0  0  0  0  0  0  0  0  0  0
  160.3040  213.2900  147.3130 N   0  0  0  0  0  0  0  0  0  0  0  0
  159.9480  213.6750  144.1950 C   0  0  0  0  0  0  0  0  0  0  0  0
  156.9460  214.4260  148.5610 C   0  0  0  0  0  2  0  0  0  0  0  0
  156.5490  214.3850  144.7980 C   0  0  0  0  0  3  0  0  0  0  0  0
  157.5990  214.2000  143.9630 N   0  0  0  0  0  0  0  0  0  0  0  0
  156.2140  214.3390  147.2940 N   0  0  0  0  0  2  0  0  0  0  0  0
  161.0720  213.3740  144.9690 C   0  0  0  0  0  3  0  0  0  0  0  0
  161.2540  213.2100  146.3440 C   0  0  0  0  0  0  0  0  0  0  0  0
  158.1910  213.5120  148.5570 C   0  0  0  0  0  2  0  0  0  0  0  0
  158.3030  213.9060  146.1070 C   0  0  0  0  0  0  0  0  0  0  0  0
  158.9890  213.6060  147.2730 C   0  0  0  0  0  0  0  0  0  0  0  0
  161.7130  214.4390  140.9470 O   0  0  0  0  0  0  0  0  0  0  0  0
  161.5850  213.9090  142.2620 C   0  0  2  0  0  3  0  0  0  0  0  0
  158.1900  211.0170  138.2710 C   0  0  0  0  0  2  0  0  0  0  0  0
  159.0770  213.0780  140.5350 C   0  0  2  0  0  3  0  0  0  0  0  0
  157.1640  213.3190  138.8270 C   0  0  1  0  0  3  0  0  0  0  0  0
  157.8400  212.4260  137.7720 C   0  0  0  0  0  2  0  0  0  0  0  0
  163.5410  213.2690  139.8340 C   0  0  0  0  0  1  0  0  0  0  0  0
  159.3520  212.6490  141.9740 C   0  0  0  0  0  2  0  0  0  0  0  0
  162.5280  212.7650  142.6590 C   0  0  0  0  0  1  0  0  0  0  0  0
  155.6610  213.1930  138.6990 C   0  0  0  0  0  1  0  0  0  0  0  0
  162.0400  213.4900  139.9350 C   0  0  1  0  0  3  0  0  0  0  0  0
  157.5640  213.0090  140.2730 C   0  0  0  0  0  2  0  0  0  0  0  0
  161.2690  212.1670  139.9740 C   0  0  0  0  0  2  0  0  0  0  0  0
  160.1160  213.7530  142.6990 C   0  0  1  0  0  3  0  0  0  0  0  0
  159.8850  212.3370  139.5380 N   0  0  1  0  0  0  0  0  0  0  0  0
  159.3360  210.9980  139.2980 C   0  0  0  0  0  2  0  0  0  0  0  0
  162.6380  212.8550  146.7680 C   0  0  0  0  0  2  0  0  0  0  0  0
  163.7890  211.5360  148.3390 C   0  0  0  0  0  2  0  0  0  0  0  0
  162.4500  210.9880  148.1520 C   0  0  2  0  0  3  0  0  0  0  0  0
  162.6450  212.4470  148.1620 N   0  0  0  0  0  0  0  0  0  0  0  0
  161.8860  210.5400  149.4920 C   0  0  0  0  0  2  0  0  0  0  0  0
  161.6290  208.3130  148.4900 C   0  0  0  0  0  3  0  0  0  0  0  0
  161.8490  209.0460  149.5960 C   0  0  0  0  0  0  0  0  0  0  0  0
  161.6240  206.8130  148.4690 C   0  0  1  0  0  3  0  0  0  0  0  0
  160.2740  206.3270  148.9620 C   0  0  0  0  0  1  0  0  0  0  0  0
  161.1210  204.4480  145.5930 C   0  0  0  0  0  1  0  0  0  0  0  0
  161.8430  206.3010  147.0530 C   0  0  2  0  0  3  0  0  0  0  0  0
  161.5070  204.8230  147.0070 C   0  0  2  0  0  3  0  0  0  0  0  0
  162.9530  205.2670  147.0220 C   0  0  0  0  0  2  0  0  0  0  0  0
  162.1240  208.4240  150.9360 C   0  0  0  0  0  2  0  0  0  0  0  0
  161.1230  208.9110  151.9680 C   0  0  0  0  0  1  0  0  0  0  0  0
  1 12  1  0  0  0  0
  2 12  1  0  0  0  0
  2  8  1  0  0  0  0
  4  1  1  0  0  0  0
  4  9  2  0  0  0  0
  6  2  2  0  0  0  0
  7  1  2  0  0  0  0
  7  6  1  0  0  0  0
  8  5  1  0  0  0  0
  9 10  1  0  0  0  0
 10 30  1  0  0  0  0
 10  3  2  0  0  0  0
 11  5  1  0  0  0  0
 12 13  2  0  0  0  0
 13  3  1  0  0  0  0
 13 11  1  0  0  0  0
 14 15  1  0  0  0  0
 15 22  1  6  0  0  0
 15 27  1  0  0  0  0
 16 29  1  0  0  0  0
 17 25  1  6  0  0  0
 17 21  1  0  0  0  0
 18 23  1  1  0  0  0
 18 25  1  0  0  0  0
 19 16  1  0  0  0  0
 19 18  1  0  0  0  0
 21 27  1  0  0  0  0
 24 20  1  1  0  0  0
 24 26  1  0  0  0  0
 24 14  1  0  0  0  0
 27  4  1  1  0  0  0
 28 29  1  1  0  0  0
 28 26  1  0  0  0  0
 28 17  1  0  0  0  0
 30 33  1  0  0  0  0
 32 33  1  0  0  0  0
 32 31  1  0  0  0  0
 32 34  1  1  0  0  0
 33 31  1  0  0  0  0
 34 36  1  0  0  0  0
 35 36  2  0  0  0  0
 36 43  1  0  0  0  0
 37 35  1  0  0  0  0
 37 38  1  6  0  0  0
 40 37  1  1  0  0  0
 41 39  1  6  0  0  0
 41 42  1  0  0  0  0
 41 40  1  0  0  0  0
 42 40  1  0  0  0  0
 43 44  1  0  0  0  0
M  END
>  <MODEL>
4

>  <REMARK>
 VINA RESULT:      -5.8      4.385     11.428
  Name = 
  8 active torsions:
  status: ('A' for Active; 'I' for Inactive)
    1  A    between atoms: C_7  and  C_38
    2  A    between atoms: C_13  and  C_18
    3  A    between atoms: C_17  and  C_25
    4  A    between atoms: C_17  and  N_37
    5  A    between atoms: C_18  and  C_19
    6  A    between atoms: C_22  and  C_44
    7  A    between atoms: C_26  and  C_35
    8  A    between atoms: C_26  and  C_44
                            x       y       z     vdW  Elec       q    Type
                         _______ _______ _______ _____ _____    ______ ____

>  <TORSDO>
F 8

$$$$
=
 OpenBabel11072413453D

 44 50  0  0  1  0  0  0  0  0999 V2000
  161.1480  207.2660  151.4520 C   0  0  0  0  0  0  0  0  0  0  0  0
  161.2220  207.3830  153.6640 C   0  0  0  0  0  0  0  0  0  0  0  0
  162.1680  210.2130  151.5420 N   0  0  0  0  0  0  0  0  0  0  0  0
  161.2040  207.5690  150.0990 C   0  0  0  0  0  0  0  0  0  0  0  0
  161.4960  209.3500  155.1370 C   0  0  0  0  0  2  0  0  0  0  0  0
  160.8260  206.1170  153.2890 C   0  0  0  0  0  3  0  0  0  0  0  0
  160.7820  206.0550  151.9370 N   0  0  0  0  0  0  0  0  0  0  0  0
  161.3770  207.8980  154.9830 N   0  0  0  0  0  2  0  0  0  0  0  0
  161.5830  208.8160  149.5930 C   0  0  0  0  0  3  0  0  0  0  0  0
  162.0020  209.9970  150.2100 C   0  0  0  0  0  0  0  0  0  0  0  0
  162.3160  209.9750  153.9870 C   0  0  0  0  0  2  0  0  0  0  0  0
  161.4480  208.1410  152.5550 C   0  0  0  0  0  0  0  0  0  0  0  0
  161.9280  209.4390  152.6250 C   0  0  0  0  0  0  0  0  0  0  0  0
  160.1320  206.1340  146.7770 O   0  0  0  0  0  0  0  0  0  0  0  0
  160.9070  206.9500  147.6510 C   0  0  2  0  0  3  0  0  0  0  0  0
  161.9810  201.1090  148.3930 C   0  0  0  0  0  2  0  0  0  0  0  0
  160.7420  204.0170  148.8060 C   0  0  2  0  0  3  0  0  0  0  0  0
  159.6980  201.7430  149.4150 C   0  0  1  0  0  3  0  0  0  0  0  0
  160.4550  200.9720  148.3190 C   0  0  0  0  0  2  0  0  0  0  0  0
  161.3950  205.8270  144.7120 C   0  0  0  0  0  1  0  0  0  0  0  0
  161.5370  205.1720  149.4090 C   0  0  0  0  0  2  0  0  0  0  0  0
  162.2910  207.3960  147.1610 C   0  0  0  0  0  1  0  0  0  0  0  0
  159.4530  200.8240  150.5930 C   0  0  0  0  0  1  0  0  0  0  0  0
  160.8750  205.2000  145.9960 C   0  0  1  0  0  3  0  0  0  0  0  0
  160.4110  203.0040  149.9130 C   0  0  0  0  0  2  0  0  0  0  0  0
  161.9660  204.4180  146.7340 C   0  0  0  0  0  2  0  0  0  0  0  0
  160.8270  206.4890  149.1180 C   0  0  1  0  0  3  0  0  0  0  0  0
  161.3970  203.4080  147.6230 N   0  0  1  0  0  0  0  0  0  0  0  0
  162.4900  202.5140  148.0220 C   0  0  0  0  0  2  0  0  0  0  0  0
  162.3500  211.1120  149.2850 C   0  0  0  0  0  2  0  0  0  0  0  0
  161.4930  213.0790  148.3190 C   0  0  0  0  0  2  0  0  0  0  0  0
  160.8560  212.8720  149.6160 C   0  0  2  0  0  3  0  0  0  0  0  0
  161.1410  211.7150  148.7510 N   0  0  0  0  0  0  0  0  0  0  0  0
  159.3790  213.2240  149.5240 C   0  0  0  0  0  2  0  0  0  0  0  0
  159.1540  212.3160  151.7940 C   0  0  0  0  0  3  0  0  0  0  0  0
  158.7280  213.1980  150.8730 C   0  0  0  0  0  0  0  0  0  0  0  0
  158.6120  212.2390  153.1920 C   0  0  1  0  0  3  0  0  0  0  0  0
  158.4880  210.7780  153.5810 C   0  0  0  0  0  1  0  0  0  0  0  0
  160.4490  212.6280  156.4460 C   0  0  0  0  0  1  0  0  0  0  0  0
  159.5560  212.9280  154.1670 C   0  0  2  0  0  3  0  0  0  0  0  0
  159.2210  212.4790  155.5750 C   0  0  2  0  0  3  0  0  0  0  0  0
  158.7880  213.8470  155.0970 C   0  0  0  0  0  2  0  0  0  0  0  0
  157.6560  214.2120  151.1610 C   0  0  0  0  0  2  0  0  0  0  0  0
  156.5400  214.1150  150.1370 C   0  0  0  0  0  1  0  0  0  0  0  0
  1  7  1  0  0  0  0
  1 12  1  0  0  0  0
  2  8  1  0  0  0  0
  3 13  2  0  0  0  0
  4  1  2  0  0  0  0
  6  2  1  0  0  0  0
  7  6  2  0  0  0  0
  8  5  1  0  0  0  0
  9  4  1  0  0  0  0
  9 10  2  0  0  0  0
 10  3  1  0  0  0  0
 11  5  1  0  0  0  0
 12 13  1  0  0  0  0
 12  2  2  0  0  0  0
 13 11  1  0  0  0  0
 14 15  1  0  0  0  0
 15 22  1  6  0  0  0
 15 27  1  0  0  0  0
 17 21  1  1  0  0  0
 17 25  1  0  0  0  0
 18 25  1  0  0  0  0
 18 23  1  1  0  0  0
 19 16  1  0  0  0  0
 19 18  1  0  0  0  0
 24 20  1  6  0  0  0
 24 26  1  0  0  0  0
 24 14  1  0  0  0  0
 27 21  1  0  0  0  0
 27  4  1  1  0  0  0
 28 26  1  6  0  0  0
 28 29  1  0  0  0  0
 28 17  1  0  0  0  0
 29 16  1  0  0  0  0
 30 10  1  0  0  0  0
 31 33  1  0  0  0  0
 31 32  1  0  0  0  0
 32 34  1  6  0  0  0
 33 30  1  0  0  0  0
 33 32  1  0  0  0  0
 34 36  1  0  0  0  0
 35 37  1  0  0  0  0
 36 43  1  0  0  0  0
 36 35  2  0  0  0  0
 37 38  1  1  0  0  0
 40 37  1  6  0  0  0
 40 42  1  0  0  0  0
 40 41  1  0  0  0  0
 41 39  1  1  0  0  0
 42 41  1  0  0  0  0
 44 43  1  0  0  0  0
M  END
>  <MODEL>
5

>  <REMARK>
 VINA RESULT:      -5.5      2.677      7.796
  Name = 
  8 active torsions:
  status: ('A' for Active; 'I' for Inactive)
    1  A    between atoms: C_7  and  C_38
    2  A    between atoms: C_13  and  C_18
    3  A    between atoms: C_17  and  C_25
    4  A    between atoms: C_17  and  N_37
    5  A    between atoms: C_18  and  C_19
    6  A    between atoms: C_22  and  C_44
    7  A    between atoms: C_26  and  C_35
    8  A    between atoms: C_26  and  C_44
                            x       y       z     vdW  Elec       q    Type
                         _______ _______ _______ _____ _____    ______ ____

>  <TORSDO>
F 8

$$$$
=
 OpenBabel11072413453D

 44 50  0  0  1  0  0  0  0  0999 V2000
  158.3460  212.8900  151.9820 C   0  0  0  0  0  0  0  0  0  0  0  0
  156.8190  213.1880  153.5600 C   0  0  0  0  0  0  0  0  0  0  0  0
  159.3400  210.5400  153.7770 N   0  0  0  0  0  0  0  0  0  0  0  0
  159.4280  212.4310  151.2430 C   0  0  0  0  0  0  0  0  0  0  0  0
  156.6870  212.2280  155.8360 C   0  0  0  0  0  2  0  0  0  0  0  0
  156.6080  214.0970  152.5470 C   0  0  0  0  0  3  0  0  0  0  0  0
  157.5450  213.9100  151.5880 N   0  0  0  0  0  0  0  0  0  0  0  0
  156.0890  213.0430  154.7760 N   0  0  0  0  0  2  0  0  0  0  0  0
  160.2550  211.3770  151.6430 C   0  0  0  0  0  3  0  0  0  0  0  0
  160.2410  210.5380  152.7590 C   0  0  0  0  0  0  0  0  0  0  0  0
  157.4270  211.0020  155.2560 C   0  0  0  0  0  2  0  0  0  0  0  0
  157.8870  212.3990  153.2550 C   0  0  0  0  0  0  0  0  0  0  0  0
  158.2880  211.3440  154.0580 C   0  0  0  0  0  0  0  0  0  0  0  0
  161.4810  214.4000  148.7640 O   0  0  0  0  0  0  0  0  0  0  0  0
  161.2330  213.3770  149.7230 C   0  0  2  0  0  3  0  0  0  0  0  0
  158.2010  212.5470  144.6310 C   0  0  0  0  0  2  0  0  0  0  0  0
  158.8880  213.4430  147.6110 C   0  0  2  0  0  3  0  0  0  0  0  0
  157.1380  214.4500  146.0120 C   0  0  1  0  0  3  0  0  0  0  0  0
  157.9030  214.0480  144.7390 C   0  0  0  0  0  2  0  0  0  0  0  0
  163.3980  213.7230  147.4150 C   0  0  0  0  0  1  0  0  0  0  0  0
  159.0300  212.4450  148.7580 C   0  0  0  0  0  2  0  0  0  0  0  0
  162.1320  212.1340  149.6820 C   0  0  0  0  0  1  0  0  0  0  0  0
  155.6520  214.4510  145.7220 C   0  0  0  0  0  1  0  0  0  0  0  0
  161.8950  213.9430  147.4780 C   0  0  1  0  0  3  0  0  0  0  0  0
  157.4050  213.5510  147.2230 C   0  0  0  0  0  2  0  0  0  0  0  0
  161.1180  212.7570  146.8990 C   0  0  0  0  0  2  0  0  0  0  0  0
  159.7300  213.1150  149.9360 C   0  0  1  0  0  3  0  0  0  0  0  0
  159.7800  213.1500  146.4640 N   0  0  1  0  0  0  0  0  0  0  0  0
  159.2500  212.0550  145.6450 C   0  0  0  0  0  2  0  0  0  0  0  0
  161.3080  209.4990  152.7900 C   0  0  0  0  0  2  0  0  0  0  0  0
  161.7890  207.5330  153.9910 C   0  0  0  0  0  2  0  0  0  0  0  0
  161.6060  207.1950  152.5840 C   0  0  2  0  0  3  0  0  0  0  0  0
  160.7520  208.2220  153.2030 N   0  0  0  0  0  0  0  0  0  0  0  0
  160.8300  205.8910  152.4660 C   0  0  0  0  0  2  0  0  0  0  0  0
  161.0420  205.7460  150.0240 C   0  0  0  0  0  3  0  0  0  0  0  0
  161.1990  205.1480  151.2190 C   0  0  0  0  0  0  0  0  0  0  0  0
  161.4290  205.1170  148.7180 C   0  0  1  0  0  3  0  0  0  0  0  0
  160.7810  203.7480  148.6300 C   0  0  0  0  0  1  0  0  0  0  0  0
  160.2880  205.7150  145.1880 C   0  0  0  0  0  1  0  0  0  0  0  0
  160.9390  205.9670  147.5540 C   0  0  2  0  0  3  0  0  0  0  0  0
  161.2540  205.2500  146.2560 C   0  0  2  0  0  3  0  0  0  0  0  0
  162.1040  206.4220  146.6950 C   0  0  0  0  0  2  0  0  0  0  0  0
  161.7920  203.7750  151.3630 C   0  0  0  0  0  2  0  0  0  0  0  0
  160.9850  202.9440  152.3440 C   0  0  0  0  0  1  0  0  0  0  0  0
  1 12  1  0  0  0  0
  2  8  1  0  0  0  0
  3 13  1  0  0  0  0
  4  9  2  0  0  0  0
  4  1  1  0  0  0  0
  6  2  2  0  0  0  0
  7  1  2  0  0  0  0
  7  6  1  0  0  0  0
  8  5  1  0  0  0  0
  9 10  1  0  0  0  0
 10 30  1  0  0  0  0
 10  3  2  0  0  0  0
 11  5  1  0  0  0  0
 12  2  1  0  0  0  0
 12 13  2  0  0  0  0
 13 11  1  0  0  0  0
 14 15  1  0  0  0  0
 15 22  1  6  0  0  0
 15 27  1  0  0  0  0
 16 19  1  0  0  0  0
 16 29  1  0  0  0  0
 17 25  1  6  0  0  0
 17 21  1  0  0  0  0
 18 23  1  6  0  0  0
 18 25  1  0  0  0  0
 19 18  1  0  0  0  0
 21 27  1  0  0  0  0
 24 20  1  1  0  0  0
 24 14  1  0  0  0  0
 26 24  1  0  0  0  0
 27  4  1  1  0  0  0
 28 29  1  1  0  0  0
 28 26  1  0  0  0  0
 28 17  1  0  0  0  0
 30 33  1  0  0  0  0
 32 34  1  1  0  0  0
 32 33  1  0  0  0  0
 32 31  1  0  0  0  0
 33 31  1  0  0  0  0
 35 36  2  0  0  0  0
 36 43  1  0  0  0  0
 36 34  1  0  0  0  0
 37 38  1  6  0  0  0
 37 35  1  0  0  0  0
 40 37  1  1  0  0  0
 41 39  1  6  0  0  0
 41 42  1  0  0  0  0
 41 40  1  0  0  0  0
 42 40  1  0  0  0  0
 43 44  1  0  0  0  0
M  END
>  <MODEL>
6

>  <REMARK>
 VINA RESULT:      -5.2      2.464      8.774
  Name = 
  8 active torsions:
  status: ('A' for Active; 'I' for Inactive)
    1  A    between atoms: C_7  and  C_38
    2  A    between atoms: C_13  and  C_18
    3  A    between atoms: C_17  and  C_25
    4  A    between atoms: C_17  and  N_37
    5  A    between atoms: C_18  and  C_19
    6  A    between atoms: C_22  and  C_44
    7  A    between atoms: C_26  and  C_35
    8  A    between atoms: C_26  and  C_44
                            x       y       z     vdW  Elec       q    Type
                         _______ _______ _______ _____ _____    ______ ____

>  <TORSDO>
F 8

$$$$
=
 OpenBabel11072413453D

 44 50  0  0  1  0  0  0  0  0999 V2000
  161.1320  207.1060  151.6840 C   0  0  0  0  0  0  0  0  0  0  0  0
  161.1060  207.1360  153.9000 C   0  0  0  0  0  0  0  0  0  0  0  0
  162.1180  210.0550  151.9340 N   0  0  0  0  0  0  0  0  0  0  0  0
  161.2460  207.4620  150.3480 C   0  0  0  0  0  0  0  0  0  0  0  0
  161.2950  209.0460  155.4590 C   0  0  0  0  0  2  0  0  0  0  0  0
  160.7400  205.8830  153.4590 C   0  0  0  0  0  3  0  0  0  0  0  0
  160.7580  205.8730  152.1050 N   0  0  0  0  0  0  0  0  0  0  0  0
  161.1970  207.6010  155.2440 N   0  0  0  0  0  2  0  0  0  0  0  0
  161.6350  208.7300  149.9080 C   0  0  0  0  0  3  0  0  0  0  0  0
  162.0140  209.8900  150.5880 C   0  0  0  0  0  0  0  0  0  0  0  0
  162.1600  209.7230  154.3730 C   0  0  0  0  0  2  0  0  0  0  0  0
  161.3740  207.9390  152.8330 C   0  0  0  0  0  0  0  0  0  0  0  0
  161.8380  209.2370  152.9740 C   0  0  0  0  0  0  0  0  0  0  0  0
  160.4260  206.1400  146.9080 O   0  0  0  0  0  0  0  0  0  0  0  0
  161.1460  206.9090  147.8680 C   0  0  2  0  0  3  0  0  0  0  0  0
  161.9710  201.0210  148.5490 C   0  0  0  0  0  2  0  0  0  0  0  0
  160.7900  203.9570  148.9270 C   0  0  2  0  0  3  0  0  0  0  0  0
  159.6270  201.7050  149.3840 C   0  0  1  0  0  3  0  0  0  0  0  0
  160.4530  200.9360  148.3380 C   0  0  0  0  0  2  0  0  0  0  0  0
  161.8560  205.8400  144.9550 C   0  0  0  0  0  1  0  0  0  0  0  0
  161.5640  205.0710  149.6280 C   0  0  0  0  0  2  0  0  0  0  0  0
  162.5810  207.3210  147.5130 C   0  0  0  0  0  1  0  0  0  0  0  0
  159.2510  200.7680  150.5120 C   0  0  0  0  0  1  0  0  0  0  0  0
  161.2060  205.2010  146.1720 C   0  0  1  0  0  3  0  0  0  0  0  0
  160.3320  202.9300  149.9750 C   0  0  0  0  0  2  0  0  0  0  0  0
  162.2030  204.3660  146.9810 C   0  0  0  0  0  2  0  0  0  0  0  0
  160.9230  206.4180  149.3100 C   0  0  1  0  0  3  0  0  0  0  0  0
  161.5270  203.3550  147.7910 N   0  0  1  0  0  0  0  0  0  0  0  0
  162.5530  202.4170  148.2600 C   0  0  0  0  0  2  0  0  0  0  0  0
  162.3920  211.0430  149.7240 C   0  0  0  0  0  2  0  0  0  0  0  0
  161.2720  211.3910  147.6840 C   0  0  0  0  0  2  0  0  0  0  0  0
  161.6930  212.6810  148.2190 C   0  0  2  0  0  3  0  0  0  0  0  0
  161.2050  211.6370  149.1350 N   0  0  0  0  0  0  0  0  0  0  0  0
  160.5970  213.7130  147.9930 C   0  0  0  0  0  2  0  0  0  0  0  0
  161.3700  213.7920  145.6640 C   0  0  0  0  0  3  0  0  0  0  0  0
  160.3540  213.9390  146.5320 C   0  0  0  0  0  0  0  0  0  0  0  0
  161.2280  213.9400  144.1780 C   0  0  1  0  0  3  0  0  0  0  0  0
  162.5410  214.4530  143.6160 C   0  0  0  0  0  1  0  0  0  0  0  0
  161.2020  211.4260  141.3860 C   0  0  0  0  0  1  0  0  0  0  0  0
  160.9120  212.5960  143.5380 C   0  0  2  0  0  3  0  0  0  0  0  0
  160.8990  212.7610  142.0310 C   0  0  2  0  0  3  0  0  0  0  0  0
  159.5940  212.6560  142.7880 C   0  0  0  0  0  2  0  0  0  0  0  0
  158.9540  214.2620  146.0910 C   0  0  0  0  0  2  0  0  0  0  0  0
  157.9880  213.1820  146.5400 C   0  0  0  0  0  1  0  0  0  0  0  0
  1  7  1  0  0  0  0
  1 12  1  0  0  0  0
  2  8  1  0  0  0  0
  3 13  2  0  0  0  0
  4  1  2  0  0  0  0
  6  2  1  0  0  0  0
  7  6  2  0  0  0  0
  8  5  1  0  0  0  0
  9  4  1  0  0  0  0
  9 10  2  0  0  0  0
 10  3  1  0  0  0  0
 11  5  1  0  0  0  0
 12 13  1  0  0  0  0
 12  2  2  0  0  0  0
 13 11  1  0  0  0  0
 14 15  1  0  0  0  0
 15 22  1  6  0  0  0
 15 27  1  0  0  0  0
 17 21  1  1  0  0  0
 17 25  1  0  0  0  0
 18 25  1  0  0  0  0
 18 23  1  1  0  0  0
 19 16  1  0  0  0  0
 19 18  1  0  0  0  0
 24 20  1  6  0  0  0
 24 14  1  0  0  0  0
 24 26  1  0  0  0  0
 27 21  1  0  0  0  0
 27  4  1  1  0  0  0
 28 26  1  1  0  0  0
 28 29  1  0  0  0  0
 28 17  1  0  0  0  0
 29 16  1  0  0  0  0
 30 10  1  0  0  0  0
 31 32  1  0  0  0  0
 31 33  1  0  0  0  0
 32 34  1  6  0  0  0
 32 33  1  0  0  0  0
 33 30  1  0  0  0  0
 35 36  2  0  0  0  0
 36 34  1  0  0  0  0
 37 38  1  6  0  0  0
 37 35  1  0  0  0  0
 40 37  1  1  0  0  0
 41 39  1  6  0  0  0
 41 42  1  0  0  0  0
 41 40  1  0  0  0  0
 42 40  1  0  0  0  0
 43 36  1  0  0  0  0
 43 44  1  0  0  0  0
M  END
>  <MODEL>
7

>  <REMARK>
 VINA RESULT:      -5.1      2.971      7.574
  Name = 
  8 active torsions:
  status: ('A' for Active; 'I' for Inactive)
    1  A    between atoms: C_7  and  C_38
    2  A    between atoms: C_13  and  C_18
    3  A    between atoms: C_17  and  C_25
    4  A    between atoms: C_17  and  N_37
    5  A    between atoms: C_18  and  C_19
    6  A    between atoms: C_22  and  C_44
    7  A    between atoms: C_26  and  C_35
    8  A    between atoms: C_26  and  C_44
                            x       y       z     vdW  Elec       q    Type
                         _______ _______ _______ _____ _____    ______ ____

>  <TORSDO>
F 8

$$$$
=
 OpenBabel11072413453D

 44 50  0  0  1  0  0  0  0  0999 V2000
  160.2760  212.2290  150.9260 C   0  0  0  0  0  0  0  0  0  0  0  0
  160.3610  213.7840  149.3480 C   0  0  0  0  0  0  0  0  0  0  0  0
  162.2620  210.6630  149.0990 N   0  0  0  0  0  0  0  0  0  0  0  0
  160.4510  211.0650  151.6600 C   0  0  0  0  0  0  0  0  0  0  0  0
  161.2890  213.6660  147.0590 C   0  0  0  0  0  2  0  0  0  0  0  0
  159.5520  214.2220  150.3740 C   0  0  0  0  0  3  0  0  0  0  0  0
  159.5050  213.2670  151.3330 N   0  0  0  0  0  0  0  0  0  0  0  0
  160.6720  214.4530  148.1290 N   0  0  0  0  0  2  0  0  0  0  0  0
  161.2480  209.9940  151.2470 C   0  0  0  0  0  3  0  0  0  0  0  0
  162.0460  209.7910  150.1190 C   0  0  0  0  0  0  0  0  0  0  0  0
  162.2900  212.6330  147.6220 C   0  0  0  0  0  2  0  0  0  0  0  0
  160.8510  212.5480  149.6450 C   0  0  0  0  0  0  0  0  0  0  0  0
  161.7540  211.8880  148.8270 C   0  0  0  0  0  0  0  0  0  0  0  0
  159.5350  209.5130  154.9770 O   0  0  0  0  0  0  0  0  0  0  0  0
  160.4160  209.9790  153.9590 C   0  0  2  0  0  3  0  0  0  0  0  0
  157.4570  214.4250  156.6600 C   0  0  0  0  0  2  0  0  0  0  0  0
  158.2180  212.1670  154.5420 C   0  0  2  0  0  3  0  0  0  0  0  0
  155.8900  213.1370  155.0650 C   0  0  1  0  0  3  0  0  0  0  0  0
  156.2410  213.5000  156.5190 C   0  0  0  0  0  2  0  0  0  0  0  0
  160.7780  209.4300  157.0740 C   0  0  0  0  0  1  0  0  0  0  0  0
  159.3870  212.3110  153.5710 C   0  0  0  0  0  2  0  0  0  0  0  0
  161.8470  210.3450  154.3750 C   0  0  0  0  0  1  0  0  0  0  0  0
  154.8650  214.1200  154.5390 C   0  0  0  0  0  1  0  0  0  0  0  0
  159.7020  210.1230  156.2540 C   0  0  1  0  0  3  0  0  0  0  0  0
  157.0870  213.1130  154.1090 C   0  0  0  0  0  2  0  0  0  0  0  0
  159.8690  211.6460  156.2600 C   0  0  0  0  0  2  0  0  0  0  0  0
  159.7300  210.9490  152.9790 C   0  0  1  0  0  3  0  0  0  0  0  0
  158.6120  212.3280  155.9620 N   0  0  1  0  0  0  0  0  0  0  0  0
  158.7910  213.7420  156.3080 C   0  0  0  0  0  2  0  0  0  0  0  0
  162.7720  208.4910  150.0760 C   0  0  0  0  0  2  0  0  0  0  0  0
  162.5660  206.1510  150.2000 C   0  0  0  0  0  2  0  0  0  0  0  0
  162.3520  206.5720  148.8200 C   0  0  2  0  0  3  0  0  0  0  0  0
  161.8300  207.3970  149.9220 N   0  0  0  0  0  0  0  0  0  0  0  0
  161.2180  205.7650  148.2060 C   0  0  0  0  0  2  0  0  0  0  0  0
  160.9660  203.3390  148.4950 C   0  0  0  0  0  3  0  0  0  0  0  0
  161.6400  204.3550  147.9270 C   0  0  0  0  0  0  0  0  0  0  0  0
  161.2680  201.8910  148.2440 C   0  0  1  0  0  3  0  0  0  0  0  0
  161.0560  201.1220  149.5340 C   0  0  0  0  0  1  0  0  0  0  0  0
  160.2230  199.4600  145.5770 C   0  0  0  0  0  1  0  0  0  0  0  0
  160.3350  201.3310  147.1790 C   0  0  2  0  0  3  0  0  0  0  0  0
  161.1400  200.4760  146.2220 C   0  0  2  0  0  3  0  0  0  0  0  0
  160.7060  201.8640  145.8080 C   0  0  0  0  0  2  0  0  0  0  0  0
  162.7730  204.1340  146.9640 C   0  0  0  0  0  2  0  0  0  0  0  0
  162.6070  205.0060  145.7340 C   0  0  0  0  0  1  0  0  0  0  0  0
  1  7  1  0  0  0  0
  1  4  2  0  0  0  0
  2 12  2  0  0  0  0
  2  6  1  0  0  0  0
  3 10  1  0  0  0  0
  5 11  1  0  0  0  0
  5  8  1  0  0  0  0
  6  7  2  0  0  0  0
  8  2  1  0  0  0  0
  9  4  1  0  0  0  0
 10  9  2  0  0  0  0
 11 13  1  0  0  0  0
 12  1  1  0  0  0  0
 13  3  2  0  0  0  0
 13 12  1  0  0  0  0
 14 24  1  0  0  0  0
 15 22  1  1  0  0  0
 15 14  1  0  0  0  0
 17 21  1  6  0  0  0
 17 28  1  0  0  0  0
 18 23  1  6  0  0  0
 18 19  1  0  0  0  0
 19 16  1  0  0  0  0
 24 26  1  0  0  0  0
 24 20  1  6  0  0  0
 25 17  1  0  0  0  0
 25 18  1  0  0  0  0
 27  4  1  6  0  0  0
 27 21  1  0  0  0  0
 27 15  1  0  0  0  0
 28 26  1  6  0  0  0
 28 29  1  0  0  0  0
 29 16  1  0  0  0  0
 30 10  1  0  0  0  0
 32 34  1  6  0  0  0
 32 33  1  0  0  0  0
 32 31  1  0  0  0  0
 33 30  1  0  0  0  0
 33 31  1  0  0  0  0
 36 34  1  0  0  0  0
 36 35  2  0  0  0  0
 37 35  1  0  0  0  0
 37 38  1  1  0  0  0
 40 37  1  1  0  0  0
 41 39  1  6  0  0  0
 41 40  1  0  0  0  0
 42 41  1  0  0  0  0
 42 40  1  0  0  0  0
 43 36  1  0  0  0  0
 44 43  1  0  0  0  0
M  END
>  <MODEL>
8

>  <REMARK>
 VINA RESULT:      -5.1      2.600      7.004
  Name = 
  8 active torsions:
  status: ('A' for Active; 'I' for Inactive)
    1  A    between atoms: C_7  and  C_38
    2  A    between atoms: C_13  and  C_18
    3  A    between atoms: C_17  and  C_25
    4  A    between atoms: C_17  and  N_37
    5  A    between atoms: C_18  and  C_19
    6  A    between atoms: C_22  and  C_44
    7  A    between atoms: C_26  and  C_35
    8  A    between atoms: C_26  and  C_44
                            x       y       z     vdW  Elec       q    Type
                         _______ _______ _______ _____ _____    ______ ____

>  <TORSDO>
F 8

$$$$
=
 OpenBabel11072413453D

 44 50  0  0  1  0  0  0  0  0999 V2000
  160.9340  206.4890  150.4460 C   0  0  0  0  0  0  0  0  0  0  0  0
  160.9870  204.6620  149.1920 C   0  0  0  0  0  0  0  0  0  0  0  0
  162.5160  207.8060  148.1010 N   0  0  0  0  0  0  0  0  0  0  0  0
  161.1210  207.7720  150.9390 C   0  0  0  0  0  0  0  0  0  0  0  0
  162.3150  204.1720  147.1630 C   0  0  0  0  0  2  0  0  0  0  0  0
  160.2790  204.4010  150.3440 C   0  0  0  0  0  3  0  0  0  0  0  0
  160.2510  205.5210  151.1050 N   0  0  0  0  0  0  0  0  0  0  0  0
  161.2860  203.7670  148.1240 N   0  0  0  0  0  2  0  0  0  0  0  0
  161.8210  208.7750  150.2620 C   0  0  0  0  0  3  0  0  0  0  0  0
  162.4520  208.8090  149.0170 C   0  0  0  0  0  0  0  0  0  0  0  0
  162.2520  205.6880  146.8740 C   0  0  0  0  0  2  0  0  0  0  0  0
  161.4110  205.9570  149.1960 C   0  0  0  0  0  0  0  0  0  0  0  0
  162.0880  206.5230  148.1280 C   0  0  0  0  0  0  0  0  0  0  0  0
  159.9700  207.0880  154.4680 O   0  0  0  0  0  0  0  0  0  0  0  0
  160.8670  207.0440  153.3620 C   0  0  2  0  0  3  0  0  0  0  0  0
  160.1900  212.5680  155.5630 C   0  0  0  0  0  2  0  0  0  0  0  0
  159.7880  209.9870  153.7370 C   0  0  2  0  0  3  0  0  0  0  0  0
  158.1000  211.8710  154.2200 C   0  0  1  0  0  3  0  0  0  0  0  0
  158.6980  212.2100  155.5960 C   0  0  0  0  0  2  0  0  0  0  0  0
  161.2640  206.7280  156.5050 C   0  0  0  0  0  1  0  0  0  0  0  0
  160.8230  209.5380  152.7080 C   0  0  0  0  0  2  0  0  0  0  0  0
  162.3560  206.8370  153.6660 C   0  0  0  0  0  1  0  0  0  0  0  0
  157.5090  213.1240  153.6090 C   0  0  0  0  0  1  0  0  0  0  0  0
  160.4830  207.7090  155.6450 C   0  0  1  0  0  3  0  0  0  0  0  0
  159.0940  211.2600  153.2280 C   0  0  0  0  0  2  0  0  0  0  0  0
  161.2440  209.0220  155.4400 C   0  0  0  0  0  2  0  0  0  0  0  0
  160.5380  208.1000  152.2890 C   0  0  1  0  0  3  0  0  0  0  0  0
  160.3420  210.1220  155.1050 N   0  0  1  0  0  0  0  0  0  0  0  0
  161.1020  211.3680  155.2510 C   0  0  0  0  0  2  0  0  0  0  0  0
  163.0690  210.1140  148.6490 C   0  0  0  0  0  2  0  0  0  0  0  0
  161.0520  211.0860  147.9260 C   0  0  0  0  0  2  0  0  0  0  0  0
  162.1400  212.0300  147.6970 C   0  0  2  0  0  3  0  0  0  0  0  0
  162.1400  211.1990  148.9130 N   0  0  0  0  0  0  0  0  0  0  0  0
  161.6800  213.4380  148.0430 C   0  0  0  0  0  2  0  0  0  0  0  0
  159.2550  213.6840  147.7500 C   0  0  0  0  0  3  0  0  0  0  0  0
  160.4860  213.8360  147.2310 C   0  0  0  0  0  0  0  0  0  0  0  0
  157.9940  214.0980  147.0490 C   0  0  1  0  0  3  0  0  0  0  0  0
  157.6910  213.0840  145.9620 C   0  0  0  0  0  1  0  0  0  0  0  0
  156.4080  214.4510  150.4360 C   0  0  0  0  0  1  0  0  0  0  0  0
  156.8290  214.1330  148.0270 C   0  0  2  0  0  3  0  0  0  0  0  0
  157.3480  213.8400  149.4200 C   0  0  2  0  0  3  0  0  0  0  0  0
  156.6120  212.7670  148.6500 C   0  0  0  0  0  2  0  0  0  0  0  0
  160.7220  214.4520  145.8800 C   0  0  0  0  0  2  0  0  0  0  0  0
  162.1500  214.2110  145.4260 C   0  0  0  0  0  1  0  0  0  0  0  0
  1  4  2  0  0  0  0
  1  7  1  0  0  0  0
  2 12  2  0  0  0  0
  2  6  1  0  0  0  0
  3 13  2  0  0  0  0
  3 10  1  0  0  0  0
  5  8  1  0  0  0  0
  6  7  2  0  0  0  0
  8  2  1  0  0  0  0
  9  4  1  0  0  0  0
 10  9  2  0  0  0  0
 11  5  1  0  0  0  0
 11 13  1  0  0  0  0
 12  1  1  0  0  0  0
 13 12  1  0  0  0  0
 14 24  1  0  0  0  0
 15 22  1  1  0  0  0
 15 14  1  0  0  0  0
 16 19  1  0  0  0  0
 17 21  1  6  0  0  0
 17 28  1  0  0  0  0
 18 23  1  6  0  0  0
 18 19  1  0  0  0  0
 24 20  1  6  0  0  0
 25 17  1  0  0  0  0
 25 18  1  0  0  0  0
 26 24  1  0  0  0  0
 27  4  1  6  0  0  0
 27 21  1  0  0  0  0
 27 15  1  0  0  0  0
 28 29  1  6  0  0  0
 28 26  1  0  0  0  0
 29 16  1  0  0  0  0
 30 33  1  0  0  0  0
 30 10  1  0  0  0  0
 31 33  1  0  0  0  0
 32 31  1  0  0  0  0
 32 34  1  1  0  0  0
 32 33  1  0  0  0  0
 36 35  2  0  0  0  0
 36 34  1  0  0  0  0
 37 38  1  6  0  0  0
 37 35  1  0  0  0  0
 40 37  1  6  0  0  0
 40 42  1  0  0  0  0
 40 41  1  0  0  0  0
 41 39  1  1  0  0  0
 42 41  1  0  0  0  0
 43 36  1  0  0  0  0
 44 43  1  0  0  0  0
M  END
>  <MODEL>
9

>  <REMARK>
 VINA RESULT:      -4.3      1.566      2.154
  Name = 
  8 active torsions:
  status: ('A' for Active; 'I' for Inactive)
    1  A    between atoms: C_7  and  C_38
    2  A    between atoms: C_13  and  C_18
    3  A    between atoms: C_17  and  C_25
    4  A    between atoms: C_17  and  N_37
    5  A    between atoms: C_18  and  C_19
    6  A    between atoms: C_22  and  C_44
    7  A    between atoms: C_26  and  C_35
    8  A    between atoms: C_26  and  C_44
                            x       y       z     vdW  Elec       q    Type
                         _______ _______ _______ _____ _____    ______ ____

>  <TORSDO>
F 8

$$$$
