=
 OpenBabel11072412203D

 68 74  0  0  1  0  0  0  0  0999 V2000
  161.7570  206.7130  147.6790 N   0  0  0  0  0  0  0  0  0  0  0  0
  162.5370  206.3010  148.8460 C   0  0  0  0  0  2  0  0  0  0  0  0
  161.9770  204.7290  150.6430 C   0  0  0  0  0  2  0  0  0  0  0  0
  160.2320  206.1470  149.8110 C   0  0  0  0  0  2  0  0  0  0  0  0
  161.0760  203.8760  149.7900 C   0  0  2  0  0  3  0  0  0  0  0  0
  161.7360  206.1340  150.1300 C   0  0  2  0  0  3  0  0  0  0  0  0
  159.8220  204.7000  149.5570 C   0  0  0  0  0  2  0  0  0  0  0  0
  160.7560  202.5250  150.4160 C   0  0  0  0  0  2  0  0  0  0  0  0
  160.9090  201.4970  149.4020 N   0  0  0  0  0  2  0  0  0  0  0  0
  160.2150  201.4410  145.6240 C   0  0  0  0  0  1  0  0  0  0  0  0
  161.6070  199.8680  147.1720 C   0  0  0  0  0  1  0  0  0  0  0  0
  161.8140  202.3180  147.2960 C   0  0  0  0  0  2  0  0  0  0  0  0
  160.9000  201.1870  146.9510 C   0  0  0  0  0  0  0  0  0  0  0  0
  160.5540  202.1020  148.1260 C   0  0  1  0  0  3  0  0  0  0  0  0
  161.3960  208.1330  147.6780 C   0  0  0  0  0  2  0  0  0  0  0  0
  162.1460  208.9230  148.7540 C   0  0  0  0  0  2  0  0  0  0  0  0
  162.2900  210.3440  148.2600 C   0  0  0  0  0  2  0  0  0  0  0  0
  161.7090  211.4520  149.1300 C   0  0  1  0  0  3  0  0  0  0  0  0
  161.4760  211.2050  150.5540 N   0  0  0  0  0  2  0  0  0  0  0  0
  159.7350  212.7760  150.7020 O   0  0  0  0  0  0  0  0  0  0  0  0
  160.4980  211.9530  151.2900 C   0  0  0  0  0  0  0  0  0  0  0  0
  158.9190  211.2890  153.0240 C   0  0  0  0  0  1  0  0  0  0  0  0
  160.3420  211.7190  152.7570 C   0  0  1  0  0  3  0  0  0  0  0  0
  161.2980  210.6220  153.2400 C   0  0  0  0  0  2  0  0  0  0  0  0
  161.0120  209.2600  155.1280 N   0  0  0  0  0  2  0  0  0  0  0  0
  160.6110  209.4450  153.7920 N   0  0  0  0  0  0  0  0  0  0  0  0
  161.1520  207.8150  155.3080 C   0  0  0  0  0  2  0  0  0  0  0  0
  161.1250  207.1670  154.0180 N   0  0  0  0  0  2  0  0  0  0  0  0
  160.9100  208.2290  153.0640 C   0  0  0  0  0  2  0  0  0  0  0  0
  161.9310  212.8980  148.7010 C   0  0  0  0  0  2  0  0  0  0  0  0
  161.4130  213.2460  147.2950 C   0  0  1  0  0  3  0  0  0  0  0  0
  161.7470  213.2330  145.0750 C   0  0  0  0  0  1  0  0  0  0  0  0
  162.3980  213.0770  146.2970 O   0  0  0  0  0  0  0  0  0  0  0  0
  160.2330  212.4930  147.0730 O   0  0  0  0  0  0  0  0  0  0  0  0
  157.9870  212.5240  147.5090 O   0  0  0  0  0  0  0  0  0  0  0  0
  159.1080  213.3360  147.2600 C   0  0  2  0  0  3  0  0  0  0  0  0
  158.0840  213.0740  146.2120 C   0  0  0  0  0  2  0  0  0  0  0  0
  162.3100  206.2430  146.4100 C   0  0  0  0  0  2  0  0  0  0  0  0
  161.3630  205.3620  145.5460 C   0  0  0  0  0  2  0  0  0  0  0  0
  160.7750  206.0990  144.3340 C   0  0  0  0  0  2  0  0  0  0  0  0
  161.6990  205.9560  143.1060 C   0  0  0  0  0  2  0  0  0  0  0  0
  161.8260  207.1810  142.4410 O   0  0  0  0  0  0  0  0  0  0  0  0
  161.8120  206.8460  141.0880 C   0  0  2  0  0  3  0  0  0  0  0  0
  162.2380  205.4060  140.8460 C   0  0  0  0  0  1  0  0  0  0  0  0
  162.6040  207.8600  140.2520 C   0  0  0  0  0  2  0  0  0  0  0  0
  161.9030  211.4860  138.3700 O   0  0  0  0  0  0  0  0  0  0  0  0
  160.6750  210.7940  138.4270 C   0  0  1  0  0  3  0  0  0  0  0  0
  162.7800  210.4440  140.3690 C   0  0  0  0  0  2  0  0  0  0  0  0
  161.9470  209.2130  139.9990 C   0  0  1  0  0  0  0  0  0  0  0  0
  160.8160  209.4080  139.0490 C   0  0  1  0  0  0  0  0  0  0  0  0
  162.3180  211.7340  139.6870 C   0  0  1  0  0  3  0  0  0  0  0  0
  160.6010  209.2890  140.4330 O   0  0  0  0  0  0  0  0  0  0  0  0
  160.4320  208.2870  138.3090 O   0  0  0  0  0  1  0  0  0  0  0  0
  157.9160  213.6300  141.5190 O   0  0  0  0  0  0  0  0  0  0  0  0
  158.1560  210.9410  138.3390 C   0  0  1  0  0  3  0  0  0  0  0  0
  158.2490  210.4860  137.0160 O   0  0  0  0  0  1  0  0  0  0  0  0
  159.4320  211.6710  138.7430 C   0  0  1  0  0  3  0  0  0  0  0  0
  159.3540  212.2170  140.1990 C   0  0  2  0  0  3  0  0  0  0  0  0
  158.0420  212.9040  140.4950 C   0  0  0  0  0  0  0  0  0  0  0  0
  155.9720  211.7610  137.7530 O   0  0  0  0  0  0  0  0  0  0  0  0
  160.4860  213.2080  140.4740 C   0  0  0  0  0  1  0  0  0  0  0  0
  156.9630  211.8310  138.5270 C   0  0  0  0  0  0  0  0  0  0  0  0
  156.9260  212.7620  139.6000 N   0  0  0  0  0  2  0  0  0  0  0  0
  163.3780  212.6590  139.6880 O   0  0  0  0  0  0  0  0  0  0  0  0
  163.5900  211.6070  137.6700 F   0  0  0  0  0  0  0  0  0  0  0  0
  164.6840  213.5450  137.9910 F   0  0  0  0  0  0  0  0  0  0  0  0
  164.2580  212.3700  138.6140 C   0  0  0  0  0  0  0  0  0  0  0  0
  165.3750  211.6510  139.0540 F   0  0  0  0  0  0  0  0  0  0  0  0
  1  2  1  0  0  0  0
  4  6  1  0  0  0  0
  5  8  1  1  0  0  0
  5  3  1  0  0  0  0
  6  2  1  6  0  0  0
  6  3  1  0  0  0  0
  7  5  1  0  0  0  0
  7  4  1  0  0  0  0
  9  8  1  0  0  0  0
 10 13  1  0  0  0  0
 12 14  1  0  0  0  0
 13 11  1  0  0  0  0
 13 12  1  0  0  0  0
 13 14  1  0  0  0  0
 14  9  1  1  0  0  0
 15  1  1  0  0  0  0
 15 16  1  0  0  0  0
 17 16  1  0  0  0  0
 18 17  1  1  0  0  0
 18 19  1  0  0  0  0
 19 21  1  0  0  0  0
 20 21  2  0  0  0  0
 21 23  1  0  0  0  0
 23 22  1  6  0  0  0
 23 24  1  0  0  0  0
 24 26  1  0  0  0  0
 25 27  1  0  0  0  0
 26 25  1  0  0  0  0
 28 27  1  0  0  0  0
 29 26  1  0  0  0  0
 29 28  1  0  0  0  0
 30 18  1  0  0  0  0
 31 30  1  1  0  0  0
 32 33  1  0  0  0  0
 33 31  1  0  0  0  0
 34 31  1  0  0  0  0
 36 34  1  6  0  0  0
 36 35  1  0  0  0  0
 37 36  1  0  0  0  0
 37 35  1  0  0  0  0
 38  1  1  0  0  0  0
 39 38  1  0  0  0  0
 40 39  1  0  0  0  0
 41 40  1  0  0  0  0
 42 41  1  0  0  0  0
 43 44  1  1  0  0  0
 43 42  1  0  0  0  0
 45 43  1  0  0  0  0
 46 51  1  0  0  0  0
 47 46  1  1  0  0  0
 47 50  1  0  0  0  0
 49 45  1  1  0  0  0
 49 48  1  0  0  0  0
 49 52  1  0  0  0  0
 50 53  1  6  0  0  0
 50 49  1  0  0  0  0
 50 52  1  0  0  0  0
 51 64  1  6  0  0  0
 51 48  1  0  0  0  0
 55 56  1  6  0  0  0
 55 62  1  0  0  0  0
 55 57  1  0  0  0  0
 57 47  1  1  0  0  0
 57 58  1  0  0  0  0
 58 61  1  6  0  0  0
 58 59  1  0  0  0  0
 59 54  2  0  0  0  0
 60 62  2  0  0  0  0
 62 63  1  0  0  0  0
 63 59  1  0  0  0  0
 65 67  1  0  0  0  0
 66 67  1  0  0  0  0
 67 68  1  0  0  0  0
 67 64  1  0  0  0  0
M  END
>  <MODEL>
1

>  <REMARK>
 VINA RESULT:      -3.1      0.000      0.000
  Name = 
  29 active torsions:
  status: ('A' for Active; 'I' for Inactive)
    1  A    between atoms: C_2  and  N_10
    2  A    between atoms: C_2  and  C_34
    3  A    between atoms: C_2  and  C_42
    4  A    between atoms: C_7  and  C_22
    5  A    between atoms: O_8  and  C_45
    6  A    between atoms: O_8  and  C_62
    7  A    between atoms: C_13  and  C_30
    8  A    between atoms: C_13  and  O_49
    9  A    between atoms: C_16  and  C_42
   10  A    between atoms: C_16  and  C_64
   11  A    between atoms: C_17  and  N_36
   12  A    between atoms: C_17  and  C_65
   13  A    between atoms: C_20  and  O_49
   14  A    between atoms: C_20  and  C_66
   15  A    between atoms: C_21  and  N_43
   16  A    between atoms: C_21  and  C_50
   17  A    between atoms: O_23  and  C_33
   18  A    between atoms: O_23  and  C_53
   19  A    between atoms: C_24  and  C_65
   20  A    between atoms: C_27  and  C_28
   21  A    between atoms: C_27  and  N_43
   22  A    between atoms: C_28  and  C_66
   23  A    between atoms: C_30  and  C_32
   24  A    between atoms: C_33  and  C_34
   25  A    between atoms: C_33  and  O_60
   26  A    between atoms: N_43  and  C_64
   27  A    between atoms: C_44  and  C_54
   28  A    between atoms: C_54  and  N_59
   29  A    between atoms: C_57  and  N_59
                            x       y       z     vdW  Elec       q    Type
                         _______ _______ _______ _____ _____    ______ ____

>  <TORSDO>
F 29

$$$$
