=
 OpenBabel11072410523D

 40 44  0  0  1  0  0  0  0  0999 V2000
  159.8700  207.2390  148.2820 F   0  0  0  0  0  0  0  0  0  0  0  0
  160.8650  207.4620  152.9790 C   0  0  2  0  0  3  0  0  0  0  0  0
  160.5950  209.8730  152.6410 C   0  0  2  0  0  3  0  0  0  0  0  0
  162.2470  207.1130  148.1420 C   0  0  1  0  0  3  0  0  0  0  0  0
  161.4920  205.4000  145.4250 C   0  0  0  0  0  0  0  0  0  0  0  0
  161.8800  204.0430  148.3630 C   0  0  1  0  0  3  0  0  0  0  0  0
  162.1610  208.6350  148.3600 C   0  0  0  0  0  2  0  0  0  0  0  0
  162.0070  205.0720  149.4790 C   0  0  1  0  0  0  0  0  0  0  0  0
  162.0680  209.1500  149.8030 C   0  0  2  0  0  3  0  0  0  0  0  0
  162.8920  204.3240  151.5810 C   0  0  0  0  0  2  0  0  0  0  0  0
  162.8460  206.3420  149.3020 C   0  0  0  0  0  2  0  0  0  0  0  0
  162.0760  204.1130  145.9070 C   0  0  0  0  0  2  0  0  0  0  0  0
  163.1950  205.3590  152.6470 C   0  0  0  0  0  2  0  0  0  0  0  0
  160.8020  205.1280  148.5470 C   0  0  1  0  0  3  0  0  0  0  0  0
  162.1080  205.4850  153.5150 O   0  0  0  0  0  0  0  0  0  0  0  0
  160.9090  206.4600  147.7920 C   0  0  1  0  0  0  0  0  0  0  0  0
  161.5760  205.6420  144.1920 O   0  0  0  0  0  0  0  0  0  0  0  0
  161.6730  204.6850  150.8720 N   0  0  0  0  0  0  0  0  0  0  0  0
  160.7460  206.3520  146.2880 C   0  0  0  0  0  0  0  0  0  0  0  0
  159.4320  209.3650  153.4690 C   0  0  0  0  0  2  0  0  0  0  0  0
  161.0730  208.3990  150.6800 C   0  0  0  0  0  2  0  0  0  0  0  0
  161.3600  208.6450  152.1570 C   0  0  2  0  0  3  0  0  0  0  0  0
  159.8220  207.9850  153.9520 C   0  0  0  0  0  2  0  0  0  0  0  0
  162.0180  206.8560  153.7660 C   0  0  0  0  0  2  0  0  0  0  0  0
  162.8340  204.2880  147.2020 C   0  0  0  0  0  2  0  0  0  0  0  0
  160.0080  207.2000  145.7140 O   0  0  0  0  0  0  0  0  0  0  0  0
  161.7270  210.6300  149.7480 C   0  0  0  0  0  1  0  0  0  0  0  0
  160.2260  203.2600  152.5740 O   0  0  0  0  0  0  0  0  0  0  0  0
  160.5070  203.3940  151.1020 S   0  0  0  0  0  0  0  0  0  0  0  0
  159.2220  203.7640  150.4190 O   0  0  0  0  0  0  0  0  0  0  0  0
  161.0370  201.8010  150.4740 C   0  0  0  0  0  2  0  0  0  0  0  0
  160.2650  201.3510  149.2720 C   0  0  0  0  0  0  0  0  0  0  0  0
  158.9500  201.2340  149.3850 C   0  0  0  0  0  2  0  0  0  0  0  0
  161.9650  200.1560  148.1090 O   0  0  0  0  0  0  0  0  0  0  0  0
  160.9450  200.9020  148.0400 C   0  0  0  0  0  0  0  0  0  0  0  0
  160.8570  200.3870  145.7380 O   0  0  0  0  0  1  0  0  0  0  0  0
  160.4700  201.3260  146.6920 C   0  0  0  0  0  2  0  0  0  0  0  0
  161.4820  210.7580  153.4580 C   0  0  0  0  0  0  0  0  0  0  0  0
  162.7320  210.6190  153.3930 O   0  0  0  0  0  0  0  0  0  0  0  0
  160.9310  211.7590  154.3050 N   0  0  0  0  0  1  0  0  0  0  0  0
  2 24  1  1  0  0  0
  2 23  1  0  0  0  0
  3 38  1  1  0  0  0
  3 20  1  0  0  0  0
  4  7  1  1  0  0  0
  4 11  1  0  0  0  0
  5 12  1  0  0  0  0
  5 19  1  0  0  0  0
  6 25  1  6  0  0  0
  6 14  1  0  0  0  0
  6  8  1  0  0  0  0
  7  9  1  0  0  0  0
  8 11  1  6  0  0  0
  8 18  1  0  0  0  0
  9 27  1  6  0  0  0
  9 21  1  0  0  0  0
 10 13  1  0  0  0  0
 12 25  1  0  0  0  0
 13 15  1  0  0  0  0
 14  8  1  0  0  0  0
 15 24  1  0  0  0  0
 16  4  1  0  0  0  0
 16  1  1  0  0  0  0
 16 14  1  0  0  0  0
 17  5  2  0  0  0  0
 18 29  1  0  0  0  0
 18 10  1  0  0  0  0
 19 16  1  0  0  0  0
 20 23  1  0  0  0  0
 21 22  1  0  0  0  0
 22  3  1  0  0  0  0
 22  2  1  0  0  0  0
 26 19  2  0  0  0  0
 29 28  2  0  0  0  0
 30 29  2  0  0  0  0
 31 29  1  0  0  0  0
 32 33  2  0  0  0  0
 32 31  1  0  0  0  0
 35 34  2  0  0  0  0
 35 32  1  0  0  0  0
 36 37  1  0  0  0  0
 37 35  1  0  0  0  0
 38 40  1  0  0  0  0
 39 38  2  0  0  0  0
M  END
>  <MODEL>
1

>  <REMARK>
 VINA RESULT:      -0.5      0.000      0.000
  Name = 
  6 active torsions:
  status: ('A' for Active; 'I' for Inactive)
    1  A    between atoms: C_1  and  C_37
    2  A    between atoms: C_1  and  C_38
    3  A    between atoms: C_4  and  C_7
    4  A    between atoms: S_8  and  N_29
    5  A    between atoms: S_8  and  C_37
    6  A    between atoms: C_24  and  C_38
                            x       y       z     vdW  Elec       q    Type
                         _______ _______ _______ _____ _____    ______ ____

>  <TORSDO>
F 6

$$$$
=
 OpenBabel11072410523D

 40 44  0  0  1  0  0  0  0  0999 V2000
  157.7310  210.1590  153.1600 F   0  0  0  0  0  0  0  0  0  0  0  0
  161.0590  209.0000  149.8920 C   0  0  2  0  0  3  0  0  0  0  0  0
  161.1570  206.8950  151.1420 C   0  0  2  0  0  3  0  0  0  0  0  0
  159.5950  211.2630  154.1530 C   0  0  1  0  0  3  0  0  0  0  0  0
  157.1950  213.2370  155.2590 C   0  0  0  0  0  0  0  0  0  0  0  0
  158.7750  213.7180  152.4490 C   0  0  1  0  0  3  0  0  0  0  0  0
  159.9520  209.8420  154.6300 C   0  0  0  0  0  2  0  0  0  0  0  0
  159.6770  212.5510  152.0700 C   0  0  1  0  0  0  0  0  0  0  0  0
  160.7380  208.9390  153.6710 C   0  0  2  0  0  3  0  0  0  0  0  0
  161.3550  212.9450  150.4000 C   0  0  0  0  0  2  0  0  0  0  0  0
  160.5400  211.8350  153.1150 C   0  0  0  0  0  2  0  0  0  0  0  0
  157.6640  214.4500  154.5250 C   0  0  0  0  0  2  0  0  0  0  0  0
  162.3780  211.8570  150.1320 C   0  0  0  0  0  2  0  0  0  0  0  0
  158.2050  212.2900  152.3650 C   0  0  1  0  0  3  0  0  0  0  0  0
  161.9600  211.0590  149.0650 O   0  0  0  0  0  0  0  0  0  0  0  0
  158.1710  211.3950  153.6110 C   0  0  1  0  0  0  0  0  0  0  0  0
  156.6680  213.4190  156.3890 O   0  0  0  0  0  0  0  0  0  0  0  0
  160.0510  212.3490  150.6480 N   0  0  0  0  0  0  0  0  0  0  0  0
  157.2260  211.8610  154.7020 C   0  0  0  0  0  0  0  0  0  0  0  0
  160.5240  206.6290  149.7900 C   0  0  0  0  0  2  0  0  0  0  0  0
  160.2200  208.9370  152.2370 C   0  0  0  0  0  2  0  0  0  0  0  0
  161.2820  208.4080  151.2790 C   0  0  2  0  0  3  0  0  0  0  0  0
  160.8150  207.8440  148.9370 C   0  0  0  0  0  2  0  0  0  0  0  0
  162.3000  209.7590  149.4450 C   0  0  0  0  0  2  0  0  0  0  0  0
  159.0050  214.2250  153.8660 C   0  0  0  0  0  2  0  0  0  0  0  0
  156.4910  210.9940  155.2520 O   0  0  0  0  0  0  0  0  0  0  0  0
  160.7330  207.5320  154.2460 C   0  0  0  0  0  1  0  0  0  0  0  0
  157.5550  212.4630  149.7670 O   0  0  0  0  0  0  0  0  0  0  0  0
  158.9410  212.9350  149.4220 S   0  0  0  0  0  0  0  0  0  0  0  0
  158.9350  214.4360  149.4400 O   0  0  0  0  0  0  0  0  0  0  0  0
  159.3310  212.3960  147.7570 C   0  0  0  0  0  2  0  0  0  0  0  0
  159.2050  213.4850  146.7370 C   0  0  0  0  0  0  0  0  0  0  0  0
  157.9940  213.7750  146.2830 C   0  0  0  0  0  2  0  0  0  0  0  0
  160.3890  214.4510  144.9120 O   0  0  0  0  0  0  0  0  0  0  0  0
  160.3940  214.1200  146.1330 C   0  0  0  0  0  0  0  0  0  0  0  0
  162.5620  213.3640  146.6790 O   0  0  0  0  0  1  0  0  0  0  0  0
  161.6300  214.3690  146.9290 C   0  0  0  0  0  2  0  0  0  0  0  0
  162.5000  206.2440  151.2370 C   0  0  0  0  0  0  0  0  0  0  0  0
  163.5140  206.8370  150.7830 O   0  0  0  0  0  0  0  0  0  0  0  0
  162.6490  204.9640  151.8390 N   0  0  0  0  0  1  0  0  0  0  0  0
  1 16  1  0  0  0  0
  2 23  1  6  0  0  0
  2 22  1  0  0  0  0
  3 38  1  6  0  0  0
  3 22  1  0  0  0  0
  4 11  1  6  0  0  0
  4  7  1  0  0  0  0
  5 17  2  0  0  0  0
  6 25  1  1  0  0  0
  8 14  1  0  0  0  0
  8  6  1  0  0  0  0
  8 11  1  1  0  0  0
  9 27  1  1  0  0  0
  9  7  1  0  0  0  0
 10 18  1  0  0  0  0
 12  5  1  0  0  0  0
 13 10  1  0  0  0  0
 14  6  1  0  0  0  0
 14 16  1  0  0  0  0
 15 24  1  0  0  0  0
 15 13  1  0  0  0  0
 16  4  1  0  0  0  0
 16 19  1  0  0  0  0
 18  8  1  0  0  0  0
 19 26  2  0  0  0  0
 19  5  1  0  0  0  0
 20  3  1  0  0  0  0
 21  9  1  0  0  0  0
 22 21  1  0  0  0  0
 23 20  1  0  0  0  0
 24  2  1  0  0  0  0
 25 12  1  0  0  0  0
 29 30  2  0  0  0  0
 29 28  2  0  0  0  0
 29 18  1  0  0  0  0
 31 29  1  0  0  0  0
 32 31  1  0  0  0  0
 33 32  2  0  0  0  0
 34 35  2  0  0  0  0
 35 32  1  0  0  0  0
 35 37  1  0  0  0  0
 36 37  1  0  0  0  0
 38 40  1  0  0  0  0
 39 38  2  0  0  0  0
M  END
>  <MODEL>
2

>  <REMARK>
 VINA RESULT:      -0.3      4.316      9.365
  Name = 
  6 active torsions:
  status: ('A' for Active; 'I' for Inactive)
    1  A    between atoms: C_1  and  C_37
    2  A    between atoms: C_1  and  C_38
    3  A    between atoms: C_4  and  C_7
    4  A    between atoms: S_8  and  N_29
    5  A    between atoms: S_8  and  C_37
    6  A    between atoms: C_24  and  C_38
                            x       y       z     vdW  Elec       q    Type
                         _______ _______ _______ _____ _____    ______ ____

>  <TORSDO>
F 6

$$$$
=
 OpenBabel11072410523D

 40 44  0  0  1  0  0  0  0  0999 V2000
  157.8140  210.1890  153.1650 F   0  0  0  0  0  0  0  0  0  0  0  0
  161.0780  208.8880  149.8850 C   0  0  2  0  0  3  0  0  0  0  0  0
  161.0440  206.7600  151.0970 C   0  0  2  0  0  3  0  0  0  0  0  0
  159.7390  211.1600  154.1820 C   0  0  1  0  0  3  0  0  0  0  0  0
  157.4570  213.2560  155.3170 C   0  0  0  0  0  0  0  0  0  0  0  0
  159.0730  213.6900  152.5200 C   0  0  1  0  0  3  0  0  0  0  0  0
  160.0080  209.7130  154.6350 C   0  0  0  0  0  2  0  0  0  0  0  0
  159.9040  212.4780  152.1220 C   0  0  1  0  0  0  0  0  0  0  0  0
  160.7410  208.7810  153.6610 C   0  0  2  0  0  3  0  0  0  0  0  0
  161.6080  212.7990  150.4630 C   0  0  0  0  0  2  0  0  0  0  0  0
  160.7190  211.6930  153.1560 C   0  0  0  0  0  2  0  0  0  0  0  0
  158.0010  214.4510  154.6050 C   0  0  0  0  0  2  0  0  0  0  0  0
  162.5650  211.6560  150.1780 C   0  0  0  0  0  2  0  0  0  0  0  0
  158.4180  212.3010  152.4090 C   0  0  1  0  0  3  0  0  0  0  0  0
  162.1030  210.9040  149.0960 O   0  0  0  0  0  0  0  0  0  0  0  0
  158.3270  211.3870  153.6390 C   0  0  1  0  0  0  0  0  0  0  0  0
  156.9390  213.4500  156.4490 O   0  0  0  0  0  0  0  0  0  0  0  0
  160.2700  212.2780  150.6980 N   0  0  0  0  0  0  0  0  0  0  0  0
  157.4080  211.8900  154.7360 C   0  0  0  0  0  0  0  0  0  0  0  0
  160.4020  206.5560  149.7390 C   0  0  0  0  0  2  0  0  0  0  0  0
  160.2290  208.8350  152.2260 C   0  0  0  0  0  2  0  0  0  0  0  0
  161.2600  208.2610  151.2610 C   0  0  2  0  0  3  0  0  0  0  0  0
  160.7680  207.7670  148.9080 C   0  0  0  0  0  2  0  0  0  0  0  0
  162.3630  209.5800  149.4540 C   0  0  0  0  0  2  0  0  0  0  0  0
  159.3280  214.1580  153.9460 C   0  0  0  0  0  2  0  0  0  0  0  0
  156.6200  211.0600  155.2690 O   0  0  0  0  0  0  0  0  0  0  0  0
  160.6490  207.3670  154.2110 C   0  0  0  0  0  1  0  0  0  0  0  0
  159.1630  214.4460  149.6510 O   0  0  0  0  0  0  0  0  0  0  0  0
  159.2020  212.9520  149.4800 S   0  0  0  0  0  0  0  0  0  0  0  0
  159.7610  212.6580  148.1180 O   0  0  0  0  0  0  0  0  0  0  0  0
  157.5230  212.3250  149.5440 C   0  0  0  0  0  2  0  0  0  0  0  0
  156.5190  213.2580  148.9420 C   0  0  0  0  0  0  0  0  0  0  0  0
  156.5810  213.4810  147.6360 C   0  0  0  0  0  2  0  0  0  0  0  0
  154.4470  214.3650  149.3270 O   0  0  0  0  0  0  0  0  0  0  0  0
  155.5790  214.0290  149.7810 C   0  0  0  0  0  0  0  0  0  0  0  0
  154.8800  214.1830  152.0290 O   0  0  0  0  0  1  0  0  0  0  0  0
  155.9400  214.4490  151.1650 C   0  0  0  0  0  2  0  0  0  0  0  0
  162.3460  206.0280  151.1840 C   0  0  0  0  0  0  0  0  0  0  0  0
  163.4080  206.5990  150.8200 O   0  0  0  0  0  0  0  0  0  0  0  0
  162.4010  204.6950  151.6780 N   0  0  0  0  0  1  0  0  0  0  0  0
  1 16  1  0  0  0  0
  2 23  1  6  0  0  0
  2 22  1  0  0  0  0
  3 38  1  6  0  0  0
  3 22  1  0  0  0  0
  4 11  1  6  0  0  0
  4  7  1  0  0  0  0
  5 17  2  0  0  0  0
  6 25  1  1  0  0  0
  8 14  1  0  0  0  0
  8  6  1  0  0  0  0
  8 11  1  1  0  0  0
  9 27  1  1  0  0  0
  9  7  1  0  0  0  0
 10 18  1  0  0  0  0
 12  5  1  0  0  0  0
 13 10  1  0  0  0  0
 14  6  1  0  0  0  0
 14 16  1  0  0  0  0
 15 24  1  0  0  0  0
 15 13  1  0  0  0  0
 16  4  1  0  0  0  0
 16 19  1  0  0  0  0
 18  8  1  0  0  0  0
 19 26  2  0  0  0  0
 19  5  1  0  0  0  0
 20  3  1  0  0  0  0
 21  9  1  0  0  0  0
 22 21  1  0  0  0  0
 23 20  1  0  0  0  0
 24  2  1  0  0  0  0
 25 12  1  0  0  0  0
 29 31  1  0  0  0  0
 29 28  2  0  0  0  0
 29 18  1  0  0  0  0
 30 29  2  0  0  0  0
 32 31  1  0  0  0  0
 32 35  1  0  0  0  0
 33 32  2  0  0  0  0
 34 35  2  0  0  0  0
 35 37  1  0  0  0  0
 37 36  1  0  0  0  0
 38 40  1  0  0  0  0
 39 38  2  0  0  0  0
M  END
>  <MODEL>
3

>  <REMARK>
 VINA RESULT:       0.2      4.619      9.608
  Name = 
  6 active torsions:
  status: ('A' for Active; 'I' for Inactive)
    1  A    between atoms: C_1  and  C_37
    2  A    between atoms: C_1  and  C_38
    3  A    between atoms: C_4  and  C_7
    4  A    between atoms: S_8  and  N_29
    5  A    between atoms: S_8  and  C_37
    6  A    between atoms: C_24  and  C_38
                            x       y       z     vdW  Elec       q    Type
                         _______ _______ _______ _____ _____    ______ ____

>  <TORSDO>
F 6

$$$$
