=
 OpenBabel11072412403D

 31 36  0  0  1  0  0  0  0  0999 V2000
  161.5260  206.0480  153.9460 C   0  0  0  0  0  3  0  0  0  0  0  0
  160.7970  207.2850  149.9150 C   0  0  1  0  0  3  0  0  0  0  0  0
  161.2920  206.7580  147.6060 C   0  0  0  0  0  2  0  0  0  0  0  0
  161.9750  208.0640  147.9830 C   0  0  0  0  0  2  0  0  0  0  0  0
  160.0630  209.9540  153.2670 C   0  0  2  0  0  3  0  0  0  0  0  0
  161.1430  208.3170  154.7060 O   0  0  0  0  0  0  0  0  0  0  0  0
  160.8850  207.7480  152.3560 C   0  0  0  0  0  0  0  0  0  0  0  0
  161.5730  209.8430  151.3420 O   0  0  0  0  0  0  0  0  0  0  0  0
  160.6750  206.1890  148.8750 C   0  0  0  0  0  2  0  0  0  0  0  0
  161.0240  209.7150  154.4370 C   0  0  2  0  0  3  0  0  0  0  0  0
  162.0590  209.5030  150.0650 C   0  0  0  0  0  0  0  0  0  0  0  0
  160.9720  206.8060  151.3270 C   0  0  0  0  0  0  0  0  0  0  0  0
  161.3430  205.4910  151.6430 C   0  0  0  0  0  3  0  0  0  0  0  0
  162.6990  210.3800  149.4280 O   0  0  0  0  0  0  0  0  0  0  0  0
  161.1880  207.3750  153.6750 C   0  0  0  0  0  0  0  0  0  0  0  0
  161.5940  205.1420  152.9340 N   0  0  0  0  0  0  0  0  0  0  0  0
  162.0020  208.0970  149.4990 C   0  0  1  0  0  3  0  0  0  0  0  0
  160.5130  209.1710  152.0240 C   0  0  2  0  0  3  0  0  0  0  0  0
  159.3050  211.0040  157.2610 N   0  0  0  0  0  0  0  0  0  0  0  0
  160.5620  210.4080  155.6290 N   0  0  0  0  0  0  0  0  0  0  0  0
  160.4150  211.7740  157.2320 C   0  0  0  0  0  3  0  0  0  0  0  0
  159.4220  210.1630  156.2470 N   0  0  0  0  0  0  0  0  0  0  0  0
  161.2080  211.4050  156.2040 N   0  0  0  0  0  0  0  0  0  0  0  0
  159.9760  211.3210  152.9770 O   0  0  0  0  0  0  0  0  0  0  0  0
  158.4440  214.4530  150.4330 O   0  0  0  0  0  1  0  0  0  0  0  0
  159.0680  213.6640  151.3970 C   0  0  1  0  0  3  0  0  0  0  0  0
  159.0340  214.3780  152.7550 C   0  0  0  0  0  2  0  0  0  0  0  0
  158.6160  211.5650  152.7620 C   0  0  1  0  0  3  0  0  0  0  0  0
  157.8880  213.8770  153.6280 C   0  0  0  0  0  2  0  0  0  0  0  0
  158.0430  212.3820  153.9320 C   0  0  0  0  0  2  0  0  0  0  0  0
  158.4170  212.2720  151.4180 C   0  0  0  0  0  2  0  0  0  0  0  0
  2  9  1  6  0  0  0
  2 12  1  0  0  0  0
  3  4  1  0  0  0  0
  3  9  1  0  0  0  0
  5 24  1  6  0  0  0
  5 10  1  0  0  0  0
  7 15  2  0  0  0  0
 10  6  1  0  0  0  0
 10 20  1  1  0  0  0
 11  8  1  0  0  0  0
 12 13  2  0  0  0  0
 12  7  1  0  0  0  0
 13 16  1  0  0  0  0
 14 11  2  0  0  0  0
 15  1  1  0  0  0  0
 15  6  1  0  0  0  0
 16  1  2  0  0  0  0
 17  4  1  6  0  0  0
 17  2  1  0  0  0  0
 17 11  1  0  0  0  0
 18  8  1  1  0  0  0
 18  7  1  0  0  0  0
 18  5  1  0  0  0  0
 20 23  1  0  0  0  0
 20 22  1  0  0  0  0
 21 19  1  0  0  0  0
 22 19  2  0  0  0  0
 23 21  2  0  0  0  0
 26 25  1  6  0  0  0
 26 31  1  0  0  0  0
 26 27  1  0  0  0  0
 27 29  1  0  0  0  0
 28 24  1  1  0  0  0
 28 30  1  0  0  0  0
 29 30  1  0  0  0  0
 31 28  1  0  0  0  0
M  END
>  <MODEL>
1

>  <REMARK>
 VINA RESULT:      -6.9      0.000      0.000
  Name = 
  3 active torsions:
  status: ('A' for Active; 'I' for Inactive)
    1  A    between atoms: C_7  and  O_31
    2  A    between atoms: C_12  and  N_17
    3  A    between atoms: C_18  and  O_31
                            x       y       z     vdW  Elec       q    Type
                         _______ _______ _______ _____ _____    ______ ____

>  <TORSDO>
F 3

$$$$
=
 OpenBabel11072412403D

 31 36  0  0  1  0  0  0  0  0999 V2000
  162.5190  209.9080  149.0400 C   0  0  0  0  0  3  0  0  0  0  0  0
  160.5670  208.4930  152.5740 C   0  0  1  0  0  3  0  0  0  0  0  0
  160.4760  208.7580  154.9780 C   0  0  0  0  0  2  0  0  0  0  0  0
  161.0640  207.3960  154.6420 C   0  0  0  0  0  2  0  0  0  0  0  0
  160.4410  206.2330  148.8630 C   0  0  2  0  0  3  0  0  0  0  0  0
  162.0720  207.7900  147.9510 O   0  0  0  0  0  0  0  0  0  0  0  0
  161.2570  208.2100  150.2030 C   0  0  0  0  0  0  0  0  0  0  0  0
  161.3700  205.9630  151.1130 O   0  0  0  0  0  0  0  0  0  0  0  0
  160.3070  209.5120  153.6660 C   0  0  0  0  0  2  0  0  0  0  0  0
  161.7070  206.4110  148.0170 C   0  0  2  0  0  3  0  0  0  0  0  0
  161.5280  206.1260  152.5020 C   0  0  0  0  0  0  0  0  0  0  0  0
  161.1800  209.0460  151.3210 C   0  0  0  0  0  0  0  0  0  0  0  0
  161.7880  210.3090  151.2650 C   0  0  0  0  0  3  0  0  0  0  0  0
  161.8520  205.1140  153.1780 O   0  0  0  0  0  0  0  0  0  0  0  0
  161.9540  208.6330  149.0600 C   0  0  0  0  0  0  0  0  0  0  0  0
  162.4240  210.7130  150.1330 N   0  0  0  0  0  0  0  0  0  0  0  0
  161.4980  207.4750  153.1920 C   0  0  1  0  0  3  0  0  0  0  0  0
  160.6300  206.8400  150.2610 C   0  0  2  0  0  3  0  0  0  0  0  0
  161.9130  204.9980  144.7690 N   0  0  0  0  0  0  0  0  0  0  0  0
  161.5020  205.8900  146.6750 N   0  0  0  0  0  0  0  0  0  0  0  0
  160.6310  205.4250  144.8090 C   0  0  0  0  0  3  0  0  0  0  0  0
  162.4330  205.3050  145.9450 N   0  0  0  0  0  0  0  0  0  0  0  0
  160.3690  205.9910  146.0060 N   0  0  0  0  0  0  0  0  0  0  0  0
  160.1040  204.8780  148.9610 O   0  0  0  0  0  0  0  0  0  0  0  0
  161.2020  201.0730  147.2430 O   0  0  0  0  0  1  0  0  0  0  0  0
  160.6170  202.1530  147.9030 C   0  0  1  0  0  3  0  0  0  0  0  0
  160.0180  201.6840  149.2360 C   0  0  0  0  0  2  0  0  0  0  0  0
  161.3110  204.2180  149.2160 C   0  0  1  0  0  3  0  0  0  0  0  0
  160.9570  201.9620  150.4050 C   0  0  0  0  0  2  0  0  0  0  0  0
  161.2180  203.4660  150.5550 C   0  0  0  0  0  2  0  0  0  0  0  0
  161.6500  203.2790  148.0540 C   0  0  0  0  0  2  0  0  0  0  0  0
  1 15  2  0  0  0  0
  1 16  1  0  0  0  0
  2 17  1  0  0  0  0
  2  9  1  1  0  0  0
  4  3  1  0  0  0  0
  5 24  1  1  0  0  0
  5 18  1  0  0  0  0
  6 10  1  0  0  0  0
  6 15  1  0  0  0  0
  7 12  2  0  0  0  0
  8 11  1  0  0  0  0
  9  3  1  0  0  0  0
 10 20  1  6  0  0  0
 10  5  1  0  0  0  0
 11 14  2  0  0  0  0
 11 17  1  0  0  0  0
 12  2  1  0  0  0  0
 13 12  1  0  0  0  0
 15  7  1  0  0  0  0
 16 13  2  0  0  0  0
 17  4  1  1  0  0  0
 18  7  1  6  0  0  0
 18  8  1  0  0  0  0
 19 21  1  0  0  0  0
 19 22  2  0  0  0  0
 21 23  2  0  0  0  0
 22 20  1  0  0  0  0
 23 20  1  0  0  0  0
 26 25  1  1  0  0  0
 26 31  1  0  0  0  0
 26 27  1  0  0  0  0
 27 29  1  0  0  0  0
 28 24  1  6  0  0  0
 28 30  1  0  0  0  0
 29 30  1  0  0  0  0
 31 28  1  0  0  0  0
M  END
>  <MODEL>
2

>  <REMARK>
 VINA RESULT:      -6.6      4.007      8.610
  Name = 
  3 active torsions:
  status: ('A' for Active; 'I' for Inactive)
    1  A    between atoms: C_7  and  O_31
    2  A    between atoms: C_12  and  N_17
    3  A    between atoms: C_18  and  O_31
                            x       y       z     vdW  Elec       q    Type
                         _______ _______ _______ _____ _____    ______ ____

>  <TORSDO>
F 3

$$$$
=
 OpenBabel11072412403D

 31 36  0  0  1  0  0  0  0  0999 V2000
  161.2750  206.7730  153.9970 C   0  0  0  0  0  3  0  0  0  0  0  0
  160.9760  210.9820  154.7070 C   0  0  1  0  0  3  0  0  0  0  0  0
  160.2600  212.6280  156.3300 C   0  0  0  0  0  2  0  0  0  0  0  0
  159.3310  212.6700  155.1250 C   0  0  0  0  0  2  0  0  0  0  0  0
  161.5300  209.4000  150.6960 C   0  0  2  0  0  3  0  0  0  0  0  0
  161.1700  207.1740  151.6090 O   0  0  0  0  0  0  0  0  0  0  0  0
  161.1750  209.0390  153.1690 C   0  0  0  0  0  0  0  0  0  0  0  0
  159.8050  210.6170  151.9370 O   0  0  0  0  0  0  0  0  0  0  0  0
  161.2060  211.4530  156.1290 C   0  0  0  0  0  2  0  0  0  0  0  0
  160.8730  208.0280  150.5040 C   0  0  2  0  0  3  0  0  0  0  0  0
  159.2210  211.4500  152.9090 C   0  0  0  0  0  0  0  0  0  0  0  0
  161.1690  209.5100  154.4860 C   0  0  0  0  0  0  0  0  0  0  0  0
  161.2130  208.5820  155.5370 C   0  0  0  0  0  3  0  0  0  0  0  0
  158.2770  212.2010  152.5480 O   0  0  0  0  0  0  0  0  0  0  0  0
  161.2040  207.6580  152.9200 C   0  0  0  0  0  0  0  0  0  0  0  0
  161.2800  207.2500  155.2710 N   0  0  0  0  0  0  0  0  0  0  0  0
  159.5490  211.3640  154.3870 C   0  0  1  0  0  3  0  0  0  0  0  0
  161.1020  210.0260  152.0320 C   0  0  2  0  0  3  0  0  0  0  0  0
  162.5560  206.9530  147.5710 N   0  0  0  0  0  0  0  0  0  0  0  0
  161.3290  207.4120  149.2680 N   0  0  0  0  0  0  0  0  0  0  0  0
  161.3820  206.2910  147.4800 C   0  0  0  0  0  3  0  0  0  0  0  0
  162.4940  207.6470  148.6950 N   0  0  0  0  0  0  0  0  0  0  0  0
  160.6050  206.5780  148.5450 N   0  0  0  0  0  0  0  0  0  0  0  0
  161.2070  210.2500  149.6330 O   0  0  0  0  0  0  0  0  0  0  0  0
  160.1560  214.2620  148.4360 O   0  0  0  0  0  1  0  0  0  0  0  0
  160.4480  212.9030  148.5390 C   0  0  1  0  0  3  0  0  0  0  0  0
  161.2060  212.4380  147.2880 C   0  0  0  0  0  2  0  0  0  0  0  0
  162.0440  211.3610  149.7840 C   0  0  1  0  0  3  0  0  0  0  0  0
  162.7120  212.3960  147.5230 C   0  0  0  0  0  2  0  0  0  0  0  0
  163.0670  211.4010  148.6360 C   0  0  0  0  0  2  0  0  0  0  0  0
  161.2060  212.6420  149.8500 C   0  0  0  0  0  2  0  0  0  0  0  0
  1 16  1  0  0  0  0
  2  9  1  1  0  0  0
  4  3  1  0  0  0  0
  5 24  1  6  0  0  0
  5 18  1  0  0  0  0
  6 15  1  0  0  0  0
  7 12  2  0  0  0  0
  8 11  1  0  0  0  0
  9  3  1  0  0  0  0
 10 20  1  6  0  0  0
 10  5  1  0  0  0  0
 10  6  1  0  0  0  0
 11 17  1  0  0  0  0
 12  2  1  0  0  0  0
 12 13  1  0  0  0  0
 14 11  2  0  0  0  0
 15  7  1  0  0  0  0
 15  1  2  0  0  0  0
 16 13  2  0  0  0  0
 17  2  1  0  0  0  0
 17  4  1  6  0  0  0
 18  8  1  6  0  0  0
 18  7  1  0  0  0  0
 19 22  2  0  0  0  0
 21 19  1  0  0  0  0
 21 23  2  0  0  0  0
 22 20  1  0  0  0  0
 23 20  1  0  0  0  0
 26 25  1  6  0  0  0
 26 31  1  0  0  0  0
 27 29  1  0  0  0  0
 27 26  1  0  0  0  0
 28 24  1  6  0  0  0
 28 31  1  0  0  0  0
 29 30  1  0  0  0  0
 30 28  1  0  0  0  0
M  END
>  <MODEL>
3

>  <REMARK>
 VINA RESULT:      -5.0      2.619      6.144
  Name = 
  3 active torsions:
  status: ('A' for Active; 'I' for Inactive)
    1  A    between atoms: C_7  and  O_31
    2  A    between atoms: C_12  and  N_17
    3  A    between atoms: C_18  and  O_31
                            x       y       z     vdW  Elec       q    Type
                         _______ _______ _______ _____ _____    ______ ____

>  <TORSDO>
F 3

$$$$
=
 OpenBabel11072412403D

 31 36  0  0  1  0  0  0  0  0999 V2000
  160.7210  207.9020  156.4230 C   0  0  0  0  0  3  0  0  0  0  0  0
  160.8310  207.5750  152.1580 C   0  0  1  0  0  3  0  0  0  0  0  0
  161.7230  206.2550  150.3370 C   0  0  0  0  0  2  0  0  0  0  0  0
  162.3910  207.6220  150.3440 C   0  0  0  0  0  2  0  0  0  0  0  0
  159.6210  211.2650  154.1120 C   0  0  2  0  0  3  0  0  0  0  0  0
  160.3230  210.2840  156.2240 O   0  0  0  0  0  0  0  0  0  0  0  0
  160.4820  208.8950  154.2350 C   0  0  0  0  0  0  0  0  0  0  0  0
  161.4590  210.4910  152.6900 O   0  0  0  0  0  0  0  0  0  0  0  0
  160.8490  206.1740  151.5800 C   0  0  0  0  0  2  0  0  0  0  0  0
  160.3300  211.4860  155.4530 C   0  0  2  0  0  3  0  0  0  0  0  0
  162.1570  209.7200  151.7420 C   0  0  0  0  0  0  0  0  0  0  0  0
  160.7110  207.6450  153.6530 C   0  0  0  0  0  0  0  0  0  0  0  0
  160.9460  206.5420  154.4870 C   0  0  0  0  0  3  0  0  0  0  0  0
  162.9510  210.3180  150.9690 O   0  0  0  0  0  0  0  0  0  0  0  0
  160.5110  209.0320  155.6320 C   0  0  0  0  0  0  0  0  0  0  0  0
  160.9310  206.6910  155.8390 N   0  0  0  0  0  0  0  0  0  0  0  0
  162.1340  208.2040  151.7200 C   0  0  1  0  0  3  0  0  0  0  0  0
  160.2550  210.0930  153.3480 C   0  0  2  0  0  3  0  0  0  0  0  0
  158.1560  213.7560  157.0990 N   0  0  0  0  0  0  0  0  0  0  0  0
  159.6890  212.5560  156.2000 N   0  0  0  0  0  0  0  0  0  0  0  0
  159.3590  214.3510  157.2610 C   0  0  0  0  0  3  0  0  0  0  0  0
  158.3920  212.6400  156.4310 N   0  0  0  0  0  0  0  0  0  0  0  0
  160.3270  213.6000  156.6940 N   0  0  0  0  0  0  0  0  0  0  0  0
  159.6620  212.4310  153.3390 O   0  0  0  0  0  0  0  0  0  0  0  0
  160.2800  212.9250  149.0950 O   0  0  0  0  0  1  0  0  0  0  0  0
  160.1740  213.0440  150.4800 C   0  0  1  0  0  3  0  0  0  0  0  0
  159.6650  214.4460  150.8440 C   0  0  0  0  0  2  0  0  0  0  0  0
  158.6630  212.2670  152.3730 C   0  0  1  0  0  3  0  0  0  0  0  0
  158.1620  214.4500  151.1050 C   0  0  0  0  0  2  0  0  0  0  0  0
  157.8080  213.5430  152.2900 C   0  0  0  0  0  2  0  0  0  0  0  0
  159.2930  211.9090  151.0240 C   0  0  0  0  0  2  0  0  0  0  0  0
  2  9  1  1  0  0  0
  2 12  1  0  0  0  0
  3  4  1  0  0  0  0
  3  9  1  0  0  0  0
  5 24  1  6  0  0  0
  5 10  1  0  0  0  0
  7 15  1  0  0  0  0
 10 20  1  1  0  0  0
 10  6  1  0  0  0  0
 11  8  1  0  0  0  0
 12  7  2  0  0  0  0
 12 13  1  0  0  0  0
 13 16  2  0  0  0  0
 14 11  2  0  0  0  0
 15  6  1  0  0  0  0
 15  1  2  0  0  0  0
 16  1  1  0  0  0  0
 17  4  1  6  0  0  0
 17 11  1  0  0  0  0
 17  2  1  0  0  0  0
 18  8  1  1  0  0  0
 18  5  1  0  0  0  0
 18  7  1  0  0  0  0
 19 21  1  0  0  0  0
 20 22  1  0  0  0  0
 20 23  1  0  0  0  0
 22 19  2  0  0  0  0
 23 21  2  0  0  0  0
 26 25  1  6  0  0  0
 26 27  1  0  0  0  0
 26 31  1  0  0  0  0
 27 29  1  0  0  0  0
 28 24  1  1  0  0  0
 29 30  1  0  0  0  0
 30 28  1  0  0  0  0
 31 28  1  0  0  0  0
M  END
>  <MODEL>
4

>  <REMARK>
 VINA RESULT:      -4.4      1.768      2.329
  Name = 
  3 active torsions:
  status: ('A' for Active; 'I' for Inactive)
    1  A    between atoms: C_7  and  O_31
    2  A    between atoms: C_12  and  N_17
    3  A    between atoms: C_18  and  O_31
                            x       y       z     vdW  Elec       q    Type
                         _______ _______ _______ _____ _____    ______ ____

>  <TORSDO>
F 3

$$$$
=
 OpenBabel11072412403D

 31 36  0  0  1  0  0  0  0  0999 V2000
  161.4650  201.9860  151.5680 C   0  0  0  0  0  3  0  0  0  0  0  0
  160.4790  203.0080  147.5320 C   0  0  1  0  0  3  0  0  0  0  0  0
  160.6410  202.2410  145.2430 C   0  0  0  0  0  2  0  0  0  0  0  0
  161.5360  203.4570  145.4320 C   0  0  0  0  0  2  0  0  0  0  0  0
  160.4920  206.0020  150.6840 C   0  0  2  0  0  3  0  0  0  0  0  0
  161.4860  204.3370  152.1530 O   0  0  0  0  0  0  0  0  0  0  0  0
  160.8960  203.6370  149.9010 C   0  0  0  0  0  0  0  0  0  0  0  0
  161.7530  205.5240  148.6400 O   0  0  0  0  0  0  0  0  0  0  0  0
  160.0940  201.8660  146.6120 C   0  0  0  0  0  2  0  0  0  0  0  0
  161.5320  205.7130  151.7720 C   0  0  2  0  0  3  0  0  0  0  0  0
  162.0440  205.0210  147.3580 C   0  0  0  0  0  0  0  0  0  0  0  0
  160.7390  202.6170  148.9580 C   0  0  0  0  0  0  0  0  0  0  0  0
  160.9570  201.2890  149.3540 C   0  0  0  0  0  3  0  0  0  0  0  0
  162.7260  205.7440  146.5850 O   0  0  0  0  0  0  0  0  0  0  0  0
  161.2870  203.3230  151.2120 C   0  0  0  0  0  0  0  0  0  0  0  0
  161.2960  201.0050  150.6400 N   0  0  0  0  0  0  0  0  0  0  0  0
  161.7320  203.6000  146.9290 C   0  0  1  0  0  3  0  0  0  0  0  0
  160.6900  205.0700  149.4800 C   0  0  2  0  0  3  0  0  0  0  0  0
  161.4330  207.3180  154.9350 N   0  0  0  0  0  0  0  0  0  0  0  0
  161.3030  206.5550  152.9350 N   0  0  0  0  0  0  0  0  0  0  0  0
  160.5020  208.0080  154.2400 C   0  0  0  0  0  3  0  0  0  0  0  0
  161.9140  206.4150  154.0970 N   0  0  0  0  0  0  0  0  0  0  0  0
  160.4150  207.5290  152.9810 N   0  0  0  0  0  0  0  0  0  0  0  0
  160.5640  207.3410  150.2820 O   0  0  0  0  0  0  0  0  0  0  0  0
  163.2100  210.3670  151.8550 O   0  0  0  0  0  1  0  0  0  0  0  0
  162.1850  209.6190  151.2770 C   0  0  1  0  0  3  0  0  0  0  0  0
  161.6340  210.3540  150.0470 C   0  0  0  0  0  2  0  0  0  0  0  0
  161.8850  207.5270  149.8610 C   0  0  1  0  0  3  0  0  0  0  0  0
  162.2420  209.8230  148.7530 C   0  0  0  0  0  2  0  0  0  0  0  0
  161.9040  208.3400  148.5550 C   0  0  0  0  0  2  0  0  0  0  0  0
  162.6970  208.2040  150.9690 C   0  0  0  0  0  2  0  0  0  0  0  0
  2  9  1  6  0  0  0
  2 12  1  0  0  0  0
  3  4  1  0  0  0  0
  3  9  1  0  0  0  0
  5 24  1  6  0  0  0
  5 10  1  0  0  0  0
  7 15  2  0  0  0  0
 10  6  1  0  0  0  0
 10 20  1  1  0  0  0
 11  8  1  0  0  0  0
 12 13  2  0  0  0  0
 12  7  1  0  0  0  0
 13 16  1  0  0  0  0
 14 11  2  0  0  0  0
 15  1  1  0  0  0  0
 15  6  1  0  0  0  0
 16  1  2  0  0  0  0
 17  4  1  6  0  0  0
 17 11  1  0  0  0  0
 17  2  1  0  0  0  0
 18  8  1  1  0  0  0
 18  7  1  0  0  0  0
 18  5  1  0  0  0  0
 20 23  1  0  0  0  0
 20 22  1  0  0  0  0
 21 19  1  0  0  0  0
 22 19  2  0  0  0  0
 23 21  2  0  0  0  0
 26 25  1  6  0  0  0
 27 26  1  0  0  0  0
 28 24  1  1  0  0  0
 28 31  1  0  0  0  0
 29 27  1  0  0  0  0
 30 29  1  0  0  0  0
 30 28  1  0  0  0  0
 31 26  1  0  0  0  0
M  END
>  <MODEL>
5

>  <REMARK>
 VINA RESULT:      -4.2      3.365      5.303
  Name = 
  3 active torsions:
  status: ('A' for Active; 'I' for Inactive)
    1  A    between atoms: C_7  and  O_31
    2  A    between atoms: C_12  and  N_17
    3  A    between atoms: C_18  and  O_31
                            x       y       z     vdW  Elec       q    Type
                         _______ _______ _______ _____ _____    ______ ____

>  <TORSDO>
F 3

$$$$
=
 OpenBabel11072412403D

 31 36  0  0  1  0  0  0  0  0999 V2000
  160.3810  206.9580  156.2700 C   0  0  0  0  0  3  0  0  0  0  0  0
  160.6190  211.1180  155.2950 C   0  0  1  0  0  3  0  0  0  0  0  0
  160.0260  213.3290  156.0770 C   0  0  0  0  0  2  0  0  0  0  0  0
  159.2000  212.9910  154.8450 C   0  0  0  0  0  2  0  0  0  0  0  0
  161.2340  208.0500  152.2770 C   0  0  2  0  0  3  0  0  0  0  0  0
  160.5040  206.4050  153.9140 O   0  0  0  0  0  0  0  0  0  0  0  0
  160.6570  208.7200  154.6420 C   0  0  0  0  0  0  0  0  0  0  0  0
  159.6100  209.8210  152.7500 O   0  0  0  0  0  0  0  0  0  0  0  0
  160.8110  212.0800  156.4510 C   0  0  0  0  0  2  0  0  0  0  0  0
  160.4080  206.7860  152.5410 C   0  0  2  0  0  3  0  0  0  0  0  0
  159.0800  211.0220  153.2580 C   0  0  0  0  0  0  0  0  0  0  0  0
  160.6220  209.6640  155.6710 C   0  0  0  0  0  0  0  0  0  0  0  0
  160.4610  209.2200  156.9920 C   0  0  0  0  0  3  0  0  0  0  0  0
  158.2770  211.6630  152.5300 O   0  0  0  0  0  0  0  0  0  0  0  0
  160.5100  207.3550  154.9380 C   0  0  0  0  0  0  0  0  0  0  0  0
  160.3610  207.8910  157.2600 N   0  0  0  0  0  0  0  0  0  0  0  0
  159.2860  211.4860  154.6870 C   0  0  1  0  0  3  0  0  0  0  0  0
  160.8020  209.1870  153.2160 C   0  0  2  0  0  3  0  0  0  0  0  0
  161.0980  204.4320  149.9760 N   0  0  0  0  0  0  0  0  0  0  0  0
  160.8610  205.6930  151.6940 N   0  0  0  0  0  0  0  0  0  0  0  0
  161.7420  203.8920  151.0340 C   0  0  0  0  0  3  0  0  0  0  0  0
  160.5540  205.5530  150.4180 N   0  0  0  0  0  0  0  0  0  0  0  0
  161.5940  204.6810  152.1190 N   0  0  0  0  0  0  0  0  0  0  0  0
  161.1090  208.4460  150.9410 O   0  0  0  0  0  0  0  0  0  0  0  0
  162.3230  211.6760  148.3470 O   0  0  0  0  0  1  0  0  0  0  0  0
  161.7490  210.5650  148.9640 C   0  0  1  0  0  3  0  0  0  0  0  0
  161.5080  209.4610  147.9250 C   0  0  0  0  0  2  0  0  0  0  0  0
  162.4200  208.6460  150.4930 C   0  0  1  0  0  3  0  0  0  0  0  0
  162.6240  208.4220  147.9370 C   0  0  0  0  0  2  0  0  0  0  0  0
  162.7080  207.7210  149.2990 C   0  0  0  0  0  2  0  0  0  0  0  0
  162.6320  210.1220  150.1400 C   0  0  0  0  0  2  0  0  0  0  0  0
  1 16  1  0  0  0  0
  2 12  1  0  0  0  0
  2  9  1  1  0  0  0
  3  9  1  0  0  0  0
  4  3  1  0  0  0  0
  5 24  1  6  0  0  0
  5 10  1  0  0  0  0
  5 18  1  0  0  0  0
  6 15  1  0  0  0  0
  7 15  1  0  0  0  0
  7 12  2  0  0  0  0
  8 11  1  0  0  0  0
 10 20  1  6  0  0  0
 10  6  1  0  0  0  0
 11 17  1  0  0  0  0
 12 13  1  0  0  0  0
 13 16  2  0  0  0  0
 14 11  2  0  0  0  0
 15  1  2  0  0  0  0
 17  4  1  6  0  0  0
 17  2  1  0  0  0  0
 18  8  1  6  0  0  0
 18  7  1  0  0  0  0
 19 22  2  0  0  0  0
 19 21  1  0  0  0  0
 20 23  1  0  0  0  0
 21 23  2  0  0  0  0
 22 20  1  0  0  0  0
 26 25  1  6  0  0  0
 26 31  1  0  0  0  0
 27 29  1  0  0  0  0
 27 26  1  0  0  0  0
 28 24  1  6  0  0  0
 29 30  1  0  0  0  0
 30 28  1  0  0  0  0
 31 28  1  0  0  0  0
M  END
>  <MODEL>
6

>  <REMARK>
 VINA RESULT:      -4.1      2.041      6.352
  Name = 
  3 active torsions:
  status: ('A' for Active; 'I' for Inactive)
    1  A    between atoms: C_7  and  O_31
    2  A    between atoms: C_12  and  N_17
    3  A    between atoms: C_18  and  O_31
                            x       y       z     vdW  Elec       q    Type
                         _______ _______ _______ _____ _____    ______ ____

>  <TORSDO>
F 3

$$$$
