=
 OpenBabel11072414153D

 34 37  0  0  1  0  0  0  0  0999 V2000
  161.1210  207.6400  155.9270 C   0  0  0  0  0  3  0  0  0  0  0  0
  160.7740  207.4360  154.5140 C   0  0  0  0  0  3  0  0  0  0  0  0
  161.3080  209.8170  154.0290 C   0  0  1  0  0  3  0  0  0  0  0  0
  161.7980  209.8760  155.4510 C   0  0  0  0  0  0  0  0  0  0  0  0
  160.8810  208.4250  153.6170 C   0  0  0  0  0  0  0  0  0  0  0  0
  161.6000  208.7720  156.3410 N   0  0  0  0  0  0  0  0  0  0  0  0
  162.3670  210.9180  155.8700 O   0  0  0  0  0  0  0  0  0  0  0  0
  160.8720  211.4990  151.7640 O   0  0  0  0  0  0  0  0  0  0  0  0
  160.1960  210.7440  153.8660 N   0  0  0  0  0  2  0  0  0  0  0  0
  160.0130  211.5350  152.6870 C   0  0  0  0  0  0  0  0  0  0  0  0
  157.4890  213.9570  151.2620 C   0  0  0  0  0  3  0  0  0  0  0  0
  158.8310  212.4030  152.5580 C   0  0  0  0  0  0  0  0  0  0  0  0
  157.9140  212.5100  153.6130 C   0  0  0  0  0  3  0  0  0  0  0  0
  158.6090  213.1310  151.3810 C   0  0  0  0  0  3  0  0  0  0  0  0
  156.5810  214.0600  152.3180 C   0  0  0  0  0  3  0  0  0  0  0  0
  156.7860  213.3360  153.5010 C   0  0  0  0  0  0  0  0  0  0  0  0
  155.8230  213.4350  154.6110 C   0  0  0  0  0  0  0  0  0  0  0  0
  155.9320  212.5710  155.7400 N   0  0  0  0  0  1  0  0  0  0  0  0
  154.8970  214.2870  154.5760 O   0  0  0  0  0  0  0  0  0  0  0  0
  160.5590  208.1950  152.2400 N   0  0  0  0  0  2  0  0  0  0  0  0
  161.5450  207.9470  151.1930 C   0  0  0  0  0  2  0  0  0  0  0  0
  160.8190  202.8490  152.0740 Cl  0  0  0  0  0  0  0  0  0  0  0  0
  161.3540  205.0950  148.7760 C   0  0  0  0  0  0  0  0  0  0  0  0
  161.4750  206.3450  149.3040 N   0  0  0  0  0  0  0  0  0  0  0  0
  161.3940  206.5670  150.6450 C   0  0  0  0  0  0  0  0  0  0  0  0
  161.0710  204.2070  150.9990 C   0  0  0  0  0  0  0  0  0  0  0  0
  161.1500  204.0010  149.6210 C   0  0  0  0  0  3  0  0  0  0  0  0
  161.4310  204.8890  147.3650 N   0  0  0  0  0  2  0  0  0  0  0  0
  161.1950  205.4950  151.5180 C   0  0  0  0  0  3  0  0  0  0  0  0
  162.5890  205.6760  145.4950 N   0  0  0  0  0  2  0  0  0  0  0  0
  160.5760  205.8720  145.3650 C   0  0  0  0  0  0  0  0  0  0  0  0
  161.5870  205.9830  146.4190 C   0  0  1  0  0  3  0  0  0  0  0  0
  161.6750  205.5620  144.4290 N   0  0  0  0  0  2  0  0  0  0  0  0
  159.3260  205.9880  145.2850 O   0  0  0  0  0  0  0  0  0  0  0  0
  1  6  2  0  0  0  0
  2  1  1  0  0  0  0
  3  9  1  1  0  0  0
  3  4  1  0  0  0  0
  4  7  2  0  0  0  0
  4  6  1  0  0  0  0
  5  3  1  0  0  0  0
  5  2  2  0  0  0  0
  8 10  2  0  0  0  0
 10  9  1  0  0  0  0
 11 14  2  0  0  0  0
 11 15  1  0  0  0  0
 12 10  1  0  0  0  0
 12 13  2  0  0  0  0
 14 12  1  0  0  0  0
 15 16  2  0  0  0  0
 16 13  1  0  0  0  0
 16 17  1  0  0  0  0
 17 18  1  0  0  0  0
 19 17  2  0  0  0  0
 20  5  1  0  0  0  0
 21 20  1  0  0  0  0
 23 24  2  0  0  0  0
 23 27  1  0  0  0  0
 24 25  1  0  0  0  0
 25 21  1  0  0  0  0
 25 29  2  0  0  0  0
 26 29  1  0  0  0  0
 26 22  1  0  0  0  0
 27 26  2  0  0  0  0
 28 23  1  0  0  0  0
 30 32  1  0  0  0  0
 31 32  1  0  0  0  0
 32 28  1  1  0  0  0
 33 31  1  0  0  0  0
 33 30  1  0  0  0  0
 34 31  2  0  0  0  0
M  END
>  <MODEL>
1

>  <REMARK>
 VINA RESULT:      -8.2      0.000      0.000
  Name = 
  7 active torsions:
  status: ('A' for Active; 'I' for Inactive)
    1  A    between atoms: C_7  and  N_23
    2  A    between atoms: N_8  and  C_12
    3  A    between atoms: N_8  and  C_30
    4  A    between atoms: C_10  and  C_25
    5  A    between atoms: C_12  and  C_18
    6  A    between atoms: C_14  and  N_17
    7  A    between atoms: C_16  and  C_29
                            x       y       z     vdW  Elec       q    Type
                         _______ _______ _______ _____ _____    ______ ____

>  <TORSDO>
F 7

$$$$
=
 OpenBabel11072414153D

 34 37  0  0  1  0  0  0  0  0999 V2000
  161.2300  207.7340  155.9530 C   0  0  0  0  0  3  0  0  0  0  0  0
  160.8400  207.5060  154.5550 C   0  0  0  0  0  3  0  0  0  0  0  0
  161.3730  209.8750  154.0100 C   0  0  1  0  0  3  0  0  0  0  0  0
  161.9050  209.9570  155.4160 C   0  0  0  0  0  0  0  0  0  0  0  0
  160.9260  208.4780  153.6370 C   0  0  0  0  0  0  0  0  0  0  0  0
  161.7270  208.8710  156.3310 N   0  0  0  0  0  0  0  0  0  0  0  0
  162.4910  211.0030  155.7990 O   0  0  0  0  0  0  0  0  0  0  0  0
  160.8960  211.5390  151.7400 O   0  0  0  0  0  0  0  0  0  0  0  0
  160.2620  210.8050  153.8630 N   0  0  0  0  0  2  0  0  0  0  0  0
  160.0570  211.5870  152.6810 C   0  0  0  0  0  0  0  0  0  0  0  0
  157.0690  213.7030  153.6090 C   0  0  0  0  0  3  0  0  0  0  0  0
  158.8760  212.4580  152.5690 C   0  0  0  0  0  0  0  0  0  0  0  0
  158.4220  212.8760  151.3100 C   0  0  0  0  0  3  0  0  0  0  0  0
  158.1920  212.8800  153.7170 C   0  0  0  0  0  3  0  0  0  0  0  0
  156.6220  214.1130  152.3510 C   0  0  0  0  0  3  0  0  0  0  0  0
  157.2970  213.7040  151.1920 C   0  0  0  0  0  0  0  0  0  0  0  0
  156.8330  214.1450  149.8650 C   0  0  0  0  0  0  0  0  0  0  0  0
  157.7720  214.4530  148.8380 N   0  0  0  0  0  1  0  0  0  0  0  0
  155.6010  214.2510  149.6240 O   0  0  0  0  0  0  0  0  0  0  0  0
  160.5630  208.2240  152.2740 N   0  0  0  0  0  2  0  0  0  0  0  0
  161.5180  207.9860  151.1970 C   0  0  0  0  0  2  0  0  0  0  0  0
  160.7770  202.8950  152.1060 Cl  0  0  0  0  0  0  0  0  0  0  0  0
  161.3320  205.1200  148.7970 C   0  0  0  0  0  0  0  0  0  0  0  0
  161.4530  206.3730  149.3180 N   0  0  0  0  0  0  0  0  0  0  0  0
  161.3660  206.6030  150.6570 C   0  0  0  0  0  0  0  0  0  0  0  0
  161.0370  204.2460  151.0240 C   0  0  0  0  0  0  0  0  0  0  0  0
  161.1220  204.0310  149.6470 C   0  0  0  0  0  3  0  0  0  0  0  0
  161.4150  204.9050  147.3880 N   0  0  0  0  0  2  0  0  0  0  0  0
  161.1620  205.5370  151.5360 C   0  0  0  0  0  3  0  0  0  0  0  0
  162.5980  205.6870  145.5320 N   0  0  0  0  0  2  0  0  0  0  0  0
  160.5860  205.8640  145.3650 C   0  0  0  0  0  0  0  0  0  0  0  0
  161.5780  205.9930  146.4350 C   0  0  1  0  0  3  0  0  0  0  0  0
  161.7050  205.5570  144.4510 N   0  0  0  0  0  2  0  0  0  0  0  0
  159.3370  205.9680  145.2620 O   0  0  0  0  0  0  0  0  0  0  0  0
  1  6  2  0  0  0  0
  2  1  1  0  0  0  0
  3  9  1  1  0  0  0
  3  4  1  0  0  0  0
  4  7  2  0  0  0  0
  4  6  1  0  0  0  0
  5  3  1  0  0  0  0
  5  2  2  0  0  0  0
  8 10  2  0  0  0  0
 10  9  1  0  0  0  0
 11 14  1  0  0  0  0
 12 10  1  0  0  0  0
 12 14  2  0  0  0  0
 13 12  1  0  0  0  0
 15 11  2  0  0  0  0
 16 13  2  0  0  0  0
 16 15  1  0  0  0  0
 17 16  1  0  0  0  0
 18 17  1  0  0  0  0
 19 17  2  0  0  0  0
 20  5  1  0  0  0  0
 21 20  1  0  0  0  0
 23 24  2  0  0  0  0
 23 27  1  0  0  0  0
 24 25  1  0  0  0  0
 25 21  1  0  0  0  0
 25 29  2  0  0  0  0
 26 29  1  0  0  0  0
 26 22  1  0  0  0  0
 27 26  2  0  0  0  0
 28 23  1  0  0  0  0
 30 32  1  0  0  0  0
 31 32  1  0  0  0  0
 32 28  1  1  0  0  0
 33 31  1  0  0  0  0
 33 30  1  0  0  0  0
 34 31  2  0  0  0  0
M  END
>  <MODEL>
2

>  <REMARK>
 VINA RESULT:      -8.0      1.467      1.930
  Name = 
  7 active torsions:
  status: ('A' for Active; 'I' for Inactive)
    1  A    between atoms: C_7  and  N_23
    2  A    between atoms: N_8  and  C_12
    3  A    between atoms: N_8  and  C_30
    4  A    between atoms: C_10  and  C_25
    5  A    between atoms: C_12  and  C_18
    6  A    between atoms: C_14  and  N_17
    7  A    between atoms: C_16  and  C_29
                            x       y       z     vdW  Elec       q    Type
                         _______ _______ _______ _____ _____    ______ ____

>  <TORSDO>
F 7

$$$$
=
 OpenBabel11072414153D

 34 37  0  0  1  0  0  0  0  0999 V2000
  162.9100  213.5430  147.9760 C   0  0  0  0  0  3  0  0  0  0  0  0
  162.9230  212.0930  148.2170 C   0  0  0  0  0  3  0  0  0  0  0  0
  160.8100  212.2810  149.5180 C   0  0  1  0  0  3  0  0  0  0  0  0
  160.8000  213.7190  149.0730 C   0  0  0  0  0  0  0  0  0  0  0  0
  161.9440  211.4890  148.9050 C   0  0  0  0  0  0  0  0  0  0  0  0
  161.9170  214.2770  148.3720 N   0  0  0  0  0  0  0  0  0  0  0  0
  159.8080  214.4470  149.3420 O   0  0  0  0  0  0  0  0  0  0  0  0
  158.6160  212.5570  151.3230 O   0  0  0  0  0  0  0  0  0  0  0  0
  160.8990  212.2290  150.9710 N   0  0  0  0  0  2  0  0  0  0  0  0
  159.7530  212.3380  151.8220 C   0  0  0  0  0  0  0  0  0  0  0  0
  159.2480  212.8440  155.5320 C   0  0  0  0  0  3  0  0  0  0  0  0
  159.9040  212.2100  153.2810 C   0  0  0  0  0  0  0  0  0  0  0  0
  160.8550  211.3310  153.8190 C   0  0  0  0  0  3  0  0  0  0  0  0
  159.1010  212.9640  154.1480 C   0  0  0  0  0  3  0  0  0  0  0  0
  160.2000  211.9680  156.0600 C   0  0  0  0  0  3  0  0  0  0  0  0
  161.0080  211.2040  155.2070 C   0  0  0  0  0  0  0  0  0  0  0  0
  162.0040  210.2710  155.7630 C   0  0  0  0  0  0  0  0  0  0  0  0
  161.6990  208.8850  155.8980 N   0  0  0  0  0  1  0  0  0  0  0  0
  163.1360  210.6890  156.1220 O   0  0  0  0  0  0  0  0  0  0  0  0
  161.9680  210.0710  149.1070 N   0  0  0  0  0  2  0  0  0  0  0  0
  162.0730  209.4260  150.4110 C   0  0  0  0  0  2  0  0  0  0  0  0
  160.9350  204.9080  152.7760 Cl  0  0  0  0  0  0  0  0  0  0  0  0
  161.5510  206.0170  148.9550 C   0  0  0  0  0  0  0  0  0  0  0  0
  161.7990  207.3500  149.0860 N   0  0  0  0  0  0  0  0  0  0  0  0
  161.7830  207.9650  150.3000 C   0  0  0  0  0  0  0  0  0  0  0  0
  161.2680  205.8570  151.3440 C   0  0  0  0  0  0  0  0  0  0  0  0
  161.2820  205.2460  150.0890 C   0  0  0  0  0  3  0  0  0  0  0  0
  161.5620  205.3960  147.6690 N   0  0  0  0  0  2  0  0  0  0  0  0
  161.5220  207.2240  151.4550 C   0  0  0  0  0  3  0  0  0  0  0  0
  162.7040  205.4720  145.6330 N   0  0  0  0  0  2  0  0  0  0  0  0
  160.7170  205.8350  145.4800 C   0  0  0  0  0  0  0  0  0  0  0  0
  161.7810  206.1420  146.4380 C   0  0  1  0  0  3  0  0  0  0  0  0
  161.7370  205.1480  144.6620 N   0  0  0  0  0  2  0  0  0  0  0  0
  159.4810  206.0540  145.3880 O   0  0  0  0  0  0  0  0  0  0  0  0
  1  2  1  0  0  0  0
  1  6  2  0  0  0  0
  2  5  2  0  0  0  0
  3  9  1  1  0  0  0
  4  7  2  0  0  0  0
  4  3  1  0  0  0  0
  5 20  1  0  0  0  0
  5  3  1  0  0  0  0
  6  4  1  0  0  0  0
  8 10  2  0  0  0  0
  9 10  1  0  0  0  0
 10 12  1  0  0  0  0
 11 15  1  0  0  0  0
 12 13  2  0  0  0  0
 12 14  1  0  0  0  0
 13 16  1  0  0  0  0
 14 11  2  0  0  0  0
 16 17  1  0  0  0  0
 16 15  2  0  0  0  0
 17 18  1  0  0  0  0
 17 19  2  0  0  0  0
 20 21  1  0  0  0  0
 23 24  2  0  0  0  0
 23 27  1  0  0  0  0
 24 25  1  0  0  0  0
 25 21  1  0  0  0  0
 25 29  2  0  0  0  0
 26 29  1  0  0  0  0
 26 22  1  0  0  0  0
 27 26  2  0  0  0  0
 28 23  1  0  0  0  0
 30 32  1  0  0  0  0
 31 32  1  0  0  0  0
 32 28  1  1  0  0  0
 33 31  1  0  0  0  0
 33 30  1  0  0  0  0
 34 31  2  0  0  0  0
M  END
>  <MODEL>
3

>  <REMARK>
 VINA RESULT:      -7.2      2.575      4.766
  Name = 
  7 active torsions:
  status: ('A' for Active; 'I' for Inactive)
    1  A    between atoms: C_7  and  N_23
    2  A    between atoms: N_8  and  C_12
    3  A    between atoms: N_8  and  C_30
    4  A    between atoms: C_10  and  C_25
    5  A    between atoms: C_12  and  C_18
    6  A    between atoms: C_14  and  N_17
    7  A    between atoms: C_16  and  C_29
                            x       y       z     vdW  Elec       q    Type
                         _______ _______ _______ _____ _____    ______ ____

>  <TORSDO>
F 7

$$$$
=
 OpenBabel11072414153D

 34 37  0  0  1  0  0  0  0  0999 V2000
  160.0970  207.3470  156.9920 C   0  0  0  0  0  3  0  0  0  0  0  0
  160.0810  206.7890  155.6330 C   0  0  0  0  0  3  0  0  0  0  0  0
  161.3650  208.7520  154.8030 C   0  0  1  0  0  3  0  0  0  0  0  0
  161.4700  209.1490  156.2510 C   0  0  0  0  0  0  0  0  0  0  0  0
  160.6860  207.4130  154.6130 C   0  0  0  0  0  0  0  0  0  0  0  0
  160.7500  208.4340  157.2610 N   0  0  0  0  0  0  0  0  0  0  0  0
  162.1800  210.1370  156.5750 O   0  0  0  0  0  0  0  0  0  0  0  0
  162.4180  210.3320  152.6700 O   0  0  0  0  0  0  0  0  0  0  0  0
  160.6370  209.7820  154.0750 N   0  0  0  0  0  2  0  0  0  0  0  0
  161.2110  210.5170  152.9880 C   0  0  0  0  0  0  0  0  0  0  0  0
  158.4240  212.9030  152.0870 C   0  0  0  0  0  3  0  0  0  0  0  0
  160.3980  211.4980  152.2500 C   0  0  0  0  0  0  0  0  0  0  0  0
  160.8190  211.9650  150.9970 C   0  0  0  0  0  3  0  0  0  0  0  0
  159.1960  211.9750  152.7900 C   0  0  0  0  0  3  0  0  0  0  0  0
  158.8500  213.3610  150.8380 C   0  0  0  0  0  3  0  0  0  0  0  0
  160.0510  212.8980  150.2850 C   0  0  0  0  0  0  0  0  0  0  0  0
  160.5070  213.3890  148.9730 C   0  0  0  0  0  0  0  0  0  0  0  0
  159.5840  213.5320  147.8960 N   0  0  0  0  0  1  0  0  0  0  0  0
  161.7160  213.6920  148.7910 O   0  0  0  0  0  0  0  0  0  0  0  0
  160.6770  206.8370  153.3010 N   0  0  0  0  0  2  0  0  0  0  0  0
  161.8440  206.2530  152.6500 C   0  0  0  0  0  2  0  0  0  0  0  0
  161.6060  209.1280  148.2950 Cl  0  0  0  0  0  0  0  0  0  0  0  0
  161.3690  205.1900  149.0920 C   0  0  0  0  0  0  0  0  0  0  0  0
  161.5170  205.1680  150.4460 N   0  0  0  0  0  0  0  0  0  0  0  0
  161.7000  206.3090  151.1640 C   0  0  0  0  0  0  0  0  0  0  0  0
  161.5730  207.5910  149.1300 C   0  0  0  0  0  0  0  0  0  0  0  0
  161.3940  206.4090  148.4100 C   0  0  0  0  0  3  0  0  0  0  0  0
  161.1900  203.9780  148.3580 N   0  0  0  0  0  2  0  0  0  0  0  0
  161.7250  207.5460  150.5160 C   0  0  0  0  0  3  0  0  0  0  0  0
  160.0560  202.4950  149.7630 N   0  0  0  0  0  2  0  0  0  0  0  0
  160.7260  201.6570  148.0440 C   0  0  0  0  0  0  0  0  0  0  0  0
  161.2060  202.6670  148.9900 C   0  0  1  0  0  3  0  0  0  0  0  0
  159.5350  201.5080  148.9040 N   0  0  0  0  0  2  0  0  0  0  0  0
  161.1390  201.1410  146.9730 O   0  0  0  0  0  0  0  0  0  0  0  0
  1  6  2  0  0  0  0
  2  1  1  0  0  0  0
  3  9  1  6  0  0  0
  3  4  1  0  0  0  0
  4  7  2  0  0  0  0
  4  6  1  0  0  0  0
  5  3  1  0  0  0  0
  5  2  2  0  0  0  0
  8 10  2  0  0  0  0
 10  9  1  0  0  0  0
 11 14  1  0  0  0  0
 12 14  2  0  0  0  0
 12 10  1  0  0  0  0
 13 12  1  0  0  0  0
 15 11  2  0  0  0  0
 16 15  1  0  0  0  0
 16 13  2  0  0  0  0
 17 16  1  0  0  0  0
 18 17  1  0  0  0  0
 19 17  2  0  0  0  0
 20  5  1  0  0  0  0
 21 20  1  0  0  0  0
 22 26  1  0  0  0  0
 23 24  2  0  0  0  0
 24 25  1  0  0  0  0
 25 21  1  0  0  0  0
 26 29  1  0  0  0  0
 27 23  1  0  0  0  0
 27 26  2  0  0  0  0
 28 23  1  0  0  0  0
 29 25  2  0  0  0  0
 31 33  1  0  0  0  0
 31 32  1  0  0  0  0
 32 28  1  6  0  0  0
 32 30  1  0  0  0  0
 33 30  1  0  0  0  0
 34 31  2  0  0  0  0
M  END
>  <MODEL>
4

>  <REMARK>
 VINA RESULT:      -7.2      2.956      3.942
  Name = 
  7 active torsions:
  status: ('A' for Active; 'I' for Inactive)
    1  A    between atoms: C_7  and  N_23
    2  A    between atoms: N_8  and  C_12
    3  A    between atoms: N_8  and  C_30
    4  A    between atoms: C_10  and  C_25
    5  A    between atoms: C_12  and  C_18
    6  A    between atoms: C_14  and  N_17
    7  A    between atoms: C_16  and  C_29
                            x       y       z     vdW  Elec       q    Type
                         _______ _______ _______ _____ _____    ______ ____

>  <TORSDO>
F 7

$$$$
=
 OpenBabel11072414153D

 34 37  0  0  1  0  0  0  0  0999 V2000
  159.9060  207.2720  155.6440 C   0  0  0  0  0  3  0  0  0  0  0  0
  160.3770  206.8140  154.3290 C   0  0  0  0  0  3  0  0  0  0  0  0
  161.6520  208.9310  154.0380 C   0  0  1  0  0  3  0  0  0  0  0  0
  161.2540  209.2300  155.4580 C   0  0  0  0  0  0  0  0  0  0  0  0
  161.2070  207.5570  153.5850 C   0  0  0  0  0  0  0  0  0  0  0  0
  160.3280  208.3880  156.1530 N   0  0  0  0  0  0  0  0  0  0  0  0
  161.7220  210.2470  156.0340 O   0  0  0  0  0  0  0  0  0  0  0  0
  163.0130  210.1640  151.8520 O   0  0  0  0  0  0  0  0  0  0  0  0
  161.0910  209.9470  153.1580 N   0  0  0  0  0  2  0  0  0  0  0  0
  161.8140  210.5020  152.0540 C   0  0  0  0  0  0  0  0  0  0  0  0
  159.5060  213.2100  150.7860 C   0  0  0  0  0  3  0  0  0  0  0  0
  161.1650  211.4770  151.1630 C   0  0  0  0  0  0  0  0  0  0  0  0
  161.5810  211.6030  149.8300 C   0  0  0  0  0  3  0  0  0  0  0  0
  160.1240  212.2890  151.6340 C   0  0  0  0  0  3  0  0  0  0  0  0
  159.9260  213.3280  149.4590 C   0  0  0  0  0  3  0  0  0  0  0  0
  160.9680  212.5270  148.9720 C   0  0  0  0  0  0  0  0  0  0  0  0
  161.4180  212.6590  147.5760 C   0  0  0  0  0  0  0  0  0  0  0  0
  160.4740  212.6430  146.5070 N   0  0  0  0  0  1  0  0  0  0  0  0
  162.6430  212.7900  147.3110 O   0  0  0  0  0  0  0  0  0  0  0  0
  161.6700  207.0780  152.3160 N   0  0  0  0  0  2  0  0  0  0  0  0
  160.8720  207.0760  151.0950 C   0  0  0  0  0  2  0  0  0  0  0  0
  160.8040  201.8610  151.3900 Cl  0  0  0  0  0  0  0  0  0  0  0  0
  161.3340  204.5120  148.4070 C   0  0  0  0  0  0  0  0  0  0  0  0
  161.2210  205.7000  149.0640 N   0  0  0  0  0  0  0  0  0  0  0  0
  160.9760  205.7580  150.4020 C   0  0  0  0  0  0  0  0  0  0  0  0
  160.9640  203.3510  150.4870 C   0  0  0  0  0  0  0  0  0  0  0  0
  161.2070  203.3130  149.1130 C   0  0  0  0  0  3  0  0  0  0  0  0
  161.5790  204.4760  147.0010 N   0  0  0  0  0  2  0  0  0  0  0  0
  160.8490  204.5790  151.1390 C   0  0  0  0  0  3  0  0  0  0  0  0
  162.5860  205.4900  145.1520 N   0  0  0  0  0  2  0  0  0  0  0  0
  160.5720  205.7050  145.2190 C   0  0  0  0  0  0  0  0  0  0  0  0
  161.6690  205.6810  146.1880 C   0  0  1  0  0  3  0  0  0  0  0  0
  161.5840  205.5130  144.1620 N   0  0  0  0  0  2  0  0  0  0  0  0
  159.3210  205.8320  145.2610 O   0  0  0  0  0  0  0  0  0  0  0  0
  1  6  2  0  0  0  0
  2  1  1  0  0  0  0
  3  9  1  6  0  0  0
  3  4  1  0  0  0  0
  4  7  2  0  0  0  0
  4  6  1  0  0  0  0
  5  3  1  0  0  0  0
  5  2  2  0  0  0  0
  8 10  2  0  0  0  0
 10  9  1  0  0  0  0
 11 14  1  0  0  0  0
 12 14  2  0  0  0  0
 12 10  1  0  0  0  0
 13 12  1  0  0  0  0
 15 11  2  0  0  0  0
 16 15  1  0  0  0  0
 16 13  2  0  0  0  0
 17 16  1  0  0  0  0
 18 17  1  0  0  0  0
 19 17  2  0  0  0  0
 20  5  1  0  0  0  0
 21 20  1  0  0  0  0
 23 24  2  0  0  0  0
 23 27  1  0  0  0  0
 24 25  1  0  0  0  0
 25 21  1  0  0  0  0
 25 29  2  0  0  0  0
 26 29  1  0  0  0  0
 26 22  1  0  0  0  0
 27 26  2  0  0  0  0
 28 23  1  0  0  0  0
 30 32  1  0  0  0  0
 31 34  2  0  0  0  0
 31 32  1  0  0  0  0
 32 28  1  1  0  0  0
 33 30  1  0  0  0  0
 33 31  1  0  0  0  0
M  END
>  <MODEL>
5

>  <REMARK>
 VINA RESULT:      -7.1      2.433      3.584
  Name = 
  7 active torsions:
  status: ('A' for Active; 'I' for Inactive)
    1  A    between atoms: C_7  and  N_23
    2  A    between atoms: N_8  and  C_12
    3  A    between atoms: N_8  and  C_30
    4  A    between atoms: C_10  and  C_25
    5  A    between atoms: C_12  and  C_18
    6  A    between atoms: C_14  and  N_17
    7  A    between atoms: C_16  and  C_29
                            x       y       z     vdW  Elec       q    Type
                         _______ _______ _______ _____ _____    ______ ____

>  <TORSDO>
F 7

$$$$
=
 OpenBabel11072414153D

 34 37  0  0  1  0  0  0  0  0999 V2000
  160.6960  204.5540  151.5800 C   0  0  0  0  0  3  0  0  0  0  0  0
  160.7370  205.3430  150.3400 C   0  0  0  0  0  3  0  0  0  0  0  0
  161.6990  207.2690  151.5880 C   0  0  1  0  0  3  0  0  0  0  0  0
  161.7710  206.3260  152.7590 C   0  0  0  0  0  0  0  0  0  0  0  0
  161.2240  206.5910  150.3210 C   0  0  0  0  0  0  0  0  0  0  0  0
  161.1850  205.0220  152.6860 N   0  0  0  0  0  0  0  0  0  0  0  0
  162.3320  206.6960  153.8230 O   0  0  0  0  0  0  0  0  0  0  0  0
  162.5180  209.9600  152.0740 O   0  0  0  0  0  0  0  0  0  0  0  0
  160.8120  208.3760  151.9180 N   0  0  0  0  0  2  0  0  0  0  0  0
  161.2820  209.7140  152.1150 C   0  0  0  0  0  0  0  0  0  0  0  0
  159.4460  213.0060  151.8720 C   0  0  0  0  0  3  0  0  0  0  0  0
  160.3240  210.8000  152.3800 C   0  0  0  0  0  0  0  0  0  0  0  0
  159.3740  210.6710  153.4030 C   0  0  0  0  0  3  0  0  0  0  0  0
  160.3520  211.9750  151.6150 C   0  0  0  0  0  3  0  0  0  0  0  0
  158.5030  212.8700  152.8940 C   0  0  0  0  0  3  0  0  0  0  0  0
  158.4590  211.7010  153.6650 C   0  0  0  0  0  0  0  0  0  0  0  0
  157.4580  211.5520  154.7360 C   0  0  0  0  0  0  0  0  0  0  0  0
  156.1830  212.1790  154.6250 N   0  0  0  0  0  1  0  0  0  0  0  0
  157.7190  210.8660  155.7600 O   0  0  0  0  0  0  0  0  0  0  0  0
  161.2760  207.3310  149.0960 N   0  0  0  0  0  2  0  0  0  0  0  0
  162.3420  207.2130  148.1060 C   0  0  0  0  0  2  0  0  0  0  0  0
  161.5590  205.8290  143.1300 Cl  0  0  0  0  0  0  0  0  0  0  0  0
  161.4580  203.8800  146.6500 C   0  0  0  0  0  0  0  0  0  0  0  0
  161.7660  204.8730  147.5300 N   0  0  0  0  0  0  0  0  0  0  0  0
  162.0210  206.1430  147.1140 C   0  0  0  0  0  0  0  0  0  0  0  0
  161.6410  205.4570  144.8380 C   0  0  0  0  0  0  0  0  0  0  0  0
  161.3900  204.1590  145.2830 C   0  0  0  0  0  3  0  0  0  0  0  0
  161.2050  202.5510  147.1090 N   0  0  0  0  0  2  0  0  0  0  0  0
  161.9580  206.4590  145.7560 C   0  0  0  0  0  3  0  0  0  0  0  0
  160.0710  202.3190  149.1390 N   0  0  0  0  0  2  0  0  0  0  0  0
  161.2020  200.7150  148.6360 C   0  0  0  0  0  0  0  0  0  0  0  0
  161.3090  202.1710  148.5110 C   0  0  1  0  0  3  0  0  0  0  0  0
  159.9030  200.9310  149.3040 N   0  0  0  0  0  2  0  0  0  0  0  0
  161.9010  199.7190  148.3170 O   0  0  0  0  0  0  0  0  0  0  0  0
  1  6  2  0  0  0  0
  2  1  1  0  0  0  0
  3  9  1  1  0  0  0
  3  4  1  0  0  0  0
  4  7  2  0  0  0  0
  5  2  2  0  0  0  0
  5  3  1  0  0  0  0
  6  4  1  0  0  0  0
  8 10  2  0  0  0  0
  9 10  1  0  0  0  0
 10 12  1  0  0  0  0
 11 15  1  0  0  0  0
 12 13  2  0  0  0  0
 13 16  1  0  0  0  0
 14 11  2  0  0  0  0
 14 12  1  0  0  0  0
 15 16  2  0  0  0  0
 16 17  1  0  0  0  0
 17 19  2  0  0  0  0
 18 17  1  0  0  0  0
 20  5  1  0  0  0  0
 21 20  1  0  0  0  0
 22 26  1  0  0  0  0
 23 28  1  0  0  0  0
 23 24  2  0  0  0  0
 25 24  1  0  0  0  0
 25 21  1  0  0  0  0
 26 27  2  0  0  0  0
 26 29  1  0  0  0  0
 27 23  1  0  0  0  0
 29 25  2  0  0  0  0
 30 33  1  0  0  0  0
 31 33  1  0  0  0  0
 32 28  1  6  0  0  0
 32 31  1  0  0  0  0
 32 30  1  0  0  0  0
 34 31  2  0  0  0  0
M  END
>  <MODEL>
6

>  <REMARK>
 VINA RESULT:      -7.0      2.990      4.381
  Name = 
  7 active torsions:
  status: ('A' for Active; 'I' for Inactive)
    1  A    between atoms: C_7  and  N_23
    2  A    between atoms: N_8  and  C_12
    3  A    between atoms: N_8  and  C_30
    4  A    between atoms: C_10  and  C_25
    5  A    between atoms: C_12  and  C_18
    6  A    between atoms: C_14  and  N_17
    7  A    between atoms: C_16  and  C_29
                            x       y       z     vdW  Elec       q    Type
                         _______ _______ _______ _____ _____    ______ ____

>  <TORSDO>
F 7

$$$$
=
 OpenBabel11072414153D

 34 37  0  0  1  0  0  0  0  0999 V2000
  162.9150  210.8100  156.8610 C   0  0  0  0  0  3  0  0  0  0  0  0
  162.0110  211.3910  155.8580 C   0  0  0  0  0  3  0  0  0  0  0  0
  160.8810  209.1910  155.5870 C   0  0  1  0  0  3  0  0  0  0  0  0
  161.7390  208.7390  156.7390 C   0  0  0  0  0  0  0  0  0  0  0  0
  161.0470  210.6630  155.2800 C   0  0  0  0  0  0  0  0  0  0  0  0
  162.7700  209.5850  157.2610 N   0  0  0  0  0  0  0  0  0  0  0  0
  161.5640  207.5950  157.2340 O   0  0  0  0  0  0  0  0  0  0  0  0
  159.8840  206.5770  155.0180 O   0  0  0  0  0  0  0  0  0  0  0  0
  161.2070  208.4000  154.4080 N   0  0  0  0  0  2  0  0  0  0  0  0
  160.6440  207.1070  154.1620 C   0  0  0  0  0  0  0  0  0  0  0  0
  161.5160  204.3300  151.7540 C   0  0  0  0  0  3  0  0  0  0  0  0
  160.9630  206.3890  152.9170 C   0  0  0  0  0  0  0  0  0  0  0  0
  161.0260  207.0800  151.6990 C   0  0  0  0  0  3  0  0  0  0  0  0
  161.2090  205.0090  152.9350 C   0  0  0  0  0  3  0  0  0  0  0  0
  161.5790  205.0260  150.5450 C   0  0  0  0  0  3  0  0  0  0  0  0
  161.3320  206.4050  150.5080 C   0  0  0  0  0  0  0  0  0  0  0  0
  161.3870  207.1370  149.2310 C   0  0  0  0  0  0  0  0  0  0  0  0
  160.8310  206.5680  148.0470 N   0  0  0  0  0  1  0  0  0  0  0  0
  161.9220  208.2760  149.1730 O   0  0  0  0  0  0  0  0  0  0  0  0
  160.1620  211.2590  154.3230 N   0  0  0  0  0  2  0  0  0  0  0  0
  159.6640  212.6280  154.4020 C   0  0  0  0  0  2  0  0  0  0  0  0
  155.3220  214.1350  151.9180 Cl  0  0  0  0  0  0  0  0  0  0  0  0
  159.1020  213.3580  150.7740 C   0  0  0  0  0  0  0  0  0  0  0  0
  159.6900  213.0200  151.9560 N   0  0  0  0  0  0  0  0  0  0  0  0
  158.9940  213.0180  153.1260 C   0  0  0  0  0  0  0  0  0  0  0  0
  157.0180  213.7040  151.9330 C   0  0  0  0  0  0  0  0  0  0  0  0
  157.7500  213.7060  150.7450 C   0  0  0  0  0  3  0  0  0  0  0  0
  159.8560  213.3640  149.5610 N   0  0  0  0  0  2  0  0  0  0  0  0
  157.6390  213.3560  153.1330 C   0  0  0  0  0  3  0  0  0  0  0  0
  161.4750  211.6900  149.3730 N   0  0  0  0  0  2  0  0  0  0  0  0
  161.7900  213.2850  148.1630 C   0  0  0  0  0  0  0  0  0  0  0  0
  161.2800  213.0650  149.5190 C   0  0  1  0  0  3  0  0  0  0  0  0
  161.9850  211.8250  148.0670 N   0  0  0  0  0  2  0  0  0  0  0  0
  161.9780  214.2740  147.4090 O   0  0  0  0  0  0  0  0  0  0  0  0
  1  6  2  0  0  0  0
  2  1  1  0  0  0  0
  3  9  1  6  0  0  0
  3  4  1  0  0  0  0
  4  7  2  0  0  0  0
  4  6  1  0  0  0  0
  5  3  1  0  0  0  0
  5  2  2  0  0  0  0
 10  9  1  0  0  0  0
 10  8  2  0  0  0  0
 11 14  1  0  0  0  0
 12 14  2  0  0  0  0
 12 10  1  0  0  0  0
 13 12  1  0  0  0  0
 15 11  2  0  0  0  0
 16 15  1  0  0  0  0
 16 13  2  0  0  0  0
 17 16  1  0  0  0  0
 18 17  1  0  0  0  0
 19 17  2  0  0  0  0
 20 21  1  0  0  0  0
 20  5  1  0  0  0  0
 22 26  1  0  0  0  0
 23 24  2  0  0  0  0
 24 25  1  0  0  0  0
 25 29  2  0  0  0  0
 25 21  1  0  0  0  0
 26 29  1  0  0  0  0
 27 23  1  0  0  0  0
 27 26  2  0  0  0  0
 28 23  1  0  0  0  0
 30 32  1  0  0  0  0
 31 32  1  0  0  0  0
 32 28  1  6  0  0  0
 33 31  1  0  0  0  0
 33 30  1  0  0  0  0
 34 31  2  0  0  0  0
M  END
>  <MODEL>
7

>  <REMARK>
 VINA RESULT:      -6.9      3.508      7.650
  Name = 
  7 active torsions:
  status: ('A' for Active; 'I' for Inactive)
    1  A    between atoms: C_7  and  N_23
    2  A    between atoms: N_8  and  C_12
    3  A    between atoms: N_8  and  C_30
    4  A    between atoms: C_10  and  C_25
    5  A    between atoms: C_12  and  C_18
    6  A    between atoms: C_14  and  N_17
    7  A    between atoms: C_16  and  C_29
                            x       y       z     vdW  Elec       q    Type
                         _______ _______ _______ _____ _____    ______ ____

>  <TORSDO>
F 7

$$$$
=
 OpenBabel11072414153D

 34 37  0  0  1  0  0  0  0  0999 V2000
  161.1310  206.0250  149.6030 C   0  0  0  0  0  3  0  0  0  0  0  0
  161.4030  207.4410  149.3170 C   0  0  0  0  0  3  0  0  0  0  0  0
  161.8780  207.8470  151.7260 C   0  0  1  0  0  3  0  0  0  0  0  0
  161.7440  206.3550  151.8840 C   0  0  0  0  0  0  0  0  0  0  0  0
  161.7760  208.2910  150.2830 C   0  0  0  0  0  0  0  0  0  0  0  0
  161.3010  205.5400  150.7940 N   0  0  0  0  0  0  0  0  0  0  0  0
  162.0020  205.8220  152.9950 O   0  0  0  0  0  0  0  0  0  0  0  0
  162.2450  210.2200  153.2690 O   0  0  0  0  0  0  0  0  0  0  0  0
  160.8500  208.5060  152.5200 N   0  0  0  0  0  2  0  0  0  0  0  0
  161.0880  209.7180  153.2440 C   0  0  0  0  0  0  0  0  0  0  0  0
  158.7090  210.6930  156.0110 C   0  0  0  0  0  3  0  0  0  0  0  0
  159.9880  210.3700  153.9720 C   0  0  0  0  0  0  0  0  0  0  0  0
  159.1580  211.2940  153.3200 C   0  0  0  0  0  3  0  0  0  0  0  0
  159.7560  210.0770  155.3230 C   0  0  0  0  0  3  0  0  0  0  0  0
  157.8850  211.6100  155.3540 C   0  0  0  0  0  3  0  0  0  0  0  0
  158.1050  211.9190  154.0050 C   0  0  0  0  0  0  0  0  0  0  0  0
  157.2450  212.8940  153.3130 C   0  0  0  0  0  0  0  0  0  0  0  0
  156.0320  213.3410  153.9150 N   0  0  0  0  0  1  0  0  0  0  0  0
  157.5730  213.3460  152.1850 O   0  0  0  0  0  0  0  0  0  0  0  0
  162.0590  209.6610  149.9750 N   0  0  0  0  0  2  0  0  0  0  0  0
  162.3150  210.1680  148.6300 C   0  0  0  0  0  2  0  0  0  0  0  0
  160.0920  214.4530  150.6260 Cl  0  0  0  0  0  0  0  0  0  0  0  0
  160.5490  212.9830  146.9070 C   0  0  0  0  0  0  0  0  0  0  0  0
  161.2290  211.8260  147.1430 N   0  0  0  0  0  0  0  0  0  0  0  0
  161.5820  211.4490  148.4030 C   0  0  0  0  0  0  0  0  0  0  0  0
  160.5350  213.4340  149.2740 C   0  0  0  0  0  0  0  0  0  0  0  0
  160.1890  213.8080  147.9750 C   0  0  0  0  0  3  0  0  0  0  0  0
  160.1990  213.3640  145.5760 N   0  0  0  0  0  2  0  0  0  0  0  0
  161.2340  212.2470  149.4940 C   0  0  0  0  0  3  0  0  0  0  0  0
  159.9400  213.0760  143.2720 N   0  0  0  0  0  2  0  0  0  0  0  0
  161.8680  213.0690  143.8940 C   0  0  0  0  0  0  0  0  0  0  0  0
  160.5850  212.5840  144.4080 C   0  0  1  0  0  3  0  0  0  0  0  0
  161.1370  213.5600  142.7090 N   0  0  0  0  0  2  0  0  0  0  0  0
  163.0640  213.0710  144.2840 O   0  0  0  0  0  0  0  0  0  0  0  0
  1  6  2  0  0  0  0
  2  1  1  0  0  0  0
  2  5  2  0  0  0  0
  3  4  1  0  0  0  0
  3  9  1  1  0  0  0
  4  7  2  0  0  0  0
  5  3  1  0  0  0  0
  6  4  1  0  0  0  0
  9 10  1  0  0  0  0
 10  8  2  0  0  0  0
 10 12  1  0  0  0  0
 12 14  1  0  0  0  0
 13 12  2  0  0  0  0
 13 16  1  0  0  0  0
 14 11  2  0  0  0  0
 15 11  1  0  0  0  0
 16 15  2  0  0  0  0
 17 18  1  0  0  0  0
 17 16  1  0  0  0  0
 19 17  2  0  0  0  0
 20  5  1  0  0  0  0
 21 20  1  0  0  0  0
 23 24  2  0  0  0  0
 23 27  1  0  0  0  0
 24 25  1  0  0  0  0
 25 21  1  0  0  0  0
 25 29  2  0  0  0  0
 26 29  1  0  0  0  0
 26 22  1  0  0  0  0
 27 26  2  0  0  0  0
 28 23  1  0  0  0  0
 30 32  1  0  0  0  0
 31 34  2  0  0  0  0
 31 32  1  0  0  0  0
 32 28  1  1  0  0  0
 33 30  1  0  0  0  0
 33 31  1  0  0  0  0
M  END
>  <MODEL>
8

>  <REMARK>
 VINA RESULT:      -6.7      4.598      6.017
  Name = 
  7 active torsions:
  status: ('A' for Active; 'I' for Inactive)
    1  A    between atoms: C_7  and  N_23
    2  A    between atoms: N_8  and  C_12
    3  A    between atoms: N_8  and  C_30
    4  A    between atoms: C_10  and  C_25
    5  A    between atoms: C_12  and  C_18
    6  A    between atoms: C_14  and  N_17
    7  A    between atoms: C_16  and  C_29
                            x       y       z     vdW  Elec       q    Type
                         _______ _______ _______ _____ _____    ______ ____

>  <TORSDO>
F 7

$$$$
=
 OpenBabel11072414153D

 34 37  0  0  1  0  0  0  0  0999 V2000
  159.0910  211.2250  153.1340 C   0  0  0  0  0  3  0  0  0  0  0  0
  160.0770  210.4610  152.3570 C   0  0  0  0  0  3  0  0  0  0  0  0
  160.5550  212.4710  150.9700 C   0  0  1  0  0  3  0  0  0  0  0  0
  159.6540  213.2040  151.9280 C   0  0  0  0  0  0  0  0  0  0  0  0
  160.7830  211.0300  151.3710 C   0  0  0  0  0  0  0  0  0  0  0  0
  158.9140  212.4930  152.9270 N   0  0  0  0  0  0  0  0  0  0  0  0
  159.5310  214.4530  151.8360 O   0  0  0  0  0  0  0  0  0  0  0  0
  161.9960  213.0150  148.5660 O   0  0  0  0  0  0  0  0  0  0  0  0
  159.9790  212.5270  149.6330 N   0  0  0  0  0  2  0  0  0  0  0  0
  160.7630  212.7690  148.4600 C   0  0  0  0  0  0  0  0  0  0  0  0
  158.1350  212.7600  145.7470 C   0  0  0  0  0  3  0  0  0  0  0  0
  160.1300  212.7450  147.1320 C   0  0  0  0  0  0  0  0  0  0  0  0
  160.9180  212.6800  145.9740 C   0  0  0  0  0  3  0  0  0  0  0  0
  158.7340  212.7870  147.0090 C   0  0  0  0  0  3  0  0  0  0  0  0
  158.9270  212.6930  144.5990 C   0  0  0  0  0  3  0  0  0  0  0  0
  160.3240  212.6550  144.7040 C   0  0  0  0  0  0  0  0  0  0  0  0
  161.1610  212.5950  143.4930 C   0  0  0  0  0  0  0  0  0  0  0  0
  160.6100  212.1480  142.2560 N   0  0  0  0  0  1  0  0  0  0  0  0
  162.3710  212.9410  143.5370 O   0  0  0  0  0  0  0  0  0  0  0  0
  161.7570  210.2710  150.6440 N   0  0  0  0  0  2  0  0  0  0  0  0
  162.6050  209.2400  151.2330 C   0  0  0  0  0  2  0  0  0  0  0  0
  160.8050  204.7460  153.1970 Cl  0  0  0  0  0  0  0  0  0  0  0  0
  161.3070  206.1990  149.4770 C   0  0  0  0  0  0  0  0  0  0  0  0
  161.8210  207.4360  149.7250 N   0  0  0  0  0  0  0  0  0  0  0  0
  162.0270  207.8840  150.9940 C   0  0  0  0  0  0  0  0  0  0  0  0
  161.1980  205.7910  151.8490 C   0  0  0  0  0  0  0  0  0  0  0  0
  160.9870  205.3530  150.5410 C   0  0  0  0  0  3  0  0  0  0  0  0
  161.0900  205.7560  148.1370 N   0  0  0  0  0  2  0  0  0  0  0  0
  161.7220  207.0630  152.0820 C   0  0  0  0  0  3  0  0  0  0  0  0
  162.5860  206.2740  146.4190 N   0  0  0  0  0  2  0  0  0  0  0  0
  160.6680  206.0460  145.8050 C   0  0  0  0  0  0  0  0  0  0  0  0
  161.3480  206.5990  146.9780 C   0  0  1  0  0  3  0  0  0  0  0  0
  162.0030  205.7350  145.2550 N   0  0  0  0  0  2  0  0  0  0  0  0
  159.4770  205.8980  145.4270 O   0  0  0  0  0  0  0  0  0  0  0  0
  2  1  1  0  0  0  0
  3  9  1  6  0  0  0
  3  5  1  0  0  0  0
  3  4  1  0  0  0  0
  4  6  1  0  0  0  0
  5  2  2  0  0  0  0
  6  1  2  0  0  0  0
  7  4  2  0  0  0  0
 10  8  2  0  0  0  0
 10  9  1  0  0  0  0
 11 14  1  0  0  0  0
 12 10  1  0  0  0  0
 13 12  1  0  0  0  0
 14 12  2  0  0  0  0
 15 16  1  0  0  0  0
 15 11  2  0  0  0  0
 16 13  2  0  0  0  0
 17 19  2  0  0  0  0
 17 16  1  0  0  0  0
 18 17  1  0  0  0  0
 20 21  1  0  0  0  0
 20  5  1  0  0  0  0
 23 24  2  0  0  0  0
 23 27  1  0  0  0  0
 24 25  1  0  0  0  0
 25 21  1  0  0  0  0
 25 29  2  0  0  0  0
 26 29  1  0  0  0  0
 26 22  1  0  0  0  0
 27 26  2  0  0  0  0
 28 23  1  0  0  0  0
 30 32  1  0  0  0  0
 31 32  1  0  0  0  0
 32 28  1  1  0  0  0
 33 31  1  0  0  0  0
 33 30  1  0  0  0  0
 34 31  2  0  0  0  0
M  END
>  <MODEL>
9

>  <REMARK>
 VINA RESULT:      -6.6      3.676      5.685
  Name = 
  7 active torsions:
  status: ('A' for Active; 'I' for Inactive)
    1  A    between atoms: C_7  and  N_23
    2  A    between atoms: N_8  and  C_12
    3  A    between atoms: N_8  and  C_30
    4  A    between atoms: C_10  and  C_25
    5  A    between atoms: C_12  and  C_18
    6  A    between atoms: C_14  and  N_17
    7  A    between atoms: C_16  and  C_29
                            x       y       z     vdW  Elec       q    Type
                         _______ _______ _______ _____ _____    ______ ____

>  <TORSDO>
F 7

$$$$
