=
 OpenBabel11072411053D

 30 31  0  0  1  0  0  0  0  0999 V2000
  160.7960  205.4990  152.2860 C   0  0  1  0  0  3  0  0  0  0  0  0
  161.4720  203.8260  150.4180 C   0  0  0  0  0  2  0  0  0  0  0  0
  161.0280  203.1670  152.6310 O   0  0  0  0  0  0  0  0  0  0  0  0
  160.3520  206.0400  149.7960 C   0  0  1  0  0  3  0  0  0  0  0  0
  160.4760  204.5330  149.5030 C   0  0  0  0  0  2  0  0  0  0  0  0
  161.7050  205.8910  153.4380 C   0  0  0  0  0  1  0  0  0  0  0  0
  160.9680  206.5020  151.1340 C   0  0  1  0  0  3  0  0  0  0  0  0
  161.1030  204.0950  151.8410 C   0  0  0  0  0  0  0  0  0  0  0  0
  160.5070  207.8080  151.4920 O   0  0  0  0  0  0  0  0  0  0  0  0
  162.5100  208.8980  151.3100 O   0  0  0  0  0  0  0  0  0  0  0  0
  161.3400  208.9000  151.7750 C   0  0  0  0  0  0  0  0  0  0  0  0
  160.8640  210.0260  152.6090 C   0  0  0  0  0  3  0  0  0  0  0  0
  160.6690  209.9970  153.9310 C   0  0  0  0  0  0  0  0  0  0  0  0
  160.8790  211.8600  155.4070 O   0  0  0  0  0  0  0  0  0  0  0  0
  158.8360  211.6840  154.3370 N   0  0  0  0  0  1  0  0  0  0  0  0
  160.1610  211.2220  154.5930 C   0  0  0  0  0  0  0  0  0  0  0  0
  160.9380  208.8150  154.6430 O   0  0  0  0  0  0  0  0  0  0  0  0
  159.6020  207.3680  155.8380 O   0  0  0  0  0  1  0  0  0  0  0  0
  160.4040  208.5040  155.9260 C   0  0  1  0  0  3  0  0  0  0  0  0
  162.4860  209.2760  156.8350 O   0  0  0  0  0  1  0  0  0  0  0  0
  161.5270  208.2680  156.9290 C   0  0  0  0  0  2  0  0  0  0  0  0
  160.8700  206.8720  148.6270 C   0  0  0  0  0  2  0  0  0  0  0  0
  162.6110  206.4940  148.2360 S   0  0  0  0  0  0  0  0  0  0  0  0
  162.1820  205.7860  146.6220 C   0  0  1  0  0  3  0  0  0  0  0  0
  160.5410  205.8520  144.7320 C   0  0  0  0  0  2  0  0  0  0  0  0
  161.9490  204.2870  146.7750 C   0  0  0  0  0  2  0  0  0  0  0  0
  160.3100  204.3490  144.8800 C   0  0  0  0  0  2  0  0  0  0  0  0
  161.5650  203.6730  145.4290 C   0  0  2  0  0  3  0  0  0  0  0  0
  160.9210  206.4610  146.0790 C   0  0  0  0  0  2  0  0  0  0  0  0
  161.3230  202.3110  145.5930 O   0  0  0  0  0  1  0  0  0  0  0  0
  1  6  1  1  0  0  0
  2  8  1  0  0  0  0
  4 22  1  6  0  0  0
  4  7  1  0  0  0  0
  5  4  1  0  0  0  0
  5  2  1  0  0  0  0
  7  9  1  1  0  0  0
  7  1  1  0  0  0  0
  8  1  1  0  0  0  0
  8  3  2  0  0  0  0
  9 11  1  0  0  0  0
 10 11  2  0  0  0  0
 11 12  1  0  0  0  0
 12 13  2  0  0  0  0
 13 16  1  0  0  0  0
 13 17  1  0  0  0  0
 15 16  1  0  0  0  0
 16 14  2  0  0  0  0
 17 19  1  0  0  0  0
 19 18  1  6  0  0  0
 19 21  1  0  0  0  0
 20 21  1  0  0  0  0
 23 22  1  0  0  0  0
 24 26  1  0  0  0  0
 24 23  1  1  0  0  0
 25 27  1  0  0  0  0
 25 29  1  0  0  0  0
 27 28  1  0  0  0  0
 28 30  1  1  0  0  0
 28 26  1  0  0  0  0
 29 24  1  0  0  0  0
M  END
>  <MODEL>
1

>  <REMARK>
 VINA RESULT:      -6.9      0.000      0.000
  Name = 
  10 active torsions:
  status: ('A' for Active; 'I' for Inactive)
    1  A    between atoms: O_5  and  C_13
    2  A    between atoms: O_5  and  C_21
    3  A    between atoms: C_6  and  S_24
    4  A    between atoms: C_10  and  C_27
    5  A    between atoms: C_11  and  C_21
    6  A    between atoms: C_13  and  C_26
    7  A    between atoms: C_14  and  C_25
    8  A    between atoms: O_17  and  C_25
    9  A    between atoms: O_17  and  C_28
   10  A    between atoms: S_24  and  C_27
                            x       y       z     vdW  Elec       q    Type
                         _______ _______ _______ _____ _____    ______ ____

>  <TORSDO>
F 10

$$$$
=
 OpenBabel11072411053D

 30 31  0  0  1  0  0  0  0  0999 V2000
  160.8570  205.8090  152.2860 C   0  0  1  0  0  3  0  0  0  0  0  0
  161.3780  204.0260  150.4690 C   0  0  0  0  0  2  0  0  0  0  0  0
  160.9430  203.4810  152.7150 O   0  0  0  0  0  0  0  0  0  0  0  0
  160.3920  206.2860  149.7870 C   0  0  1  0  0  3  0  0  0  0  0  0
  160.4100  204.7640  149.5490 C   0  0  0  0  0  2  0  0  0  0  0  0
  161.8160  206.1810  153.4030 C   0  0  0  0  0  1  0  0  0  0  0  0
  161.0680  206.7550  151.0930 C   0  0  1  0  0  3  0  0  0  0  0  0
  161.0610  204.3720  151.8890 C   0  0  0  0  0  0  0  0  0  0  0  0
  160.7020  208.1010  151.4100 O   0  0  0  0  0  0  0  0  0  0  0  0
  162.2290  209.6130  150.6240 O   0  0  0  0  0  0  0  0  0  0  0  0
  161.6110  209.1480  151.6190 C   0  0  0  0  0  0  0  0  0  0  0  0
  161.8500  209.6920  152.9730 C   0  0  0  0  0  3  0  0  0  0  0  0
  161.0800  210.5810  153.6100 C   0  0  0  0  0  0  0  0  0  0  0  0
  162.6410  210.7550  155.4060 O   0  0  0  0  0  0  0  0  0  0  0  0
  160.5940  211.7610  155.7880 N   0  0  0  0  0  1  0  0  0  0  0  0
  161.4970  211.0310  154.9600 C   0  0  0  0  0  0  0  0  0  0  0  0
  159.9200  211.0650  152.9820 O   0  0  0  0  0  0  0  0  0  0  0  0
  160.1310  212.5140  151.2050 O   0  0  0  0  0  1  0  0  0  0  0  0
  159.7390  212.4060  152.5380 C   0  0  1  0  0  3  0  0  0  0  0  0
  157.7070  212.2150  153.7990 O   0  0  0  0  0  1  0  0  0  0  0  0
  158.2810  212.8250  152.6840 C   0  0  0  0  0  2  0  0  0  0  0  0
  160.9370  207.0380  148.5760 C   0  0  0  0  0  2  0  0  0  0  0  0
  162.6620  206.5760  148.2030 S   0  0  0  0  0  0  0  0  0  0  0  0
  162.2070  205.8400  146.6080 C   0  0  1  0  0  3  0  0  0  0  0  0
  160.5250  205.8570  144.7540 C   0  0  0  0  0  2  0  0  0  0  0  0
  161.9960  204.3400  146.7880 C   0  0  0  0  0  2  0  0  0  0  0  0
  160.3160  204.3540  144.9280 C   0  0  0  0  0  2  0  0  0  0  0  0
  161.5920  203.7020  145.4600 C   0  0  2  0  0  3  0  0  0  0  0  0
  160.9270  206.4900  146.0840 C   0  0  0  0  0  2  0  0  0  0  0  0
  161.3710  202.3390  145.6490 O   0  0  0  0  0  1  0  0  0  0  0  0
  1  6  1  1  0  0  0
  2  8  1  0  0  0  0
  4 22  1  6  0  0  0
  4  7  1  0  0  0  0
  5  4  1  0  0  0  0
  5  2  1  0  0  0  0
  7  9  1  1  0  0  0
  7  1  1  0  0  0  0
  8  1  1  0  0  0  0
  8  3  2  0  0  0  0
  9 11  1  0  0  0  0
 10 11  2  0  0  0  0
 11 12  1  0  0  0  0
 12 13  2  0  0  0  0
 13 16  1  0  0  0  0
 16 14  2  0  0  0  0
 16 15  1  0  0  0  0
 17 13  1  0  0  0  0
 19 18  1  6  0  0  0
 19 21  1  0  0  0  0
 19 17  1  0  0  0  0
 21 20  1  0  0  0  0
 23 22  1  0  0  0  0
 24 26  1  0  0  0  0
 24 23  1  1  0  0  0
 25 27  1  0  0  0  0
 25 29  1  0  0  0  0
 27 28  1  0  0  0  0
 28 30  1  1  0  0  0
 28 26  1  0  0  0  0
 29 24  1  0  0  0  0
M  END
>  <MODEL>
2

>  <REMARK>
 VINA RESULT:      -6.9      1.524      2.514
  Name = 
  10 active torsions:
  status: ('A' for Active; 'I' for Inactive)
    1  A    between atoms: O_5  and  C_13
    2  A    between atoms: O_5  and  C_21
    3  A    between atoms: C_6  and  S_24
    4  A    between atoms: C_10  and  C_27
    5  A    between atoms: C_11  and  C_21
    6  A    between atoms: C_13  and  C_26
    7  A    between atoms: C_14  and  C_25
    8  A    between atoms: O_17  and  C_25
    9  A    between atoms: O_17  and  C_28
   10  A    between atoms: S_24  and  C_27
                            x       y       z     vdW  Elec       q    Type
                         _______ _______ _______ _____ _____    ______ ____

>  <TORSDO>
F 10

$$$$
=
 OpenBabel11072411053D

 30 31  0  0  1  0  0  0  0  0999 V2000
  161.6520  206.8080  152.0150 C   0  0  1  0  0  3  0  0  0  0  0  0
  161.0860  209.2200  152.7960 C   0  0  0  0  0  2  0  0  0  0  0  0
  161.3940  207.4280  154.2860 O   0  0  0  0  0  0  0  0  0  0  0  0
  162.2450  208.8520  150.5460 C   0  0  1  0  0  3  0  0  0  0  0  0
  162.1360  209.7240  151.8100 C   0  0  0  0  0  2  0  0  0  0  0  0
  160.6760  205.6460  152.0870 C   0  0  0  0  0  1  0  0  0  0  0  0
  161.5510  207.4760  150.6340 C   0  0  1  0  0  3  0  0  0  0  0  0
  161.3690  207.7880  153.1200 C   0  0  0  0  0  0  0  0  0  0  0  0
  161.9920  206.6060  149.5880 O   0  0  0  0  0  0  0  0  0  0  0  0
  160.6110  206.6570  147.7650 O   0  0  0  0  0  0  0  0  0  0  0  0
  161.1470  205.9660  148.6710 C   0  0  0  0  0  0  0  0  0  0  0  0
  160.8790  204.5140  148.7650 C   0  0  0  0  0  3  0  0  0  0  0  0
  161.4170  203.5640  147.9920 C   0  0  0  0  0  0  0  0  0  0  0  0
  161.5440  201.2180  147.5790 O   0  0  0  0  0  0  0  0  0  0  0  0
  159.9710  201.8510  149.1520 N   0  0  0  0  0  1  0  0  0  0  0  0
  161.0060  202.1580  148.2200 C   0  0  0  0  0  0  0  0  0  0  0  0
  162.3340  203.9250  146.9910 O   0  0  0  0  0  0  0  0  0  0  0  0
  160.7730  203.4380  145.3700 O   0  0  0  0  0  1  0  0  0  0  0  0
  162.0340  203.9850  145.6010 C   0  0  1  0  0  3  0  0  0  0  0  0
  160.8260  205.7990  144.5950 O   0  0  0  0  0  1  0  0  0  0  0  0
  162.0690  205.4270  145.1090 C   0  0  0  0  0  2  0  0  0  0  0  0
  161.8000  209.6220  149.3060 C   0  0  0  0  0  2  0  0  0  0  0  0
  161.8480  211.4270  149.5670 S   0  0  0  0  0  0  0  0  0  0  0  0
  161.7410  211.7720  147.7890 C   0  0  1  0  0  3  0  0  0  0  0  0
  162.6530  213.1630  145.9180 C   0  0  0  0  0  2  0  0  0  0  0  0
  160.3290  212.2400  147.4510 C   0  0  0  0  0  2  0  0  0  0  0  0
  161.2400  213.6290  145.5750 C   0  0  0  0  0  2  0  0  0  0  0  0
  160.2220  212.5570  145.9610 C   0  0  2  0  0  3  0  0  0  0  0  0
  162.7560  212.8500  147.4090 C   0  0  0  0  0  2  0  0  0  0  0  0
  158.9360  213.0140  145.6750 O   0  0  0  0  0  1  0  0  0  0  0  0
  1  6  1  6  0  0  0
  1  8  1  0  0  0  0
  2  8  1  0  0  0  0
  4 22  1  6  0  0  0
  4  7  1  0  0  0  0
  4  5  1  0  0  0  0
  5  2  1  0  0  0  0
  7  9  1  6  0  0  0
  7  1  1  0  0  0  0
  8  3  2  0  0  0  0
 10 11  2  0  0  0  0
 11 12  1  0  0  0  0
 11  9  1  0  0  0  0
 13 16  1  0  0  0  0
 13 12  2  0  0  0  0
 14 16  2  0  0  0  0
 16 15  1  0  0  0  0
 17 13  1  0  0  0  0
 19 18  1  1  0  0  0
 19 17  1  0  0  0  0
 20 21  1  0  0  0  0
 21 19  1  0  0  0  0
 22 23  1  0  0  0  0
 24 23  1  1  0  0  0
 25 29  1  0  0  0  0
 26 24  1  0  0  0  0
 27 25  1  0  0  0  0
 27 28  1  0  0  0  0
 28 30  1  1  0  0  0
 28 26  1  0  0  0  0
 29 24  1  0  0  0  0
M  END
>  <MODEL>
3

>  <REMARK>
 VINA RESULT:      -6.7      4.178      7.967
  Name = 
  10 active torsions:
  status: ('A' for Active; 'I' for Inactive)
    1  A    between atoms: O_5  and  C_13
    2  A    between atoms: O_5  and  C_21
    3  A    between atoms: C_6  and  S_24
    4  A    between atoms: C_10  and  C_27
    5  A    between atoms: C_11  and  C_21
    6  A    between atoms: C_13  and  C_26
    7  A    between atoms: C_14  and  C_25
    8  A    between atoms: O_17  and  C_25
    9  A    between atoms: O_17  and  C_28
   10  A    between atoms: S_24  and  C_27
                            x       y       z     vdW  Elec       q    Type
                         _______ _______ _______ _____ _____    ______ ____

>  <TORSDO>
F 10

$$$$
=
 OpenBabel11072411053D

 30 31  0  0  1  0  0  0  0  0999 V2000
  161.4800  208.1540  150.2800 C   0  0  1  0  0  3  0  0  0  0  0  0
  162.3340  210.0050  151.8910 C   0  0  0  0  0  2  0  0  0  0  0  0
  161.9940  210.3610  149.5920 O   0  0  0  0  0  0  0  0  0  0  0  0
  160.9510  208.0600  152.8110 C   0  0  1  0  0  3  0  0  0  0  0  0
  161.2520  209.5680  152.8740 C   0  0  0  0  0  2  0  0  0  0  0  0
  162.3460  207.4850  149.2270 C   0  0  0  0  0  1  0  0  0  0  0  0
  161.5190  207.3270  151.5760 C   0  0  1  0  0  3  0  0  0  0  0  0
  161.9490  209.5640  150.5150 C   0  0  0  0  0  0  0  0  0  0  0  0
  160.9080  206.0450  151.4080 O   0  0  0  0  0  0  0  0  0  0  0  0
  162.7070  204.7760  152.0350 O   0  0  0  0  0  0  0  0  0  0  0  0
  161.5930  204.8220  151.4470 C   0  0  0  0  0  0  0  0  0  0  0  0
  161.0310  203.6130  150.8080 C   0  0  0  0  0  3  0  0  0  0  0  0
  161.1580  203.2740  149.5200 C   0  0  0  0  0  0  0  0  0  0  0  0
  159.2900  201.8030  149.3200 O   0  0  0  0  0  0  0  0  0  0  0  0
  161.2360  201.0570  148.3150 N   0  0  0  0  0  1  0  0  0  0  0  0
  160.4990  202.0310  149.0530 C   0  0  0  0  0  0  0  0  0  0  0  0
  161.8920  204.1050  148.6560 O   0  0  0  0  0  0  0  0  0  0  0  0
  160.6160  205.4910  147.3320 O   0  0  0  0  0  1  0  0  0  0  0  0
  161.5110  204.4230  147.3220 C   0  0  1  0  0  3  0  0  0  0  0  0
  162.3500  205.3880  145.2920 O   0  0  0  0  0  1  0  0  0  0  0  0
  162.7350  204.7840  146.4890 C   0  0  0  0  0  2  0  0  0  0  0  0
  161.3540  207.3630  154.1070 C   0  0  0  0  0  2  0  0  0  0  0  0
  159.9110  206.9730  155.1520 S   0  0  0  0  0  0  0  0  0  0  0  0
  160.2690  208.3320  156.2990 C   0  0  1  0  0  3  0  0  0  0  0  0
  159.8380  210.7450  156.8070 C   0  0  0  0  0  2  0  0  0  0  0  0
  161.7710  208.5950  156.3150 C   0  0  0  0  0  2  0  0  0  0  0  0
  161.3420  211.0100  156.8280 C   0  0  0  0  0  2  0  0  0  0  0  0
  162.0940  209.7510  157.2590 C   0  0  2  0  0  3  0  0  0  0  0  0
  159.5210  209.5910  155.8600 C   0  0  0  0  0  2  0  0  0  0  0  0
  163.4650  210.0000  157.2360 O   0  0  0  0  0  1  0  0  0  0  0  0
  1  6  1  6  0  0  0
  1  8  1  0  0  0  0
  1  7  1  0  0  0  0
  2  5  1  0  0  0  0
  3  8  2  0  0  0  0
  4  5  1  0  0  0  0
  4 22  1  1  0  0  0
  7  9  1  6  0  0  0
  7  4  1  0  0  0  0
  8  2  1  0  0  0  0
  9 11  1  0  0  0  0
 11 10  2  0  0  0  0
 12 11  1  0  0  0  0
 13 12  2  0  0  0  0
 15 16  1  0  0  0  0
 16 14  2  0  0  0  0
 16 13  1  0  0  0  0
 17 13  1  0  0  0  0
 19 18  1  1  0  0  0
 19 17  1  0  0  0  0
 20 21  1  0  0  0  0
 21 19  1  0  0  0  0
 22 23  1  0  0  0  0
 24 23  1  6  0  0  0
 24 26  1  0  0  0  0
 25 27  1  0  0  0  0
 26 28  1  0  0  0  0
 27 28  1  0  0  0  0
 28 30  1  6  0  0  0
 29 24  1  0  0  0  0
 29 25  1  0  0  0  0
M  END
>  <MODEL>
4

>  <REMARK>
 VINA RESULT:      -6.7      3.381      8.977
  Name = 
  10 active torsions:
  status: ('A' for Active; 'I' for Inactive)
    1  A    between atoms: O_5  and  C_13
    2  A    between atoms: O_5  and  C_21
    3  A    between atoms: C_6  and  S_24
    4  A    between atoms: C_10  and  C_27
    5  A    between atoms: C_11  and  C_21
    6  A    between atoms: C_13  and  C_26
    7  A    between atoms: C_14  and  C_25
    8  A    between atoms: O_17  and  C_25
    9  A    between atoms: O_17  and  C_28
   10  A    between atoms: S_24  and  C_27
                            x       y       z     vdW  Elec       q    Type
                         _______ _______ _______ _____ _____    ______ ____

>  <TORSDO>
F 10

$$$$
=
 OpenBabel11072411053D

 30 31  0  0  1  0  0  0  0  0999 V2000
  160.7080  208.3140  153.2070 C   0  0  1  0  0  3  0  0  0  0  0  0
  161.5930  205.8720  153.2570 C   0  0  0  0  0  2  0  0  0  0  0  0
  160.3730  206.8310  155.0240 O   0  0  0  0  0  0  0  0  0  0  0  0
  161.1630  207.0220  151.0130 C   0  0  1  0  0  3  0  0  0  0  0  0
  161.0810  205.7180  151.8280 C   0  0  0  0  0  2  0  0  0  0  0  0
  161.2760  209.4360  154.0600 C   0  0  0  0  0  1  0  0  0  0  0  0
  161.4140  208.3000  151.8420 C   0  0  1  0  0  3  0  0  0  0  0  0
  160.8630  206.9970  153.9180 C   0  0  0  0  0  0  0  0  0  0  0  0
  161.1250  209.4760  151.0800 O   0  0  0  0  0  0  0  0  0  0  0  0
  163.0590  210.6800  151.2850 O   0  0  0  0  0  0  0  0  0  0  0  0
  162.0900  210.3450  150.5530 C   0  0  0  0  0  0  0  0  0  0  0  0
  161.9750  210.8670  149.1740 C   0  0  0  0  0  3  0  0  0  0  0  0
  161.5540  212.0880  148.8290 C   0  0  0  0  0  0  0  0  0  0  0  0
  160.4630  212.1280  146.7070 O   0  0  0  0  0  0  0  0  0  0  0  0
  162.5770  213.0640  146.7380 N   0  0  0  0  0  1  0  0  0  0  0  0
  161.4800  212.4240  147.3860 C   0  0  0  0  0  0  0  0  0  0  0  0
  161.1870  213.0020  149.8320 O   0  0  0  0  0  0  0  0  0  0  0  0
  159.8500  213.3610  151.6720 O   0  0  0  0  0  1  0  0  0  0  0  0
  159.8550  213.2130  150.2860 C   0  0  1  0  0  3  0  0  0  0  0  0
  158.4510  214.0950  148.5520 O   0  0  0  0  0  1  0  0  0  0  0  0
  159.2570  214.4530  149.6330 C   0  0  0  0  0  2  0  0  0  0  0  0
  162.1650  206.8940  149.8690 C   0  0  0  0  0  2  0  0  0  0  0  0
  161.4150  207.2930  148.2550 S   0  0  0  0  0  0  0  0  0  0  0  0
  161.9550  205.7240  147.5220 C   0  0  1  0  0  3  0  0  0  0  0  0
  162.1480  204.4230  145.3910 C   0  0  0  0  0  2  0  0  0  0  0  0
  161.1720  204.5770  148.1530 C   0  0  0  0  0  2  0  0  0  0  0  0
  161.3690  203.2720  146.0230 C   0  0  0  0  0  2  0  0  0  0  0  0
  161.5960  203.2470  147.5340 C   0  0  2  0  0  3  0  0  0  0  0  0
  161.7190  205.7510  146.0110 C   0  0  0  0  0  2  0  0  0  0  0  0
  160.8480  202.2140  148.0970 O   0  0  0  0  0  1  0  0  0  0  0  0
  1  8  1  0  0  0  0
  1  6  1  1  0  0  0
  2  8  1  0  0  0  0
  4 22  1  6  0  0  0
  4  5  1  0  0  0  0
  4  7  1  0  0  0  0
  5  2  1  0  0  0  0
  7  9  1  6  0  0  0
  7  1  1  0  0  0  0
  8  3  2  0  0  0  0
 11  9  1  0  0  0  0
 11 10  2  0  0  0  0
 12 11  1  0  0  0  0
 13 12  2  0  0  0  0
 13 17  1  0  0  0  0
 14 16  2  0  0  0  0
 15 16  1  0  0  0  0
 16 13  1  0  0  0  0
 17 19  1  0  0  0  0
 19 18  1  1  0  0  0
 20 21  1  0  0  0  0
 21 19  1  0  0  0  0
 23 22  1  0  0  0  0
 24 26  1  0  0  0  0
 24 23  1  1  0  0  0
 25 29  1  0  0  0  0
 25 27  1  0  0  0  0
 27 28  1  0  0  0  0
 28 30  1  1  0  0  0
 28 26  1  0  0  0  0
 29 24  1  0  0  0  0
M  END
>  <MODEL>
5

>  <REMARK>
 VINA RESULT:      -6.7      3.390      4.913
  Name = 
  10 active torsions:
  status: ('A' for Active; 'I' for Inactive)
    1  A    between atoms: O_5  and  C_13
    2  A    between atoms: O_5  and  C_21
    3  A    between atoms: C_6  and  S_24
    4  A    between atoms: C_10  and  C_27
    5  A    between atoms: C_11  and  C_21
    6  A    between atoms: C_13  and  C_26
    7  A    between atoms: C_14  and  C_25
    8  A    between atoms: O_17  and  C_25
    9  A    between atoms: O_17  and  C_28
   10  A    between atoms: S_24  and  C_27
                            x       y       z     vdW  Elec       q    Type
                         _______ _______ _______ _____ _____    ______ ____

>  <TORSDO>
F 10

$$$$
=
 OpenBabel11072411053D

 30 31  0  0  1  0  0  0  0  0999 V2000
  161.2710  207.9350  154.1940 C   0  0  1  0  0  3  0  0  0  0  0  0
  160.8420  210.0420  155.6510 C   0  0  0  0  0  2  0  0  0  0  0  0
  162.0300  208.1670  156.4260 O   0  0  0  0  0  0  0  0  0  0  0  0
  160.8520  210.2420  153.1010 C   0  0  1  0  0  3  0  0  0  0  0  0
  161.2390  210.8870  154.4440 C   0  0  0  0  0  2  0  0  0  0  0  0
  160.5940  206.5950  154.4270 C   0  0  0  0  0  1  0  0  0  0  0  0
  160.4550  208.7510  153.1790 C   0  0  1  0  0  3  0  0  0  0  0  0
  161.4190  208.6710  155.4970 C   0  0  0  0  0  0  0  0  0  0  0  0
  160.4610  208.1470  151.8820 O   0  0  0  0  0  0  0  0  0  0  0  0
  162.5900  208.2620  151.0540 O   0  0  0  0  0  0  0  0  0  0  0  0
  161.5780  207.5480  151.2840 C   0  0  0  0  0  0  0  0  0  0  0  0
  161.5720  206.1140  150.9210 C   0  0  0  0  0  3  0  0  0  0  0  0
  161.0680  205.5900  149.7980 C   0  0  0  0  0  0  0  0  0  0  0  0
  161.3380  203.6160  148.4860 O   0  0  0  0  0  0  0  0  0  0  0  0
  160.9270  203.2490  150.7320 N   0  0  0  0  0  1  0  0  0  0  0  0
  161.1300  204.1190  149.6200 C   0  0  0  0  0  0  0  0  0  0  0  0
  160.4900  206.4380  148.8380 O   0  0  0  0  0  0  0  0  0  0  0  0
  162.5580  206.9060  147.9370 O   0  0  0  0  0  1  0  0  0  0  0  0
  161.1830  206.9880  147.7220 C   0  0  1  0  0  3  0  0  0  0  0  0
  161.9600  205.9350  145.7110 O   0  0  0  0  0  1  0  0  0  0  0  0
  160.8140  206.2420  146.4450 C   0  0  0  0  0  2  0  0  0  0  0  0
  159.7870  211.0640  152.3810 C   0  0  0  0  0  2  0  0  0  0  0  0
  159.6760  212.7630  153.0360 S   0  0  0  0  0  0  0  0  0  0  0  0
  157.8970  212.6130  153.3570 C   0  0  1  0  0  3  0  0  0  0  0  0
  155.7270  213.8580  153.4660 C   0  0  0  0  0  2  0  0  0  0  0  0
  157.6830  212.1120  154.7820 C   0  0  0  0  0  2  0  0  0  0  0  0
  155.5080  213.3530  154.8900 C   0  0  0  0  0  2  0  0  0  0  0  0
  156.1890  211.9990  155.0820 C   0  0  2  0  0  3  0  0  0  0  0  0
  157.2210  213.9720  153.1720 C   0  0  0  0  0  2  0  0  0  0  0  0
  156.0110  211.5720  156.3960 O   0  0  0  0  0  1  0  0  0  0  0  0
  1  6  1  1  0  0  0
  1  8  1  0  0  0  0
  4 22  1  1  0  0  0
  4  7  1  0  0  0  0
  4  5  1  0  0  0  0
  5  2  1  0  0  0  0
  7  9  1  6  0  0  0
  7  1  1  0  0  0  0
  8  2  1  0  0  0  0
  8  3  2  0  0  0  0
 10 11  2  0  0  0  0
 11  9  1  0  0  0  0
 12 11  1  0  0  0  0
 13 12  2  0  0  0  0
 14 16  2  0  0  0  0
 16 13  1  0  0  0  0
 16 15  1  0  0  0  0
 17 13  1  0  0  0  0
 19 18  1  1  0  0  0
 19 17  1  0  0  0  0
 20 21  1  0  0  0  0
 21 19  1  0  0  0  0
 22 23  1  0  0  0  0
 24 23  1  1  0  0  0
 24 26  1  0  0  0  0
 25 27  1  0  0  0  0
 26 28  1  0  0  0  0
 27 28  1  0  0  0  0
 28 30  1  1  0  0  0
 29 24  1  0  0  0  0
 29 25  1  0  0  0  0
M  END
>  <MODEL>
6

>  <REMARK>
 VINA RESULT:      -6.5      3.465      8.747
  Name = 
  10 active torsions:
  status: ('A' for Active; 'I' for Inactive)
    1  A    between atoms: O_5  and  C_13
    2  A    between atoms: O_5  and  C_21
    3  A    between atoms: C_6  and  S_24
    4  A    between atoms: C_10  and  C_27
    5  A    between atoms: C_11  and  C_21
    6  A    between atoms: C_13  and  C_26
    7  A    between atoms: C_14  and  C_25
    8  A    between atoms: O_17  and  C_25
    9  A    between atoms: O_17  and  C_28
   10  A    between atoms: S_24  and  C_27
                            x       y       z     vdW  Elec       q    Type
                         _______ _______ _______ _____ _____    ______ ____

>  <TORSDO>
F 10

$$$$
=
 OpenBabel11072411053D

 30 31  0  0  1  0  0  0  0  0999 V2000
  161.2210  208.1170  154.3430 C   0  0  1  0  0  3  0  0  0  0  0  0
  160.8030  210.2860  155.7100 C   0  0  0  0  0  2  0  0  0  0  0  0
  161.9430  208.4210  156.5780 O   0  0  0  0  0  0  0  0  0  0  0  0
  160.8620  210.3870  153.1550 C   0  0  1  0  0  3  0  0  0  0  0  0
  161.2370  211.0770  154.4800 C   0  0  0  0  0  2  0  0  0  0  0  0
  160.5150  206.7990  154.6130 C   0  0  0  0  0  1  0  0  0  0  0  0
  160.4380  208.9080  153.2820 C   0  0  1  0  0  3  0  0  0  0  0  0
  161.3580  208.9000  155.6200 C   0  0  0  0  0  0  0  0  0  0  0  0
  160.4550  208.2540  152.0100 O   0  0  0  0  0  0  0  0  0  0  0  0
  162.5870  208.3700  151.1870 O   0  0  0  0  0  0  0  0  0  0  0  0
  161.5840  207.6500  151.4370 C   0  0  0  0  0  0  0  0  0  0  0  0
  161.5980  206.2050  151.1220 C   0  0  0  0  0  3  0  0  0  0  0  0
  161.1030  205.6360  150.0180 C   0  0  0  0  0  0  0  0  0  0  0  0
  161.2630  203.4290  150.9110 O   0  0  0  0  0  0  0  0  0  0  0  0
  161.2090  203.5490  148.6020 N   0  0  0  0  0  1  0  0  0  0  0  0
  161.1860  204.1610  149.8900 C   0  0  0  0  0  0  0  0  0  0  0  0
  160.5140  206.4430  149.0300 O   0  0  0  0  0  0  0  0  0  0  0  0
  162.5860  206.9030  148.1340 O   0  0  0  0  0  1  0  0  0  0  0  0
  161.2120  207.0090  147.9250 C   0  0  1  0  0  3  0  0  0  0  0  0
  161.9680  205.8010  145.9940 O   0  0  0  0  0  1  0  0  0  0  0  0
  160.8310  206.2990  146.6320 C   0  0  0  0  0  2  0  0  0  0  0  0
  159.8260  211.2000  152.3850 C   0  0  0  0  0  2  0  0  0  0  0  0
  159.3560  212.7240  153.2690 S   0  0  0  0  0  0  0  0  0  0  0  0
  159.1170  213.6470  151.7260 C   0  0  1  0  0  3  0  0  0  0  0  0
  157.5440  214.0830  149.8280 C   0  0  0  0  0  2  0  0  0  0  0  0
  160.2090  213.2590  150.7330 C   0  0  0  0  0  2  0  0  0  0  0  0
  158.6370  213.7010  148.8320 C   0  0  0  0  0  2  0  0  0  0  0  0
  160.0150  214.0090  149.4170 C   0  0  2  0  0  3  0  0  0  0  0  0
  157.7410  213.3300  151.1410 C   0  0  0  0  0  2  0  0  0  0  0  0
  161.0000  213.6190  148.5110 O   0  0  0  0  0  1  0  0  0  0  0  0
  1  6  1  1  0  0  0
  1  8  1  0  0  0  0
  4 22  1  1  0  0  0
  4  7  1  0  0  0  0
  4  5  1  0  0  0  0
  5  2  1  0  0  0  0
  7  9  1  6  0  0  0
  7  1  1  0  0  0  0
  8  2  1  0  0  0  0
  8  3  2  0  0  0  0
 10 11  2  0  0  0  0
 11  9  1  0  0  0  0
 12 11  1  0  0  0  0
 13 12  2  0  0  0  0
 15 16  1  0  0  0  0
 16 13  1  0  0  0  0
 16 14  2  0  0  0  0
 17 13  1  0  0  0  0
 19 18  1  1  0  0  0
 19 17  1  0  0  0  0
 20 21  1  0  0  0  0
 21 19  1  0  0  0  0
 22 23  1  0  0  0  0
 24 23  1  1  0  0  0
 25 29  1  0  0  0  0
 26 24  1  0  0  0  0
 27 28  1  0  0  0  0
 27 25  1  0  0  0  0
 28 30  1  6  0  0  0
 28 26  1  0  0  0  0
 29 24  1  0  0  0  0
M  END
>  <MODEL>
7

>  <REMARK>
 VINA RESULT:      -6.3      3.737      7.896
  Name = 
  10 active torsions:
  status: ('A' for Active; 'I' for Inactive)
    1  A    between atoms: O_5  and  C_13
    2  A    between atoms: O_5  and  C_21
    3  A    between atoms: C_6  and  S_24
    4  A    between atoms: C_10  and  C_27
    5  A    between atoms: C_11  and  C_21
    6  A    between atoms: C_13  and  C_26
    7  A    between atoms: C_14  and  C_25
    8  A    between atoms: O_17  and  C_25
    9  A    between atoms: O_17  and  C_28
   10  A    between atoms: S_24  and  C_27
                            x       y       z     vdW  Elec       q    Type
                         _______ _______ _______ _____ _____    ______ ____

>  <TORSDO>
F 10

$$$$
=
 OpenBabel11072411053D

 30 31  0  0  1  0  0  0  0  0999 V2000
  161.6310  207.2590  153.2370 C   0  0  1  0  0  3  0  0  0  0  0  0
  160.7600  209.5910  153.9800 C   0  0  0  0  0  2  0  0  0  0  0  0
  161.3960  207.9150  155.5010 O   0  0  0  0  0  0  0  0  0  0  0  0
  161.8510  209.3140  151.6830 C   0  0  1  0  0  3  0  0  0  0  0  0
  161.6780  210.2050  152.9270 C   0  0  0  0  0  2  0  0  0  0  0  0
  160.8370  205.9720  153.3930 C   0  0  0  0  0  1  0  0  0  0  0  0
  161.3680  207.8570  151.8460 C   0  0  1  0  0  3  0  0  0  0  0  0
  161.2630  208.2270  154.3290 C   0  0  0  0  0  0  0  0  0  0  0  0
  161.8790  207.0230  150.8020 O   0  0  0  0  0  0  0  0  0  0  0  0
  160.4560  206.8710  149.0170 O   0  0  0  0  0  0  0  0  0  0  0  0
  161.0900  206.2680  149.9230 C   0  0  0  0  0  0  0  0  0  0  0  0
  160.9930  204.7980  150.0570 C   0  0  0  0  0  3  0  0  0  0  0  0
  160.8910  203.9230  149.0510 C   0  0  0  0  0  0  0  0  0  0  0  0
  160.3000  201.6650  148.5520 O   0  0  0  0  0  0  0  0  0  0  0  0
  161.1800  202.0030  150.6640 N   0  0  0  0  0  1  0  0  0  0  0  0
  160.7760  202.4820  149.3830 C   0  0  0  0  0  0  0  0  0  0  0  0
  160.8820  204.3910  147.7260 O   0  0  0  0  0  0  0  0  0  0  0  0
  161.5960  203.2380  145.8640 O   0  0  0  0  0  1  0  0  0  0  0  0
  161.9470  204.2120  146.7980 C   0  0  1  0  0  3  0  0  0  0  0  0
  161.0840  206.2020  145.7740 O   0  0  0  0  0  1  0  0  0  0  0  0
  162.2610  205.5220  146.0860 C   0  0  0  0  0  2  0  0  0  0  0  0
  161.2400  209.9690  150.4480 C   0  0  0  0  0  2  0  0  0  0  0  0
  162.3330  209.8400  148.9930 S   0  0  0  0  0  0  0  0  0  0  0  0
  161.8500  211.4770  148.3800 C   0  0  1  0  0  3  0  0  0  0  0  0
  162.6910  213.6220  147.3980 C   0  0  0  0  0  2  0  0  0  0  0  0
  161.1710  212.2560  149.5030 C   0  0  0  0  0  2  0  0  0  0  0  0
  162.0070  214.4040  148.5180 C   0  0  0  0  0  2  0  0  0  0  0  0
  160.7750  213.6480  149.0140 C   0  0  2  0  0  3  0  0  0  0  0  0
  163.0870  212.2330  147.8920 C   0  0  0  0  0  2  0  0  0  0  0  0
  160.1870  214.3560  150.0600 O   0  0  0  0  0  1  0  0  0  0  0  0
  1  6  1  1  0  0  0
  1  8  1  0  0  0  0
  2  8  1  0  0  0  0
  4 22  1  6  0  0  0
  4  7  1  0  0  0  0
  4  5  1  0  0  0  0
  5  2  1  0  0  0  0
  7  9  1  6  0  0  0
  7  1  1  0  0  0  0
  8  3  2  0  0  0  0
 10 11  2  0  0  0  0
 11 12  1  0  0  0  0
 11  9  1  0  0  0  0
 13 16  1  0  0  0  0
 13 12  2  0  0  0  0
 14 16  2  0  0  0  0
 16 15  1  0  0  0  0
 17 13  1  0  0  0  0
 19 18  1  6  0  0  0
 19 17  1  0  0  0  0
 20 21  1  0  0  0  0
 21 19  1  0  0  0  0
 23 22  1  0  0  0  0
 24 23  1  1  0  0  0
 24 26  1  0  0  0  0
 25 29  1  0  0  0  0
 25 27  1  0  0  0  0
 27 28  1  0  0  0  0
 28 26  1  0  0  0  0
 28 30  1  1  0  0  0
 29 24  1  0  0  0  0
M  END
>  <MODEL>
8

>  <REMARK>
 VINA RESULT:      -6.3      3.621      7.860
  Name = 
  10 active torsions:
  status: ('A' for Active; 'I' for Inactive)
    1  A    between atoms: O_5  and  C_13
    2  A    between atoms: O_5  and  C_21
    3  A    between atoms: C_6  and  S_24
    4  A    between atoms: C_10  and  C_27
    5  A    between atoms: C_11  and  C_21
    6  A    between atoms: C_13  and  C_26
    7  A    between atoms: C_14  and  C_25
    8  A    between atoms: O_17  and  C_25
    9  A    between atoms: O_17  and  C_28
   10  A    between atoms: S_24  and  C_27
                            x       y       z     vdW  Elec       q    Type
                         _______ _______ _______ _____ _____    ______ ____

>  <TORSDO>
F 10

$$$$
=
 OpenBabel11072411053D

 30 31  0  0  1  0  0  0  0  0999 V2000
  161.4770  208.3300  155.5740 C   0  0  1  0  0  3  0  0  0  0  0  0
  161.4130  210.9070  155.8990 C   0  0  0  0  0  2  0  0  0  0  0  0
  162.6850  209.4720  157.2610 O   0  0  0  0  0  0  0  0  0  0  0  0
  160.9030  209.9030  153.6020 C   0  0  1  0  0  3  0  0  0  0  0  0
  161.5750  211.0430  154.3880 C   0  0  0  0  0  2  0  0  0  0  0  0
  160.8260  207.3420  156.5280 C   0  0  0  0  0  1  0  0  0  0  0  0
  160.4910  208.6770  154.4460 C   0  0  1  0  0  3  0  0  0  0  0  0
  161.9090  209.5610  156.3230 C   0  0  0  0  0  0  0  0  0  0  0  0
  160.2130  207.5470  153.6150 O   0  0  0  0  0  0  0  0  0  0  0  0
  161.9850  206.1330  153.3060 O   0  0  0  0  0  0  0  0  0  0  0  0
  161.1490  206.9170  152.7830 C   0  0  0  0  0  0  0  0  0  0  0  0
  161.1660  207.1690  151.3260 C   0  0  0  0  0  3  0  0  0  0  0  0
  160.8530  206.2860  150.3720 C   0  0  0  0  0  0  0  0  0  0  0  0
  160.2160  206.2060  148.0740 O   0  0  0  0  0  0  0  0  0  0  0  0
  161.9130  207.6980  148.5680 N   0  0  0  0  0  1  0  0  0  0  0  0
  160.9550  206.7160  148.9560 C   0  0  0  0  0  0  0  0  0  0  0  0
  160.4540  204.9880  150.7350 O   0  0  0  0  0  0  0  0  0  0  0  0
  161.3700  203.2590  151.9500 O   0  0  0  0  0  1  0  0  0  0  0  0
  161.2940  203.8390  150.6850 C   0  0  1  0  0  3  0  0  0  0  0  0
  161.2590  203.0830  148.4090 O   0  0  0  0  0  1  0  0  0  0  0  0
  160.7540  202.8260  149.6830 C   0  0  0  0  0  2  0  0  0  0  0  0
  159.7350  210.4230  152.7690 C   0  0  0  0  0  2  0  0  0  0  0  0
  159.9470  212.1760  152.3120 S   0  0  0  0  0  0  0  0  0  0  0  0
  158.5040  212.6910  153.2830 C   0  0  1  0  0  3  0  0  0  0  0  0
  157.7430  214.0000  155.2760 C   0  0  0  0  0  2  0  0  0  0  0  0
  157.7930  211.4530  153.8220 C   0  0  0  0  0  2  0  0  0  0  0  0
  157.0250  212.7650  155.8150 C   0  0  0  0  0  2  0  0  0  0  0  0
  156.5850  211.8640  154.6610 C   0  0  2  0  0  3  0  0  0  0  0  0
  158.9510  213.5850  154.4400 C   0  0  0  0  0  2  0  0  0  0  0  0
  155.9660  210.7250  155.1730 O   0  0  0  0  0  1  0  0  0  0  0  0
  1  8  1  0  0  0  0
  1  6  1  1  0  0  0
  2  8  1  0  0  0  0
  4 22  1  1  0  0  0
  4  5  1  0  0  0  0
  4  7  1  0  0  0  0
  5  2  1  0  0  0  0
  7  9  1  6  0  0  0
  7  1  1  0  0  0  0
  8  3  2  0  0  0  0
 11 10  2  0  0  0  0
 11  9  1  0  0  0  0
 12 11  1  0  0  0  0
 13 17  1  0  0  0  0
 13 12  2  0  0  0  0
 14 16  2  0  0  0  0
 15 16  1  0  0  0  0
 16 13  1  0  0  0  0
 19 17  1  0  0  0  0
 19 18  1  1  0  0  0
 20 21  1  0  0  0  0
 21 19  1  0  0  0  0
 23 22  1  0  0  0  0
 24 23  1  1  0  0  0
 24 26  1  0  0  0  0
 24 29  1  0  0  0  0
 25 27  1  0  0  0  0
 26 28  1  0  0  0  0
 28 30  1  1  0  0  0
 28 27  1  0  0  0  0
 29 25  1  0  0  0  0
M  END
>  <MODEL>
9

>  <REMARK>
 VINA RESULT:      -6.3      2.995      8.355
  Name = 
  10 active torsions:
  status: ('A' for Active; 'I' for Inactive)
    1  A    between atoms: O_5  and  C_13
    2  A    between atoms: O_5  and  C_21
    3  A    between atoms: C_6  and  S_24
    4  A    between atoms: C_10  and  C_27
    5  A    between atoms: C_11  and  C_21
    6  A    between atoms: C_13  and  C_26
    7  A    between atoms: C_14  and  C_25
    8  A    between atoms: O_17  and  C_25
    9  A    between atoms: O_17  and  C_28
   10  A    between atoms: S_24  and  C_27
                            x       y       z     vdW  Elec       q    Type
                         _______ _______ _______ _____ _____    ______ ____

>  <TORSDO>
F 10

$$$$
