=
 OpenBabel11072414353D

 36 40  0  0  1  0  0  0  0  0999 V2000
  161.5860  204.3150  147.3620 C   0  0  0  0  0  0  0  0  0  0  0  0
  160.1330  200.5760  148.1480 O   0  0  0  0  0  0  0  0  0  0  0  0
  161.9570  211.1400  150.3380 C   0  0  0  0  0  2  0  0  0  0  0  0
  161.8790  207.0280  148.8000 C   0  0  0  0  0  0  0  0  0  0  0  0
  162.4090  209.5340  148.6990 C   0  0  0  0  0  2  0  0  0  0  0  0
  161.8100  208.3100  149.3260 C   0  0  0  0  0  0  0  0  0  0  0  0
  161.6180  210.7220  148.9890 N   0  0  0  0  0  2  0  0  0  0  0  0
  161.1750  203.9810  148.6050 C   0  0  2  0  0  3  0  0  0  0  0  0
  161.5000  206.1700  149.8220 C   0  0  0  0  0  0  0  0  0  0  0  0
  161.2120  203.4240  146.2070 C   0  0  2  0  0  3  0  0  0  0  0  0
  160.8960  201.0950  145.5950 O   0  0  0  0  0  1  0  0  0  0  0  0
  160.5660  202.7360  148.8260 O   0  0  0  0  0  0  0  0  0  0  0  0
  159.8850  203.7040  145.8500 O   0  0  0  0  0  1  0  0  0  0  0  0
  162.3200  206.7250  147.5800 C   0  0  0  0  0  3  0  0  0  0  0  0
  160.6350  201.7020  147.8850 C   0  0  0  0  0  0  0  0  0  0  0  0
  161.2620  204.8580  149.7820 C   0  0  0  0  0  3  0  0  0  0  0  0
  162.6420  205.3440  147.1150 C   0  0  0  0  0  3  0  0  0  0  0  0
  161.4340  208.1420  150.6550 C   0  0  0  0  0  0  0  0  0  0  0  0
  161.3640  201.9430  146.6030 C   0  0  2  0  0  3  0  0  0  0  0  0
  160.9370  210.5650  151.2990 C   0  0  0  0  0  2  0  0  0  0  0  0
  161.2100  209.1650  151.6500 N   0  0  0  0  0  0  0  0  0  0  0  0
  161.2870  206.8590  150.9130 O   0  0  0  0  0  0  0  0  0  0  0  0
  160.6690  208.6870  152.9240 C   0  0  2  0  0  3  0  0  0  0  0  0
  161.4120  207.6180  155.1490 C   0  0  0  0  0  2  0  0  0  0  0  0
  160.2970  209.8600  153.8380 C   0  0  0  0  0  2  0  0  0  0  0  0
  160.0250  208.0520  155.5460 C   0  0  0  0  0  0  0  0  0  0  0  0
  159.4760  209.3750  155.0470 C   0  0  1  0  0  3  0  0  0  0  0  0
  161.6120  207.6880  153.6180 C   0  0  0  0  0  2  0  0  0  0  0  0
  159.3180  207.3000  156.2020 O   0  0  0  0  0  0  0  0  0  0  0  0
  159.4730  210.4470  156.1530 C   0  0  1  0  0  3  0  0  0  0  0  0
  160.4400  212.4990  155.4740 O   0  0  0  0  0  0  0  0  0  0  0  0
  161.9530  211.0340  156.5530 C   0  0  0  0  0  1  0  0  0  0  0  0
  160.6070  211.4100  156.0150 C   0  0  0  0  0  0  0  0  0  0  0  0
  158.1810  211.2090  156.1970 C   0  0  0  0  0  0  0  0  0  0  0  0
  157.8240  211.7790  157.2610 O   0  0  0  0  0  1  0  0  0  0  0  0
  157.3800  211.2940  155.0610 O   0  0  0  0  0  0  0  0  0  0  0  0
  1  8  1  0  0  0  0
  3 20  1  0  0  0  0
  4  6  1  0  0  0  0
  4  9  1  0  0  0  0
  5  7  1  0  0  0  0
  5  6  1  0  0  0  0
  6 18  2  0  0  0  0
  7  3  1  0  0  0  0
  8 12  1  0  0  0  0
  8 16  1  6  0  0  0
  9 22  1  0  0  0  0
 10 13  1  1  0  0  0
 10 19  1  0  0  0  0
 10  1  1  0  0  0  0
 14  4  2  0  0  0  0
 15  2  2  0  0  0  0
 15 12  1  0  0  0  0
 16  9  2  0  0  0  0
 17  1  2  0  0  0  0
 17 14  1  0  0  0  0
 18 22  1  0  0  0  0
 18 21  1  0  0  0  0
 19 11  1  6  0  0  0
 19 15  1  0  0  0  0
 20 21  1  0  0  0  0
 23 21  1  6  0  0  0
 23 28  1  0  0  0  0
 23 25  1  0  0  0  0
 24 26  1  0  0  0  0
 25 27  1  0  0  0  0
 26 29  2  0  0  0  0
 27 26  1  0  0  0  0
 27 30  1  1  0  0  0
 28 24  1  0  0  0  0
 30 33  1  6  0  0  0
 30 34  1  0  0  0  0
 31 33  2  0  0  0  0
 33 32  1  0  0  0  0
 34 35  1  0  0  0  0
 36 34  2  0  0  0  0
M  END
>  <MODEL>
1

>  <REMARK>
 VINA RESULT:      -6.5      0.000      0.000
  Name = 
  4 active torsions:
  status: ('A' for Active; 'I' for Inactive)
    1  A    between atoms: C_2  and  N_34
    2  A    between atoms: C_10  and  C_11
    3  A    between atoms: C_10  and  C_19
    4  A    between atoms: C_10  and  C_28
                            x       y       z     vdW  Elec       q    Type
                         _______ _______ _______ _____ _____    ______ ____

>  <TORSDO>
F 4

$$$$
=
 OpenBabel11072414353D

 36 40  0  0  1  0  0  0  0  0999 V2000
  157.9300  213.4950  148.2830 C   0  0  0  0  0  0  0  0  0  0  0  0
  160.7850  212.4130  145.5660 O   0  0  0  0  0  0  0  0  0  0  0  0
  156.3900  213.0620  155.5650 C   0  0  0  0  0  2  0  0  0  0  0  0
  157.5210  213.4590  151.3400 C   0  0  0  0  0  0  0  0  0  0  0  0
  155.9690  213.7290  153.3630 C   0  0  0  0  0  2  0  0  0  0  0  0
  157.2090  213.2410  152.6750 C   0  0  0  0  0  0  0  0  0  0  0  0
  155.5450  212.8110  154.4110 N   0  0  0  0  0  2  0  0  0  0  0  0
  159.1500  213.0820  148.6910 C   0  0  0  0  0  0  0  0  0  0  0  0
  158.8630  213.1390  151.2000 C   0  0  0  0  0  0  0  0  0  0  0  0
  157.5180  213.2510  146.8550 C   0  0  2  0  0  3  0  0  0  0  0  0
  158.3790  213.1990  144.5850 O   0  0  0  0  0  1  0  0  0  0  0  0
  160.0720  212.5980  147.7490 O   0  0  0  0  0  0  0  0  0  0  0  0
  157.1110  211.9150  146.7390 O   0  0  0  0  0  1  0  0  0  0  0  0
  156.6870  213.9680  150.4340 C   0  0  0  0  0  3  0  0  0  0  0  0
  159.9010  212.8040  146.3760 C   0  0  0  0  0  0  0  0  0  0  0  0
  159.5980  213.0400  150.0910 C   0  0  0  0  0  3  0  0  0  0  0  0
  157.0960  214.4460  149.0810 C   0  0  0  0  0  2  0  0  0  0  0  0
  158.4030  212.8430  153.2700 C   0  0  0  0  0  0  0  0  0  0  0  0
  158.6930  213.5440  145.9030 C   0  0  2  0  0  3  0  0  0  0  0  0
  157.5420  212.0770  155.5520 C   0  0  0  0  0  2  0  0  0  0  0  0
  158.6280  212.4820  154.6510 N   0  0  0  0  0  0  0  0  0  0  0  0
  159.3600  212.8210  152.3670 O   0  0  0  0  0  0  0  0  0  0  0  0
  159.9610  211.9540  154.9470 C   0  0  2  0  0  3  0  0  0  0  0  0
  161.4670  211.2920  156.9320 C   0  0  0  0  0  2  0  0  0  0  0  0
  160.0390  210.4550  154.6410 C   0  0  0  0  0  2  0  0  0  0  0  0
  162.2390  210.6340  155.8190 C   0  0  0  0  0  0  0  0  0  0  0  0
  161.4980  209.9610  154.6790 C   0  0  1  0  0  3  0  0  0  0  0  0
  160.4090  212.2770  156.3840 C   0  0  0  0  0  2  0  0  0  0  0  0
  163.4600  210.7150  155.7970 O   0  0  0  0  0  0  0  0  0  0  0  0
  161.5370  208.4260  154.7990 C   0  0  1  0  0  3  0  0  0  0  0  0
  159.4440  207.6740  155.6090 O   0  0  0  0  0  0  0  0  0  0  0  0
  161.1570  207.6880  157.2410 C   0  0  0  0  0  1  0  0  0  0  0  0
  160.6200  207.9140  155.8600 C   0  0  0  0  0  0  0  0  0  0  0  0
  161.2120  207.7510  153.4980 C   0  0  0  0  0  0  0  0  0  0  0  0
  160.8570  208.4400  152.5060 O   0  0  0  0  0  0  0  0  0  0  0  0
  161.3110  206.3670  153.3840 O   0  0  0  0  0  1  0  0  0  0  0  0
  1  8  2  0  0  0  0
  1 17  1  0  0  0  0
  2 15  2  0  0  0  0
  4  6  1  0  0  0  0
  5  7  1  0  0  0  0
  6 18  2  0  0  0  0
  6  5  1  0  0  0  0
  7  3  1  0  0  0  0
  8 16  1  0  0  0  0
  9  4  1  0  0  0  0
  9 22  1  0  0  0  0
 10 13  1  1  0  0  0
 10  1  1  0  0  0  0
 12  8  1  0  0  0  0
 14  4  2  0  0  0  0
 15 12  1  0  0  0  0
 16  9  2  0  0  0  0
 17 14  1  0  0  0  0
 18 21  1  0  0  0  0
 19 11  1  6  0  0  0
 19 15  1  0  0  0  0
 19 10  1  0  0  0  0
 20  3  1  0  0  0  0
 21 23  1  0  0  0  0
 21 20  1  0  0  0  0
 22 18  1  0  0  0  0
 23 25  1  1  0  0  0
 23 28  1  0  0  0  0
 25 27  1  0  0  0  0
 26 24  1  0  0  0  0
 27 30  1  1  0  0  0
 27 26  1  0  0  0  0
 28 24  1  0  0  0  0
 29 26  2  0  0  0  0
 30 34  1  6  0  0  0
 30 33  1  0  0  0  0
 31 33  2  0  0  0  0
 33 32  1  0  0  0  0
 35 34  2  0  0  0  0
 36 34  1  0  0  0  0
M  END
>  <MODEL>
2

>  <REMARK>
 VINA RESULT:      -6.0      5.026      7.698
  Name = 
  4 active torsions:
  status: ('A' for Active; 'I' for Inactive)
    1  A    between atoms: C_2  and  N_34
    2  A    between atoms: C_10  and  C_11
    3  A    between atoms: C_10  and  C_19
    4  A    between atoms: C_10  and  C_28
                            x       y       z     vdW  Elec       q    Type
                         _______ _______ _______ _____ _____    ______ ____

>  <TORSDO>
F 4

$$$$
=
 OpenBabel11072414353D

 36 40  0  0  1  0  0  0  0  0999 V2000
  161.6910  204.5890  147.9570 C   0  0  0  0  0  0  0  0  0  0  0  0
  160.1490  201.1010  149.4270 O   0  0  0  0  0  0  0  0  0  0  0  0
  162.0890  211.8690  149.5130 C   0  0  0  0  0  2  0  0  0  0  0  0
  161.9870  207.5320  148.8300 C   0  0  0  0  0  0  0  0  0  0  0  0
  162.5630  209.9610  148.2460 C   0  0  0  0  0  2  0  0  0  0  0  0
  161.9230  208.8950  149.0850 C   0  0  0  0  0  0  0  0  0  0  0  0
  161.7850  211.1920  148.2650 N   0  0  0  0  0  2  0  0  0  0  0  0
  161.2360  204.5170  149.2270 C   0  0  2  0  0  3  0  0  0  0  0  0
  161.5610  206.9020  149.9900 C   0  0  0  0  0  0  0  0  0  0  0  0
  161.3360  203.4880  146.9910 C   0  0  2  0  0  3  0  0  0  0  0  0
  160.9990  201.0870  146.8490 O   0  0  0  0  0  1  0  0  0  0  0  0
  160.5990  203.3480  149.6720 O   0  0  0  0  0  0  0  0  0  0  0  0
  160.0270  203.7050  146.5420 O   0  0  0  0  0  1  0  0  0  0  0  0
  162.4600  206.9860  147.7110 C   0  0  0  0  0  3  0  0  0  0  0  0
  160.6780  202.1460  148.9600 C   0  0  0  0  0  0  0  0  0  0  0  0
  161.3020  205.6110  150.2060 C   0  0  0  0  0  3  0  0  0  0  0  0
  162.7720  205.5360  147.5430 C   0  0  0  0  0  3  0  0  0  0  0  0
  161.5040  209.0010  150.4080 C   0  0  0  0  0  0  0  0  0  0  0  0
  161.4510  202.1160  147.6820 C   0  0  2  0  0  3  0  0  0  0  0  0
  161.0300  211.5100  150.5360 C   0  0  0  0  0  2  0  0  0  0  0  0
  161.2670  210.2060  151.1690 N   0  0  0  0  0  0  0  0  0  0  0  0
  161.3270  207.7990  150.9130 O   0  0  0  0  0  0  0  0  0  0  0  0
  160.6800  210.0000  152.4940 C   0  0  2  0  0  3  0  0  0  0  0  0
  161.2520  210.1930  155.0000 C   0  0  0  0  0  2  0  0  0  0  0  0
  159.6880  211.1180  152.8360 C   0  0  0  0  0  2  0  0  0  0  0  0
  159.7550  210.0730  155.1080 C   0  0  0  0  0  0  0  0  0  0  0  0
  158.8670  210.7600  154.0880 C   0  0  1  0  0  3  0  0  0  0  0  0
  161.7510  209.8230  153.5850 C   0  0  0  0  0  2  0  0  0  0  0  0
  159.2640  209.3570  155.9700 O   0  0  0  0  0  0  0  0  0  0  0  0
  158.2010  212.0220  154.6670 C   0  0  1  0  0  3  0  0  0  0  0  0
  156.3500  210.6700  155.2600 O   0  0  0  0  0  0  0  0  0  0  0  0
  155.8380  212.9730  155.0790 C   0  0  0  0  0  1  0  0  0  0  0  0
  156.7660  211.7990  155.0180 C   0  0  0  0  0  0  0  0  0  0  0  0
  158.9280  212.5400  155.8730 C   0  0  0  0  0  0  0  0  0  0  0  0
  159.9300  213.2900  155.7270 O   0  0  0  0  0  0  0  0  0  0  0  0
  158.4940  212.2030  157.1520 O   0  0  0  0  0  1  0  0  0  0  0  0
  1  8  1  0  0  0  0
  3 20  1  0  0  0  0
  4  6  1  0  0  0  0
  4  9  1  0  0  0  0
  5  7  1  0  0  0  0
  5  6  1  0  0  0  0
  6 18  2  0  0  0  0
  7  3  1  0  0  0  0
  8 12  1  0  0  0  0
  8 16  1  6  0  0  0
  9 16  2  0  0  0  0
  9 22  1  0  0  0  0
 10 13  1  1  0  0  0
 10 19  1  0  0  0  0
 10  1  1  0  0  0  0
 14  4  2  0  0  0  0
 15  2  2  0  0  0  0
 15 12  1  0  0  0  0
 17 14  1  0  0  0  0
 17  1  2  0  0  0  0
 18 22  1  0  0  0  0
 18 21  1  0  0  0  0
 19 11  1  6  0  0  0
 19 15  1  0  0  0  0
 20 21  1  0  0  0  0
 23 21  1  6  0  0  0
 23 25  1  0  0  0  0
 23 28  1  0  0  0  0
 24 26  1  0  0  0  0
 25 27  1  0  0  0  0
 26 29  2  0  0  0  0
 27 30  1  1  0  0  0
 27 26  1  0  0  0  0
 28 24  1  0  0  0  0
 30 33  1  1  0  0  0
 30 34  1  0  0  0  0
 33 32  1  0  0  0  0
 33 31  2  0  0  0  0
 34 36  1  0  0  0  0
 35 34  2  0  0  0  0
M  END
>  <MODEL>
3

>  <REMARK>
 VINA RESULT:      -6.0      1.254      2.042
  Name = 
  4 active torsions:
  status: ('A' for Active; 'I' for Inactive)
    1  A    between atoms: C_2  and  N_34
    2  A    between atoms: C_10  and  C_11
    3  A    between atoms: C_10  and  C_19
    4  A    between atoms: C_10  and  C_28
                            x       y       z     vdW  Elec       q    Type
                         _______ _______ _______ _____ _____    ______ ____

>  <TORSDO>
F 4

$$$$
=
 OpenBabel11072414353D

 36 40  0  0  1  0  0  0  0  0999 V2000
  161.6750  206.7160  148.9860 C   0  0  0  0  0  0  0  0  0  0  0  0
  160.5640  203.1160  150.5710 O   0  0  0  0  0  0  0  0  0  0  0  0
  161.0980  214.0400  150.2520 C   0  0  0  0  0  2  0  0  0  0  0  0
  161.5700  209.7040  149.7440 C   0  0  0  0  0  0  0  0  0  0  0  0
  161.8410  212.1630  149.0710 C   0  0  0  0  0  2  0  0  0  0  0  0
  161.3260  211.0560  149.9420 C   0  0  0  0  0  0  0  0  0  0  0  0
  160.9100  213.2830  149.0280 N   0  0  0  0  0  2  0  0  0  0  0  0
  161.2060  206.6340  150.2500 C   0  0  2  0  0  3  0  0  0  0  0  0
  161.2050  209.0680  150.9210 C   0  0  0  0  0  0  0  0  0  0  0  0
  161.4860  205.5420  148.0600 C   0  0  2  0  0  3  0  0  0  0  0  0
  161.4650  203.1150  148.0100 O   0  0  0  0  0  1  0  0  0  0  0  0
  160.7150  205.4100  150.7320 O   0  0  0  0  0  0  0  0  0  0  0  0
  160.1700  205.5710  147.5810 O   0  0  0  0  0  1  0  0  0  0  0  0
  162.1340  209.1810  148.6560 C   0  0  0  0  0  3  0  0  0  0  0  0
  160.9650  204.2020  150.0710 C   0  0  0  0  0  0  0  0  0  0  0  0
  161.1090  207.7640  151.1850 C   0  0  0  0  0  3  0  0  0  0  0  0
  162.6340  207.7790  148.5520 C   0  0  0  0  0  3  0  0  0  0  0  0
  160.8690  211.1570  151.2530 C   0  0  0  0  0  0  0  0  0  0  0  0
  161.7620  204.2240  148.8080 C   0  0  2  0  0  3  0  0  0  0  0  0
  160.0720  213.5860  151.2710 C   0  0  0  0  0  2  0  0  0  0  0  0
  160.4620  212.3490  151.9600 N   0  0  0  0  0  0  0  0  0  0  0  0
  160.8360  209.9620  151.8030 O   0  0  0  0  0  0  0  0  0  0  0  0
  159.8770  212.1200  153.2830 C   0  0  2  0  0  3  0  0  0  0  0  0
  157.9360  210.8750  154.4350 C   0  0  0  0  0  2  0  0  0  0  0  0
  160.7290  211.1420  154.0980 C   0  0  0  0  0  2  0  0  0  0  0  0
  158.7660  211.1940  155.6500 C   0  0  0  0  0  0  0  0  0  0  0  0
  160.2800  211.1180  155.5720 C   0  0  1  0  0  3  0  0  0  0  0  0
  158.4050  211.6760  153.2000 C   0  0  0  0  0  2  0  0  0  0  0  0
  158.2220  211.5910  156.6700 O   0  0  0  0  0  0  0  0  0  0  0  0
  160.8270  209.8610  156.2750 C   0  0  1  0  0  3  0  0  0  0  0  0
  161.2850  208.3960  154.4730 O   0  0  0  0  0  0  0  0  0  0  0  0
  159.5600  207.6440  155.9070 C   0  0  0  0  0  1  0  0  0  0  0  0
  160.6100  208.6210  155.4720 C   0  0  0  0  0  0  0  0  0  0  0  0
  162.2850  209.9890  156.6030 C   0  0  0  0  0  0  0  0  0  0  0  0
  162.8620  209.0830  157.2590 O   0  0  0  0  0  1  0  0  0  0  0  0
  163.0040  211.1020  156.1740 O   0  0  0  0  0  0  0  0  0  0  0  0
  1  8  1  0  0  0  0
  3 20  1  0  0  0  0
  4  6  1  0  0  0  0
  4  9  1  0  0  0  0
  5  6  1  0  0  0  0
  6 18  2  0  0  0  0
  7  5  1  0  0  0  0
  7  3  1  0  0  0  0
  8 12  1  0  0  0  0
  8 16  1  6  0  0  0
  9 16  2  0  0  0  0
  9 22  1  0  0  0  0
 10 13  1  1  0  0  0
 10 19  1  0  0  0  0
 10  1  1  0  0  0  0
 14  4  2  0  0  0  0
 15  2  2  0  0  0  0
 15 12  1  0  0  0  0
 17 14  1  0  0  0  0
 17  1  2  0  0  0  0
 18 22  1  0  0  0  0
 18 21  1  0  0  0  0
 19 11  1  6  0  0  0
 19 15  1  0  0  0  0
 20 21  1  0  0  0  0
 23 21  1  6  0  0  0
 23 25  1  0  0  0  0
 24 26  1  0  0  0  0
 25 27  1  0  0  0  0
 26 29  2  0  0  0  0
 27 26  1  0  0  0  0
 27 30  1  6  0  0  0
 28 23  1  0  0  0  0
 28 24  1  0  0  0  0
 30 33  1  6  0  0  0
 30 34  1  0  0  0  0
 31 33  2  0  0  0  0
 33 32  1  0  0  0  0
 34 35  1  0  0  0  0
 36 34  2  0  0  0  0
M  END
>  <MODEL>
4

>  <REMARK>
 VINA RESULT:      -5.7      1.911      3.471
  Name = 
  4 active torsions:
  status: ('A' for Active; 'I' for Inactive)
    1  A    between atoms: C_2  and  N_34
    2  A    between atoms: C_10  and  C_11
    3  A    between atoms: C_10  and  C_19
    4  A    between atoms: C_10  and  C_28
                            x       y       z     vdW  Elec       q    Type
                         _______ _______ _______ _____ _____    ______ ____

>  <TORSDO>
F 4

$$$$
=
 OpenBabel11072414353D

 36 40  0  0  1  0  0  0  0  0999 V2000
  161.5320  211.4310  149.6890 C   0  0  0  0  0  0  0  0  0  0  0  0
  161.4490  212.4530  145.7320 O   0  0  0  0  0  0  0  0  0  0  0  0
  161.1990  205.4670  154.1500 C   0  0  0  0  0  2  0  0  0  0  0  0
  161.6210  208.8740  151.4120 C   0  0  0  0  0  0  0  0  0  0  0  0
  161.4280  207.7520  153.7090 C   0  0  0  0  0  2  0  0  0  0  0  0
  161.4210  207.7560  152.2090 C   0  0  0  0  0  0  0  0  0  0  0  0
  160.5200  206.7470  154.2430 N   0  0  0  0  0  2  0  0  0  0  0  0
  161.6890  210.4920  148.7300 C   0  0  0  0  0  0  0  0  0  0  0  0
  161.8600  208.3980  150.1320 C   0  0  0  0  0  0  0  0  0  0  0  0
  161.0090  212.7890  149.3010 C   0  0  2  0  0  3  0  0  0  0  0  0
  161.0960  214.4530  147.5340 O   0  0  0  0  0  1  0  0  0  0  0  0
  161.5340  210.8440  147.3800 O   0  0  0  0  0  0  0  0  0  0  0  0
  159.6180  212.6970  149.1540 O   0  0  0  0  0  1  0  0  0  0  0  0
  161.6600  210.1300  151.8540 C   0  0  0  0  0  3  0  0  0  0  0  0
  161.5220  212.1790  146.9610 C   0  0  0  0  0  0  0  0  0  0  0  0
  161.9640  209.0710  148.9840 C   0  0  0  0  0  3  0  0  0  0  0  0
  162.1330  211.2960  151.0520 C   0  0  0  0  0  2  0  0  0  0  0  0
  161.6000  206.6660  151.3630 C   0  0  0  0  0  0  0  0  0  0  0  0
  161.6620  213.2570  147.9870 C   0  0  2  0  0  3  0  0  0  0  0  0
  160.7690  204.7770  152.8710 C   0  0  0  0  0  2  0  0  0  0  0  0
  161.4930  205.2620  151.6890 N   0  0  0  0  0  0  0  0  0  0  0  0
  161.8830  207.0900  150.1490 O   0  0  0  0  0  0  0  0  0  0  0  0
  161.5810  204.3490  150.5490 C   0  0  2  0  0  3  0  0  0  0  0  0
  160.3290  202.3840  149.4450 C   0  0  0  0  0  2  0  0  0  0  0  0
  161.2110  205.0620  149.2440 C   0  0  0  0  0  2  0  0  0  0  0  0
  161.2570  202.7390  148.3130 C   0  0  0  0  0  0  0  0  0  0  0  0
  161.5720  204.1950  148.0230 C   0  0  1  0  0  3  0  0  0  0  0  0
  160.7540  203.0680  150.7640 C   0  0  0  0  0  2  0  0  0  0  0  0
  161.8160  201.8510  147.6850 O   0  0  0  0  0  0  0  0  0  0  0  0
  160.8310  204.7020  146.7710 C   0  0  1  0  0  3  0  0  0  0  0  0
  160.1260  206.8620  146.1070 O   0  0  0  0  0  0  0  0  0  0  0  0
  162.3670  206.7730  146.8600 C   0  0  0  0  0  1  0  0  0  0  0  0
  161.0350  206.1640  146.5430 C   0  0  0  0  0  0  0  0  0  0  0  0
  161.2300  203.9490  145.5370 C   0  0  0  0  0  0  0  0  0  0  0  0
  160.3630  203.3070  144.8860 O   0  0  0  0  0  0  0  0  0  0  0  0
  162.5530  203.9650  145.1030 O   0  0  0  0  0  1  0  0  0  0  0  0
  1 17  1  0  0  0  0
  2 15  2  0  0  0  0
  3  7  1  0  0  0  0
  4 14  2  0  0  0  0
  4  6  1  0  0  0  0
  5  7  1  0  0  0  0
  6  5  1  0  0  0  0
  8 16  1  0  0  0  0
  8  1  2  0  0  0  0
  9 22  1  0  0  0  0
  9  4  1  0  0  0  0
 10 13  1  6  0  0  0
 10  1  1  0  0  0  0
 12  8  1  0  0  0  0
 15 12  1  0  0  0  0
 15 19  1  0  0  0  0
 16  9  2  0  0  0  0
 17 14  1  0  0  0  0
 18 21  1  0  0  0  0
 18  6  2  0  0  0  0
 19 11  1  6  0  0  0
 19 10  1  0  0  0  0
 20  3  1  0  0  0  0
 21 20  1  0  0  0  0
 22 18  1  0  0  0  0
 23 25  1  6  0  0  0
 23 28  1  0  0  0  0
 23 21  1  0  0  0  0
 24 28  1  0  0  0  0
 26 24  1  0  0  0  0
 27 30  1  6  0  0  0
 27 26  1  0  0  0  0
 27 25  1  0  0  0  0
 29 26  2  0  0  0  0
 30 34  1  6  0  0  0
 31 33  2  0  0  0  0
 33 30  1  0  0  0  0
 33 32  1  0  0  0  0
 35 34  2  0  0  0  0
 36 34  1  0  0  0  0
M  END
>  <MODEL>
5

>  <REMARK>
 VINA RESULT:      -5.5      3.284      8.694
  Name = 
  4 active torsions:
  status: ('A' for Active; 'I' for Inactive)
    1  A    between atoms: C_2  and  N_34
    2  A    between atoms: C_10  and  C_11
    3  A    between atoms: C_10  and  C_19
    4  A    between atoms: C_10  and  C_28
                            x       y       z     vdW  Elec       q    Type
                         _______ _______ _______ _____ _____    ______ ____

>  <TORSDO>
F 4

$$$$
=
 OpenBabel11072414353D

 36 40  0  0  1  0  0  0  0  0999 V2000
  159.9970  213.5590  148.3190 C   0  0  0  0  0  0  0  0  0  0  0  0
  160.7690  212.0340  144.6060 O   0  0  0  0  0  0  0  0  0  0  0  0
  159.7160  211.5210  155.4840 C   0  0  0  0  0  2  0  0  0  0  0  0
  160.1450  212.6530  151.2640 C   0  0  0  0  0  0  0  0  0  0  0  0
  159.5790  213.0620  153.7300 C   0  0  0  0  0  2  0  0  0  0  0  0
  159.9750  212.2040  152.5650 C   0  0  0  0  0  0  0  0  0  0  0  0
  158.7880  212.3140  154.6980 N   0  0  0  0  0  2  0  0  0  0  0  0
  160.5950  212.3560  148.1770 C   0  0  0  0  0  0  0  0  0  0  0  0
  160.8120  211.6410  150.5900 C   0  0  0  0  0  0  0  0  0  0  0  0
  159.3290  214.1860  147.1230 C   0  0  2  0  0  3  0  0  0  0  0  0
  159.5420  214.4530  144.7190 O   0  0  0  0  0  1  0  0  0  0  0  0
  160.7390  211.7960  146.8980 O   0  0  0  0  0  0  0  0  0  0  0  0
  158.0780  213.5770  146.9510 O   0  0  0  0  0  1  0  0  0  0  0  0
  159.8050  213.8630  150.8220 C   0  0  0  0  0  3  0  0  0  0  0  0
  160.5660  212.5560  145.7360 C   0  0  0  0  0  0  0  0  0  0  0  0
  161.0790  211.5230  149.2880 C   0  0  0  0  0  3  0  0  0  0  0  0
  160.2260  214.4340  149.5100 C   0  0  0  0  0  2  0  0  0  0  0  0
  160.5940  210.9580  152.6080 C   0  0  0  0  0  0  0  0  0  0  0  0
  160.2000  213.9990  145.8670 C   0  0  2  0  0  3  0  0  0  0  0  0
  159.7970  210.1300  154.8910 C   0  0  0  0  0  2  0  0  0  0  0  0
  160.6950  210.0550  153.7310 N   0  0  0  0  0  0  0  0  0  0  0  0
  161.0980  210.6750  151.4250 O   0  0  0  0  0  0  0  0  0  0  0  0
  161.2720  208.7440  153.4270 C   0  0  2  0  0  3  0  0  0  0  0  0
  161.0610  206.2570  154.0700 C   0  0  0  0  0  2  0  0  0  0  0  0
  160.7860  208.2320  152.0680 C   0  0  0  0  0  2  0  0  0  0  0  0
  161.8790  206.1090  152.8140 C   0  0  0  0  0  0  0  0  0  0  0  0
  161.6000  207.0030  151.6210 C   0  0  1  0  0  3  0  0  0  0  0  0
  161.0240  207.7240  154.5530 C   0  0  0  0  0  2  0  0  0  0  0  0
  162.8170  205.3240  152.7890 O   0  0  0  0  0  0  0  0  0  0  0  0
  160.8550  206.2490  150.5020 C   0  0  1  0  0  3  0  0  0  0  0  0
  162.1220  207.5670  148.9980 O   0  0  0  0  0  0  0  0  0  0  0  0
  160.5200  206.1800  147.9460 C   0  0  0  0  0  1  0  0  0  0  0  0
  161.2340  206.7330  149.1410 C   0  0  0  0  0  0  0  0  0  0  0  0
  161.0760  204.7670  150.5790 C   0  0  0  0  0  0  0  0  0  0  0  0
  162.0130  204.2370  149.9250 O   0  0  0  0  0  0  0  0  0  0  0  0
  160.2540  203.9770  151.3780 O   0  0  0  0  0  1  0  0  0  0  0  0
  1 17  1  0  0  0  0
  2 15  2  0  0  0  0
  4  6  1  0  0  0  0
  5  7  1  0  0  0  0
  6 18  2  0  0  0  0
  6  5  1  0  0  0  0
  7  3  1  0  0  0  0
  8  1  2  0  0  0  0
  8 16  1  0  0  0  0
  9  4  1  0  0  0  0
  9 22  1  0  0  0  0
 10 13  1  6  0  0  0
 10  1  1  0  0  0  0
 12  8  1  0  0  0  0
 14  4  2  0  0  0  0
 15 19  1  0  0  0  0
 15 12  1  0  0  0  0
 16  9  2  0  0  0  0
 17 14  1  0  0  0  0
 18 21  1  0  0  0  0
 19 11  1  6  0  0  0
 19 10  1  0  0  0  0
 20  3  1  0  0  0  0
 21 20  1  0  0  0  0
 22 18  1  0  0  0  0
 23 25  1  6  0  0  0
 23 21  1  0  0  0  0
 23 28  1  0  0  0  0
 24 28  1  0  0  0  0
 26 24  1  0  0  0  0
 27 30  1  6  0  0  0
 27 25  1  0  0  0  0
 27 26  1  0  0  0  0
 29 26  2  0  0  0  0
 30 33  1  6  0  0  0
 30 34  1  0  0  0  0
 31 33  2  0  0  0  0
 32 33  1  0  0  0  0
 34 36  1  0  0  0  0
 35 34  2  0  0  0  0
M  END
>  <MODEL>
6

>  <REMARK>
 VINA RESULT:      -5.3      3.800      7.796
  Name = 
  4 active torsions:
  status: ('A' for Active; 'I' for Inactive)
    1  A    between atoms: C_2  and  N_34
    2  A    between atoms: C_10  and  C_11
    3  A    between atoms: C_10  and  C_19
    4  A    between atoms: C_10  and  C_28
                            x       y       z     vdW  Elec       q    Type
                         _______ _______ _______ _____ _____    ______ ____

>  <TORSDO>
F 4

$$$$
=
 OpenBabel11072414353D

 36 40  0  0  1  0  0  0  0  0999 V2000
  161.5770  204.7700  148.0070 C   0  0  0  0  0  0  0  0  0  0  0  0
  161.1990  205.9490  144.1120 O   0  0  0  0  0  0  0  0  0  0  0  0
  161.3260  207.4900  154.9430 C   0  0  0  0  0  2  0  0  0  0  0  0
  161.2140  205.9650  150.8270 C   0  0  0  0  0  0  0  0  0  0  0  0
  161.5460  205.7810  153.3630 C   0  0  0  0  0  2  0  0  0  0  0  0
  161.2920  206.5340  152.0900 C   0  0  0  0  0  0  0  0  0  0  0  0
  162.2820  206.5910  154.3230 N   0  0  0  0  0  2  0  0  0  0  0  0
  161.0480  205.9740  147.6980 C   0  0  0  0  0  0  0  0  0  0  0  0
  160.6550  206.9300  150.0030 C   0  0  0  0  0  0  0  0  0  0  0  0
  162.3170  204.0050  146.9410 C   0  0  2  0  0  3  0  0  0  0  0  0
  162.3020  203.5110  144.5640 O   0  0  0  0  0  1  0  0  0  0  0  0
  161.0410  206.4100  146.3640 O   0  0  0  0  0  0  0  0  0  0  0  0
  163.6040  204.5480  146.8270 O   0  0  0  0  0  1  0  0  0  0  0  0
  161.5370  204.7060  150.5350 C   0  0  0  0  0  3  0  0  0  0  0  0
  161.2800  205.5340  145.2990 C   0  0  0  0  0  0  0  0  0  0  0  0
  160.5070  206.9290  148.6770 C   0  0  0  0  0  3  0  0  0  0  0  0
  161.2070  204.0240  149.2490 C   0  0  0  0  0  2  0  0  0  0  0  0
  160.7270  207.8000  151.9590 C   0  0  0  0  0  0  0  0  0  0  0  0
  161.5680  204.0990  145.5990 C   0  0  2  0  0  3  0  0  0  0  0  0
  161.3600  208.8180  154.2160 C   0  0  0  0  0  2  0  0  0  0  0  0
  160.5700  208.8110  152.9780 N   0  0  0  0  0  0  0  0  0  0  0  0
  160.3410  207.9830  150.7140 O   0  0  0  0  0  0  0  0  0  0  0  0
  160.0810  210.1060  152.5000 C   0  0  2  0  0  3  0  0  0  0  0  0
  160.0840  212.6090  153.1170 C   0  0  0  0  0  2  0  0  0  0  0  0
  160.9070  210.6000  151.3080 C   0  0  0  0  0  2  0  0  0  0  0  0
  159.6310  212.7180  151.6850 C   0  0  0  0  0  0  0  0  0  0  0  0
  160.2290  211.8060  150.6310 C   0  0  1  0  0  3  0  0  0  0  0  0
  160.0070  211.1520  153.6270 C   0  0  0  0  0  2  0  0  0  0  0  0
  158.7250  213.4870  151.3930 O   0  0  0  0  0  0  0  0  0  0  0  0
  161.2360  212.5500  149.7350 C   0  0  1  0  0  3  0  0  0  0  0  0
  161.9560  210.4070  149.0320 O   0  0  0  0  0  0  0  0  0  0  0  0
  163.3200  212.1790  148.2600 C   0  0  0  0  0  1  0  0  0  0  0  0
  162.1540  211.6170  149.0150 C   0  0  0  0  0  0  0  0  0  0  0  0
  160.5540  213.4390  148.7370 C   0  0  0  0  0  0  0  0  0  0  0  0
  161.1500  214.4530  148.2890 O   0  0  0  0  0  0  0  0  0  0  0  0
  159.2660  213.1400  148.2990 O   0  0  0  0  0  1  0  0  0  0  0  0
  1 17  1  0  0  0  0
  2 15  2  0  0  0  0
  4  6  1  0  0  0  0
  5  7  1  0  0  0  0
  6  5  1  0  0  0  0
  7  3  1  0  0  0  0
  8  1  2  0  0  0  0
  8 16  1  0  0  0  0
  9 22  1  0  0  0  0
  9  4  1  0  0  0  0
 10 13  1  6  0  0  0
 10  1  1  0  0  0  0
 12  8  1  0  0  0  0
 14  4  2  0  0  0  0
 15 19  1  0  0  0  0
 15 12  1  0  0  0  0
 16  9  2  0  0  0  0
 17 14  1  0  0  0  0
 18  6  2  0  0  0  0
 18 21  1  0  0  0  0
 19 11  1  6  0  0  0
 19 10  1  0  0  0  0
 20  3  1  0  0  0  0
 21 20  1  0  0  0  0
 22 18  1  0  0  0  0
 23 25  1  6  0  0  0
 23 21  1  0  0  0  0
 23 28  1  0  0  0  0
 24 28  1  0  0  0  0
 26 24  1  0  0  0  0
 27 30  1  1  0  0  0
 27 25  1  0  0  0  0
 27 26  1  0  0  0  0
 29 26  2  0  0  0  0
 30 34  1  6  0  0  0
 32 33  1  0  0  0  0
 33 31  2  0  0  0  0
 33 30  1  0  0  0  0
 35 34  2  0  0  0  0
 36 34  1  0  0  0  0
M  END
>  <MODEL>
7

>  <REMARK>
 VINA RESULT:      -5.2      2.769      5.069
  Name = 
  4 active torsions:
  status: ('A' for Active; 'I' for Inactive)
    1  A    between atoms: C_2  and  N_34
    2  A    between atoms: C_10  and  C_11
    3  A    between atoms: C_10  and  C_19
    4  A    between atoms: C_10  and  C_28
                            x       y       z     vdW  Elec       q    Type
                         _______ _______ _______ _____ _____    ______ ____

>  <TORSDO>
F 4

$$$$
=
 OpenBabel11072414353D

 36 40  0  0  1  0  0  0  0  0999 V2000
  161.7140  206.6780  148.4970 C   0  0  0  0  0  0  0  0  0  0  0  0
  160.9800  202.7860  149.5020 O   0  0  0  0  0  0  0  0  0  0  0  0
  160.8660  213.6070  151.1150 C   0  0  0  0  0  2  0  0  0  0  0  0
  161.5230  209.4730  149.7890 C   0  0  0  0  0  0  0  0  0  0  0  0
  161.5840  212.0250  149.5500 C   0  0  0  0  0  2  0  0  0  0  0  0
  161.2270  210.7470  150.2500 C   0  0  0  0  0  0  0  0  0  0  0  0
  160.5930  213.0630  149.7970 N   0  0  0  0  0  2  0  0  0  0  0  0
  161.3870  206.3430  149.7630 C   0  0  2  0  0  3  0  0  0  0  0  0
  161.3200  208.6160  150.8610 C   0  0  0  0  0  0  0  0  0  0  0  0
  161.4950  205.6730  147.3960 C   0  0  2  0  0  3  0  0  0  0  0  0
  161.6040  203.2970  146.9100 O   0  0  0  0  0  1  0  0  0  0  0  0
  161.0190  205.0210  150.0600 O   0  0  0  0  0  0  0  0  0  0  0  0
  160.1350  205.6880  147.0550 O   0  0  0  0  0  1  0  0  0  0  0  0
  161.9970  209.1900  148.5760 C   0  0  0  0  0  3  0  0  0  0  0  0
  161.2640  203.9680  149.1710 C   0  0  0  0  0  0  0  0  0  0  0  0
  161.3260  207.2820  150.8920 C   0  0  0  0  0  3  0  0  0  0  0  0
  162.5610  207.8690  148.1740 C   0  0  0  0  0  3  0  0  0  0  0  0
  160.9050  210.5850  151.5950 C   0  0  0  0  0  0  0  0  0  0  0  0
  161.9210  204.2690  147.8630 C   0  0  2  0  0  3  0  0  0  0  0  0
  159.9810  212.9080  152.1270 C   0  0  0  0  0  2  0  0  0  0  0  0
  160.5090  211.6020  152.5410 N   0  0  0  0  0  0  0  0  0  0  0  0
  160.9980  209.3130  151.9210 O   0  0  0  0  0  0  0  0  0  0  0  0
  160.0810  211.1030  153.8490 C   0  0  2  0  0  3  0  0  0  0  0  0
  160.8000  211.0750  156.3250 C   0  0  0  0  0  2  0  0  0  0  0  0
  158.9170  211.9330  154.4000 C   0  0  0  0  0  2  0  0  0  0  0  0
  159.3710  210.6310  156.4880 C   0  0  0  0  0  0  0  0  0  0  0  0
  158.2850  211.2470  155.6260 C   0  0  1  0  0  3  0  0  0  0  0  0
  161.2500  211.0090  154.8480 C   0  0  0  0  0  2  0  0  0  0  0  0
  159.1020  209.7200  157.2590 O   0  0  0  0  0  0  0  0  0  0  0  0
  157.4280  212.2540  156.4170 C   0  0  1  0  0  3  0  0  0  0  0  0
  157.1810  214.4250  155.5070 O   0  0  0  0  0  0  0  0  0  0  0  0
  159.1280  214.1520  156.8220 C   0  0  0  0  0  1  0  0  0  0  0  0
  157.8580  213.6660  156.1920 C   0  0  0  0  0  0  0  0  0  0  0  0
  155.9680  212.1250  156.0960 C   0  0  0  0  0  0  0  0  0  0  0  0
  155.5760  212.2270  154.9040 O   0  0  0  0  0  0  0  0  0  0  0  0
  155.0470  211.8840  157.1120 O   0  0  0  0  0  1  0  0  0  0  0  0
  1  8  1  0  0  0  0
  3 20  1  0  0  0  0
  4  6  1  0  0  0  0
  4  9  1  0  0  0  0
  5  7  1  0  0  0  0
  5  6  1  0  0  0  0
  6 18  2  0  0  0  0
  7  3  1  0  0  0  0
  8 12  1  0  0  0  0
  8 16  1  6  0  0  0
  9 16  2  0  0  0  0
  9 22  1  0  0  0  0
 10 13  1  1  0  0  0
 10 19  1  0  0  0  0
 10  1  1  0  0  0  0
 14  4  2  0  0  0  0
 15  2  2  0  0  0  0
 15 12  1  0  0  0  0
 17  1  2  0  0  0  0
 17 14  1  0  0  0  0
 18 22  1  0  0  0  0
 18 21  1  0  0  0  0
 19 11  1  6  0  0  0
 19 15  1  0  0  0  0
 20 21  1  0  0  0  0
 23 21  1  6  0  0  0
 23 25  1  0  0  0  0
 23 28  1  0  0  0  0
 24 26  1  0  0  0  0
 25 27  1  0  0  0  0
 26 29  2  0  0  0  0
 27 30  1  1  0  0  0
 27 26  1  0  0  0  0
 28 24  1  0  0  0  0
 30 34  1  6  0  0  0
 31 33  2  0  0  0  0
 33 30  1  0  0  0  0
 33 32  1  0  0  0  0
 34 36  1  0  0  0  0
 35 34  2  0  0  0  0
M  END
>  <MODEL>
8

>  <REMARK>
 VINA RESULT:      -5.0      1.923      2.863
  Name = 
  4 active torsions:
  status: ('A' for Active; 'I' for Inactive)
    1  A    between atoms: C_2  and  N_34
    2  A    between atoms: C_10  and  C_11
    3  A    between atoms: C_10  and  C_19
    4  A    between atoms: C_10  and  C_28
                            x       y       z     vdW  Elec       q    Type
                         _______ _______ _______ _____ _____    ______ ____

>  <TORSDO>
F 4

$$$$
=
 OpenBabel11072414353D

 36 40  0  0  1  0  0  0  0  0999 V2000
  161.3140  204.8970  148.4890 C   0  0  0  0  0  0  0  0  0  0  0  0
  161.4650  205.9250  144.5360 O   0  0  0  0  0  0  0  0  0  0  0  0
  161.2110  207.9640  155.2830 C   0  0  0  0  0  2  0  0  0  0  0  0
  161.0380  206.2870  151.2280 C   0  0  0  0  0  0  0  0  0  0  0  0
  161.1520  206.1680  153.7870 C   0  0  0  0  0  2  0  0  0  0  0  0
  161.1550  206.8910  152.4720 C   0  0  0  0  0  0  0  0  0  0  0  0
  161.9840  206.8470  154.7700 N   0  0  0  0  0  2  0  0  0  0  0  0
  161.0860  206.1690  148.0980 C   0  0  0  0  0  0  0  0  0  0  0  0
  160.7610  207.3070  150.3290 C   0  0  0  0  0  0  0  0  0  0  0  0
  161.9370  203.9340  147.5120 C   0  0  2  0  0  3  0  0  0  0  0  0
  161.9700  203.3310  145.1600 O   0  0  0  0  0  1  0  0  0  0  0  0
  161.2630  206.5260  146.7520 O   0  0  0  0  0  0  0  0  0  0  0  0
  163.3170  204.1780  147.4760 O   0  0  0  0  0  1  0  0  0  0  0  0
  161.0940  204.9750  151.0070 C   0  0  0  0  0  3  0  0  0  0  0  0
  161.3740  205.5650  145.7410 C   0  0  0  0  0  0  0  0  0  0  0  0
  160.7060  207.2690  148.9970 C   0  0  0  0  0  3  0  0  0  0  0  0
  160.7070  204.3150  149.7260 C   0  0  0  0  0  2  0  0  0  0  0  0
  160.8940  208.2400  152.2520 C   0  0  0  0  0  0  0  0  0  0  0  0
  161.3180  204.1190  146.1140 C   0  0  2  0  0  3  0  0  0  0  0  0
  161.5850  209.2140  154.5120 C   0  0  0  0  0  2  0  0  0  0  0  0
  160.8970  209.3140  153.2190 N   0  0  0  0  0  0  0  0  0  0  0  0
  160.6410  208.4380  150.9750 O   0  0  0  0  0  0  0  0  0  0  0  0
  160.7380  210.6570  152.6580 C   0  0  2  0  0  3  0  0  0  0  0  0
  160.8490  211.9270  150.4180 C   0  0  0  0  0  2  0  0  0  0  0  0
  159.2600  211.0510  152.5840 C   0  0  0  0  0  2  0  0  0  0  0  0
  160.1470  212.9700  151.2470 C   0  0  0  0  0  0  0  0  0  0  0  0
  159.1050  212.5500  152.2670 C   0  0  1  0  0  3  0  0  0  0  0  0
  161.4470  210.8090  151.3000 C   0  0  0  0  0  2  0  0  0  0  0  0
  160.4780  214.1440  151.1530 O   0  0  0  0  0  0  0  0  0  0  0  0
  157.6750  212.8470  151.7780 C   0  0  1  0  0  3  0  0  0  0  0  0
  157.5910  214.4530  153.5160 O   0  0  0  0  0  0  0  0  0  0  0  0
  155.5430  214.1760  152.3640 C   0  0  0  0  0  1  0  0  0  0  0  0
  156.9860  213.8670  152.6230 C   0  0  0  0  0  0  0  0  0  0  0  0
  157.6500  213.2930  150.3460 C   0  0  0  0  0  0  0  0  0  0  0  0
  157.0090  212.6260  149.4920 O   0  0  0  0  0  0  0  0  0  0  0  0
  158.3250  214.4490  149.9610 O   0  0  0  0  0  1  0  0  0  0  0  0
  1 17  1  0  0  0  0
  2 15  2  0  0  0  0
  4  6  1  0  0  0  0
  5  7  1  0  0  0  0
  6  5  1  0  0  0  0
  7  3  1  0  0  0  0
  8  1  2  0  0  0  0
  8 16  1  0  0  0  0
  9 22  1  0  0  0  0
  9  4  1  0  0  0  0
 10 13  1  6  0  0  0
 10  1  1  0  0  0  0
 12  8  1  0  0  0  0
 14  4  2  0  0  0  0
 15 19  1  0  0  0  0
 15 12  1  0  0  0  0
 16  9  2  0  0  0  0
 17 14  1  0  0  0  0
 18  6  2  0  0  0  0
 18 21  1  0  0  0  0
 19 11  1  6  0  0  0
 19 10  1  0  0  0  0
 20  3  1  0  0  0  0
 21 20  1  0  0  0  0
 22 18  1  0  0  0  0
 23 28  1  6  0  0  0
 23 21  1  0  0  0  0
 24 26  1  0  0  0  0
 24 28  1  0  0  0  0
 25 23  1  0  0  0  0
 26 27  1  0  0  0  0
 27 30  1  6  0  0  0
 27 25  1  0  0  0  0
 29 26  2  0  0  0  0
 30 34  1  6  0  0  0
 30 33  1  0  0  0  0
 32 33  1  0  0  0  0
 33 31  2  0  0  0  0
 35 34  2  0  0  0  0
 36 34  1  0  0  0  0
M  END
>  <MODEL>
9

>  <REMARK>
 VINA RESULT:      -5.0      2.853      4.704
  Name = 
  4 active torsions:
  status: ('A' for Active; 'I' for Inactive)
    1  A    between atoms: C_2  and  N_34
    2  A    between atoms: C_10  and  C_11
    3  A    between atoms: C_10  and  C_19
    4  A    between atoms: C_10  and  C_28
                            x       y       z     vdW  Elec       q    Type
                         _______ _______ _______ _____ _____    ______ ____

>  <TORSDO>
F 4

$$$$
