=
 OpenBabel11072412293D

 33 36  0  0  1  0  0  0  0  0999 V2000
  161.7320  208.5400  152.5590 N   0  0  0  0  0  2  0  0  0  0  0  0
  160.3460  210.7680  155.2190 C   0  0  0  0  0  3  0  0  0  0  0  0
  161.1010  209.6480  153.2090 C   0  0  0  0  0  0  0  0  0  0  0  0
  160.0520  211.8440  153.0670 C   0  0  0  0  0  0  0  0  0  0  0  0
  160.9380  209.6660  154.5960 C   0  0  0  0  0  3  0  0  0  0  0  0
  160.6570  210.7310  152.4530 C   0  0  0  0  0  3  0  0  0  0  0  0
  159.9100  211.8660  154.4630 C   0  0  0  0  0  0  0  0  0  0  0  0
  160.0680  213.5390  156.1620 O   0  0  0  0  0  1  0  0  0  0  0  0
  159.2590  213.0380  155.1380 C   0  0  2  0  0  3  0  0  0  0  0  0
  157.1300  211.7370  154.9810 C   0  0  0  0  0  3  0  0  0  0  0  0
  157.8930  212.6990  155.6500 C   0  0  0  0  0  0  0  0  0  0  0  0
  157.3720  213.3200  156.7930 C   0  0  0  0  0  3  0  0  0  0  0  0
  155.8570  211.3960  155.4500 C   0  0  0  0  0  3  0  0  0  0  0  0
  156.1000  212.9800  157.2600 C   0  0  0  0  0  3  0  0  0  0  0  0
  155.3430  212.0160  156.5890 C   0  0  0  0  0  3  0  0  0  0  0  0
  158.3440  212.9470  151.6480 C   0  0  0  0  0  1  0  0  0  0  0  0
  159.5970  212.9350  152.3120 O   0  0  0  0  0  0  0  0  0  0  0  0
  161.0880  207.3030  152.4150 N   0  0  0  0  0  2  0  0  0  0  0  0
  163.0730  206.1100  152.1710 O   0  0  0  0  0  0  0  0  0  0  0  0
  161.8350  206.0910  152.4140 C   0  0  0  0  0  0  0  0  0  0  0  0
  161.1490  204.8000  152.7150 C   0  0  0  0  0  2  0  0  0  0  0  0
  160.9760  204.5030  150.2390 N   0  0  0  0  0  0  0  0  0  0  0  0
  160.8900  203.3740  148.0650 C   0  0  0  0  0  3  0  0  0  0  0  0
  161.0600  203.9600  151.4820 C   0  0  0  0  0  0  0  0  0  0  0  0
  161.0620  201.0150  149.6440 C   0  0  0  0  0  3  0  0  0  0  0  0
  160.9970  200.9330  148.2400 C   0  0  0  0  0  3  0  0  0  0  0  0
  160.9060  202.1040  147.4470 C   0  0  0  0  0  0  0  0  0  0  0  0
  161.0910  202.5970  151.5090 N   0  0  0  0  0  2  0  0  0  0  0  0
  160.9620  203.4150  149.4540 C   0  0  0  0  0  0  0  0  0  0  0  0
  161.0290  202.2850  150.2100 C   0  0  0  0  0  0  0  0  0  0  0  0
  160.8250  202.0030  145.9800 C   0  0  0  0  0  0  0  0  0  0  0  0
  161.1080  202.9990  145.2550 O   0  0  0  0  0  0  0  0  0  0  0  0
  160.4310  200.8130  145.3790 O   0  0  0  0  0  1  0  0  0  0  0  0
  1  3  1  0  0  0  0
  3  5  2  0  0  0  0
  4  7  1  0  0  0  0
  5  2  1  0  0  0  0
  6  4  2  0  0  0  0
  6  3  1  0  0  0  0
  7  9  1  0  0  0  0
  7  2  2  0  0  0  0
  9 11  1  0  0  0  0
  9  8  1  1  0  0  0
 10 13  2  0  0  0  0
 10 11  1  0  0  0  0
 11 12  2  0  0  0  0
 12 14  1  0  0  0  0
 13 15  1  0  0  0  0
 15 14  2  0  0  0  0
 16 17  1  0  0  0  0
 17  4  1  0  0  0  0
 18  1  1  0  0  0  0
 19 20  2  0  0  0  0
 20 18  1  0  0  0  0
 20 21  1  0  0  0  0
 22 24  2  0  0  0  0
 23 29  1  0  0  0  0
 24 28  1  0  0  0  0
 24 21  1  0  0  0  0
 25 30  1  0  0  0  0
 26 25  2  0  0  0  0
 27 23  2  0  0  0  0
 27 26  1  0  0  0  0
 29 30  2  0  0  0  0
 29 22  1  0  0  0  0
 30 28  1  0  0  0  0
 31 27  1  0  0  0  0
 32 31  2  0  0  0  0
 33 31  1  0  0  0  0
M  END
>  <MODEL>
1

>  <REMARK>
 VINA RESULT:      -8.1      0.000      0.000
  Name = 
  8 active torsions:
  status: ('A' for Active; 'I' for Inactive)
    1  A    between atoms: N_2  and  N_8
    2  A    between atoms: C_5  and  C_27
    3  A    between atoms: N_8  and  C_11
    4  A    between atoms: C_9  and  C_19
    5  A    between atoms: C_12  and  O_22
    6  A    between atoms: C_16  and  C_29
    7  A    between atoms: C_17  and  C_19
    8  A    between atoms: C_28  and  C_29
                            x       y       z     vdW  Elec       q    Type
                         _______ _______ _______ _____ _____    ______ ____

>  <TORSDO>
F 8

$$$$
=
 OpenBabel11072412293D

 33 36  0  0  1  0  0  0  0  0999 V2000
  162.3870  209.8360  148.6310 N   0  0  0  0  0  0  0  0  0  0  0  0
  161.0680  206.3490  148.8720 C   0  0  0  0  0  3  0  0  0  0  0  0
  161.9640  208.5790  149.1680 C   0  0  0  0  0  0  0  0  0  0  0  0
  161.6970  207.1020  151.0890 C   0  0  0  0  0  0  0  0  0  0  0  0
  161.4480  207.5820  148.3370 C   0  0  0  0  0  3  0  0  0  0  0  0
  162.0840  208.3370  150.5350 C   0  0  0  0  0  3  0  0  0  0  0  0
  161.1990  206.0970  150.2460 C   0  0  0  0  0  0  0  0  0  0  0  0
  161.5080  204.4610  151.9610 O   0  0  0  0  0  1  0  0  0  0  0  0
  160.7710  204.7760  150.8160 C   0  0  2  0  0  3  0  0  0  0  0  0
  160.4810  202.3800  150.1650 C   0  0  0  0  0  3  0  0  0  0  0  0
  160.8590  203.6760  149.8020 C   0  0  0  0  0  0  0  0  0  0  0  0
  161.3020  203.9260  148.4970 C   0  0  0  0  0  3  0  0  0  0  0  0
  160.5420  201.3400  149.2310 C   0  0  0  0  0  3  0  0  0  0  0  0
  161.3640  202.8870  147.5640 C   0  0  0  0  0  3  0  0  0  0  0  0
  160.9820  201.5940  147.9310 C   0  0  0  0  0  3  0  0  0  0  0  0
  161.0870  207.5830  153.4440 C   0  0  0  0  0  1  0  0  0  0  0  0
  161.8080  206.8530  152.4650 O   0  0  0  0  0  0  0  0  0  0  0  0
  161.4780  210.8730  148.3750 N   0  0  0  0  0  0  0  0  0  0  0  0
  163.1180  212.5260  148.3420 O   0  0  0  0  0  0  0  0  0  0  0  0
  161.9400  212.1800  148.0500 C   0  0  0  0  0  0  0  0  0  0  0  0
  161.0290  213.1330  147.3510 C   0  0  0  0  0  2  0  0  0  0  0  0
  162.1980  213.2100  145.1430 N   0  0  0  0  0  0  0  0  0  0  0  0
  162.5910  212.8960  142.7440 C   0  0  0  0  0  3  0  0  0  0  0  0
  161.0890  212.9190  145.8730 C   0  0  0  0  0  0  0  0  0  0  0  0
  159.9470  211.8510  142.7740 C   0  0  0  0  0  3  0  0  0  0  0  0
  160.6850  211.8950  141.5760 C   0  0  0  0  0  3  0  0  0  0  0  0
  162.0020  212.4200  141.5520 C   0  0  0  0  0  0  0  0  0  0  0  0
  160.0570  212.3870  145.1580 N   0  0  0  0  0  2  0  0  0  0  0  0
  161.8330  212.8300  143.9090 C   0  0  0  0  0  0  0  0  0  0  0  0
  160.5620  212.3430  143.9200 C   0  0  0  0  0  0  0  0  0  0  0  0
  162.7570  212.4730  140.2900 C   0  0  0  0  0  0  0  0  0  0  0  0
  163.5080  213.4590  140.0360 O   0  0  0  0  0  1  0  0  0  0  0  0
  162.6470  211.4440  139.3620 O   0  0  0  0  0  0  0  0  0  0  0  0
  1  3  1  0  0  0  0
  2  7  1  0  0  0  0
  3  6  2  0  0  0  0
  4 17  1  0  0  0  0
  5  2  2  0  0  0  0
  5  3  1  0  0  0  0
  6  4  1  0  0  0  0
  7  9  1  0  0  0  0
  7  4  2  0  0  0  0
  9  8  1  1  0  0  0
 11 10  1  0  0  0  0
 11  9  1  0  0  0  0
 12 11  2  0  0  0  0
 13 10  2  0  0  0  0
 14 15  2  0  0  0  0
 14 12  1  0  0  0  0
 15 13  1  0  0  0  0
 17 16  1  0  0  0  0
 18  1  2  0  0  0  0
 20 19  2  0  0  0  0
 20 18  1  0  0  0  0
 21 20  1  0  0  0  0
 22 24  2  0  0  0  0
 23 29  1  0  0  0  0
 24 21  1  0  0  0  0
 25 30  1  0  0  0  0
 26 25  2  0  0  0  0
 27 26  1  0  0  0  0
 27 23  2  0  0  0  0
 28 24  1  0  0  0  0
 29 30  2  0  0  0  0
 29 22  1  0  0  0  0
 30 28  1  0  0  0  0
 31 27  1  0  0  0  0
 32 31  1  0  0  0  0
 33 31  2  0  0  0  0
M  END
>  <MODEL>
2

>  <REMARK>
 VINA RESULT:      -7.9      6.327     10.173
  Name = 
  8 active torsions:
  status: ('A' for Active; 'I' for Inactive)
    1  A    between atoms: N_2  and  N_8
    2  A    between atoms: C_5  and  C_27
    3  A    between atoms: N_8  and  C_11
    4  A    between atoms: C_9  and  C_19
    5  A    between atoms: C_12  and  O_22
    6  A    between atoms: C_16  and  C_29
    7  A    between atoms: C_17  and  C_19
    8  A    between atoms: C_28  and  C_29
                            x       y       z     vdW  Elec       q    Type
                         _______ _______ _______ _____ _____    ______ ____

>  <TORSDO>
F 8

$$$$
=
 OpenBabel11072412293D

 33 36  0  0  1  0  0  0  0  0999 V2000
  161.5970  206.6320  154.3570 N   0  0  0  0  0  2  0  0  0  0  0  0
  160.9470  204.8900  151.1170 C   0  0  0  0  0  3  0  0  0  0  0  0
  161.5240  206.3570  152.9550 C   0  0  0  0  0  0  0  0  0  0  0  0
  161.8440  207.0940  150.6520 C   0  0  0  0  0  0  0  0  0  0  0  0
  161.0400  205.1320  152.4890 C   0  0  0  0  0  3  0  0  0  0  0  0
  161.9250  207.3270  152.0380 C   0  0  0  0  0  3  0  0  0  0  0  0
  161.3370  205.8690  150.1910 C   0  0  0  0  0  0  0  0  0  0  0  0
  160.1900  206.2960  148.1380 O   0  0  0  0  0  1  0  0  0  0  0  0
  161.2510  205.5940  148.7180 C   0  0  2  0  0  3  0  0  0  0  0  0
  161.3980  203.6660  147.1340 C   0  0  0  0  0  3  0  0  0  0  0  0
  161.1450  204.1280  148.4290 C   0  0  0  0  0  0  0  0  0  0  0  0
  160.8090  203.2120  149.4350 C   0  0  0  0  0  3  0  0  0  0  0  0
  161.3190  202.2990  146.8450 C   0  0  0  0  0  3  0  0  0  0  0  0
  160.7280  201.8470  149.1460 C   0  0  0  0  0  3  0  0  0  0  0  0
  160.9850  201.3910  147.8500 C   0  0  0  0  0  3  0  0  0  0  0  0
  162.0340  209.4520  149.9100 C   0  0  0  0  0  1  0  0  0  0  0  0
  162.2520  208.0630  149.7250 O   0  0  0  0  0  0  0  0  0  0  0  0
  160.5430  207.2510  155.0450 N   0  0  0  0  0  2  0  0  0  0  0  0
  161.9470  208.3490  156.5450 O   0  0  0  0  0  0  0  0  0  0  0  0
  160.8040  208.2560  156.0190 C   0  0  0  0  0  0  0  0  0  0  0  0
  159.7210  209.2080  156.4050 C   0  0  0  0  0  2  0  0  0  0  0  0
  160.3190  210.3080  154.2420 N   0  0  0  0  0  0  0  0  0  0  0  0
  160.1380  211.7820  152.2910 C   0  0  0  0  0  3  0  0  0  0  0  0
  159.4880  210.2000  155.3120 C   0  0  0  0  0  0  0  0  0  0  0  0
  157.7630  212.6650  153.5800 C   0  0  0  0  0  3  0  0  0  0  0  0
  158.1490  213.2090  152.3410 C   0  0  0  0  0  3  0  0  0  0  0  0
  159.3350  212.7780  151.6950 C   0  0  0  0  0  0  0  0  0  0  0  0
  158.4140  211.0400  155.2880 N   0  0  0  0  0  2  0  0  0  0  0  0
  159.7210  211.2620  153.5130 C   0  0  0  0  0  0  0  0  0  0  0  0
  158.5910  211.6970  154.1370 C   0  0  0  0  0  0  0  0  0  0  0  0
  159.7350  213.3670  150.4060 C   0  0  0  0  0  0  0  0  0  0  0  0
  160.7690  212.9530  149.8080 O   0  0  0  0  0  0  0  0  0  0  0  0
  158.9820  214.3880  149.8370 O   0  0  0  0  0  1  0  0  0  0  0  0
  1 18  1  0  0  0  0
  2  5  1  0  0  0  0
  3  1  1  0  0  0  0
  4  6  2  0  0  0  0
  5  3  2  0  0  0  0
  6  3  1  0  0  0  0
  7  4  1  0  0  0  0
  7  2  2  0  0  0  0
  9  8  1  1  0  0  0
  9  7  1  0  0  0  0
 10 11  1  0  0  0  0
 11  9  1  0  0  0  0
 11 12  2  0  0  0  0
 13 10  2  0  0  0  0
 13 15  1  0  0  0  0
 14 12  1  0  0  0  0
 15 14  2  0  0  0  0
 17 16  1  0  0  0  0
 17  4  1  0  0  0  0
 18 20  1  0  0  0  0
 20 21  1  0  0  0  0
 20 19  2  0  0  0  0
 22 24  2  0  0  0  0
 23 29  1  0  0  0  0
 24 21  1  0  0  0  0
 25 30  1  0  0  0  0
 26 25  2  0  0  0  0
 27 23  2  0  0  0  0
 27 26  1  0  0  0  0
 28 24  1  0  0  0  0
 29 30  2  0  0  0  0
 29 22  1  0  0  0  0
 30 28  1  0  0  0  0
 31 27  1  0  0  0  0
 32 31  2  0  0  0  0
 33 31  1  0  0  0  0
M  END
>  <MODEL>
3

>  <REMARK>
 VINA RESULT:      -7.9      2.725      9.630
  Name = 
  8 active torsions:
  status: ('A' for Active; 'I' for Inactive)
    1  A    between atoms: N_2  and  N_8
    2  A    between atoms: C_5  and  C_27
    3  A    between atoms: N_8  and  C_11
    4  A    between atoms: C_9  and  C_19
    5  A    between atoms: C_12  and  O_22
    6  A    between atoms: C_16  and  C_29
    7  A    between atoms: C_17  and  C_19
    8  A    between atoms: C_28  and  C_29
                            x       y       z     vdW  Elec       q    Type
                         _______ _______ _______ _____ _____    ______ ____

>  <TORSDO>
F 8

$$$$
=
 OpenBabel11072412293D

 33 36  0  0  1  0  0  0  0  0999 V2000
  162.3480  209.9000  148.6620 N   0  0  0  0  0  0  0  0  0  0  0  0
  161.0330  206.4100  148.8750 C   0  0  0  0  0  3  0  0  0  0  0  0
  161.9410  208.6330  149.1870 C   0  0  0  0  0  0  0  0  0  0  0  0
  161.7280  207.1190  151.0870 C   0  0  0  0  0  0  0  0  0  0  0  0
  161.3990  207.6530  148.3530 C   0  0  0  0  0  3  0  0  0  0  0  0
  162.1000  208.3650  150.5460 C   0  0  0  0  0  3  0  0  0  0  0  0
  161.2040  206.1310  150.2400 C   0  0  0  0  0  0  0  0  0  0  0  0
  161.5490  204.4710  151.9240 O   0  0  0  0  0  1  0  0  0  0  0  0
  160.7920  204.8000  150.7960 C   0  0  2  0  0  3  0  0  0  0  0  0
  160.4640  202.4210  150.1030 C   0  0  0  0  0  3  0  0  0  0  0  0
  160.8680  203.7160  149.7650 C   0  0  0  0  0  0  0  0  0  0  0  0
  161.3240  203.9800  148.4670 C   0  0  0  0  0  3  0  0  0  0  0  0
  160.5140  201.3960  149.1510 C   0  0  0  0  0  3  0  0  0  0  0  0
  161.3760  202.9550  147.5170 C   0  0  0  0  0  3  0  0  0  0  0  0
  160.9680  201.6630  147.8600 C   0  0  0  0  0  3  0  0  0  0  0  0
  161.0840  207.4520  153.4580 C   0  0  0  0  0  1  0  0  0  0  0  0
  161.8790  206.8440  152.4530 O   0  0  0  0  0  0  0  0  0  0  0  0
  161.4180  210.8950  148.3270 N   0  0  0  0  0  0  0  0  0  0  0  0
  163.0100  212.5940  148.2620 O   0  0  0  0  0  0  0  0  0  0  0  0
  161.8530  212.1980  147.9520 C   0  0  0  0  0  0  0  0  0  0  0  0
  160.9380  213.0880  147.1780 C   0  0  0  0  0  2  0  0  0  0  0  0
  160.1500  212.2520  144.9580 N   0  0  0  0  0  0  0  0  0  0  0  0
  160.1330  211.8140  142.5470 C   0  0  0  0  0  3  0  0  0  0  0  0
  161.1060  212.8560  145.7120 C   0  0  0  0  0  0  0  0  0  0  0  0
  162.6720  213.0930  142.6230 C   0  0  0  0  0  3  0  0  0  0  0  0
  162.1420  212.6260  141.4040 C   0  0  0  0  0  3  0  0  0  0  0  0
  160.8790  211.9830  141.3600 C   0  0  0  0  0  0  0  0  0  0  0  0
  162.2080  213.2630  145.0180 N   0  0  0  0  0  2  0  0  0  0  0  0
  160.6870  212.2940  143.7300 C   0  0  0  0  0  0  0  0  0  0  0  0
  161.9090  212.8920  143.7680 C   0  0  0  0  0  0  0  0  0  0  0  0
  160.3440  211.4870  140.0810 C   0  0  0  0  0  0  0  0  0  0  0  0
  159.1130  211.2220  139.9650 O   0  0  0  0  0  1  0  0  0  0  0  0
  161.1860  211.3010  138.9920 O   0  0  0  0  0  0  0  0  0  0  0  0
  1  3  1  0  0  0  0
  2  7  1  0  0  0  0
  3  6  2  0  0  0  0
  4 17  1  0  0  0  0
  5  2  2  0  0  0  0
  5  3  1  0  0  0  0
  6  4  1  0  0  0  0
  7  9  1  0  0  0  0
  7  4  2  0  0  0  0
  9  8  1  1  0  0  0
 11 10  1  0  0  0  0
 11  9  1  0  0  0  0
 12 11  2  0  0  0  0
 13 10  2  0  0  0  0
 14 15  2  0  0  0  0
 14 12  1  0  0  0  0
 15 13  1  0  0  0  0
 17 16  1  0  0  0  0
 18  1  2  0  0  0  0
 20 19  2  0  0  0  0
 20 18  1  0  0  0  0
 21 20  1  0  0  0  0
 22 24  2  0  0  0  0
 23 29  1  0  0  0  0
 24 21  1  0  0  0  0
 25 30  1  0  0  0  0
 26 25  2  0  0  0  0
 27 26  1  0  0  0  0
 27 23  2  0  0  0  0
 28 24  1  0  0  0  0
 29 30  2  0  0  0  0
 29 22  1  0  0  0  0
 30 28  1  0  0  0  0
 31 27  1  0  0  0  0
 32 31  1  0  0  0  0
 33 31  2  0  0  0  0
M  END
>  <MODEL>
4

>  <REMARK>
 VINA RESULT:      -7.8      6.249     10.131
  Name = 
  8 active torsions:
  status: ('A' for Active; 'I' for Inactive)
    1  A    between atoms: N_2  and  N_8
    2  A    between atoms: C_5  and  C_27
    3  A    between atoms: N_8  and  C_11
    4  A    between atoms: C_9  and  C_19
    5  A    between atoms: C_12  and  O_22
    6  A    between atoms: C_16  and  C_29
    7  A    between atoms: C_17  and  C_19
    8  A    between atoms: C_28  and  C_29
                            x       y       z     vdW  Elec       q    Type
                         _______ _______ _______ _____ _____    ______ ____

>  <TORSDO>
F 8

$$$$
=
 OpenBabel11072412293D

 33 36  0  0  1  0  0  0  0  0999 V2000
  161.3670  206.7830  154.1600 N   0  0  0  0  0  0  0  0  0  0  0  0
  160.8270  204.7760  151.0550 C   0  0  0  0  0  3  0  0  0  0  0  0
  161.3860  206.3700  152.7900 C   0  0  0  0  0  0  0  0  0  0  0  0
  161.9720  206.8310  150.4680 C   0  0  0  0  0  0  0  0  0  0  0  0
  160.8260  205.1510  152.4010 C   0  0  0  0  0  3  0  0  0  0  0  0
  161.9570  207.2000  151.8270 C   0  0  0  0  0  3  0  0  0  0  0  0
  161.3890  205.6150  150.0810 C   0  0  0  0  0  0  0  0  0  0  0  0
  160.4480  205.9050  147.9030 O   0  0  0  0  0  1  0  0  0  0  0  0
  161.4010  205.1960  148.6400 C   0  0  2  0  0  3  0  0  0  0  0  0
  161.2840  203.1470  147.2120 C   0  0  0  0  0  3  0  0  0  0  0  0
  161.2060  203.7180  148.4860 C   0  0  0  0  0  0  0  0  0  0  0  0
  160.9610  202.8990  149.5960 C   0  0  0  0  0  3  0  0  0  0  0  0
  161.1200  201.7680  147.0470 C   0  0  0  0  0  3  0  0  0  0  0  0
  160.7940  201.5210  149.4300 C   0  0  0  0  0  3  0  0  0  0  0  0
  160.8760  200.9550  148.1550 C   0  0  0  0  0  3  0  0  0  0  0  0
  161.9560  208.8680  149.0560 C   0  0  0  0  0  1  0  0  0  0  0  0
  162.5500  207.6570  149.4940 O   0  0  0  0  0  0  0  0  0  0  0  0
  161.1450  208.1180  154.5260 N   0  0  0  0  0  0  0  0  0  0  0  0
  161.4630  207.7210  156.7990 O   0  0  0  0  0  0  0  0  0  0  0  0
  161.3990  208.5570  155.8570 C   0  0  0  0  0  0  0  0  0  0  0  0
  161.6020  210.0110  156.1290 C   0  0  0  0  0  2  0  0  0  0  0  0
  159.2890  210.9550  156.0600 N   0  0  0  0  0  0  0  0  0  0  0  0
  157.3660  212.2590  155.2780 C   0  0  0  0  0  3  0  0  0  0  0  0
  160.5160  210.8150  155.4920 C   0  0  0  0  0  0  0  0  0  0  0  0
  159.1090  212.9440  153.1380 C   0  0  0  0  0  3  0  0  0  0  0  0
  157.8020  213.4640  153.1900 C   0  0  0  0  0  3  0  0  0  0  0  0
  156.9260  213.1230  154.2510 C   0  0  0  0  0  0  0  0  0  0  0  0
  160.6830  211.4920  154.3200 N   0  0  0  0  0  2  0  0  0  0  0  0
  158.6670  211.7700  155.1950 C   0  0  0  0  0  0  0  0  0  0  0  0
  159.4950  212.0860  154.1620 C   0  0  0  0  0  0  0  0  0  0  0  0
  155.5570  213.6630  154.2860 C   0  0  0  0  0  0  0  0  0  0  0  0
  155.0650  214.0880  155.3700 O   0  0  0  0  0  1  0  0  0  0  0  0
  154.7890  213.7050  153.1280 O   0  0  0  0  0  0  0  0  0  0  0  0
  1 18  2  0  0  0  0
  2  5  1  0  0  0  0
  3  1  1  0  0  0  0
  4  6  2  0  0  0  0
  5  3  2  0  0  0  0
  6  3  1  0  0  0  0
  7  4  1  0  0  0  0
  7  2  2  0  0  0  0
  9  8  1  6  0  0  0
  9  7  1  0  0  0  0
 10 11  1  0  0  0  0
 11  9  1  0  0  0  0
 11 12  2  0  0  0  0
 13 10  2  0  0  0  0
 13 15  1  0  0  0  0
 14 12  1  0  0  0  0
 15 14  2  0  0  0  0
 16 17  1  0  0  0  0
 17  4  1  0  0  0  0
 18 20  1  0  0  0  0
 20 21  1  0  0  0  0
 20 19  2  0  0  0  0
 24 22  2  0  0  0  0
 24 21  1  0  0  0  0
 25 26  2  0  0  0  0
 25 30  1  0  0  0  0
 26 27  1  0  0  0  0
 27 31  1  0  0  0  0
 27 23  2  0  0  0  0
 28 24  1  0  0  0  0
 29 23  1  0  0  0  0
 29 22  1  0  0  0  0
 30 28  1  0  0  0  0
 30 29  2  0  0  0  0
 31 32  1  0  0  0  0
 33 31  2  0  0  0  0
M  END
>  <MODEL>
5

>  <REMARK>
 VINA RESULT:      -7.6      2.511     10.428
  Name = 
  8 active torsions:
  status: ('A' for Active; 'I' for Inactive)
    1  A    between atoms: N_2  and  N_8
    2  A    between atoms: C_5  and  C_27
    3  A    between atoms: N_8  and  C_11
    4  A    between atoms: C_9  and  C_19
    5  A    between atoms: C_12  and  O_22
    6  A    between atoms: C_16  and  C_29
    7  A    between atoms: C_17  and  C_19
    8  A    between atoms: C_28  and  C_29
                            x       y       z     vdW  Elec       q    Type
                         _______ _______ _______ _____ _____    ______ ____

>  <TORSDO>
F 8

$$$$
=
 OpenBabel11072412293D

 33 36  0  0  1  0  0  0  0  0999 V2000
  162.2470  210.5090  148.3040 N   0  0  0  0  0  2  0  0  0  0  0  0
  161.9480  207.0150  149.5920 C   0  0  0  0  0  3  0  0  0  0  0  0
  161.9800  209.3990  149.1660 C   0  0  0  0  0  0  0  0  0  0  0  0
  161.2740  208.5530  151.3410 C   0  0  0  0  0  0  0  0  0  0  0  0
  162.1850  208.0880  148.7290 C   0  0  0  0  0  3  0  0  0  0  0  0
  161.5250  209.6250  150.4630 C   0  0  0  0  0  3  0  0  0  0  0  0
  161.5020  207.2400  150.9030 C   0  0  0  0  0  0  0  0  0  0  0  0
  162.1930  206.0080  152.8320 O   0  0  0  0  0  1  0  0  0  0  0  0
  161.2330  206.0810  151.8180 C   0  0  2  0  0  3  0  0  0  0  0  0
  161.2930  203.5820  151.7650 C   0  0  0  0  0  3  0  0  0  0  0  0
  161.1460  204.7860  151.0690 C   0  0  0  0  0  0  0  0  0  0  0  0
  160.9080  204.7610  149.6890 C   0  0  0  0  0  3  0  0  0  0  0  0
  161.2020  202.3610  151.0880 C   0  0  0  0  0  3  0  0  0  0  0  0
  160.8190  203.5410  149.0130 C   0  0  0  0  0  3  0  0  0  0  0  0
  160.9640  202.3410  149.7130 C   0  0  0  0  0  3  0  0  0  0  0  0
  161.4950  209.5870  153.5840 C   0  0  0  0  0  1  0  0  0  0  0  0
  160.8100  208.7720  152.6460 O   0  0  0  0  0  0  0  0  0  0  0  0
  162.2380  211.8300  148.7760 N   0  0  0  0  0  2  0  0  0  0  0  0
  160.3690  212.4400  147.5280 O   0  0  0  0  0  0  0  0  0  0  0  0
  161.1460  212.6970  148.4880 C   0  0  0  0  0  0  0  0  0  0  0  0
  160.9170  213.9030  149.3370 C   0  0  0  0  0  2  0  0  0  0  0  0
  160.0950  212.5910  151.2990 N   0  0  0  0  0  0  0  0  0  0  0  0
  158.6700  211.9290  153.1800 C   0  0  0  0  0  3  0  0  0  0  0  0
  159.9200  213.6030  150.4080 C   0  0  0  0  0  0  0  0  0  0  0  0
  157.0650  214.1110  152.3160 C   0  0  0  0  0  3  0  0  0  0  0  0
  156.6890  213.3450  153.4360 C   0  0  0  0  0  3  0  0  0  0  0  0
  157.4810  212.2520  153.8690 C   0  0  0  0  0  0  0  0  0  0  0  0
  158.7850  214.3370  150.5920 N   0  0  0  0  0  2  0  0  0  0  0  0
  159.0130  212.7120  152.0820 C   0  0  0  0  0  0  0  0  0  0  0  0
  158.2350  213.7470  151.6600 C   0  0  0  0  0  0  0  0  0  0  0  0
  157.0680  211.4510  155.0330 C   0  0  0  0  0  0  0  0  0  0  0  0
  155.8910  210.9930  155.1080 O   0  0  0  0  0  0  0  0  0  0  0  0
  157.9640  211.1960  156.0640 O   0  0  0  0  0  1  0  0  0  0  0  0
  1 18  1  0  0  0  0
  1  3  1  0  0  0  0
  2  7  1  0  0  0  0
  3  6  2  0  0  0  0
  4 17  1  0  0  0  0
  5  3  1  0  0  0  0
  5  2  2  0  0  0  0
  6  4  1  0  0  0  0
  7  4  2  0  0  0  0
  7  9  1  0  0  0  0
  9  8  1  1  0  0  0
 11 10  2  0  0  0  0
 11  9  1  0  0  0  0
 12 11  1  0  0  0  0
 13 10  1  0  0  0  0
 14 12  2  0  0  0  0
 14 15  1  0  0  0  0
 15 13  2  0  0  0  0
 17 16  1  0  0  0  0
 19 20  2  0  0  0  0
 20 18  1  0  0  0  0
 20 21  1  0  0  0  0
 21 24  1  0  0  0  0
 22 29  1  0  0  0  0
 23 27  1  0  0  0  0
 24 28  1  0  0  0  0
 24 22  2  0  0  0  0
 25 26  1  0  0  0  0
 26 27  2  0  0  0  0
 27 31  1  0  0  0  0
 28 30  1  0  0  0  0
 29 23  2  0  0  0  0
 30 29  1  0  0  0  0
 30 25  2  0  0  0  0
 31 32  2  0  0  0  0
 31 33  1  0  0  0  0
M  END
>  <MODEL>
6

>  <REMARK>
 VINA RESULT:      -7.5      3.574      9.891
  Name = 
  8 active torsions:
  status: ('A' for Active; 'I' for Inactive)
    1  A    between atoms: N_2  and  N_8
    2  A    between atoms: C_5  and  C_27
    3  A    between atoms: N_8  and  C_11
    4  A    between atoms: C_9  and  C_19
    5  A    between atoms: C_12  and  O_22
    6  A    between atoms: C_16  and  C_29
    7  A    between atoms: C_17  and  C_19
    8  A    between atoms: C_28  and  C_29
                            x       y       z     vdW  Elec       q    Type
                         _______ _______ _______ _____ _____    ______ ____

>  <TORSDO>
F 8

$$$$
=
 OpenBabel11072412293D

 33 36  0  0  1  0  0  0  0  0999 V2000
  161.5530  208.3900  153.7460 N   0  0  0  0  0  2  0  0  0  0  0  0
  161.0120  205.6970  151.2140 C   0  0  0  0  0  3  0  0  0  0  0  0
  161.5120  207.6860  152.5010 C   0  0  0  0  0  0  0  0  0  0  0  0
  161.8460  207.6740  150.0860 C   0  0  0  0  0  0  0  0  0  0  0  0
  161.0750  206.3610  152.4410 C   0  0  0  0  0  3  0  0  0  0  0  0
  161.8970  208.3340  151.3290 C   0  0  0  0  0  3  0  0  0  0  0  0
  161.3860  206.3500  150.0300 C   0  0  0  0  0  0  0  0  0  0  0  0
  160.3360  206.1520  147.8910 O   0  0  0  0  0  1  0  0  0  0  0  0
  161.3330  205.6240  148.7170 C   0  0  2  0  0  3  0  0  0  0  0  0
  161.2090  203.3060  147.7880 C   0  0  0  0  0  3  0  0  0  0  0  0
  161.1490  204.1480  148.9030 C   0  0  0  0  0  0  0  0  0  0  0  0
  160.9310  203.5980  150.1720 C   0  0  0  0  0  3  0  0  0  0  0  0
  161.0550  201.9240  147.9400 C   0  0  0  0  0  3  0  0  0  0  0  0
  160.7740  202.2170  150.3230 C   0  0  0  0  0  3  0  0  0  0  0  0
  160.8380  201.3800  149.2060 C   0  0  0  0  0  3  0  0  0  0  0  0
  161.9570  209.6810  148.6340 C   0  0  0  0  0  1  0  0  0  0  0  0
  162.2370  208.3170  148.9030 O   0  0  0  0  0  0  0  0  0  0  0  0
  160.4550  209.1250  154.2170 N   0  0  0  0  0  2  0  0  0  0  0  0
  161.7720  210.7570  155.2300 O   0  0  0  0  0  0  0  0  0  0  0  0
  160.6390  210.4130  154.7950 C   0  0  0  0  0  0  0  0  0  0  0  0
  159.4870  211.3590  154.8700 C   0  0  0  0  0  2  0  0  0  0  0  0
  160.2550  212.0790  152.6030 N   0  0  0  0  0  0  0  0  0  0  0  0
  160.1700  213.0500  150.3550 C   0  0  0  0  0  3  0  0  0  0  0  0
  159.2840  212.0370  153.5540 C   0  0  0  0  0  0  0  0  0  0  0  0
  157.5020  213.7050  151.0870 C   0  0  0  0  0  3  0  0  0  0  0  0
  157.9980  214.0440  149.8130 C   0  0  0  0  0  3  0  0  0  0  0  0
  159.3290  213.7260  149.4430 C   0  0  0  0  0  0  0  0  0  0  0  0
  158.1090  212.6290  153.1970 N   0  0  0  0  0  2  0  0  0  0  0  0
  159.6430  212.7260  151.6010 C   0  0  0  0  0  0  0  0  0  0  0  0
  158.3690  213.0530  151.9560 C   0  0  0  0  0  0  0  0  0  0  0  0
  159.8390  214.0990  148.1140 C   0  0  0  0  0  0  0  0  0  0  0  0
  161.0720  214.3260  147.9440 O   0  0  0  0  0  1  0  0  0  0  0  0
  158.9710  214.2120  147.0350 O   0  0  0  0  0  0  0  0  0  0  0  0
  1 18  1  0  0  0  0
  2  5  1  0  0  0  0
  3  1  1  0  0  0  0
  4  6  2  0  0  0  0
  5  3  2  0  0  0  0
  6  3  1  0  0  0  0
  7  4  1  0  0  0  0
  7  2  2  0  0  0  0
  9  8  1  6  0  0  0
  9 11  1  0  0  0  0
  9  7  1  0  0  0  0
 10 13  2  0  0  0  0
 10 11  1  0  0  0  0
 11 12  2  0  0  0  0
 12 14  1  0  0  0  0
 13 15  1  0  0  0  0
 15 14  2  0  0  0  0
 16 17  1  0  0  0  0
 17  4  1  0  0  0  0
 18 20  1  0  0  0  0
 20 21  1  0  0  0  0
 20 19  2  0  0  0  0
 22 24  2  0  0  0  0
 23 29  1  0  0  0  0
 24 21  1  0  0  0  0
 25 30  1  0  0  0  0
 26 25  2  0  0  0  0
 27 26  1  0  0  0  0
 27 23  2  0  0  0  0
 28 24  1  0  0  0  0
 29 30  2  0  0  0  0
 29 22  1  0  0  0  0
 30 28  1  0  0  0  0
 31 27  1  0  0  0  0
 32 31  1  0  0  0  0
 33 31  2  0  0  0  0
M  END
>  <MODEL>
7

>  <REMARK>
 VINA RESULT:      -7.5      2.865      9.664
  Name = 
  8 active torsions:
  status: ('A' for Active; 'I' for Inactive)
    1  A    between atoms: N_2  and  N_8
    2  A    between atoms: C_5  and  C_27
    3  A    between atoms: N_8  and  C_11
    4  A    between atoms: C_9  and  C_19
    5  A    between atoms: C_12  and  O_22
    6  A    between atoms: C_16  and  C_29
    7  A    between atoms: C_17  and  C_19
    8  A    between atoms: C_28  and  C_29
                            x       y       z     vdW  Elec       q    Type
                         _______ _______ _______ _____ _____    ______ ____

>  <TORSDO>
F 8

$$$$
=
 OpenBabel11072412293D

 33 36  0  0  1  0  0  0  0  0999 V2000
  162.3630  209.7810  148.3760 N   0  0  0  0  0  0  0  0  0  0  0  0
  161.5550  206.1800  148.9550 C   0  0  0  0  0  3  0  0  0  0  0  0
  161.9540  208.5680  149.0140 C   0  0  0  0  0  0  0  0  0  0  0  0
  161.2040  207.4010  151.0190 C   0  0  0  0  0  0  0  0  0  0  0  0
  161.9280  207.3620  148.3100 C   0  0  0  0  0  3  0  0  0  0  0  0
  161.5900  208.5830  150.3590 C   0  0  0  0  0  3  0  0  0  0  0  0
  161.2010  206.1890  150.3120 C   0  0  0  0  0  0  0  0  0  0  0  0
  161.5110  204.7160  152.1690 O   0  0  0  0  0  1  0  0  0  0  0  0
  160.7830  204.9180  150.9920 C   0  0  2  0  0  3  0  0  0  0  0  0
  160.7700  202.4470  150.6150 C   0  0  0  0  0  3  0  0  0  0  0  0
  160.8970  203.7340  150.0820 C   0  0  0  0  0  0  0  0  0  0  0  0
  161.1160  203.8940  148.7080 C   0  0  0  0  0  3  0  0  0  0  0  0
  160.8590  201.3280  149.7810 C   0  0  0  0  0  3  0  0  0  0  0  0
  161.2070  202.7740  147.8750 C   0  0  0  0  0  3  0  0  0  0  0  0
  161.0770  201.4910  148.4120 C   0  0  0  0  0  3  0  0  0  0  0  0
  161.0420  208.5220  153.2250 C   0  0  0  0  0  1  0  0  0  0  0  0
  160.8310  207.4100  152.3710 O   0  0  0  0  0  0  0  0  0  0  0  0
  161.5590  210.9300  148.3870 N   0  0  0  0  0  0  0  0  0  0  0  0
  163.3490  212.3880  148.0820 O   0  0  0  0  0  0  0  0  0  0  0  0
  162.1020  212.2000  148.0420 C   0  0  0  0  0  0  0  0  0  0  0  0
  161.1900  213.3030  147.6180 C   0  0  0  0  0  2  0  0  0  0  0  0
  160.2790  213.5240  149.9350 N   0  0  0  0  0  0  0  0  0  0  0  0
  158.6490  213.8390  151.7380 C   0  0  0  0  0  3  0  0  0  0  0  0
  160.0690  213.4530  148.5940 C   0  0  0  0  0  0  0  0  0  0  0  0
  156.7780  213.9170  149.5970 C   0  0  0  0  0  3  0  0  0  0  0  0
  156.3480  214.0700  150.9290 C   0  0  0  0  0  3  0  0  0  0  0  0
  157.2740  214.0270  152.0020 C   0  0  0  0  0  0  0  0  0  0  0  0
  158.7640  213.5650  148.2140 N   0  0  0  0  0  2  0  0  0  0  0  0
  159.0370  213.6970  150.4090 C   0  0  0  0  0  0  0  0  0  0  0  0
  158.1380  213.7190  149.3860 C   0  0  0  0  0  0  0  0  0  0  0  0
  156.8090  214.1750  153.3910 C   0  0  0  0  0  0  0  0  0  0  0  0
  155.5730  214.1470  153.6560 O   0  0  0  0  0  0  0  0  0  0  0  0
  157.7230  214.3510  154.4230 O   0  0  0  0  0  1  0  0  0  0  0  0
  1 18  2  0  0  0  0
  1  3  1  0  0  0  0
  2  7  1  0  0  0  0
  3  6  2  0  0  0  0
  4 17  1  0  0  0  0
  5  2  2  0  0  0  0
  5  3  1  0  0  0  0
  6  4  1  0  0  0  0
  7  9  1  0  0  0  0
  7  4  2  0  0  0  0
  9  8  1  1  0  0  0
 11 10  1  0  0  0  0
 11  9  1  0  0  0  0
 12 11  2  0  0  0  0
 13 10  2  0  0  0  0
 14 15  2  0  0  0  0
 14 12  1  0  0  0  0
 15 13  1  0  0  0  0
 17 16  1  0  0  0  0
 20 19  2  0  0  0  0
 20 18  1  0  0  0  0
 21 20  1  0  0  0  0
 21 24  1  0  0  0  0
 22 29  1  0  0  0  0
 23 27  1  0  0  0  0
 24 22  2  0  0  0  0
 25 26  1  0  0  0  0
 26 27  2  0  0  0  0
 27 31  1  0  0  0  0
 28 24  1  0  0  0  0
 28 30  1  0  0  0  0
 29 23  2  0  0  0  0
 30 25  2  0  0  0  0
 30 29  1  0  0  0  0
 31 32  2  0  0  0  0
 31 33  1  0  0  0  0
M  END
>  <MODEL>
8

>  <REMARK>
 VINA RESULT:      -7.4      3.567     10.569
  Name = 
  8 active torsions:
  status: ('A' for Active; 'I' for Inactive)
    1  A    between atoms: N_2  and  N_8
    2  A    between atoms: C_5  and  C_27
    3  A    between atoms: N_8  and  C_11
    4  A    between atoms: C_9  and  C_19
    5  A    between atoms: C_12  and  O_22
    6  A    between atoms: C_16  and  C_29
    7  A    between atoms: C_17  and  C_19
    8  A    between atoms: C_28  and  C_29
                            x       y       z     vdW  Elec       q    Type
                         _______ _______ _______ _____ _____    ______ ____

>  <TORSDO>
F 8

$$$$
=
 OpenBabel11072412293D

 33 36  0  0  1  0  0  0  0  0999 V2000
  160.4540  212.8070  145.8970 N   0  0  0  0  0  0  0  0  0  0  0  0
  159.4560  212.2610  142.3390 C   0  0  0  0  0  3  0  0  0  0  0  0
  160.5160  212.6940  144.4720 C   0  0  0  0  0  0  0  0  0  0  0  0
  161.8000  212.8770  142.4070 C   0  0  0  0  0  0  0  0  0  0  0  0
  159.3860  212.3380  143.7310 C   0  0  0  0  0  3  0  0  0  0  0  0
  161.7130  212.9580  143.8100 C   0  0  0  0  0  3  0  0  0  0  0  0
  160.6560  212.5380  141.6680 C   0  0  0  0  0  0  0  0  0  0  0  0
  159.6700  213.1270  139.5710 O   0  0  0  0  0  1  0  0  0  0  0  0
  160.7260  212.4360  140.1720 C   0  0  2  0  0  3  0  0  0  0  0  0
  161.8280  210.1930  140.1070 C   0  0  0  0  0  3  0  0  0  0  0  0
  160.7660  211.0110  139.7110 C   0  0  0  0  0  0  0  0  0  0  0  0
  159.7510  210.4820  138.9020 C   0  0  0  0  0  3  0  0  0  0  0  0
  161.8770  208.8560  139.6990 C   0  0  0  0  0  3  0  0  0  0  0  0
  159.8020  209.1460  138.4930 C   0  0  0  0  0  3  0  0  0  0  0  0
  160.8650  208.3330  138.8940 C   0  0  0  0  0  3  0  0  0  0  0  0
  163.5180  214.4420  141.5450 C   0  0  0  0  0  1  0  0  0  0  0  0
  163.0020  213.1350  141.7340 O   0  0  0  0  0  0  0  0  0  0  0  0
  161.5890  212.6350  146.7020 N   0  0  0  0  0  0  0  0  0  0  0  0
  160.3770  212.5980  148.6910 O   0  0  0  0  0  0  0  0  0  0  0  0
  161.4570  212.3460  148.0900 C   0  0  0  0  0  0  0  0  0  0  0  0
  162.5990  211.7280  148.8270 C   0  0  0  0  0  2  0  0  0  0  0  0
  161.9570  209.3420  148.4510 N   0  0  0  0  0  0  0  0  0  0  0  0
  161.4000  207.0100  148.9580 C   0  0  0  0  0  3  0  0  0  0  0  0
  162.2290  210.3620  149.3070 C   0  0  0  0  0  0  0  0  0  0  0  0
  161.6960  207.8620  151.6550 C   0  0  0  0  0  3  0  0  0  0  0  0
  161.3710  206.5240  151.3580 C   0  0  0  0  0  3  0  0  0  0  0  0
  161.2160  206.0930  150.0170 C   0  0  0  0  0  0  0  0  0  0  0  0
  162.1730  210.0300  150.6280 N   0  0  0  0  0  2  0  0  0  0  0  0
  161.7270  208.3210  149.2890 C   0  0  0  0  0  0  0  0  0  0  0  0
  161.8530  208.7320  150.5820 C   0  0  0  0  0  0  0  0  0  0  0  0
  160.8620  204.6950  149.7220 C   0  0  0  0  0  0  0  0  0  0  0  0
  160.3570  203.9620  150.6200 O   0  0  0  0  0  1  0  0  0  0  0  0
  161.0850  204.1660  148.4560 O   0  0  0  0  0  0  0  0  0  0  0  0
  1 18  2  0  0  0  0
  2  5  1  0  0  0  0
  3  1  1  0  0  0  0
  4  6  2  0  0  0  0
  5  3  2  0  0  0  0
  6  3  1  0  0  0  0
  7  2  2  0  0  0  0
  7  4  1  0  0  0  0
  9  8  1  6  0  0  0
  9  7  1  0  0  0  0
 11 10  1  0  0  0  0
 11  9  1  0  0  0  0
 12 11  2  0  0  0  0
 13 10  2  0  0  0  0
 14 15  2  0  0  0  0
 14 12  1  0  0  0  0
 15 13  1  0  0  0  0
 16 17  1  0  0  0  0
 17  4  1  0  0  0  0
 18 20  1  0  0  0  0
 20 19  2  0  0  0  0
 20 21  1  0  0  0  0
 21 24  1  0  0  0  0
 22 29  1  0  0  0  0
 22 24  2  0  0  0  0
 23 29  2  0  0  0  0
 23 27  1  0  0  0  0
 24 28  1  0  0  0  0
 26 25  1  0  0  0  0
 27 26  2  0  0  0  0
 29 30  1  0  0  0  0
 30 28  1  0  0  0  0
 30 25  2  0  0  0  0
 31 27  1  0  0  0  0
 31 32  1  0  0  0  0
 33 31  2  0  0  0  0
M  END
>  <MODEL>
9

>  <REMARK>
 VINA RESULT:      -7.2      7.630     11.128
  Name = 
  8 active torsions:
  status: ('A' for Active; 'I' for Inactive)
    1  A    between atoms: N_2  and  N_8
    2  A    between atoms: C_5  and  C_27
    3  A    between atoms: N_8  and  C_11
    4  A    between atoms: C_9  and  C_19
    5  A    between atoms: C_12  and  O_22
    6  A    between atoms: C_16  and  C_29
    7  A    between atoms: C_17  and  C_19
    8  A    between atoms: C_28  and  C_29
                            x       y       z     vdW  Elec       q    Type
                         _______ _______ _______ _____ _____    ______ ____

>  <TORSDO>
F 8

$$$$
