=
 OpenBabel11072414443D

 45 50  0  0  1  0  0  0  0  0999 V2000
  161.1500  206.1470  152.6090 C   0  0  0  0  0  3  0  0  0  0  0  0
  160.9190  207.0030  153.6830 C   0  0  0  0  0  0  0  0  0  0  0  0
  160.9350  208.8820  152.1590 C   0  0  0  0  0  3  0  0  0  0  0  0
  160.8170  208.3900  153.4670 C   0  0  0  0  0  0  0  0  0  0  0  0
  160.3520  208.7870  155.8070 N   0  0  0  0  0  0  0  0  0  0  0  0
  160.8440  206.4040  155.0560 C   0  0  0  0  0  3  0  0  0  0  0  0
  161.2750  206.6280  151.2970 C   0  0  0  0  0  0  0  0  0  0  0  0
  160.3430  207.3820  156.0740 C   0  0  0  0  0  0  0  0  0  0  0  0
  160.5890  209.2940  154.6330 C   0  0  0  0  0  0  0  0  0  0  0  0
  160.0380  206.9610  157.2570 N   0  0  0  0  0  1  0  0  0  0  0  0
  161.1740  208.0210  151.0740 C   0  0  0  0  0  0  0  0  0  0  0  0
  159.6320  213.5640  151.4170 C   0  0  0  0  0  2  0  0  0  0  0  0
  159.9700  211.3580  153.2890 C   0  0  2  0  0  3  0  0  0  0  0  0
  159.6860  211.4560  155.6020 C   0  0  2  0  0  3  0  0  0  0  0  0
  160.5580  210.7950  154.5370 C   0  0  1  0  0  3  0  0  0  0  0  0
  158.8760  213.5510  152.7590 C   0  0  2  0  0  3  0  0  0  0  0  0
  160.1150  212.1680  150.9760 C   0  0  0  0  0  2  0  0  0  0  0  0
  160.8900  211.4520  152.0900 C   0  0  0  0  0  2  0  0  0  0  0  0
  159.6870  212.7450  153.7770 C   0  0  1  0  0  3  0  0  0  0  0  0
  159.1310  212.6460  155.0640 O   0  0  0  0  0  0  0  0  0  0  0  0
  160.4660  211.7300  156.8900 C   0  0  1  0  0  3  0  0  0  0  0  0
  161.9420  211.3860  156.7480 C   0  0  0  0  0  1  0  0  0  0  0  0
  160.3290  213.0730  157.2460 O   0  0  0  0  0  1  0  0  0  0  0  0
  157.4460  213.0430  152.5870 C   0  0  0  0  0  2  0  0  0  0  0  0
  156.5150  214.4530  154.5480 C   0  0  0  0  0  2  0  0  0  0  0  0
  155.4360  213.3180  156.5090 C   0  0  2  0  0  3  0  0  0  0  0  0
  154.2610  213.2410  157.2610 O   0  0  0  0  0  1  0  0  0  0  0  0
  155.3040  214.4420  155.4840 C   0  0  0  0  0  2  0  0  0  0  0  0
  156.7100  213.1170  153.8840 C   0  0  0  0  0  0  0  0  0  0  0  0
  156.3650  211.9870  154.5050 C   0  0  0  0  0  3  0  0  0  0  0  0
  155.4460  210.9150  156.3970 O   0  0  0  0  0  0  0  0  0  0  0  0
  155.7080  212.0040  155.8200 C   0  0  0  0  0  0  0  0  0  0  0  0
  161.3040  206.1230  148.8350 C   0  0  0  0  0  2  0  0  0  0  0  0
  161.5110  205.6900  150.2230 N   0  0  0  0  0  0  0  0  0  0  0  0
  160.8720  203.6950  148.3040 C   0  0  0  0  0  2  0  0  0  0  0  0
  161.5620  204.9820  147.8450 C   0  0  1  0  0  3  0  0  0  0  0  0
  161.2520  203.2940  149.7390 C   0  0  0  0  0  2  0  0  0  0  0  0
  162.0670  204.3590  150.4760 C   0  0  0  0  0  2  0  0  0  0  0  0
  161.7530  204.9030  145.2930 C   0  0  0  0  0  0  0  0  0  0  0  0
  161.1310  205.3570  146.5010 N   0  0  0  0  0  2  0  0  0  0  0  0
  162.7760  204.1670  145.3330 O   0  0  0  0  0  0  0  0  0  0  0  0
  161.1860  205.3030  143.9810 C   0  0  0  0  0  1  0  0  0  0  0  0
  161.3560  208.5390  149.7880 O   0  0  0  0  0  0  0  0  0  0  0  0
  162.4280  209.4040  149.4400 C   0  0  0  0  0  2  0  0  0  0  0  0
  162.0310  210.2410  148.2390 C   0  0  0  0  0  1  0  0  0  0  0  0
  1  2  1  0  0  0  0
  2  6  1  0  0  0  0
  3  4  1  0  0  0  0
  4  2  2  0  0  0  0
  4  9  1  0  0  0  0
  5  8  1  0  0  0  0
  6  8  2  0  0  0  0
  7  1  2  0  0  0  0
  8 10  1  0  0  0  0
  9  5  2  0  0  0  0
 11  7  1  0  0  0  0
 11  3  2  0  0  0  0
 12 16  1  0  0  0  0
 13 18  1  6  0  0  0
 13 19  1  0  0  0  0
 13 15  1  0  0  0  0
 14 21  1  1  0  0  0
 15  9  1  6  0  0  0
 15 14  1  0  0  0  0
 16 24  1  6  0  0  0
 16 19  1  0  0  0  0
 17 12  1  0  0  0  0
 17 18  1  0  0  0  0
 19 20  1  1  0  0  0
 20 14  1  0  0  0  0
 21 22  1  6  0  0  0
 21 23  1  0  0  0  0
 24 29  1  0  0  0  0
 25 28  1  0  0  0  0
 26 27  1  6  0  0  0
 28 26  1  0  0  0  0
 29 30  2  0  0  0  0
 29 25  1  0  0  0  0
 30 32  1  0  0  0  0
 32 31  2  0  0  0  0
 32 26  1  0  0  0  0
 33 34  1  0  0  0  0
 34 38  1  0  0  0  0
 34  7  1  0  0  0  0
 35 37  1  0  0  0  0
 36 40  1  6  0  0  0
 36 35  1  0  0  0  0
 36 33  1  0  0  0  0
 37 38  1  0  0  0  0
 39 41  2  0  0  0  0
 39 40  1  0  0  0  0
 42 39  1  0  0  0  0
 43 11  1  0  0  0  0
 44 43  1  0  0  0  0
 45 44  1  0  0  0  0
M  END
>  <MODEL>
1

>  <REMARK>
 VINA RESULT:      -7.3      0.000      0.000
  Name = 
  8 active torsions:
  status: ('A' for Active; 'I' for Inactive)
    1  A    between atoms: N_3  and  C_15
    2  A    between atoms: C_9  and  O_25
    3  A    between atoms: C_16  and  C_20
    4  A    between atoms: C_18  and  C_21
    5  A    between atoms: C_22  and  C_30
    6  A    between atoms: C_24  and  N_31
    7  A    between atoms: O_25  and  C_44
    8  A    between atoms: C_30  and  C_34
                            x       y       z     vdW  Elec       q    Type
                         _______ _______ _______ _____ _____    ______ ____

>  <TORSDO>
F 8

$$$$
=
 OpenBabel11072414443D

 45 50  0  0  1  0  0  0  0  0999 V2000
  161.0890  206.1580  151.4250 C   0  0  0  0  0  3  0  0  0  0  0  0
  160.9680  206.8960  152.6010 C   0  0  0  0  0  0  0  0  0  0  0  0
  161.0040  208.9350  151.2990 C   0  0  0  0  0  3  0  0  0  0  0  0
  160.9330  208.3020  152.5490 C   0  0  0  0  0  0  0  0  0  0  0  0
  160.6260  208.4490  154.9420 N   0  0  0  0  0  0  0  0  0  0  0  0
  160.9390  206.1480  153.9000 C   0  0  0  0  0  3  0  0  0  0  0  0
  161.1660  206.7810  150.1710 C   0  0  0  0  0  0  0  0  0  0  0  0
  160.5520  207.0250  155.0510 C   0  0  0  0  0  0  0  0  0  0  0  0
  160.8240  209.0760  153.8200 C   0  0  0  0  0  0  0  0  0  0  0  0
  160.2920  206.4860  156.1960 N   0  0  0  0  0  1  0  0  0  0  0  0
  161.1320  208.1930  150.1110 C   0  0  0  0  0  0  0  0  0  0  0  0
  159.9260  213.7310  151.1700 C   0  0  0  0  0  2  0  0  0  0  0  0
  160.2460  211.3090  152.7590 C   0  0  2  0  0  3  0  0  0  0  0  0
  160.1030  211.1540  155.0810 C   0  0  2  0  0  3  0  0  0  0  0  0
  160.8730  210.5780  153.8950 C   0  0  1  0  0  3  0  0  0  0  0  0
  159.2500  213.6000  152.5480 C   0  0  2  0  0  3  0  0  0  0  0  0
  160.3020  212.3720  150.5460 C   0  0  0  0  0  2  0  0  0  0  0  0
  161.0990  211.4950  151.5210 C   0  0  0  0  0  2  0  0  0  0  0  0
  160.0720  212.6430  153.4160 C   0  0  1  0  0  3  0  0  0  0  0  0
  159.5870  212.4250  154.7170 O   0  0  0  0  0  0  0  0  0  0  0  0
  160.9710  211.2380  156.3390 C   0  0  1  0  0  3  0  0  0  0  0  0
  160.9140  212.6170  156.9810 C   0  0  0  0  0  1  0  0  0  0  0  0
  160.5590  210.2740  157.2610 O   0  0  0  0  0  1  0  0  0  0  0  0
  157.7850  213.1880  152.4130 C   0  0  0  0  0  2  0  0  0  0  0  0
  157.1210  214.4280  154.5860 C   0  0  0  0  0  2  0  0  0  0  0  0
  156.0050  213.1780  156.4540 C   0  0  2  0  0  3  0  0  0  0  0  0
  154.8650  213.1370  157.2610 O   0  0  0  0  0  1  0  0  0  0  0  0
  155.9620  214.4330  155.5850 C   0  0  0  0  0  2  0  0  0  0  0  0
  157.1240  213.1760  153.7520 C   0  0  0  0  0  0  0  0  0  0  0  0
  156.6760  212.0210  154.2480 C   0  0  0  0  0  3  0  0  0  0  0  0
  155.7240  210.8240  156.0470 O   0  0  0  0  0  0  0  0  0  0  0  0
  156.0870  211.9420  155.5930 C   0  0  0  0  0  0  0  0  0  0  0  0
  161.2530  204.5000  149.1170 C   0  0  0  0  0  2  0  0  0  0  0  0
  161.2860  205.9630  148.9850 N   0  0  0  0  0  0  0  0  0  0  0  0
  162.5990  204.4310  146.9850 C   0  0  0  0  0  2  0  0  0  0  0  0
  161.4360  203.8080  147.7630 C   0  0  1  0  0  3  0  0  0  0  0  0
  162.4610  205.9530  146.8260 C   0  0  0  0  0  2  0  0  0  0  0  0
  161.3160  206.5530  147.6460 C   0  0  0  0  0  2  0  0  0  0  0  0
  161.1950  201.3720  147.0120 C   0  0  0  0  0  0  0  0  0  0  0  0
  161.6350  202.3710  147.9390 N   0  0  0  0  0  2  0  0  0  0  0  0
  160.5460  201.6920  145.9800 O   0  0  0  0  0  0  0  0  0  0  0  0
  161.5090  199.9440  147.2690 C   0  0  0  0  0  1  0  0  0  0  0  0
  161.2680  208.8470  148.8820 O   0  0  0  0  0  0  0  0  0  0  0  0
  162.1950  209.9000  148.6580 C   0  0  0  0  0  2  0  0  0  0  0  0
  161.5230  211.0040  147.8660 C   0  0  0  0  0  1  0  0  0  0  0  0
  1  2  1  0  0  0  0
  2  6  1  0  0  0  0
  3  4  1  0  0  0  0
  4  2  2  0  0  0  0
  4  9  1  0  0  0  0
  5  8  1  0  0  0  0
  6  8  2  0  0  0  0
  7  1  2  0  0  0  0
  8 10  1  0  0  0  0
  9  5  2  0  0  0  0
 11  7  1  0  0  0  0
 11  3  2  0  0  0  0
 12 16  1  0  0  0  0
 13 18  1  6  0  0  0
 13 19  1  0  0  0  0
 13 15  1  0  0  0  0
 14 21  1  1  0  0  0
 15  9  1  6  0  0  0
 15 14  1  0  0  0  0
 16 24  1  6  0  0  0
 16 19  1  0  0  0  0
 17 12  1  0  0  0  0
 17 18  1  0  0  0  0
 19 20  1  1  0  0  0
 20 14  1  0  0  0  0
 21 22  1  1  0  0  0
 21 23  1  0  0  0  0
 24 29  1  0  0  0  0
 25 28  1  0  0  0  0
 26 27  1  6  0  0  0
 28 26  1  0  0  0  0
 29 30  2  0  0  0  0
 29 25  1  0  0  0  0
 30 32  1  0  0  0  0
 32 31  2  0  0  0  0
 32 26  1  0  0  0  0
 34 33  1  0  0  0  0
 34  7  1  0  0  0  0
 35 36  1  0  0  0  0
 36 40  1  1  0  0  0
 36 33  1  0  0  0  0
 37 35  1  0  0  0  0
 37 38  1  0  0  0  0
 38 34  1  0  0  0  0
 39 42  1  0  0  0  0
 39 40  1  0  0  0  0
 41 39  2  0  0  0  0
 43 11  1  0  0  0  0
 44 43  1  0  0  0  0
 45 44  1  0  0  0  0
M  END
>  <MODEL>
2

>  <REMARK>
 VINA RESULT:      -7.3      1.348      1.835
  Name = 
  8 active torsions:
  status: ('A' for Active; 'I' for Inactive)
    1  A    between atoms: N_3  and  C_15
    2  A    between atoms: C_9  and  O_25
    3  A    between atoms: C_16  and  C_20
    4  A    between atoms: C_18  and  C_21
    5  A    between atoms: C_22  and  C_30
    6  A    between atoms: C_24  and  N_31
    7  A    between atoms: O_25  and  C_44
    8  A    between atoms: C_30  and  C_34
                            x       y       z     vdW  Elec       q    Type
                         _______ _______ _______ _____ _____    ______ ____

>  <TORSDO>
F 8

$$$$
=
 OpenBabel11072414443D

 45 50  0  0  1  0  0  0  0  0999 V2000
  160.9750  206.3630  152.4270 C   0  0  0  0  0  3  0  0  0  0  0  0
  160.8400  207.6220  153.0080 C   0  0  0  0  0  0  0  0  0  0  0  0
  160.9670  208.6250  150.8100 C   0  0  0  0  0  3  0  0  0  0  0  0
  160.8440  208.7740  152.1990 C   0  0  0  0  0  0  0  0  0  0  0  0
  160.4700  210.2010  154.1140 N   0  0  0  0  0  0  0  0  0  0  0  0
  160.7520  207.7010  154.5030 C   0  0  0  0  0  3  0  0  0  0  0  0
  161.1050  206.2030  151.0390 C   0  0  0  0  0  0  0  0  0  0  0  0
  160.3550  209.0660  154.9760 C   0  0  0  0  0  0  0  0  0  0  0  0
  160.7180  210.1150  152.8410 C   0  0  0  0  0  0  0  0  0  0  0  0
  160.0480  209.2380  156.2190 N   0  0  0  0  0  1  0  0  0  0  0  0
  161.1100  207.3560  150.2210 C   0  0  0  0  0  0  0  0  0  0  0  0
  162.2710  212.5430  148.2370 C   0  0  0  0  0  2  0  0  0  0  0  0
  161.2110  211.3200  150.6600 C   0  0  2  0  0  3  0  0  0  0  0  0
  159.4660  212.1410  151.9700 C   0  0  2  0  0  3  0  0  0  0  0  0
  160.8040  211.4160  152.0900 C   0  0  1  0  0  3  0  0  0  0  0  0
  160.8150  212.7940  148.6710 C   0  0  2  0  0  3  0  0  0  0  0  0
  162.8810  211.2710  148.8610 C   0  0  0  0  0  2  0  0  0  0  0  0
  162.6980  211.2360  150.3840 C   0  0  0  0  0  2  0  0  0  0  0  0
  160.7190  212.6540  150.1920 C   0  0  1  0  0  3  0  0  0  0  0  0
  159.4450  212.8640  150.7490 O   0  0  0  0  0  0  0  0  0  0  0  0
  159.2010  213.0540  153.1700 C   0  0  1  0  0  3  0  0  0  0  0  0
  158.7130  214.4310  152.7430 C   0  0  0  0  0  1  0  0  0  0  0  0
  158.2580  212.4610  154.0130 O   0  0  0  0  0  1  0  0  0  0  0  0
  159.8450  211.8840  147.9180 C   0  0  0  0  0  2  0  0  0  0  0  0
  160.5020  212.5440  145.5030 C   0  0  0  0  0  2  0  0  0  0  0  0
  158.8890  213.8230  144.0680 C   0  0  2  0  0  3  0  0  0  0  0  0
  158.1970  213.8010  142.8540 O   0  0  0  0  0  1  0  0  0  0  0  0
  159.8400  212.6300  144.1260 C   0  0  0  0  0  2  0  0  0  0  0  0
  159.4780  212.4920  146.6040 C   0  0  0  0  0  0  0  0  0  0  0  0
  158.3010  213.1070  146.4750 C   0  0  0  0  0  3  0  0  0  0  0  0
  156.8260  214.4010  145.1620 O   0  0  0  0  0  0  0  0  0  0  0  0
  157.9240  213.7870  145.2270 C   0  0  0  0  0  0  0  0  0  0  0  0
  160.9890  204.6520  149.0640 C   0  0  0  0  0  2  0  0  0  0  0  0
  161.2380  204.8710  150.4950 N   0  0  0  0  0  0  0  0  0  0  0  0
  160.4020  202.2790  149.6850 C   0  0  0  0  0  2  0  0  0  0  0  0
  161.1380  203.1760  148.6850 C   0  0  1  0  0  3  0  0  0  0  0  0
  160.8290  202.5340  151.1390 C   0  0  0  0  0  2  0  0  0  0  0  0
  161.7340  203.7570  151.3070 C   0  0  0  0  0  2  0  0  0  0  0  0
  160.7500  201.6850  146.6400 C   0  0  0  0  0  0  0  0  0  0  0  0
  160.6630  202.9410  147.3240 N   0  0  0  0  0  2  0  0  0  0  0  0
  161.3080  200.6940  147.1810 O   0  0  0  0  0  0  0  0  0  0  0  0
  160.1760  201.5520  145.2760 C   0  0  0  0  0  1  0  0  0  0  0  0
  161.3010  207.2350  148.8410 O   0  0  0  0  0  0  0  0  0  0  0  0
  162.5620  207.4070  148.2100 C   0  0  0  0  0  2  0  0  0  0  0  0
  162.6060  206.5820  146.9380 C   0  0  0  0  0  1  0  0  0  0  0  0
  1  2  1  0  0  0  0
  2  6  1  0  0  0  0
  3  4  1  0  0  0  0
  4  9  1  0  0  0  0
  4  2  2  0  0  0  0
  5  8  1  0  0  0  0
  6  8  2  0  0  0  0
  7  1  2  0  0  0  0
  8 10  1  0  0  0  0
  9  5  2  0  0  0  0
 11  3  2  0  0  0  0
 11  7  1  0  0  0  0
 12 16  1  0  0  0  0
 12 17  1  0  0  0  0
 13 18  1  1  0  0  0
 13 15  1  0  0  0  0
 14 15  1  0  0  0  0
 14 21  1  1  0  0  0
 15  9  1  6  0  0  0
 16 24  1  6  0  0  0
 16 19  1  0  0  0  0
 17 18  1  0  0  0  0
 19 13  1  0  0  0  0
 19 20  1  6  0  0  0
 20 14  1  0  0  0  0
 21 22  1  6  0  0  0
 21 23  1  0  0  0  0
 25 29  1  0  0  0  0
 26 27  1  6  0  0  0
 26 28  1  0  0  0  0
 26 32  1  0  0  0  0
 28 25  1  0  0  0  0
 29 24  1  0  0  0  0
 30 29  2  0  0  0  0
 31 32  2  0  0  0  0
 32 30  1  0  0  0  0
 33 34  1  0  0  0  0
 34  7  1  0  0  0  0
 34 38  1  0  0  0  0
 35 37  1  0  0  0  0
 36 40  1  6  0  0  0
 36 33  1  0  0  0  0
 36 35  1  0  0  0  0
 37 38  1  0  0  0  0
 39 41  2  0  0  0  0
 39 40  1  0  0  0  0
 42 39  1  0  0  0  0
 43 11  1  0  0  0  0
 44 43  1  0  0  0  0
 45 44  1  0  0  0  0
M  END
>  <MODEL>
3

>  <REMARK>
 VINA RESULT:      -7.2      3.162      5.523
  Name = 
  8 active torsions:
  status: ('A' for Active; 'I' for Inactive)
    1  A    between atoms: N_3  and  C_15
    2  A    between atoms: C_9  and  O_25
    3  A    between atoms: C_16  and  C_20
    4  A    between atoms: C_18  and  C_21
    5  A    between atoms: C_22  and  C_30
    6  A    between atoms: C_24  and  N_31
    7  A    between atoms: O_25  and  C_44
    8  A    between atoms: C_30  and  C_34
                            x       y       z     vdW  Elec       q    Type
                         _______ _______ _______ _____ _____    ______ ____

>  <TORSDO>
F 8

$$$$
=
 OpenBabel11072414443D

 45 50  0  0  1  0  0  0  0  0999 V2000
  160.9860  206.4080  152.9570 C   0  0  0  0  0  3  0  0  0  0  0  0
  160.7900  207.5570  153.7210 C   0  0  0  0  0  0  0  0  0  0  0  0
  160.7420  208.8720  151.6910 C   0  0  0  0  0  3  0  0  0  0  0  0
  160.6740  208.8090  153.0900 C   0  0  0  0  0  0  0  0  0  0  0  0
  160.2920  209.9140  155.2070 N   0  0  0  0  0  0  0  0  0  0  0  0
  160.7680  207.4130  155.2130 C   0  0  0  0  0  3  0  0  0  0  0  0
  161.0620  206.4600  151.5570 C   0  0  0  0  0  0  0  0  0  0  0  0
  160.2990  208.6610  155.8960 C   0  0  0  0  0  0  0  0  0  0  0  0
  160.4840  210.0310  153.9260 C   0  0  0  0  0  0  0  0  0  0  0  0
  160.0390  208.6280  157.1610 N   0  0  0  0  0  1  0  0  0  0  0  0
  160.9470  207.7160  150.9170 C   0  0  0  0  0  0  0  0  0  0  0  0
  160.9490  213.1070  149.4740 C   0  0  0  0  0  2  0  0  0  0  0  0
  160.4730  211.5450  151.8870 C   0  0  2  0  0  3  0  0  0  0  0  0
  159.1540  212.1780  153.7030 C   0  0  2  0  0  3  0  0  0  0  0  0
  160.4430  211.4290  153.3720 C   0  0  1  0  0  3  0  0  0  0  0  0
  159.6620  213.3050  150.2970 C   0  0  2  0  0  3  0  0  0  0  0  0
  161.6340  211.7490  149.7330 C   0  0  0  0  0  2  0  0  0  0  0  0
  161.8370  211.4880  151.2320 C   0  0  0  0  0  2  0  0  0  0  0  0
  159.9450  212.9390  151.7560 C   0  0  1  0  0  3  0  0  0  0  0  0
  158.8640  213.0770  152.6440 O   0  0  0  0  0  0  0  0  0  0  0  0
  159.2440  212.9030  155.0480 C   0  0  1  0  0  3  0  0  0  0  0  0
  158.8380  214.3650  154.9370 C   0  0  0  0  0  1  0  0  0  0  0  0
  158.4310  212.2590  155.9840 O   0  0  0  0  0  1  0  0  0  0  0  0
  158.4910  212.5300  149.6950 C   0  0  0  0  0  2  0  0  0  0  0  0
  159.3040  213.2300  147.3390 C   0  0  0  0  0  2  0  0  0  0  0  0
  157.6800  214.1930  145.6860 C   0  0  2  0  0  3  0  0  0  0  0  0
  157.1410  214.0290  144.4070 O   0  0  0  0  0  1  0  0  0  0  0  0
  158.7960  213.1730  145.8960 C   0  0  0  0  0  2  0  0  0  0  0  0
  158.1830  213.0380  148.3240 C   0  0  0  0  0  0  0  0  0  0  0  0
  156.9450  213.4490  148.0440 C   0  0  0  0  0  3  0  0  0  0  0  0
  155.4410  214.4530  146.5260 O   0  0  0  0  0  0  0  0  0  0  0  0
  156.6090  214.0280  146.7350 C   0  0  0  0  0  0  0  0  0  0  0  0
  161.0860  205.2380  149.3600 C   0  0  0  0  0  2  0  0  0  0  0  0
  161.2630  205.2340  150.8180 N   0  0  0  0  0  0  0  0  0  0  0  0
  160.5490  202.7820  149.5720 C   0  0  0  0  0  2  0  0  0  0  0  0
  161.2990  203.8430  148.7630 C   0  0  1  0  0  3  0  0  0  0  0  0
  160.9010  202.8160  151.0680 C   0  0  0  0  0  2  0  0  0  0  0  0
  161.7570  204.0190  151.4690 C   0  0  0  0  0  2  0  0  0  0  0  0
  161.7210  204.2370  146.2690 C   0  0  0  0  0  0  0  0  0  0  0  0
  160.8940  203.8150  147.3600 N   0  0  0  0  0  2  0  0  0  0  0  0
  162.8650  204.7210  146.4760 O   0  0  0  0  0  0  0  0  0  0  0  0
  161.2210  204.1030  144.8760 C   0  0  0  0  0  1  0  0  0  0  0  0
  161.0790  207.8100  149.5280 O   0  0  0  0  0  0  0  0  0  0  0  0
  162.0560  208.6210  148.8920 C   0  0  0  0  0  2  0  0  0  0  0  0
  162.8590  207.7760  147.9210 C   0  0  0  0  0  1  0  0  0  0  0  0
  1  2  1  0  0  0  0
  2  6  1  0  0  0  0
  3  4  1  0  0  0  0
  4  2  2  0  0  0  0
  4  9  1  0  0  0  0
  5  8  1  0  0  0  0
  6  8  2  0  0  0  0
  7  1  2  0  0  0  0
  8 10  1  0  0  0  0
  9  5  2  0  0  0  0
 11  7  1  0  0  0  0
 11  3  2  0  0  0  0
 12 17  1  0  0  0  0
 12 16  1  0  0  0  0
 13 18  1  1  0  0  0
 13 15  1  0  0  0  0
 14 21  1  1  0  0  0
 15 14  1  0  0  0  0
 15  9  1  6  0  0  0
 16 24  1  6  0  0  0
 16 19  1  0  0  0  0
 17 18  1  0  0  0  0
 19 13  1  0  0  0  0
 19 20  1  1  0  0  0
 20 14  1  0  0  0  0
 21 22  1  6  0  0  0
 21 23  1  0  0  0  0
 25 29  1  0  0  0  0
 26 27  1  6  0  0  0
 26 28  1  0  0  0  0
 26 32  1  0  0  0  0
 28 25  1  0  0  0  0
 29 24  1  0  0  0  0
 30 29  2  0  0  0  0
 31 32  2  0  0  0  0
 32 30  1  0  0  0  0
 33 34  1  0  0  0  0
 34 38  1  0  0  0  0
 34  7  1  0  0  0  0
 35 37  1  0  0  0  0
 36 40  1  6  0  0  0
 36 33  1  0  0  0  0
 36 35  1  0  0  0  0
 37 38  1  0  0  0  0
 39 41  2  0  0  0  0
 39 40  1  0  0  0  0
 42 39  1  0  0  0  0
 43 11  1  0  0  0  0
 44 43  1  0  0  0  0
 45 44  1  0  0  0  0
M  END
>  <MODEL>
4

>  <REMARK>
 VINA RESULT:      -6.9      2.811      4.361
  Name = 
  8 active torsions:
  status: ('A' for Active; 'I' for Inactive)
    1  A    between atoms: N_3  and  C_15
    2  A    between atoms: C_9  and  O_25
    3  A    between atoms: C_16  and  C_20
    4  A    between atoms: C_18  and  C_21
    5  A    between atoms: C_22  and  C_30
    6  A    between atoms: C_24  and  N_31
    7  A    between atoms: O_25  and  C_44
    8  A    between atoms: C_30  and  C_34
                            x       y       z     vdW  Elec       q    Type
                         _______ _______ _______ _____ _____    ______ ____

>  <TORSDO>
F 8

$$$$
=
 OpenBabel11072414443D

 45 50  0  0  1  0  0  0  0  0999 V2000
  158.5130  213.2690  153.2310 C   0  0  0  0  0  3  0  0  0  0  0  0
  159.1750  213.1020  152.0160 C   0  0  0  0  0  0  0  0  0  0  0  0
  160.2000  211.0870  152.8780 C   0  0  0  0  0  3  0  0  0  0  0  0
  160.0380  212.0060  151.8310 C   0  0  0  0  0  0  0  0  0  0  0  0
  160.4740  212.6520  149.5420 N   0  0  0  0  0  0  0  0  0  0  0  0
  158.9810  214.1490  150.9600 C   0  0  0  0  0  3  0  0  0  0  0  0
  158.6710  212.3590  154.2860 C   0  0  0  0  0  0  0  0  0  0  0  0
  159.5330  213.7250  149.6340 C   0  0  0  0  0  0  0  0  0  0  0  0
  160.7550  211.8550  150.5310 C   0  0  0  0  0  0  0  0  0  0  0  0
  159.2690  214.4320  148.5850 N   0  0  0  0  0  1  0  0  0  0  0  0
  159.5370  211.2560  154.1070 C   0  0  0  0  0  0  0  0  0  0  0  0
  162.3690  206.8000  151.6880 C   0  0  0  0  0  2  0  0  0  0  0  0
  161.4800  209.4400  150.8340 C   0  0  2  0  0  3  0  0  0  0  0  0
  161.9050  210.4390  148.7700 C   0  0  2  0  0  3  0  0  0  0  0  0
  161.7700  210.7800  150.2520 C   0  0  1  0  0  3  0  0  0  0  0  0
  162.1710  207.1170  150.1940 C   0  0  2  0  0  3  0  0  0  0  0  0
  161.6020  207.7600  152.6200 C   0  0  0  0  0  2  0  0  0  0  0  0
  161.8780  209.2310  152.2810 C   0  0  0  0  0  2  0  0  0  0  0  0
  162.3850  208.6170  149.9720 C   0  0  1  0  0  3  0  0  0  0  0  0
  162.2470  209.0660  148.6470 O   0  0  0  0  0  0  0  0  0  0  0  0
  162.9240  211.3380  148.0660 C   0  0  1  0  0  3  0  0  0  0  0  0
  162.2910  212.1500  146.9460 C   0  0  0  0  0  1  0  0  0  0  0  0
  163.5120  212.1990  148.9950 O   0  0  0  0  0  1  0  0  0  0  0  0
  160.8160  206.6180  149.6940 C   0  0  0  0  0  2  0  0  0  0  0  0
  160.9980  204.0570  150.0160 C   0  0  0  0  0  2  0  0  0  0  0  0
  161.3910  202.5660  148.0360 C   0  0  2  0  0  3  0  0  0  0  0  0
  160.8780  201.4800  147.3230 O   0  0  0  0  0  1  0  0  0  0  0  0
  160.5530  202.7830  149.2930 C   0  0  0  0  0  2  0  0  0  0  0  0
  160.9520  205.2530  149.1050 C   0  0  0  0  0  0  0  0  0  0  0  0
  161.1740  205.1250  147.7950 C   0  0  0  0  0  3  0  0  0  0  0  0
  161.6490  203.7340  145.9490 O   0  0  0  0  0  0  0  0  0  0  0  0
  161.3900  203.8080  147.1790 C   0  0  0  0  0  0  0  0  0  0  0  0
  156.7160  211.8370  155.7770 C   0  0  0  0  0  2  0  0  0  0  0  0
  157.9540  212.5830  155.5210 N   0  0  0  0  0  0  0  0  0  0  0  0
  156.0420  213.7630  157.2600 C   0  0  0  0  0  2  0  0  0  0  0  0
  156.0810  212.2400  157.1120 C   0  0  1  0  0  3  0  0  0  0  0  0
  157.4220  214.4140  157.0720 C   0  0  0  0  0  2  0  0  0  0  0  0
  158.4950  213.4430  156.5770 C   0  0  0  0  0  2  0  0  0  0  0  0
  154.3460  210.4020  156.6980 C   0  0  0  0  0  0  0  0  0  0  0  0
  154.7430  211.6670  157.2410 N   0  0  0  0  0  2  0  0  0  0  0  0
  155.1490  209.7140  156.0130 O   0  0  0  0  0  0  0  0  0  0  0  0
  152.9730  209.8950  156.9480 C   0  0  0  0  0  1  0  0  0  0  0  0
  159.7660  210.3650  155.1600 O   0  0  0  0  0  0  0  0  0  0  0  0
  161.0410  210.1720  155.7550 C   0  0  0  0  0  2  0  0  0  0  0  0
  160.8810  209.4070  157.0550 C   0  0  0  0  0  1  0  0  0  0  0  0
  1  7  1  0  0  0  0
  2  1  2  0  0  0  0
  3 11  1  0  0  0  0
  4  2  1  0  0  0  0
  4  3  2  0  0  0  0
  5  8  1  0  0  0  0
  5  9  2  0  0  0  0
  6  2  1  0  0  0  0
  7 34  1  0  0  0  0
  8  6  2  0  0  0  0
  9  4  1  0  0  0  0
 10  8  1  0  0  0  0
 11  7  2  0  0  0  0
 11 43  1  0  0  0  0
 12 17  1  0  0  0  0
 13 18  1  1  0  0  0
 14 21  1  1  0  0  0
 14 15  1  0  0  0  0
 15  9  1  6  0  0  0
 15 13  1  0  0  0  0
 16 24  1  1  0  0  0
 16 12  1  0  0  0  0
 18 17  1  0  0  0  0
 19 20  1  6  0  0  0
 19 16  1  0  0  0  0
 19 13  1  0  0  0  0
 20 14  1  0  0  0  0
 21 22  1  6  0  0  0
 21 23  1  0  0  0  0
 26 27  1  6  0  0  0
 26 28  1  0  0  0  0
 28 25  1  0  0  0  0
 29 24  1  0  0  0  0
 29 25  1  0  0  0  0
 30 29  2  0  0  0  0
 31 32  2  0  0  0  0
 32 30  1  0  0  0  0
 32 26  1  0  0  0  0
 33 36  1  0  0  0  0
 34 33  1  0  0  0  0
 34 38  1  0  0  0  0
 36 40  1  6  0  0  0
 36 35  1  0  0  0  0
 37 35  1  0  0  0  0
 38 37  1  0  0  0  0
 39 42  1  0  0  0  0
 39 40  1  0  0  0  0
 41 39  2  0  0  0  0
 43 44  1  0  0  0  0
 44 45  1  0  0  0  0
M  END
>  <MODEL>
5

>  <REMARK>
 VINA RESULT:      -6.3      2.664     10.086
  Name = 
  8 active torsions:
  status: ('A' for Active; 'I' for Inactive)
    1  A    between atoms: N_3  and  C_15
    2  A    between atoms: C_9  and  O_25
    3  A    between atoms: C_16  and  C_20
    4  A    between atoms: C_18  and  C_21
    5  A    between atoms: C_22  and  C_30
    6  A    between atoms: C_24  and  N_31
    7  A    between atoms: O_25  and  C_44
    8  A    between atoms: C_30  and  C_34
                            x       y       z     vdW  Elec       q    Type
                         _______ _______ _______ _____ _____    ______ ____

>  <TORSDO>
F 8

$$$$
=
 OpenBabel11072414443D

 45 50  0  0  1  0  0  0  0  0999 V2000
  161.0660  205.0120  153.0140 C   0  0  0  0  0  3  0  0  0  0  0  0
  160.9430  206.1150  153.8550 C   0  0  0  0  0  0  0  0  0  0  0  0
  161.4060  207.5700  151.9780 C   0  0  0  0  0  3  0  0  0  0  0  0
  161.1220  207.4140  153.3430 C   0  0  0  0  0  0  0  0  0  0  0  0
  160.6120  208.4040  155.4880 N   0  0  0  0  0  0  0  0  0  0  0  0
  160.6780  205.8650  155.3100 C   0  0  0  0  0  3  0  0  0  0  0  0
  161.3550  205.1550  151.6490 C   0  0  0  0  0  0  0  0  0  0  0  0
  160.3170  207.1190  156.0450 C   0  0  0  0  0  0  0  0  0  0  0  0
  161.0070  208.5830  154.2630 C   0  0  0  0  0  0  0  0  0  0  0  0
  159.8710  207.0360  157.2540 N   0  0  0  0  0  1  0  0  0  0  0  0
  161.5360  206.4570  151.1270 C   0  0  0  0  0  0  0  0  0  0  0  0
  161.3000  212.0640  150.1040 C   0  0  0  0  0  2  0  0  0  0  0  0
  160.9680  210.3400  152.4290 C   0  0  2  0  0  3  0  0  0  0  0  0
  160.4040  211.0240  154.5860 C   0  0  2  0  0  3  0  0  0  0  0  0
  161.2700  210.0050  153.8490 C   0  0  1  0  0  3  0  0  0  0  0  0
  160.3840  212.4840  151.2690 C   0  0  2  0  0  3  0  0  0  0  0  0
  161.5670  210.5460  150.0570 C   0  0  0  0  0  2  0  0  0  0  0  0
  162.0400  210.0060  151.4130 C   0  0  0  0  0  2  0  0  0  0  0  0
  160.8880  211.8290  152.5580 C   0  0  1  0  0  3  0  0  0  0  0  0
  160.1580  212.1240  153.7220 O   0  0  0  0  0  0  0  0  0  0  0  0
  161.0440  211.4740  155.9010 C   0  0  1  0  0  3  0  0  0  0  0  0
  160.0820  211.3580  157.0740 C   0  0  0  0  0  1  0  0  0  0  0  0
  162.1860  210.7110  156.1530 O   0  0  0  0  0  1  0  0  0  0  0  0
  158.9190  212.1740  150.9660 C   0  0  0  0  0  2  0  0  0  0  0  0
  157.6790  214.1880  152.0180 C   0  0  0  0  0  2  0  0  0  0  0  0
  156.4680  213.9160  154.1990 C   0  0  2  0  0  3  0  0  0  0  0  0
  155.2240  214.0460  154.8220 O   0  0  0  0  0  1  0  0  0  0  0  0
  156.3740  214.4530  152.7730 C   0  0  0  0  0  2  0  0  0  0  0  0
  158.0400  212.7270  152.0380 C   0  0  0  0  0  0  0  0  0  0  0  0
  157.7070  211.9540  153.0730 C   0  0  0  0  0  3  0  0  0  0  0  0
  156.6580  211.7260  155.1760 O   0  0  0  0  0  0  0  0  0  0  0  0
  156.9070  212.4730  154.1920 C   0  0  0  0  0  0  0  0  0  0  0  0
  161.0790  204.0450  149.4110 C   0  0  0  0  0  2  0  0  0  0  0  0
  161.4660  203.9730  150.8260 N   0  0  0  0  0  0  0  0  0  0  0  0
  160.6170  201.5700  149.5690 C   0  0  0  0  0  2  0  0  0  0  0  0
  161.2250  202.6870  148.7170 C   0  0  1  0  0  3  0  0  0  0  0  0
  161.1820  201.5370  150.9980 C   0  0  0  0  0  2  0  0  0  0  0  0
  162.0690  202.7390  151.3340 C   0  0  0  0  0  2  0  0  0  0  0  0
  160.7650  201.6830  146.4070 C   0  0  0  0  0  0  0  0  0  0  0  0
  160.6220  202.7180  147.3870 N   0  0  0  0  0  2  0  0  0  0  0  0
  161.4880  200.6760  146.6330 O   0  0  0  0  0  0  0  0  0  0  0  0
  160.0510  201.7990  145.1090 C   0  0  0  0  0  1  0  0  0  0  0  0
  161.8860  206.6320  149.7850 O   0  0  0  0  0  0  0  0  0  0  0  0
  161.0790  207.3420  148.8550 C   0  0  0  0  0  2  0  0  0  0  0  0
  161.4710  206.9480  147.4440 C   0  0  0  0  0  1  0  0  0  0  0  0
  1  2  1  0  0  0  0
  2  6  1  0  0  0  0
  3  4  1  0  0  0  0
  4  2  2  0  0  0  0
  4  9  1  0  0  0  0
  5  8  1  0  0  0  0
  6  8  2  0  0  0  0
  7  1  2  0  0  0  0
  8 10  1  0  0  0  0
  9  5  2  0  0  0  0
 11  7  1  0  0  0  0
 11  3  2  0  0  0  0
 12 16  1  0  0  0  0
 13 18  1  6  0  0  0
 13 19  1  0  0  0  0
 13 15  1  0  0  0  0
 14 21  1  1  0  0  0
 15  9  1  1  0  0  0
 15 14  1  0  0  0  0
 16 24  1  6  0  0  0
 16 19  1  0  0  0  0
 17 12  1  0  0  0  0
 17 18  1  0  0  0  0
 19 20  1  1  0  0  0
 20 14  1  0  0  0  0
 21 23  1  0  0  0  0
 21 22  1  1  0  0  0
 24 29  1  0  0  0  0
 25 29  1  0  0  0  0
 25 28  1  0  0  0  0
 26 27  1  6  0  0  0
 28 26  1  0  0  0  0
 29 30  2  0  0  0  0
 30 32  1  0  0  0  0
 32 26  1  0  0  0  0
 32 31  2  0  0  0  0
 33 34  1  0  0  0  0
 34 38  1  0  0  0  0
 34  7  1  0  0  0  0
 35 37  1  0  0  0  0
 36 40  1  6  0  0  0
 36 33  1  0  0  0  0
 36 35  1  0  0  0  0
 37 38  1  0  0  0  0
 39 41  2  0  0  0  0
 39 40  1  0  0  0  0
 42 39  1  0  0  0  0
 43 11  1  0  0  0  0
 44 43  1  0  0  0  0
 45 44  1  0  0  0  0
M  END
>  <MODEL>
6

>  <REMARK>
 VINA RESULT:      -5.5      1.710      2.194
  Name = 
  8 active torsions:
  status: ('A' for Active; 'I' for Inactive)
    1  A    between atoms: N_3  and  C_15
    2  A    between atoms: C_9  and  O_25
    3  A    between atoms: C_16  and  C_20
    4  A    between atoms: C_18  and  C_21
    5  A    between atoms: C_22  and  C_30
    6  A    between atoms: C_24  and  N_31
    7  A    between atoms: O_25  and  C_44
    8  A    between atoms: C_30  and  C_34
                            x       y       z     vdW  Elec       q    Type
                         _______ _______ _______ _____ _____    ______ ____

>  <TORSDO>
F 8

$$$$
=
 OpenBabel11072414443D

 45 50  0  0  1  0  0  0  0  0999 V2000
  160.9430  206.5620  152.1880 C   0  0  0  0  0  3  0  0  0  0  0  0
  160.9450  207.1980  153.4270 C   0  0  0  0  0  0  0  0  0  0  0  0
  161.3550  209.3090  152.3190 C   0  0  0  0  0  3  0  0  0  0  0  0
  161.1620  208.5860  153.5050 C   0  0  0  0  0  0  0  0  0  0  0  0
  160.8650  208.5650  155.9050 N   0  0  0  0  0  0  0  0  0  0  0  0
  160.7720  206.3500  154.6530 C   0  0  0  0  0  3  0  0  0  0  0  0
  161.1410  207.2740  150.9950 C   0  0  0  0  0  0  0  0  0  0  0  0
  160.5380  207.1730  155.8820 C   0  0  0  0  0  0  0  0  0  0  0  0
  161.1810  209.2470  154.8430 C   0  0  0  0  0  0  0  0  0  0  0  0
  160.1760  206.5860  156.9750 N   0  0  0  0  0  1  0  0  0  0  0  0
  161.3590  208.6690  151.0660 C   0  0  0  0  0  0  0  0  0  0  0  0
  159.2030  214.3050  154.8800 C   0  0  0  0  0  2  0  0  0  0  0  0
  160.3270  211.6250  155.0940 C   0  0  2  0  0  3  0  0  0  0  0  0
  162.1500  210.9940  156.4040 C   0  0  2  0  0  3  0  0  0  0  0  0
  161.4960  210.7030  155.0560 C   0  0  1  0  0  3  0  0  0  0  0  0
  159.9600  213.8700  156.1490 C   0  0  2  0  0  3  0  0  0  0  0  0
  158.6840  213.1170  154.0440 C   0  0  0  0  0  2  0  0  0  0  0  0
  159.7900  212.0920  153.7570 C   0  0  0  0  0  2  0  0  0  0  0  0
  160.9780  212.7890  155.7740 C   0  0  1  0  0  3  0  0  0  0  0  0
  161.7600  212.2910  156.8300 O   0  0  0  0  0  0  0  0  0  0  0  0
  163.6720  210.8550  156.3430 C   0  0  1  0  0  3  0  0  0  0  0  0
  164.2140  211.1140  154.9450 C   0  0  0  0  0  1  0  0  0  0  0  0
  164.2630  211.7410  157.2470 O   0  0  0  0  0  1  0  0  0  0  0  0
  158.9950  213.4360  157.2510 C   0  0  0  0  0  2  0  0  0  0  0  0
  157.9870  211.1860  156.4630 C   0  0  0  0  0  2  0  0  0  0  0  0
  155.7270  211.1360  155.3730 C   0  0  2  0  0  3  0  0  0  0  0  0
  154.4460  210.5860  155.4590 O   0  0  0  0  0  1  0  0  0  0  0  0
  156.6200  210.4980  156.4350 C   0  0  0  0  0  2  0  0  0  0  0  0
  157.8530  212.6700  156.6690 C   0  0  0  0  0  0  0  0  0  0  0  0
  156.7900  213.3320  156.2080 C   0  0  0  0  0  3  0  0  0  0  0  0
  154.7120  213.2980  155.0870 O   0  0  0  0  0  0  0  0  0  0  0  0
  155.6740  212.6320  155.5560 C   0  0  0  0  0  0  0  0  0  0  0  0
  161.2780  205.0990  149.7420 C   0  0  0  0  0  2  0  0  0  0  0  0
  161.1230  206.5590  149.7390 N   0  0  0  0  0  0  0  0  0  0  0  0
  162.1930  205.3440  147.4040 C   0  0  0  0  0  2  0  0  0  0  0  0
  161.2760  204.5290  148.3200 C   0  0  1  0  0  3  0  0  0  0  0  0
  161.8610  206.8440  147.4120 C   0  0  0  0  0  2  0  0  0  0  0  0
  160.8330  207.2390  148.4750 C   0  0  0  0  0  2  0  0  0  0  0  0
  160.8200  202.0510  148.7780 C   0  0  0  0  0  0  0  0  0  0  0  0
  161.6620  203.1200  148.3280 N   0  0  0  0  0  2  0  0  0  0  0  0
  159.6780  202.2870  149.2550 O   0  0  0  0  0  0  0  0  0  0  0  0
  161.3000  200.6490  148.6800 C   0  0  0  0  0  1  0  0  0  0  0  0
  161.6210  209.3980  149.9020 O   0  0  0  0  0  0  0  0  0  0  0  0
  161.9050  210.7890  149.9010 C   0  0  0  0  0  2  0  0  0  0  0  0
  162.2020  211.2420  148.4840 C   0  0  0  0  0  1  0  0  0  0  0  0
  1  2  1  0  0  0  0
  2  4  2  0  0  0  0
  2  6  1  0  0  0  0
  3  4  1  0  0  0  0
  4  9  1  0  0  0  0
  6  8  2  0  0  0  0
  7 11  1  0  0  0  0
  7  1  2  0  0  0  0
  8  5  1  0  0  0  0
  8 10  1  0  0  0  0
  9  5  2  0  0  0  0
 11  3  2  0  0  0  0
 12 16  1  0  0  0  0
 13 18  1  6  0  0  0
 13 19  1  0  0  0  0
 14 21  1  6  0  0  0
 14 20  1  0  0  0  0
 15  9  1  1  0  0  0
 15 13  1  0  0  0  0
 15 14  1  0  0  0  0
 16 24  1  1  0  0  0
 17 12  1  0  0  0  0
 18 17  1  0  0  0  0
 19 16  1  0  0  0  0
 19 20  1  1  0  0  0
 21 22  1  6  0  0  0
 21 23  1  0  0  0  0
 25 29  1  0  0  0  0
 26 27  1  1  0  0  0
 26 32  1  0  0  0  0
 26 28  1  0  0  0  0
 28 25  1  0  0  0  0
 29 24  1  0  0  0  0
 30 29  2  0  0  0  0
 31 32  2  0  0  0  0
 32 30  1  0  0  0  0
 34 33  1  0  0  0  0
 34  7  1  0  0  0  0
 35 37  1  0  0  0  0
 35 36  1  0  0  0  0
 36 40  1  1  0  0  0
 36 33  1  0  0  0  0
 37 38  1  0  0  0  0
 38 34  1  0  0  0  0
 39 41  2  0  0  0  0
 40 39  1  0  0  0  0
 42 39  1  0  0  0  0
 43 11  1  0  0  0  0
 44 43  1  0  0  0  0
 45 44  1  0  0  0  0
M  END
>  <MODEL>
7

>  <REMARK>
 VINA RESULT:      -4.9      1.765      2.810
  Name = 
  8 active torsions:
  status: ('A' for Active; 'I' for Inactive)
    1  A    between atoms: N_3  and  C_15
    2  A    between atoms: C_9  and  O_25
    3  A    between atoms: C_16  and  C_20
    4  A    between atoms: C_18  and  C_21
    5  A    between atoms: C_22  and  C_30
    6  A    between atoms: C_24  and  N_31
    7  A    between atoms: O_25  and  C_44
    8  A    between atoms: C_30  and  C_34
                            x       y       z     vdW  Elec       q    Type
                         _______ _______ _______ _____ _____    ______ ____

>  <TORSDO>
F 8

$$$$
=
 OpenBabel11072414443D

 45 50  0  0  1  0  0  0  0  0999 V2000
  161.0170  205.7360  152.7140 C   0  0  0  0  0  3  0  0  0  0  0  0
  160.7760  206.6180  153.7650 C   0  0  0  0  0  0  0  0  0  0  0  0
  161.0730  208.4770  152.2440 C   0  0  0  0  0  3  0  0  0  0  0  0
  160.8110  208.0070  153.5400 C   0  0  0  0  0  0  0  0  0  0  0  0
  160.1990  208.4620  155.8340 N   0  0  0  0  0  0  0  0  0  0  0  0
  160.5420  206.0400  155.1290 C   0  0  0  0  0  3  0  0  0  0  0  0
  161.2860  206.1940  151.4160 C   0  0  0  0  0  0  0  0  0  0  0  0
  160.0480  207.0650  156.1020 C   0  0  0  0  0  0  0  0  0  0  0  0
  160.5710  208.9370  154.6820 C   0  0  0  0  0  0  0  0  0  0  0  0
  159.6160  206.6810  157.2580 N   0  0  0  0  0  1  0  0  0  0  0  0
  161.3230  207.5890  151.1830 C   0  0  0  0  0  0  0  0  0  0  0  0
  157.8420  213.6320  154.6350 C   0  0  0  0  0  2  0  0  0  0  0  0
  159.4260  211.1970  154.8560 C   0  0  2  0  0  3  0  0  0  0  0  0
  161.6300  211.0470  155.6040 C   0  0  2  0  0  3  0  0  0  0  0  0
  160.6760  210.4340  154.5820 C   0  0  1  0  0  3  0  0  0  0  0  0
  158.9960  213.5350  155.6510 C   0  0  2  0  0  3  0  0  0  0  0  0
  157.3180  212.2560  154.1760 C   0  0  0  0  0  2  0  0  0  0  0  0
  158.4550  211.3400  153.7030 C   0  0  0  0  0  2  0  0  0  0  0  0
  160.0340  212.5380  155.1300 C   0  0  1  0  0  3  0  0  0  0  0  0
  161.1610  212.3430  155.9460 O   0  0  0  0  0  0  0  0  0  0  0  0
  163.0710  211.0880  155.0900 C   0  0  1  0  0  3  0  0  0  0  0  0
  164.0660  211.3930  156.2000 C   0  0  0  0  0  1  0  0  0  0  0  0
  163.3920  209.8660  154.4940 O   0  0  0  0  0  1  0  0  0  0  0  0
  158.4800  213.1970  157.0490 C   0  0  0  0  0  2  0  0  0  0  0  0
  156.2240  214.4520  157.2350 C   0  0  0  0  0  2  0  0  0  0  0  0
  154.0700  213.1660  157.2610 C   0  0  2  0  0  3  0  0  0  0  0  0
  152.8400  213.0120  156.6150 O   0  0  0  0  0  1  0  0  0  0  0  0
  154.8130  214.3510  156.6510 C   0  0  0  0  0  2  0  0  0  0  0  0
  156.9870  213.1680  157.0580 C   0  0  0  0  0  0  0  0  0  0  0  0
  156.3570  211.9920  157.0530 C   0  0  0  0  0  3  0  0  0  0  0  0
  154.3370  210.7760  157.1840 O   0  0  0  0  0  0  0  0  0  0  0  0
  154.8910  211.9070  157.1380 C   0  0  0  0  0  0  0  0  0  0  0  0
  161.3750  205.6460  148.9640 C   0  0  0  0  0  2  0  0  0  0  0  0
  161.5240  205.2310  150.3650 N   0  0  0  0  0  0  0  0  0  0  0  0
  160.8800  203.2240  148.4590 C   0  0  0  0  0  2  0  0  0  0  0  0
  161.6260  204.4800  148.0020 C   0  0  1  0  0  3  0  0  0  0  0  0
  161.2020  202.8370  149.9110 C   0  0  0  0  0  2  0  0  0  0  0  0
  162.0280  203.8870  150.6570 C   0  0  0  0  0  2  0  0  0  0  0  0
  162.1670  204.9440  145.5430 C   0  0  0  0  0  0  0  0  0  0  0  0
  161.2500  204.8460  146.6380 N   0  0  0  0  0  2  0  0  0  0  0  0
  163.4020  204.7620  145.7170 O   0  0  0  0  0  0  0  0  0  0  0  0
  161.6560  205.2650  144.1850 C   0  0  0  0  0  1  0  0  0  0  0  0
  161.6490  208.0790  149.9140 O   0  0  0  0  0  0  0  0  0  0  0  0
  162.1430  209.3920  149.6890 C   0  0  0  0  0  2  0  0  0  0  0  0
  161.8660  209.7960  148.2540 C   0  0  0  0  0  1  0  0  0  0  0  0
  1  2  1  0  0  0  0
  2  6  1  0  0  0  0
  3  4  1  0  0  0  0
  4  2  2  0  0  0  0
  4  9  1  0  0  0  0
  5  8  1  0  0  0  0
  6  8  2  0  0  0  0
  7  1  2  0  0  0  0
  8 10  1  0  0  0  0
  9  5  2  0  0  0  0
 11  7  1  0  0  0  0
 11  3  2  0  0  0  0
 12 16  1  0  0  0  0
 13 18  1  6  0  0  0
 13 19  1  0  0  0  0
 14 21  1  6  0  0  0
 14 20  1  0  0  0  0
 15  9  1  1  0  0  0
 15 13  1  0  0  0  0
 15 14  1  0  0  0  0
 16 24  1  1  0  0  0
 17 12  1  0  0  0  0
 18 17  1  0  0  0  0
 19 16  1  0  0  0  0
 19 20  1  1  0  0  0
 21 22  1  1  0  0  0
 23 21  1  0  0  0  0
 24 29  1  0  0  0  0
 26 27  1  6  0  0  0
 28 25  1  0  0  0  0
 28 26  1  0  0  0  0
 29 25  1  0  0  0  0
 30 29  2  0  0  0  0
 30 32  1  0  0  0  0
 32 31  2  0  0  0  0
 32 26  1  0  0  0  0
 33 34  1  0  0  0  0
 34 38  1  0  0  0  0
 34  7  1  0  0  0  0
 35 37  1  0  0  0  0
 36 40  1  6  0  0  0
 36 35  1  0  0  0  0
 36 33  1  0  0  0  0
 37 38  1  0  0  0  0
 39 41  2  0  0  0  0
 39 40  1  0  0  0  0
 42 39  1  0  0  0  0
 43 11  1  0  0  0  0
 44 43  1  0  0  0  0
 45 44  1  0  0  0  0
M  END
>  <MODEL>
8

>  <REMARK>
 VINA RESULT:      -4.7      1.351      1.924
  Name = 
  8 active torsions:
  status: ('A' for Active; 'I' for Inactive)
    1  A    between atoms: N_3  and  C_15
    2  A    between atoms: C_9  and  O_25
    3  A    between atoms: C_16  and  C_20
    4  A    between atoms: C_18  and  C_21
    5  A    between atoms: C_22  and  C_30
    6  A    between atoms: C_24  and  N_31
    7  A    between atoms: O_25  and  C_44
    8  A    between atoms: C_30  and  C_34
                            x       y       z     vdW  Elec       q    Type
                         _______ _______ _______ _____ _____    ______ ____

>  <TORSDO>
F 8

$$$$
