=
 OpenBabel11072413433D

 44 48  0  0  1  0  0  0  0  0999 V2000
  161.9520  207.6820  153.1080 C   0  0  2  0  0  3  0  0  0  0  0  0
  162.9060  206.4960  152.8900 C   0  0  0  0  0  2  0  0  0  0  0  0
  162.2240  205.1890  152.4550 C   0  0  0  0  0  2  0  0  0  0  0  0
  160.1490  209.3390  155.0100 C   0  0  2  0  0  3  0  0  0  0  0  0
  161.8330  207.5830  150.5500 C   0  0  0  0  0  2  0  0  0  0  0  0
  160.8320  210.5190  154.2360 C   0  0  2  0  0  0  0  0  0  0  0  0
  159.1510  210.2610  152.4520 O   0  0  0  0  0  1  0  0  0  0  0  0
  160.4960  210.5390  152.7210 C   0  0  2  0  0  3  0  0  0  0  0  0
  160.9910  205.3790  151.5650 C   0  0  0  0  0  2  0  0  0  0  0  0
  161.4460  209.7740  151.7790 C   0  0  1  0  0  3  0  0  0  0  0  0
  160.9610  207.3920  154.2360 C   0  0  0  0  0  2  0  0  0  0  0  0
  161.2600  206.1810  150.2900 C   0  0  1  0  0  3  0  0  0  0  0  0
  159.8590  208.2510  154.1710 O   0  0  0  0  0  0  0  0  0  0  0  0
  162.2150  210.3690  154.3810 O   0  0  0  0  0  1  0  0  0  0  0  0
  161.2800  208.2410  151.8270 C   0  0  2  0  0  3  0  0  0  0  0  0
  160.1520  213.5380  156.1310 C   0  0  0  0  0  0  0  0  0  0  0  0
  159.7090  212.7840  154.1700 N   0  0  0  0  0  0  0  0  0  0  0  0
  160.4630  211.8690  154.8150 C   0  0  0  0  0  0  0  0  0  0  0  0
  160.7640  212.3030  156.0980 C   0  0  0  0  0  2  0  0  0  0  0  0
  159.5240  213.8130  154.9770 N   0  0  0  0  0  0  0  0  0  0  0  0
  160.1560  214.4170  157.2490 N   0  0  0  0  0  1  0  0  0  0  0  0
  157.7680  208.9750  155.5420 O   0  0  0  0  0  0  0  0  0  0  0  0
  158.9230  209.7080  155.8640 C   0  0  1  0  0  0  0  0  0  0  0  0
  156.9830  211.0110  156.2140 F   0  0  0  0  0  0  0  0  0  0  0  0
  159.0830  209.8110  157.2480 O   0  0  0  0  0  1  0  0  0  0  0  0
  157.7400  210.3610  155.2560 C   0  0  2  0  0  3  0  0  0  0  0  0
  161.2700  210.2610  150.4780 O   0  0  0  0  0  0  0  0  0  0  0  0
  162.4740  210.8960  150.1660 C   0  0  0  0  0  2  0  0  0  0  0  0
  162.2760  211.7940  148.9970 C   0  0  0  0  0  0  0  0  0  0  0  0
  161.1150  212.1550  148.6690 O   0  0  0  0  0  1  0  0  0  0  0  0
  163.3680  212.2020  148.2430 O   0  0  0  0  0  0  0  0  0  0  0  0
  159.9680  206.2880  149.4990 C   0  0  0  0  0  2  0  0  0  0  0  0
  160.2550  206.2480  148.0070 C   0  0  0  0  0  2  0  0  0  0  0  0
  161.6830  205.7950  147.7530 C   0  0  0  0  0  2  0  0  0  0  0  0
  161.4590  199.6380  146.8940 C   0  0  0  0  0  1  0  0  0  0  0  0
  161.2690  203.3660  147.8550 C   0  0  0  0  0  2  0  0  0  0  0  0
  160.8350  204.5960  145.6800 C   0  0  2  0  0  3  0  0  0  0  0  0
  161.7260  204.5050  146.9410 C   0  0  1  0  0  3  0  0  0  0  0  0
  161.6160  200.9590  147.5760 C   0  0  0  0  0  3  0  0  0  0  0  0
  160.8020  203.2580  144.9290 C   0  0  0  0  0  2  0  0  0  0  0  0
  161.1120  202.0950  147.0850 C   0  0  0  0  0  0  0  0  0  0  0  0
  160.2980  202.1340  145.8250 C   0  0  0  0  0  2  0  0  0  0  0  0
  161.2660  205.6910  144.7440 C   0  0  0  0  0  3  0  0  0  0  0  0
  161.5280  205.4640  143.4540 C   0  0  0  0  0  2  0  0  0  0  0  0
  1  2  1  6  0  0  0
  1 11  1  0  0  0  0
  3  2  1  0  0  0  0
  4 13  1  6  0  0  0
  4 23  1  0  0  0  0
  6 14  1  1  0  0  0
  6 18  1  0  0  0  0
  6  4  1  0  0  0  0
  8  7  1  1  0  0  0
  8  6  1  0  0  0  0
  9  3  1  0  0  0  0
 10 27  1  6  0  0  0
 10 15  1  0  0  0  0
 10  8  1  0  0  0  0
 12 32  1  1  0  0  0
 12  5  1  0  0  0  0
 12  9  1  0  0  0  0
 13 11  1  0  0  0  0
 15  5  1  6  0  0  0
 15  1  1  0  0  0  0
 16 21  1  0  0  0  0
 17 18  2  0  0  0  0
 17 20  1  0  0  0  0
 18 19  1  0  0  0  0
 19 16  1  0  0  0  0
 20 16  2  0  0  0  0
 22 23  1  0  0  0  0
 23 25  1  1  0  0  0
 26 22  1  0  0  0  0
 26 23  1  0  0  0  0
 26 24  1  1  0  0  0
 28 27  1  0  0  0  0
 29 28  1  0  0  0  0
 30 29  1  0  0  0  0
 31 29  2  0  0  0  0
 33 32  1  0  0  0  0
 34 33  1  0  0  0  0
 35 39  1  0  0  0  0
 37 43  1  6  0  0  0
 37 38  1  0  0  0  0
 38 34  1  1  0  0  0
 38 36  1  0  0  0  0
 40 37  1  0  0  0  0
 40 42  1  0  0  0  0
 41 39  2  0  0  0  0
 41 36  1  0  0  0  0
 42 41  1  0  0  0  0
 44 43  2  0  0  0  0
M  END
>  <MODEL>
1

>  <REMARK>
 VINA RESULT:      -4.2      0.000      0.000
  Name = 
  10 active torsions:
  status: ('A' for Active; 'I' for Inactive)
    1  A    between atoms: O_9  and  C_31
    2  A    between atoms: O_9  and  C_43
    3  A    between atoms: C_10  and  C_16
    4  A    between atoms: C_11  and  C_12
    5  A    between atoms: C_13  and  C_26
    6  A    between atoms: C_13  and  C_27
    7  A    between atoms: C_14  and  C_20
    8  A    between atoms: C_19  and  C_26
    9  A    between atoms: C_25  and  C_43
   10  A    between atoms: C_27  and  C_34
                            x       y       z     vdW  Elec       q    Type
                         _______ _______ _______ _____ _____    ______ ____

>  <TORSDO>
F 10

$$$$
=
 OpenBabel11072413433D

 44 48  0  0  1  0  0  0  0  0999 V2000
  160.4060  210.8630  155.8670 C   0  0  2  0  0  3  0  0  0  0  0  0
  161.7180  210.6690  156.6470 C   0  0  0  0  0  2  0  0  0  0  0  0
  162.1540  209.2060  156.8260 C   0  0  0  0  0  2  0  0  0  0  0  0
  157.3200  211.1490  155.8720 C   0  0  2  0  0  3  0  0  0  0  0  0
  161.8980  210.1620  153.9050 C   0  0  0  0  0  2  0  0  0  0  0  0
  157.6630  212.2660  154.8270 C   0  0  2  0  0  0  0  0  0  0  0  0
  157.7570  210.5340  153.0750 O   0  0  0  0  0  1  0  0  0  0  0  0
  158.3380  211.7190  153.5410 C   0  0  2  0  0  3  0  0  0  0  0  0
  161.7920  208.2860  155.6560 C   0  0  0  0  0  2  0  0  0  0  0  0
  159.8770  211.6550  153.5240 C   0  0  1  0  0  3  0  0  0  0  0  0
  159.2300  210.2160  156.6000 C   0  0  0  0  0  2  0  0  0  0  0  0
  162.3460  208.7470  154.3060 C   0  0  1  0  0  3  0  0  0  0  0  0
  158.1460  210.0220  155.7370 O   0  0  0  0  0  0  0  0  0  0  0  0
  158.5460  213.1580  155.4440 O   0  0  0  0  0  1  0  0  0  0  0  0
  160.4680  210.5010  154.3600 C   0  0  2  0  0  3  0  0  0  0  0  0
  154.8800  214.0130  153.2880 C   0  0  0  0  0  0  0  0  0  0  0  0
  155.7530  213.8700  155.2450 N   0  0  0  0  0  0  0  0  0  0  0  0
  156.4400  213.0560  154.4140 C   0  0  0  0  0  0  0  0  0  0  0  0
  155.9230  213.1250  153.1280 C   0  0  0  0  0  3  0  0  0  0  0  0
  154.7910  214.4530  154.5530 N   0  0  0  0  0  2  0  0  0  0  0  0
  154.0100  214.4390  152.2480 N   0  0  0  0  0  1  0  0  0  0  0  0
  155.0260  211.6620  156.6200 O   0  0  0  0  0  0  0  0  0  0  0  0
  155.8400  210.7300  155.9550 C   0  0  1  0  0  0  0  0  0  0  0  0
  154.0770  209.6400  157.0870 F   0  0  0  0  0  0  0  0  0  0  0  0
  155.2180  210.2550  154.7980 O   0  0  0  0  0  1  0  0  0  0  0  0
  155.2110  210.4130  157.2580 C   0  0  2  0  0  3  0  0  0  0  0  0
  160.3070  211.5860  152.1930 O   0  0  0  0  0  0  0  0  0  0  0  0
  159.7850  212.7300  151.5870 C   0  0  0  0  0  2  0  0  0  0  0  0
  160.2570  212.8080  150.1780 C   0  0  0  0  0  0  0  0  0  0  0  0
  161.3860  212.3470  149.8660 O   0  0  0  0  0  1  0  0  0  0  0  0
  159.4690  213.4270  149.2160 O   0  0  0  0  0  0  0  0  0  0  0  0
  161.9270  207.7500  153.2400 C   0  0  0  0  0  2  0  0  0  0  0  0
  160.6100  208.1710  152.6080 C   0  0  0  0  0  2  0  0  0  0  0  0
  160.7090  208.1210  151.0920 C   0  0  0  0  0  2  0  0  0  0  0  0
  161.4280  201.9430  150.9540 C   0  0  0  0  0  1  0  0  0  0  0  0
  160.4680  205.6690  151.1980 C   0  0  0  0  0  2  0  0  0  0  0  0
  161.3510  206.7260  149.0690 C   0  0  2  0  0  3  0  0  0  0  0  0
  161.3100  206.8040  150.6130 C   0  0  1  0  0  3  0  0  0  0  0  0
  161.0620  203.3070  151.4450 C   0  0  0  0  0  3  0  0  0  0  0  0
  161.8590  205.3580  148.5970 C   0  0  0  0  0  2  0  0  0  0  0  0
  160.8850  204.3500  150.6300 C   0  0  0  0  0  0  0  0  0  0  0  0
  160.9880  204.2300  149.1380 C   0  0  0  0  0  2  0  0  0  0  0  0
  162.1880  207.8150  148.4550 C   0  0  0  0  0  3  0  0  0  0  0  0
  162.0720  209.0940  148.8190 C   0  0  0  0  0  2  0  0  0  0  0  0
  1 11  1  1  0  0  0
  1  2  1  0  0  0  0
  2  3  1  0  0  0  0
  4 13  1  6  0  0  0
  4 23  1  0  0  0  0
  5 12  1  0  0  0  0
  6 14  1  1  0  0  0
  6  4  1  0  0  0  0
  8  7  1  1  0  0  0
  8  6  1  0  0  0  0
  9  3  1  0  0  0  0
 10 27  1  6  0  0  0
 10  8  1  0  0  0  0
 10 15  1  0  0  0  0
 12 32  1  6  0  0  0
 12  9  1  0  0  0  0
 13 11  1  0  0  0  0
 15  5  1  6  0  0  0
 15  1  1  0  0  0  0
 16 20  1  0  0  0  0
 18  6  1  0  0  0  0
 18 17  2  0  0  0  0
 19 16  2  0  0  0  0
 19 18  1  0  0  0  0
 20 17  1  0  0  0  0
 21 16  1  0  0  0  0
 22 26  1  0  0  0  0
 23 25  1  6  0  0  0
 23 22  1  0  0  0  0
 23 26  1  0  0  0  0
 26 24  1  6  0  0  0
 28 27  1  0  0  0  0
 29 28  1  0  0  0  0
 30 29  1  0  0  0  0
 31 29  2  0  0  0  0
 33 32  1  0  0  0  0
 34 33  1  0  0  0  0
 35 39  1  0  0  0  0
 37 43  1  1  0  0  0
 37 38  1  0  0  0  0
 38 34  1  6  0  0  0
 38 36  1  0  0  0  0
 40 37  1  0  0  0  0
 40 42  1  0  0  0  0
 41 36  1  0  0  0  0
 41 39  2  0  0  0  0
 42 41  1  0  0  0  0
 43 44  2  0  0  0  0
M  END
>  <MODEL>
2

>  <REMARK>
 VINA RESULT:      -3.6      2.578      4.354
  Name = 
  10 active torsions:
  status: ('A' for Active; 'I' for Inactive)
    1  A    between atoms: O_9  and  C_31
    2  A    between atoms: O_9  and  C_43
    3  A    between atoms: C_10  and  C_16
    4  A    between atoms: C_11  and  C_12
    5  A    between atoms: C_13  and  C_26
    6  A    between atoms: C_13  and  C_27
    7  A    between atoms: C_14  and  C_20
    8  A    between atoms: C_19  and  C_26
    9  A    between atoms: C_25  and  C_43
   10  A    between atoms: C_27  and  C_34
                            x       y       z     vdW  Elec       q    Type
                         _______ _______ _______ _____ _____    ______ ____

>  <TORSDO>
F 10

$$$$
=
 OpenBabel11072413433D

 44 48  0  0  1  0  0  0  0  0999 V2000
  160.8350  209.8480  155.5880 C   0  0  2  0  0  3  0  0  0  0  0  0
  162.0130  209.4160  156.4780 C   0  0  0  0  0  2  0  0  0  0  0  0
  161.9230  207.9790  157.0170 C   0  0  0  0  0  2  0  0  0  0  0  0
  158.0340  211.1480  155.3180 C   0  0  2  0  0  3  0  0  0  0  0  0
  161.9660  208.2400  153.9440 C   0  0  0  0  0  2  0  0  0  0  0  0
  158.7230  211.8010  154.0710 C   0  0  2  0  0  0  0  0  0  0  0  0
  158.1900  209.7740  152.7730 O   0  0  0  0  0  1  0  0  0  0  0  0
  159.1490  210.7690  152.9930 C   0  0  2  0  0  3  0  0  0  0  0  0
  161.2500  206.9840  156.0670 C   0  0  0  0  0  2  0  0  0  0  0  0
  160.5730  210.1890  153.0950 C   0  0  1  0  0  3  0  0  0  0  0  0
  159.5200  209.8290  156.3680 C   0  0  0  0  0  2  0  0  0  0  0  0
  161.9070  206.8960  154.6880 C   0  0  1  0  0  3  0  0  0  0  0  0
  158.4220  209.8110  155.5020 O   0  0  0  0  0  0  0  0  0  0  0  0
  159.8680  212.4640  154.5250 O   0  0  0  0  0  1  0  0  0  0  0  0
  160.7450  209.1380  154.2120 C   0  0  2  0  0  3  0  0  0  0  0  0
  156.1540  213.9590  152.6880 C   0  0  0  0  0  0  0  0  0  0  0  0
  158.2870  213.7580  152.5290 N   0  0  0  0  0  0  0  0  0  0  0  0
  157.8380  212.8340  153.4060 C   0  0  0  0  0  0  0  0  0  0  0  0
  156.4580  212.9120  153.5330 C   0  0  0  0  0  2  0  0  0  0  0  0
  157.2510  214.4530  152.0930 N   0  0  0  0  0  0  0  0  0  0  0  0
  154.8440  214.4530  152.4470 N   0  0  0  0  0  1  0  0  0  0  0  0
  156.0670  212.5670  155.7690 O   0  0  0  0  0  0  0  0  0  0  0  0
  156.5020  211.2850  155.3950 C   0  0  1  0  0  0  0  0  0  0  0  0
  154.4900  211.1570  156.6270 F   0  0  0  0  0  0  0  0  0  0  0  0
  155.7360  210.7820  154.3410 O   0  0  0  0  0  1  0  0  0  0  0  0
  155.8230  211.5210  156.6900 C   0  0  2  0  0  3  0  0  0  0  0  0
  160.9320  209.6640  151.8480 O   0  0  0  0  0  0  0  0  0  0  0  0
  161.8390  210.5830  151.3180 C   0  0  0  0  0  2  0  0  0  0  0  0
  161.8720  210.4560  149.8360 C   0  0  0  0  0  0  0  0  0  0  0  0
  161.7420  209.3260  149.2990 O   0  0  0  0  0  1  0  0  0  0  0  0
  162.0860  211.5790  149.0490 O   0  0  0  0  0  0  0  0  0  0  0  0
  161.1550  205.8740  153.8540 C   0  0  0  0  0  2  0  0  0  0  0  0
  161.1340  206.2930  152.3930 C   0  0  0  0  0  2  0  0  0  0  0  0
  161.9620  205.3340  151.5530 C   0  0  0  0  0  2  0  0  0  0  0  0
  160.4220  206.2410  145.5940 C   0  0  0  0  0  1  0  0  0  0  0  0
  161.8370  205.9500  149.1680 C   0  0  0  0  0  2  0  0  0  0  0  0
  161.4830  203.5280  149.8320 C   0  0  2  0  0  3  0  0  0  0  0  0
  161.2720  205.0070  150.2320 C   0  0  1  0  0  3  0  0  0  0  0  0
  160.8870  206.5240  146.9870 C   0  0  0  0  0  3  0  0  0  0  0  0
  160.8760  203.2370  148.4530 C   0  0  0  0  0  2  0  0  0  0  0  0
  161.3430  205.5750  147.8080 C   0  0  0  0  0  0  0  0  0  0  0  0
  161.4770  204.1420  147.3840 C   0  0  0  0  0  2  0  0  0  0  0  0
  160.9210  202.5680  150.8440 C   0  0  0  0  0  3  0  0  0  0  0  0
  160.5290  201.3350  150.5150 C   0  0  0  0  0  2  0  0  0  0  0  0
  1 11  1  1  0  0  0
  1  2  1  0  0  0  0
  2  3  1  0  0  0  0
  4 23  1  0  0  0  0
  4 13  1  6  0  0  0
  5 12  1  0  0  0  0
  6 14  1  1  0  0  0
  6  4  1  0  0  0  0
  8  7  1  1  0  0  0
  8 10  1  0  0  0  0
  8  6  1  0  0  0  0
  9  3  1  0  0  0  0
 10 27  1  6  0  0  0
 10 15  1  0  0  0  0
 12 32  1  6  0  0  0
 12  9  1  0  0  0  0
 13 11  1  0  0  0  0
 15  5  1  6  0  0  0
 15  1  1  0  0  0  0
 16 19  1  0  0  0  0
 17 18  2  0  0  0  0
 18 19  1  0  0  0  0
 18  6  1  0  0  0  0
 20 17  1  0  0  0  0
 20 16  2  0  0  0  0
 21 16  1  0  0  0  0
 22 26  1  0  0  0  0
 23 25  1  6  0  0  0
 23 22  1  0  0  0  0
 23 26  1  0  0  0  0
 26 24  1  6  0  0  0
 28 27  1  0  0  0  0
 29 28  1  0  0  0  0
 30 29  1  0  0  0  0
 31 29  2  0  0  0  0
 33 32  1  0  0  0  0
 34 33  1  0  0  0  0
 35 39  1  0  0  0  0
 36 38  1  0  0  0  0
 37 38  1  0  0  0  0
 37 43  1  1  0  0  0
 38 34  1  1  0  0  0
 39 41  2  0  0  0  0
 40 37  1  0  0  0  0
 41 36  1  0  0  0  0
 42 41  1  0  0  0  0
 42 40  1  0  0  0  0
 44 43  2  0  0  0  0
M  END
>  <MODEL>
3

>  <REMARK>
 VINA RESULT:      -3.0      2.212      4.002
  Name = 
  10 active torsions:
  status: ('A' for Active; 'I' for Inactive)
    1  A    between atoms: O_9  and  C_31
    2  A    between atoms: O_9  and  C_43
    3  A    between atoms: C_10  and  C_16
    4  A    between atoms: C_11  and  C_12
    5  A    between atoms: C_13  and  C_26
    6  A    between atoms: C_13  and  C_27
    7  A    between atoms: C_14  and  C_20
    8  A    between atoms: C_19  and  C_26
    9  A    between atoms: C_25  and  C_43
   10  A    between atoms: C_27  and  C_34
                            x       y       z     vdW  Elec       q    Type
                         _______ _______ _______ _____ _____    ______ ____

>  <TORSDO>
F 10

$$$$
=
 OpenBabel11072413433D

 44 48  0  0  1  0  0  0  0  0999 V2000
  160.4690  209.3400  155.2770 C   0  0  2  0  0  3  0  0  0  0  0  0
  161.7280  208.5480  155.6690 C   0  0  0  0  0  2  0  0  0  0  0  0
  161.7970  207.1220  155.0990 C   0  0  0  0  0  2  0  0  0  0  0  0
  157.5520  210.1870  155.8950 C   0  0  2  0  0  3  0  0  0  0  0  0
  161.6480  209.3780  153.0020 C   0  0  0  0  0  2  0  0  0  0  0  0
  158.1100  211.5740  155.4250 C   0  0  2  0  0  0  0  0  0  0  0  0
  157.6910  210.9010  153.0920 O   0  0  0  0  0  1  0  0  0  0  0  0
  158.5680  211.5840  153.9420 C   0  0  2  0  0  3  0  0  0  0  0  0
  161.1650  206.9580  153.7130 C   0  0  0  0  0  2  0  0  0  0  0  0
  160.0420  211.2350  153.6560 C   0  0  1  0  0  3  0  0  0  0  0  0
  159.2050  208.6680  155.8150 C   0  0  0  0  0  2  0  0  0  0  0  0
  161.7510  207.8860  152.6470 C   0  0  1  0  0  3  0  0  0  0  0  0
  158.0680  209.1220  155.1400 O   0  0  0  0  0  0  0  0  0  0  0  0
  159.2140  211.8750  156.2300 O   0  0  0  0  0  1  0  0  0  0  0  0
  160.3680  209.7330  153.7790 C   0  0  2  0  0  3  0  0  0  0  0  0
  155.4770  213.9100  156.3050 C   0  0  0  0  0  0  0  0  0  0  0  0
  156.9210  213.6950  154.7300 N   0  0  0  0  0  0  0  0  0  0  0  0
  157.1020  212.6880  155.6110 C   0  0  0  0  0  0  0  0  0  0  0  0
  156.1780  212.7720  156.6440 C   0  0  0  0  0  2  0  0  0  0  0  0
  155.9260  214.4500  155.1610 N   0  0  0  0  0  0  0  0  0  0  0  0
  154.3930  214.4480  157.0520 N   0  0  0  0  0  1  0  0  0  0  0  0
  155.4900  208.9150  155.4310 O   0  0  0  0  0  0  0  0  0  0  0  0
  156.0210  210.0780  156.0130 C   0  0  1  0  0  0  0  0  0  0  0  0
  153.8620  210.4890  155.1460 F   0  0  0  0  0  0  0  0  0  0  0  0
  155.4290  210.3340  157.2530 O   0  0  0  0  0  1  0  0  0  0  0  0
  155.1580  210.1420  154.8100 C   0  0  2  0  0  3  0  0  0  0  0  0
  160.3770  211.7230  152.3880 O   0  0  0  0  0  0  0  0  0  0  0  0
  159.8230  213.0030  152.3360 C   0  0  0  0  0  2  0  0  0  0  0  0
  159.5460  213.3710  150.9220 C   0  0  0  0  0  0  0  0  0  0  0  0
  158.3640  213.5940  150.5490 O   0  0  0  0  0  1  0  0  0  0  0  0
  160.5860  213.4290  150.0040 O   0  0  0  0  0  0  0  0  0  0  0  0
  161.0490  207.6170  151.3270 C   0  0  0  0  0  2  0  0  0  0  0  0
  161.7710  206.5230  150.5560 C   0  0  0  0  0  2  0  0  0  0  0  0
  160.9210  205.2640  150.5000 C   0  0  0  0  0  2  0  0  0  0  0  0
  161.0500  205.7620  144.3010 C   0  0  0  0  0  1  0  0  0  0  0  0
  161.3910  205.8040  148.1400 C   0  0  0  0  0  2  0  0  0  0  0  0
  161.2850  203.3710  148.8470 C   0  0  2  0  0  3  0  0  0  0  0  0
  160.7140  204.7910  149.0650 C   0  0  1  0  0  3  0  0  0  0  0  0
  161.0330  206.1520  145.7440 C   0  0  0  0  0  3  0  0  0  0  0  0
  161.1660  202.9470  147.3770 C   0  0  0  0  0  2  0  0  0  0  0  0
  161.3870  205.3190  146.7260 C   0  0  0  0  0  0  0  0  0  0  0  0
  161.8860  203.9290  146.4600 C   0  0  0  0  0  2  0  0  0  0  0  0
  160.6280  202.3410  149.7240 C   0  0  0  0  0  3  0  0  0  0  0  0
  160.6050  201.0440  149.4060 C   0  0  0  0  0  2  0  0  0  0  0  0
  1  2  1  6  0  0  0
  1 11  1  0  0  0  0
  3  2  1  0  0  0  0
  4 13  1  6  0  0  0
  4 23  1  0  0  0  0
  6 18  1  0  0  0  0
  6  4  1  0  0  0  0
  6 14  1  1  0  0  0
  8  7  1  6  0  0  0
  8  6  1  0  0  0  0
  9  3  1  0  0  0  0
 10 27  1  6  0  0  0
 10 15  1  0  0  0  0
 10  8  1  0  0  0  0
 12 32  1  6  0  0  0
 12  5  1  0  0  0  0
 12  9  1  0  0  0  0
 13 11  1  0  0  0  0
 15  5  1  6  0  0  0
 15  1  1  0  0  0  0
 16 19  1  0  0  0  0
 16 21  1  0  0  0  0
 17 20  1  0  0  0  0
 17 18  2  0  0  0  0
 18 19  1  0  0  0  0
 20 16  2  0  0  0  0
 22 23  1  0  0  0  0
 23 25  1  1  0  0  0
 26 24  1  1  0  0  0
 26 22  1  0  0  0  0
 26 23  1  0  0  0  0
 28 27  1  0  0  0  0
 29 28  1  0  0  0  0
 30 29  1  0  0  0  0
 31 29  2  0  0  0  0
 33 32  1  0  0  0  0
 34 33  1  0  0  0  0
 35 39  1  0  0  0  0
 36 38  1  0  0  0  0
 37 38  1  0  0  0  0
 37 43  1  1  0  0  0
 38 34  1  1  0  0  0
 39 41  2  0  0  0  0
 40 37  1  0  0  0  0
 41 36  1  0  0  0  0
 42 41  1  0  0  0  0
 42 40  1  0  0  0  0
 44 43  2  0  0  0  0
M  END
>  <MODEL>
4

>  <REMARK>
 VINA RESULT:      -2.9      2.173      3.643
  Name = 
  10 active torsions:
  status: ('A' for Active; 'I' for Inactive)
    1  A    between atoms: O_9  and  C_31
    2  A    between atoms: O_9  and  C_43
    3  A    between atoms: C_10  and  C_16
    4  A    between atoms: C_11  and  C_12
    5  A    between atoms: C_13  and  C_26
    6  A    between atoms: C_13  and  C_27
    7  A    between atoms: C_14  and  C_20
    8  A    between atoms: C_19  and  C_26
    9  A    between atoms: C_25  and  C_43
   10  A    between atoms: C_27  and  C_34
                            x       y       z     vdW  Elec       q    Type
                         _______ _______ _______ _____ _____    ______ ____

>  <TORSDO>
F 10

$$$$
=
 OpenBabel11072413433D

 44 48  0  0  1  0  0  0  0  0999 V2000
  160.0350  213.4980  149.9550 C   0  0  2  0  0  3  0  0  0  0  0  0
  160.1540  214.0820  151.3740 C   0  0  0  0  0  2  0  0  0  0  0  0
  159.3200  213.3580  152.4430 C   0  0  0  0  0  2  0  0  0  0  0  0
  158.6300  213.4710  147.1930 C   0  0  2  0  0  3  0  0  0  0  0  0
  161.4270  211.6220  151.0090 C   0  0  0  0  0  2  0  0  0  0  0  0
  160.1160  213.3520  146.7080 C   0  0  2  0  0  0  0  0  0  0  0  0
  159.9940  210.9180  147.0800 O   0  0  0  0  0  1  0  0  0  0  0  0
  160.8140  212.0480  147.1770 C   0  0  2  0  0  3  0  0  0  0  0  0
  159.1760  211.8490  152.2240 C   0  0  0  0  0  2  0  0  0  0  0  0
  161.5750  212.0980  148.5170 C   0  0  1  0  0  3  0  0  0  0  0  0
  158.6010  213.6020  149.4350 C   0  0  0  0  0  2  0  0  0  0  0  0
  160.5090  211.1030  152.1270 C   0  0  1  0  0  3  0  0  0  0  0  0
  158.3910  212.7310  148.3620 O   0  0  0  0  0  0  0  0  0  0  0  0
  160.8160  214.4430  147.2340 O   0  0  0  0  0  1  0  0  0  0  0  0
  160.6610  212.0920  149.7600 C   0  0  2  0  0  3  0  0  0  0  0  0
  160.7830  213.0970  143.1500 C   0  0  0  0  0  0  0  0  0  0  0  0
  159.7230  214.4330  144.4550 N   0  0  0  0  0  0  0  0  0  0  0  0
  160.2310  213.4280  145.2000 C   0  0  0  0  0  0  0  0  0  0  0  0
  160.9420  212.5420  144.4020 C   0  0  0  0  0  2  0  0  0  0  0  0
  160.0580  214.2250  143.1940 N   0  0  0  0  0  0  0  0  0  0  0  0
  161.3320  212.5650  141.9510 N   0  0  0  0  0  1  0  0  0  0  0  0
  157.1480  214.3180  145.4110 O   0  0  0  0  0  0  0  0  0  0  0  0
  157.5470  213.1820  146.1370 C   0  0  1  0  0  0  0  0  0  0  0  0
  155.2720  213.0220  145.5220 F   0  0  0  0  0  0  0  0  0  0  0  0
  157.7180  212.0820  145.2930 O   0  0  0  0  0  1  0  0  0  0  0  0
  156.1830  213.7430  146.2720 C   0  0  2  0  0  3  0  0  0  0  0  0
  162.4850  211.0350  148.5530 O   0  0  0  0  0  0  0  0  0  0  0  0
  163.7430  211.6360  148.4930 C   0  0  0  0  0  2  0  0  0  0  0  0
  163.7120  212.7670  147.5280 C   0  0  0  0  0  0  0  0  0  0  0  0
  163.7270  212.5390  146.2900 O   0  0  0  0  0  0  0  0  0  0  0  0
  163.7060  214.0760  147.9920 O   0  0  0  0  0  1  0  0  0  0  0  0
  160.2260  209.6250  151.9220 C   0  0  0  0  0  2  0  0  0  0  0  0
  161.5250  208.8590  151.7260 C   0  0  0  0  0  2  0  0  0  0  0  0
  161.4750  207.5320  152.4650 C   0  0  0  0  0  2  0  0  0  0  0  0
  161.5300  201.5270  150.8440 C   0  0  0  0  0  1  0  0  0  0  0  0
  161.1250  205.1030  152.2250 C   0  0  0  0  0  2  0  0  0  0  0  0
  160.8950  206.5860  150.1800 C   0  0  2  0  0  3  0  0  0  0  0  0
  161.6450  206.3530  151.5130 C   0  0  1  0  0  3  0  0  0  0  0  0
  161.5720  202.7550  151.6950 C   0  0  0  0  0  3  0  0  0  0  0  0
  160.9850  205.3520  149.2730 C   0  0  0  0  0  2  0  0  0  0  0  0
  161.0920  203.9350  151.2920 C   0  0  0  0  0  0  0  0  0  0  0  0
  160.4190  204.1170  149.9630 C   0  0  0  0  0  2  0  0  0  0  0  0
  161.3930  207.7960  149.4390 C   0  0  0  0  0  3  0  0  0  0  0  0
  162.4120  207.7340  148.5780 C   0  0  0  0  0  2  0  0  0  0  0  0
  1 11  1  1  0  0  0
  1  2  1  0  0  0  0
  2  3  1  0  0  0  0
  4 13  1  1  0  0  0
  5 12  1  0  0  0  0
  6  8  1  0  0  0  0
  6  4  1  0  0  0  0
  6 14  1  1  0  0  0
  8  7  1  1  0  0  0
  8 10  1  0  0  0  0
  9  3  1  0  0  0  0
 10 27  1  1  0  0  0
 10 15  1  0  0  0  0
 12 32  1  6  0  0  0
 12  9  1  0  0  0  0
 13 11  1  0  0  0  0
 15  1  1  0  0  0  0
 15  5  1  1  0  0  0
 16 20  2  0  0  0  0
 16 19  1  0  0  0  0
 17 18  2  0  0  0  0
 18  6  1  0  0  0  0
 19 18  1  0  0  0  0
 20 17  1  0  0  0  0
 21 16  1  0  0  0  0
 22 23  1  0  0  0  0
 22 26  1  0  0  0  0
 23 25  1  6  0  0  0
 23 26  1  0  0  0  0
 23  4  1  0  0  0  0
 26 24  1  6  0  0  0
 28 27  1  0  0  0  0
 29 31  1  0  0  0  0
 29 28  1  0  0  0  0
 30 29  2  0  0  0  0
 33 32  1  0  0  0  0
 33 34  1  0  0  0  0
 35 39  1  0  0  0  0
 37 43  1  6  0  0  0
 37 38  1  0  0  0  0
 38 36  1  0  0  0  0
 38 34  1  1  0  0  0
 40 42  1  0  0  0  0
 40 37  1  0  0  0  0
 41 39  2  0  0  0  0
 41 36  1  0  0  0  0
 42 41  1  0  0  0  0
 44 43  2  0  0  0  0
M  END
>  <MODEL>
5

>  <REMARK>
 VINA RESULT:      -1.7      4.852      7.584
  Name = 
  10 active torsions:
  status: ('A' for Active; 'I' for Inactive)
    1  A    between atoms: O_9  and  C_31
    2  A    between atoms: O_9  and  C_43
    3  A    between atoms: C_10  and  C_16
    4  A    between atoms: C_11  and  C_12
    5  A    between atoms: C_13  and  C_26
    6  A    between atoms: C_13  and  C_27
    7  A    between atoms: C_14  and  C_20
    8  A    between atoms: C_19  and  C_26
    9  A    between atoms: C_25  and  C_43
   10  A    between atoms: C_27  and  C_34
                            x       y       z     vdW  Elec       q    Type
                         _______ _______ _______ _____ _____    ______ ____

>  <TORSDO>
F 10

$$$$
