=
 OpenBabel11072415143D

 40 43  0  0  1  0  0  0  0  0999 V2000
  161.2290  205.4970  150.6740 C   0  0  1  0  0  3  0  0  0  0  0  0
  161.2970  206.5520  154.3490 C   0  0  0  0  0  3  0  0  0  0  0  0
  161.1560  206.3290  151.9320 C   0  0  0  0  0  0  0  0  0  0  0  0
  162.2750  206.8890  148.9950 C   0  0  2  0  0  3  0  0  0  0  0  0
  161.1220  207.9430  154.2540 C   0  0  0  0  0  0  0  0  0  0  0  0
  160.8390  208.3860  150.4950 C   0  0  0  0  0  2  0  0  0  0  0  0
  162.4640  205.7800  149.9430 N   0  0  0  0  0  2  0  0  0  0  0  0
  162.1300  208.2540  149.6890 C   0  0  0  0  0  2  0  0  0  0  0  0
  161.3280  205.7570  153.2030 C   0  0  0  0  0  3  0  0  0  0  0  0
  160.9750  207.7210  151.8260 C   0  0  0  0  0  0  0  0  0  0  0  0
  160.9460  208.5110  152.9790 C   0  0  0  0  0  3  0  0  0  0  0  0
  159.6600  208.5150  156.2030 C   0  0  0  0  0  2  0  0  0  0  0  0
  159.8720  210.7720  157.2530 C   0  0  0  0  0  2  0  0  0  0  0  0
  160.9260  211.2670  156.2500 C   0  0  2  0  0  0  0  0  0  0  0  0
  158.9070  209.7800  156.6200 C   0  0  0  0  0  2  0  0  0  0  0  0
  161.0170  208.7820  155.5140 C   0  0  1  0  0  0  0  0  0  0  0  0
  162.1080  208.4050  156.5150 C   0  0  0  0  0  1  0  0  0  0  0  0
  161.1860  210.2590  155.1170 C   0  0  0  0  0  2  0  0  0  0  0  0
  162.1240  211.4890  156.9310 O   0  0  0  0  0  1  0  0  0  0  0  0
  160.4560  212.5700  155.6000 C   0  0  0  0  0  2  0  0  0  0  0  0
  159.1120  213.0690  156.1300 C   0  0  0  0  0  2  0  0  0  0  0  0
  156.5560  211.6800  154.6380 C   0  0  0  0  0  2  0  0  0  0  0  0
  157.7240  211.4610  153.6880 C   0  0  0  0  0  2  0  0  0  0  0  0
  158.5750  212.7180  153.7300 C   0  0  0  0  0  2  0  0  0  0  0  0
  158.1740  213.4670  154.9860 C   0  0  1  0  0  3  0  0  0  0  0  0
  156.3050  213.0740  156.6940 C   0  0  0  0  0  1  0  0  0  0  0  0
  155.8080  214.0300  154.4780 C   0  0  0  0  0  1  0  0  0  0  0  0
  156.7140  213.0690  155.2270 C   0  0  0  0  0  0  0  0  0  0  0  0
  162.0260  203.3220  151.6360 O   0  0  0  0  0  1  0  0  0  0  0  0
  161.0810  204.0240  150.8980 C   0  0  0  0  0  0  0  0  0  0  0  0
  160.0780  203.4230  150.4330 O   0  0  0  0  0  0  0  0  0  0  0  0
  161.2360  206.6060  147.9380 C   0  0  0  0  0  0  0  0  0  0  0  0
  160.0580  206.2040  148.2940 N   0  0  0  0  0  2  0  0  0  0  0  0
  161.6260  206.5440  146.5630 N   0  0  0  0  0  2  0  0  0  0  0  0
  160.6970  206.2160  145.4930 C   0  0  0  0  0  2  0  0  0  0  0  0
  161.3270  205.2000  144.5570 C   0  0  0  0  0  2  0  0  0  0  0  0
  161.6860  203.9550  145.3010 C   0  0  0  0  0  0  0  0  0  0  0  0
  162.7380  203.9210  145.9920 O   0  0  0  0  0  0  0  0  0  0  0  0
  160.8320  202.8150  145.2640 N   0  0  0  0  0  2  0  0  0  0  0  0
  159.7070  202.8070  144.5110 O   0  0  0  0  0  1  0  0  0  0  0  0
  1 30  1  1  0  0  0
  1  3  1  0  0  0  0
  3  9  1  0  0  0  0
  4 32  1  1  0  0  0
  4  8  1  0  0  0  0
  4  7  1  0  0  0  0
  5  2  1  0  0  0  0
  5 16  1  0  0  0  0
  6 10  1  0  0  0  0
  7  1  1  0  0  0  0
  8  6  1  0  0  0  0
  9  2  2  0  0  0  0
 10  3  2  0  0  0  0
 10 11  1  0  0  0  0
 11  5  2  0  0  0  0
 12 15  1  0  0  0  0
 14 19  1  1  0  0  0
 14 13  1  0  0  0  0
 15 13  1  0  0  0  0
 16 12  1  0  0  0  0
 16 17  1  1  0  0  0
 18 16  1  0  0  0  0
 18 14  1  0  0  0  0
 20 21  1  0  0  0  0
 20 14  1  0  0  0  0
 22 28  1  0  0  0  0
 23 24  1  0  0  0  0
 23 22  1  0  0  0  0
 24 25  1  0  0  0  0
 25 28  1  0  0  0  0
 25 21  1  1  0  0  0
 27 28  1  0  0  0  0
 28 26  1  0  0  0  0
 30 29  1  0  0  0  0
 31 30  2  0  0  0  0
 32 33  2  0  0  0  0
 34 32  1  0  0  0  0
 35 34  1  0  0  0  0
 36 37  1  0  0  0  0
 36 35  1  0  0  0  0
 37 38  2  0  0  0  0
 39 37  1  0  0  0  0
 40 39  1  0  0  0  0
M  END
>  <MODEL>
1

>  <REMARK>
 VINA RESULT:      -6.9      0.000      0.000
  Name = 
  9 active torsions:
  status: ('A' for Active; 'I' for Inactive)
    1  A    between atoms: C_2  and  C_13
    2  A    between atoms: C_2  and  C_39
    3  A    between atoms: CA_3  and  C_16
    4  A    between atoms: C_6  and  C_17
    5  A    between atoms: C_14  and  C_39
    6  A    between atoms: C_17  and  C_20
    7  A    between atoms: C_19  and  C_27
    8  A    between atoms: C_20  and  N_37
    9  A    between atoms: C_21  and  C_28
                            x       y       z     vdW  Elec       q    Type
                         _______ _______ _______ _____ _____    ______ ____

>  <TORSDO>
F 9

$$$$
=
 OpenBabel11072415143D

 40 43  0  0  1  0  0  0  0  0999 V2000
  161.3020  206.8470  149.6200 C   0  0  1  0  0  3  0  0  0  0  0  0
  161.0170  209.2700  152.5650 C   0  0  0  0  0  3  0  0  0  0  0  0
  161.2390  207.4040  151.0220 C   0  0  0  0  0  0  0  0  0  0  0  0
  160.1240  204.7360  149.6710 C   0  0  2  0  0  3  0  0  0  0  0  0
  161.0150  208.3920  153.6620 C   0  0  0  0  0  0  0  0  0  0  0  0
  161.3230  205.0380  151.9120 C   0  0  0  0  0  2  0  0  0  0  0  0
  160.0570  206.1540  149.2870 N   0  0  0  0  0  2  0  0  0  0  0  0
  160.0770  204.5220  151.1940 C   0  0  0  0  0  2  0  0  0  0  0  0
  161.1140  208.7820  151.2610 C   0  0  0  0  0  3  0  0  0  0  0  0
  161.2430  206.5170  152.1150 C   0  0  0  0  0  0  0  0  0  0  0  0
  161.1450  207.0130  153.4180 C   0  0  0  0  0  3  0  0  0  0  0  0
  159.6740  208.5130  155.7720 C   0  0  0  0  0  2  0  0  0  0  0  0
  159.9340  210.5030  157.2580 C   0  0  0  0  0  2  0  0  0  0  0  0
  160.9190  211.2200  156.3210 C   0  0  2  0  0  0  0  0  0  0  0  0
  158.9390  209.6470  156.4890 C   0  0  0  0  0  2  0  0  0  0  0  0
  160.9830  208.9460  155.0750 C   0  0  1  0  0  0  0  0  0  0  0  0
  162.1380  208.3900  155.9070 C   0  0  0  0  0  1  0  0  0  0  0  0
  161.1160  210.4770  154.9880 C   0  0  0  0  0  2  0  0  0  0  0  0
  162.1560  211.3180  156.9600 O   0  0  0  0  0  1  0  0  0  0  0  0
  160.4000  212.6200  155.9900 C   0  0  0  0  0  2  0  0  0  0  0  0
  158.9930  212.8920  156.5180 C   0  0  0  0  0  2  0  0  0  0  0  0
  156.9000  211.5560  154.3910 C   0  0  0  0  0  2  0  0  0  0  0  0
  158.1540  211.8400  153.5750 C   0  0  0  0  0  2  0  0  0  0  0  0
  158.7150  213.1630  154.0640 C   0  0  0  0  0  2  0  0  0  0  0  0
  158.0750  213.4280  155.4140 C   0  0  1  0  0  3  0  0  0  0  0  0
  156.2150  212.2210  156.6970 C   0  0  0  0  0  1  0  0  0  0  0  0
  155.6860  213.6730  154.7780 C   0  0  0  0  0  1  0  0  0  0  0  0
  156.7190  212.7180  155.3490 C   0  0  0  0  0  0  0  0  0  0  0  0
  162.0710  209.1300  148.9210 O   0  0  0  0  0  1  0  0  0  0  0  0
  161.6330  207.8590  148.5680 C   0  0  0  0  0  0  0  0  0  0  0  0
  161.5360  207.5470  147.3520 O   0  0  0  0  0  0  0  0  0  0  0  0
  161.2140  203.9700  148.9610 C   0  0  0  0  0  0  0  0  0  0  0  0
  161.8140  203.0010  149.5740 N   0  0  0  0  0  2  0  0  0  0  0  0
  161.7420  204.4710  147.7290 N   0  0  0  0  0  2  0  0  0  0  0  0
  162.8340  203.8250  147.0190 C   0  0  0  0  0  2  0  0  0  0  0  0
  162.6810  204.0490  145.5250 C   0  0  0  0  0  2  0  0  0  0  0  0
  161.2950  203.7060  145.0850 C   0  0  0  0  0  0  0  0  0  0  0  0
  160.8600  202.5350  145.2450 O   0  0  0  0  0  0  0  0  0  0  0  0
  160.4470  204.6990  144.5130 N   0  0  0  0  0  2  0  0  0  0  0  0
  160.8900  205.9600  144.3020 O   0  0  0  0  0  1  0  0  0  0  0  0
  1 30  1  6  0  0  0
  1  3  1  0  0  0  0
  2  5  1  0  0  0  0
  3  9  1  0  0  0  0
  3 10  2  0  0  0  0
  4 32  1  1  0  0  0
  4  8  1  0  0  0  0
  5 16  1  0  0  0  0
  6 10  1  0  0  0  0
  7  1  1  0  0  0  0
  7  4  1  0  0  0  0
  8  6  1  0  0  0  0
  9  2  2  0  0  0  0
 10 11  1  0  0  0  0
 11  5  2  0  0  0  0
 12 15  1  0  0  0  0
 14 19  1  1  0  0  0
 14 13  1  0  0  0  0
 15 13  1  0  0  0  0
 16 12  1  0  0  0  0
 16 17  1  1  0  0  0
 18 16  1  0  0  0  0
 18 14  1  0  0  0  0
 20 14  1  0  0  0  0
 20 21  1  0  0  0  0
 22 28  1  0  0  0  0
 23 24  1  0  0  0  0
 23 22  1  0  0  0  0
 24 25  1  0  0  0  0
 25 21  1  1  0  0  0
 27 28  1  0  0  0  0
 28 25  1  0  0  0  0
 28 26  1  0  0  0  0
 30 29  1  0  0  0  0
 31 30  2  0  0  0  0
 32 33  2  0  0  0  0
 34 32  1  0  0  0  0
 35 34  1  0  0  0  0
 36 35  1  0  0  0  0
 37 38  2  0  0  0  0
 37 36  1  0  0  0  0
 39 37  1  0  0  0  0
 40 39  1  0  0  0  0
M  END
>  <MODEL>
2

>  <REMARK>
 VINA RESULT:      -6.8      1.709      2.470
  Name = 
  9 active torsions:
  status: ('A' for Active; 'I' for Inactive)
    1  A    between atoms: C_2  and  C_13
    2  A    between atoms: C_2  and  C_39
    3  A    between atoms: CA_3  and  C_16
    4  A    between atoms: C_6  and  C_17
    5  A    between atoms: C_14  and  C_39
    6  A    between atoms: C_17  and  C_20
    7  A    between atoms: C_19  and  C_27
    8  A    between atoms: C_20  and  N_37
    9  A    between atoms: C_21  and  C_28
                            x       y       z     vdW  Elec       q    Type
                         _______ _______ _______ _____ _____    ______ ____

>  <TORSDO>
F 9

$$$$
=
 OpenBabel11072415143D

 40 43  0  0  1  0  0  0  0  0999 V2000
  161.0320  204.1250  149.0170 C   0  0  1  0  0  3  0  0  0  0  0  0
  161.2640  206.4390  152.0530 C   0  0  0  0  0  3  0  0  0  0  0  0
  161.1010  205.3630  149.8780 C   0  0  0  0  0  0  0  0  0  0  0  0
  162.3200  204.6060  147.0270 C   0  0  2  0  0  3  0  0  0  0  0  0
  161.3400  207.7040  151.4470 C   0  0  0  0  0  0  0  0  0  0  0  0
  161.1640  206.7640  147.7730 C   0  0  0  0  0  2  0  0  0  0  0  0
  162.3030  203.9110  148.3230 N   0  0  0  0  0  2  0  0  0  0  0  0
  162.4160  206.1350  147.1650 C   0  0  0  0  0  2  0  0  0  0  0  0
  161.1600  205.2820  151.2790 C   0  0  0  0  0  3  0  0  0  0  0  0
  161.1710  206.6260  149.2620 C   0  0  0  0  0  0  0  0  0  0  0  0
  161.2760  207.7810  150.0430 C   0  0  0  0  0  3  0  0  0  0  0  0
  161.5760  208.5600  153.7860 C   0  0  0  0  0  2  0  0  0  0  0  0
  160.4960  210.7290  154.3960 C   0  0  0  0  0  2  0  0  0  0  0  0
  159.8560  210.9320  153.0130 C   0  0  2  0  0  0  0  0  0  0  0  0
  160.6180  209.2550  154.7550 C   0  0  0  0  0  2  0  0  0  0  0  0
  161.3790  208.9550  152.3060 C   0  0  1  0  0  0  0  0  0  0  0  0
  162.5560  209.8480  151.9200 C   0  0  0  0  0  1  0  0  0  0  0  0
  160.0660  209.7260  152.0800 C   0  0  0  0  0  2  0  0  0  0  0  0
  160.4230  212.0590  152.4160 O   0  0  0  0  0  1  0  0  0  0  0  0
  158.3460  211.1340  153.1620 C   0  0  0  0  0  2  0  0  0  0  0  0
  157.9130  211.4870  154.5830 C   0  0  0  0  0  2  0  0  0  0  0  0
  156.0890  213.1320  156.7400 C   0  0  0  0  0  2  0  0  0  0  0  0
  155.6420  211.6840  156.8800 C   0  0  0  0  0  2  0  0  0  0  0  0
  155.6350  211.0830  155.4860 C   0  0  0  0  0  2  0  0  0  0  0  0
  156.4710  212.0030  154.6170 C   0  0  1  0  0  3  0  0  0  0  0  0
  157.5440  214.2840  155.0710 C   0  0  0  0  0  1  0  0  0  0  0  0
  155.1190  214.0870  154.6770 C   0  0  0  0  0  1  0  0  0  0  0  0
  156.3310  213.3840  155.2640 C   0  0  0  0  0  0  0  0  0  0  0  0
  161.2610  202.5160  150.9270 O   0  0  0  0  0  1  0  0  0  0  0  0
  160.6230  202.8850  149.7490 C   0  0  0  0  0  0  0  0  0  0  0  0
  159.6760  202.1850  149.3050 O   0  0  0  0  0  0  0  0  0  0  0  0
  161.2530  204.1260  146.0730 C   0  0  0  0  0  0  0  0  0  0  0  0
  160.4710  204.9880  145.5070 N   0  0  0  0  0  2  0  0  0  0  0  0
  160.9550  202.7290  145.9920 N   0  0  0  0  0  2  0  0  0  0  0  0
  159.9000  202.1960  145.1440 C   0  0  0  0  0  2  0  0  0  0  0  0
  160.1700  200.7320  144.8440 C   0  0  0  0  0  2  0  0  0  0  0  0
  160.9020  200.0930  145.9790 C   0  0  0  0  0  0  0  0  0  0  0  0
  160.9990  200.6970  147.0790 O   0  0  0  0  0  0  0  0  0  0  0  0
  161.4630  198.7900  145.8400 N   0  0  0  0  0  2  0  0  0  0  0  0
  161.4000  198.1230  144.6640 O   0  0  0  0  0  1  0  0  0  0  0  0
  1 30  1  1  0  0  0
  1  3  1  0  0  0  0
  3  9  1  0  0  0  0
  4 32  1  1  0  0  0
  4  8  1  0  0  0  0
  4  7  1  0  0  0  0
  5  2  1  0  0  0  0
  5 16  1  0  0  0  0
  6 10  1  0  0  0  0
  7  1  1  0  0  0  0
  8  6  1  0  0  0  0
  9  2  2  0  0  0  0
 10  3  2  0  0  0  0
 10 11  1  0  0  0  0
 11  5  2  0  0  0  0
 12 15  1  0  0  0  0
 13 15  1  0  0  0  0
 14 19  1  6  0  0  0
 14 20  1  0  0  0  0
 14 13  1  0  0  0  0
 16 17  1  6  0  0  0
 16 12  1  0  0  0  0
 18 16  1  0  0  0  0
 18 14  1  0  0  0  0
 20 21  1  0  0  0  0
 22 23  1  0  0  0  0
 24 23  1  0  0  0  0
 25 21  1  1  0  0  0
 25 28  1  0  0  0  0
 25 24  1  0  0  0  0
 26 28  1  0  0  0  0
 27 28  1  0  0  0  0
 28 22  1  0  0  0  0
 30 29  1  0  0  0  0
 31 30  2  0  0  0  0
 33 32  2  0  0  0  0
 34 32  1  0  0  0  0
 35 34  1  0  0  0  0
 36 35  1  0  0  0  0
 36 37  1  0  0  0  0
 37 38  2  0  0  0  0
 39 37  1  0  0  0  0
 40 39  1  0  0  0  0
M  END
>  <MODEL>
3

>  <REMARK>
 VINA RESULT:      -6.8      2.073      3.177
  Name = 
  9 active torsions:
  status: ('A' for Active; 'I' for Inactive)
    1  A    between atoms: C_2  and  C_13
    2  A    between atoms: C_2  and  C_39
    3  A    between atoms: CA_3  and  C_16
    4  A    between atoms: C_6  and  C_17
    5  A    between atoms: C_14  and  C_39
    6  A    between atoms: C_17  and  C_20
    7  A    between atoms: C_19  and  C_27
    8  A    between atoms: C_20  and  N_37
    9  A    between atoms: C_21  and  C_28
                            x       y       z     vdW  Elec       q    Type
                         _______ _______ _______ _____ _____    ______ ____

>  <TORSDO>
F 9

$$$$
=
 OpenBabel11072415143D

 40 43  0  0  1  0  0  0  0  0999 V2000
  161.3940  206.3730  149.7210 C   0  0  1  0  0  3  0  0  0  0  0  0
  161.1450  208.8380  152.6340 C   0  0  0  0  0  3  0  0  0  0  0  0
  161.3150  206.9470  151.1150 C   0  0  0  0  0  0  0  0  0  0  0  0
  160.1000  204.3300  149.7500 C   0  0  2  0  0  3  0  0  0  0  0  0
  161.0580  207.9730  153.7380 C   0  0  0  0  0  0  0  0  0  0  0  0
  161.2390  204.5890  152.0280 C   0  0  0  0  0  2  0  0  0  0  0  0
  160.1250  205.7460  149.3520 N   0  0  0  0  0  2  0  0  0  0  0  0
  159.9910  204.1350  151.2720 C   0  0  0  0  0  2  0  0  0  0  0  0
  161.2580  208.3320  151.3390 C   0  0  0  0  0  3  0  0  0  0  0  0
  161.2340  206.0720  152.2150 C   0  0  0  0  0  0  0  0  0  0  0  0
  161.1200  206.5860  153.5100 C   0  0  0  0  0  3  0  0  0  0  0  0
  159.6260  208.2580  155.7710 C   0  0  0  0  0  2  0  0  0  0  0  0
  160.0170  210.2250  157.2600 C   0  0  0  0  0  2  0  0  0  0  0  0
  161.1220  210.8230  156.3740 C   0  0  2  0  0  0  0  0  0  0  0  0
  158.9790  209.4700  156.4420 C   0  0  0  0  0  2  0  0  0  0  0  0
  161.0090  208.5420  155.1440 C   0  0  1  0  0  0  0  0  0  0  0  0
  162.0520  207.8760  156.0400 C   0  0  0  0  0  1  0  0  0  0  0  0
  161.3090  210.0490  155.0570 C   0  0  0  0  0  2  0  0  0  0  0  0
  162.3260  210.7960  157.0790 O   0  0  0  0  0  1  0  0  0  0  0  0
  160.7720  212.2670  156.0080 C   0  0  0  0  0  2  0  0  0  0  0  0
  159.3720  212.6880  156.4480 C   0  0  0  0  0  2  0  0  0  0  0  0
  157.0830  211.6570  154.3540 C   0  0  0  0  0  2  0  0  0  0  0  0
  158.3770  211.6390  153.5530 C   0  0  0  0  0  2  0  0  0  0  0  0
  159.1810  212.8550  153.9760 C   0  0  0  0  0  2  0  0  0  0  0  0
  158.5900  213.3230  155.2930 C   0  0  1  0  0  3  0  0  0  0  0  0
  156.5150  212.5860  156.6010 C   0  0  0  0  0  1  0  0  0  0  0  0
  156.3030  213.9900  154.5870 C   0  0  0  0  0  1  0  0  0  0  0  0
  157.1220  212.8890  155.2380 C   0  0  0  0  0  0  0  0  0  0  0  0
  163.1420  207.7490  148.5640 O   0  0  0  0  0  1  0  0  0  0  0  0
  161.8140  207.3550  148.6720 C   0  0  0  0  0  0  0  0  0  0  0  0
  160.9600  207.8080  147.8660 O   0  0  0  0  0  0  0  0  0  0  0  0
  161.1700  203.4990  149.0830 C   0  0  0  0  0  0  0  0  0  0  0  0
  161.9810  204.0590  148.2440 N   0  0  0  0  0  2  0  0  0  0  0  0
  161.1250  202.0730  149.1890 N   0  0  0  0  0  2  0  0  0  0  0  0
  162.0810  201.2020  148.5240 C   0  0  0  0  0  2  0  0  0  0  0  0
  161.3470  200.0830  147.8070 C   0  0  0  0  0  2  0  0  0  0  0  0
  161.0090  200.4900  146.4100 C   0  0  0  0  0  0  0  0  0  0  0  0
  160.7320  201.6920  146.1590 O   0  0  0  0  0  0  0  0  0  0  0  0
  161.0300  199.5370  145.3510 N   0  0  0  0  0  2  0  0  0  0  0  0
  161.2980  198.2320  145.5890 O   0  0  0  0  0  1  0  0  0  0  0  0
  1 30  1  6  0  0  0
  1  3  1  0  0  0  0
  2  5  1  0  0  0  0
  3  9  1  0  0  0  0
  3 10  2  0  0  0  0
  4 32  1  1  0  0  0
  4  8  1  0  0  0  0
  5 16  1  0  0  0  0
  6 10  1  0  0  0  0
  7  1  1  0  0  0  0
  7  4  1  0  0  0  0
  8  6  1  0  0  0  0
  9  2  2  0  0  0  0
 10 11  1  0  0  0  0
 11  5  2  0  0  0  0
 12 15  1  0  0  0  0
 14 19  1  1  0  0  0
 14 13  1  0  0  0  0
 15 13  1  0  0  0  0
 16 12  1  0  0  0  0
 16 17  1  1  0  0  0
 18 16  1  0  0  0  0
 18 14  1  0  0  0  0
 20 14  1  0  0  0  0
 20 21  1  0  0  0  0
 22 28  1  0  0  0  0
 23 24  1  0  0  0  0
 23 22  1  0  0  0  0
 24 25  1  0  0  0  0
 25 21  1  1  0  0  0
 27 28  1  0  0  0  0
 28 25  1  0  0  0  0
 28 26  1  0  0  0  0
 29 30  1  0  0  0  0
 31 30  2  0  0  0  0
 32 34  1  0  0  0  0
 33 32  2  0  0  0  0
 35 34  1  0  0  0  0
 36 35  1  0  0  0  0
 37 36  1  0  0  0  0
 38 37  2  0  0  0  0
 39 40  1  0  0  0  0
 39 37  1  0  0  0  0
M  END
>  <MODEL>
4

>  <REMARK>
 VINA RESULT:      -6.5      2.099      2.929
  Name = 
  9 active torsions:
  status: ('A' for Active; 'I' for Inactive)
    1  A    between atoms: C_2  and  C_13
    2  A    between atoms: C_2  and  C_39
    3  A    between atoms: CA_3  and  C_16
    4  A    between atoms: C_6  and  C_17
    5  A    between atoms: C_14  and  C_39
    6  A    between atoms: C_17  and  C_20
    7  A    between atoms: C_19  and  C_27
    8  A    between atoms: C_20  and  N_37
    9  A    between atoms: C_21  and  C_28
                            x       y       z     vdW  Elec       q    Type
                         _______ _______ _______ _____ _____    ______ ____

>  <TORSDO>
F 9

$$$$
=
 OpenBabel11072415143D

 40 43  0  0  1  0  0  0  0  0999 V2000
  161.1450  209.4610  153.2060 C   0  0  1  0  0  3  0  0  0  0  0  0
  161.3140  206.2280  151.1700 C   0  0  0  0  0  3  0  0  0  0  0  0
  161.0420  208.0090  152.8020 C   0  0  0  0  0  0  0  0  0  0  0  0
  161.8690  209.4770  155.5130 C   0  0  2  0  0  3  0  0  0  0  0  0
  160.9390  205.2660  152.1230 C   0  0  0  0  0  0  0  0  0  0  0  0
  160.3420  207.4520  155.1680 C   0  0  0  0  0  2  0  0  0  0  0  0
  162.2760  209.6620  154.1120 N   0  0  0  0  0  2  0  0  0  0  0  0
  161.5820  208.0080  155.8670 C   0  0  0  0  0  2  0  0  0  0  0  0
  161.3780  207.5800  151.5080 C   0  0  0  0  0  3  0  0  0  0  0  0
  160.6610  207.0540  153.7630 C   0  0  0  0  0  0  0  0  0  0  0  0
  160.5990  205.7010  153.4170 C   0  0  0  0  0  3  0  0  0  0  0  0
  161.9550  202.9890  152.3380 C   0  0  0  0  0  2  0  0  0  0  0  0
  161.6360  201.3410  150.4890 C   0  0  0  0  0  2  0  0  0  0  0  0
  160.8610  202.3220  149.5930 C   0  0  2  0  0  0  0  0  0  0  0  0
  162.6630  202.0540  151.3560 C   0  0  0  0  0  2  0  0  0  0  0  0
  160.8040  203.8100  151.7170 C   0  0  1  0  0  0  0  0  0  0  0  0
  159.4970  203.2150  152.2390 C   0  0  0  0  0  1  0  0  0  0  0  0
  160.8080  203.7440  150.1790 C   0  0  0  0  0  2  0  0  0  0  0  0
  159.5550  201.8550  149.4410 O   0  0  0  0  0  1  0  0  0  0  0  0
  161.5350  202.4190  148.2230 C   0  0  0  0  0  2  0  0  0  0  0  0
  160.9290  203.4900  147.3180 C   0  0  0  0  0  2  0  0  0  0  0  0
  160.8310  206.3200  145.6840 C   0  0  0  0  0  2  0  0  0  0  0  0
  161.5810  205.3670  144.7650 C   0  0  0  0  0  2  0  0  0  0  0  0
  162.4620  204.4980  145.6440 C   0  0  0  0  0  2  0  0  0  0  0  0
  161.9210  204.6270  147.0550 C   0  0  1  0  0  3  0  0  0  0  0  0
  160.1070  206.1290  148.0660 C   0  0  0  0  0  1  0  0  0  0  0  0
  162.3310  207.0350  147.5130 C   0  0  0  0  0  1  0  0  0  0  0  0
  161.2810  206.0180  147.1010 C   0  0  0  0  0  0  0  0  0  0  0  0
  162.2470  210.3250  151.1250 O   0  0  0  0  0  0  0  0  0  0  0  0
  161.2210  210.4170  152.0570 C   0  0  0  0  0  0  0  0  0  0  0  0
  160.3310  211.2980  151.9220 O   0  0  0  0  0  1  0  0  0  0  0  0
  160.8110  210.4530  155.9670 C   0  0  0  0  0  0  0  0  0  0  0  0
  159.8280  210.0320  156.6970 N   0  0  0  0  0  2  0  0  0  0  0  0
  160.7630  211.7620  155.3910 N   0  0  0  0  0  2  0  0  0  0  0  0
  159.7360  212.7350  155.7290 C   0  0  0  0  0  2  0  0  0  0  0  0
  158.8240  212.9560  154.5360 C   0  0  0  0  0  2  0  0  0  0  0  0
  157.4900  212.3270  154.7740 C   0  0  0  0  0  0  0  0  0  0  0  0
  157.3380  211.0920  154.5800 O   0  0  0  0  0  0  0  0  0  0  0  0
  156.3940  213.1040  155.2510 N   0  0  0  0  0  2  0  0  0  0  0  0
  156.5150  214.4380  155.4450 O   0  0  0  0  0  1  0  0  0  0  0  0
  1 30  1  6  0  0  0
  1  7  1  0  0  0  0
  2  9  2  0  0  0  0
  2  5  1  0  0  0  0
  3  1  1  0  0  0  0
  3 10  2  0  0  0  0
  4  8  1  0  0  0  0
  4 32  1  6  0  0  0
  5 11  2  0  0  0  0
  6  8  1  0  0  0  0
  7  4  1  0  0  0  0
  9  3  1  0  0  0  0
 10  6  1  0  0  0  0
 11 10  1  0  0  0  0
 13 15  1  0  0  0  0
 14 19  1  6  0  0  0
 14 18  1  0  0  0  0
 14 13  1  0  0  0  0
 15 12  1  0  0  0  0
 16  5  1  0  0  0  0
 16 17  1  1  0  0  0
 16 12  1  0  0  0  0
 18 16  1  0  0  0  0
 20 14  1  0  0  0  0
 21 20  1  0  0  0  0
 22 28  1  0  0  0  0
 23 24  1  0  0  0  0
 23 22  1  0  0  0  0
 24 25  1  0  0  0  0
 25 28  1  0  0  0  0
 25 21  1  6  0  0  0
 28 27  1  0  0  0  0
 28 26  1  0  0  0  0
 29 30  2  0  0  0  0
 31 30  1  0  0  0  0
 32 33  2  0  0  0  0
 34 35  1  0  0  0  0
 34 32  1  0  0  0  0
 36 37  1  0  0  0  0
 36 35  1  0  0  0  0
 37 39  1  0  0  0  0
 38 37  2  0  0  0  0
 39 40  1  0  0  0  0
M  END
>  <MODEL>
5

>  <REMARK>
 VINA RESULT:      -6.4      3.495      9.757
  Name = 
  9 active torsions:
  status: ('A' for Active; 'I' for Inactive)
    1  A    between atoms: C_2  and  C_13
    2  A    between atoms: C_2  and  C_39
    3  A    between atoms: CA_3  and  C_16
    4  A    between atoms: C_6  and  C_17
    5  A    between atoms: C_14  and  C_39
    6  A    between atoms: C_17  and  C_20
    7  A    between atoms: C_19  and  C_27
    8  A    between atoms: C_20  and  N_37
    9  A    between atoms: C_21  and  C_28
                            x       y       z     vdW  Elec       q    Type
                         _______ _______ _______ _____ _____    ______ ____

>  <TORSDO>
F 9

$$$$
=
 OpenBabel11072415143D

 40 43  0  0  1  0  0  0  0  0999 V2000
  161.1150  205.4250  149.8750 C   0  0  1  0  0  3  0  0  0  0  0  0
  161.1460  208.6330  151.9560 C   0  0  0  0  0  3  0  0  0  0  0  0
  161.1670  206.3790  151.0440 C   0  0  0  0  0  0  0  0  0  0  0  0
  159.8190  203.5190  150.6090 C   0  0  2  0  0  3  0  0  0  0  0  0
  161.1560  208.1280  153.2670 C   0  0  0  0  0  0  0  0  0  0  0  0
  161.1630  204.3900  152.6060 C   0  0  0  0  0  2  0  0  0  0  0  0
  159.8140  204.7580  149.8170 N   0  0  0  0  0  2  0  0  0  0  0  0
  159.8490  203.7760  152.1260 C   0  0  0  0  0  2  0  0  0  0  0  0
  161.1370  207.7710  150.8590 C   0  0  0  0  0  3  0  0  0  0  0  0
  161.1820  205.8630  152.3530 C   0  0  0  0  0  0  0  0  0  0  0  0
  161.1900  206.7330  153.4480 C   0  0  0  0  0  3  0  0  0  0  0  0
  161.2330  208.2760  155.7640 C   0  0  0  0  0  2  0  0  0  0  0  0
  160.3400  210.3220  156.8830 C   0  0  0  0  0  2  0  0  0  0  0  0
  159.8770  210.9780  155.5720 C   0  0  2  0  0  0  0  0  0  0  0  0
  160.2590  208.8040  156.8180 C   0  0  0  0  0  2  0  0  0  0  0  0
  161.2400  209.0800  154.4450 C   0  0  1  0  0  0  0  0  0  0  0  0
  162.5430  209.8770  154.4140 C   0  0  0  0  0  1  0  0  0  0  0  0
  160.0510  210.0550  154.3530 C   0  0  0  0  0  2  0  0  0  0  0  0
  160.6250  212.1370  155.3610 O   0  0  0  0  0  1  0  0  0  0  0  0
  158.3910  211.3350  155.6630 C   0  0  0  0  0  2  0  0  0  0  0  0
  157.8760  212.1230  154.4610 C   0  0  0  0  0  2  0  0  0  0  0  0
  155.7780  214.4500  155.3960 C   0  0  0  0  0  2  0  0  0  0  0  0
  155.7770  213.4450  156.5390 C   0  0  0  0  0  2  0  0  0  0  0  0
  155.8650  212.0620  155.9190 C   0  0  0  0  0  2  0  0  0  0  0  0
  156.3500  212.2600  154.4950 C   0  0  1  0  0  3  0  0  0  0  0  0
  156.7430  214.3690  153.0940 C   0  0  0  0  0  1  0  0  0  0  0  0
  154.4600  213.5400  153.5130 C   0  0  0  0  0  1  0  0  0  0  0  0
  155.8550  213.6560  154.1050 C   0  0  0  0  0  0  0  0  0  0  0  0
  162.7490  206.4030  148.2440 O   0  0  0  0  0  1  0  0  0  0  0  0
  161.4420  206.0470  148.5540 C   0  0  0  0  0  0  0  0  0  0  0  0
  160.5280  206.2260  147.7080 O   0  0  0  0  0  0  0  0  0  0  0  0
  160.8190  202.4970  150.1240 C   0  0  0  0  0  0  0  0  0  0  0  0
  161.9520  202.3750  150.7370 N   0  0  0  0  0  2  0  0  0  0  0  0
  160.6170  201.8560  148.8610 N   0  0  0  0  0  2  0  0  0  0  0  0
  161.5660  200.9090  148.2970 C   0  0  0  0  0  2  0  0  0  0  0  0
  161.2150  200.6310  146.8460 C   0  0  0  0  0  2  0  0  0  0  0  0
  161.0740  201.9110  146.0880 C   0  0  0  0  0  0  0  0  0  0  0  0
  161.6430  202.9530  146.5090 O   0  0  0  0  0  0  0  0  0  0  0  0
  160.3290  201.9580  144.8750 N   0  0  0  0  0  2  0  0  0  0  0  0
  159.6830  200.8650  144.4070 O   0  0  0  0  0  1  0  0  0  0  0  0
  1 30  1  6  0  0  0
  1  3  1  0  0  0  0
  2  5  1  0  0  0  0
  3 10  2  0  0  0  0
  4 32  1  6  0  0  0
  4  8  1  0  0  0  0
  5 11  2  0  0  0  0
  5 16  1  0  0  0  0
  7  1  1  0  0  0  0
  7  4  1  0  0  0  0
  8  6  1  0  0  0  0
  9  3  1  0  0  0  0
  9  2  2  0  0  0  0
 10  6  1  0  0  0  0
 10 11  1  0  0  0  0
 12 15  1  0  0  0  0
 14 19  1  6  0  0  0
 14 20  1  0  0  0  0
 14 13  1  0  0  0  0
 15 13  1  0  0  0  0
 16 17  1  6  0  0  0
 16 12  1  0  0  0  0
 18 16  1  0  0  0  0
 18 14  1  0  0  0  0
 21 20  1  0  0  0  0
 22 23  1  0  0  0  0
 24 23  1  0  0  0  0
 25 21  1  1  0  0  0
 25 24  1  0  0  0  0
 26 28  1  0  0  0  0
 27 28  1  0  0  0  0
 28 25  1  0  0  0  0
 28 22  1  0  0  0  0
 29 30  1  0  0  0  0
 31 30  2  0  0  0  0
 32 33  2  0  0  0  0
 34 32  1  0  0  0  0
 35 34  1  0  0  0  0
 36 35  1  0  0  0  0
 37 38  2  0  0  0  0
 37 36  1  0  0  0  0
 39 37  1  0  0  0  0
 40 39  1  0  0  0  0
M  END
>  <MODEL>
6

>  <REMARK>
 VINA RESULT:      -5.5      1.887      3.170
  Name = 
  9 active torsions:
  status: ('A' for Active; 'I' for Inactive)
    1  A    between atoms: C_2  and  C_13
    2  A    between atoms: C_2  and  C_39
    3  A    between atoms: CA_3  and  C_16
    4  A    between atoms: C_6  and  C_17
    5  A    between atoms: C_14  and  C_39
    6  A    between atoms: C_17  and  C_20
    7  A    between atoms: C_19  and  C_27
    8  A    between atoms: C_20  and  N_37
    9  A    between atoms: C_21  and  C_28
                            x       y       z     vdW  Elec       q    Type
                         _______ _______ _______ _____ _____    ______ ____

>  <TORSDO>
F 9

$$$$
=
 OpenBabel11072415143D

 40 43  0  0  1  0  0  0  0  0999 V2000
  161.2860  204.8810  150.5510 C   0  0  1  0  0  3  0  0  0  0  0  0
  161.1050  207.0940  153.6650 C   0  0  0  0  0  3  0  0  0  0  0  0
  161.1390  206.0820  151.4540 C   0  0  0  0  0  0  0  0  0  0  0  0
  162.4860  205.6410  148.5940 C   0  0  2  0  0  3  0  0  0  0  0  0
  160.9690  208.3740  153.1020 C   0  0  0  0  0  0  0  0  0  0  0  0
  160.9770  207.5460  149.3980 C   0  0  0  0  0  2  0  0  0  0  0  0
  162.5780  204.9090  149.8660 N   0  0  0  0  0  2  0  0  0  0  0  0
  162.3210  207.1590  148.7840 C   0  0  0  0  0  2  0  0  0  0  0  0
  161.2020  205.9640  152.8520 C   0  0  0  0  0  3  0  0  0  0  0  0
  160.9980  207.3600  150.8810 C   0  0  0  0  0  0  0  0  0  0  0  0
  160.9020  208.4870  151.7010 C   0  0  0  0  0  3  0  0  0  0  0  0
  160.4120  209.1170  155.4260 C   0  0  0  0  0  2  0  0  0  0  0  0
  159.3520  211.3530  155.7600 C   0  0  0  0  0  2  0  0  0  0  0  0
  159.2680  211.6670  154.2580 C   0  0  2  0  0  0  0  0  0  0  0  0
  159.2260  209.8620  156.0380 C   0  0  0  0  0  2  0  0  0  0  0  0
  160.7900  209.5820  154.0020 C   0  0  1  0  0  0  0  0  0  0  0  0
  162.0910  210.3740  154.1210 C   0  0  0  0  0  1  0  0  0  0  0  0
  159.7070  210.4820  153.3800 C   0  0  0  0  0  2  0  0  0  0  0  0
  160.0940  212.7570  153.9790 O   0  0  0  0  0  1  0  0  0  0  0  0
  157.8250  212.0050  153.8760 C   0  0  0  0  0  2  0  0  0  0  0  0
  157.2960  213.2720  154.5450 C   0  0  0  0  0  2  0  0  0  0  0  0
  155.8330  211.7880  157.0640 C   0  0  0  0  0  2  0  0  0  0  0  0
  155.6400  210.8390  155.8900 C   0  0  0  0  0  2  0  0  0  0  0  0
  155.3810  211.6940  154.6620 C   0  0  0  0  0  2  0  0  0  0  0  0
  155.8460  213.0960  155.0090 C   0  0  1  0  0  3  0  0  0  0  0  0
  156.6680  214.1370  157.2010 C   0  0  0  0  0  1  0  0  0  0  0  0
  154.2720  213.6900  156.8370 C   0  0  0  0  0  1  0  0  0  0  0  0
  155.6750  213.1980  156.5280 C   0  0  0  0  0  0  0  0  0  0  0  0
  162.1720  202.8630  151.7470 O   0  0  0  0  0  1  0  0  0  0  0  0
  161.0870  203.5650  151.2360 C   0  0  0  0  0  0  0  0  0  0  0  0
  159.9240  203.1040  151.3720 O   0  0  0  0  0  0  0  0  0  0  0  0
  161.5220  205.0210  147.6110 C   0  0  0  0  0  0  0  0  0  0  0  0
  160.8160  205.7870  146.8420 N   0  0  0  0  0  2  0  0  0  0  0  0
  161.2140  203.6270  147.7070 N   0  0  0  0  0  2  0  0  0  0  0  0
  160.2490  202.9710  146.8380 C   0  0  0  0  0  2  0  0  0  0  0  0
  160.9700  202.0390  145.8800 C   0  0  0  0  0  2  0  0  0  0  0  0
  159.9860  201.2700  145.0610 C   0  0  0  0  0  0  0  0  0  0  0  0
  159.0050  201.8640  144.5410 O   0  0  0  0  0  0  0  0  0  0  0  0
  160.1630  199.8740  144.8330 N   0  0  0  0  0  2  0  0  0  0  0  0
  161.1910  199.1980  145.3980 O   0  0  0  0  0  1  0  0  0  0  0  0
  1 30  1  1  0  0  0
  1  3  1  0  0  0  0
  3  9  1  0  0  0  0
  4 32  1  1  0  0  0
  4  8  1  0  0  0  0
  4  7  1  0  0  0  0
  5  2  1  0  0  0  0
  5 16  1  0  0  0  0
  6 10  1  0  0  0  0
  7  1  1  0  0  0  0
  8  6  1  0  0  0  0
  9  2  2  0  0  0  0
 10  3  2  0  0  0  0
 10 11  1  0  0  0  0
 11  5  2  0  0  0  0
 12 15  1  0  0  0  0
 13 15  1  0  0  0  0
 14 19  1  6  0  0  0
 14 13  1  0  0  0  0
 16 17  1  1  0  0  0
 16 12  1  0  0  0  0
 18 16  1  0  0  0  0
 18 14  1  0  0  0  0
 20 14  1  0  0  0  0
 20 21  1  0  0  0  0
 23 22  1  0  0  0  0
 24 25  1  0  0  0  0
 24 23  1  0  0  0  0
 25 21  1  1  0  0  0
 25 28  1  0  0  0  0
 28 27  1  0  0  0  0
 28 22  1  0  0  0  0
 28 26  1  0  0  0  0
 30 31  2  0  0  0  0
 30 29  1  0  0  0  0
 32 34  1  0  0  0  0
 33 32  2  0  0  0  0
 35 34  1  0  0  0  0
 36 35  1  0  0  0  0
 37 36  1  0  0  0  0
 38 37  2  0  0  0  0
 39 37  1  0  0  0  0
 39 40  1  0  0  0  0
M  END
>  <MODEL>
7

>  <REMARK>
 VINA RESULT:      -4.8      1.663      2.322
  Name = 
  9 active torsions:
  status: ('A' for Active; 'I' for Inactive)
    1  A    between atoms: C_2  and  C_13
    2  A    between atoms: C_2  and  C_39
    3  A    between atoms: CA_3  and  C_16
    4  A    between atoms: C_6  and  C_17
    5  A    between atoms: C_14  and  C_39
    6  A    between atoms: C_17  and  C_20
    7  A    between atoms: C_19  and  C_27
    8  A    between atoms: C_20  and  N_37
    9  A    between atoms: C_21  and  C_28
                            x       y       z     vdW  Elec       q    Type
                         _______ _______ _______ _____ _____    ______ ____

>  <TORSDO>
F 9

$$$$
=
 OpenBabel11072415143D

 40 43  0  0  1  0  0  0  0  0999 V2000
  161.0880  208.2220  154.1230 C   0  0  1  0  0  3  0  0  0  0  0  0
  161.1090  206.5100  150.7030 C   0  0  0  0  0  3  0  0  0  0  0  0
  161.3040  207.9490  152.6540 C   0  0  0  0  0  0  0  0  0  0  0  0
  160.4960  210.5600  154.3020 C   0  0  2  0  0  3  0  0  0  0  0  0
  161.6250  207.5220  149.8760 C   0  0  0  0  0  0  0  0  0  0  0  0
  162.1840  210.3060  152.3950 C   0  0  0  0  0  2  0  0  0  0  0  0
  159.9960  209.1770  154.3120 N   0  0  0  0  0  2  0  0  0  0  0  0
  160.9390  211.0290  152.9060 C   0  0  0  0  0  2  0  0  0  0  0  0
  160.9380  206.7250  152.0710 C   0  0  0  0  0  3  0  0  0  0  0  0
  161.8260  208.9670  151.8340 C   0  0  0  0  0  0  0  0  0  0  0  0
  161.9950  208.7460  150.4650 C   0  0  0  0  0  3  0  0  0  0  0  0
  160.6240  207.6370  147.5860 C   0  0  0  0  0  2  0  0  0  0  0  0
  161.3840  206.0100  145.8500 C   0  0  0  0  0  2  0  0  0  0  0  0
  162.3260  205.2570  146.8020 C   0  0  2  0  0  0  0  0  0  0  0  0
  160.1750  206.5780  146.5780 C   0  0  0  0  0  2  0  0  0  0  0  0
  161.8730  207.2450  148.4050 C   0  0  1  0  0  0  0  0  0  0  0  0
  163.0360  208.0850  147.8780 C   0  0  0  0  0  1  0  0  0  0  0  0
  162.2210  205.7530  148.2550 C   0  0  0  0  0  2  0  0  0  0  0  0
  163.6400  205.4330  146.3670 O   0  0  0  0  0  1  0  0  0  0  0  0
  161.9810  203.7660  146.8050 C   0  0  0  0  0  2  0  0  0  0  0  0
  161.7060  203.2040  148.1980 C   0  0  0  0  0  2  0  0  0  0  0  0
  161.1510  200.2510  149.4870 C   0  0  0  0  0  2  0  0  0  0  0  0
  161.4860  199.9800  148.0270 C   0  0  0  0  0  2  0  0  0  0  0  0
  160.8520  201.0910  147.2090 C   0  0  0  0  0  2  0  0  0  0  0  0
  160.5370  202.2130  148.1810 C   0  0  1  0  0  3  0  0  0  0  0  0
  160.6780  202.3610  150.7340 C   0  0  0  0  0  1  0  0  0  0  0  0
  158.8450  201.1280  149.6410 C   0  0  0  0  0  1  0  0  0  0  0  0
  160.3100  201.5130  149.5240 C   0  0  0  0  0  0  0  0  0  0  0  0
  160.1370  207.0690  156.1360 O   0  0  0  0  0  1  0  0  0  0  0  0
  160.8600  206.9970  154.9520 C   0  0  0  0  0  0  0  0  0  0  0  0
  161.3060  205.8880  154.5580 O   0  0  0  0  0  0  0  0  0  0  0  0
  161.4820  210.8510  155.4070 C   0  0  0  0  0  0  0  0  0  0  0  0
  161.0610  211.3680  156.5170 N   0  0  0  0  0  2  0  0  0  0  0  0
  162.8850  210.7890  155.1360 N   0  0  0  0  0  2  0  0  0  0  0  0
  163.8960  211.1180  156.1300 C   0  0  0  0  0  2  0  0  0  0  0  0
  165.1910  211.5040  155.4380 C   0  0  0  0  0  2  0  0  0  0  0  0
  165.9760  212.4490  156.2880 C   0  0  0  0  0  0  0  0  0  0  0  0
  165.4190  213.0240  157.2610 O   0  0  0  0  0  0  0  0  0  0  0  0
  167.3570  212.6840  156.0290 N   0  0  0  0  0  2  0  0  0  0  0  0
  167.9800  212.1040  154.9770 O   0  0  0  0  0  1  0  0  0  0  0  0
  1  7  1  0  0  0  0
  1 30  1  1  0  0  0
  2  9  1  0  0  0  0
  3  1  1  0  0  0  0
  4  7  1  0  0  0  0
  4 32  1  1  0  0  0
  5 11  1  0  0  0  0
  5  2  2  0  0  0  0
  6  8  1  0  0  0  0
  8  4  1  0  0  0  0
  9  3  2  0  0  0  0
 10  6  1  0  0  0  0
 10  3  1  0  0  0  0
 11 10  2  0  0  0  0
 12 16  1  0  0  0  0
 13 15  1  0  0  0  0
 13 14  1  0  0  0  0
 14 19  1  6  0  0  0
 14 20  1  0  0  0  0
 14 18  1  0  0  0  0
 15 12  1  0  0  0  0
 16 17  1  6  0  0  0
 16  5  1  0  0  0  0
 18 16  1  0  0  0  0
 20 21  1  0  0  0  0
 22 28  1  0  0  0  0
 23 22  1  0  0  0  0
 24 23  1  0  0  0  0
 24 25  1  0  0  0  0
 25 21  1  1  0  0  0
 25 28  1  0  0  0  0
 28 27  1  0  0  0  0
 28 26  1  0  0  0  0
 30 29  1  0  0  0  0
 31 30  2  0  0  0  0
 32 33  2  0  0  0  0
 34 32  1  0  0  0  0
 34 35  1  0  0  0  0
 36 35  1  0  0  0  0
 36 37  1  0  0  0  0
 37 38  2  0  0  0  0
 39 37  1  0  0  0  0
 40 39  1  0  0  0  0
M  END
>  <MODEL>
8

>  <REMARK>
 VINA RESULT:      -4.6      3.727     10.253
  Name = 
  9 active torsions:
  status: ('A' for Active; 'I' for Inactive)
    1  A    between atoms: C_2  and  C_13
    2  A    between atoms: C_2  and  C_39
    3  A    between atoms: CA_3  and  C_16
    4  A    between atoms: C_6  and  C_17
    5  A    between atoms: C_14  and  C_39
    6  A    between atoms: C_17  and  C_20
    7  A    between atoms: C_19  and  C_27
    8  A    between atoms: C_20  and  N_37
    9  A    between atoms: C_21  and  C_28
                            x       y       z     vdW  Elec       q    Type
                         _______ _______ _______ _____ _____    ______ ____

>  <TORSDO>
F 9

$$$$
=
 OpenBabel11072415143D

 40 43  0  0  1  0  0  0  0  0999 V2000
  160.8530  209.7800  153.0990 C   0  0  1  0  0  3  0  0  0  0  0  0
  161.8500  209.2210  149.4490 C   0  0  0  0  0  3  0  0  0  0  0  0
  161.1160  209.1220  151.7650 C   0  0  0  0  0  0  0  0  0  0  0  0
  161.5010  208.1770  154.7900 C   0  0  2  0  0  3  0  0  0  0  0  0
  161.7000  207.8300  149.3190 C   0  0  0  0  0  0  0  0  0  0  0  0
  160.5220  206.8930  152.8030 C   0  0  0  0  0  2  0  0  0  0  0  0
  161.8810  209.4010  154.0690 N   0  0  0  0  0  2  0  0  0  0  0  0
  161.5730  206.9150  153.9120 C   0  0  0  0  0  2  0  0  0  0  0  0
  161.5750  209.8570  150.6600 C   0  0  0  0  0  3  0  0  0  0  0  0
  160.9590  207.7290  151.6430 C   0  0  0  0  0  0  0  0  0  0  0  0
  161.2360  207.0980  150.4270 C   0  0  0  0  0  3  0  0  0  0  0  0
  160.7910  207.5440  147.0050 C   0  0  0  0  0  2  0  0  0  0  0  0
  161.2990  205.4410  145.7560 C   0  0  0  0  0  2  0  0  0  0  0  0
  162.0730  204.8000  146.9200 C   0  0  2  0  0  0  0  0  0  0  0  0
  160.1900  206.3580  146.2480 C   0  0  0  0  0  2  0  0  0  0  0  0
  161.9330  207.1660  147.9740 C   0  0  1  0  0  0  0  0  0  0  0  0
  163.2360  207.6510  147.3420 C   0  0  0  0  0  1  0  0  0  0  0  0
  162.0200  205.6460  148.2040 C   0  0  0  0  0  2  0  0  0  0  0  0
  163.4080  204.6490  146.5420 O   0  0  0  0  0  1  0  0  0  0  0  0
  161.4750  203.4310  147.2520 C   0  0  0  0  0  2  0  0  0  0  0  0
  161.8600  202.9140  148.6360 C   0  0  0  0  0  2  0  0  0  0  0  0
  161.2770  201.7070  151.6180 C   0  0  0  0  0  2  0  0  0  0  0  0
  160.6460  200.7040  150.6630 C   0  0  0  0  0  2  0  0  0  0  0  0
  160.0250  201.4970  149.5280 C   0  0  0  0  0  2  0  0  0  0  0  0
  160.6510  202.8780  149.5760 C   0  0  1  0  0  3  0  0  0  0  0  0
  162.2250  203.9900  151.2650 C   0  0  0  0  0  1  0  0  0  0  0  0
  159.8300  203.7040  151.7710 C   0  0  0  0  0  1  0  0  0  0  0  0
  161.0160  203.0890  151.0490 C   0  0  0  0  0  0  0  0  0  0  0  0
  160.4050  211.9020  151.8400 O   0  0  0  0  0  0  0  0  0  0  0  0
  160.7180  211.2690  153.0370 C   0  0  0  0  0  0  0  0  0  0  0  0
  160.8660  211.9510  154.0850 O   0  0  0  0  0  1  0  0  0  0  0  0
  160.2270  208.3180  155.5860 C   0  0  0  0  0  0  0  0  0  0  0  0
  159.5130  207.2670  155.8370 N   0  0  0  0  0  2  0  0  0  0  0  0
  159.6940  209.6210  155.8410 N   0  0  0  0  0  2  0  0  0  0  0  0
  158.4390  209.8350  156.5460 C   0  0  0  0  0  2  0  0  0  0  0  0
  158.0110  211.2850  156.4040 C   0  0  0  0  0  2  0  0  0  0  0  0
  156.8660  211.4020  155.4510 C   0  0  0  0  0  0  0  0  0  0  0  0
  155.9220  210.5700  155.5040 O   0  0  0  0  0  0  0  0  0  0  0  0
  156.8150  212.4640  154.5030 N   0  0  0  0  0  2  0  0  0  0  0  0
  157.8250  213.3600  154.4010 O   0  0  0  0  0  1  0  0  0  0  0  0
  1 30  1  6  0  0  0
  1  7  1  0  0  0  0
  2  9  1  0  0  0  0
  3  1  1  0  0  0  0
  4 32  1  6  0  0  0
  5  2  2  0  0  0  0
  5 11  1  0  0  0  0
  6  8  1  0  0  0  0
  7  4  1  0  0  0  0
  8  4  1  0  0  0  0
  9  3  2  0  0  0  0
 10  3  1  0  0  0  0
 10  6  1  0  0  0  0
 11 10  2  0  0  0  0
 12 16  1  0  0  0  0
 13 15  1  0  0  0  0
 13 14  1  0  0  0  0
 14 19  1  6  0  0  0
 14 20  1  0  0  0  0
 14 18  1  0  0  0  0
 15 12  1  0  0  0  0
 16 17  1  6  0  0  0
 16 18  1  0  0  0  0
 16  5  1  0  0  0  0
 20 21  1  0  0  0  0
 23 22  1  0  0  0  0
 24 25  1  0  0  0  0
 24 23  1  0  0  0  0
 25 21  1  6  0  0  0
 25 28  1  0  0  0  0
 28 26  1  0  0  0  0
 28 22  1  0  0  0  0
 28 27  1  0  0  0  0
 29 30  2  0  0  0  0
 30 31  1  0  0  0  0
 32 33  2  0  0  0  0
 32 34  1  0  0  0  0
 34 35  1  0  0  0  0
 36 35  1  0  0  0  0
 37 38  2  0  0  0  0
 37 36  1  0  0  0  0
 39 37  1  0  0  0  0
 40 39  1  0  0  0  0
M  END
>  <MODEL>
9

>  <REMARK>
 VINA RESULT:      -3.9      3.320      9.896
  Name = 
  9 active torsions:
  status: ('A' for Active; 'I' for Inactive)
    1  A    between atoms: C_2  and  C_13
    2  A    between atoms: C_2  and  C_39
    3  A    between atoms: CA_3  and  C_16
    4  A    between atoms: C_6  and  C_17
    5  A    between atoms: C_14  and  C_39
    6  A    between atoms: C_17  and  C_20
    7  A    between atoms: C_19  and  C_27
    8  A    between atoms: C_20  and  N_37
    9  A    between atoms: C_21  and  C_28
                            x       y       z     vdW  Elec       q    Type
                         _______ _______ _______ _____ _____    ______ ____

>  <TORSDO>
F 9

$$$$
