=
 OpenBabel11072415233D

 25 27  0  0  1  0  0  0  0  0999 V2000
  159.7610  211.0230  156.6320 C   0  0  0  0  0  0  0  0  0  0  0  0
  158.7520  209.4110  155.1950 O   0  0  0  0  0  1  0  0  0  0  0  0
  162.2430  211.6030  156.6620 C   0  0  0  0  0  2  0  0  0  0  0  0
  158.6430  211.1400  157.2020 O   0  0  0  0  0  0  0  0  0  0  0  0
  159.8510  210.2720  155.3100 C   0  0  2  0  0  0  0  0  0  0  0  0
  162.7900  210.1680  156.5990 C   0  0  0  0  0  2  0  0  0  0  0  0
  160.9070  211.6340  157.2430 N   0  0  0  0  0  2  0  0  0  0  0  0
  161.1710  209.4620  155.1950 C   0  0  1  0  0  3  0  0  0  0  0  0
  161.7790  209.2030  156.4330 O   0  0  0  0  0  0  0  0  0  0  0  0
  161.4590  207.0750  152.0850 C   0  0  0  0  0  0  0  0  0  0  0  0
  161.0630  205.8970  152.5490 C   0  0  0  0  0  0  0  0  0  0  0  0
  162.1940  210.6340  152.3590 C   0  0  0  0  0  1  0  0  0  0  0  0
  162.1680  208.6330  150.7560 N   0  0  0  0  0  0  0  0  0  0  0  0
  160.7070  207.0460  154.8260 C   0  0  0  0  0  0  0  0  0  0  0  0
  161.9490  209.1990  152.0540 C   0  0  0  0  0  0  0  0  0  0  0  0
  160.6430  205.7650  153.9970 C   0  0  0  0  0  2  0  0  0  0  0  0
  161.1210  208.2320  154.3170 C   0  0  0  0  0  0  0  0  0  0  0  0
  161.5120  208.2570  152.8900 C   0  0  0  0  0  0  0  0  0  0  0  0
  160.2740  206.9290  156.2510 C   0  0  0  0  0  1  0  0  0  0  0  0
  161.0320  204.7860  151.7160 O   0  0  0  0  0  1  0  0  0  0  0  0
  161.8840  207.3920  150.7700 N   0  0  0  0  0  0  0  0  0  0  0  0
  159.8280  211.2680  154.1440 C   0  0  0  0  0  2  0  0  0  0  0  0
  158.4780  211.3530  153.4410 C   0  0  0  0  0  2  0  0  0  0  0  0
  156.4360  212.1340  154.5960 C   0  0  0  0  0  1  0  0  0  0  0  0
  157.7150  212.5730  153.9170 C   0  0  0  0  0  2  0  0  0  0  0  0
  1  4  2  0  0  0  0
  1  7  1  0  0  0  0
  3  7  1  0  0  0  0
  5  2  1  6  0  0  0
  5  1  1  0  0  0  0
  6  3  1  0  0  0  0
  8 17  1  1  0  0  0
  8  5  1  0  0  0  0
  8  9  1  0  0  0  0
  9  6  1  0  0  0  0
 10 11  2  0  0  0  0
 10 18  1  0  0  0  0
 11 16  1  0  0  0  0
 13 21  2  0  0  0  0
 13 15  1  0  0  0  0
 14 19  1  0  0  0  0
 15 12  1  0  0  0  0
 15 18  2  0  0  0  0
 16 14  1  0  0  0  0
 17 14  2  0  0  0  0
 18 17  1  0  0  0  0
 20 11  1  0  0  0  0
 21 10  1  0  0  0  0
 22  5  1  0  0  0  0
 23 25  1  0  0  0  0
 23 22  1  0  0  0  0
 25 24  1  0  0  0  0
M  END
>  <MODEL>
1

>  <REMARK>
 VINA RESULT:      -4.7      0.000      0.000
  Name = 
  4 active torsions:
  status: ('A' for Active; 'I' for Inactive)
    1  A    between atoms: C_10  and  C_17
    2  A    between atoms: C_10  and  C_18
    3  A    between atoms: C_12  and  C_17
    4  A    between atoms: C_14  and  C_23
                            x       y       z     vdW  Elec       q    Type
                         _______ _______ _______ _____ _____    ______ ____

>  <TORSDO>
F 4

$$$$
=
 OpenBabel11072415233D

 25 27  0  0  1  0  0  0  0  0999 V2000
  158.3220  213.1760  156.2490 C   0  0  0  0  0  0  0  0  0  0  0  0
  160.4020  212.8560  155.1300 O   0  0  0  0  0  1  0  0  0  0  0  0
  156.4860  211.4200  156.4490 C   0  0  0  0  0  2  0  0  0  0  0  0
  158.6500  214.3830  156.4050 O   0  0  0  0  0  0  0  0  0  0  0  0
  159.3680  212.1720  155.7820 C   0  0  2  0  0  0  0  0  0  0  0  0
  156.5170  210.9240  154.9950 C   0  0  0  0  0  2  0  0  0  0  0  0
  156.9740  212.7900  156.5510 N   0  0  0  0  0  2  0  0  0  0  0  0
  158.7600  211.1050  154.8320 C   0  0  1  0  0  3  0  0  0  0  0  0
  157.5530  211.5050  154.2390 O   0  0  0  0  0  0  0  0  0  0  0  0
  161.2160  208.5980  153.0610 C   0  0  0  0  0  0  0  0  0  0  0  0
  161.5510  209.2190  151.9380 C   0  0  0  0  0  0  0  0  0  0  0  0
  159.4760  208.2850  156.2480 C   0  0  0  0  0  1  0  0  0  0  0  0
  161.0920  207.1150  154.6370 N   0  0  0  0  0  0  0  0  0  0  0  0
  160.0320  211.1560  152.6950 C   0  0  0  0  0  0  0  0  0  0  0  0
  160.2640  208.2320  154.9870 C   0  0  0  0  0  0  0  0  0  0  0  0
  160.9760  210.5870  151.6390 C   0  0  0  0  0  3  0  0  0  0  0  0
  159.7100  210.4890  153.8300 C   0  0  0  0  0  0  0  0  0  0  0  0
  160.3240  209.1570  154.0300 C   0  0  1  0  0  3  0  0  0  0  0  0
  159.4760  212.5140  152.4180 C   0  0  0  0  0  1  0  0  0  0  0  0
  162.4240  208.6230  151.0370 O   0  0  0  0  0  1  0  0  0  0  0  0
  161.6500  207.3250  153.5120 N   0  0  0  0  0  0  0  0  0  0  0  0
  159.9490  211.4260  156.9900 C   0  0  0  0  0  2  0  0  0  0  0  0
  161.4130  211.7500  157.2610 C   0  0  0  0  0  2  0  0  0  0  0  0
  163.0980  210.7200  155.7720 C   0  0  0  0  0  1  0  0  0  0  0  0
  162.2740  210.5240  157.0260 C   0  0  0  0  0  2  0  0  0  0  0  0
  1  4  2  0  0  0  0
  1  7  1  0  0  0  0
  3  7  1  0  0  0  0
  5  2  1  6  0  0  0
  5  1  1  0  0  0  0
  5 22  1  0  0  0  0
  6  3  1  0  0  0  0
  8 17  1  6  0  0  0
  8  5  1  0  0  0  0
  9  8  1  0  0  0  0
  9  6  1  0  0  0  0
 10 21  2  0  0  0  0
 11 10  1  0  0  0  0
 13 15  2  0  0  0  0
 14 17  2  0  0  0  0
 15 12  1  0  0  0  0
 16 11  2  0  0  0  0
 16 14  1  0  0  0  0
 17 18  1  0  0  0  0
 18 10  1  1  0  0  0
 18 15  1  0  0  0  0
 19 14  1  0  0  0  0
 20 11  1  0  0  0  0
 21 13  1  0  0  0  0
 22 23  1  0  0  0  0
 24 25  1  0  0  0  0
 25 23  1  0  0  0  0
M  END
>  <MODEL>
2

>  <REMARK>
 VINA RESULT:      -4.3      2.244      4.414
  Name = 
  4 active torsions:
  status: ('A' for Active; 'I' for Inactive)
    1  A    between atoms: C_10  and  C_17
    2  A    between atoms: C_10  and  C_18
    3  A    between atoms: C_12  and  C_17
    4  A    between atoms: C_14  and  C_23
                            x       y       z     vdW  Elec       q    Type
                         _______ _______ _______ _____ _____    ______ ____

>  <TORSDO>
F 4

$$$$
=
 OpenBabel11072415233D

 25 27  0  0  1  0  0  0  0  0999 V2000
  157.8380  213.2210  156.3140 C   0  0  0  0  0  0  0  0  0  0  0  0
  159.9500  213.1280  155.2130 O   0  0  0  0  0  1  0  0  0  0  0  0
  156.1870  211.2860  156.4720 C   0  0  0  0  0  2  0  0  0  0  0  0
  158.0400  214.4530  156.4870 O   0  0  0  0  0  0  0  0  0  0  0  0
  158.9850  212.3350  155.8460 C   0  0  2  0  0  0  0  0  0  0  0  0
  156.2820  210.8150  155.0120 C   0  0  0  0  0  2  0  0  0  0  0  0
  156.5330  212.6970  156.5950 N   0  0  0  0  0  2  0  0  0  0  0  0
  158.4960  211.2240  154.8760 C   0  0  1  0  0  3  0  0  0  0  0  0
  157.2610  211.5080  154.2750 O   0  0  0  0  0  0  0  0  0  0  0  0
  160.8080  210.9550  151.7090 C   0  0  0  0  0  0  0  0  0  0  0  0
  161.4740  209.8220  151.8940 C   0  0  0  0  0  0  0  0  0  0  0  0
  158.3940  213.5310  152.6110 C   0  0  0  0  0  1  0  0  0  0  0  0
  160.0950  212.8050  150.8350 N   0  0  0  0  0  0  0  0  0  0  0  0
  160.1710  209.5560  154.1000 C   0  0  0  0  0  0  0  0  0  0  0  0
  159.4130  212.5880  152.0770 C   0  0  0  0  0  0  0  0  0  0  0  0
  161.2150  208.9970  153.1370 C   0  0  0  0  0  2  0  0  0  0  0  0
  159.5130  210.7200  153.8770 C   0  0  0  0  0  0  0  0  0  0  0  0
  159.8380  211.4540  152.6330 C   0  0  0  0  0  0  0  0  0  0  0  0
  159.8950  208.7380  155.3180 C   0  0  0  0  0  1  0  0  0  0  0  0
  162.4040  209.3900  150.9570 O   0  0  0  0  0  1  0  0  0  0  0  0
  160.9120  211.8530  150.6160 N   0  0  0  0  0  0  0  0  0  0  0  0
  159.6260  211.6350  157.0500 C   0  0  0  0  0  2  0  0  0  0  0  0
  161.1100  211.9410  157.2140 C   0  0  0  0  0  2  0  0  0  0  0  0
  163.0220  210.7170  156.2330 C   0  0  0  0  0  1  0  0  0  0  0  0
  161.9090  210.6530  157.2560 C   0  0  0  0  0  2  0  0  0  0  0  0
  1  4  2  0  0  0  0
  1  7  1  0  0  0  0
  3  7  1  0  0  0  0
  5  2  1  6  0  0  0
  5  1  1  0  0  0  0
  5 22  1  0  0  0  0
  6  3  1  0  0  0  0
  8 17  1  6  0  0  0
  8  5  1  0  0  0  0
  9  8  1  0  0  0  0
  9  6  1  0  0  0  0
 10 11  2  0  0  0  0
 10 18  1  0  0  0  0
 11 16  1  0  0  0  0
 13 15  1  0  0  0  0
 14 19  1  0  0  0  0
 15 12  1  0  0  0  0
 15 18  2  0  0  0  0
 16 14  1  0  0  0  0
 17 14  2  0  0  0  0
 18 17  1  0  0  0  0
 20 11  1  0  0  0  0
 21 13  2  0  0  0  0
 21 10  1  0  0  0  0
 22 23  1  0  0  0  0
 23 25  1  0  0  0  0
 24 25  1  0  0  0  0
M  END
>  <MODEL>
3

>  <REMARK>
 VINA RESULT:      -4.1      2.585      4.376
  Name = 
  4 active torsions:
  status: ('A' for Active; 'I' for Inactive)
    1  A    between atoms: C_10  and  C_17
    2  A    between atoms: C_10  and  C_18
    3  A    between atoms: C_12  and  C_17
    4  A    between atoms: C_14  and  C_23
                            x       y       z     vdW  Elec       q    Type
                         _______ _______ _______ _____ _____    ______ ____

>  <TORSDO>
F 4

$$$$
=
 OpenBabel11072415233D

 25 27  0  0  1  0  0  0  0  0999 V2000
  159.4730  210.9020  155.5280 C   0  0  0  0  0  0  0  0  0  0  0  0
  158.8430  209.7480  153.5400 O   0  0  0  0  0  1  0  0  0  0  0  0
  161.8530  211.5970  156.1210 C   0  0  0  0  0  2  0  0  0  0  0  0
  158.2830  210.7690  155.9210 O   0  0  0  0  0  0  0  0  0  0  0  0
  159.8180  210.5980  154.0760 C   0  0  2  0  0  0  0  0  0  0  0  0
  162.5530  210.2870  155.7290 C   0  0  0  0  0  2  0  0  0  0  0  0
  160.4550  211.3660  156.4660 N   0  0  0  0  0  2  0  0  0  0  0  0
  161.2200  209.9450  153.9410 C   0  0  1  0  0  3  0  0  0  0  0  0
  161.6820  209.3580  155.1280 O   0  0  0  0  0  0  0  0  0  0  0  0
  161.4260  206.7470  151.6640 C   0  0  0  0  0  0  0  0  0  0  0  0
  161.7760  207.2230  150.4760 C   0  0  0  0  0  0  0  0  0  0  0  0
  160.5860  207.0330  155.1990 C   0  0  0  0  0  1  0  0  0  0  0  0
  160.8810  205.3830  153.2580 N   0  0  0  0  0  0  0  0  0  0  0  0
  161.7820  209.5650  151.5470 C   0  0  0  0  0  0  0  0  0  0  0  0
  160.9020  206.7180  153.7800 C   0  0  0  0  0  0  0  0  0  0  0  0
  161.9900  208.7110  150.2990 C   0  0  0  0  0  3  0  0  0  0  0  0
  161.4200  209.0420  152.7440 C   0  0  0  0  0  0  0  0  0  0  0  0
  161.2350  207.5750  152.8150 C   0  0  1  0  0  3  0  0  0  0  0  0
  162.0100  211.0310  151.3860 C   0  0  0  0  0  1  0  0  0  0  0  0
  161.9480  206.3650  149.3970 O   0  0  0  0  0  1  0  0  0  0  0  0
  161.1860  205.3960  152.0220 N   0  0  0  0  0  0  0  0  0  0  0  0
  159.8440  211.8990  153.2650 C   0  0  0  0  0  2  0  0  0  0  0  0
  158.6410  212.0690  152.3440 C   0  0  0  0  0  2  0  0  0  0  0  0
  157.1010  213.3470  153.7960 C   0  0  0  0  0  1  0  0  0  0  0  0
  157.9910  213.4190  152.5750 C   0  0  0  0  0  2  0  0  0  0  0  0
  1  4  2  0  0  0  0
  1  7  1  0  0  0  0
  3  7  1  0  0  0  0
  5  2  1  6  0  0  0
  5  1  1  0  0  0  0
  6  3  1  0  0  0  0
  8 17  1  6  0  0  0
  8  5  1  0  0  0  0
  8  9  1  0  0  0  0
  9  6  1  0  0  0  0
 10 21  2  0  0  0  0
 11 10  1  0  0  0  0
 13 15  2  0  0  0  0
 14 17  2  0  0  0  0
 15 12  1  0  0  0  0
 16 11  2  0  0  0  0
 16 14  1  0  0  0  0
 17 18  1  0  0  0  0
 18 10  1  1  0  0  0
 18 15  1  0  0  0  0
 19 14  1  0  0  0  0
 20 11  1  0  0  0  0
 21 13  1  0  0  0  0
 22  5  1  0  0  0  0
 23 25  1  0  0  0  0
 23 22  1  0  0  0  0
 25 24  1  0  0  0  0
M  END
>  <MODEL>
4

>  <REMARK>
 VINA RESULT:      -4.1      1.477      2.721
  Name = 
  4 active torsions:
  status: ('A' for Active; 'I' for Inactive)
    1  A    between atoms: C_10  and  C_17
    2  A    between atoms: C_10  and  C_18
    3  A    between atoms: C_12  and  C_17
    4  A    between atoms: C_14  and  C_23
                            x       y       z     vdW  Elec       q    Type
                         _______ _______ _______ _____ _____    ______ ____

>  <TORSDO>
F 4

$$$$
=
 OpenBabel11072415233D

 25 27  0  0  1  0  0  0  0  0999 V2000
  159.0460  212.9400  155.5870 C   0  0  0  0  0  0  0  0  0  0  0  0
  161.0980  212.0500  154.7630 O   0  0  0  0  0  1  0  0  0  0  0  0
  156.9200  211.5880  155.9760 C   0  0  0  0  0  2  0  0  0  0  0  0
  159.5720  214.0830  155.5160 O   0  0  0  0  0  0  0  0  0  0  0  0
  159.9240  211.7030  155.4430 C   0  0  2  0  0  0  0  0  0  0  0  0
  156.9480  210.7820  154.6670 C   0  0  0  0  0  2  0  0  0  0  0  0
  157.6350  212.8500  155.8330 N   0  0  0  0  0  2  0  0  0  0  0  0
  159.1930  210.5620  154.6850 C   0  0  1  0  0  3  0  0  0  0  0  0
  158.1120  211.0070  153.9090 O   0  0  0  0  0  0  0  0  0  0  0  0
  161.5230  208.9930  151.9350 C   0  0  0  0  0  0  0  0  0  0  0  0
  161.8030  207.7850  152.4060 C   0  0  0  0  0  0  0  0  0  0  0  0
  159.9420  212.2750  152.0450 C   0  0  0  0  0  1  0  0  0  0  0  0
  161.4600  210.7430  150.6580 N   0  0  0  0  0  0  0  0  0  0  0  0
  160.3360  208.3650  154.4400 C   0  0  0  0  0  0  0  0  0  0  0  0
  160.6630  210.9930  151.8230 C   0  0  0  0  0  0  0  0  0  0  0  0
  161.2260  207.3460  153.7340 C   0  0  0  0  0  2  0  0  0  0  0  0
  160.0750  209.5940  153.9300 C   0  0  0  0  0  0  0  0  0  0  0  0
  160.6880  209.9280  152.6240 C   0  0  0  0  0  0  0  0  0  0  0  0
  159.7450  207.9330  155.7420 C   0  0  0  0  0  1  0  0  0  0  0  0
  162.6210  206.9210  151.6870 O   0  0  0  0  0  1  0  0  0  0  0  0
  161.9650  209.5760  150.7200 N   0  0  0  0  0  0  0  0  0  0  0  0
  160.2920  211.1620  156.8300 C   0  0  0  0  0  2  0  0  0  0  0  0
  161.7140  211.5060  157.2610 C   0  0  0  0  0  2  0  0  0  0  0  0
  164.0860  210.8160  157.1610 C   0  0  0  0  0  1  0  0  0  0  0  0
  162.6630  210.3890  156.8760 C   0  0  0  0  0  2  0  0  0  0  0  0
  1  7  1  0  0  0  0
  4  1  2  0  0  0  0
  5  2  1  6  0  0  0
  5  1  1  0  0  0  0
  5 22  1  0  0  0  0
  6  3  1  0  0  0  0
  7  3  1  0  0  0  0
  8 17  1  6  0  0  0
  8  5  1  0  0  0  0
  9  6  1  0  0  0  0
  9  8  1  0  0  0  0
 10 11  2  0  0  0  0
 10 18  1  0  0  0  0
 11 16  1  0  0  0  0
 13 21  2  0  0  0  0
 13 15  1  0  0  0  0
 14 19  1  0  0  0  0
 15 12  1  0  0  0  0
 15 18  2  0  0  0  0
 16 14  1  0  0  0  0
 17 14  2  0  0  0  0
 18 17  1  0  0  0  0
 20 11  1  0  0  0  0
 21 10  1  0  0  0  0
 22 23  1  0  0  0  0
 25 24  1  0  0  0  0
 25 23  1  0  0  0  0
M  END
>  <MODEL>
5

>  <REMARK>
 VINA RESULT:      -3.8      1.873      3.633
  Name = 
  4 active torsions:
  status: ('A' for Active; 'I' for Inactive)
    1  A    between atoms: C_10  and  C_17
    2  A    between atoms: C_10  and  C_18
    3  A    between atoms: C_12  and  C_17
    4  A    between atoms: C_14  and  C_23
                            x       y       z     vdW  Elec       q    Type
                         _______ _______ _______ _____ _____    ______ ____

>  <TORSDO>
F 4

$$$$
=
 OpenBabel11072415233D

 25 27  0  0  1  0  0  0  0  0999 V2000
  160.9700  205.8030  146.7660 C   0  0  0  0  0  0  0  0  0  0  0  0
  159.6820  206.3930  148.6830 O   0  0  0  0  0  1  0  0  0  0  0  0
  163.3920  205.0080  146.8220 C   0  0  0  0  0  2  0  0  0  0  0  0
  160.0060  206.2000  146.0590 O   0  0  0  0  0  0  0  0  0  0  0  0
  160.7710  205.6180  148.2650 C   0  0  2  0  0  0  0  0  0  0  0  0
  163.9230  206.0410  147.8270 C   0  0  0  0  0  2  0  0  0  0  0  0
  162.2170  205.5110  146.1190 N   0  0  0  0  0  2  0  0  0  0  0  0
  162.0400  206.0120  149.0690 C   0  0  1  0  0  3  0  0  0  0  0  0
  162.9100  206.8580  148.3630 O   0  0  0  0  0  0  0  0  0  0  0  0
  161.4950  208.3440  152.1860 C   0  0  0  0  0  0  0  0  0  0  0  0
  161.3510  207.4970  153.1970 C   0  0  0  0  0  0  0  0  0  0  0  0
  162.0420  209.2260  148.6930 C   0  0  0  0  0  1  0  0  0  0  0  0
  161.6460  210.1780  151.0410 N   0  0  0  0  0  0  0  0  0  0  0  0
  161.6700  205.5930  151.4930 C   0  0  0  0  0  0  0  0  0  0  0  0
  161.8110  209.0640  150.1530 C   0  0  0  0  0  0  0  0  0  0  0  0
  161.4230  206.0070  152.9410 C   0  0  0  0  0  2  0  0  0  0  0  0
  161.8080  206.4890  150.4850 C   0  0  0  0  0  0  0  0  0  0  0  0
  161.7200  207.9240  150.8370 C   0  0  0  0  0  0  0  0  0  0  0  0
  161.7630  204.1250  151.2350 C   0  0  0  0  0  1  0  0  0  0  0  0
  161.1360  207.9690  154.4860 O   0  0  0  0  0  1  0  0  0  0  0  0
  161.4600  209.7610  152.2300 N   0  0  0  0  0  0  0  0  0  0  0  0
  160.4810  204.1440  148.5730 C   0  0  0  0  0  2  0  0  0  0  0  0
  161.2530  203.1720  147.6870 C   0  0  0  0  0  2  0  0  0  0  0  0
  159.9770  201.6660  149.1750 C   0  0  0  0  0  1  0  0  0  0  0  0
  161.1720  201.7690  148.2540 C   0  0  0  0  0  2  0  0  0  0  0  0
  1  5  1  0  0  0  0
  3  6  1  0  0  0  0
  4  1  2  0  0  0  0
  5 22  1  0  0  0  0
  5  2  1  1  0  0  0
  5  8  1  0  0  0  0
  6  9  1  0  0  0  0
  7  1  1  0  0  0  0
  7  3  1  0  0  0  0
  8 17  1  1  0  0  0
  9  8  1  0  0  0  0
 10 21  1  0  0  0  0
 10 11  2  0  0  0  0
 11 20  1  0  0  0  0
 12 15  1  0  0  0  0
 13 21  2  0  0  0  0
 14 16  1  0  0  0  0
 15 18  2  0  0  0  0
 15 13  1  0  0  0  0
 16 11  1  0  0  0  0
 17 18  1  0  0  0  0
 17 14  2  0  0  0  0
 18 10  1  0  0  0  0
 19 14  1  0  0  0  0
 23 25  1  0  0  0  0
 23 22  1  0  0  0  0
 25 24  1  0  0  0  0
M  END
>  <MODEL>
6

>  <REMARK>
 VINA RESULT:      -3.7      3.844      7.877
  Name = 
  4 active torsions:
  status: ('A' for Active; 'I' for Inactive)
    1  A    between atoms: C_10  and  C_17
    2  A    between atoms: C_10  and  C_18
    3  A    between atoms: C_12  and  C_17
    4  A    between atoms: C_14  and  C_23
                            x       y       z     vdW  Elec       q    Type
                         _______ _______ _______ _____ _____    ______ ____

>  <TORSDO>
F 4

$$$$
=
 OpenBabel11072415233D

 25 27  0  0  1  0  0  0  0  0999 V2000
  161.1730  205.7040  145.2710 C   0  0  0  0  0  0  0  0  0  0  0  0
  159.8070  205.9620  147.2080 O   0  0  0  0  0  1  0  0  0  0  0  0
  163.2760  204.2700  145.1470 C   0  0  0  0  0  2  0  0  0  0  0  0
  160.4560  206.5780  144.7120 O   0  0  0  0  0  0  0  0  0  0  0  0
  160.7130  205.0930  146.5880 C   0  0  2  0  0  0  0  0  0  0  0  0
  163.8980  204.7030  146.4840 C   0  0  0  0  0  2  0  0  0  0  0  0
  162.3860  205.2980  144.6220 N   0  0  0  0  0  2  0  0  0  0  0  0
  161.9070  204.8070  147.5390 C   0  0  1  0  0  3  0  0  0  0  0  0
  163.0580  205.5490  147.2320 O   0  0  0  0  0  0  0  0  0  0  0  0
  161.3390  206.0520  151.2240 C   0  0  0  0  0  0  0  0  0  0  0  0
  161.0020  204.9520  151.8850 C   0  0  0  0  0  0  0  0  0  0  0  0
  162.3180  207.9340  148.2610 C   0  0  0  0  0  1  0  0  0  0  0  0
  161.8110  208.1180  150.7680 N   0  0  0  0  0  0  0  0  0  0  0  0
  161.2590  203.6800  149.6600 C   0  0  0  0  0  0  0  0  0  0  0  0
  161.9300  207.3410  149.5690 C   0  0  0  0  0  0  0  0  0  0  0  0
  160.9250  203.6310  151.1490 C   0  0  0  0  0  3  0  0  0  0  0  0
  161.5970  204.8260  149.0190 C   0  0  0  0  0  0  0  0  0  0  0  0
  161.6430  206.0650  149.8270 C   0  0  0  0  0  0  0  0  0  0  0  0
  161.2060  202.3780  148.9310 C   0  0  0  0  0  1  0  0  0  0  0  0
  160.7200  205.0040  153.2440 O   0  0  0  0  0  1  0  0  0  0  0  0
  161.4650  207.3680  151.7380 N   0  0  0  0  0  2  0  0  0  0  0  0
  160.0150  203.7530  146.3240 C   0  0  0  0  0  2  0  0  0  0  0  0
  160.8120  202.8180  145.4200 C   0  0  0  0  0  2  0  0  0  0  0  0
  160.8310  200.4130  145.9910 C   0  0  0  0  0  1  0  0  0  0  0  0
  160.0810  201.5010  145.2540 C   0  0  0  0  0  2  0  0  0  0  0  0
  1  5  1  0  0  0  0
  3  6  1  0  0  0  0
  4  1  2  0  0  0  0
  5  2  1  1  0  0  0
  5  8  1  0  0  0  0
  6  9  1  0  0  0  0
  7  3  1  0  0  0  0
  7  1  1  0  0  0  0
  8 17  1  1  0  0  0
  9  8  1  0  0  0  0
 10 21  1  0  0  0  0
 10 11  1  0  0  0  0
 11 20  1  0  0  0  0
 12 15  1  0  0  0  0
 13 21  1  0  0  0  0
 14 16  1  0  0  0  0
 15 18  1  0  0  0  0
 15 13  2  0  0  0  0
 16 11  2  0  0  0  0
 17 14  2  0  0  0  0
 17 18  1  0  0  0  0
 18 10  2  0  0  0  0
 19 14  1  0  0  0  0
 22  5  1  0  0  0  0
 23 22  1  0  0  0  0
 25 23  1  0  0  0  0
 25 24  1  0  0  0  0
M  END
>  <MODEL>
7

>  <REMARK>
 VINA RESULT:      -3.7      5.312      9.248
  Name = 
  4 active torsions:
  status: ('A' for Active; 'I' for Inactive)
    1  A    between atoms: C_10  and  C_17
    2  A    between atoms: C_10  and  C_18
    3  A    between atoms: C_12  and  C_17
    4  A    between atoms: C_14  and  C_23
                            x       y       z     vdW  Elec       q    Type
                         _______ _______ _______ _____ _____    ______ ____

>  <TORSDO>
F 4

$$$$
=
 OpenBabel11072415233D

 25 27  0  0  1  0  0  0  0  0999 V2000
  158.8150  211.9080  138.0690 C   0  0  0  0  0  0  0  0  0  0  0  0
  158.8290  211.1750  140.3370 O   0  0  0  0  0  1  0  0  0  0  0  0
  160.5760  213.4180  137.0110 C   0  0  0  0  0  2  0  0  0  0  0  0
  157.6850  211.3620  137.9530 O   0  0  0  0  0  0  0  0  0  0  0  0
  159.6610  211.6180  139.3010 C   0  0  2  0  0  0  0  0  0  0  0  0
  160.6860  214.4370  138.1560 C   0  0  0  0  0  2  0  0  0  0  0  0
  159.2730  212.7630  137.0110 N   0  0  0  0  0  2  0  0  0  0  0  0
  160.4570  212.8700  139.7620 C   0  0  1  0  0  3  0  0  0  0  0  0
  159.9270  214.0780  139.2850 O   0  0  0  0  0  0  0  0  0  0  0  0
  160.1950  213.5210  143.6300 C   0  0  0  0  0  0  0  0  0  0  0  0
  161.3600  213.0980  144.1050 C   0  0  0  0  0  0  0  0  0  0  0  0
  157.7670  214.1800  140.9940 C   0  0  0  0  0  1  0  0  0  0  0  0
  158.1960  214.3500  143.5160 N   0  0  0  0  0  0  0  0  0  0  0  0
  161.9960  212.5010  141.6820 C   0  0  0  0  0  0  0  0  0  0  0  0
  158.6220  213.9870  142.1960 C   0  0  0  0  0  0  0  0  0  0  0  0
  162.3940  212.5320  143.1550 C   0  0  0  0  0  3  0  0  0  0  0  0
  160.7930  212.9380  141.2350 C   0  0  0  0  0  0  0  0  0  0  0  0
  159.8500  213.4730  142.2430 C   0  0  0  0  0  0  0  0  0  0  0  0
  163.0180  211.9630  140.7360 C   0  0  0  0  0  1  0  0  0  0  0  0
  161.6350  213.1730  145.4640 O   0  0  0  0  0  1  0  0  0  0  0  0
  159.1130  214.0780  144.3570 N   0  0  0  0  0  2  0  0  0  0  0  0
  160.6860  210.5230  138.9830 C   0  0  0  0  0  2  0  0  0  0  0  0
  160.0560  209.1700  138.6700 C   0  0  0  0  0  2  0  0  0  0  0  0
  161.9760  208.3010  139.9620 C   0  0  0  0  0  1  0  0  0  0  0  0
  161.1000  208.0740  138.7500 C   0  0  0  0  0  2  0  0  0  0  0  0
  1  5  1  0  0  0  0
  3  7  1  0  0  0  0
  3  6  1  0  0  0  0
  4  1  2  0  0  0  0
  5  8  1  0  0  0  0
  5  2  1  1  0  0  0
  6  9  1  0  0  0  0
  7  1  1  0  0  0  0
  8 17  1  1  0  0  0
  9  8  1  0  0  0  0
 10 11  1  0  0  0  0
 10 21  1  0  0  0  0
 11 20  1  0  0  0  0
 12 15  1  0  0  0  0
 13 21  1  0  0  0  0
 14 16  1  0  0  0  0
 15 18  1  0  0  0  0
 15 13  2  0  0  0  0
 16 11  2  0  0  0  0
 17 14  2  0  0  0  0
 17 18  1  0  0  0  0
 18 10  2  0  0  0  0
 19 14  1  0  0  0  0
 22  5  1  0  0  0  0
 23 25  1  0  0  0  0
 23 22  1  0  0  0  0
 25 24  1  0  0  0  0
M  END
>  <MODEL>
8

>  <REMARK>
 VINA RESULT:      -3.5     12.503     15.143
  Name = 
  4 active torsions:
  status: ('A' for Active; 'I' for Inactive)
    1  A    between atoms: C_10  and  C_17
    2  A    between atoms: C_10  and  C_18
    3  A    between atoms: C_12  and  C_17
    4  A    between atoms: C_14  and  C_23
                            x       y       z     vdW  Elec       q    Type
                         _______ _______ _______ _____ _____    ______ ____

>  <TORSDO>
F 4

$$$$
=
 OpenBabel11072415233D

 25 27  0  0  1  0  0  0  0  0999 V2000
  158.1470  210.9420  138.6050 C   0  0  0  0  0  0  0  0  0  0  0  0
  159.8550  210.6310  140.2390 O   0  0  0  0  0  1  0  0  0  0  0  0
  157.9920  212.9280  137.0150 C   0  0  0  0  0  2  0  0  0  0  0  0
  157.5770  209.9240  139.0820 O   0  0  0  0  0  0  0  0  0  0  0  0
  159.5790  211.2560  139.0170 C   0  0  2  0  0  0  0  0  0  0  0  0
  158.3000  214.0330  138.0370 C   0  0  0  0  0  2  0  0  0  0  0  0
  157.4270  211.7510  137.6640 N   0  0  0  0  0  2  0  0  0  0  0  0
  159.8210  212.7860  139.1400 C   0  0  1  0  0  3  0  0  0  0  0  0
  158.6420  213.5280  139.3050 O   0  0  0  0  0  0  0  0  0  0  0  0
  163.2620  213.9970  140.6050 C   0  0  0  0  0  0  0  0  0  0  0  0
  163.0490  214.0550  141.9130 C   0  0  0  0  0  0  0  0  0  0  0  0
  162.3040  213.3610  137.1470 C   0  0  0  0  0  1  0  0  0  0  0  0
  164.2280  214.1080  138.6680 N   0  0  0  0  0  0  0  0  0  0  0  0
  160.6480  213.2540  141.4390 C   0  0  0  0  0  0  0  0  0  0  0  0
  162.8760  213.6690  138.4850 C   0  0  0  0  0  0  0  0  0  0  0  0
  161.6910  213.6840  142.4680 C   0  0  0  0  0  2  0  0  0  0  0  0
  160.9020  213.2110  140.1080 C   0  0  0  0  0  0  0  0  0  0  0  0
  162.2610  213.5940  139.6650 C   0  0  0  0  0  0  0  0  0  0  0  0
  159.3120  212.8660  141.9800 C   0  0  0  0  0  1  0  0  0  0  0  0
  164.0640  214.4530  142.7750 O   0  0  0  0  0  1  0  0  0  0  0  0
  164.4580  214.3020  139.9060 N   0  0  0  0  0  0  0  0  0  0  0  0
  160.5530  210.7280  137.9560 C   0  0  0  0  0  2  0  0  0  0  0  0
  161.6120  209.7860  138.5160 C   0  0  0  0  0  2  0  0  0  0  0  0
  161.9290  207.3350  138.4320 C   0  0  0  0  0  1  0  0  0  0  0  0
  161.7880  208.5910  137.6000 C   0  0  0  0  0  2  0  0  0  0  0  0
  1  5  1  0  0  0  0
  1  4  2  0  0  0  0
  3  7  1  0  0  0  0
  3  6  1  0  0  0  0
  5  8  1  0  0  0  0
  5  2  1  1  0  0  0
  6  9  1  0  0  0  0
  7  1  1  0  0  0  0
  8  9  1  0  0  0  0
  8 17  1  1  0  0  0
 10 11  2  0  0  0  0
 11 16  1  0  0  0  0
 11 20  1  0  0  0  0
 12 15  1  0  0  0  0
 13 21  2  0  0  0  0
 14 19  1  0  0  0  0
 14 16  1  0  0  0  0
 15 13  1  0  0  0  0
 15 18  2  0  0  0  0
 17 14  2  0  0  0  0
 18 17  1  0  0  0  0
 18 10  1  0  0  0  0
 21 10  1  0  0  0  0
 22 23  1  0  0  0  0
 22  5  1  0  0  0  0
 25 24  1  0  0  0  0
 25 23  1  0  0  0  0
M  END
>  <MODEL>
9

>  <REMARK>
 VINA RESULT:      -3.3     13.497     16.083
  Name = 
  4 active torsions:
  status: ('A' for Active; 'I' for Inactive)
    1  A    between atoms: C_10  and  C_17
    2  A    between atoms: C_10  and  C_18
    3  A    between atoms: C_12  and  C_17
    4  A    between atoms: C_14  and  C_23
                            x       y       z     vdW  Elec       q    Type
                         _______ _______ _______ _____ _____    ______ ____

>  <TORSDO>
F 4

$$$$
