=
 OpenBabel11072411373D

 25 27  0  0  1  0  0  0  0  0999 V2000
  162.3410  209.4500  149.0630 F   0  0  0  0  0  0  0  0  0  0  0  0
  161.8070  208.0770  152.9240 C   0  0  0  0  0  2  0  0  0  0  0  0
  161.7410  209.5320  152.6980 N   0  0  1  0  0  0  0  0  0  0  0  0
  162.3570  209.8510  151.4000 C   0  0  0  0  0  2  0  0  0  0  0  0
  161.6930  207.6140  150.4650 C   0  0  2  0  0  3  0  0  0  0  0  0
  161.0920  207.2860  151.8270 C   0  0  0  0  0  2  0  0  0  0  0  0
  161.6770  209.1310  150.2320 C   0  0  2  0  0  3  0  0  0  0  0  0
  159.9820  204.8490  150.3020 O   0  0  0  0  0  1  0  0  0  0  0  0
  161.9380  203.5400  148.1810 N   0  0  0  0  0  1  0  0  0  0  0  0
  161.0910  204.7180  148.1990 C   0  0  1  0  0  3  0  0  0  0  0  0
  161.4480  207.1240  147.9680 C   0  0  0  0  0  2  0  0  0  0  0  0
  160.9580  206.8200  149.3790 C   0  0  1  0  0  3  0  0  0  0  0  0
  161.0800  205.3230  149.5840 C   0  0  1  0  0  3  0  0  0  0  0  0
  161.6660  205.7840  147.2850 C   0  0  2  0  0  3  0  0  0  0  0  0
  161.0200  205.7510  145.9340 C   0  0  0  0  0  0  0  0  0  0  0  0
  160.0590  206.4720  145.7150 O   0  0  0  0  0  0  0  0  0  0  0  0
  161.5390  204.8490  144.8550 C   0  0  0  0  0  3  0  0  0  0  0  0
  161.4250  205.4760  143.6140 O   0  0  0  0  0  1  0  0  0  0  0  0
  160.8180  203.6540  144.8440 O   0  0  0  0  0  1  0  0  0  0  0  0
  160.3550  210.0240  152.7650 C   0  0  1  0  0  3  0  0  0  0  0  0
  158.9530  211.9800  153.4140 C   0  0  1  0  0  3  0  0  0  0  0  0
  158.0030  213.0340  153.3200 N   0  0  0  0  0  1  0  0  0  0  0  0
  159.8300  210.0070  154.2030 C   0  0  0  0  0  2  0  0  0  0  0  0
  158.8390  211.0600  154.3060 N   0  0  0  0  0  2  0  0  0  0  0  0
  160.2370  211.7630  152.2050 S   0  0  0  0  0  0  0  0  0  0  0  0
  3  4  1  6  0  0  0
  3 20  1  0  0  0  0
  3  2  1  0  0  0  0
  5  6  1  1  0  0  0
  6  2  1  0  0  0  0
  7  1  1  6  0  0  0
  7  5  1  0  0  0  0
  7  4  1  0  0  0  0
 10  9  1  1  0  0  0
 10 13  1  0  0  0  0
 12 11  1  6  0  0  0
 12 13  1  0  0  0  0
 12  5  1  0  0  0  0
 13  8  1  1  0  0  0
 14 15  1  6  0  0  0
 14 11  1  0  0  0  0
 14 10  1  0  0  0  0
 16 15  2  0  0  0  0
 17 15  1  0  0  0  0
 18 17  1  0  0  0  0
 19 17  1  0  0  0  0
 20 23  1  1  0  0  0
 21 22  1  6  0  0  0
 21 24  1  0  0  0  0
 23 24  1  0  0  0  0
 25 20  1  0  0  0  0
 25 21  1  0  0  0  0
M  END
>  <MODEL>
1

>  <REMARK>
 VINA RESULT:      -7.2      0.000      0.000
  Name = 
  4 active torsions:
  status: ('A' for Active; 'I' for Inactive)
    1  A    between atoms: C_1  and  C_3
    2  A    between atoms: C_1  and  C_23
    3  A    between atoms: N_6  and  C_9
    4  A    between atoms: C_12  and  C_19
                            x       y       z     vdW  Elec       q    Type
                         _______ _______ _______ _____ _____    ______ ____

>  <TORSDO>
F 4

$$$$
=
 OpenBabel11072411373D

 25 27  0  0  1  0  0  0  0  0999 V2000
  160.9540  207.8530  148.4600 F   0  0  0  0  0  0  0  0  0  0  0  0
  163.0420  206.4410  151.7340 C   0  0  0  0  0  2  0  0  0  0  0  0
  162.3480  207.7340  151.8690 N   0  0  1  0  0  0  0  0  0  0  0  0
  162.0350  208.2600  150.5310 C   0  0  0  0  0  2  0  0  0  0  0  0
  161.8450  205.9360  149.5930 C   0  0  2  0  0  3  0  0  0  0  0  0
  162.2050  205.4080  150.9770 C   0  0  0  0  0  2  0  0  0  0  0  0
  161.1620  207.3050  149.7110 C   0  0  2  0  0  3  0  0  0  0  0  0
  159.6920  203.6300  150.4010 O   0  0  0  0  0  1  0  0  0  0  0  0
  161.4230  201.3000  149.1310 N   0  0  0  0  0  1  0  0  0  0  0  0
  160.7880  202.4990  148.6150 C   0  0  1  0  0  3  0  0  0  0  0  0
  161.5500  204.5250  147.4820 C   0  0  0  0  0  2  0  0  0  0  0  0
  160.9990  204.8920  148.8550 C   0  0  1  0  0  3  0  0  0  0  0  0
  160.8630  203.6040  149.6430 C   0  0  1  0  0  3  0  0  0  0  0  0
  161.5460  203.0070  147.4030 C   0  0  2  0  0  3  0  0  0  0  0  0
  160.9200  202.5300  146.1280 C   0  0  0  0  0  0  0  0  0  0  0  0
  160.8890  203.2780  145.1640 O   0  0  0  0  0  0  0  0  0  0  0  0
  160.3380  201.1520  146.0250 C   0  0  0  0  0  3  0  0  0  0  0  0
  161.3370  200.1980  146.2170 O   0  0  0  0  0  1  0  0  0  0  0  0
  159.7540  200.9740  144.7700 O   0  0  0  0  0  1  0  0  0  0  0  0
  161.1310  207.6080  152.6890 C   0  0  1  0  0  3  0  0  0  0  0  0
  160.1720  208.0920  154.9380 C   0  0  1  0  0  3  0  0  0  0  0  0
  159.2900  208.5900  155.9360 N   0  0  0  0  0  1  0  0  0  0  0  0
  161.2710  206.4840  153.7180 C   0  0  0  0  0  2  0  0  0  0  0  0
  160.4360  206.8360  154.8490 N   0  0  0  0  0  2  0  0  0  0  0  0
  160.8130  209.1340  153.6480 S   0  0  0  0  0  0  0  0  0  0  0  0
  2  3  1  0  0  0  0
  3  4  1  6  0  0  0
  3 20  1  0  0  0  0
  5  7  1  0  0  0  0
  5  6  1  1  0  0  0
  6  2  1  0  0  0  0
  7  1  1  6  0  0  0
  7  4  1  0  0  0  0
 10  9  1  1  0  0  0
 10 13  1  0  0  0  0
 12 11  1  6  0  0  0
 12  5  1  0  0  0  0
 12 13  1  0  0  0  0
 13  8  1  6  0  0  0
 14 15  1  6  0  0  0
 14 11  1  0  0  0  0
 14 10  1  0  0  0  0
 16 15  2  0  0  0  0
 17 15  1  0  0  0  0
 17 18  1  0  0  0  0
 19 17  1  0  0  0  0
 20 25  1  0  0  0  0
 20 23  1  1  0  0  0
 21 22  1  6  0  0  0
 23 24  1  0  0  0  0
 24 21  1  0  0  0  0
 25 21  1  0  0  0  0
M  END
>  <MODEL>
2

>  <REMARK>
 VINA RESULT:      -6.7      2.334      3.132
  Name = 
  4 active torsions:
  status: ('A' for Active; 'I' for Inactive)
    1  A    between atoms: C_1  and  C_3
    2  A    between atoms: C_1  and  C_23
    3  A    between atoms: N_6  and  C_9
    4  A    between atoms: C_12  and  C_19
                            x       y       z     vdW  Elec       q    Type
                         _______ _______ _______ _____ _____    ______ ____

>  <TORSDO>
F 4

$$$$
=
 OpenBabel11072411373D

 25 27  0  0  1  0  0  0  0  0999 V2000
  163.4580  208.1280  148.3410 F   0  0  0  0  0  0  0  0  0  0  0  0
  159.8570  206.1050  148.2250 C   0  0  0  0  0  2  0  0  0  0  0  0
  160.9540  205.6020  147.3790 N   0  0  1  0  0  0  0  0  0  0  0  0
  161.9730  206.6530  147.2280 C   0  0  0  0  0  2  0  0  0  0  0  0
  161.4170  207.6040  149.4870 C   0  0  2  0  0  3  0  0  0  0  0  0
  160.3410  206.5310  149.6120 C   0  0  0  0  0  2  0  0  0  0  0  0
  162.5460  207.1150  148.5700 C   0  0  2  0  0  3  0  0  0  0  0  0
  162.9810  206.1780  151.9610 O   0  0  0  0  0  1  0  0  0  0  0  0
  160.6030  206.6670  153.9970 N   0  0  0  0  0  1  0  0  0  0  0  0
  161.4700  207.5270  153.2120 C   0  0  1  0  0  3  0  0  0  0  0  0
  161.1410  209.2020  151.4630 C   0  0  0  0  0  2  0  0  0  0  0  0
  161.8960  208.0100  150.8860 C   0  0  1  0  0  3  0  0  0  0  0  0
  161.7760  206.8750  151.8830 C   0  0  1  0  0  3  0  0  0  0  0  0
  160.7530  208.8230  152.8840 C   0  0  2  0  0  3  0  0  0  0  0  0
  161.1130  209.9070  153.8530 C   0  0  0  0  0  0  0  0  0  0  0  0
  162.2530  210.3430  153.8620 O   0  0  0  0  0  0  0  0  0  0  0  0
  160.0940  210.4590  154.8030 C   0  0  0  0  0  3  0  0  0  0  0  0
  159.6240  209.4460  155.6390 O   0  0  0  0  0  1  0  0  0  0  0  0
  159.0280  211.0110  154.0910 O   0  0  0  0  0  1  0  0  0  0  0  0
  161.5380  204.3690  147.9340 C   0  0  1  0  0  3  0  0  0  0  0  0
  161.1820  201.9130  148.1710 C   0  0  1  0  0  3  0  0  0  0  0  0
  161.4270  200.5150  148.1020 N   0  0  0  0  0  1  0  0  0  0  0  0
  160.8070  203.9320  149.2050 C   0  0  0  0  0  2  0  0  0  0  0  0
  160.9330  202.4910  149.2930 N   0  0  0  0  0  2  0  0  0  0  0  0
  161.3880  202.9740  146.7590 S   0  0  0  0  0  0  0  0  0  0  0  0
  2  6  1  0  0  0  0
  3  4  1  1  0  0  0
  3 20  1  0  0  0  0
  3  2  1  0  0  0  0
  4  7  1  0  0  0  0
  5  6  1  1  0  0  0
  5 12  1  0  0  0  0
  7  1  1  6  0  0  0
  7  5  1  0  0  0  0
 10  9  1  1  0  0  0
 11 14  1  0  0  0  0
 12 11  1  1  0  0  0
 12 13  1  0  0  0  0
 13  8  1  1  0  0  0
 13 10  1  0  0  0  0
 14 10  1  0  0  0  0
 14 15  1  1  0  0  0
 15 16  2  0  0  0  0
 15 17  1  0  0  0  0
 17 18  1  0  0  0  0
 19 17  1  0  0  0  0
 20 23  1  1  0  0  0
 21 22  1  1  0  0  0
 21 24  1  0  0  0  0
 23 24  1  0  0  0  0
 25 20  1  0  0  0  0
 25 21  1  0  0  0  0
M  END
>  <MODEL>
3

>  <REMARK>
 VINA RESULT:      -6.6      4.110      7.870
  Name = 
  4 active torsions:
  status: ('A' for Active; 'I' for Inactive)
    1  A    between atoms: C_1  and  C_3
    2  A    between atoms: C_1  and  C_23
    3  A    between atoms: N_6  and  C_9
    4  A    between atoms: C_12  and  C_19
                            x       y       z     vdW  Elec       q    Type
                         _______ _______ _______ _____ _____    ______ ____

>  <TORSDO>
F 4

$$$$
=
 OpenBabel11072411373D

 25 27  0  0  1  0  0  0  0  0999 V2000
  160.9980  205.0670  154.0120 F   0  0  0  0  0  0  0  0  0  0  0  0
  159.9580  209.0450  153.6060 C   0  0  0  0  0  2  0  0  0  0  0  0
  160.4890  208.6050  154.9080 N   0  0  1  0  0  0  0  0  0  0  0  0
  160.4010  207.1390  154.9990 C   0  0  0  0  0  2  0  0  0  0  0  0
  160.6640  206.9070  152.5100 C   0  0  2  0  0  3  0  0  0  0  0  0
  160.7180  208.4290  152.4300 C   0  0  0  0  0  2  0  0  0  0  0  0
  161.1700  206.4320  153.8790 C   0  0  2  0  0  3  0  0  0  0  0  0
  162.7010  207.9970  150.2160 O   0  0  0  0  0  1  0  0  0  0  0  0
  160.8220  207.0730  147.8380 N   0  0  0  0  0  1  0  0  0  0  0  0
  161.5130  206.3930  148.9180 C   0  0  1  0  0  3  0  0  0  0  0  0
  160.8420  205.0040  150.8130 C   0  0  0  0  0  2  0  0  0  0  0  0
  161.4380  206.3080  151.3290 C   0  0  1  0  0  3  0  0  0  0  0  0
  161.5170  207.2630  150.1550 C   0  0  1  0  0  3  0  0  0  0  0  0
  160.7610  205.1320  149.3000 C   0  0  2  0  0  3  0  0  0  0  0  0
  161.3370  203.9260  148.6210 C   0  0  0  0  0  0  0  0  0  0  0  0
  162.3210  204.0560  147.9110 O   0  0  0  0  0  0  0  0  0  0  0  0
  160.7210  202.5720  148.8060 C   0  0  0  0  0  3  0  0  0  0  0  0
  161.2290  201.9720  149.9580 O   0  0  0  0  0  1  0  0  0  0  0  0
  160.9970  201.7680  147.6990 O   0  0  0  0  0  1  0  0  0  0  0  0
  161.8730  209.0690  155.1100 C   0  0  1  0  0  3  0  0  0  0  0  0
  163.2830  210.6580  156.4120 C   0  0  1  0  0  3  0  0  0  0  0  0
  164.3210  211.1430  157.2550 N   0  0  0  0  0  1  0  0  0  0  0  0
  162.1010  210.4320  154.4540 C   0  0  0  0  0  2  0  0  0  0  0  0
  163.1390  211.1000  155.2120 N   0  0  0  0  0  2  0  0  0  0  0  0
  162.2480  209.2930  156.8870 S   0  0  0  0  0  0  0  0  0  0  0  0
  3  2  1  6  0  0  0
  3  4  1  0  0  0  0
  3 20  1  0  0  0  0
  5  6  1  1  0  0  0
  5  7  1  0  0  0  0
  6  2  1  0  0  0  0
  7  1  1  6  0  0  0
  7  4  1  0  0  0  0
 10  9  1  6  0  0  0
 10 14  1  0  0  0  0
 10 13  1  0  0  0  0
 12 11  1  6  0  0  0
 12  5  1  0  0  0  0
 13  8  1  1  0  0  0
 13 12  1  0  0  0  0
 14 15  1  6  0  0  0
 14 11  1  0  0  0  0
 15 17  1  0  0  0  0
 16 15  2  0  0  0  0
 17 18  1  0  0  0  0
 19 17  1  0  0  0  0
 20 23  1  6  0  0  0
 20 25  1  0  0  0  0
 21 25  1  0  0  0  0
 21 22  1  6  0  0  0
 23 24  1  0  0  0  0
 24 21  1  0  0  0  0
M  END
>  <MODEL>
4

>  <REMARK>
 VINA RESULT:      -6.4      3.166      4.185
  Name = 
  4 active torsions:
  status: ('A' for Active; 'I' for Inactive)
    1  A    between atoms: C_1  and  C_3
    2  A    between atoms: C_1  and  C_23
    3  A    between atoms: N_6  and  C_9
    4  A    between atoms: C_12  and  C_19
                            x       y       z     vdW  Elec       q    Type
                         _______ _______ _______ _____ _____    ______ ____

>  <TORSDO>
F 4

$$$$
=
 OpenBabel11072411373D

 25 27  0  0  1  0  0  0  0  0999 V2000
  162.1610  210.3350  152.8610 F   0  0  0  0  0  0  0  0  0  0  0  0
  160.0780  209.6280  156.3590 C   0  0  0  0  0  2  0  0  0  0  0  0
  160.1080  211.0090  155.8460 N   0  0  1  0  0  0  0  0  0  0  0  0
  161.2060  211.1430  154.8750 C   0  0  0  0  0  2  0  0  0  0  0  0
  160.9940  208.7290  154.2090 C   0  0  2  0  0  3  0  0  0  0  0  0
  159.8830  208.5990  155.2440 C   0  0  0  0  0  2  0  0  0  0  0  0
  161.0730  210.1740  153.6970 C   0  0  2  0  0  3  0  0  0  0  0  0
  161.2070  205.4950  153.9050 O   0  0  0  0  0  1  0  0  0  0  0  0
  163.3870  205.6620  151.6110 N   0  0  0  0  0  1  0  0  0  0  0  0
  162.0170  206.1190  151.7540 C   0  0  1  0  0  3  0  0  0  0  0  0
  160.8870  208.2840  151.6940 C   0  0  0  0  0  2  0  0  0  0  0  0
  160.7770  207.6970  153.0960 C   0  0  1  0  0  3  0  0  0  0  0  0
  161.7640  206.5490  153.1810 C   0  0  1  0  0  3  0  0  0  0  0  0
  161.7900  207.3530  150.9020 C   0  0  2  0  0  3  0  0  0  0  0  0
  161.1810  206.9990  149.5790 C   0  0  0  0  0  0  0  0  0  0  0  0
  160.3490  206.1080  149.5260 O   0  0  0  0  0  0  0  0  0  0  0  0
  161.5800  207.7260  148.3300 C   0  0  0  0  0  3  0  0  0  0  0  0
  162.3320  206.8850  147.5090 O   0  0  0  0  0  1  0  0  0  0  0  0
  162.3310  208.8560  148.6550 O   0  0  0  0  0  1  0  0  0  0  0  0
  158.8170  211.3890  155.2460 C   0  0  1  0  0  3  0  0  0  0  0  0
  157.2020  213.2700  154.9930 C   0  0  1  0  0  3  0  0  0  0  0  0
  156.3550  214.2300  154.3750 N   0  0  0  0  0  1  0  0  0  0  0  0
  157.7130  211.4520  156.3030 C   0  0  0  0  0  2  0  0  0  0  0  0
  156.7400  212.4240  155.8440 N   0  0  0  0  0  2  0  0  0  0  0  0
  158.8960  213.0570  154.4970 S   0  0  0  0  0  0  0  0  0  0  0  0
  3  4  1  6  0  0  0
  3  2  1  0  0  0  0
  5  6  1  1  0  0  0
  6  2  1  0  0  0  0
  7  1  1  6  0  0  0
  7  5  1  0  0  0  0
  7  4  1  0  0  0  0
 10  9  1  1  0  0  0
 10 13  1  0  0  0  0
 12 11  1  6  0  0  0
 12 13  1  0  0  0  0
 12  5  1  0  0  0  0
 13  8  1  1  0  0  0
 14 15  1  6  0  0  0
 14 11  1  0  0  0  0
 14 10  1  0  0  0  0
 16 15  2  0  0  0  0
 17 19  1  0  0  0  0
 17 15  1  0  0  0  0
 18 17  1  0  0  0  0
 20  3  1  0  0  0  0
 20 23  1  1  0  0  0
 21 22  1  6  0  0  0
 21 24  1  0  0  0  0
 24 23  1  0  0  0  0
 25 21  1  0  0  0  0
 25 20  1  0  0  0  0
M  END
>  <MODEL>
5

>  <REMARK>
 VINA RESULT:      -6.2      2.672      3.892
  Name = 
  4 active torsions:
  status: ('A' for Active; 'I' for Inactive)
    1  A    between atoms: C_1  and  C_3
    2  A    between atoms: C_1  and  C_23
    3  A    between atoms: N_6  and  C_9
    4  A    between atoms: C_12  and  C_19
                            x       y       z     vdW  Elec       q    Type
                         _______ _______ _______ _____ _____    ______ ____

>  <TORSDO>
F 4

$$$$
=
 OpenBabel11072411373D

 25 27  0  0  1  0  0  0  0  0999 V2000
  162.8410  207.3750  148.5310 F   0  0  0  0  0  0  0  0  0  0  0  0
  162.0700  206.2810  152.4400 C   0  0  0  0  0  2  0  0  0  0  0  0
  162.2240  207.7170  152.1470 N   0  0  1  0  0  0  0  0  0  0  0  0
  162.8930  207.8790  150.8470 C   0  0  0  0  0  2  0  0  0  0  0  0
  161.9130  205.7240  150.0030 C   0  0  2  0  0  3  0  0  0  0  0  0
  161.2560  205.5540  151.3680 C   0  0  0  0  0  2  0  0  0  0  0  0
  162.1250  207.2140  149.7010 C   0  0  2  0  0  3  0  0  0  0  0  0
  159.8070  203.2420  149.9380 O   0  0  0  0  0  1  0  0  0  0  0  0
  161.5650  201.5540  147.9130 N   0  0  0  0  0  1  0  0  0  0  0  0
  160.9050  202.8460  147.8630 C   0  0  1  0  0  3  0  0  0  0  0  0
  161.6230  205.1570  147.5270 C   0  0  0  0  0  2  0  0  0  0  0  0
  161.0780  204.9980  148.9420 C   0  0  1  0  0  3  0  0  0  0  0  0
  160.9710  203.5110  149.2180 C   0  0  1  0  0  3  0  0  0  0  0  0
  161.6440  203.7680  146.9110 C   0  0  2  0  0  3  0  0  0  0  0  0
  161.0140  203.7670  145.5510 C   0  0  0  0  0  0  0  0  0  0  0  0
  160.4540  202.7570  145.1550 O   0  0  0  0  0  0  0  0  0  0  0  0
  161.0640  204.9860  144.6800 C   0  0  0  0  0  3  0  0  0  0  0  0
  162.3100  205.6010  144.7920 O   0  0  0  0  0  1  0  0  0  0  0  0
  160.0630  205.8820  145.0580 O   0  0  0  0  0  1  0  0  0  0  0  0
  160.9260  208.4130  152.1690 C   0  0  1  0  0  3  0  0  0  0  0  0
  159.8340  210.6000  152.6510 C   0  0  1  0  0  3  0  0  0  0  0  0
  159.0490  211.7720  152.4680 N   0  0  0  0  0  1  0  0  0  0  0  0
  160.4170  208.5900  153.6010 C   0  0  0  0  0  2  0  0  0  0  0  0
  159.5930  209.7820  153.6140 N   0  0  0  0  0  2  0  0  0  0  0  0
  161.0620  210.0980  151.4680 S   0  0  0  0  0  0  0  0  0  0  0  0
  3  4  1  6  0  0  0
  3 20  1  0  0  0  0
  3  2  1  0  0  0  0
  5  6  1  1  0  0  0
  6  2  1  0  0  0  0
  7  1  1  6  0  0  0
  7  5  1  0  0  0  0
  7  4  1  0  0  0  0
 10  9  1  1  0  0  0
 10 13  1  0  0  0  0
 12 11  1  6  0  0  0
 12 13  1  0  0  0  0
 12  5  1  0  0  0  0
 13  8  1  1  0  0  0
 14 15  1  6  0  0  0
 14 11  1  0  0  0  0
 14 10  1  0  0  0  0
 16 15  2  0  0  0  0
 17 18  1  0  0  0  0
 17 19  1  0  0  0  0
 17 15  1  0  0  0  0
 20 23  1  1  0  0  0
 21 22  1  6  0  0  0
 21 24  1  0  0  0  0
 23 24  1  0  0  0  0
 25 20  1  0  0  0  0
 25 21  1  0  0  0  0
M  END
>  <MODEL>
6

>  <REMARK>
 VINA RESULT:      -5.9      1.511      1.995
  Name = 
  4 active torsions:
  status: ('A' for Active; 'I' for Inactive)
    1  A    between atoms: C_1  and  C_3
    2  A    between atoms: C_1  and  C_23
    3  A    between atoms: N_6  and  C_9
    4  A    between atoms: C_12  and  C_19
                            x       y       z     vdW  Elec       q    Type
                         _______ _______ _______ _____ _____    ______ ____

>  <TORSDO>
F 4

$$$$
=
 OpenBabel11072411373D

 25 27  0  0  1  0  0  0  0  0999 V2000
  162.3570  208.2050  150.1740 F   0  0  0  0  0  0  0  0  0  0  0  0
  161.5180  208.7660  154.1800 C   0  0  0  0  0  2  0  0  0  0  0  0
  161.4860  209.9480  153.3010 N   0  0  1  0  0  0  0  0  0  0  0  0
  162.2010  209.6450  152.0510 C   0  0  0  0  0  2  0  0  0  0  0  0
  161.5840  207.2130  152.2160 C   0  0  2  0  0  3  0  0  0  0  0  0
  160.8780  207.5400  153.5270 C   0  0  0  0  0  2  0  0  0  0  0  0
  161.6030  208.4480  151.3050 C   0  0  2  0  0  3  0  0  0  0  0  0
  160.2140  204.4470  153.2490 O   0  0  0  0  0  1  0  0  0  0  0  0
  162.2610  202.6180  151.6670 N   0  0  0  0  0  1  0  0  0  0  0  0
  161.2800  203.6180  151.2880 C   0  0  1  0  0  3  0  0  0  0  0  0
  161.3400  205.7660  150.1240 C   0  0  0  0  0  2  0  0  0  0  0  0
  160.9240  205.9880  151.5730 C   0  0  1  0  0  3  0  0  0  0  0  0
  161.2290  204.7110  152.3310 C   0  0  1  0  0  3  0  0  0  0  0  0
  161.7010  204.2940  149.9970 C   0  0  2  0  0  3  0  0  0  0  0  0
  161.0310  203.6710  148.8100 C   0  0  0  0  0  0  0  0  0  0  0  0
  160.6150  204.3890  147.9160 O   0  0  0  0  0  0  0  0  0  0  0  0
  160.8720  202.1830  148.7100 C   0  0  0  0  0  3  0  0  0  0  0  0
  161.0500  201.7730  147.3890 O   0  0  0  0  0  1  0  0  0  0  0  0
  159.6020  201.8090  149.1510 O   0  0  0  0  0  1  0  0  0  0  0  0
  160.1040  210.3820  153.0320 C   0  0  1  0  0  3  0  0  0  0  0  0
  158.6060  212.3720  152.9590 C   0  0  1  0  0  3  0  0  0  0  0  0
  157.6790  213.3300  152.4650 N   0  0  0  0  0  1  0  0  0  0  0  0
  159.3560  210.6870  154.3310 C   0  0  0  0  0  2  0  0  0  0  0  0
  158.3560  211.6890  154.0200 N   0  0  0  0  0  2  0  0  0  0  0  0
  160.0690  211.9270  152.0520 S   0  0  0  0  0  0  0  0  0  0  0  0
  3  4  1  6  0  0  0
  3  2  1  0  0  0  0
  5  6  1  1  0  0  0
  6  2  1  0  0  0  0
  7  1  1  6  0  0  0
  7  4  1  0  0  0  0
  7  5  1  0  0  0  0
 10  9  1  1  0  0  0
 10 13  1  0  0  0  0
 12 11  1  6  0  0  0
 12  5  1  0  0  0  0
 12 13  1  0  0  0  0
 13  8  1  1  0  0  0
 14 15  1  6  0  0  0
 14 11  1  0  0  0  0
 14 10  1  0  0  0  0
 16 15  2  0  0  0  0
 17 15  1  0  0  0  0
 17 19  1  0  0  0  0
 18 17  1  0  0  0  0
 20  3  1  0  0  0  0
 20 23  1  1  0  0  0
 21 22  1  6  0  0  0
 21 24  1  0  0  0  0
 24 23  1  0  0  0  0
 25 21  1  0  0  0  0
 25 20  1  0  0  0  0
M  END
>  <MODEL>
7

>  <REMARK>
 VINA RESULT:      -5.7      2.177      2.649
  Name = 
  4 active torsions:
  status: ('A' for Active; 'I' for Inactive)
    1  A    between atoms: C_1  and  C_3
    2  A    between atoms: C_1  and  C_23
    3  A    between atoms: N_6  and  C_9
    4  A    between atoms: C_12  and  C_19
                            x       y       z     vdW  Elec       q    Type
                         _______ _______ _______ _____ _____    ______ ____

>  <TORSDO>
F 4

$$$$
=
 OpenBabel11072411373D

 25 27  0  0  1  0  0  0  0  0999 V2000
  160.1200  208.2590  154.4230 F   0  0  0  0  0  0  0  0  0  0  0  0
  162.3990  210.0670  151.4890 C   0  0  0  0  0  2  0  0  0  0  0  0
  162.3160  208.5960  151.4830 N   0  0  1  0  0  0  0  0  0  0  0  0
  161.8390  208.1300  152.7950 C   0  0  0  0  0  2  0  0  0  0  0  0
  160.5190  210.2430  153.1340 C   0  0  2  0  0  3  0  0  0  0  0  0
  161.0510  210.7240  151.7890 C   0  0  0  0  0  2  0  0  0  0  0  0
  160.4700  208.7090  153.1640 C   0  0  2  0  0  3  0  0  0  0  0  0
  158.5490  212.3380  151.6090 O   0  0  0  0  0  1  0  0  0  0  0  0
  158.6580  214.4530  153.9660 N   0  0  0  0  0  1  0  0  0  0  0  0
  158.2090  213.0770  153.8460 C   0  0  1  0  0  3  0  0  0  0  0  0
  158.8060  210.9520  154.8930 C   0  0  0  0  0  2  0  0  0  0  0  0
  159.1640  210.9040  153.4120 C   0  0  1  0  0  3  0  0  0  0  0  0
  159.1030  212.3250  152.8880 C   0  0  1  0  0  3  0  0  0  0  0  0
  158.3430  212.3710  155.1820 C   0  0  2  0  0  3  0  0  0  0  0  0
  157.0470  212.3770  155.9350 C   0  0  0  0  0  0  0  0  0  0  0  0
  156.7350  213.3680  156.5750 O   0  0  0  0  0  0  0  0  0  0  0  0
  156.1360  211.1870  155.9090 C   0  0  0  0  0  3  0  0  0  0  0  0
  155.4610  211.1310  154.6900 O   0  0  0  0  0  1  0  0  0  0  0  0
  155.2140  211.2690  156.9530 O   0  0  0  0  0  1  0  0  0  0  0  0
  161.4460  208.1100  150.3980 C   0  0  1  0  0  3  0  0  0  0  0  0
  161.2510  206.3910  148.6040 C   0  0  1  0  0  3  0  0  0  0  0  0
  160.7160  205.3320  147.8210 N   0  0  0  0  0  1  0  0  0  0  0  0
  161.9850  208.5270  149.0280 C   0  0  0  0  0  2  0  0  0  0  0  0
  161.5470  207.5260  148.0760 N   0  0  0  0  0  2  0  0  0  0  0  0
  161.3670  206.2820  150.3750 S   0  0  0  0  0  0  0  0  0  0  0  0
  2  6  1  0  0  0  0
  3  2  1  1  0  0  0
  3  4  1  0  0  0  0
  4  7  1  0  0  0  0
  5  6  1  6  0  0  0
  5  7  1  0  0  0  0
  5 12  1  0  0  0  0
  7  1  1  1  0  0  0
 10  9  1  1  0  0  0
 10 14  1  0  0  0  0
 11 14  1  0  0  0  0
 12 11  1  1  0  0  0
 13  8  1  6  0  0  0
 13 12  1  0  0  0  0
 13 10  1  0  0  0  0
 14 15  1  6  0  0  0
 15 16  2  0  0  0  0
 17 15  1  0  0  0  0
 17 19  1  0  0  0  0
 18 17  1  0  0  0  0
 20 23  1  6  0  0  0
 20  3  1  0  0  0  0
 21 22  1  1  0  0  0
 21 25  1  0  0  0  0
 24 21  1  0  0  0  0
 24 23  1  0  0  0  0
 25 20  1  0  0  0  0
M  END
>  <MODEL>
8

>  <REMARK>
 VINA RESULT:      -5.5      4.508      8.842
  Name = 
  4 active torsions:
  status: ('A' for Active; 'I' for Inactive)
    1  A    between atoms: C_1  and  C_3
    2  A    between atoms: C_1  and  C_23
    3  A    between atoms: N_6  and  C_9
    4  A    between atoms: C_12  and  C_19
                            x       y       z     vdW  Elec       q    Type
                         _______ _______ _______ _____ _____    ______ ____

>  <TORSDO>
F 4

$$$$
=
 OpenBabel11072411373D

 25 27  0  0  1  0  0  0  0  0999 V2000
  163.4750  209.7690  151.3160 F   0  0  0  0  0  0  0  0  0  0  0  0
  160.5940  208.8280  154.1250 C   0  0  0  0  0  2  0  0  0  0  0  0
  160.7110  210.2370  153.7070 N   0  0  1  0  0  0  0  0  0  0  0  0
  162.0140  210.4450  153.0570 C   0  0  0  0  0  2  0  0  0  0  0  0
  162.0550  208.0700  152.2370 C   0  0  2  0  0  3  0  0  0  0  0  0
  160.7220  207.8610  152.9460 C   0  0  0  0  0  2  0  0  0  0  0  0
  162.2150  209.5420  151.8360 C   0  0  2  0  0  3  0  0  0  0  0  0
  162.2920  208.2990  148.9980 O   0  0  0  0  0  1  0  0  0  0  0  0
  159.6280  206.6590  148.4950 N   0  0  0  0  0  1  0  0  0  0  0  0
  160.9020  206.3700  149.1280 C   0  0  1  0  0  3  0  0  0  0  0  0
  161.6260  205.7050  151.3650 C   0  0  0  0  0  2  0  0  0  0  0  0
  162.1600  207.0990  151.0550 C   0  0  1  0  0  3  0  0  0  0  0  0
  161.4180  207.6040  149.8330 C   0  0  1  0  0  3  0  0  0  0  0  0
  160.7190  205.3200  150.2070 C   0  0  2  0  0  3  0  0  0  0  0  0
  161.0410  203.9490  149.6960 C   0  0  0  0  0  0  0  0  0  0  0  0
  161.7420  203.8330  148.7040 O   0  0  0  0  0  0  0  0  0  0  0  0
  160.5170  202.7270  150.3890 C   0  0  0  0  0  3  0  0  0  0  0  0
  161.4200  202.3100  151.3660 O   0  0  0  0  0  1  0  0  0  0  0  0
  160.3220  201.7010  149.4630 O   0  0  0  0  0  1  0  0  0  0  0  0
  159.6030  210.6280  152.8180 C   0  0  1  0  0  3  0  0  0  0  0  0
  158.4010  212.5890  151.8600 C   0  0  1  0  0  3  0  0  0  0  0  0
  157.8310  213.4690  150.8990 N   0  0  0  0  0  1  0  0  0  0  0  0
  158.3930  211.1110  153.6200 C   0  0  0  0  0  2  0  0  0  0  0  0
  157.6820  212.0600  152.7860 N   0  0  0  0  0  2  0  0  0  0  0  0
  160.0810  212.0230  151.7330 S   0  0  0  0  0  0  0  0  0  0  0  0
  3  4  1  6  0  0  0
  3  2  1  0  0  0  0
  5  6  1  6  0  0  0
  6  2  1  0  0  0  0
  7  1  1  1  0  0  0
  7  5  1  0  0  0  0
  7  4  1  0  0  0  0
 10  9  1  1  0  0  0
 10 13  1  0  0  0  0
 10 14  1  0  0  0  0
 12 11  1  1  0  0  0
 12  5  1  0  0  0  0
 13  8  1  6  0  0  0
 13 12  1  0  0  0  0
 14 15  1  6  0  0  0
 14 11  1  0  0  0  0
 15 17  1  0  0  0  0
 16 15  2  0  0  0  0
 17 18  1  0  0  0  0
 19 17  1  0  0  0  0
 20 23  1  1  0  0  0
 20  3  1  0  0  0  0
 21 22  1  6  0  0  0
 21 24  1  0  0  0  0
 24 23  1  0  0  0  0
 25 21  1  0  0  0  0
 25 20  1  0  0  0  0
M  END
>  <MODEL>
9

>  <REMARK>
 VINA RESULT:      -5.2      2.463      3.354
  Name = 
  4 active torsions:
  status: ('A' for Active; 'I' for Inactive)
    1  A    between atoms: C_1  and  C_3
    2  A    between atoms: C_1  and  C_23
    3  A    between atoms: N_6  and  C_9
    4  A    between atoms: C_12  and  C_19
                            x       y       z     vdW  Elec       q    Type
                         _______ _______ _______ _____ _____    ______ ____

>  <TORSDO>
F 4

$$$$
