=
 OpenBabel11072414383D

 26 29  0  0  1  0  0  0  0  0999 V2000
  161.0620  208.6440  150.2390 C   0  0  2  0  0  3  0  0  0  0  0  0
  162.2910  207.3200  151.7160 C   0  0  1  0  0  3  0  0  0  0  0  0
  160.7530  209.2090  151.6320 C   0  0  2  0  0  3  0  0  0  0  0  0
  161.7300  207.3460  150.3560 N   0  0  0  0  0  0  0  0  0  0  0  0
  160.9090  208.0330  153.7240 O   0  0  0  0  0  1  0  0  0  0  0  0
  161.9540  209.8190  152.3530 C   0  0  0  0  0  2  0  0  0  0  0  0
  161.5960  208.3720  152.5590 C   0  0  1  0  0  0  0  0  0  0  0  0
  163.2890  211.8640  147.6500 O   0  0  0  0  0  0  0  0  0  0  0  0
  162.1610  213.2810  148.5370 N   0  0  0  0  0  2  0  0  0  0  0  0
  162.7290  209.1500  148.5920 O   0  0  0  0  0  0  0  0  0  0  0  0
  161.8300  209.5860  149.3620 C   0  0  0  0  0  0  0  0  0  0  0  0
  161.5520  210.9850  149.4320 N   0  0  0  0  0  2  0  0  0  0  0  0
  162.2420  211.9510  148.6400 C   0  0  1  0  0  0  0  0  0  0  0  0
  163.1720  213.2040  147.5800 C   0  0  2  0  0  3  0  0  0  0  0  0
  161.4930  205.4950  153.2760 N   0  0  0  0  0  1  0  0  0  0  0  0
  162.4570  205.9580  152.3390 C   0  0  0  0  0  0  0  0  0  0  0  0
  163.4570  205.2400  152.0660 O   0  0  0  0  0  0  0  0  0  0  0  0
  160.6840  206.3410  150.1790 C   0  0  0  0  0  2  0  0  0  0  0  0
  160.4500  206.0720  148.7000 C   0  0  0  0  0  2  0  0  0  0  0  0
  160.7980  204.6330  148.3390 C   0  0  2  0  0  3  0  0  0  0  0  0
  161.1680  203.8300  149.5820 C   0  0  0  0  0  1  0  0  0  0  0  0
  161.8930  204.5910  147.2660 C   0  0  2  0  0  3  0  0  0  0  0  0
  162.3570  205.9910  146.8950 C   0  0  0  0  0  1  0  0  0  0  0  0
  161.5220  203.7930  146.0520 C   0  0  0  0  0  0  0  0  0  0  0  0
  161.5590  204.3090  144.9030 O   0  0  0  0  0  0  0  0  0  0  0  0
  161.1060  202.4760  146.1990 O   0  0  0  0  0  1  0  0  0  0  0  0
  1 11  1  1  0  0  0
  1  4  1  0  0  0  0
  1  3  1  0  0  0  0
  2 16  1  1  0  0  0
  2  7  1  0  0  0  0
  3  6  1  6  0  0  0
  3  7  1  0  0  0  0
  4  2  1  0  0  0  0
  6  7  1  0  0  0  0
  7  5  1  1  0  0  0
  8 13  1  0  0  0  0
  9 13  1  0  0  0  0
 10 11  2  0  0  0  0
 11 12  1  0  0  0  0
 13 12  1  1  0  0  0
 14  8  1  1  0  0  0
 14  9  1  0  0  0  0
 14 13  1  0  0  0  0
 16 15  1  0  0  0  0
 17 16  2  0  0  0  0
 18  4  1  0  0  0  0
 19 18  1  0  0  0  0
 20 19  1  0  0  0  0
 20 21  1  1  0  0  0
 22 23  1  6  0  0  0
 22 20  1  0  0  0  0
 24 26  1  0  0  0  0
 24 22  1  0  0  0  0
 25 24  2  0  0  0  0
M  END
>  <MODEL>
1

>  <REMARK>
 VINA RESULT:      -5.7      0.000      0.000
  Name = 
  7 active torsions:
  status: ('A' for Active; 'I' for Inactive)
    1  A    between atoms: C_1  and  C_12
    2  A    between atoms: C_2  and  C_13
    3  A    between atoms: C_3  and  C_13
    4  A    between atoms: C_3  and  C_25
    5  A    between atoms: C_5  and  N_17
    6  A    between atoms: C_5  and  C_25
    7  A    between atoms: C_6  and  C_19
                            x       y       z     vdW  Elec       q    Type
                         _______ _______ _______ _____ _____    ______ ____

>  <TORSDO>
F 7

$$$$
=
 OpenBabel11072414383D

 26 29  0  0  1  0  0  0  0  0999 V2000
  160.2510  210.5900  152.4890 C   0  0  2  0  0  3  0  0  0  0  0  0
  161.4250  210.8360  154.4910 C   0  0  1  0  0  3  0  0  0  0  0  0
  159.2240  211.1400  153.4880 C   0  0  2  0  0  3  0  0  0  0  0  0
  161.4530  210.1400  153.1950 N   0  0  0  0  0  0  0  0  0  0  0  0
  159.3030  210.9420  155.8840 O   0  0  0  0  0  1  0  0  0  0  0  0
  159.5280  212.5470  154.0020 C   0  0  0  0  0  2  0  0  0  0  0  0
  160.0180  211.3380  154.7540 C   0  0  1  0  0  0  0  0  0  0  0  0
  161.5000  213.3030  148.8690 O   0  0  0  0  0  0  0  0  0  0  0  0
  162.7000  211.8120  148.2330 N   0  0  0  0  0  2  0  0  0  0  0  0
  160.0310  212.6720  151.3200 O   0  0  0  0  0  0  0  0  0  0  0  0
  160.5840  211.5400  151.3780 C   0  0  0  0  0  0  0  0  0  0  0  0
  161.5120  211.1330  150.3710 N   0  0  0  0  0  2  0  0  0  0  0  0
  161.8770  211.9700  149.2750 C   0  0  1  0  0  0  0  0  0  0  0  0
  162.3400  213.0990  147.8360 C   0  0  2  0  0  3  0  0  0  0  0  0
  163.2620  210.7370  156.2270 N   0  0  0  0  0  1  0  0  0  0  0  0
  162.1170  210.1390  155.6340 C   0  0  0  0  0  0  0  0  0  0  0  0
  161.7140  209.0180  156.0470 O   0  0  0  0  0  0  0  0  0  0  0  0
  161.3060  208.6930  153.3510 C   0  0  0  0  0  2  0  0  0  0  0  0
  160.8860  208.0570  152.0340 C   0  0  0  0  0  2  0  0  0  0  0  0
  160.9610  206.5370  152.1070 C   0  0  2  0  0  3  0  0  0  0  0  0
  161.7270  206.0850  153.3450 C   0  0  0  0  0  1  0  0  0  0  0  0
  161.5470  205.9600  150.8120 C   0  0  2  0  0  3  0  0  0  0  0  0
  161.5820  207.0040  149.7060 C   0  0  0  0  0  1  0  0  0  0  0  0
  160.8810  204.6960  150.3560 C   0  0  0  0  0  0  0  0  0  0  0  0
  160.4260  203.8690  151.1900 O   0  0  0  0  0  1  0  0  0  0  0  0
  160.7920  204.4210  148.9970 O   0  0  0  0  0  0  0  0  0  0  0  0
  1 11  1  6  0  0  0
  1  4  1  0  0  0  0
  1  3  1  0  0  0  0
  2  7  1  0  0  0  0
  2 16  1  1  0  0  0
  3  6  1  6  0  0  0
  3  7  1  0  0  0  0
  4 18  1  0  0  0  0
  4  2  1  0  0  0  0
  6  7  1  0  0  0  0
  7  5  1  1  0  0  0
  8 13  1  0  0  0  0
  9 13  1  0  0  0  0
 10 11  2  0  0  0  0
 12 11  1  0  0  0  0
 13 12  1  6  0  0  0
 14  9  1  6  0  0  0
 14  8  1  0  0  0  0
 14 13  1  0  0  0  0
 16 17  2  0  0  0  0
 16 15  1  0  0  0  0
 19 20  1  0  0  0  0
 19 18  1  0  0  0  0
 20 21  1  1  0  0  0
 22 23  1  6  0  0  0
 22 20  1  0  0  0  0
 24 22  1  0  0  0  0
 24 25  1  0  0  0  0
 26 24  2  0  0  0  0
M  END
>  <MODEL>
2

>  <REMARK>
 VINA RESULT:      -5.6      2.837      4.009
  Name = 
  7 active torsions:
  status: ('A' for Active; 'I' for Inactive)
    1  A    between atoms: C_1  and  C_12
    2  A    between atoms: C_2  and  C_13
    3  A    between atoms: C_3  and  C_13
    4  A    between atoms: C_3  and  C_25
    5  A    between atoms: C_5  and  N_17
    6  A    between atoms: C_5  and  C_25
    7  A    between atoms: C_6  and  C_19
                            x       y       z     vdW  Elec       q    Type
                         _______ _______ _______ _____ _____    ______ ____

>  <TORSDO>
F 7

$$$$
=
 OpenBabel11072414383D

 26 29  0  0  1  0  0  0  0  0999 V2000
  162.2250  207.7590  150.0430 C   0  0  2  0  0  3  0  0  0  0  0  0
  160.7900  208.4700  151.7400 C   0  0  1  0  0  3  0  0  0  0  0  0
  162.4640  206.7820  151.2020 C   0  0  2  0  0  3  0  0  0  0  0  0
  161.4570  208.9160  150.5070 N   0  0  0  0  0  0  0  0  0  0  0  0
  162.0570  207.1970  153.5360 O   0  0  0  0  0  1  0  0  0  0  0  0
  161.2560  205.9170  151.5640 C   0  0  0  0  0  2  0  0  0  0  0  0
  161.4910  207.2300  152.2620 C   0  0  1  0  0  0  0  0  0  0  0  0
  160.5990  205.7480  146.1260 O   0  0  0  0  0  0  0  0  0  0  0  0
  162.4860  205.7300  145.4150 N   0  0  0  0  0  2  0  0  0  0  0  0
  160.3610  206.8910  148.8110 O   0  0  0  0  0  0  0  0  0  0  0  0
  161.6000  207.1260  148.8370 C   0  0  0  0  0  0  0  0  0  0  0  0
  162.4300  206.7650  147.7320 N   0  0  0  0  0  2  0  0  0  0  0  0
  161.9190  206.1510  146.5500 C   0  0  1  0  0  0  0  0  0  0  0  0
  161.2140  205.3390  145.0000 C   0  0  2  0  0  3  0  0  0  0  0  0
  161.2520  209.6340  153.9390 N   0  0  0  0  0  1  0  0  0  0  0  0
  160.4760  209.5430  152.7500 C   0  0  0  0  0  0  0  0  0  0  0  0
  159.5140  210.3380  152.5720 O   0  0  0  0  0  0  0  0  0  0  0  0
  162.4380  209.9680  150.7690 C   0  0  0  0  0  2  0  0  0  0  0  0
  161.9360  211.3050  150.2440 C   0  0  0  0  0  2  0  0  0  0  0  0
  162.0190  211.3670  148.7230 C   0  0  2  0  0  3  0  0  0  0  0  0
  163.4010  211.8220  148.2680 C   0  0  0  0  0  1  0  0  0  0  0  0
  160.8950  212.2420  148.1540 C   0  0  2  0  0  3  0  0  0  0  0  0
  161.1640  212.6160  146.7050 C   0  0  0  0  0  1  0  0  0  0  0  0
  160.5870  213.4510  148.9880 C   0  0  0  0  0  0  0  0  0  0  0  0
  161.3730  214.4360  149.0120 O   0  0  0  0  0  0  0  0  0  0  0  0
  159.4360  213.4720  149.7630 O   0  0  0  0  0  1  0  0  0  0  0  0
  1 11  1  6  0  0  0
  1  4  1  0  0  0  0
  1  3  1  0  0  0  0
  2  7  1  0  0  0  0
  2 16  1  1  0  0  0
  3  6  1  6  0  0  0
  3  7  1  0  0  0  0
  4 18  1  0  0  0  0
  4  2  1  0  0  0  0
  6  7  1  0  0  0  0
  7  5  1  1  0  0  0
  8 13  1  0  0  0  0
  9 13  1  0  0  0  0
 10 11  2  0  0  0  0
 12 11  1  0  0  0  0
 13 12  1  1  0  0  0
 14  9  1  1  0  0  0
 14  8  1  0  0  0  0
 14 13  1  0  0  0  0
 16 15  1  0  0  0  0
 17 16  2  0  0  0  0
 19 18  1  0  0  0  0
 20 21  1  1  0  0  0
 20 19  1  0  0  0  0
 22 23  1  6  0  0  0
 22 20  1  0  0  0  0
 22 24  1  0  0  0  0
 24 25  2  0  0  0  0
 24 26  1  0  0  0  0
M  END
>  <MODEL>
3

>  <REMARK>
 VINA RESULT:      -5.6      2.397      6.223
  Name = 
  7 active torsions:
  status: ('A' for Active; 'I' for Inactive)
    1  A    between atoms: C_1  and  C_12
    2  A    between atoms: C_2  and  C_13
    3  A    between atoms: C_3  and  C_13
    4  A    between atoms: C_3  and  C_25
    5  A    between atoms: C_5  and  N_17
    6  A    between atoms: C_5  and  C_25
    7  A    between atoms: C_6  and  C_19
                            x       y       z     vdW  Elec       q    Type
                         _______ _______ _______ _____ _____    ______ ____

>  <TORSDO>
F 7

$$$$
=
 OpenBabel11072414383D

 26 29  0  0  1  0  0  0  0  0999 V2000
  162.0360  206.5810  151.6020 C   0  0  2  0  0  3  0  0  0  0  0  0
  160.8720  207.1500  149.6620 C   0  0  1  0  0  3  0  0  0  0  0  0
  162.6960  207.8750  151.1060 C   0  0  2  0  0  3  0  0  0  0  0  0
  161.1690  206.0240  150.5610 N   0  0  0  0  0  0  0  0  0  0  0  0
  162.7060  208.7080  148.8500 O   0  0  0  0  0  1  0  0  0  0  0  0
  161.7820  209.1000  151.1220 C   0  0  0  0  0  2  0  0  0  0  0  0
  161.8940  208.2480  149.8860 C   0  0  1  0  0  0  0  0  0  0  0  0
  159.9360  207.3670  155.7250 O   0  0  0  0  0  0  0  0  0  0  0  0
  161.0120  209.0650  155.8890 N   0  0  0  0  0  2  0  0  0  0  0  0
  160.4560  205.8750  153.2610 O   0  0  0  0  0  0  0  0  0  0  0  0
  161.3120  206.7310  152.9060 C   0  0  0  0  0  0  0  0  0  0  0  0
  161.5810  207.8710  153.7230 N   0  0  0  0  0  2  0  0  0  0  0  0
  160.9310  208.0960  154.9730 C   0  0  2  0  0  0  0  0  0  0  0  0
  160.0530  208.3660  156.6210 C   0  0  2  0  0  3  0  0  0  0  0  0
  161.4870  207.1600  147.2080 N   0  0  0  0  0  1  0  0  0  0  0  0
  160.5690  206.7930  148.2290 C   0  0  0  0  0  0  0  0  0  0  0  0
  159.4970  206.2030  147.9230 O   0  0  0  0  0  0  0  0  0  0  0  0
  161.9580  204.9890  149.8950 C   0  0  0  0  0  2  0  0  0  0  0  0
  161.1560  203.7010  149.7820 C   0  0  0  0  0  2  0  0  0  0  0  0
  161.5790  202.8920  148.5620 C   0  0  2  0  0  3  0  0  0  0  0  0
  161.9560  203.8080  147.4020 C   0  0  0  0  0  1  0  0  0  0  0  0
  160.4940  201.8780  148.1800 C   0  0  2  0  0  3  0  0  0  0  0  0
  160.0430  201.0690  149.3860 C   0  0  0  0  0  1  0  0  0  0  0  0
  160.8710  200.9900  147.0300 C   0  0  0  0  0  0  0  0  0  0  0  0
  161.5810  199.9660  147.2120 O   0  0  0  0  0  1  0  0  0  0  0  0
  160.4550  201.3190  145.7470 O   0  0  0  0  0  0  0  0  0  0  0  0
  1 11  1  1  0  0  0
  2 16  1  6  0  0  0
  2  7  1  0  0  0  0
  2  4  1  0  0  0  0
  3  6  1  1  0  0  0
  3  1  1  0  0  0  0
  4  1  1  0  0  0  0
  7  5  1  6  0  0  0
  7  3  1  0  0  0  0
  7  6  1  0  0  0  0
  9 14  1  0  0  0  0
 11 10  2  0  0  0  0
 11 12  1  0  0  0  0
 13 12  1  1  0  0  0
 13  8  1  0  0  0  0
 13  9  1  0  0  0  0
 13 14  1  0  0  0  0
 14  8  1  6  0  0  0
 15 16  1  0  0  0  0
 17 16  2  0  0  0  0
 18  4  1  0  0  0  0
 19 18  1  0  0  0  0
 20 21  1  6  0  0  0
 20 19  1  0  0  0  0
 22 20  1  0  0  0  0
 22 23  1  1  0  0  0
 24 25  1  0  0  0  0
 24 22  1  0  0  0  0
 26 24  2  0  0  0  0
M  END
>  <MODEL>
4

>  <REMARK>
 VINA RESULT:      -5.0      2.610      5.121
  Name = 
  7 active torsions:
  status: ('A' for Active; 'I' for Inactive)
    1  A    between atoms: C_1  and  C_12
    2  A    between atoms: C_2  and  C_13
    3  A    between atoms: C_3  and  C_13
    4  A    between atoms: C_3  and  C_25
    5  A    between atoms: C_5  and  N_17
    6  A    between atoms: C_5  and  C_25
    7  A    between atoms: C_6  and  C_19
                            x       y       z     vdW  Elec       q    Type
                         _______ _______ _______ _____ _____    ______ ____

>  <TORSDO>
F 7

$$$$
=
 OpenBabel11072414383D

 26 29  0  0  1  0  0  0  0  0999 V2000
  161.6890  208.0960  153.3510 C   0  0  2  0  0  3  0  0  0  0  0  0
  159.9660  209.6360  153.6700 C   0  0  1  0  0  3  0  0  0  0  0  0
  161.5090  208.1820  154.8720 C   0  0  2  0  0  3  0  0  0  0  0  0
  160.9720  209.1910  152.6930 N   0  0  0  0  0  0  0  0  0  0  0  0
  160.5760  210.0240  156.1050 O   0  0  0  0  0  1  0  0  0  0  0  0
  160.1550  207.6860  155.3800 C   0  0  0  0  0  2  0  0  0  0  0  0
  160.3590  209.1400  155.0480 C   0  0  1  0  0  0  0  0  0  0  0  0
  160.5890  204.0680  151.2090 O   0  0  0  0  0  0  0  0  0  0  0  0
  160.8310  205.0030  149.4390 N   0  0  0  0  0  2  0  0  0  0  0  0
  161.0840  205.7830  153.5280 O   0  0  0  0  0  0  0  0  0  0  0  0
  161.3200  206.7640  152.7710 C   0  0  0  0  0  0  0  0  0  0  0  0
  161.2700  206.6130  151.3510 N   0  0  0  0  0  2  0  0  0  0  0  0
  160.9370  205.3800  150.7170 C   0  0  1  0  0  0  0  0  0  0  0  0
  160.4940  203.7340  149.9070 C   0  0  2  0  0  3  0  0  0  0  0  0
  158.5310  211.4420  152.6310 N   0  0  0  0  0  1  0  0  0  0  0  0
  159.5350  211.0770  153.5690 C   0  0  0  0  0  0  0  0  0  0  0  0
  160.0780  211.9660  154.2790 O   0  0  0  0  0  0  0  0  0  0  0  0
  161.9720  210.2250  152.4320 C   0  0  0  0  0  2  0  0  0  0  0  0
  162.6550  209.9770  151.0950 C   0  0  0  0  0  2  0  0  0  0  0  0
  161.7460  210.3550  149.9320 C   0  0  2  0  0  3  0  0  0  0  0  0
  161.9560  209.4210  148.7460 C   0  0  0  0  0  1  0  0  0  0  0  0
  161.9310  211.8310  149.5570 C   0  0  2  0  0  3  0  0  0  0  0  0
  160.7370  212.6670  149.9920 C   0  0  0  0  0  1  0  0  0  0  0  0
  162.2620  212.0520  148.1110 C   0  0  0  0  0  0  0  0  0  0  0  0
  163.4560  212.1980  147.7370 O   0  0  0  0  0  1  0  0  0  0  0  0
  161.2370  212.1240  147.1770 O   0  0  0  0  0  0  0  0  0  0  0  0
  1 11  1  6  0  0  0
  1  3  1  0  0  0  0
  2 16  1  1  0  0  0
  2  7  1  0  0  0  0
  3  7  1  0  0  0  0
  3  6  1  6  0  0  0
  4  1  1  0  0  0  0
  4  2  1  0  0  0  0
  7  6  1  0  0  0  0
  7  5  1  1  0  0  0
  9 13  1  0  0  0  0
 11 10  2  0  0  0  0
 12 11  1  0  0  0  0
 13  8  1  0  0  0  0
 13 12  1  6  0  0  0
 14  9  1  6  0  0  0
 14 13  1  0  0  0  0
 14  8  1  0  0  0  0
 15 16  1  0  0  0  0
 16 17  2  0  0  0  0
 18  4  1  0  0  0  0
 19 18  1  0  0  0  0
 20 21  1  6  0  0  0
 20 19  1  0  0  0  0
 22 20  1  0  0  0  0
 22 23  1  6  0  0  0
 24 22  1  0  0  0  0
 25 24  1  0  0  0  0
 26 24  2  0  0  0  0
M  END
>  <MODEL>
5

>  <REMARK>
 VINA RESULT:      -4.8      2.862      6.445
  Name = 
  7 active torsions:
  status: ('A' for Active; 'I' for Inactive)
    1  A    between atoms: C_1  and  C_12
    2  A    between atoms: C_2  and  C_13
    3  A    between atoms: C_3  and  C_13
    4  A    between atoms: C_3  and  C_25
    5  A    between atoms: C_5  and  N_17
    6  A    between atoms: C_5  and  C_25
    7  A    between atoms: C_6  and  C_19
                            x       y       z     vdW  Elec       q    Type
                         _______ _______ _______ _____ _____    ______ ____

>  <TORSDO>
F 7

$$$$
=
 OpenBabel11072414383D

 26 29  0  0  1  0  0  0  0  0999 V2000
  162.0120  205.8280  151.9450 C   0  0  2  0  0  3  0  0  0  0  0  0
  160.8110  207.7850  152.3630 C   0  0  1  0  0  3  0  0  0  0  0  0
  162.1550  206.0680  153.4540 C   0  0  2  0  0  3  0  0  0  0  0  0
  161.4700  207.0220  151.2920 N   0  0  0  0  0  0  0  0  0  0  0  0
  161.9550  208.1750  154.5970 O   0  0  0  0  0  1  0  0  0  0  0  0
  160.8450  205.9820  154.2380 C   0  0  0  0  0  2  0  0  0  0  0  0
  161.3290  207.3040  153.7050 C   0  0  1  0  0  0  0  0  0  0  0  0
  159.7170  201.9810  150.5440 O   0  0  0  0  0  0  0  0  0  0  0  0
  160.6630  202.1270  148.7690 N   0  0  0  0  0  2  0  0  0  0  0  0
  160.4540  204.0770  152.4500 O   0  0  0  0  0  0  0  0  0  0  0  0
  161.2240  204.6010  151.5990 C   0  0  0  0  0  0  0  0  0  0  0  0
  161.3810  204.0160  150.3050 N   0  0  0  0  0  2  0  0  0  0  0  0
  160.6780  202.8440  149.8970 C   0  0  2  0  0  0  0  0  0  0  0  0
  159.7340  201.2920  149.3870 C   0  0  2  0  0  3  0  0  0  0  0  0
  161.8950  209.9900  151.7590 N   0  0  0  0  0  1  0  0  0  0  0  0
  160.7330  209.2760  152.1650 C   0  0  0  0  0  0  0  0  0  0  0  0
  159.6620  209.9030  152.3860 O   0  0  0  0  0  0  0  0  0  0  0  0
  162.6220  207.7360  150.7440 C   0  0  0  0  0  2  0  0  0  0  0  0
  163.0880  207.0810  149.4530 C   0  0  0  0  0  2  0  0  0  0  0  0
  162.5540  207.8230  148.2330 C   0  0  2  0  0  3  0  0  0  0  0  0
  161.9580  209.1700  148.6300 C   0  0  0  0  0  1  0  0  0  0  0  0
  161.5630  206.9480  147.4570 C   0  0  2  0  0  3  0  0  0  0  0  0
  160.4620  206.4200  148.3630 C   0  0  0  0  0  1  0  0  0  0  0  0
  162.2120  205.8440  146.6750 C   0  0  0  0  0  0  0  0  0  0  0  0
  162.7020  206.0620  145.5350 O   0  0  0  0  0  0  0  0  0  0  0  0
  162.2480  204.5610  147.2040 O   0  0  0  0  0  1  0  0  0  0  0  0
  1 11  1  1  0  0  0
  1  3  1  0  0  0  0
  2 16  1  6  0  0  0
  2  7  1  0  0  0  0
  3  7  1  0  0  0  0
  3  6  1  1  0  0  0
  4  1  1  0  0  0  0
  4  2  1  0  0  0  0
  7  6  1  0  0  0  0
  7  5  1  1  0  0  0
  9 13  1  0  0  0  0
 11 10  2  0  0  0  0
 12 11  1  0  0  0  0
 13 12  1  6  0  0  0
 13  8  1  0  0  0  0
 14  9  1  1  0  0  0
 14 13  1  0  0  0  0
 14  8  1  0  0  0  0
 15 16  1  0  0  0  0
 16 17  2  0  0  0  0
 18  4  1  0  0  0  0
 19 18  1  0  0  0  0
 20 21  1  1  0  0  0
 20 19  1  0  0  0  0
 22 20  1  0  0  0  0
 22 23  1  1  0  0  0
 24 26  1  0  0  0  0
 24 22  1  0  0  0  0
 25 24  2  0  0  0  0
M  END
>  <MODEL>
6

>  <REMARK>
 VINA RESULT:      -4.7      2.537      5.645
  Name = 
  7 active torsions:
  status: ('A' for Active; 'I' for Inactive)
    1  A    between atoms: C_1  and  C_12
    2  A    between atoms: C_2  and  C_13
    3  A    between atoms: C_3  and  C_13
    4  A    between atoms: C_3  and  C_25
    5  A    between atoms: C_5  and  N_17
    6  A    between atoms: C_5  and  C_25
    7  A    between atoms: C_6  and  C_19
                            x       y       z     vdW  Elec       q    Type
                         _______ _______ _______ _____ _____    ______ ____

>  <TORSDO>
F 7

$$$$
=
 OpenBabel11072414383D

 26 29  0  0  1  0  0  0  0  0999 V2000
  161.0550  210.2800  152.9110 C   0  0  2  0  0  3  0  0  0  0  0  0
  159.3540  210.4330  154.5000 C   0  0  1  0  0  3  0  0  0  0  0  0
  161.7450  210.0260  154.2580 C   0  0  2  0  0  3  0  0  0  0  0  0
  159.7090  210.8140  153.1250 N   0  0  0  0  0  0  0  0  0  0  0  0
  160.9850  210.7580  156.4190 O   0  0  0  0  0  1  0  0  0  0  0  0
  161.2860  208.7580  154.9780 C   0  0  0  0  0  2  0  0  0  0  0  0
  160.6190  210.0780  155.2580 C   0  0  1  0  0  0  0  0  0  0  0  0
  161.2240  206.7310  149.8440 O   0  0  0  0  0  0  0  0  0  0  0  0
  162.3250  207.9040  148.6270 N   0  0  0  0  0  2  0  0  0  0  0  0
  160.4610  208.0250  152.3560 O   0  0  0  0  0  0  0  0  0  0  0  0
  161.0410  209.0870  152.0030 C   0  0  0  0  0  0  0  0  0  0  0  0
  161.7200  209.1610  150.7480 N   0  0  0  0  0  2  0  0  0  0  0  0
  161.7640  208.0700  149.8290 C   0  0  2  0  0  0  0  0  0  0  0  0
  161.8050  206.6100  148.6350 C   0  0  2  0  0  3  0  0  0  0  0  0
  156.9880  211.0130  155.1840 N   0  0  0  0  0  1  0  0  0  0  0  0
  158.3740  211.3330  155.2070 C   0  0  0  0  0  0  0  0  0  0  0  0
  158.7620  212.3820  155.7890 O   0  0  0  0  0  0  0  0  0  0  0  0
  159.8250  212.2650  152.9750 C   0  0  0  0  0  2  0  0  0  0  0  0
  159.9760  212.6360  151.5070 C   0  0  0  0  0  2  0  0  0  0  0  0
  159.5410  214.0750  151.2550 C   0  0  2  0  0  3  0  0  0  0  0  0
  158.3490  214.4480  152.1300 C   0  0  0  0  0  1  0  0  0  0  0  0
  159.2690  214.3060  149.7630 C   0  0  2  0  0  3  0  0  0  0  0  0
  157.9640  213.6560  149.3310 C   0  0  0  0  0  1  0  0  0  0  0  0
  160.4070  213.9060  148.8700 C   0  0  0  0  0  0  0  0  0  0  0  0
  161.5450  214.4290  149.0030 O   0  0  0  0  0  1  0  0  0  0  0  0
  160.1940  212.9690  147.8680 O   0  0  0  0  0  0  0  0  0  0  0  0
  1 11  1  1  0  0  0
  1  4  1  0  0  0  0
  1  3  1  0  0  0  0
  2 16  1  1  0  0  0
  2  7  1  0  0  0  0
  3  6  1  6  0  0  0
  3  7  1  0  0  0  0
  4  2  1  0  0  0  0
  6  7  1  0  0  0  0
  7  5  1  1  0  0  0
  9 13  1  0  0  0  0
 11 10  2  0  0  0  0
 12 11  1  0  0  0  0
 13  8  1  0  0  0  0
 13 12  1  6  0  0  0
 14  9  1  1  0  0  0
 14 13  1  0  0  0  0
 14  8  1  0  0  0  0
 15 16  1  0  0  0  0
 16 17  2  0  0  0  0
 18  4  1  0  0  0  0
 19 18  1  0  0  0  0
 20 19  1  0  0  0  0
 20 21  1  1  0  0  0
 22 23  1  6  0  0  0
 22 20  1  0  0  0  0
 24 25  1  0  0  0  0
 24 22  1  0  0  0  0
 26 24  2  0  0  0  0
M  END
>  <MODEL>
7

>  <REMARK>
 VINA RESULT:      -4.7      3.584      7.114
  Name = 
  7 active torsions:
  status: ('A' for Active; 'I' for Inactive)
    1  A    between atoms: C_1  and  C_12
    2  A    between atoms: C_2  and  C_13
    3  A    between atoms: C_3  and  C_13
    4  A    between atoms: C_3  and  C_25
    5  A    between atoms: C_5  and  N_17
    6  A    between atoms: C_5  and  C_25
    7  A    between atoms: C_6  and  C_19
                            x       y       z     vdW  Elec       q    Type
                         _______ _______ _______ _____ _____    ______ ____

>  <TORSDO>
F 7

$$$$
=
 OpenBabel11072414383D

 26 29  0  0  1  0  0  0  0  0999 V2000
  161.9570  208.0490  151.3730 C   0  0  2  0  0  3  0  0  0  0  0  0
  160.3950  209.3100  152.5630 C   0  0  1  0  0  3  0  0  0  0  0  0
  162.2430  207.7470  152.8500 C   0  0  2  0  0  3  0  0  0  0  0  0
  161.0630  209.2040  151.2560 N   0  0  0  0  0  0  0  0  0  0  0  0
  161.7080  209.1470  154.7310 O   0  0  0  0  0  1  0  0  0  0  0  0
  161.1110  207.0270  153.5820 C   0  0  0  0  0  2  0  0  0  0  0  0
  161.1910  208.5310  153.5920 C   0  0  1  0  0  0  0  0  0  0  0  0
  160.4720  204.1480  149.2250 O   0  0  0  0  0  0  0  0  0  0  0  0
  161.3060  203.0740  150.7150 N   0  0  0  0  0  2  0  0  0  0  0  0
  160.7880  207.0420  149.5380 O   0  0  0  0  0  0  0  0  0  0  0  0
  161.4420  206.8710  150.6020 C   0  0  0  0  0  0  0  0  0  0  0  0
  161.6760  205.5550  151.1060 N   0  0  0  0  0  2  0  0  0  0  0  0
  161.2150  204.3800  150.4420 C   0  0  2  0  0  0  0  0  0  0  0  0
  160.5900  202.8440  149.5410 C   0  0  2  0  0  3  0  0  0  0  0  0
  158.5810  211.0600  152.7750 N   0  0  0  0  0  1  0  0  0  0  0  0
  159.9400  210.6890  152.9650 C   0  0  0  0  0  0  0  0  0  0  0  0
  160.7560  211.5280  153.4350 O   0  0  0  0  0  0  0  0  0  0  0  0
  161.9280  210.3530  150.9920 C   0  0  0  0  0  2  0  0  0  0  0  0
  161.7940  210.7960  149.5420 C   0  0  0  0  0  2  0  0  0  0  0  0
  161.6520  212.3100  149.4380 C   0  0  2  0  0  3  0  0  0  0  0  0
  160.4670  212.8070  150.2600 C   0  0  0  0  0  1  0  0  0  0  0  0
  161.5740  212.7480  147.9710 C   0  0  2  0  0  3  0  0  0  0  0  0
  160.5430  211.9340  147.2040 C   0  0  0  0  0  1  0  0  0  0  0  0
  162.9000  212.7590  147.2700 C   0  0  0  0  0  0  0  0  0  0  0  0
  163.9550  212.4410  147.8790 O   0  0  0  0  0  1  0  0  0  0  0  0
  162.9680  213.1530  145.9400 O   0  0  0  0  0  0  0  0  0  0  0  0
  1 11  1  1  0  0  0
  1  3  1  0  0  0  0
  2 16  1  1  0  0  0
  2  7  1  0  0  0  0
  3  6  1  6  0  0  0
  3  7  1  0  0  0  0
  4  1  1  0  0  0  0
  4  2  1  0  0  0  0
  6  7  1  0  0  0  0
  7  5  1  1  0  0  0
  8 13  1  0  0  0  0
 10 11  2  0  0  0  0
 11 12  1  0  0  0  0
 13  9  1  0  0  0  0
 13 12  1  6  0  0  0
 14  8  1  1  0  0  0
 14 13  1  0  0  0  0
 14  9  1  0  0  0  0
 15 16  1  0  0  0  0
 16 17  2  0  0  0  0
 18  4  1  0  0  0  0
 19 18  1  0  0  0  0
 20 19  1  0  0  0  0
 20 21  1  1  0  0  0
 22 23  1  6  0  0  0
 22 20  1  0  0  0  0
 24 25  1  0  0  0  0
 24 22  1  0  0  0  0
 26 24  2  0  0  0  0
M  END
>  <MODEL>
8

>  <REMARK>
 VINA RESULT:      -4.7      2.536      6.610
  Name = 
  7 active torsions:
  status: ('A' for Active; 'I' for Inactive)
    1  A    between atoms: C_1  and  C_12
    2  A    between atoms: C_2  and  C_13
    3  A    between atoms: C_3  and  C_13
    4  A    between atoms: C_3  and  C_25
    5  A    between atoms: C_5  and  N_17
    6  A    between atoms: C_5  and  C_25
    7  A    between atoms: C_6  and  C_19
                            x       y       z     vdW  Elec       q    Type
                         _______ _______ _______ _____ _____    ______ ____

>  <TORSDO>
F 7

$$$$
=
 OpenBabel11072414383D

 26 29  0  0  1  0  0  0  0  0999 V2000
  160.7350  206.9500  150.8390 C   0  0  2  0  0  3  0  0  0  0  0  0
  162.3590  208.6190  150.6910 C   0  0  1  0  0  3  0  0  0  0  0  0
  160.8160  207.2960  149.3460 C   0  0  2  0  0  3  0  0  0  0  0  0
  161.4390  207.9610  151.6310 N   0  0  0  0  0  0  0  0  0  0  0  0
  161.5810  209.3660  148.3920 O   0  0  0  0  0  1  0  0  0  0  0  0
  162.1570  206.9690  148.6900 C   0  0  0  0  0  2  0  0  0  0  0  0
  161.9050  208.3340  149.2720 C   0  0  1  0  0  0  0  0  0  0  0  0
  161.9710  202.4890  151.6130 O   0  0  0  0  0  0  0  0  0  0  0  0
  160.5810  201.9250  150.2650 N   0  0  0  0  0  2  0  0  0  0  0  0
  162.1390  205.3860  151.9930 O   0  0  0  0  0  0  0  0  0  0  0  0
  161.2030  205.5640  151.1660 C   0  0  0  0  0  0  0  0  0  0  0  0
  160.5970  204.4520  150.5060 N   0  0  0  0  0  2  0  0  0  0  0  0
  160.9880  203.1020  150.7510 C   0  0  1  0  0  0  0  0  0  0  0  0
  161.5280  201.3270  151.0950 C   0  0  2  0  0  3  0  0  0  0  0  0
  162.3400  211.0820  150.1160 N   0  0  0  0  0  1  0  0  0  0  0  0
  162.7260  210.0450  151.0090 C   0  0  0  0  0  0  0  0  0  0  0  0
  163.3990  210.3260  152.0380 O   0  0  0  0  0  0  0  0  0  0  0  0
  160.4080  208.8780  152.1160 C   0  0  0  0  0  2  0  0  0  0  0  0
  160.4550  208.9760  153.6330 C   0  0  0  0  0  2  0  0  0  0  0  0
  159.8970  210.3080  154.1180 C   0  0  2  0  0  3  0  0  0  0  0  0
  160.2080  211.4250  153.1280 C   0  0  0  0  0  1  0  0  0  0  0  0
  160.3960  210.6230  155.5340 C   0  0  2  0  0  3  0  0  0  0  0  0
  160.2730  212.1050  155.8480 C   0  0  0  0  0  1  0  0  0  0  0  0
  161.7790  210.1120  155.8170 C   0  0  0  0  0  0  0  0  0  0  0  0
  162.7920  210.7030  155.3570 O   0  0  0  0  0  0  0  0  0  0  0  0
  161.9400  208.9570  156.5710 O   0  0  0  0  0  1  0  0  0  0  0  0
  1 11  1  6  0  0  0
  1  4  1  0  0  0  0
  2 16  1  1  0  0  0
  2  4  1  0  0  0  0
  3  6  1  6  0  0  0
  3  1  1  0  0  0  0
  4 18  1  0  0  0  0
  6  7  1  0  0  0  0
  7  5  1  6  0  0  0
  7  3  1  0  0  0  0
  7  2  1  0  0  0  0
  9 13  1  0  0  0  0
 11 10  2  0  0  0  0
 12 11  1  0  0  0  0
 13 12  1  6  0  0  0
 13 14  1  0  0  0  0
 13  8  1  0  0  0  0
 14  9  1  6  0  0  0
 14  8  1  0  0  0  0
 15 16  1  0  0  0  0
 16 17  2  0  0  0  0
 18 19  1  0  0  0  0
 19 20  1  0  0  0  0
 20 21  1  6  0  0  0
 20 22  1  0  0  0  0
 22 24  1  0  0  0  0
 22 23  1  6  0  0  0
 24 26  1  0  0  0  0
 25 24  2  0  0  0  0
M  END
>  <MODEL>
9

>  <REMARK>
 VINA RESULT:      -4.5      2.753      7.806
  Name = 
  7 active torsions:
  status: ('A' for Active; 'I' for Inactive)
    1  A    between atoms: C_1  and  C_12
    2  A    between atoms: C_2  and  C_13
    3  A    between atoms: C_3  and  C_13
    4  A    between atoms: C_3  and  C_25
    5  A    between atoms: C_5  and  N_17
    6  A    between atoms: C_5  and  C_25
    7  A    between atoms: C_6  and  C_19
                            x       y       z     vdW  Elec       q    Type
                         _______ _______ _______ _____ _____    ______ ____

>  <TORSDO>
F 7

$$$$
