=
 OpenBabel11072412363D

 51 54  0  0  1  0  0  0  0  0999 V2000
  161.9820  210.8750  151.4930 C   0  0  2  0  0  3  0  0  0  0  0  0
  161.2060  208.5880  153.1520 C   0  0  0  0  0  2  0  0  0  0  0  0
  161.6510  209.9580  153.7000 C   0  0  1  0  0  3  0  0  0  0  0  0
  161.7200  209.4930  150.8600 C   0  0  0  0  0  2  0  0  0  0  0  0
  160.7600  208.6510  151.6940 C   0  0  1  0  0  3  0  0  0  0  0  0
  161.3460  211.0950  152.8090 N   0  0  0  0  0  0  0  0  0  0  0  0
  159.8200  213.2330  149.6440 C   0  0  0  0  0  0  0  0  0  0  0  0
  161.0380  213.7820  146.3400 C   0  0  0  0  0  3  0  0  0  0  0  0
  160.4060  212.5750  150.6030 N   0  0  0  0  0  0  0  0  0  0  0  0
  163.7200  211.6040  148.9850 C   0  0  0  0  0  1  0  0  0  0  0  0
  162.2060  211.6490  149.0830 C   0  0  1  0  0  3  0  0  0  0  0  0
  160.1620  214.0230  147.2970 O   0  0  0  0  0  0  0  0  0  0  0  0
  161.7840  212.0450  150.5190 C   0  0  2  0  0  3  0  0  0  0  0  0
  158.4950  213.7320  149.8470 N   0  0  0  0  0  2  0  0  0  0  0  0
  160.5080  213.3320  148.3510 C   0  0  0  0  0  0  0  0  0  0  0  0
  161.6450  212.6310  148.1000 C   0  0  0  0  0  0  0  0  0  0  0  0
  162.0020  212.8810  146.7900 C   0  0  0  0  0  3  0  0  0  0  0  0
  157.7390  214.4530  148.8310 C   0  0  0  0  0  2  0  0  0  0  0  0
  156.4810  212.4230  149.0410 O   0  0  0  0  0  1  0  0  0  0  0  0
  156.5870  213.6050  148.3090 C   0  0  2  0  0  3  0  0  0  0  0  0
  157.4240  212.2720  146.4280 C   0  0  0  0  0  2  0  0  0  0  0  0
  156.7240  213.3280  146.8370 C   0  0  0  0  0  0  0  0  0  0  0  0
  156.0940  214.2110  145.8130 C   0  0  0  0  0  1  0  0  0  0  0  0
  161.1280  210.1650  154.9790 O   0  0  0  0  0  0  0  0  0  0  0  0
  160.5610  208.9420  155.3340 C   0  0  0  0  0  1  0  0  0  0  0  0
  159.8990  211.3000  152.6820 C   0  0  0  0  0  2  0  0  0  0  0  0
  159.4590  212.4620  153.5540 C   0  0  0  0  0  2  0  0  0  0  0  0
  157.1120  212.4130  153.1420 O   0  0  0  0  0  0  0  0  0  0  0  0
  158.0440  212.2650  153.9760 C   0  0  0  0  0  0  0  0  0  0  0  0
  157.7580  211.9220  155.3310 N   0  0  0  0  0  2  0  0  0  0  0  0
  156.4010  211.8330  155.8450 C   0  0  0  0  0  2  0  0  0  0  0  0
  154.9460  210.2960  154.7530 O   0  0  0  0  0  1  0  0  0  0  0  0
  155.9030  210.3990  155.7620 C   0  0  0  0  0  2  0  0  0  0  0  0
  160.6300  207.2530  151.1180 C   0  0  0  0  0  2  0  0  0  0  0  0
  162.2790  204.8440  151.1240 C   0  0  0  0  0  1  0  0  0  0  0  0
  159.8840  204.3550  149.5520 C   0  0  0  0  0  1  0  0  0  0  0  0
  160.5400  206.1020  148.0670 O   0  0  0  0  0  0  0  0  0  0  0  0
  162.0580  205.6200  149.8220 C   0  0  1  0  0  3  0  0  0  0  0  0
  161.0500  205.0310  148.8330 C   0  0  1  0  0  0  0  0  0  0  0  0
  161.6380  207.0510  149.9850 C   0  0  1  0  0  3  0  0  0  0  0  0
  161.8230  207.9730  147.8110 F   0  0  0  0  0  0  0  0  0  0  0  0
  160.9510  207.3170  148.6610 C   0  0  1  0  0  3  0  0  0  0  0  0
  161.7150  204.0250  147.9140 C   0  0  0  0  0  0  0  0  0  0  0  0
  162.3050  204.4240  146.8720 O   0  0  0  0  0  0  0  0  0  0  0  0
  161.7200  202.6500  148.1890 O   0  0  0  0  0  0  0  0  0  0  0  0
  161.3910  201.6490  147.2350 C   0  0  1  0  0  3  0  0  0  0  0  0
  161.3630  200.3140  147.8970 C   0  0  0  0  0  0  0  0  0  0  0  0
  161.2060  200.2400  149.1440 O   0  0  0  0  0  1  0  0  0  0  0  0
  161.5330  199.1540  147.1490 O   0  0  0  0  0  0  0  0  0  0  0  0
  160.0510  201.5990  145.1330 C   0  0  0  0  0  1  0  0  0  0  0  0
  160.0430  201.9630  146.6070 C   0  0  0  0  0  2  0  0  0  0  0  0
  1  4  1  6  0  0  0
  1  6  1  0  0  0  0
  2  3  1  0  0  0  0
  3 24  1  1  0  0  0
  4  5  1  0  0  0  0
  5 34  1  6  0  0  0
  5  2  1  0  0  0  0
  6  3  1  0  0  0  0
  7 14  1  0  0  0  0
  7  9  2  0  0  0  0
  8 17  2  0  0  0  0
  8 12  1  0  0  0  0
 11 10  1  1  0  0  0
 11 13  1  0  0  0  0
 12 15  1  0  0  0  0
 13  9  1  6  0  0  0
 13  1  1  0  0  0  0
 15  7  1  0  0  0  0
 16 15  2  0  0  0  0
 16 11  1  0  0  0  0
 17 16  1  0  0  0  0
 18 14  1  0  0  0  0
 20 18  1  0  0  0  0
 20 19  1  1  0  0  0
 21 22  2  0  0  0  0
 22 20  1  0  0  0  0
 23 22  1  0  0  0  0
 24 25  1  0  0  0  0
 26  6  1  0  0  0  0
 26 27  1  0  0  0  0
 27 29  1  0  0  0  0
 28 29  2  0  0  0  0
 29 30  1  0  0  0  0
 30 31  1  0  0  0  0
 32 33  1  0  0  0  0
 33 31  1  0  0  0  0
 37 42  1  0  0  0  0
 37 39  1  0  0  0  0
 38 40  1  0  0  0  0
 38 35  1  1  0  0  0
 39 36  1  1  0  0  0
 39 38  1  0  0  0  0
 40 34  1  1  0  0  0
 42 41  1  6  0  0  0
 42 40  1  0  0  0  0
 43 45  1  0  0  0  0
 43 39  1  0  0  0  0
 44 43  2  0  0  0  0
 46 51  1  1  0  0  0
 46 47  1  0  0  0  0
 46 45  1  0  0  0  0
 47 48  1  0  0  0  0
 49 47  2  0  0  0  0
 50 51  1  0  0  0  0
M  END
>  <MODEL>
1

>  <REMARK>
 VINA RESULT:      -3.1      0.000      0.000
  Name = 
  17 active torsions:
  status: ('A' for Active; 'I' for Inactive)
    1  A    between atoms: C_4  and  C_30
    2  A    between atoms: C_6  and  C_42
    3  A    between atoms: C_10  and  C_20
    4  A    between atoms: C_10  and  O_46
    5  A    between atoms: C_11  and  N_44
    6  A    between atoms: C_11  and  C_48
    7  A    between atoms: C_13  and  O_15
    8  A    between atoms: C_19  and  C_43
    9  A    between atoms: C_19  and  N_45
   10  A    between atoms: C_22  and  C_37
   11  A    between atoms: N_23  and  C_24
   12  A    between atoms: C_24  and  C_41
   13  A    between atoms: C_25  and  C_37
   14  A    between atoms: C_30  and  O_46
   15  A    between atoms: C_30  and  C_50
   16  A    between atoms: C_31  and  C_41
   17  A    between atoms: C_34  and  C_43
                            x       y       z     vdW  Elec       q    Type
                         _______ _______ _______ _____ _____    ______ ____

>  <TORSDO>
F 17

$$$$
=
 OpenBabel11072412363D

 51 54  0  0  1  0  0  0  0  0999 V2000
  161.8150  209.0500  151.7660 C   0  0  2  0  0  3  0  0  0  0  0  0
  162.6190  209.7340  149.0330 C   0  0  0  0  0  2  0  0  0  0  0  0
  162.8810  208.3750  149.7100 C   0  0  1  0  0  3  0  0  0  0  0  0
  161.6650  210.4910  151.2360 C   0  0  0  0  0  2  0  0  0  0  0  0
  161.5140  210.5330  149.7190 C   0  0  1  0  0  3  0  0  0  0  0  0
  161.8780  208.0010  150.7280 N   0  0  0  0  0  0  0  0  0  0  0  0
  159.8870  209.9960  154.7730 C   0  0  0  0  0  0  0  0  0  0  0  0
  159.9350  207.3960  157.2100 C   0  0  0  0  0  3  0  0  0  0  0  0
  160.3430  209.9460  153.5540 N   0  0  0  0  0  0  0  0  0  0  0  0
  161.5280  206.3290  153.3030 C   0  0  0  0  0  1  0  0  0  0  0  0
  161.4970  207.7210  153.9090 C   0  0  1  0  0  3  0  0  0  0  0  0
  159.5390  208.5900  156.8100 O   0  0  0  0  0  0  0  0  0  0  0  0
  160.8510  208.7140  152.9130 C   0  0  2  0  0  3  0  0  0  0  0  0
  159.3870  211.2370  155.2810 N   0  0  0  0  0  2  0  0  0  0  0  0
  160.0150  208.7980  155.6110 C   0  0  0  0  0  0  0  0  0  0  0  0
  160.7270  207.7180  155.1940 C   0  0  0  0  0  0  0  0  0  0  0  0
  160.7160  206.7960  156.2230 C   0  0  0  0  0  3  0  0  0  0  0  0
  158.8830  211.4090  156.6370 C   0  0  0  0  0  2  0  0  0  0  0  0
  156.8200  212.6200  156.4700 O   0  0  0  0  0  1  0  0  0  0  0  0
  158.1730  212.7490  156.7860 C   0  0  2  0  0  3  0  0  0  0  0  0
  159.9020  214.4520  156.4290 C   0  0  0  0  0  2  0  0  0  0  0  0
  158.8290  213.8190  155.9580 C   0  0  0  0  0  0  0  0  0  0  0  0
  158.3070  214.1980  154.6120 C   0  0  0  0  0  1  0  0  0  0  0  0
  163.0220  207.3710  148.7490 O   0  0  0  0  0  0  0  0  0  0  0  0
  162.6470  207.9710  147.5480 C   0  0  0  0  0  1  0  0  0  0  0  0
  160.5640  207.7630  150.1190 C   0  0  0  0  0  2  0  0  0  0  0  0
  160.1270  206.3310  150.3680 C   0  0  0  0  0  2  0  0  0  0  0  0
  160.3020  205.9580  148.0210 O   0  0  0  0  0  0  0  0  0  0  0  0
  160.4530  205.4920  149.1820 C   0  0  0  0  0  0  0  0  0  0  0  0
  160.9240  204.1590  149.3730 N   0  0  0  0  0  2  0  0  0  0  0  0
  161.1480  203.2430  148.2670 C   0  0  0  0  0  2  0  0  0  0  0  0
  161.4400  201.6800  150.0390 O   0  0  0  0  0  1  0  0  0  0  0  0
  160.9710  201.8070  148.7320 C   0  0  0  0  0  2  0  0  0  0  0  0
  161.5050  211.9650  149.2180 C   0  0  0  0  0  2  0  0  0  0  0  0
  159.3510  211.5180  147.2990 C   0  0  0  0  0  1  0  0  0  0  0  0
  159.6100  214.3700  147.7930 C   0  0  0  0  0  1  0  0  0  0  0  0
  161.8380  214.2830  146.9470 O   0  0  0  0  0  0  0  0  0  0  0  0
  160.6260  212.2480  146.8660 C   0  0  1  0  0  3  0  0  0  0  0  0
  160.5390  213.7700  146.7390 C   0  0  1  0  0  0  0  0  0  0  0  0
  161.8330  212.0070  147.7250 C   0  0  1  0  0  3  0  0  0  0  0  0
  163.6290  212.9410  146.4950 F   0  0  0  0  0  0  0  0  0  0  0  0
  162.6600  213.2420  147.4360 C   0  0  1  0  0  3  0  0  0  0  0  0
  160.0520  214.1740  145.3620 C   0  0  0  0  0  0  0  0  0  0  0  0
  158.8330  214.4520  145.1850 O   0  0  0  0  0  0  0  0  0  0  0  0
  160.9160  214.2710  144.2620 O   0  0  0  0  0  0  0  0  0  0  0  0
  161.3180  213.1630  143.4680 C   0  0  1  0  0  3  0  0  0  0  0  0
  160.8800  213.3710  142.0580 C   0  0  0  0  0  0  0  0  0  0  0  0
  160.3190  214.4510  141.7320 O   0  0  0  0  0  1  0  0  0  0  0  0
  161.0640  212.3710  141.1090 O   0  0  0  0  0  0  0  0  0  0  0  0
  163.5170  214.2690  143.0710 C   0  0  0  0  0  1  0  0  0  0  0  0
  162.8270  213.0000  143.5400 C   0  0  0  0  0  2  0  0  0  0  0  0
  1  4  1  6  0  0  0
  1 13  1  0  0  0  0
  2  3  1  0  0  0  0
  2  5  1  0  0  0  0
  3 24  1  6  0  0  0
  3  6  1  0  0  0  0
  5 34  1  6  0  0  0
  5  4  1  0  0  0  0
  6  1  1  0  0  0  0
  7 14  1  0  0  0  0
  7 15  1  0  0  0  0
  9  7  2  0  0  0  0
 11 10  1  6  0  0  0
 11 16  1  0  0  0  0
 12  8  1  0  0  0  0
 13  9  1  1  0  0  0
 13 11  1  0  0  0  0
 14 18  1  0  0  0  0
 15 12  1  0  0  0  0
 16 15  2  0  0  0  0
 16 17  1  0  0  0  0
 17  8  2  0  0  0  0
 18 20  1  0  0  0  0
 20 19  1  6  0  0  0
 22 21  2  0  0  0  0
 22 20  1  0  0  0  0
 23 22  1  0  0  0  0
 25 24  1  0  0  0  0
 26 27  1  0  0  0  0
 26  6  1  0  0  0  0
 28 29  2  0  0  0  0
 29 30  1  0  0  0  0
 29 27  1  0  0  0  0
 31 33  1  0  0  0  0
 31 30  1  0  0  0  0
 33 32  1  0  0  0  0
 37 42  1  0  0  0  0
 38 35  1  1  0  0  0
 38 40  1  0  0  0  0
 39 38  1  0  0  0  0
 39 37  1  0  0  0  0
 39 36  1  1  0  0  0
 40 34  1  1  0  0  0
 42 41  1  6  0  0  0
 42 40  1  0  0  0  0
 43 39  1  0  0  0  0
 44 43  2  0  0  0  0
 45 43  1  0  0  0  0
 46 51  1  6  0  0  0
 46 45  1  0  0  0  0
 47 46  1  0  0  0  0
 48 47  1  0  0  0  0
 49 47  2  0  0  0  0
 50 51  1  0  0  0  0
M  END
>  <MODEL>
2

>  <REMARK>
 VINA RESULT:      -2.8      2.740      9.081
  Name = 
  17 active torsions:
  status: ('A' for Active; 'I' for Inactive)
    1  A    between atoms: C_4  and  C_30
    2  A    between atoms: C_6  and  C_42
    3  A    between atoms: C_10  and  C_20
    4  A    between atoms: C_10  and  O_46
    5  A    between atoms: C_11  and  N_44
    6  A    between atoms: C_11  and  C_48
    7  A    between atoms: C_13  and  O_15
    8  A    between atoms: C_19  and  C_43
    9  A    between atoms: C_19  and  N_45
   10  A    between atoms: C_22  and  C_37
   11  A    between atoms: N_23  and  C_24
   12  A    between atoms: C_24  and  C_41
   13  A    between atoms: C_25  and  C_37
   14  A    between atoms: C_30  and  O_46
   15  A    between atoms: C_30  and  C_50
   16  A    between atoms: C_31  and  C_41
   17  A    between atoms: C_34  and  C_43
                            x       y       z     vdW  Elec       q    Type
                         _______ _______ _______ _____ _____    ______ ____

>  <TORSDO>
F 17

$$$$
=
 OpenBabel11072412363D

 51 54  0  0  1  0  0  0  0  0999 V2000
  162.2130  211.3050  150.7800 C   0  0  2  0  0  3  0  0  0  0  0  0
  161.9260  208.7120  152.1150 C   0  0  0  0  0  2  0  0  0  0  0  0
  161.9400  210.0740  152.8370 C   0  0  1  0  0  3  0  0  0  0  0  0
  162.3860  209.9880  149.9950 C   0  0  0  0  0  2  0  0  0  0  0  0
  161.6130  208.8350  150.6270 C   0  0  1  0  0  3  0  0  0  0  0  0
  161.4260  211.1950  152.0260 N   0  0  0  0  0  0  0  0  0  0  0  0
  159.6450  213.4510  149.2150 C   0  0  0  0  0  0  0  0  0  0  0  0
  160.5760  214.3720  145.9000 C   0  0  0  0  0  3  0  0  0  0  0  0
  160.3710  212.8220  150.0940 N   0  0  0  0  0  0  0  0  0  0  0  0
  163.6830  212.4250  148.2440 C   0  0  0  0  0  1  0  0  0  0  0  0
  162.1850  212.2520  148.4230 C   0  0  1  0  0  3  0  0  0  0  0  0
  159.7350  214.4270  146.9160 O   0  0  0  0  0  0  0  0  0  0  0  0
  161.8010  212.4950  149.9020 C   0  0  2  0  0  3  0  0  0  0  0  0
  158.2780  213.7470  149.5200 N   0  0  0  0  0  2  0  0  0  0  0  0
  160.2340  213.7260  147.8990 C   0  0  0  0  0  0  0  0  0  0  0  0
  161.4380  213.2070  147.5410 C   0  0  0  0  0  0  0  0  0  0  0  0
  161.6790  213.5870  146.2360 C   0  0  0  0  0  3  0  0  0  0  0  0
  157.3730  214.4180  148.5970 C   0  0  0  0  0  2  0  0  0  0  0  0
  156.5580  212.1650  148.5270 O   0  0  0  0  0  1  0  0  0  0  0  0
  156.4470  213.4160  147.9200 C   0  0  2  0  0  3  0  0  0  0  0  0
  157.2680  212.2420  145.9300 C   0  0  0  0  0  2  0  0  0  0  0  0
  156.7040  213.3340  146.4410 C   0  0  0  0  0  0  0  0  0  0  0  0
  156.3440  214.4520  145.5210 C   0  0  0  0  0  1  0  0  0  0  0  0
  161.2670  209.9850  154.0580 O   0  0  0  0  0  0  0  0  0  0  0  0
  160.5940  208.7650  154.0060 C   0  0  0  0  0  1  0  0  0  0  0  0
  159.9930  211.0390  151.7470 C   0  0  0  0  0  2  0  0  0  0  0  0
  159.2250  212.2320  152.2860 C   0  0  0  0  0  2  0  0  0  0  0  0
  159.8020  212.6360  154.5630 O   0  0  0  0  0  0  0  0  0  0  0  0
  159.0170  212.0750  153.7520 C   0  0  0  0  0  0  0  0  0  0  0  0
  157.9330  211.2770  154.2260 N   0  0  0  0  0  2  0  0  0  0  0  0
  157.7380  210.9800  155.6350 C   0  0  0  0  0  2  0  0  0  0  0  0
  155.5100  211.6250  155.0990 O   0  0  0  0  0  1  0  0  0  0  0  0
  156.4480  211.6130  156.1300 C   0  0  0  0  0  2  0  0  0  0  0  0
  161.9110  207.5310  149.9110 C   0  0  0  0  0  2  0  0  0  0  0  0
  160.1940  206.2850  147.9060 C   0  0  0  0  0  1  0  0  0  0  0  0
  162.6170  204.7070  148.1970 C   0  0  0  0  0  1  0  0  0  0  0  0
  162.0550  204.3230  150.4830 O   0  0  0  0  0  0  0  0  0  0  0  0
  160.4750  205.5670  149.2290 C   0  0  1  0  0  3  0  0  0  0  0  0
  161.4920  204.4260  149.1920 C   0  0  1  0  0  0  0  0  0  0  0  0
  160.9300  206.4450  150.3580 C   0  0  1  0  0  3  0  0  0  0  0  0
  160.8340  205.0500  152.2700 F   0  0  0  0  0  0  0  0  0  0  0  0
  161.6620  205.4520  151.2370 C   0  0  1  0  0  3  0  0  0  0  0  0
  160.8250  203.1150  148.8260 C   0  0  0  0  0  0  0  0  0  0  0  0
  159.9250  202.6410  149.5730 O   0  0  0  0  0  0  0  0  0  0  0  0
  161.1580  202.4060  147.6630 O   0  0  0  0  0  0  0  0  0  0  0  0
  160.2090  201.7450  146.8370 C   0  0  1  0  0  3  0  0  0  0  0  0
  160.4010  202.1600  145.4190 C   0  0  0  0  0  0  0  0  0  0  0  0
  159.8340  201.5150  144.4980 O   0  0  0  0  0  0  0  0  0  0  0  0
  161.2220  203.2380  145.1060 O   0  0  0  0  0  1  0  0  0  0  0  0
  161.8260  199.8800  147.1840 C   0  0  0  0  0  1  0  0  0  0  0  0
  160.3660  200.2390  146.9800 C   0  0  0  0  0  2  0  0  0  0  0  0
  1  4  1  6  0  0  0
  1  6  1  0  0  0  0
  2  3  1  0  0  0  0
  3 24  1  1  0  0  0
  4  5  1  0  0  0  0
  5 34  1  6  0  0  0
  5  2  1  0  0  0  0
  6  3  1  0  0  0  0
  7 14  1  0  0  0  0
  7  9  2  0  0  0  0
  8 17  2  0  0  0  0
  8 12  1  0  0  0  0
 11 10  1  1  0  0  0
 11 13  1  0  0  0  0
 12 15  1  0  0  0  0
 13  9  1  6  0  0  0
 13  1  1  0  0  0  0
 15  7  1  0  0  0  0
 16 15  2  0  0  0  0
 16 11  1  0  0  0  0
 17 16  1  0  0  0  0
 18 14  1  0  0  0  0
 20 19  1  1  0  0  0
 20 18  1  0  0  0  0
 21 22  2  0  0  0  0
 22 20  1  0  0  0  0
 23 22  1  0  0  0  0
 25 24  1  0  0  0  0
 26  6  1  0  0  0  0
 26 27  1  0  0  0  0
 27 29  1  0  0  0  0
 29 30  1  0  0  0  0
 29 28  2  0  0  0  0
 30 31  1  0  0  0  0
 31 33  1  0  0  0  0
 32 33  1  0  0  0  0
 37 42  1  0  0  0  0
 38 35  1  6  0  0  0
 38 40  1  0  0  0  0
 39 36  1  6  0  0  0
 39 38  1  0  0  0  0
 39 37  1  0  0  0  0
 40 34  1  6  0  0  0
 40 42  1  0  0  0  0
 42 41  1  1  0  0  0
 43 39  1  0  0  0  0
 43 44  2  0  0  0  0
 45 43  1  0  0  0  0
 46 51  1  6  0  0  0
 46 45  1  0  0  0  0
 47 46  1  0  0  0  0
 48 47  2  0  0  0  0
 49 47  1  0  0  0  0
 51 50  1  0  0  0  0
M  END
>  <MODEL>
3

>  <REMARK>
 VINA RESULT:      -2.3      1.468      2.055
  Name = 
  17 active torsions:
  status: ('A' for Active; 'I' for Inactive)
    1  A    between atoms: C_4  and  C_30
    2  A    between atoms: C_6  and  C_42
    3  A    between atoms: C_10  and  C_20
    4  A    between atoms: C_10  and  O_46
    5  A    between atoms: C_11  and  N_44
    6  A    between atoms: C_11  and  C_48
    7  A    between atoms: C_13  and  O_15
    8  A    between atoms: C_19  and  C_43
    9  A    between atoms: C_19  and  N_45
   10  A    between atoms: C_22  and  C_37
   11  A    between atoms: N_23  and  C_24
   12  A    between atoms: C_24  and  C_41
   13  A    between atoms: C_25  and  C_37
   14  A    between atoms: C_30  and  O_46
   15  A    between atoms: C_30  and  C_50
   16  A    between atoms: C_31  and  C_41
   17  A    between atoms: C_34  and  C_43
                            x       y       z     vdW  Elec       q    Type
                         _______ _______ _______ _____ _____    ______ ____

>  <TORSDO>
F 17

$$$$
=
 OpenBabel11072412363D

 51 54  0  0  1  0  0  0  0  0999 V2000
  161.4700  210.1370  152.6390 C   0  0  2  0  0  3  0  0  0  0  0  0
  161.5860  207.2240  152.3410 C   0  0  0  0  0  2  0  0  0  0  0  0
  161.9630  207.9910  153.6230 C   0  0  1  0  0  3  0  0  0  0  0  0
  161.2410  209.4730  151.2640 C   0  0  0  0  0  2  0  0  0  0  0  0
  160.7170  208.0470  151.3950 C   0  0  1  0  0  3  0  0  0  0  0  0
  161.2360  209.2620  153.8060 N   0  0  0  0  0  0  0  0  0  0  0  0
  159.3340  212.5600  154.4320 C   0  0  0  0  0  0  0  0  0  0  0  0
  157.3410  214.4520  152.1630 C   0  0  0  0  0  3  0  0  0  0  0  0
  160.2890  211.7240  154.1380 N   0  0  0  0  0  0  0  0  0  0  0  0
  160.4440  212.0070  150.3380 C   0  0  0  0  0  1  0  0  0  0  0  0
  159.7550  211.7380  151.6630 C   0  0  1  0  0  3  0  0  0  0  0  0
  157.7350  214.1750  153.3920 O   0  0  0  0  0  0  0  0  0  0  0  0
  160.8140  211.5180  152.7710 C   0  0  2  0  0  3  0  0  0  0  0  0
  158.9280  212.7040  155.7970 N   0  0  0  0  0  2  0  0  0  0  0  0
  158.6380  213.2320  153.3290 C   0  0  0  0  0  0  0  0  0  0  0  0
  158.8630  212.8840  152.0350 C   0  0  0  0  0  0  0  0  0  0  0  0
  158.0160  213.6420  151.2510 C   0  0  0  0  0  3  0  0  0  0  0  0
  157.8530  213.5870  156.2290 C   0  0  0  0  0  2  0  0  0  0  0  0
  155.5450  214.1250  155.8620 O   0  0  0  0  0  1  0  0  0  0  0  0
  156.5220  213.1580  155.6240 C   0  0  2  0  0  3  0  0  0  0  0  0
  155.2460  211.7260  157.1520 C   0  0  0  0  0  2  0  0  0  0  0  0
  156.0920  211.8090  156.1280 C   0  0  0  0  0  0  0  0  0  0  0  0
  156.5920  210.5470  155.5080 C   0  0  0  0  0  1  0  0  0  0  0  0
  161.8250  207.1650  154.7420 O   0  0  0  0  0  0  0  0  0  0  0  0
  161.2830  205.9800  154.2470 C   0  0  0  0  0  1  0  0  0  0  0  0
  159.8040  209.0300  154.0280 C   0  0  0  0  0  2  0  0  0  0  0  0
  159.5720  208.5240  155.4400 C   0  0  0  0  0  2  0  0  0  0  0  0
  159.4310  210.0640  157.2540 O   0  0  0  0  0  0  0  0  0  0  0  0
  160.1680  209.4740  156.4190 C   0  0  0  0  0  0  0  0  0  0  0  0
  161.5740  209.7180  156.3940 N   0  0  0  0  0  2  0  0  0  0  0  0
  162.2090  210.7180  157.2350 C   0  0  0  0  0  2  0  0  0  0  0  0
  163.7100  210.8400  155.3910 O   0  0  0  0  0  1  0  0  0  0  0  0
  163.6390  210.9550  156.7780 C   0  0  0  0  0  2  0  0  0  0  0  0
  160.6310  207.3790  150.0350 C   0  0  0  0  0  2  0  0  0  0  0  0
  161.5400  204.6040  150.0670 C   0  0  0  0  0  1  0  0  0  0  0  0
  160.3270  205.1800  147.4890 C   0  0  0  0  0  1  0  0  0  0  0  0
  161.9880  206.8500  147.1160 O   0  0  0  0  0  0  0  0  0  0  0  0
  162.2020  205.6190  149.1290 C   0  0  1  0  0  3  0  0  0  0  0  0
  161.7970  205.5590  147.6550 C   0  0  1  0  0  0  0  0  0  0  0  0
  162.0320  207.0600  149.5120 C   0  0  1  0  0  3  0  0  0  0  0  0
  163.5250  208.2280  148.0910 F   0  0  0  0  0  0  0  0  0  0  0  0
  162.2290  207.7510  148.1790 C   0  0  1  0  0  3  0  0  0  0  0  0
  162.6540  204.5650  146.8970 C   0  0  0  0  0  0  0  0  0  0  0  0
  163.6450  204.9730  146.2300 O   0  0  0  0  0  0  0  0  0  0  0  0
  162.3990  203.1870  146.9220 O   0  0  0  0  0  0  0  0  0  0  0  0
  161.1040  202.6220  147.0850 C   0  0  1  0  0  3  0  0  0  0  0  0
  160.6130  202.1050  145.7770 C   0  0  0  0  0  0  0  0  0  0  0  0
  160.2260  202.9140  144.8920 O   0  0  0  0  0  0  0  0  0  0  0  0
  160.5560  200.7360  145.5370 O   0  0  0  0  0  1  0  0  0  0  0  0
  159.9870  201.6160  149.0740 C   0  0  0  0  0  1  0  0  0  0  0  0
  161.1580  201.5060  148.1150 C   0  0  0  0  0  2  0  0  0  0  0  0
  1  4  1  6  0  0  0
  1 13  1  0  0  0  0
  1  6  1  0  0  0  0
  2  3  1  0  0  0  0
  3  6  1  0  0  0  0
  3 24  1  1  0  0  0
  4  5  1  0  0  0  0
  5 34  1  6  0  0  0
  5  2  1  0  0  0  0
  6 26  1  0  0  0  0
  7 14  1  0  0  0  0
  8 12  1  0  0  0  0
  9  7  2  0  0  0  0
 11 10  1  6  0  0  0
 11 16  1  0  0  0  0
 11 13  1  0  0  0  0
 13  9  1  1  0  0  0
 14 18  1  0  0  0  0
 15 12  1  0  0  0  0
 15  7  1  0  0  0  0
 16 15  2  0  0  0  0
 17 16  1  0  0  0  0
 17  8  2  0  0  0  0
 20 19  1  1  0  0  0
 20 22  1  0  0  0  0
 20 18  1  0  0  0  0
 22 21  2  0  0  0  0
 23 22  1  0  0  0  0
 25 24  1  0  0  0  0
 26 27  1  0  0  0  0
 27 29  1  0  0  0  0
 29 28  2  0  0  0  0
 30 29  1  0  0  0  0
 30 31  1  0  0  0  0
 32 33  1  0  0  0  0
 33 31  1  0  0  0  0
 37 39  1  0  0  0  0
 37 42  1  0  0  0  0
 38 40  1  0  0  0  0
 38 35  1  1  0  0  0
 39 36  1  6  0  0  0
 39 38  1  0  0  0  0
 40 34  1  6  0  0  0
 42 41  1  1  0  0  0
 42 40  1  0  0  0  0
 43 45  1  0  0  0  0
 43 39  1  0  0  0  0
 44 43  2  0  0  0  0
 45 46  1  0  0  0  0
 46 51  1  1  0  0  0
 47 46  1  0  0  0  0
 48 47  2  0  0  0  0
 49 47  1  0  0  0  0
 51 50  1  0  0  0  0
M  END
>  <MODEL>
4

>  <REMARK>
 VINA RESULT:      -2.1      2.663      4.749
  Name = 
  17 active torsions:
  status: ('A' for Active; 'I' for Inactive)
    1  A    between atoms: C_4  and  C_30
    2  A    between atoms: C_6  and  C_42
    3  A    between atoms: C_10  and  C_20
    4  A    between atoms: C_10  and  O_46
    5  A    between atoms: C_11  and  N_44
    6  A    between atoms: C_11  and  C_48
    7  A    between atoms: C_13  and  O_15
    8  A    between atoms: C_19  and  C_43
    9  A    between atoms: C_19  and  N_45
   10  A    between atoms: C_22  and  C_37
   11  A    between atoms: N_23  and  C_24
   12  A    between atoms: C_24  and  C_41
   13  A    between atoms: C_25  and  C_37
   14  A    between atoms: C_30  and  O_46
   15  A    between atoms: C_30  and  C_50
   16  A    between atoms: C_31  and  C_41
   17  A    between atoms: C_34  and  C_43
                            x       y       z     vdW  Elec       q    Type
                         _______ _______ _______ _____ _____    ______ ____

>  <TORSDO>
F 17

$$$$
=
 OpenBabel11072412363D

 51 54  0  0  1  0  0  0  0  0999 V2000
  161.8460  209.7430  152.1210 C   0  0  2  0  0  3  0  0  0  0  0  0
  161.2850  206.9090  152.6060 C   0  0  0  0  0  2  0  0  0  0  0  0
  161.6920  207.9210  153.6940 C   0  0  1  0  0  3  0  0  0  0  0  0
  161.6170  208.7700  150.9450 C   0  0  0  0  0  2  0  0  0  0  0  0
  160.7520  207.5800  151.3440 C   0  0  1  0  0  3  0  0  0  0  0  0
  161.2790  209.3110  153.4150 N   0  0  0  0  0  0  0  0  0  0  0  0
  159.7230  212.7570  152.3730 C   0  0  0  0  0  0  0  0  0  0  0  0
  159.5110  214.4530  149.2450 C   0  0  0  0  0  3  0  0  0  0  0  0
  160.4890  211.7470  152.6740 N   0  0  0  0  0  0  0  0  0  0  0  0
  162.4700  211.2680  149.4500 C   0  0  0  0  0  1  0  0  0  0  0  0
  161.1990  211.3650  150.2740 C   0  0  1  0  0  3  0  0  0  0  0  0
  159.2090  214.3620  150.5270 O   0  0  0  0  0  0  0  0  0  0  0  0
  161.5330  211.2060  151.7770 C   0  0  2  0  0  3  0  0  0  0  0  0
  158.7680  213.2200  153.3320 N   0  0  0  0  0  2  0  0  0  0  0  0
  159.7980  213.3010  151.0120 C   0  0  0  0  0  0  0  0  0  0  0  0
  160.5200  212.6800  150.0420 C   0  0  0  0  0  0  0  0  0  0  0  0
  160.3340  213.3910  148.8720 C   0  0  0  0  0  3  0  0  0  0  0  0
  157.8440  214.3200  153.0850 C   0  0  0  0  0  2  0  0  0  0  0  0
  155.9790  214.2130  151.5840 O   0  0  0  0  0  1  0  0  0  0  0  0
  156.4350  213.7990  152.8350 C   0  0  2  0  0  3  0  0  0  0  0  0
  154.1950  214.3700  153.6560 C   0  0  0  0  0  2  0  0  0  0  0  0
  155.4890  214.2120  153.9280 C   0  0  0  0  0  0  0  0  0  0  0  0
  155.9620  214.4520  155.3230 C   0  0  0  0  0  1  0  0  0  0  0  0
  161.2340  207.5010  154.9460 O   0  0  0  0  0  0  0  0  0  0  0  0
  161.9840  208.2350  155.8640 C   0  0  0  0  0  1  0  0  0  0  0  0
  159.8170  209.4470  153.4350 C   0  0  0  0  0  2  0  0  0  0  0  0
  159.2810  209.0880  154.8090 C   0  0  0  0  0  2  0  0  0  0  0  0
  157.4460  210.5930  155.0270 O   0  0  0  0  0  0  0  0  0  0  0  0
  158.6020  210.2710  155.4090 C   0  0  0  0  0  0  0  0  0  0  0  0
  159.2780  211.0370  156.4040 N   0  0  0  0  0  2  0  0  0  0  0  0
  158.7310  212.2700  156.9460 C   0  0  0  0  0  2  0  0  0  0  0  0
  161.0320  212.8820  156.9570 O   0  0  0  0  0  1  0  0  0  0  0  0
  159.7440  213.3960  156.8130 C   0  0  0  0  0  2  0  0  0  0  0  0
  160.6580  206.5780  150.2080 C   0  0  0  0  0  2  0  0  0  0  0  0
  161.7490  203.9290  149.6420 C   0  0  0  0  0  1  0  0  0  0  0  0
  160.1780  204.8200  147.3640 C   0  0  0  0  0  1  0  0  0  0  0  0
  161.6610  206.6700  147.1050 O   0  0  0  0  0  0  0  0  0  0  0  0
  162.2140  205.1410  148.8290 C   0  0  1  0  0  3  0  0  0  0  0  0
  161.6290  205.2950  147.4250 C   0  0  1  0  0  0  0  0  0  0  0  0
  161.9990  206.4770  149.4790 C   0  0  1  0  0  3  0  0  0  0  0  0
  163.2150  207.9950  148.1260 F   0  0  0  0  0  0  0  0  0  0  0  0
  161.9760  207.3970  148.2760 C   0  0  1  0  0  3  0  0  0  0  0  0
  162.4460  204.5220  146.4080 C   0  0  0  0  0  0  0  0  0  0  0  0
  163.6390  204.8610  146.1760 O   0  0  0  0  0  0  0  0  0  0  0  0
  161.9280  203.4160  145.7190 O   0  0  0  0  0  0  0  0  0  0  0  0
  160.9370  202.5450  146.2470 C   0  0  1  0  0  3  0  0  0  0  0  0
  160.1190  201.9820  145.1350 C   0  0  0  0  0  0  0  0  0  0  0  0
  159.7230  202.7360  144.2070 O   0  0  0  0  0  0  0  0  0  0  0  0
  159.7710  200.6350  145.1290 O   0  0  0  0  0  1  0  0  0  0  0  0
  160.6520  200.8950  148.0940 C   0  0  0  0  0  1  0  0  0  0  0  0
  161.6020  201.4320  147.0380 C   0  0  0  0  0  2  0  0  0  0  0  0
  1  4  1  6  0  0  0
  1  6  1  0  0  0  0
  2  3  1  0  0  0  0
  3 24  1  1  0  0  0
  4  5  1  0  0  0  0
  5 34  1  6  0  0  0
  5  2  1  0  0  0  0
  6 26  1  0  0  0  0
  6  3  1  0  0  0  0
  7  9  2  0  0  0  0
  7 14  1  0  0  0  0
  8 12  1  0  0  0  0
 11 10  1  6  0  0  0
 11 13  1  0  0  0  0
 12 15  1  0  0  0  0
 13  1  1  0  0  0  0
 13  9  1  1  0  0  0
 15  7  1  0  0  0  0
 16 11  1  0  0  0  0
 16 15  2  0  0  0  0
 17  8  2  0  0  0  0
 17 16  1  0  0  0  0
 18 14  1  0  0  0  0
 20 19  1  6  0  0  0
 20 18  1  0  0  0  0
 20 22  1  0  0  0  0
 21 22  2  0  0  0  0
 22 23  1  0  0  0  0
 24 25  1  0  0  0  0
 26 27  1  0  0  0  0
 27 29  1  0  0  0  0
 28 29  2  0  0  0  0
 29 30  1  0  0  0  0
 30 31  1  0  0  0  0
 33 31  1  0  0  0  0
 33 32  1  0  0  0  0
 37 39  1  0  0  0  0
 37 42  1  0  0  0  0
 38 40  1  0  0  0  0
 38 35  1  1  0  0  0
 39 36  1  6  0  0  0
 39 38  1  0  0  0  0
 40 34  1  6  0  0  0
 42 41  1  6  0  0  0
 42 40  1  0  0  0  0
 43 39  1  0  0  0  0
 44 43  2  0  0  0  0
 45 46  1  0  0  0  0
 45 43  1  0  0  0  0
 46 51  1  6  0  0  0
 47 46  1  0  0  0  0
 48 47  2  0  0  0  0
 49 47  1  0  0  0  0
 51 50  1  0  0  0  0
M  END
>  <MODEL>
5

>  <REMARK>
 VINA RESULT:      -2.0      2.177      3.352
  Name = 
  17 active torsions:
  status: ('A' for Active; 'I' for Inactive)
    1  A    between atoms: C_4  and  C_30
    2  A    between atoms: C_6  and  C_42
    3  A    between atoms: C_10  and  C_20
    4  A    between atoms: C_10  and  O_46
    5  A    between atoms: C_11  and  N_44
    6  A    between atoms: C_11  and  C_48
    7  A    between atoms: C_13  and  O_15
    8  A    between atoms: C_19  and  C_43
    9  A    between atoms: C_19  and  N_45
   10  A    between atoms: C_22  and  C_37
   11  A    between atoms: N_23  and  C_24
   12  A    between atoms: C_24  and  C_41
   13  A    between atoms: C_25  and  C_37
   14  A    between atoms: C_30  and  O_46
   15  A    between atoms: C_30  and  C_50
   16  A    between atoms: C_31  and  C_41
   17  A    between atoms: C_34  and  C_43
                            x       y       z     vdW  Elec       q    Type
                         _______ _______ _______ _____ _____    ______ ____

>  <TORSDO>
F 17

$$$$
=
 OpenBabel11072412363D

 51 54  0  0  1  0  0  0  0  0999 V2000
  162.1400  209.5430  152.4910 C   0  0  2  0  0  3  0  0  0  0  0  0
  161.3340  207.0500  153.8030 C   0  0  0  0  0  2  0  0  0  0  0  0
  161.2660  208.4450  154.4530 C   0  0  1  0  0  3  0  0  0  0  0  0
  162.4080  208.1770  151.8250 C   0  0  0  0  0  2  0  0  0  0  0  0
  161.4170  207.1110  152.2810 C   0  0  1  0  0  3  0  0  0  0  0  0
  161.0580  209.5510  153.4970 N   0  0  0  0  0  0  0  0  0  0  0  0
  160.4370  212.5170  151.1100 C   0  0  0  0  0  0  0  0  0  0  0  0
  160.6560  212.5970  147.5540 C   0  0  0  0  0  3  0  0  0  0  0  0
  161.0370  211.6930  151.9210 N   0  0  0  0  0  0  0  0  0  0  0  0
  163.1330  209.6040  149.5150 C   0  0  0  0  0  1  0  0  0  0  0  0
  161.8380  210.1860  150.0510 C   0  0  1  0  0  3  0  0  0  0  0  0
  160.2640  213.1330  148.6940 O   0  0  0  0  0  0  0  0  0  0  0  0
  162.0520  210.7060  151.4930 C   0  0  2  0  0  3  0  0  0  0  0  0
  159.4960  213.4560  151.6390 N   0  0  0  0  0  2  0  0  0  0  0  0
  160.6710  212.3650  149.6700 C   0  0  0  0  0  0  0  0  0  0  0  0
  161.3610  211.3040  149.1740 C   0  0  0  0  0  0  0  0  0  0  0  0
  161.3480  211.4110  147.7970 C   0  0  0  0  0  3  0  0  0  0  0  0
  158.7490  214.3990  150.8180 C   0  0  0  0  0  2  0  0  0  0  0  0
  157.1050  213.7630  152.4430 O   0  0  0  0  0  1  0  0  0  0  0  0
  157.2860  214.4480  151.2410 C   0  0  2  0  0  3  0  0  0  0  0  0
  156.8800  213.1570  149.1950 C   0  0  0  0  0  2  0  0  0  0  0  0
  156.3790  213.9180  150.1660 C   0  0  0  0  0  0  0  0  0  0  0  0
  154.9180  214.2240  150.1540 C   0  0  0  0  0  1  0  0  0  0  0  0
  160.3020  208.4660  155.4650 O   0  0  0  0  0  0  0  0  0  0  0  0
  160.9470  207.9370  156.5820 C   0  0  0  0  0  1  0  0  0  0  0  0
  159.7350  209.4690  152.8670 C   0  0  0  0  0  2  0  0  0  0  0  0
  158.9300  210.7160  153.1850 C   0  0  0  0  0  2  0  0  0  0  0  0
  158.4000  210.4740  155.4960 O   0  0  0  0  0  0  0  0  0  0  0  0
  159.0910  211.0650  154.6240 C   0  0  0  0  0  0  0  0  0  0  0  0
  160.0220  212.0790  155.0000 N   0  0  0  0  0  2  0  0  0  0  0  0
  160.1470  212.5570  156.3670 C   0  0  0  0  0  2  0  0  0  0  0  0
  161.9680  211.0770  156.7710 O   0  0  0  0  0  1  0  0  0  0  0  0
  160.7190  211.4630  157.2540 C   0  0  0  0  0  2  0  0  0  0  0  0
  161.7880  205.7530  151.7140 C   0  0  0  0  0  2  0  0  0  0  0  0
  160.7060  205.4990  149.0150 C   0  0  0  0  0  1  0  0  0  0  0  0
  162.5340  203.2970  149.5190 C   0  0  0  0  0  1  0  0  0  0  0  0
  161.1310  202.5830  151.3100 O   0  0  0  0  0  0  0  0  0  0  0  0
  160.3590  204.4570  150.0820 C   0  0  1  0  0  3  0  0  0  0  0  0
  161.0970  203.1200  150.0050 C   0  0  1  0  0  0  0  0  0  0  0  0
  160.5330  204.9050  151.5040 C   0  0  1  0  0  3  0  0  0  0  0  0
  159.5060  203.2010  152.7900 F   0  0  0  0  0  0  0  0  0  0  0  0
  160.7070  203.5810  152.2180 C   0  0  1  0  0  3  0  0  0  0  0  0
  160.3780  202.1550  149.0820 C   0  0  0  0  0  0  0  0  0  0  0  0
  159.1200  202.0700  149.1230 O   0  0  0  0  0  0  0  0  0  0  0  0
  161.0630  201.3550  148.1570 O   0  0  0  0  0  0  0  0  0  0  0  0
  161.3440  201.7500  146.8210 C   0  0  1  0  0  3  0  0  0  0  0  0
  160.8300  200.7200  145.8740 C   0  0  0  0  0  0  0  0  0  0  0  0
  159.9630  201.0380  145.0170 O   0  0  0  0  0  0  0  0  0  0  0  0
  161.2830  199.4080  145.9470 O   0  0  0  0  0  1  0  0  0  0  0  0
  161.6800  204.0060  145.8120 C   0  0  0  0  0  1  0  0  0  0  0  0
  160.7030  203.1000  146.5410 C   0  0  0  0  0  2  0  0  0  0  0  0
  1  4  1  6  0  0  0
  1  6  1  0  0  0  0
  2  3  1  0  0  0  0
  3 24  1  1  0  0  0
  4  5  1  0  0  0  0
  5 34  1  1  0  0  0
  5  2  1  0  0  0  0
  6  3  1  0  0  0  0
  7 14  1  0  0  0  0
  7  9  2  0  0  0  0
  8 17  2  0  0  0  0
  8 12  1  0  0  0  0
 11 10  1  6  0  0  0
 11 13  1  0  0  0  0
 12 15  1  0  0  0  0
 13  9  1  1  0  0  0
 13  1  1  0  0  0  0
 15  7  1  0  0  0  0
 16 15  2  0  0  0  0
 16 11  1  0  0  0  0
 17 16  1  0  0  0  0
 18 20  1  0  0  0  0
 18 14  1  0  0  0  0
 20 19  1  1  0  0  0
 21 22  2  0  0  0  0
 22 20  1  0  0  0  0
 23 22  1  0  0  0  0
 24 25  1  0  0  0  0
 26 27  1  0  0  0  0
 26  6  1  0  0  0  0
 27 29  1  0  0  0  0
 29 30  1  0  0  0  0
 29 28  2  0  0  0  0
 30 31  1  0  0  0  0
 31 33  1  0  0  0  0
 32 33  1  0  0  0  0
 37 42  1  0  0  0  0
 38 35  1  6  0  0  0
 38 40  1  0  0  0  0
 39 36  1  6  0  0  0
 39 38  1  0  0  0  0
 39 37  1  0  0  0  0
 40 34  1  6  0  0  0
 40 42  1  0  0  0  0
 42 41  1  6  0  0  0
 43 44  2  0  0  0  0
 43 39  1  0  0  0  0
 45 43  1  0  0  0  0
 46 51  1  6  0  0  0
 46 45  1  0  0  0  0
 47 49  1  0  0  0  0
 47 46  1  0  0  0  0
 48 47  2  0  0  0  0
 50 51  1  0  0  0  0
M  END
>  <MODEL>
6

>  <REMARK>
 VINA RESULT:      -1.2      2.219      2.991
  Name = 
  17 active torsions:
  status: ('A' for Active; 'I' for Inactive)
    1  A    between atoms: C_4  and  C_30
    2  A    between atoms: C_6  and  C_42
    3  A    between atoms: C_10  and  C_20
    4  A    between atoms: C_10  and  O_46
    5  A    between atoms: C_11  and  N_44
    6  A    between atoms: C_11  and  C_48
    7  A    between atoms: C_13  and  O_15
    8  A    between atoms: C_19  and  C_43
    9  A    between atoms: C_19  and  N_45
   10  A    between atoms: C_22  and  C_37
   11  A    between atoms: N_23  and  C_24
   12  A    between atoms: C_24  and  C_41
   13  A    between atoms: C_25  and  C_37
   14  A    between atoms: C_30  and  O_46
   15  A    between atoms: C_30  and  C_50
   16  A    between atoms: C_31  and  C_41
   17  A    between atoms: C_34  and  C_43
                            x       y       z     vdW  Elec       q    Type
                         _______ _______ _______ _____ _____    ______ ____

>  <TORSDO>
F 17

$$$$
=
 OpenBabel11072412363D

 51 54  0  0  1  0  0  0  0  0999 V2000
  162.3910  206.3020  151.1060 C   0  0  2  0  0  3  0  0  0  0  0  0
  161.6060  209.1220  151.2310 C   0  0  0  0  0  2  0  0  0  0  0  0
  162.2620  208.4470  150.0110 C   0  0  1  0  0  3  0  0  0  0  0  0
  161.9020  206.9280  152.4290 C   0  0  0  0  0  2  0  0  0  0  0  0
  160.9790  208.1190  152.1950 C   0  0  1  0  0  3  0  0  0  0  0  0
  161.9630  207.0070  149.8800 N   0  0  0  0  0  0  0  0  0  0  0  0
  161.6300  203.2100  149.2320 C   0  0  0  0  0  0  0  0  0  0  0  0
  159.5840  201.0080  151.1480 C   0  0  0  0  0  3  0  0  0  0  0  0
  162.1930  204.3140  149.6320 N   0  0  0  0  0  0  0  0  0  0  0  0
  161.2120  204.4120  153.3160 C   0  0  0  0  0  1  0  0  0  0  0  0
  160.9310  204.3500  151.8260 C   0  0  1  0  0  3  0  0  0  0  0  0
  160.2600  201.2860  150.0480 O   0  0  0  0  0  0  0  0  0  0  0  0
  162.1900  204.7820  151.0350 C   0  0  2  0  0  3  0  0  0  0  0  0
  161.7260  202.8360  147.8540 N   0  0  0  0  0  2  0  0  0  0  0  0
  160.8210  202.4560  150.1970 C   0  0  0  0  0  0  0  0  0  0  0  0
  160.5290  202.9640  151.4230 C   0  0  0  0  0  0  0  0  0  0  0  0
  159.7040  202.0570  152.0590 C   0  0  0  0  0  3  0  0  0  0  0  0
  161.1080  201.6390  147.2980 C   0  0  0  0  0  2  0  0  0  0  0  0
  160.7540  202.9710  145.3360 O   0  0  0  0  0  1  0  0  0  0  0  0
  161.0960  201.6920  145.7760 C   0  0  2  0  0  3  0  0  0  0  0  0
  158.9460  200.9820  144.8320 C   0  0  0  0  0  2  0  0  0  0  0  0
  160.1840  200.6500  145.1910 C   0  0  0  0  0  0  0  0  0  0  0  0
  160.6310  199.2390  144.9990 C   0  0  0  0  0  1  0  0  0  0  0  0
  161.9390  209.1380  148.8400 O   0  0  0  0  0  0  0  0  0  0  0  0
  162.0520  210.4860  149.1780 C   0  0  0  0  0  1  0  0  0  0  0  0
  160.5410  206.7820  149.5960 C   0  0  0  0  0  2  0  0  0  0  0  0
  160.3880  205.7290  148.5130 C   0  0  0  0  0  2  0  0  0  0  0  0
  160.5170  207.3700  146.7900 O   0  0  0  0  0  0  0  0  0  0  0  0
  160.9130  206.2550  147.2230 C   0  0  0  0  0  0  0  0  0  0  0  0
  161.8540  205.4810  146.4800 N   0  0  0  0  0  2  0  0  0  0  0  0
  162.3180  205.8720  145.1590 C   0  0  0  0  0  2  0  0  0  0  0  0
  161.5770  206.0800  142.9060 O   0  0  0  0  0  1  0  0  0  0  0  0
  161.3370  205.4000  144.0990 C   0  0  0  0  0  2  0  0  0  0  0  0
  160.6260  208.7930  153.5080 C   0  0  0  0  0  2  0  0  0  0  0  0
  158.9720  211.0820  152.7660 C   0  0  0  0  0  1  0  0  0  0  0  0
  158.7830  210.6610  155.6350 C   0  0  0  0  0  1  0  0  0  0  0  0
  161.1300  211.0440  155.8140 O   0  0  0  0  0  0  0  0  0  0  0  0
  160.2110  211.2820  153.6430 C   0  0  1  0  0  3  0  0  0  0  0  0
  159.9700  211.4840  155.1400 C   0  0  1  0  0  0  0  0  0  0  0  0
  161.2400  210.1920  153.5680 C   0  0  1  0  0  3  0  0  0  0  0  0
  163.1230  211.0770  154.7010 F   0  0  0  0  0  0  0  0  0  0  0  0
  161.9550  210.3600  154.8930 C   0  0  1  0  0  3  0  0  0  0  0  0
  159.7260  212.9460  155.4590 C   0  0  0  0  0  0  0  0  0  0  0  0
  160.3310  213.4850  156.4260 O   0  0  0  0  0  0  0  0  0  0  0  0
  158.8570  213.7410  154.6980 O   0  0  0  0  0  0  0  0  0  0  0  0
  157.5740  214.1630  155.1420 C   0  0  1  0  0  3  0  0  0  0  0  0
  156.5170  213.4770  154.3450 C   0  0  0  0  0  0  0  0  0  0  0  0
  156.1570  213.9610  153.2390 O   0  0  0  0  0  0  0  0  0  0  0  0
  155.9090  212.3230  154.8270 O   0  0  0  0  0  1  0  0  0  0  0  0
  156.0960  214.3950  157.1360 C   0  0  0  0  0  1  0  0  0  0  0  0
  157.4160  213.8500  156.6210 C   0  0  0  0  0  2  0  0  0  0  0  0
  1  4  1  1  0  0  0
  2  5  1  0  0  0  0
  3 24  1  6  0  0  0
  3  2  1  0  0  0  0
  5  4  1  0  0  0  0
  5 34  1  1  0  0  0
  6  3  1  0  0  0  0
  6  1  1  0  0  0  0
  7  9  2  0  0  0  0
  7 15  1  0  0  0  0
  8 17  2  0  0  0  0
 11 10  1  1  0  0  0
 12 15  1  0  0  0  0
 12  8  1  0  0  0  0
 13  9  1  6  0  0  0
 13  1  1  0  0  0  0
 13 11  1  0  0  0  0
 14  7  1  0  0  0  0
 15 16  2  0  0  0  0
 16 11  1  0  0  0  0
 16 17  1  0  0  0  0
 18 14  1  0  0  0  0
 20 19  1  1  0  0  0
 20 18  1  0  0  0  0
 21 22  2  0  0  0  0
 22 20  1  0  0  0  0
 23 22  1  0  0  0  0
 24 25  1  0  0  0  0
 26  6  1  0  0  0  0
 27 26  1  0  0  0  0
 28 29  2  0  0  0  0
 29 27  1  0  0  0  0
 30 29  1  0  0  0  0
 31 30  1  0  0  0  0
 32 33  1  0  0  0  0
 33 31  1  0  0  0  0
 38 35  1  6  0  0  0
 38 39  1  0  0  0  0
 39 43  1  0  0  0  0
 39 36  1  1  0  0  0
 39 37  1  0  0  0  0
 40 34  1  1  0  0  0
 40 38  1  0  0  0  0
 40 42  1  0  0  0  0
 42 41  1  6  0  0  0
 42 37  1  0  0  0  0
 43 44  2  0  0  0  0
 45 46  1  0  0  0  0
 45 43  1  0  0  0  0
 46 51  1  1  0  0  0
 47 49  1  0  0  0  0
 47 46  1  0  0  0  0
 48 47  2  0  0  0  0
 51 50  1  0  0  0  0
M  END
>  <MODEL>
7

>  <REMARK>
 VINA RESULT:      -1.2      3.582     10.772
  Name = 
  17 active torsions:
  status: ('A' for Active; 'I' for Inactive)
    1  A    between atoms: C_4  and  C_30
    2  A    between atoms: C_6  and  C_42
    3  A    between atoms: C_10  and  C_20
    4  A    between atoms: C_10  and  O_46
    5  A    between atoms: C_11  and  N_44
    6  A    between atoms: C_11  and  C_48
    7  A    between atoms: C_13  and  O_15
    8  A    between atoms: C_19  and  C_43
    9  A    between atoms: C_19  and  N_45
   10  A    between atoms: C_22  and  C_37
   11  A    between atoms: N_23  and  C_24
   12  A    between atoms: C_24  and  C_41
   13  A    between atoms: C_25  and  C_37
   14  A    between atoms: C_30  and  O_46
   15  A    between atoms: C_30  and  C_50
   16  A    between atoms: C_31  and  C_41
   17  A    between atoms: C_34  and  C_43
                            x       y       z     vdW  Elec       q    Type
                         _______ _______ _______ _____ _____    ______ ____

>  <TORSDO>
F 17

$$$$
=
 OpenBabel11072412363D

 51 54  0  0  1  0  0  0  0  0999 V2000
  161.9330  209.9060  152.3650 C   0  0  2  0  0  3  0  0  0  0  0  0
  161.6340  206.9970  152.5560 C   0  0  0  0  0  2  0  0  0  0  0  0
  161.6120  207.9620  153.7570 C   0  0  1  0  0  3  0  0  0  0  0  0
  162.1430  209.0060  151.1280 C   0  0  0  0  0  2  0  0  0  0  0  0
  161.3640  207.7000  151.2280 C   0  0  1  0  0  3  0  0  0  0  0  0
  161.1110  209.3140  153.4400 N   0  0  0  0  0  0  0  0  0  0  0  0
  159.7910  212.8820  152.8110 C   0  0  0  0  0  0  0  0  0  0  0  0
  159.0810  214.4440  149.6870 C   0  0  0  0  0  3  0  0  0  0  0  0
  160.6190  211.9020  153.0350 N   0  0  0  0  0  0  0  0  0  0  0  0
  162.1210  211.3320  149.5760 C   0  0  0  0  0  1  0  0  0  0  0  0
  160.9810  211.4360  150.5730 C   0  0  1  0  0  3  0  0  0  0  0  0
  158.9710  214.3990  151.0020 O   0  0  0  0  0  0  0  0  0  0  0  0
  161.5350  211.3470  152.0160 C   0  0  2  0  0  3  0  0  0  0  0  0
  158.9740  213.3650  153.8830 N   0  0  0  0  0  2  0  0  0  0  0  0
  159.6520  213.3720  151.4350 C   0  0  0  0  0  0  0  0  0  0  0  0
  160.2410  212.7270  150.3930 C   0  0  0  0  0  0  0  0  0  0  0  0
  159.8690  213.3850  149.2380 C   0  0  0  0  0  3  0  0  0  0  0  0
  157.9960  214.4350  153.7330 C   0  0  0  0  0  2  0  0  0  0  0  0
  156.6460  212.6320  154.5540 O   0  0  0  0  0  1  0  0  0  0  0  0
  156.6200  213.9820  154.2050 C   0  0  2  0  0  3  0  0  0  0  0  0
  154.2940  214.4120  153.5580 C   0  0  0  0  0  2  0  0  0  0  0  0
  155.5600  214.2620  153.1770 C   0  0  0  0  0  0  0  0  0  0  0  0
  155.8890  214.3770  151.7250 C   0  0  0  0  0  1  0  0  0  0  0  0
  160.9040  207.3990  154.8220 O   0  0  0  0  0  0  0  0  0  0  0  0
  160.6420  206.0890  154.4230 C   0  0  0  0  0  1  0  0  0  0  0  0
  159.6890  209.2840  153.0770 C   0  0  0  0  0  2  0  0  0  0  0  0
  158.9300  210.3420  153.8580 C   0  0  0  0  0  2  0  0  0  0  0  0
  158.5100  210.1370  156.1950 O   0  0  0  0  0  0  0  0  0  0  0  0
  159.3610  210.3200  155.2840 C   0  0  0  0  0  0  0  0  0  0  0  0
  160.7370  210.5190  155.6040 N   0  0  0  0  0  2  0  0  0  0  0  0
  161.2120  210.6300  156.9730 C   0  0  0  0  0  2  0  0  0  0  0  0
  163.2990  210.9880  155.8830 O   0  0  0  0  0  1  0  0  0  0  0  0
  162.5530  211.3450  157.0050 C   0  0  0  0  0  2  0  0  0  0  0  0
  161.6960  206.7840  150.0650 C   0  0  0  0  0  2  0  0  0  0  0  0
  160.7220  206.2670  147.3620 C   0  0  0  0  0  1  0  0  0  0  0  0
  162.8480  204.3860  147.9840 C   0  0  0  0  0  1  0  0  0  0  0  0
  161.5290  203.5390  149.7810 O   0  0  0  0  0  0  0  0  0  0  0  0
  160.5120  205.2270  148.4660 C   0  0  1  0  0  3  0  0  0  0  0  0
  161.4430  204.0130  148.4540 C   0  0  1  0  0  0  0  0  0  0  0  0
  160.5860  205.7490  149.8710 C   0  0  1  0  0  3  0  0  0  0  0  0
  159.7990  203.9610  151.2100 F   0  0  0  0  0  0  0  0  0  0  0  0
  160.9420  204.4950  150.6410 C   0  0  1  0  0  3  0  0  0  0  0  0
  160.8960  202.9170  147.5620 C   0  0  0  0  0  0  0  0  0  0  0  0
  159.8060  202.3540  147.8570 O   0  0  0  0  0  0  0  0  0  0  0  0
  161.5520  202.5100  146.3910 O   0  0  0  0  0  0  0  0  0  0  0  0
  161.0320  202.7020  145.0820 C   0  0  1  0  0  3  0  0  0  0  0  0
  159.9170  201.7420  144.8400 C   0  0  0  0  0  0  0  0  0  0  0  0
  160.1720  200.5210  144.6680 O   0  0  0  0  0  0  0  0  0  0  0  0
  158.6020  202.1920  144.7770 O   0  0  0  0  0  1  0  0  0  0  0  0
  161.7130  205.0520  144.6060 C   0  0  0  0  0  1  0  0  0  0  0  0
  160.5470  204.1340  144.9280 C   0  0  0  0  0  2  0  0  0  0  0  0
  1  4  1  6  0  0  0
  1  6  1  0  0  0  0
  2  3  1  0  0  0  0
  3 24  1  1  0  0  0
  4  5  1  0  0  0  0
  5 34  1  6  0  0  0
  5  2  1  0  0  0  0
  6  3  1  0  0  0  0
  7  9  2  0  0  0  0
  7 14  1  0  0  0  0
  8 12  1  0  0  0  0
 11 10  1  6  0  0  0
 11 13  1  0  0  0  0
 12 15  1  0  0  0  0
 13  1  1  0  0  0  0
 13  9  1  1  0  0  0
 15  7  1  0  0  0  0
 16 11  1  0  0  0  0
 16 15  2  0  0  0  0
 17  8  2  0  0  0  0
 17 16  1  0  0  0  0
 18 14  1  0  0  0  0
 18 20  1  0  0  0  0
 20 19  1  6  0  0  0
 22 21  2  0  0  0  0
 22 20  1  0  0  0  0
 23 22  1  0  0  0  0
 25 24  1  0  0  0  0
 26  6  1  0  0  0  0
 26 27  1  0  0  0  0
 27 29  1  0  0  0  0
 29 30  1  0  0  0  0
 29 28  2  0  0  0  0
 30 31  1  0  0  0  0
 31 33  1  0  0  0  0
 32 33  1  0  0  0  0
 37 42  1  0  0  0  0
 38 35  1  6  0  0  0
 38 40  1  0  0  0  0
 39 36  1  6  0  0  0
 39 38  1  0  0  0  0
 39 37  1  0  0  0  0
 40 34  1  6  0  0  0
 40 42  1  0  0  0  0
 42 41  1  6  0  0  0
 43 44  2  0  0  0  0
 43 39  1  0  0  0  0
 45 43  1  0  0  0  0
 46 51  1  1  0  0  0
 46 45  1  0  0  0  0
 47 46  1  0  0  0  0
 48 47  2  0  0  0  0
 49 47  1  0  0  0  0
 50 51  1  0  0  0  0
M  END
>  <MODEL>
8

>  <REMARK>
 VINA RESULT:      -0.9      2.416      3.838
  Name = 
  17 active torsions:
  status: ('A' for Active; 'I' for Inactive)
    1  A    between atoms: C_4  and  C_30
    2  A    between atoms: C_6  and  C_42
    3  A    between atoms: C_10  and  C_20
    4  A    between atoms: C_10  and  O_46
    5  A    between atoms: C_11  and  N_44
    6  A    between atoms: C_11  and  C_48
    7  A    between atoms: C_13  and  O_15
    8  A    between atoms: C_19  and  C_43
    9  A    between atoms: C_19  and  N_45
   10  A    between atoms: C_22  and  C_37
   11  A    between atoms: N_23  and  C_24
   12  A    between atoms: C_24  and  C_41
   13  A    between atoms: C_25  and  C_37
   14  A    between atoms: C_30  and  O_46
   15  A    between atoms: C_30  and  C_50
   16  A    between atoms: C_31  and  C_41
   17  A    between atoms: C_34  and  C_43
                            x       y       z     vdW  Elec       q    Type
                         _______ _______ _______ _____ _____    ______ ____

>  <TORSDO>
F 17

$$$$
=
 OpenBabel11072412363D

 51 54  0  0  1  0  0  0  0  0999 V2000
  161.7250  209.9880  153.2410 C   0  0  2  0  0  3  0  0  0  0  0  0
  160.7610  207.6460  154.7150 C   0  0  0  0  0  2  0  0  0  0  0  0
  160.4670  209.1080  155.1020 C   0  0  1  0  0  3  0  0  0  0  0  0
  162.2150  208.5700  152.8800 C   0  0  0  0  0  2  0  0  0  0  0  0
  161.2010  207.4970  153.2620 C   0  0  1  0  0  3  0  0  0  0  0  0
  160.4360  210.0440  153.9610 N   0  0  0  0  0  0  0  0  0  0  0  0
  160.2980  212.6770  151.1480 C   0  0  0  0  0  0  0  0  0  0  0  0
  161.1390  212.2260  147.7140 C   0  0  0  0  0  3  0  0  0  0  0  0
  160.7440  212.0000  152.1670 N   0  0  0  0  0  0  0  0  0  0  0  0
  163.2260  209.6240  150.5100 C   0  0  0  0  0  1  0  0  0  0  0  0
  161.8580  210.2490  150.7170 C   0  0  1  0  0  3  0  0  0  0  0  0
  160.5540  212.9190  148.6740 O   0  0  0  0  0  0  0  0  0  0  0  0
  161.8170  210.9850  152.0780 C   0  0  2  0  0  3  0  0  0  0  0  0
  159.2800  213.6620  151.3560 N   0  0  0  0  0  2  0  0  0  0  0  0
  160.7810  212.3160  149.8110 C   0  0  0  0  0  0  0  0  0  0  0  0
  161.5450  211.2100  149.6110 C   0  0  0  0  0  0  0  0  0  0  0  0
  161.7750  211.1080  148.2520 C   0  0  0  0  0  3  0  0  0  0  0  0
  158.6910  214.4520  150.2830 C   0  0  0  0  0  2  0  0  0  0  0  0
  156.7450  213.5120  151.3190 O   0  0  0  0  0  1  0  0  0  0  0  0
  157.1710  214.4500  150.3780 C   0  0  2  0  0  3  0  0  0  0  0  0
  155.2250  214.4150  148.8860 C   0  0  0  0  0  2  0  0  0  0  0  0
  156.5310  214.2120  149.0390 C   0  0  0  0  0  0  0  0  0  0  0  0
  157.3260  213.7500  147.8630 C   0  0  0  0  0  1  0  0  0  0  0  0
  159.2900  209.1860  155.8510 O   0  0  0  0  0  0  0  0  0  0  0  0
  159.6000  210.0330  156.9150 C   0  0  0  0  0  1  0  0  0  0  0  0
  159.3070  209.7560  153.0680 C   0  0  0  0  0  2  0  0  0  0  0  0
  158.4430  210.9940  152.9070 C   0  0  0  0  0  2  0  0  0  0  0  0
  159.2660  212.3520  154.6840 O   0  0  0  0  0  0  0  0  0  0  0  0
  158.3040  211.6840  154.2200 C   0  0  0  0  0  0  0  0  0  0  0  0
  157.0810  211.5700  154.9460 N   0  0  0  0  0  2  0  0  0  0  0  0
  156.9130  212.1130  156.2840 C   0  0  0  0  0  2  0  0  0  0  0  0
  155.6530  213.8010  155.1750 O   0  0  0  0  0  1  0  0  0  0  0  0
  155.6970  213.0240  156.3310 C   0  0  0  0  0  2  0  0  0  0  0  0
  161.7680  206.1100  153.0180 C   0  0  0  0  0  2  0  0  0  0  0  0
  160.7240  206.8920  150.4050 C   0  0  0  0  0  1  0  0  0  0  0  0
  162.9880  205.1080  150.0320 C   0  0  0  0  0  1  0  0  0  0  0  0
  161.7970  203.4030  151.1980 O   0  0  0  0  0  0  0  0  0  0  0  0
  160.6240  205.4350  150.8680 C   0  0  1  0  0  3  0  0  0  0  0  0
  161.6290  204.4510  150.2670 C   0  0  1  0  0  0  0  0  0  0  0  0
  160.7190  205.2190  152.3500 C   0  0  1  0  0  3  0  0  0  0  0  0
  160.0990  202.9540  152.6580 F   0  0  0  0  0  0  0  0  0  0  0  0
  161.1830  203.7790  152.4150 C   0  0  1  0  0  3  0  0  0  0  0  0
  161.1190  203.8850  148.9570 C   0  0  0  0  0  0  0  0  0  0  0  0
  160.7890  202.6690  148.8870 O   0  0  0  0  0  0  0  0  0  0  0  0
  160.9780  204.6740  147.8070 O   0  0  0  0  0  0  0  0  0  0  0  0
  161.9460  204.7440  146.7680 C   0  0  1  0  0  3  0  0  0  0  0  0
  161.4760  203.9610  145.5900 C   0  0  0  0  0  0  0  0  0  0  0  0
  161.0250  202.7970  145.7550 O   0  0  0  0  0  1  0  0  0  0  0  0
  161.5560  204.4990  144.3100 O   0  0  0  0  0  0  0  0  0  0  0  0
  162.3530  207.0480  147.6300 C   0  0  0  0  0  1  0  0  0  0  0  0
  162.1830  206.1960  146.3860 C   0  0  0  0  0  2  0  0  0  0  0  0
  1  4  1  6  0  0  0
  1  6  1  0  0  0  0
  2  3  1  0  0  0  0
  3 24  1  6  0  0  0
  4  5  1  0  0  0  0
  5 34  1  1  0  0  0
  5  2  1  0  0  0  0
  6  3  1  0  0  0  0
  7 14  1  0  0  0  0
  7  9  2  0  0  0  0
  8 17  2  0  0  0  0
  8 12  1  0  0  0  0
 11 10  1  6  0  0  0
 11 13  1  0  0  0  0
 12 15  1  0  0  0  0
 13  9  1  6  0  0  0
 13  1  1  0  0  0  0
 15  7  1  0  0  0  0
 16 15  2  0  0  0  0
 16 11  1  0  0  0  0
 17 16  1  0  0  0  0
 18 20  1  0  0  0  0
 18 14  1  0  0  0  0
 20 19  1  1  0  0  0
 21 22  2  0  0  0  0
 22 20  1  0  0  0  0
 23 22  1  0  0  0  0
 24 25  1  0  0  0  0
 26  6  1  0  0  0  0
 27 26  1  0  0  0  0
 27 29  1  0  0  0  0
 29 28  2  0  0  0  0
 29 30  1  0  0  0  0
 30 31  1  0  0  0  0
 31 33  1  0  0  0  0
 32 33  1  0  0  0  0
 37 42  1  0  0  0  0
 38 35  1  1  0  0  0
 38 40  1  0  0  0  0
 39 36  1  6  0  0  0
 39 38  1  0  0  0  0
 39 37  1  0  0  0  0
 40 42  1  0  0  0  0
 40 34  1  6  0  0  0
 42 41  1  6  0  0  0
 43 39  1  0  0  0  0
 44 43  2  0  0  0  0
 45 43  1  0  0  0  0
 46 51  1  6  0  0  0
 46 45  1  0  0  0  0
 47 48  1  0  0  0  0
 47 46  1  0  0  0  0
 49 47  2  0  0  0  0
 51 50  1  0  0  0  0
M  END
>  <MODEL>
9

>  <REMARK>
 VINA RESULT:      -0.9      2.062      2.984
  Name = 
  17 active torsions:
  status: ('A' for Active; 'I' for Inactive)
    1  A    between atoms: C_4  and  C_30
    2  A    between atoms: C_6  and  C_42
    3  A    between atoms: C_10  and  C_20
    4  A    between atoms: C_10  and  O_46
    5  A    between atoms: C_11  and  N_44
    6  A    between atoms: C_11  and  C_48
    7  A    between atoms: C_13  and  O_15
    8  A    between atoms: C_19  and  C_43
    9  A    between atoms: C_19  and  N_45
   10  A    between atoms: C_22  and  C_37
   11  A    between atoms: N_23  and  C_24
   12  A    between atoms: C_24  and  C_41
   13  A    between atoms: C_25  and  C_37
   14  A    between atoms: C_30  and  O_46
   15  A    between atoms: C_30  and  C_50
   16  A    between atoms: C_31  and  C_41
   17  A    between atoms: C_34  and  C_43
                            x       y       z     vdW  Elec       q    Type
                         _______ _______ _______ _____ _____    ______ ____

>  <TORSDO>
F 17

$$$$
