=
 OpenBabel11072412363D

 31 33  0  0  1  0  0  0  0  0999 V2000
  161.5090  206.5270  152.2840 C   0  0  2  0  0  3  0  0  0  0  0  0
  160.9700  207.2180  149.5010 C   0  0  1  0  0  3  0  0  0  0  0  0
  161.8470  208.1090  150.3180 C   0  0  0  0  0  0  0  0  0  0  0  0
  162.5870  208.9340  149.8050 O   0  0  0  0  0  0  0  0  0  0  0  0
  160.6180  205.6770  151.3560 C   0  0  0  0  0  2  0  0  0  0  0  0
  161.2160  207.1710  148.1350 O   0  0  0  0  0  0  0  0  0  0  0  0
  160.5410  205.9770  147.7850 C   0  0  2  0  0  3  0  0  0  0  0  0
  160.5660  205.0230  148.9290 N   0  0  0  0  0  0  0  0  0  0  0  0
  161.0820  206.3960  153.7360 C   0  0  0  0  0  1  0  0  0  0  0  0
  161.7040  208.0070  151.8220 C   0  0  1  0  0  3  0  0  0  0  0  0
  161.1840  205.8260  149.9550 C   0  0  1  0  0  3  0  0  0  0  0  0
  160.1560  205.8900  145.4140 O   0  0  0  0  0  1  0  0  0  0  0  0
  161.0050  205.4280  146.4240 C   0  0  1  0  0  3  0  0  0  0  0  0
  162.4400  205.8450  146.1200 C   0  0  1  0  0  3  0  0  0  0  0  0
  163.3120  204.7970  146.4120 O   0  0  0  0  0  1  0  0  0  0  0  0
  162.5730  206.2050  144.7910 F   0  0  0  0  0  0  0  0  0  0  0  0
  160.6230  208.9670  152.3370 C   0  0  0  0  0  2  0  0  0  0  0  0
  161.2090  210.1550  152.9420 N   0  0  0  0  0  0  0  0  0  0  0  0
  160.3020  211.9430  154.2150 C   0  0  0  0  0  2  0  0  0  0  0  0
  160.1890  211.1920  152.9170 C   0  0  0  0  0  2  0  0  0  0  0  0
  161.4420  209.8560  154.2960 N   0  0  0  0  0  2  0  0  0  0  0  0
  161.2320  211.0920  155.0350 C   0  0  2  0  0  3  0  0  0  0  0  0
  160.6460  210.8060  156.2670 O   0  0  0  0  0  1  0  0  0  0  0  0
  161.4870  203.9110  148.7060 C   0  0  0  0  0  2  0  0  0  0  0  0
  161.2050  202.8050  149.7100 C   0  0  0  0  0  2  0  0  0  0  0  0
  160.9310  200.4340  149.8410 F   0  0  0  0  0  0  0  0  0  0  0  0
  159.2940  201.6620  148.9280 F   0  0  0  0  0  0  0  0  0  0  0  0
  160.6650  201.5360  149.0460 C   0  0  0  0  0  0  0  0  0  0  0  0
  160.3410  201.6770  146.6510 O   0  0  0  0  0  1  0  0  0  0  0  0
  161.2510  201.3140  147.6460 C   0  0  0  0  0  3  0  0  0  0  0  0
  161.6340  199.9820  147.4720 O   0  0  0  0  0  1  0  0  0  0  0  0
  1  9  1  1  0  0  0
  2  6  1  6  0  0  0
  2 11  1  0  0  0  0
  2  3  1  0  0  0  0
  3 10  1  0  0  0  0
  4  3  2  0  0  0  0
  5  1  1  0  0  0  0
  7 13  1  6  0  0  0
  7  6  1  0  0  0  0
  7  8  1  0  0  0  0
  8 11  1  0  0  0  0
 10  1  1  0  0  0  0
 10 17  1  6  0  0  0
 11  5  1  1  0  0  0
 13 12  1  6  0  0  0
 14 16  1  6  0  0  0
 14 15  1  0  0  0  0
 14 13  1  0  0  0  0
 17 18  1  0  0  0  0
 18 21  1  0  0  0  0
 19 22  1  0  0  0  0
 20 18  1  0  0  0  0
 20 19  1  0  0  0  0
 21 22  1  0  0  0  0
 22 23  1  1  0  0  0
 24  8  1  0  0  0  0
 24 25  1  0  0  0  0
 27 28  1  0  0  0  0
 28 25  1  0  0  0  0
 28 26  1  0  0  0  0
 29 30  1  0  0  0  0
 30 28  1  0  0  0  0
 31 30  1  0  0  0  0
M  END
>  <MODEL>
1

>  <REMARK>
 VINA RESULT:      -8.5      0.000      0.000
  Name = 
  8 active torsions:
  status: ('A' for Active; 'I' for Inactive)
    1  A    between atoms: N_1  and  C_23
    2  A    between atoms: C_14  and  C_28
    3  A    between atoms: C_18  and  C_31
    4  A    between atoms: C_19  and  C_28
    5  A    between atoms: N_20  and  C_30
    6  A    between atoms: C_23  and  C_26
    7  A    between atoms: C_25  and  C_30
    8  A    between atoms: C_25  and  C_31
                            x       y       z     vdW  Elec       q    Type
                         _______ _______ _______ _____ _____    ______ ____

>  <TORSDO>
F 8

$$$$
=
 OpenBabel11072412363D

 31 33  0  0  1  0  0  0  0  0999 V2000
  161.7120  205.8020  151.8940 C   0  0  2  0  0  3  0  0  0  0  0  0
  161.0860  206.7240  149.1970 C   0  0  1  0  0  3  0  0  0  0  0  0
  161.9590  207.5640  150.0720 C   0  0  0  0  0  0  0  0  0  0  0  0
  162.6640  208.4510  149.6190 O   0  0  0  0  0  0  0  0  0  0  0  0
  160.8210  205.0130  150.9130 C   0  0  0  0  0  2  0  0  0  0  0  0
  161.3000  206.8080  147.8280 O   0  0  0  0  0  0  0  0  0  0  0  0
  160.6490  205.6310  147.3850 C   0  0  2  0  0  3  0  0  0  0  0  0
  160.7280  204.5790  148.4380 N   0  0  0  0  0  0  0  0  0  0  0  0
  161.3240  205.5290  153.3370 C   0  0  0  0  0  1  0  0  0  0  0  0
  161.8550  207.3220  151.5630 C   0  0  1  0  0  3  0  0  0  0  0  0
  161.3490  205.3040  149.5180 C   0  0  1  0  0  3  0  0  0  0  0  0
  160.1750  205.6940  145.0300 O   0  0  0  0  0  1  0  0  0  0  0  0
  161.0940  205.2190  145.9710 C   0  0  1  0  0  3  0  0  0  0  0  0
  162.4830  205.7610  145.6500 C   0  0  1  0  0  3  0  0  0  0  0  0
  163.4480  204.7960  145.9370 O   0  0  0  0  0  1  0  0  0  0  0  0
  162.5710  206.1240  144.3170 F   0  0  0  0  0  0  0  0  0  0  0  0
  160.7620  208.2010  152.1860 C   0  0  0  0  0  2  0  0  0  0  0  0
  161.3330  209.2690  152.9950 N   0  0  0  0  0  0  0  0  0  0  0  0
  160.4870  211.3510  153.7640 C   0  0  0  0  0  2  0  0  0  0  0  0
  160.7340  210.5140  152.5400 C   0  0  0  0  0  2  0  0  0  0  0  0
  160.8860  209.0710  154.3140 N   0  0  0  0  0  2  0  0  0  0  0  0
  160.7220  210.3930  154.9000 C   0  0  2  0  0  3  0  0  0  0  0  0
  159.6210  210.3930  155.7530 O   0  0  0  0  0  1  0  0  0  0  0  0
  161.6720  203.5190  148.0950 C   0  0  0  0  0  2  0  0  0  0  0  0
  160.9100  202.2800  147.6530 C   0  0  0  0  0  2  0  0  0  0  0  0
  161.2020  199.9090  147.7520 F   0  0  0  0  0  0  0  0  0  0  0  0
  162.4960  201.2120  149.0370 F   0  0  0  0  0  0  0  0  0  0  0  0
  161.2220  201.0590  148.5230 C   0  0  0  0  0  0  0  0  0  0  0  0
  158.9720  201.3750  149.3580 O   0  0  0  0  0  1  0  0  0  0  0  0
  160.2450  200.9100  149.6950 C   0  0  0  0  0  3  0  0  0  0  0  0
  160.7110  201.5890  150.8220 O   0  0  0  0  0  1  0  0  0  0  0  0
  1  9  1  1  0  0  0
  2  6  1  6  0  0  0
  2 11  1  0  0  0  0
  2  3  1  0  0  0  0
  3 10  1  0  0  0  0
  4  3  2  0  0  0  0
  5  1  1  0  0  0  0
  7 13  1  6  0  0  0
  7  6  1  0  0  0  0
  7  8  1  0  0  0  0
  8 11  1  0  0  0  0
 10  1  1  0  0  0  0
 10 17  1  6  0  0  0
 11  5  1  1  0  0  0
 13 12  1  6  0  0  0
 14 16  1  6  0  0  0
 14 15  1  0  0  0  0
 14 13  1  0  0  0  0
 17 18  1  0  0  0  0
 18 21  1  0  0  0  0
 19 22  1  0  0  0  0
 20 18  1  0  0  0  0
 20 19  1  0  0  0  0
 21 22  1  0  0  0  0
 22 23  1  1  0  0  0
 24  8  1  0  0  0  0
 25 24  1  0  0  0  0
 25 28  1  0  0  0  0
 26 28  1  0  0  0  0
 28 27  1  0  0  0  0
 28 30  1  0  0  0  0
 29 30  1  0  0  0  0
 30 31  1  0  0  0  0
M  END
>  <MODEL>
2

>  <REMARK>
 VINA RESULT:      -8.1      1.293      1.427
  Name = 
  8 active torsions:
  status: ('A' for Active; 'I' for Inactive)
    1  A    between atoms: N_1  and  C_23
    2  A    between atoms: C_14  and  C_28
    3  A    between atoms: C_18  and  C_31
    4  A    between atoms: C_19  and  C_28
    5  A    between atoms: N_20  and  C_30
    6  A    between atoms: C_23  and  C_26
    7  A    between atoms: C_25  and  C_30
    8  A    between atoms: C_25  and  C_31
                            x       y       z     vdW  Elec       q    Type
                         _______ _______ _______ _____ _____    ______ ____

>  <TORSDO>
F 8

$$$$
=
 OpenBabel11072412363D

 31 33  0  0  1  0  0  0  0  0999 V2000
  161.2290  207.7280  155.4930 C   0  0  2  0  0  3  0  0  0  0  0  0
  160.7840  208.5550  152.7310 C   0  0  1  0  0  3  0  0  0  0  0  0
  161.4060  209.5170  153.6900 C   0  0  0  0  0  0  0  0  0  0  0  0
  162.0100  210.5070  153.3100 O   0  0  0  0  0  0  0  0  0  0  0  0
  160.5940  206.8140  154.4260 C   0  0  0  0  0  2  0  0  0  0  0  0
  161.1390  208.6790  151.3940 O   0  0  0  0  0  0  0  0  0  0  0  0
  160.7380  207.4160  150.8950 C   0  0  2  0  0  3  0  0  0  0  0  0
  160.8580  206.3840  151.9630 N   0  0  0  0  0  0  0  0  0  0  0  0
  160.7250  207.3890  156.8850 C   0  0  0  0  0  1  0  0  0  0  0  0
  161.1690  209.2540  155.1620 C   0  0  1  0  0  3  0  0  0  0  0  0
  161.2280  207.1920  153.0980 C   0  0  1  0  0  3  0  0  0  0  0  0
  160.4260  206.7360  148.6110 O   0  0  0  0  0  1  0  0  0  0  0  0
  161.4030  207.0880  149.5460 C   0  0  1  0  0  3  0  0  0  0  0  0
  162.2090  208.2730  149.0260 C   0  0  1  0  0  3  0  0  0  0  0  0
  163.0800  207.8520  148.0210 O   0  0  0  0  0  1  0  0  0  0  0  0
  161.3690  209.2570  148.5320 F   0  0  0  0  0  0  0  0  0  0  0  0
  159.8860  209.9450  155.6430 C   0  0  0  0  0  2  0  0  0  0  0  0
  159.6860  211.2240  154.9750 N   0  0  0  0  0  0  0  0  0  0  0  0
  157.9670  212.8580  155.0800 C   0  0  0  0  0  2  0  0  0  0  0  0
  158.2510  211.4050  154.8230 C   0  0  0  0  0  2  0  0  0  0  0  0
  160.1230  212.2250  155.8600 N   0  0  0  0  0  2  0  0  0  0  0  0
  159.2620  213.3770  155.6410 C   0  0  2  0  0  3  0  0  0  0  0  0
  159.0270  214.0230  156.8530 O   0  0  0  0  0  1  0  0  0  0  0  0
  161.9910  205.4880  151.7460 C   0  0  0  0  0  2  0  0  0  0  0  0
  161.5270  204.0440  151.8480 C   0  0  0  0  0  2  0  0  0  0  0  0
  159.6220  204.1320  150.4060 F   0  0  0  0  0  0  0  0  0  0  0  0
  161.6600  203.9390  149.4940 F   0  0  0  0  0  0  0  0  0  0  0  0
  160.8690  203.5480  150.5570 C   0  0  0  0  0  0  0  0  0  0  0  0
  161.7800  201.3990  151.1990 O   0  0  0  0  0  1  0  0  0  0  0  0
  160.7310  202.0220  150.5190 C   0  0  0  0  0  3  0  0  0  0  0  0
  160.6820  201.5590  149.2030 O   0  0  0  0  0  1  0  0  0  0  0  0
  1  9  1  1  0  0  0
  2  6  1  6  0  0  0
  2 11  1  0  0  0  0
  2  3  1  0  0  0  0
  3 10  1  0  0  0  0
  4  3  2  0  0  0  0
  5  1  1  0  0  0  0
  7 13  1  6  0  0  0
  7  6  1  0  0  0  0
  7  8  1  0  0  0  0
  8 11  1  0  0  0  0
 10  1  1  0  0  0  0
 10 17  1  6  0  0  0
 11  5  1  1  0  0  0
 13 12  1  6  0  0  0
 14 15  1  6  0  0  0
 14 13  1  0  0  0  0
 16 14  1  0  0  0  0
 18 17  1  0  0  0  0
 18 21  1  0  0  0  0
 19 22  1  0  0  0  0
 20 18  1  0  0  0  0
 20 19  1  0  0  0  0
 22 21  1  0  0  0  0
 22 23  1  1  0  0  0
 24 25  1  0  0  0  0
 24  8  1  0  0  0  0
 26 28  1  0  0  0  0
 27 28  1  0  0  0  0
 28 25  1  0  0  0  0
 30 28  1  0  0  0  0
 30 29  1  0  0  0  0
 31 30  1  0  0  0  0
M  END
>  <MODEL>
3

>  <REMARK>
 VINA RESULT:      -7.1      2.507      3.439
  Name = 
  8 active torsions:
  status: ('A' for Active; 'I' for Inactive)
    1  A    between atoms: N_1  and  C_23
    2  A    between atoms: C_14  and  C_28
    3  A    between atoms: C_18  and  C_31
    4  A    between atoms: C_19  and  C_28
    5  A    between atoms: N_20  and  C_30
    6  A    between atoms: C_23  and  C_26
    7  A    between atoms: C_25  and  C_30
    8  A    between atoms: C_25  and  C_31
                            x       y       z     vdW  Elec       q    Type
                         _______ _______ _______ _____ _____    ______ ____

>  <TORSDO>
F 8

$$$$
=
 OpenBabel11072412363D

 31 33  0  0  1  0  0  0  0  0999 V2000
  161.5300  205.8180  151.8320 C   0  0  2  0  0  3  0  0  0  0  0  0
  161.2430  207.1900  149.2730 C   0  0  1  0  0  3  0  0  0  0  0  0
  162.0680  207.8160  150.3480 C   0  0  0  0  0  0  0  0  0  0  0  0
  162.8690  208.7070  150.1120 O   0  0  0  0  0  0  0  0  0  0  0  0
  160.7000  205.2590  150.6580 C   0  0  0  0  0  2  0  0  0  0  0  0
  161.6010  207.4670  147.9600 O   0  0  0  0  0  0  0  0  0  0  0  0
  160.9300  206.4250  147.2760 C   0  0  2  0  0  3  0  0  0  0  0  0
  160.8370  205.2200  148.1480 N   0  0  0  0  0  0  0  0  0  0  0  0
  160.9800  205.3550  153.1700 C   0  0  0  0  0  1  0  0  0  0  0  0
  161.7970  207.3550  151.7650 C   0  0  1  0  0  3  0  0  0  0  0  0
  161.3850  205.7210  149.3840 C   0  0  1  0  0  3  0  0  0  0  0  0
  162.4880  205.2240  145.8950 O   0  0  0  0  0  1  0  0  0  0  0  0
  161.4930  206.2050  145.8610 C   0  0  1  0  0  3  0  0  0  0  0  0
  160.3940  205.7860  144.8890 C   0  0  1  0  0  3  0  0  0  0  0  0
  160.5870  204.4630  144.4930 O   0  0  0  0  0  1  0  0  0  0  0  0
  159.1470  205.9200  145.4740 F   0  0  0  0  0  0  0  0  0  0  0  0
  160.7000  208.2070  152.4180 C   0  0  0  0  0  2  0  0  0  0  0  0
  161.2540  209.1300  153.3980 N   0  0  0  0  0  0  0  0  0  0  0  0
  160.5340  211.2320  154.2360 C   0  0  0  0  0  2  0  0  0  0  0  0
  160.8710  210.4710  152.9850 C   0  0  0  0  0  2  0  0  0  0  0  0
  160.5930  208.8850  154.6160 N   0  0  0  0  0  2  0  0  0  0  0  0
  160.4870  210.1660  155.2960 C   0  0  2  0  0  3  0  0  0  0  0  0
  159.2750  210.2340  155.9810 O   0  0  0  0  0  1  0  0  0  0  0  0
  161.7460  204.1580  147.7280 C   0  0  0  0  0  2  0  0  0  0  0  0
  161.2250  202.8160  148.2170 C   0  0  0  0  0  2  0  0  0  0  0  0
  159.6150  201.7060  146.8430 F   0  0  0  0  0  0  0  0  0  0  0  0
  161.5580  202.3470  145.9280 F   0  0  0  0  0  0  0  0  0  0  0  0
  160.9750  201.8320  147.0710 C   0  0  0  0  0  0  0  0  0  0  0  0
  161.2050  199.5290  146.3630 O   0  0  0  0  0  1  0  0  0  0  0  0
  161.5830  200.4510  147.3420 C   0  0  0  0  0  3  0  0  0  0  0  0
  161.2090  199.9810  148.6020 O   0  0  0  0  0  1  0  0  0  0  0  0
  1  9  1  1  0  0  0
  2  6  1  6  0  0  0
  2 11  1  0  0  0  0
  2  3  1  0  0  0  0
  3 10  1  0  0  0  0
  4  3  2  0  0  0  0
  5  1  1  0  0  0  0
  7 13  1  6  0  0  0
  7  6  1  0  0  0  0
  7  8  1  0  0  0  0
  8 11  1  0  0  0  0
 10  1  1  0  0  0  0
 10 17  1  6  0  0  0
 11  5  1  1  0  0  0
 13 12  1  1  0  0  0
 14 15  1  1  0  0  0
 14 16  1  0  0  0  0
 14 13  1  0  0  0  0
 17 18  1  0  0  0  0
 18 21  1  0  0  0  0
 19 22  1  0  0  0  0
 20 18  1  0  0  0  0
 20 19  1  0  0  0  0
 21 22  1  0  0  0  0
 22 23  1  6  0  0  0
 24  8  1  0  0  0  0
 24 25  1  0  0  0  0
 26 28  1  0  0  0  0
 27 28  1  0  0  0  0
 28 30  1  0  0  0  0
 28 25  1  0  0  0  0
 29 30  1  0  0  0  0
 30 31  1  0  0  0  0
M  END
>  <MODEL>
4

>  <REMARK>
 VINA RESULT:      -6.9      1.425      1.735
  Name = 
  8 active torsions:
  status: ('A' for Active; 'I' for Inactive)
    1  A    between atoms: N_1  and  C_23
    2  A    between atoms: C_14  and  C_28
    3  A    between atoms: C_18  and  C_31
    4  A    between atoms: C_19  and  C_28
    5  A    between atoms: N_20  and  C_30
    6  A    between atoms: C_23  and  C_26
    7  A    between atoms: C_25  and  C_30
    8  A    between atoms: C_25  and  C_31
                            x       y       z     vdW  Elec       q    Type
                         _______ _______ _______ _____ _____    ______ ____

>  <TORSDO>
F 8

$$$$
=
 OpenBabel11072412363D

 31 33  0  0  1  0  0  0  0  0999 V2000
  161.8040  206.8750  149.3800 C   0  0  2  0  0  3  0  0  0  0  0  0
  160.9800  206.6160  152.1660 C   0  0  1  0  0  3  0  0  0  0  0  0
  161.8840  205.5860  151.5730 C   0  0  0  0  0  0  0  0  0  0  0  0
  162.5340  204.8200  152.2670 O   0  0  0  0  0  0  0  0  0  0  0  0
  160.8730  207.8820  150.0860 C   0  0  0  0  0  2  0  0  0  0  0  0
  161.1010  206.8520  153.5290 O   0  0  0  0  0  0  0  0  0  0  0  0
  160.4550  208.1070  153.6400 C   0  0  2  0  0  3  0  0  0  0  0  0
  160.6310  208.8830  152.3800 N   0  0  0  0  0  0  0  0  0  0  0  0
  161.5190  206.8090  147.8890 C   0  0  0  0  0  1  0  0  0  0  0  0
  161.8840  205.4730  150.0630 C   0  0  1  0  0  3  0  0  0  0  0  0
  161.3010  207.9190  151.5430 C   0  0  1  0  0  3  0  0  0  0  0  0
  159.7040  209.5280  155.4270 O   0  0  0  0  0  1  0  0  0  0  0  0
  160.8180  208.8320  154.9480 C   0  0  1  0  0  3  0  0  0  0  0  0
  161.3040  207.8490  156.0070 C   0  0  1  0  0  3  0  0  0  0  0  0
  162.0000  208.5300  157.0050 O   0  0  0  0  0  1  0  0  0  0  0  0
  160.2380  207.1660  156.5670 F   0  0  0  0  0  0  0  0  0  0  0  0
  160.8110  204.4860  149.5860 C   0  0  0  0  0  2  0  0  0  0  0  0
  161.3920  203.2020  149.2200 N   0  0  0  0  0  0  0  0  0  0  0  0
  160.4500  201.1210  148.5710 C   0  0  0  0  0  2  0  0  0  0  0  0
  160.4540  202.1740  149.6430 C   0  0  0  0  0  2  0  0  0  0  0  0
  161.4310  203.1520  147.8150 N   0  0  0  0  0  2  0  0  0  0  0  0
  161.2100  201.7630  147.4420 C   0  0  2  0  0  3  0  0  0  0  0  0
  160.4540  201.7070  146.2730 O   0  0  0  0  0  1  0  0  0  0  0  0
  161.5800  209.9830  152.5320 C   0  0  0  0  0  2  0  0  0  0  0  0
  161.1020  211.1840  151.7300 C   0  0  0  0  0  2  0  0  0  0  0  0
  158.8230  211.0830  152.4440 F   0  0  0  0  0  0  0  0  0  0  0  0
  160.3020  212.2020  153.7030 F   0  0  0  0  0  0  0  0  0  0  0  0
  159.9340  211.9090  152.4040 C   0  0  0  0  0  0  0  0  0  0  0  0
  158.2070  213.2910  151.4190 O   0  0  0  0  0  1  0  0  0  0  0  0
  159.5740  213.2210  151.6970 C   0  0  0  0  0  3  0  0  0  0  0  0
  160.3030  213.3670  150.5150 O   0  0  0  0  0  1  0  0  0  0  0  0
  1  9  1  6  0  0  0
  1 10  1  0  0  0  0
  1  5  1  0  0  0  0
  2  3  1  6  0  0  0
  2  6  1  0  0  0  0
  3  4  2  0  0  0  0
  6  7  1  0  0  0  0
  7 13  1  1  0  0  0
  8 24  1  0  0  0  0
  8  7  1  0  0  0  0
 10 17  1  1  0  0  0
 10  3  1  0  0  0  0
 11  5  1  6  0  0  0
 11  2  1  0  0  0  0
 11  8  1  0  0  0  0
 13 12  1  1  0  0  0
 13 14  1  0  0  0  0
 14 16  1  1  0  0  0
 14 15  1  0  0  0  0
 18 17  1  0  0  0  0
 18 20  1  0  0  0  0
 19 20  1  0  0  0  0
 21 18  1  0  0  0  0
 22 23  1  6  0  0  0
 22 21  1  0  0  0  0
 22 19  1  0  0  0  0
 25 28  1  0  0  0  0
 25 24  1  0  0  0  0
 28 26  1  0  0  0  0
 28 27  1  0  0  0  0
 29 30  1  0  0  0  0
 30 28  1  0  0  0  0
 31 30  1  0  0  0  0
M  END
>  <MODEL>
5

>  <REMARK>
 VINA RESULT:      -6.9      3.889      9.046
  Name = 
  8 active torsions:
  status: ('A' for Active; 'I' for Inactive)
    1  A    between atoms: N_1  and  C_23
    2  A    between atoms: C_14  and  C_28
    3  A    between atoms: C_18  and  C_31
    4  A    between atoms: C_19  and  C_28
    5  A    between atoms: N_20  and  C_30
    6  A    between atoms: C_23  and  C_26
    7  A    between atoms: C_25  and  C_30
    8  A    between atoms: C_25  and  C_31
                            x       y       z     vdW  Elec       q    Type
                         _______ _______ _______ _____ _____    ______ ____

>  <TORSDO>
F 8

$$$$
=
 OpenBabel11072412363D

 31 33  0  0  1  0  0  0  0  0999 V2000
  160.4860  209.6750  152.8760 C   0  0  2  0  0  3  0  0  0  0  0  0
  161.5380  206.9830  153.2680 C   0  0  1  0  0  3  0  0  0  0  0  0
  160.6100  207.5600  154.2860 C   0  0  0  0  0  0  0  0  0  0  0  0
  160.0350  206.8600  155.1050 O   0  0  0  0  0  0  0  0  0  0  0  0
  161.4500  208.9890  151.8870 C   0  0  0  0  0  2  0  0  0  0  0  0
  161.5220  205.6030  153.1100 O   0  0  0  0  0  0  0  0  0  0  0  0
  162.1490  205.4730  151.8480 C   0  0  2  0  0  3  0  0  0  0  0  0
  161.8560  206.6690  151.0070 N   0  0  0  0  0  0  0  0  0  0  0  0
  160.6510  211.1850  152.8530 C   0  0  0  0  0  1  0  0  0  0  0  0
  160.4900  209.0680  154.3150 C   0  0  1  0  0  3  0  0  0  0  0  0
  161.1400  207.5030  151.9410 C   0  0  1  0  0  3  0  0  0  0  0  0
  162.7730  203.1550  151.7150 O   0  0  0  0  0  1  0  0  0  0  0  0
  161.8780  204.1010  151.2050 C   0  0  1  0  0  3  0  0  0  0  0  0
  160.4460  203.6440  151.4620 C   0  0  1  0  0  3  0  0  0  0  0  0
  160.0080  202.8370  150.4120 O   0  0  0  0  0  1  0  0  0  0  0  0
  160.3620  202.9440  152.6530 F   0  0  0  0  0  0  0  0  0  0  0  0
  161.5420  209.6850  155.2470 C   0  0  0  0  0  2  0  0  0  0  0  0
  160.9390  210.1840  156.4760 N   0  0  0  0  0  0  0  0  0  0  0  0
  160.0230  212.2860  157.0950 C   0  0  0  0  0  2  0  0  0  0  0  0
  161.2480  211.6030  156.5550 C   0  0  0  0  0  2  0  0  0  0  0  0
  159.5450  210.0880  156.3200 N   0  0  0  0  0  2  0  0  0  0  0  0
  158.9680  211.2140  157.0380 C   0  0  2  0  0  3  0  0  0  0  0  0
  157.8530  211.6860  156.3500 O   0  0  0  0  0  1  0  0  0  0  0  0
  160.9000  206.3790  149.9420 C   0  0  0  0  0  2  0  0  0  0  0  0
  161.4660  206.8410  148.6090 C   0  0  0  0  0  2  0  0  0  0  0  0
  160.9810  204.5930  147.9600 F   0  0  0  0  0  0  0  0  0  0  0  0
  159.9340  206.2710  146.9070 F   0  0  0  0  0  0  0  0  0  0  0  0
  161.1340  205.8770  147.4670 C   0  0  0  0  0  0  0  0  0  0  0  0
  161.6290  205.7620  145.1000 O   0  0  0  0  0  1  0  0  0  0  0  0
  162.2030  205.8820  146.3670 C   0  0  0  0  0  3  0  0  0  0  0  0
  163.1270  204.8540  146.5660 O   0  0  0  0  0  1  0  0  0  0  0  0
  1  9  1  1  0  0  0
  1 10  1  0  0  0  0
  2  6  1  6  0  0  0
  2  3  1  0  0  0  0
  3 10  1  0  0  0  0
  3  4  2  0  0  0  0
  5  1  1  0  0  0  0
  7 13  1  6  0  0  0
  7  6  1  0  0  0  0
  8  7  1  0  0  0  0
  8 11  1  0  0  0  0
 10 17  1  1  0  0  0
 11  5  1  1  0  0  0
 11  2  1  0  0  0  0
 13 14  1  0  0  0  0
 13 12  1  1  0  0  0
 14 15  1  6  0  0  0
 14 16  1  0  0  0  0
 17 18  1  0  0  0  0
 18 20  1  0  0  0  0
 20 19  1  0  0  0  0
 21 18  1  0  0  0  0
 21 22  1  0  0  0  0
 22 23  1  6  0  0  0
 22 19  1  0  0  0  0
 24  8  1  0  0  0  0
 25 24  1  0  0  0  0
 27 28  1  0  0  0  0
 28 26  1  0  0  0  0
 28 25  1  0  0  0  0
 29 30  1  0  0  0  0
 30 31  1  0  0  0  0
 30 28  1  0  0  0  0
M  END
>  <MODEL>
6

>  <REMARK>
 VINA RESULT:      -6.8      2.562      4.577
  Name = 
  8 active torsions:
  status: ('A' for Active; 'I' for Inactive)
    1  A    between atoms: N_1  and  C_23
    2  A    between atoms: C_14  and  C_28
    3  A    between atoms: C_18  and  C_31
    4  A    between atoms: C_19  and  C_28
    5  A    between atoms: N_20  and  C_30
    6  A    between atoms: C_23  and  C_26
    7  A    between atoms: C_25  and  C_30
    8  A    between atoms: C_25  and  C_31
                            x       y       z     vdW  Elec       q    Type
                         _______ _______ _______ _____ _____    ______ ____

>  <TORSDO>
F 8

$$$$
=
 OpenBabel11072412363D

 31 33  0  0  1  0  0  0  0  0999 V2000
  162.0360  206.8360  148.6380 C   0  0  2  0  0  3  0  0  0  0  0  0
  161.2140  207.4970  151.3580 C   0  0  1  0  0  3  0  0  0  0  0  0
  162.0160  206.2600  151.1170 C   0  0  0  0  0  0  0  0  0  0  0  0
  162.5990  205.6830  152.0220 O   0  0  0  0  0  0  0  0  0  0  0  0
  161.2060  208.0860  148.9920 C   0  0  0  0  0  2  0  0  0  0  0  0
  161.3670  208.1190  152.5900 O   0  0  0  0  0  0  0  0  0  0  0  0
  160.8380  209.4010  152.3070 C   0  0  2  0  0  3  0  0  0  0  0  0
  161.0740  209.7460  150.8770 N   0  0  0  0  0  0  0  0  0  0  0  0
  161.7340  206.3520  147.2300 C   0  0  0  0  0  1  0  0  0  0  0  0
  161.9940  205.7010  149.7110 C   0  0  1  0  0  3  0  0  0  0  0  0
  161.6470  208.5200  150.3800 C   0  0  1  0  0  3  0  0  0  0  0  0
  160.2690  211.4070  153.5040 O   0  0  0  0  0  1  0  0  0  0  0  0
  161.2750  210.4500  153.3460 C   0  0  1  0  0  3  0  0  0  0  0  0
  161.5810  209.8000  154.6910 C   0  0  1  0  0  3  0  0  0  0  0  0
  162.3010  210.6840  155.4940 O   0  0  0  0  0  1  0  0  0  0  0  0
  160.4120  209.4340  155.3340 F   0  0  0  0  0  0  0  0  0  0  0  0
  160.8310  204.7170  149.5290 C   0  0  0  0  0  2  0  0  0  0  0  0
  161.3060  203.3430  149.4280 N   0  0  0  0  0  0  0  0  0  0  0  0
  160.2150  201.2760  149.0110 C   0  0  0  0  0  2  0  0  0  0  0  0
  160.2320  202.4850  149.9030 C   0  0  0  0  0  2  0  0  0  0  0  0
  161.4660  203.0620  148.0600 N   0  0  0  0  0  2  0  0  0  0  0  0
  161.1360  201.6550  147.8840 C   0  0  2  0  0  3  0  0  0  0  0  0
  160.4890  201.4760  146.6640 O   0  0  0  0  0  1  0  0  0  0  0  0
  162.1200  210.7520  150.7120 C   0  0  0  0  0  2  0  0  0  0  0  0
  161.6080  211.8810  149.8320 C   0  0  0  0  0  2  0  0  0  0  0  0
  162.9640  210.6970  148.2610 F   0  0  0  0  0  0  0  0  0  0  0  0
  160.9590  211.4530  147.6040 F   0  0  0  0  0  0  0  0  0  0  0  0
  162.0660  211.7440  148.3780 C   0  0  0  0  0  0  0  0  0  0  0  0
  162.0440  214.1650  148.3220 O   0  0  0  0  0  1  0  0  0  0  0  0
  162.7040  213.0310  147.8420 C   0  0  0  0  0  3  0  0  0  0  0  0
  162.7060  213.0420  146.4460 O   0  0  0  0  0  1  0  0  0  0  0  0
  1  9  1  6  0  0  0
  1  5  1  0  0  0  0
  1 10  1  0  0  0  0
  2  3  1  1  0  0  0
  2  6  1  0  0  0  0
  3  4  2  0  0  0  0
  7  6  1  0  0  0  0
  7 13  1  1  0  0  0
  8  7  1  0  0  0  0
 10 17  1  1  0  0  0
 10  3  1  0  0  0  0
 11  5  1  6  0  0  0
 11  8  1  0  0  0  0
 11  2  1  0  0  0  0
 13 12  1  1  0  0  0
 13 14  1  0  0  0  0
 14 16  1  1  0  0  0
 14 15  1  0  0  0  0
 18 17  1  0  0  0  0
 18 20  1  0  0  0  0
 19 20  1  0  0  0  0
 21 18  1  0  0  0  0
 22 23  1  6  0  0  0
 22 21  1  0  0  0  0
 22 19  1  0  0  0  0
 24  8  1  0  0  0  0
 25 24  1  0  0  0  0
 26 28  1  0  0  0  0
 27 28  1  0  0  0  0
 28 25  1  0  0  0  0
 30 29  1  0  0  0  0
 30 28  1  0  0  0  0
 31 30  1  0  0  0  0
M  END
>  <MODEL>
7

>  <REMARK>
 VINA RESULT:      -6.8      3.441      8.676
  Name = 
  8 active torsions:
  status: ('A' for Active; 'I' for Inactive)
    1  A    between atoms: N_1  and  C_23
    2  A    between atoms: C_14  and  C_28
    3  A    between atoms: C_18  and  C_31
    4  A    between atoms: C_19  and  C_28
    5  A    between atoms: N_20  and  C_30
    6  A    between atoms: C_23  and  C_26
    7  A    between atoms: C_25  and  C_30
    8  A    between atoms: C_25  and  C_31
                            x       y       z     vdW  Elec       q    Type
                         _______ _______ _______ _____ _____    ______ ____

>  <TORSDO>
F 8

$$$$
=
 OpenBabel11072412363D

 31 33  0  0  1  0  0  0  0  0999 V2000
  161.0270  205.9200  150.9710 C   0  0  2  0  0  3  0  0  0  0  0  0
  161.6930  207.8670  148.9020 C   0  0  1  0  0  3  0  0  0  0  0  0
  160.6480  206.8360  148.6260 C   0  0  0  0  0  0  0  0  0  0  0  0
  159.8520  206.9540  147.7080 O   0  0  0  0  0  0  0  0  0  0  0  0
  162.0910  207.0220  151.1540 C   0  0  0  0  0  2  0  0  0  0  0  0
  161.5640  209.0860  148.2510 O   0  0  0  0  0  0  0  0  0  0  0  0
  162.4110  209.9000  149.0400 C   0  0  2  0  0  3  0  0  0  0  0  0
  162.4170  209.4140  150.4490 N   0  0  0  0  0  0  0  0  0  0  0  0
  161.3510  204.6940  151.8070 C   0  0  0  0  0  1  0  0  0  0  0  0
  160.6830  205.5890  149.4840 C   0  0  1  0  0  3  0  0  0  0  0  0
  161.6220  208.2160  150.3390 C   0  0  1  0  0  3  0  0  0  0  0  0
  163.2810  212.0340  148.3560 O   0  0  0  0  0  1  0  0  0  0  0  0
  162.1310  211.3990  148.8340 C   0  0  1  0  0  3  0  0  0  0  0  0
  160.9800  211.6160  147.8570 C   0  0  1  0  0  3  0  0  0  0  0  0
  160.0970  212.5670  148.3660 O   0  0  0  0  0  1  0  0  0  0  0  0
  161.4560  212.0350  146.6270 F   0  0  0  0  0  0  0  0  0  0  0  0
  161.5890  204.5190  148.8590 C   0  0  0  0  0  2  0  0  0  0  0  0
  160.8210  203.5660  148.0690 N   0  0  0  0  0  0  0  0  0  0  0  0
  161.4390  201.8600  146.5370 C   0  0  0  0  0  2  0  0  0  0  0  0
  161.5720  203.3250  146.8470 C   0  0  0  0  0  2  0  0  0  0  0  0
  160.8140  202.3520  148.7790 N   0  0  0  0  0  2  0  0  0  0  0  0
  160.8220  201.2900  147.7850 C   0  0  2  0  0  3  0  0  0  0  0  0
  161.5910  200.2230  148.2460 O   0  0  0  0  0  1  0  0  0  0  0  0
  161.6660  210.2900  151.3430 C   0  0  0  0  0  2  0  0  0  0  0  0
  162.0670  210.0150  152.7840 C   0  0  0  0  0  2  0  0  0  0  0  0
  159.6860  209.9680  152.9930 F   0  0  0  0  0  0  0  0  0  0  0  0
  160.8920  208.3710  154.0030 F   0  0  0  0  0  0  0  0  0  0  0  0
  160.8620  209.7140  153.6790 C   0  0  0  0  0  0  0  0  0  0  0  0
  160.3850  211.8140  154.7860 O   0  0  0  0  0  1  0  0  0  0  0  0
  160.8830  210.5240  154.9810 C   0  0  0  0  0  3  0  0  0  0  0  0
  162.1760  210.5930  155.5040 O   0  0  0  0  0  1  0  0  0  0  0  0
  1  5  1  0  0  0  0
  1  9  1  6  0  0  0
  2  6  1  6  0  0  0
  2 11  1  0  0  0  0
  3  2  1  0  0  0  0
  3 10  1  0  0  0  0
  4  3  2  0  0  0  0
  6  7  1  0  0  0  0
  7 13  1  1  0  0  0
  7  8  1  0  0  0  0
  8 24  1  0  0  0  0
 10 17  1  6  0  0  0
 10  1  1  0  0  0  0
 11  8  1  0  0  0  0
 11  5  1  1  0  0  0
 13 12  1  6  0  0  0
 14 16  1  6  0  0  0
 14 15  1  0  0  0  0
 14 13  1  0  0  0  0
 18 21  1  0  0  0  0
 18 17  1  0  0  0  0
 19 20  1  0  0  0  0
 19 22  1  0  0  0  0
 20 18  1  0  0  0  0
 22 23  1  1  0  0  0
 22 21  1  0  0  0  0
 24 25  1  0  0  0  0
 25 28  1  0  0  0  0
 26 28  1  0  0  0  0
 28 27  1  0  0  0  0
 28 30  1  0  0  0  0
 29 30  1  0  0  0  0
 30 31  1  0  0  0  0
M  END
>  <MODEL>
8

>  <REMARK>
 VINA RESULT:      -6.8      3.223      8.010
  Name = 
  8 active torsions:
  status: ('A' for Active; 'I' for Inactive)
    1  A    between atoms: N_1  and  C_23
    2  A    between atoms: C_14  and  C_28
    3  A    between atoms: C_18  and  C_31
    4  A    between atoms: C_19  and  C_28
    5  A    between atoms: N_20  and  C_30
    6  A    between atoms: C_23  and  C_26
    7  A    between atoms: C_25  and  C_30
    8  A    between atoms: C_25  and  C_31
                            x       y       z     vdW  Elec       q    Type
                         _______ _______ _______ _____ _____    ______ ____

>  <TORSDO>
F 8

$$$$
=
 OpenBabel11072412363D

 31 33  0  0  1  0  0  0  0  0999 V2000
  161.6100  209.1970  149.7460 C   0  0  2  0  0  3  0  0  0  0  0  0
  161.5630  206.6850  151.2300 C   0  0  1  0  0  3  0  0  0  0  0  0
  160.8970  207.8890  151.8100 C   0  0  0  0  0  0  0  0  0  0  0  0
  160.0810  207.8020  152.7150 O   0  0  0  0  0  0  0  0  0  0  0  0
  162.2680  207.8990  149.2360 C   0  0  0  0  0  2  0  0  0  0  0  0
  161.0340  205.4470  151.5670 O   0  0  0  0  0  0  0  0  0  0  0  0
  161.5950  204.6330  150.5540 C   0  0  2  0  0  3  0  0  0  0  0  0
  161.7930  205.4310  149.3100 N   0  0  0  0  0  0  0  0  0  0  0  0
  162.3310  210.4270  149.2210 C   0  0  0  0  0  1  0  0  0  0  0  0
  161.3520  209.2340  151.2860 C   0  0  1  0  0  3  0  0  0  0  0  0
  161.4220  206.7500  149.7580 C   0  0  1  0  0  3  0  0  0  0  0  0
  161.3590  202.5890  149.3100 O   0  0  0  0  0  1  0  0  0  0  0  0
  160.8440  203.2990  150.3990 C   0  0  1  0  0  3  0  0  0  0  0  0
  160.9580  202.4520  151.6630 C   0  0  1  0  0  3  0  0  0  0  0  0
  162.2920  202.1160  151.8920 O   0  0  0  0  0  1  0  0  0  0  0  0
  160.4560  203.1370  152.7570 F   0  0  0  0  0  0  0  0  0  0  0  0
  162.5360  209.7690  152.1030 C   0  0  0  0  0  2  0  0  0  0  0  0
  162.0970  210.7040  153.1300 N   0  0  0  0  0  0  0  0  0  0  0  0
  159.9670  211.2410  154.0310 C   0  0  0  0  0  2  0  0  0  0  0  0
  160.7630  211.1480  152.7590 C   0  0  0  0  0  2  0  0  0  0  0  0
  161.9570  209.9700  154.3220 N   0  0  0  0  0  2  0  0  0  0  0  0
  160.8470  210.5680  155.0480 C   0  0  2  0  0  3  0  0  0  0  0  0
  160.1290  209.5720  155.7080 O   0  0  0  0  0  1  0  0  0  0  0  0
  160.8240  205.0920  148.2720 C   0  0  0  0  0  2  0  0  0  0  0  0
  161.5560  204.6920  147.0010 C   0  0  0  0  0  2  0  0  0  0  0  0
  160.6880  206.8230  146.3530 F   0  0  0  0  0  0  0  0  0  0  0  0
  162.7060  206.2030  145.5990 F   0  0  0  0  0  0  0  0  0  0  0  0
  161.4360  205.7490  145.9000 C   0  0  0  0  0  0  0  0  0  0  0  0
  160.6740  203.8010  144.6820 O   0  0  0  0  0  1  0  0  0  0  0  0
  160.8090  205.1890  144.6180 C   0  0  0  0  0  3  0  0  0  0  0  0
  161.5670  205.5380  143.4980 O   0  0  0  0  0  1  0  0  0  0  0  0
  1  9  1  1  0  0  0
  1 10  1  0  0  0  0
  2  6  1  1  0  0  0
  2  3  1  0  0  0  0
  3  4  2  0  0  0  0
  5  1  1  0  0  0  0
  7 13  1  6  0  0  0
  7  6  1  0  0  0  0
  8 11  1  0  0  0  0
  8  7  1  0  0  0  0
 10  3  1  0  0  0  0
 10 17  1  1  0  0  0
 11  5  1  6  0  0  0
 11  2  1  0  0  0  0
 13 12  1  6  0  0  0
 13 14  1  0  0  0  0
 14 15  1  1  0  0  0
 14 16  1  0  0  0  0
 17 18  1  0  0  0  0
 18 21  1  0  0  0  0
 19 22  1  0  0  0  0
 20 18  1  0  0  0  0
 20 19  1  0  0  0  0
 21 22  1  0  0  0  0
 22 23  1  6  0  0  0
 24  8  1  0  0  0  0
 25 24  1  0  0  0  0
 27 28  1  0  0  0  0
 28 26  1  0  0  0  0
 28 25  1  0  0  0  0
 30 29  1  0  0  0  0
 30 28  1  0  0  0  0
 31 30  1  0  0  0  0
M  END
>  <MODEL>
9

>  <REMARK>
 VINA RESULT:      -6.1      2.152      4.217
  Name = 
  8 active torsions:
  status: ('A' for Active; 'I' for Inactive)
    1  A    between atoms: N_1  and  C_23
    2  A    between atoms: C_14  and  C_28
    3  A    between atoms: C_18  and  C_31
    4  A    between atoms: C_19  and  C_28
    5  A    between atoms: N_20  and  C_30
    6  A    between atoms: C_23  and  C_26
    7  A    between atoms: C_25  and  C_30
    8  A    between atoms: C_25  and  C_31
                            x       y       z     vdW  Elec       q    Type
                         _______ _______ _______ _____ _____    ______ ____

>  <TORSDO>
F 8

$$$$
