=
 OpenBabel11072414323D

 36 41  0  0  1  0  0  0  0  0999 V2000
  160.4610  209.4440  152.6430 N   0  0  0  0  0  0  0  0  0  0  0  0
  161.1190  208.3700  152.3730 C   0  0  0  0  0  0  0  0  0  0  0  0
  161.4280  205.8450  152.3730 C   0  0  0  0  0  2  0  0  0  0  0  0
  160.8360  206.4290  151.0880 C   0  0  1  0  0  3  0  0  0  0  0  0
  161.6580  207.1870  153.6020 S   0  0  0  0  0  0  0  0  0  0  0  0
  161.2150  207.8850  150.9860 C   0  0  0  0  0  2  0  0  0  0  0  0
  160.6210  203.9210  145.4630 C   0  0  0  0  0  3  0  0  0  0  0  0
  160.8380  206.6050  147.8440 C   0  0  0  0  0  2  0  0  0  0  0  0
  159.6980  202.1770  144.0750 O   0  0  0  0  0  1  0  0  0  0  0  0
  161.5820  204.1880  149.9800 C   0  0  2  0  0  3  0  0  0  0  0  0
  161.5380  205.7680  146.8130 C   0  0  0  0  0  0  0  0  0  0  0  0
  161.2920  202.0240  147.3910 C   0  0  0  0  0  3  0  0  0  0  0  0
  161.5880  203.3720  147.6220 C   0  0  0  0  0  0  0  0  0  0  0  0
  160.6570  201.6230  146.2140 C   0  0  0  0  0  3  0  0  0  0  0  0
  160.3250  202.5720  145.2480 C   0  0  0  0  0  0  0  0  0  0  0  0
  161.2520  204.3340  146.6420 C   0  0  0  0  0  0  0  0  0  0  0  0
  160.2190  205.8240  148.8240 O   0  0  0  0  0  0  0  0  0  0  0  0
  162.3130  206.3410  145.9990 O   0  0  0  0  0  0  0  0  0  0  0  0
  161.1910  205.6620  149.8100 C   0  0  1  0  0  3  0  0  0  0  0  0
  162.2540  203.7180  148.8060 O   0  0  0  0  0  0  0  0  0  0  0  0
  160.8440  201.9190  150.6840 C   0  0  2  0  0  3  0  0  0  0  0  0
  160.5470  202.8540  151.6850 O   0  0  0  0  0  0  0  0  0  0  0  0
  160.3950  203.2930  150.3530 C   0  0  1  0  0  3  0  0  0  0  0  0
  159.7740  201.0380  150.5440 O   0  0  0  0  0  1  0  0  0  0  0  0
  159.7460  208.8810  154.9230 C   0  0  0  0  0  1  0  0  0  0  0  0
  160.2390  209.9650  153.9790 C   0  0  2  0  0  3  0  0  0  0  0  0
  159.2430  211.1400  153.9810 C   0  0  2  0  0  0  0  0  0  0  0  0
  158.5850  211.4940  152.6490 C   0  0  0  0  0  2  0  0  0  0  0  0
  157.9650  213.7360  153.5170 C   0  0  0  0  0  2  0  0  0  0  0  0
  159.2790  212.1900  155.1060 C   0  0  1  0  0  0  0  0  0  0  0  0
  158.6300  212.9920  152.3690 C   0  0  0  0  0  2  0  0  0  0  0  0
  158.8210  213.6250  154.7760 C   0  0  0  0  0  2  0  0  0  0  0  0
  158.1940  211.1280  155.0950 C   0  0  0  0  0  2  0  0  0  0  0  0
  160.2630  212.0040  156.2530 C   0  0  0  0  0  3  0  0  0  0  0  0
  159.6970  211.2220  157.2610 O   0  0  0  0  0  1  0  0  0  0  0  0
  160.6420  213.2370  156.7780 O   0  0  0  0  0  1  0  0  0  0  0  0
  1 26  1  0  0  0  0
  2  1  2  0  0  0  0
  2  5  1  0  0  0  0
  3  5  1  0  0  0  0
  4  6  1  6  0  0  0
  4  3  1  0  0  0  0
  6  2  1  0  0  0  0
  7 16  1  0  0  0  0
  8 17  1  0  0  0  0
  9 15  1  0  0  0  0
 10 20  1  6  0  0  0
 10 23  1  0  0  0  0
 11  8  1  0  0  0  0
 12 13  1  0  0  0  0
 13 20  1  0  0  0  0
 14 12  2  0  0  0  0
 15  7  2  0  0  0  0
 15 14  1  0  0  0  0
 16 11  1  0  0  0  0
 16 13  2  0  0  0  0
 18 11  2  0  0  0  0
 19 17  1  6  0  0  0
 19 10  1  0  0  0  0
 19  4  1  0  0  0  0
 21 24  1  1  0  0  0
 21 22  1  0  0  0  0
 23 21  1  0  0  0  0
 23 22  1  1  0  0  0
 26 25  1  1  0  0  0
 27 26  1  1  0  0  0
 27 33  1  0  0  0  0
 27 30  1  0  0  0  0
 28 27  1  0  0  0  0
 29 32  1  0  0  0  0
 30 34  1  1  0  0  0
 31 28  1  0  0  0  0
 31 29  1  0  0  0  0
 32 30  1  0  0  0  0
 33 30  1  0  0  0  0
 34 36  1  0  0  0  0
 34 35  1  0  0  0  0
M  END
>  <MODEL>
1

>  <REMARK>
 VINA RESULT:      -6.9      0.000      0.000
  Name = 
  5 active torsions:
  status: ('A' for Active; 'I' for Inactive)
    1  A    between atoms: N_4  and  C_10
    2  A    between atoms: C_7  and  C_28
    3  A    between atoms: C_10  and  C_13
    4  A    between atoms: C_12  and  C_35
    5  A    between atoms: C_19  and  C_24
                            x       y       z     vdW  Elec       q    Type
                         _______ _______ _______ _____ _____    ______ ____

>  <TORSDO>
F 5

$$$$
=
 OpenBabel11072414323D

 36 41  0  0  1  0  0  0  0  0999 V2000
  160.9160  207.4490  150.6460 N   0  0  0  0  0  0  0  0  0  0  0  0
  161.2840  208.4590  151.3550 C   0  0  0  0  0  0  0  0  0  0  0  0
  161.8210  210.9250  151.6740 C   0  0  0  0  0  2  0  0  0  0  0  0
  160.3960  210.5140  152.0540 C   0  0  1  0  0  3  0  0  0  0  0  0
  162.7130  209.4740  150.9940 S   0  0  0  0  0  0  0  0  0  0  0  0
  160.3710  209.0370  152.3570 C   0  0  0  0  0  2  0  0  0  0  0  0
  156.7480  212.4070  156.6450 C   0  0  0  0  0  3  0  0  0  0  0  0
  159.2340  210.3340  155.0830 C   0  0  0  0  0  2  0  0  0  0  0  0
  154.5990  213.3160  157.2610 O   0  0  0  0  0  1  0  0  0  0  0  0
  159.3660  212.7750  152.8500 C   0  0  2  0  0  3  0  0  0  0  0  0
  158.9310  211.4090  156.0860 C   0  0  0  0  0  0  0  0  0  0  0  0
  157.0140  214.3740  154.6890 C   0  0  0  0  0  3  0  0  0  0  0  0
  158.0310  213.4280  154.8560 C   0  0  0  0  0  0  0  0  0  0  0  0
  155.8670  214.3360  155.4850 C   0  0  0  0  0  3  0  0  0  0  0  0
  155.7360  213.3540  156.4660 C   0  0  0  0  0  0  0  0  0  0  0  0
  157.8990  212.4330  155.8500 C   0  0  0  0  0  0  0  0  0  0  0  0
  158.7350  210.6440  153.8140 O   0  0  0  0  0  0  0  0  0  0  0  0
  159.5040  211.3620  157.2090 O   0  0  0  0  0  0  0  0  0  0  0  0
  159.7710  211.3340  153.1880 C   0  0  1  0  0  3  0  0  0  0  0  0
  159.1780  213.5290  154.0530 O   0  0  0  0  0  0  0  0  0  0  0  0
  158.0660  214.1660  151.2480 C   0  0  2  0  0  3  0  0  0  0  0  0
  158.5700  213.0310  150.6010 O   0  0  0  0  0  0  0  0  0  0  0  0
  158.1410  212.8530  151.9320 C   0  0  1  0  0  3  0  0  0  0  0  0
  156.7580  214.3940  150.8280 O   0  0  0  0  0  1  0  0  0  0  0  0
  161.8090  207.7820  148.3840 C   0  0  0  0  0  1  0  0  0  0  0  0
  161.7030  206.8530  149.5830 C   0  0  2  0  0  3  0  0  0  0  0  0
  161.1310  205.4960  149.1340 C   0  0  2  0  0  0  0  0  0  0  0  0
  160.4930  204.6220  150.2110 C   0  0  0  0  0  2  0  0  0  0  0  0
  160.6940  202.6240  148.7510 C   0  0  0  0  0  2  0  0  0  0  0  0
  161.6030  204.8480  147.8200 C   0  0  1  0  0  0  0  0  0  0  0  0
  160.9790  203.1780  150.1380 C   0  0  0  0  0  2  0  0  0  0  0  0
  161.5890  203.3100  147.7210 C   0  0  0  0  0  2  0  0  0  0  0  0
  160.2440  205.5210  147.8880 C   0  0  0  0  0  2  0  0  0  0  0  0
  162.5850  205.6080  146.9370 C   0  0  0  0  0  3  0  0  0  0  0  0
  161.9700  206.0000  145.7470 O   0  0  0  0  0  1  0  0  0  0  0  0
  163.6950  204.8190  146.6500 O   0  0  0  0  0  1  0  0  0  0  0  0
  1  2  2  0  0  0  0
  2  6  1  0  0  0  0
  4  3  1  1  0  0  0
  4  6  1  0  0  0  0
  4 19  1  0  0  0  0
  5  2  1  0  0  0  0
  5  3  1  0  0  0  0
  8 11  1  0  0  0  0
 10 19  1  0  0  0  0
 10 20  1  1  0  0  0
 11 18  2  0  0  0  0
 12 13  2  0  0  0  0
 12 14  1  0  0  0  0
 13 16  1  0  0  0  0
 14 15  2  0  0  0  0
 15  7  1  0  0  0  0
 15  9  1  0  0  0  0
 16 11  1  0  0  0  0
 16  7  2  0  0  0  0
 17  8  1  0  0  0  0
 19 17  1  6  0  0  0
 20 13  1  0  0  0  0
 21 24  1  6  0  0  0
 21 23  1  0  0  0  0
 22 21  1  0  0  0  0
 23 22  1  6  0  0  0
 23 10  1  0  0  0  0
 26 25  1  6  0  0  0
 26  1  1  0  0  0  0
 27 26  1  1  0  0  0
 27 28  1  0  0  0  0
 29 31  1  0  0  0  0
 30 34  1  6  0  0  0
 30 33  1  0  0  0  0
 30 27  1  0  0  0  0
 31 28  1  0  0  0  0
 32 30  1  0  0  0  0
 32 29  1  0  0  0  0
 33 27  1  0  0  0  0
 35 34  1  0  0  0  0
 36 34  1  0  0  0  0
M  END
>  <MODEL>
2

>  <REMARK>
 VINA RESULT:      -6.8      2.592     10.819
  Name = 
  5 active torsions:
  status: ('A' for Active; 'I' for Inactive)
    1  A    between atoms: N_4  and  C_10
    2  A    between atoms: C_7  and  C_28
    3  A    between atoms: C_10  and  C_13
    4  A    between atoms: C_12  and  C_35
    5  A    between atoms: C_19  and  C_24
                            x       y       z     vdW  Elec       q    Type
                         _______ _______ _______ _____ _____    ______ ____

>  <TORSDO>
F 5

$$$$
=
 OpenBabel11072414323D

 36 41  0  0  1  0  0  0  0  0999 V2000
  160.7270  205.1610  149.1600 N   0  0  0  0  0  0  0  0  0  0  0  0
  160.6570  205.1790  150.4460 C   0  0  0  0  0  0  0  0  0  0  0  0
  161.6560  204.9180  152.7710 C   0  0  0  0  0  2  0  0  0  0  0  0
  161.6320  206.3490  152.2300 C   0  0  1  0  0  3  0  0  0  0  0  0
  161.0150  203.7710  151.4910 S   0  0  0  0  0  0  0  0  0  0  0  0
  160.5650  206.4590  151.1690 C   0  0  0  0  0  2  0  0  0  0  0  0
  159.2950  210.2370  156.4000 C   0  0  0  0  0  3  0  0  0  0  0  0
  160.2710  207.0310  155.1000 C   0  0  0  0  0  2  0  0  0  0  0  0
  158.0190  212.2500  156.7790 O   0  0  0  0  0  1  0  0  0  0  0  0
  162.0230  208.8280  152.9400 C   0  0  2  0  0  3  0  0  0  0  0  0
  160.5430  208.1360  156.0800 C   0  0  0  0  0  0  0  0  0  0  0  0
  160.8530  211.5850  154.5230 C   0  0  0  0  0  3  0  0  0  0  0  0
  161.1110  210.2350  154.7890 C   0  0  0  0  0  0  0  0  0  0  0  0
  159.8200  212.2570  155.1790 C   0  0  0  0  0  3  0  0  0  0  0  0
  159.0440  211.5840  156.1210 C   0  0  0  0  0  0  0  0  0  0  0  0
  160.3250  209.5530  155.7440 C   0  0  0  0  0  0  0  0  0  0  0  0
  160.1790  207.5050  153.7870 O   0  0  0  0  0  0  0  0  0  0  0  0
  160.8620  207.8270  157.2610 O   0  0  0  0  0  0  0  0  0  0  0  0
  161.4820  207.4380  153.2970 C   0  0  1  0  0  3  0  0  0  0  0  0
  162.1810  209.6150  154.1270 O   0  0  0  0  0  0  0  0  0  0  0  0
  161.9890  210.5070  151.1040 C   0  0  2  0  0  3  0  0  0  0  0  0
  161.6640  209.2390  150.6040 O   0  0  0  0  0  0  0  0  0  0  0  0
  161.1720  209.5490  151.8880 C   0  0  1  0  0  3  0  0  0  0  0  0
  161.1540  211.4590  150.5250 O   0  0  0  0  0  1  0  0  0  0  0  0
  161.9530  203.0450  148.9490 C   0  0  0  0  0  1  0  0  0  0  0  0
  160.8980  203.9660  148.3560 C   0  0  2  0  0  3  0  0  0  0  0  0
  161.2680  204.3000  146.8990 C   0  0  2  0  0  0  0  0  0  0  0  0
  161.4960  205.7710  146.5610 C   0  0  0  0  0  2  0  0  0  0  0  0
  161.1950  205.2930  144.1430 C   0  0  0  0  0  2  0  0  0  0  0  0
  160.9460  203.3070  145.7670 C   0  0  1  0  0  0  0  0  0  0  0  0
  160.7580  206.1870  145.2930 C   0  0  0  0  0  2  0  0  0  0  0  0
  160.6750  203.8740  144.3590 C   0  0  0  0  0  2  0  0  0  0  0  0
  162.3700  203.4430  146.2730 C   0  0  0  0  0  2  0  0  0  0  0  0
  160.3270  201.9620  146.1230 C   0  0  0  0  0  3  0  0  0  0  0  0
  161.3190  201.0460  146.4740 O   0  0  0  0  0  1  0  0  0  0  0  0
  159.5900  201.4640  145.0520 O   0  0  0  0  0  1  0  0  0  0  0  0
  1  2  2  0  0  0  0
  2  6  1  0  0  0  0
  2  5  1  0  0  0  0
  4  6  1  6  0  0  0
  4  3  1  0  0  0  0
  4 19  1  0  0  0  0
  5  3  1  0  0  0  0
  8 11  1  0  0  0  0
 10 19  1  0  0  0  0
 10 20  1  1  0  0  0
 11 18  2  0  0  0  0
 12 13  2  0  0  0  0
 12 14  1  0  0  0  0
 13 16  1  0  0  0  0
 14 15  2  0  0  0  0
 15  7  1  0  0  0  0
 15  9  1  0  0  0  0
 16 11  1  0  0  0  0
 16  7  2  0  0  0  0
 17  8  1  0  0  0  0
 19 17  1  6  0  0  0
 20 13  1  0  0  0  0
 21 24  1  6  0  0  0
 21 23  1  0  0  0  0
 22 21  1  0  0  0  0
 23 22  1  6  0  0  0
 23 10  1  0  0  0  0
 26 25  1  1  0  0  0
 26  1  1  0  0  0  0
 27 26  1  1  0  0  0
 28 27  1  0  0  0  0
 29 32  1  0  0  0  0
 29 31  1  0  0  0  0
 30 34  1  1  0  0  0
 30 33  1  0  0  0  0
 30 27  1  0  0  0  0
 31 28  1  0  0  0  0
 32 30  1  0  0  0  0
 33 27  1  0  0  0  0
 34 35  1  0  0  0  0
 36 34  1  0  0  0  0
M  END
>  <MODEL>
3

>  <REMARK>
 VINA RESULT:      -6.7      2.527     10.208
  Name = 
  5 active torsions:
  status: ('A' for Active; 'I' for Inactive)
    1  A    between atoms: N_4  and  C_10
    2  A    between atoms: C_7  and  C_28
    3  A    between atoms: C_10  and  C_13
    4  A    between atoms: C_12  and  C_35
    5  A    between atoms: C_19  and  C_24
                            x       y       z     vdW  Elec       q    Type
                         _______ _______ _______ _____ _____    ______ ____

>  <TORSDO>
F 5

$$$$
=
 OpenBabel11072414323D

 36 41  0  0  1  0  0  0  0  0999 V2000
  160.7490  208.2510  153.4520 N   0  0  0  0  0  0  0  0  0  0  0  0
  161.3690  207.2730  152.8890 C   0  0  0  0  0  0  0  0  0  0  0  0
  161.6310  204.8230  152.2580 C   0  0  0  0  0  2  0  0  0  0  0  0
  160.9750  205.7030  151.1920 C   0  0  1  0  0  3  0  0  0  0  0  0
  161.9600  205.8250  153.7580 S   0  0  0  0  0  0  0  0  0  0  0  0
  161.3740  207.1390  151.4220 C   0  0  0  0  0  2  0  0  0  0  0  0
  160.3920  204.6730  145.1450 C   0  0  0  0  0  3  0  0  0  0  0  0
  160.8270  206.6770  148.0970 C   0  0  0  0  0  2  0  0  0  0  0  0
  159.3380  203.3510  143.4230 O   0  0  0  0  0  1  0  0  0  0  0  0
  161.5800  203.7880  149.5270 C   0  0  2  0  0  3  0  0  0  0  0  0
  161.4440  206.1040  146.8540 C   0  0  0  0  0  0  0  0  0  0  0  0
  161.0820  202.3410  146.5060 C   0  0  0  0  0  3  0  0  0  0  0  0
  161.4400  203.5820  147.0430 C   0  0  0  0  0  0  0  0  0  0  0  0
  160.3770  202.2600  145.3030 C   0  0  0  0  0  3  0  0  0  0  0  0
  160.0360  203.4270  144.6210 C   0  0  0  0  0  0  0  0  0  0  0  0
  161.0950  204.7650  146.3520 C   0  0  0  0  0  0  0  0  0  0  0  0
  160.2260  205.6930  148.8870 O   0  0  0  0  0  0  0  0  0  0  0  0
  162.2000  206.8410  146.1630 O   0  0  0  0  0  0  0  0  0  0  0  0
  161.2370  205.2670  149.7470 C   0  0  1  0  0  3  0  0  0  0  0  0
  162.1760  203.6070  148.2370 O   0  0  0  0  0  0  0  0  0  0  0  0
  160.8180  201.4790  150.0520 C   0  0  2  0  0  3  0  0  0  0  0  0
  160.3990  202.3630  151.0540 O   0  0  0  0  0  0  0  0  0  0  0  0
  160.3790  202.8580  149.7340 C   0  0  1  0  0  3  0  0  0  0  0  0
  159.7870  200.5880  149.7630 O   0  0  0  0  0  1  0  0  0  0  0  0
  159.2800  207.9170  155.3890 C   0  0  0  0  0  1  0  0  0  0  0  0
  160.6180  208.4340  154.8840 C   0  0  2  0  0  3  0  0  0  0  0  0
  160.7880  209.9080  155.2960 C   0  0  2  0  0  0  0  0  0  0  0  0
  160.9110  210.2010  156.7900 C   0  0  0  0  0  2  0  0  0  0  0  0
  160.3310  212.5830  156.4000 C   0  0  0  0  0  2  0  0  0  0  0  0
  160.3680  211.0380  154.3380 C   0  0  1  0  0  0  0  0  0  0  0  0
  160.0040  211.3470  157.2240 C   0  0  0  0  0  2  0  0  0  0  0  0
  159.9000  212.3730  154.9510 C   0  0  0  0  0  2  0  0  0  0  0  0
  161.8380  210.7040  154.5180 C   0  0  0  0  0  2  0  0  0  0  0  0
  159.8550  210.6730  152.9520 C   0  0  0  0  0  3  0  0  0  0  0  0
  160.7120  211.1660  151.9670 O   0  0  0  0  0  1  0  0  0  0  0  0
  158.5750  211.1840  152.7540 O   0  0  0  0  0  1  0  0  0  0  0  0
  1 26  1  0  0  0  0
  2  1  2  0  0  0  0
  2  5  1  0  0  0  0
  3  5  1  0  0  0  0
  4  6  1  6  0  0  0
  4  3  1  0  0  0  0
  6  2  1  0  0  0  0
  7 16  1  0  0  0  0
  8 17  1  0  0  0  0
  9 15  1  0  0  0  0
 10 20  1  6  0  0  0
 10 23  1  0  0  0  0
 10 19  1  0  0  0  0
 11  8  1  0  0  0  0
 12 13  1  0  0  0  0
 13 20  1  0  0  0  0
 14 12  2  0  0  0  0
 15  7  2  0  0  0  0
 15 14  1  0  0  0  0
 16 11  1  0  0  0  0
 16 13  2  0  0  0  0
 18 11  2  0  0  0  0
 19 17  1  6  0  0  0
 19  4  1  0  0  0  0
 21 24  1  6  0  0  0
 21 22  1  0  0  0  0
 23 21  1  0  0  0  0
 23 22  1  1  0  0  0
 26 25  1  6  0  0  0
 27 26  1  6  0  0  0
 27 28  1  0  0  0  0
 28 31  1  0  0  0  0
 29 31  1  0  0  0  0
 30 34  1  6  0  0  0
 30 33  1  0  0  0  0
 30 32  1  0  0  0  0
 30 27  1  0  0  0  0
 32 29  1  0  0  0  0
 33 27  1  0  0  0  0
 35 34  1  0  0  0  0
 36 34  1  0  0  0  0
M  END
>  <MODEL>
4

>  <REMARK>
 VINA RESULT:      -6.4      1.603      2.255
  Name = 
  5 active torsions:
  status: ('A' for Active; 'I' for Inactive)
    1  A    between atoms: N_4  and  C_10
    2  A    between atoms: C_7  and  C_28
    3  A    between atoms: C_10  and  C_13
    4  A    between atoms: C_12  and  C_35
    5  A    between atoms: C_19  and  C_24
                            x       y       z     vdW  Elec       q    Type
                         _______ _______ _______ _____ _____    ______ ____

>  <TORSDO>
F 5

$$$$
=
 OpenBabel11072414323D

 36 41  0  0  1  0  0  0  0  0999 V2000
  161.1560  211.4960  147.4950 N   0  0  0  0  0  0  0  0  0  0  0  0
  161.7760  210.7190  148.3140 C   0  0  0  0  0  0  0  0  0  0  0  0
  162.0640  209.5710  150.5660 C   0  0  0  0  0  2  0  0  0  0  0  0
  161.3550  208.7380  149.4960 C   0  0  1  0  0  3  0  0  0  0  0  0
  162.4230  211.2420  149.8990 S   0  0  0  0  0  0  0  0  0  0  0  0
  161.7340  209.2580  148.1320 C   0  0  0  0  0  2  0  0  0  0  0  0
  160.5600  202.6300  149.3080 C   0  0  0  0  0  3  0  0  0  0  0  0
  160.9990  205.9180  147.9230 C   0  0  0  0  0  2  0  0  0  0  0  0
  159.5150  200.7070  150.3240 O   0  0  0  0  0  1  0  0  0  0  0  0
  162.0060  206.6930  150.9800 C   0  0  2  0  0  3  0  0  0  0  0  0
  161.5940  204.5640  148.1830 C   0  0  0  0  0  0  0  0  0  0  0  0
  161.4640  203.4550  151.8120 C   0  0  0  0  0  3  0  0  0  0  0  0
  161.7650  204.2270  150.6840 C   0  0  0  0  0  0  0  0  0  0  0  0
  160.7100  202.2860  151.6970 C   0  0  0  0  0  3  0  0  0  0  0  0
  160.2610  201.8710  150.4430 C   0  0  0  0  0  0  0  0  0  0  0  0
  161.3110  203.8070  149.4130 C   0  0  0  0  0  0  0  0  0  0  0  0
  160.5020  206.5060  149.0900 O   0  0  0  0  0  0  0  0  0  0  0  0
  162.2680  204.0170  147.2670 O   0  0  0  0  0  0  0  0  0  0  0  0
  161.5780  207.2260  149.6060 C   0  0  1  0  0  3  0  0  0  0  0  0
  162.5520  205.3760  150.8490 O   0  0  0  0  0  0  0  0  0  0  0  0
  161.4220  206.8930  153.3900 C   0  0  2  0  0  3  0  0  0  0  0  0
  160.9130  207.9870  152.6790 O   0  0  0  0  0  0  0  0  0  0  0  0
  160.8800  206.7420  152.0180 C   0  0  1  0  0  3  0  0  0  0  0  0
  160.4720  206.4590  154.3120 O   0  0  0  0  0  1  0  0  0  0  0  0
  162.2610  213.4990  148.3840 C   0  0  0  0  0  1  0  0  0  0  0  0
  161.0690  212.9370  147.6260 C   0  0  2  0  0  3  0  0  0  0  0  0
  159.7650  213.3750  148.3200 C   0  0  2  0  0  0  0  0  0  0  0  0
  159.8470  213.6940  149.8110 C   0  0  0  0  0  2  0  0  0  0  0  0
  157.3850  213.4540  150.0270 C   0  0  0  0  0  2  0  0  0  0  0  0
  158.3990  213.0410  147.6940 C   0  0  1  0  0  0  0  0  0  0  0  0
  158.7260  213.0250  150.6000 C   0  0  0  0  0  2  0  0  0  0  0  0
  157.1950  212.8500  148.6370 C   0  0  0  0  0  2  0  0  0  0  0  0
  158.9500  214.4510  147.5980 C   0  0  0  0  0  2  0  0  0  0  0  0
  158.3620  212.3380  146.3430 C   0  0  0  0  0  3  0  0  0  0  0  0
  158.8350  213.1840  145.3390 O   0  0  0  0  0  1  0  0  0  0  0  0
  157.0650  211.9320  146.0380 O   0  0  0  0  0  1  0  0  0  0  0  0
  1 26  1  0  0  0  0
  1  2  2  0  0  0  0
  2  5  1  0  0  0  0
  4  6  1  6  0  0  0
  4 19  1  0  0  0  0
  4  3  1  0  0  0  0
  5  3  1  0  0  0  0
  6  2  1  0  0  0  0
  7 16  2  0  0  0  0
  7 15  1  0  0  0  0
  8 11  1  0  0  0  0
  8 17  1  0  0  0  0
  9 15  1  0  0  0  0
 10 20  1  6  0  0  0
 10 23  1  0  0  0  0
 11 16  1  0  0  0  0
 13 20  1  0  0  0  0
 13 12  2  0  0  0  0
 14 12  1  0  0  0  0
 15 14  2  0  0  0  0
 16 13  1  0  0  0  0
 18 11  2  0  0  0  0
 19 17  1  1  0  0  0
 19 10  1  0  0  0  0
 21 24  1  1  0  0  0
 22 21  1  0  0  0  0
 23 22  1  6  0  0  0
 23 21  1  0  0  0  0
 26 25  1  1  0  0  0
 27 26  1  6  0  0  0
 27 28  1  0  0  0  0
 28 31  1  0  0  0  0
 29 31  1  0  0  0  0
 30 34  1  6  0  0  0
 30 27  1  0  0  0  0
 30 32  1  0  0  0  0
 32 29  1  0  0  0  0
 33 30  1  0  0  0  0
 33 27  1  0  0  0  0
 35 34  1  0  0  0  0
 36 34  1  0  0  0  0
M  END
>  <MODEL>
5

>  <REMARK>
 VINA RESULT:      -6.1      3.604      5.663
  Name = 
  5 active torsions:
  status: ('A' for Active; 'I' for Inactive)
    1  A    between atoms: N_4  and  C_10
    2  A    between atoms: C_7  and  C_28
    3  A    between atoms: C_10  and  C_13
    4  A    between atoms: C_12  and  C_35
    5  A    between atoms: C_19  and  C_24
                            x       y       z     vdW  Elec       q    Type
                         _______ _______ _______ _____ _____    ______ ____

>  <TORSDO>
F 5

$$$$
=
 OpenBabel11072414323D

 36 41  0  0  1  0  0  0  0  0999 V2000
  160.8810  209.4780  154.4020 N   0  0  0  0  0  0  0  0  0  0  0  0
  160.9460  209.0670  153.1830 C   0  0  0  0  0  0  0  0  0  0  0  0
  162.2120  208.2260  151.1430 C   0  0  0  0  0  2  0  0  0  0  0  0
  161.6010  207.1360  152.0260 C   0  0  1  0  0  3  0  0  0  0  0  0
  161.9090  209.8670  151.9040 S   0  0  0  0  0  0  0  0  0  0  0  0
  160.4630  207.7230  152.8230 C   0  0  0  0  0  2  0  0  0  0  0  0
  161.5410  201.5180  149.4930 C   0  0  0  0  0  3  0  0  0  0  0  0
  161.5440  203.8920  152.1930 C   0  0  0  0  0  2  0  0  0  0  0  0
  162.3230  200.1190  147.6890 O   0  0  0  0  0  1  0  0  0  0  0  0
  160.6920  206.0520  149.8340 C   0  0  2  0  0  3  0  0  0  0  0  0
  160.7710  202.8790  151.3980 C   0  0  0  0  0  0  0  0  0  0  0  0
  160.7910  203.4680  147.6480 C   0  0  0  0  0  3  0  0  0  0  0  0
  160.5860  203.6980  149.0120 C   0  0  0  0  0  0  0  0  0  0  0  0
  161.3750  202.2790  147.2040 C   0  0  0  0  0  3  0  0  0  0  0  0
  161.7460  201.3030  148.1270 C   0  0  0  0  0  0  0  0  0  0  0  0
  160.9620  202.7080  149.9480 C   0  0  0  0  0  0  0  0  0  0  0  0
  162.1320  204.8620  151.3760 O   0  0  0  0  0  0  0  0  0  0  0  0
  160.0170  202.0780  152.0170 O   0  0  0  0  0  0  0  0  0  0  0  0
  161.1730  205.8680  151.2790 C   0  0  1  0  0  3  0  0  0  0  0  0
  159.9670  204.8940  149.4040 O   0  0  0  0  0  0  0  0  0  0  0  0
  161.3030  206.7050  147.5120 C   0  0  2  0  0  3  0  0  0  0  0  0
  161.6500  207.7270  148.4060 O   0  0  0  0  0  0  0  0  0  0  0  0
  161.8270  206.4060  148.8660 C   0  0  1  0  0  3  0  0  0  0  0  0
  162.3220  206.5460  146.5770 O   0  0  0  0  0  1  0  0  0  0  0  0
  162.5840  210.5510  155.8070 C   0  0  0  0  0  1  0  0  0  0  0  0
  161.3960  210.7470  154.8780 C   0  0  2  0  0  3  0  0  0  0  0  0
  160.3140  211.5770  155.5940 C   0  0  2  0  0  0  0  0  0  0  0  0
  159.9760  211.1830  157.0300 C   0  0  0  0  0  2  0  0  0  0  0  0
  157.8270  212.4200  156.8940 C   0  0  0  0  0  2  0  0  0  0  0  0
  159.3030  212.4060  154.7810 C   0  0  1  0  0  0  0  0  0  0  0  0
  158.4710  211.0910  157.2570 C   0  0  0  0  0  2  0  0  0  0  0  0
  157.9040  212.6410  155.3850 C   0  0  0  0  0  2  0  0  0  0  0  0
  160.4560  213.0970  155.4880 C   0  0  0  0  0  2  0  0  0  0  0  0
  159.4400  212.4510  153.2650 C   0  0  0  0  0  3  0  0  0  0  0  0
  159.1590  213.7320  152.7870 O   0  0  0  0  0  1  0  0  0  0  0  0
  158.5810  211.5320  152.6690 O   0  0  0  0  0  1  0  0  0  0  0  0
  1 26  1  0  0  0  0
  2  1  2  0  0  0  0
  3  5  1  0  0  0  0
  4  3  1  6  0  0  0
  4  6  1  0  0  0  0
  5  2  1  0  0  0  0
  6  2  1  0  0  0  0
  7 16  1  0  0  0  0
  9 15  1  0  0  0  0
 10 20  1  6  0  0  0
 10 19  1  0  0  0  0
 11 18  2  0  0  0  0
 11  8  1  0  0  0  0
 12 13  1  0  0  0  0
 13 20  1  0  0  0  0
 13 16  2  0  0  0  0
 14 12  2  0  0  0  0
 14 15  1  0  0  0  0
 15  7  2  0  0  0  0
 16 11  1  0  0  0  0
 17  8  1  0  0  0  0
 19 17  1  6  0  0  0
 19  4  1  0  0  0  0
 21 24  1  6  0  0  0
 21 22  1  0  0  0  0
 21 23  1  0  0  0  0
 23 22  1  1  0  0  0
 23 10  1  0  0  0  0
 26 25  1  1  0  0  0
 27 26  1  6  0  0  0
 27 28  1  0  0  0  0
 28 31  1  0  0  0  0
 29 31  1  0  0  0  0
 30 34  1  6  0  0  0
 30 32  1  0  0  0  0
 30 33  1  0  0  0  0
 30 27  1  0  0  0  0
 32 29  1  0  0  0  0
 33 27  1  0  0  0  0
 35 34  1  0  0  0  0
 36 34  1  0  0  0  0
M  END
>  <MODEL>
6

>  <REMARK>
 VINA RESULT:      -5.6      1.954      3.861
  Name = 
  5 active torsions:
  status: ('A' for Active; 'I' for Inactive)
    1  A    between atoms: N_4  and  C_10
    2  A    between atoms: C_7  and  C_28
    3  A    between atoms: C_10  and  C_13
    4  A    between atoms: C_12  and  C_35
    5  A    between atoms: C_19  and  C_24
                            x       y       z     vdW  Elec       q    Type
                         _______ _______ _______ _____ _____    ______ ____

>  <TORSDO>
F 5

$$$$
=
 OpenBabel11072414323D

 36 41  0  0  1  0  0  0  0  0999 V2000
  159.9480  209.6820  154.2750 N   0  0  0  0  0  0  0  0  0  0  0  0
  160.7920  208.8020  153.8600 C   0  0  0  0  0  0  0  0  0  0  0  0
  161.5680  206.4080  153.4890 C   0  0  0  0  0  2  0  0  0  0  0  0
  160.8670  207.0590  152.2940 C   0  0  1  0  0  3  0  0  0  0  0  0
  161.5540  207.5690  154.9090 S   0  0  0  0  0  0  0  0  0  0  0  0
  160.9660  208.5580  152.4180 C   0  0  0  0  0  2  0  0  0  0  0  0
  161.2220  205.8150  146.2690 C   0  0  0  0  0  3  0  0  0  0  0  0
  161.2080  207.9230  149.1810 C   0  0  0  0  0  2  0  0  0  0  0  0
  160.4380  204.4350  144.4520 O   0  0  0  0  0  1  0  0  0  0  0  0
  161.7090  205.0850  150.8100 C   0  0  2  0  0  3  0  0  0  0  0  0
  162.0060  207.3040  148.0700 C   0  0  0  0  0  0  0  0  0  0  0  0
  161.6750  203.5320  147.8010 C   0  0  0  0  0  3  0  0  0  0  0  0
  161.9550  204.7910  148.3440 C   0  0  0  0  0  0  0  0  0  0  0  0
  161.1650  203.4100  146.5070 C   0  0  0  0  0  3  0  0  0  0  0  0
  160.9420  204.5530  145.7390 C   0  0  0  0  0  0  0  0  0  0  0  0
  161.7300  205.9490  147.5660 C   0  0  0  0  0  0  0  0  0  0  0  0
  160.4850  206.9680  149.9030 O   0  0  0  0  0  0  0  0  0  0  0  0
  162.8670  208.0150  147.4800 O   0  0  0  0  0  0  0  0  0  0  0  0
  161.3470  206.5720  150.9230 C   0  0  1  0  0  3  0  0  0  0  0  0
  162.4970  204.8570  149.6360 O   0  0  0  0  0  0  0  0  0  0  0  0
  160.8840  202.7480  151.0250 C   0  0  2  0  0  3  0  0  0  0  0  0
  160.4430  203.5150  152.1110 O   0  0  0  0  0  0  0  0  0  0  0  0
  160.4830  204.1650  150.8610 C   0  0  1  0  0  3  0  0  0  0  0  0
  159.8480  201.9230  150.5940 O   0  0  0  0  0  1  0  0  0  0  0  0
  159.3790  208.6580  156.4320 C   0  0  0  0  0  1  0  0  0  0  0  0
  159.6440  209.9460  155.6680 C   0  0  2  0  0  3  0  0  0  0  0  0
  158.4410  210.8950  155.8260 C   0  0  2  0  0  0  0  0  0  0  0  0
  157.0800  210.3690  155.3750 C   0  0  0  0  0  2  0  0  0  0  0  0
  156.1880  212.6840  155.2730 C   0  0  0  0  0  2  0  0  0  0  0  0
  158.6580  212.4130  155.9550 C   0  0  1  0  0  0  0  0  0  0  0  0
  156.3370  211.3790  154.5070 C   0  0  0  0  0  2  0  0  0  0  0  0
  157.5500  213.3520  155.4370 C   0  0  0  0  0  2  0  0  0  0  0  0
  158.3090  211.5910  157.1820 C   0  0  0  0  0  2  0  0  0  0  0  0
  160.0820  212.9510  156.0010 C   0  0  0  0  0  3  0  0  0  0  0  0
  160.7690  212.4220  157.0940 O   0  0  0  0  0  1  0  0  0  0  0  0
  160.0780  214.3410  156.0810 O   0  0  0  0  0  1  0  0  0  0  0  0
  1 26  1  0  0  0  0
  2  1  2  0  0  0  0
  2  5  1  0  0  0  0
  3  5  1  0  0  0  0
  4  6  1  6  0  0  0
  4  3  1  0  0  0  0
  6  2  1  0  0  0  0
  7 16  1  0  0  0  0
  8 17  1  0  0  0  0
  9 15  1  0  0  0  0
 10 20  1  6  0  0  0
 10 23  1  0  0  0  0
 10 19  1  0  0  0  0
 11  8  1  0  0  0  0
 12 13  1  0  0  0  0
 13 20  1  0  0  0  0
 14 12  2  0  0  0  0
 15  7  2  0  0  0  0
 15 14  1  0  0  0  0
 16 11  1  0  0  0  0
 16 13  2  0  0  0  0
 18 11  2  0  0  0  0
 19 17  1  6  0  0  0
 19  4  1  0  0  0  0
 21 24  1  6  0  0  0
 21 22  1  0  0  0  0
 23 21  1  0  0  0  0
 23 22  1  1  0  0  0
 26 25  1  1  0  0  0
 27 26  1  6  0  0  0
 27 30  1  0  0  0  0
 27 33  1  0  0  0  0
 28 27  1  0  0  0  0
 29 32  1  0  0  0  0
 30 34  1  6  0  0  0
 30 33  1  0  0  0  0
 31 29  1  0  0  0  0
 31 28  1  0  0  0  0
 32 30  1  0  0  0  0
 34 36  1  0  0  0  0
 34 35  1  0  0  0  0
M  END
>  <MODEL>
7

>  <REMARK>
 VINA RESULT:      -5.6      1.509      1.821
  Name = 
  5 active torsions:
  status: ('A' for Active; 'I' for Inactive)
    1  A    between atoms: N_4  and  C_10
    2  A    between atoms: C_7  and  C_28
    3  A    between atoms: C_10  and  C_13
    4  A    between atoms: C_12  and  C_35
    5  A    between atoms: C_19  and  C_24
                            x       y       z     vdW  Elec       q    Type
                         _______ _______ _______ _____ _____    ______ ____

>  <TORSDO>
F 5

$$$$
=
 OpenBabel11072414323D

 36 41  0  0  1  0  0  0  0  0999 V2000
  159.5930  210.9790  154.1940 N   0  0  0  0  0  0  0  0  0  0  0  0
  160.0030  210.5680  153.0440 C   0  0  0  0  0  0  0  0  0  0  0  0
  161.8030  210.1830  151.2880 C   0  0  0  0  0  2  0  0  0  0  0  0
  161.5090  208.9850  152.1930 C   0  0  1  0  0  3  0  0  0  0  0  0
  160.7920  211.6160  151.8260 S   0  0  0  0  0  0  0  0  0  0  0  0
  160.1220  209.1270  152.7670 C   0  0  0  0  0  2  0  0  0  0  0  0
  160.5800  203.7220  149.1240 C   0  0  0  0  0  3  0  0  0  0  0  0
  160.9640  207.2780  149.4830 C   0  0  0  0  0  2  0  0  0  0  0  0
  159.5890  201.5230  149.1600 O   0  0  0  0  0  1  0  0  0  0  0  0
  162.2440  206.4930  152.4330 C   0  0  2  0  0  3  0  0  0  0  0  0
  161.5520  205.9840  149.0000 C   0  0  0  0  0  0  0  0  0  0  0  0
  161.7120  203.2470  151.6260 C   0  0  0  0  0  3  0  0  0  0  0  0
  161.9300  204.4770  150.9960 C   0  0  0  0  0  0  0  0  0  0  0  0
  160.9280  202.2630  151.0200 C   0  0  0  0  0  3  0  0  0  0  0  0
  160.3650  202.5000  149.7670 C   0  0  0  0  0  0  0  0  0  0  0  0
  161.3600  204.7170  149.7250 C   0  0  0  0  0  0  0  0  0  0  0  0
  160.5810  207.2120  150.8260 O   0  0  0  0  0  0  0  0  0  0  0  0
  162.1340  205.9690  147.8800 O   0  0  0  0  0  0  0  0  0  0  0  0
  161.7110  207.6160  151.5340 C   0  0  1  0  0  3  0  0  0  0  0  0
  162.7510  205.4190  151.6320 O   0  0  0  0  0  0  0  0  0  0  0  0
  161.4410  206.6170  154.7840 C   0  0  2  0  0  3  0  0  0  0  0  0
  160.4560  207.1010  153.9130 O   0  0  0  0  0  0  0  0  0  0  0  0
  161.2120  206.0030  153.4550 C   0  0  1  0  0  3  0  0  0  0  0  0
  160.8430  205.8310  155.7660 O   0  0  0  0  0  1  0  0  0  0  0  0
  160.4240  212.6580  155.7800 C   0  0  0  0  0  1  0  0  0  0  0  0
  159.5140  212.3700  154.5960 C   0  0  2  0  0  3  0  0  0  0  0  0
  158.0730  212.7890  154.9420 C   0  0  2  0  0  0  0  0  0  0  0  0
  157.4650  212.1990  156.2120 C   0  0  0  0  0  2  0  0  0  0  0  0
  155.1820  212.7660  155.4170 C   0  0  0  0  0  2  0  0  0  0  0  0
  157.1430  213.3530  153.8530 C   0  0  1  0  0  0  0  0  0  0  0  0
  156.0600  211.6560  155.9740 C   0  0  0  0  0  2  0  0  0  0  0  0
  155.6260  213.1220  154.0010 C   0  0  0  0  0  2  0  0  0  0  0  0
  157.7750  214.2880  154.8680 C   0  0  0  0  0  2  0  0  0  0  0  0
  157.6970  213.5590  152.4490 C   0  0  0  0  0  3  0  0  0  0  0  0
  158.7730  214.4470  152.4740 O   0  0  0  0  0  1  0  0  0  0  0  0
  156.7080  214.0500  151.6000 O   0  0  0  0  0  1  0  0  0  0  0  0
  1 26  1  0  0  0  0
  2  1  2  0  0  0  0
  3  5  1  0  0  0  0
  4  3  1  6  0  0  0
  4  6  1  0  0  0  0
  5  2  1  0  0  0  0
  6  2  1  0  0  0  0
  7 16  2  0  0  0  0
  7 15  1  0  0  0  0
  8 17  1  0  0  0  0
  9 15  1  0  0  0  0
 10 20  1  6  0  0  0
 10 23  1  0  0  0  0
 11  8  1  0  0  0  0
 11 16  1  0  0  0  0
 13 12  2  0  0  0  0
 13 20  1  0  0  0  0
 14 12  1  0  0  0  0
 15 14  2  0  0  0  0
 16 13  1  0  0  0  0
 18 11  2  0  0  0  0
 19 17  1  1  0  0  0
 19  4  1  0  0  0  0
 19 10  1  0  0  0  0
 21 24  1  1  0  0  0
 22 21  1  0  0  0  0
 23 22  1  6  0  0  0
 23 21  1  0  0  0  0
 26 25  1  1  0  0  0
 27 26  1  6  0  0  0
 27 28  1  0  0  0  0
 29 31  1  0  0  0  0
 30 34  1  6  0  0  0
 30 32  1  0  0  0  0
 30 33  1  0  0  0  0
 30 27  1  0  0  0  0
 31 28  1  0  0  0  0
 32 29  1  0  0  0  0
 33 27  1  0  0  0  0
 34 35  1  0  0  0  0
 36 34  1  0  0  0  0
M  END
>  <MODEL>
8

>  <REMARK>
 VINA RESULT:      -5.5      2.522      4.011
  Name = 
  5 active torsions:
  status: ('A' for Active; 'I' for Inactive)
    1  A    between atoms: N_4  and  C_10
    2  A    between atoms: C_7  and  C_28
    3  A    between atoms: C_10  and  C_13
    4  A    between atoms: C_12  and  C_35
    5  A    between atoms: C_19  and  C_24
                            x       y       z     vdW  Elec       q    Type
                         _______ _______ _______ _____ _____    ______ ____

>  <TORSDO>
F 5

$$$$
=
 OpenBabel11072414323D

 36 41  0  0  1  0  0  0  0  0999 V2000
  160.7860  208.3770  152.2990 N   0  0  0  0  0  0  0  0  0  0  0  0
  160.9370  208.3380  151.0210 C   0  0  0  0  0  0  0  0  0  0  0  0
  162.3400  208.4730  148.9030 C   0  0  0  0  0  2  0  0  0  0  0  0
  162.1090  207.0600  149.4420 C   0  0  1  0  0  3  0  0  0  0  0  0
  161.5810  209.6920  150.0440 S   0  0  0  0  0  0  0  0  0  0  0  0
  160.8700  207.0540  150.3020 C   0  0  0  0  0  2  0  0  0  0  0  0
  160.2690  203.3560  144.8730 C   0  0  0  0  0  3  0  0  0  0  0  0
  161.3370  206.4580  146.3440 C   0  0  0  0  0  2  0  0  0  0  0  0
  158.8610  201.5060  144.2290 O   0  0  0  0  0  1  0  0  0  0  0  0
  162.3270  204.5290  148.8460 C   0  0  2  0  0  3  0  0  0  0  0  0
  161.6740  205.2970  145.4530 C   0  0  0  0  0  0  0  0  0  0  0  0
  161.1910  201.8890  147.0550 C   0  0  0  0  0  3  0  0  0  0  0  0
  161.6720  203.1860  146.8470 C   0  0  0  0  0  0  0  0  0  0  0  0
  160.2510  201.3280  146.1890 C   0  0  0  0  0  3  0  0  0  0  0  0
  159.7930  202.0610  145.0950 C   0  0  0  0  0  0  0  0  0  0  0  0
  161.2080  203.9290  145.7380 C   0  0  0  0  0  0  0  0  0  0  0  0
  160.8980  206.0420  147.6060 O   0  0  0  0  0  0  0  0  0  0  0  0
  162.2820  205.5260  144.3720 O   0  0  0  0  0  0  0  0  0  0  0  0
  162.0590  205.9640  148.3720 C   0  0  1  0  0  3  0  0  0  0  0  0
  162.6400  203.6910  147.7280 O   0  0  0  0  0  0  0  0  0  0  0  0
  161.6330  202.7850  150.4800 C   0  0  2  0  0  3  0  0  0  0  0  0
  161.5110  204.0580  151.0530 O   0  0  0  0  0  0  0  0  0  0  0  0
  161.1810  203.9530  149.6870 C   0  0  1  0  0  3  0  0  0  0  0  0
  160.5300  202.0130  150.8330 O   0  0  0  0  0  1  0  0  0  0  0  0
  162.1880  210.3300  152.7920 C   0  0  0  0  0  1  0  0  0  0  0  0
  160.9100  209.5710  153.1120 C   0  0  2  0  0  3  0  0  0  0  0  0
  160.8650  209.2520  154.6180 C   0  0  2  0  0  0  0  0  0  0  0  0
  161.1250  207.8030  155.0270 C   0  0  0  0  0  2  0  0  0  0  0  0
  160.0830  208.2120  157.2440 C   0  0  0  0  0  2  0  0  0  0  0  0
  160.1320  210.1900  155.5930 C   0  0  1  0  0  0  0  0  0  0  0  0
  160.0910  207.2990  156.0280 C   0  0  0  0  0  2  0  0  0  0  0  0
  159.5150  209.5780  156.8660 C   0  0  0  0  0  2  0  0  0  0  0  0
  161.6480  210.2000  155.5280 C   0  0  0  0  0  2  0  0  0  0  0  0
  159.5190  211.4760  155.0530 C   0  0  0  0  0  3  0  0  0  0  0  0
  160.0870  212.5880  155.6760 O   0  0  0  0  0  1  0  0  0  0  0  0
  158.1410  211.4830  155.2550 O   0  0  0  0  0  1  0  0  0  0  0  0
  1 26  1  0  0  0  0
  2  1  2  0  0  0  0
  3  5  1  0  0  0  0
  4  3  1  6  0  0  0
  4  6  1  0  0  0  0
  5  2  1  0  0  0  0
  6  2  1  0  0  0  0
  7 15  2  0  0  0  0
  7 16  1  0  0  0  0
  8 17  1  0  0  0  0
  9 15  1  0  0  0  0
 10 20  1  6  0  0  0
 10 23  1  0  0  0  0
 11 16  1  0  0  0  0
 11  8  1  0  0  0  0
 13 12  1  0  0  0  0
 13 20  1  0  0  0  0
 14 12  2  0  0  0  0
 15 14  1  0  0  0  0
 16 13  2  0  0  0  0
 18 11  2  0  0  0  0
 19 17  1  1  0  0  0
 19 10  1  0  0  0  0
 19  4  1  0  0  0  0
 21 24  1  1  0  0  0
 21 22  1  0  0  0  0
 23 21  1  0  0  0  0
 23 22  1  1  0  0  0
 26 25  1  1  0  0  0
 27 26  1  6  0  0  0
 27 28  1  0  0  0  0
 27 33  1  0  0  0  0
 27 30  1  0  0  0  0
 28 31  1  0  0  0  0
 30 34  1  6  0  0  0
 30 32  1  0  0  0  0
 31 29  1  0  0  0  0
 32 29  1  0  0  0  0
 33 30  1  0  0  0  0
 34 36  1  0  0  0  0
 34 35  1  0  0  0  0
M  END
>  <MODEL>
9

>  <REMARK>
 VINA RESULT:      -5.2      1.659      2.772
  Name = 
  5 active torsions:
  status: ('A' for Active; 'I' for Inactive)
    1  A    between atoms: N_4  and  C_10
    2  A    between atoms: C_7  and  C_28
    3  A    between atoms: C_10  and  C_13
    4  A    between atoms: C_12  and  C_35
    5  A    between atoms: C_19  and  C_24
                            x       y       z     vdW  Elec       q    Type
                         _______ _______ _______ _____ _____    ______ ____

>  <TORSDO>
F 5

$$$$
