=
 OpenBabel11072411383D

 61 69  0  0  1  0  0  0  0  0999 V2000
  159.3060  211.8440  151.3820 O   0  0  0  0  0  0  0  0  0  0  0  0
  160.4960  211.5140  151.1290 C   0  0  0  0  0  0  0  0  0  0  0  0
  161.1890  212.2340  150.0970 N   0  0  0  0  0  2  0  0  0  0  0  0
  159.2210  209.5940  153.0420 O   0  0  0  0  0  0  0  0  0  0  0  0
  160.3330  210.0860  153.1670 C   0  0  0  0  0  0  0  0  0  0  0  0
  162.4640  210.9200  152.2910 O   0  0  0  0  0  0  0  0  0  0  0  0
  160.8840  210.3060  154.5450 C   0  0  1  0  0  3  0  0  0  0  0  0
  162.9270  210.2530  153.3430 O   0  0  0  0  0  0  0  0  0  0  0  0
  161.1740  210.4160  151.9290 C   0  0  2  0  0  0  0  0  0  0  0  0
  163.0730  210.4590  155.7140 C   0  0  0  0  0  1  0  0  0  0  0  0
  162.3090  210.8310  154.4600 C   0  0  2  0  0  3  0  0  0  0  0  0
  160.0870  211.2120  155.2410 O   0  0  0  0  0  1  0  0  0  0  0  0
  161.2550  209.2860  151.0780 O   0  0  0  0  0  0  0  0  0  0  0  0
  160.0040  205.4280  149.6110 C   0  0  0  0  0  2  0  0  0  0  0  0
  161.1550  206.9830  151.3570 C   0  0  1  0  0  0  0  0  0  0  0  0
  163.0770  207.6870  151.0280 O   0  0  0  0  0  0  0  0  0  0  0  0
  161.3060  207.4380  152.6720 O   0  0  0  0  0  0  0  0  0  0  0  0
  161.2030  204.5050  150.0790 C   0  0  1  0  0  0  0  0  0  0  0  0
  160.8770  201.7610  150.1280 C   0  0  0  0  0  2  0  0  0  0  0  0
  160.7590  202.4450  148.8860 O   0  0  0  0  0  0  0  0  0  0  0  0
  161.6020  203.5720  148.9090 C   0  0  1  0  0  3  0  0  0  0  0  0
  162.5050  205.2470  150.5470 C   0  0  0  0  0  2  0  0  0  0  0  0
  159.5110  206.8920  150.6610 S   0  0  0  0  0  0  0  0  0  0  0  0
  161.9400  208.2170  151.6910 C   0  0  1  0  0  0  0  0  0  0  0  0
  161.3970  202.5740  151.1690 O   0  0  0  0  0  0  0  0  0  0  0  0
  162.2650  206.7260  150.4310 C   0  0  1  0  0  3  0  0  0  0  0  0
  160.7090  203.7110  151.1460 O   0  0  0  0  0  0  0  0  0  0  0  0
  161.8090  205.5730  145.1010 C   0  0  0  0  0  3  0  0  0  0  0  0
  161.7100  204.2420  147.5660 C   0  0  0  0  0  0  0  0  0  0  0  0
  161.3330  203.5780  146.3890 C   0  0  0  0  0  3  0  0  0  0  0  0
  161.3830  204.2430  145.1600 C   0  0  0  0  0  3  0  0  0  0  0  0
  162.1270  205.5760  147.5010 C   0  0  0  0  0  3  0  0  0  0  0  0
  162.1820  206.2400  146.2720 C   0  0  0  0  0  3  0  0  0  0  0  0
  161.4870  210.2440  148.6630 C   0  0  0  0  0  1  0  0  0  0  0  0
  163.3580  211.7370  149.1720 C   0  0  0  0  0  1  0  0  0  0  0  0
  161.8650  211.6900  148.9180 C   0  0  0  0  0  0  0  0  0  0  0  0
  161.5000  212.7080  147.4470 P   0  0  1  0  0  0  0  0  0  0  0  0
  161.0890  214.0910  147.9120 O   0  0  0  0  0  0  0  0  0  0  0  0
  162.9920  212.8570  146.4260 C   0  0  0  0  0  1  0  0  0  0  0  0
  160.2820  211.9760  146.5060 O   0  0  0  0  0  0  0  0  0  0  0  0
  159.5630  213.0090  145.8930 C   0  0  1  0  0  3  0  0  0  0  0  0
  160.5430  212.0540  143.7610 C   0  0  0  0  0  3  0  0  0  0  0  0
  159.6560  212.6870  141.5930 C   0  0  0  0  0  0  0  0  0  0  0  0
  158.7320  213.6470  143.6270 C   0  0  0  0  0  3  0  0  0  0  0  0
  159.6150  212.8880  144.3980 C   0  0  0  0  0  0  0  0  0  0  0  0
  157.8520  214.3250  141.4970 O   0  0  0  0  0  1  0  0  0  0  0  0
  160.5580  211.9510  142.3680 C   0  0  0  0  0  3  0  0  0  0  0  0
  158.7470  213.5560  142.2310 C   0  0  0  0  0  0  0  0  0  0  0  0
  161.0970  212.1150  139.6090 C   0  0  2  0  0  3  0  0  0  0  0  0
  159.6910  212.4960  140.1030 C   0  0  1  0  0  3  0  0  0  0  0  0
  161.6080  213.1800  138.6590 C   0  0  0  0  0  1  0  0  0  0  0  0
  158.7070  211.3980  139.6370 C   0  0  2  0  0  3  0  0  0  0  0  0
  160.9400  210.8550  138.9070 N   0  0  0  0  0  0  0  0  0  0  0  0
  159.5950  210.4260  138.9630 C   0  0  0  0  0  0  0  0  0  0  0  0
  162.0520  210.0120  138.5000 C   0  0  0  0  0  1  0  0  0  0  0  0
  159.2090  209.3120  138.5170 O   0  0  0  0  0  0  0  0  0  0  0  0
  156.2690  212.0340  139.2910 C   0  0  0  0  0  2  0  0  0  0  0  0
  157.6040  211.8710  138.6640 C   0  0  2  0  0  3  0  0  0  0  0  0
  156.6000  210.8920  138.5360 O   0  0  0  0  0  0  0  0  0  0  0  0
  158.1380  213.0360  146.4290 C   0  0  0  0  0  2  0  0  0  0  0  0
  158.1040  212.5100  147.7210 O   0  0  0  0  0  1  0  0  0  0  0  0
  2  1  2  0  0  0  0
  2  9  1  0  0  0  0
  3  2  1  0  0  0  0
  4  5  2  0  0  0  0
  5  7  1  0  0  0  0
  6  8  1  0  0  0  0
  7 12  1  6  0  0  0
  8 11  1  0  0  0  0
  9 13  1  6  0  0  0
  9  6  1  0  0  0  0
  9  5  1  0  0  0  0
 11  7  1  0  0  0  0
 11 10  1  1  0  0  0
 14 23  1  0  0  0  0
 15 23  1  6  0  0  0
 15 24  1  0  0  0  0
 15 17  1  0  0  0  0
 16 24  1  0  0  0  0
 18 14  1  6  0  0  0
 18 22  1  0  0  0  0
 18 27  1  0  0  0  0
 19 25  1  0  0  0  0
 20 21  1  0  0  0  0
 20 19  1  0  0  0  0
 21 29  1  6  0  0  0
 21 18  1  0  0  0  0
 24 13  1  6  0  0  0
 24 17  1  0  0  0  0
 26 22  1  1  0  0  0
 26 16  1  0  0  0  0
 26 15  1  0  0  0  0
 27 25  1  0  0  0  0
 28 31  2  0  0  0  0
 28 33  1  0  0  0  0
 30 29  2  0  0  0  0
 31 30  1  0  0  0  0
 32 29  1  0  0  0  0
 33 32  2  0  0  0  0
 34 36  1  0  0  0  0
 36 35  1  0  0  0  0
 36  3  1  0  0  0  0
 37 39  1  6  0  0  0
 37 38  2  0  0  0  0
 37 36  1  0  0  0  0
 40 37  1  0  0  0  0
 41 60  1  1  0  0  0
 41 40  1  0  0  0  0
 42 45  1  0  0  0  0
 43 48  2  0  0  0  0
 43 47  1  0  0  0  0
 44 45  2  0  0  0  0
 45 41  1  0  0  0  0
 46 48  1  0  0  0  0
 47 42  2  0  0  0  0
 48 44  1  0  0  0  0
 49 51  1  6  0  0  0
 49 50  1  0  0  0  0
 50 43  1  1  0  0  0
 52 54  1  6  0  0  0
 52 50  1  0  0  0  0
 53 54  1  0  0  0  0
 53 49  1  0  0  0  0
 55 53  1  0  0  0  0
 56 54  2  0  0  0  0
 58 57  1  1  0  0  0
 58 52  1  0  0  0  0
 59 58  1  0  0  0  0
 59 57  1  0  0  0  0
 60 61  1  0  0  0  0
M  END
>  <MODEL>
1

>  <REMARK>
 VINA RESULT:      -1.8      0.000      0.000
  Name = 
  12 active torsions:
  status: ('A' for Active; 'I' for Inactive)
    1  A    between atoms: P_1  and  O_42
    2  A    between atoms: P_1  and  C_53
    3  A    between atoms: C_2  and  C_5
    4  A    between atoms: C_2  and  C_37
    5  A    between atoms: C_2  and  O_42
    6  A    between atoms: C_4  and  C_12
    7  A    between atoms: C_22  and  C_23
    8  A    between atoms: C_32  and  C_36
    9  A    between atoms: O_39  and  C_40
   10  A    between atoms: O_39  and  C_51
   11  A    between atoms: C_40  and  C_47
   12  A    between atoms: C_53  and  N_58
                            x       y       z     vdW  Elec       q    Type
                         _______ _______ _______ _____ _____    ______ ____

>  <TORSDO>
F 12

$$$$
=
 OpenBabel11072411383D

 61 69  0  0  1  0  0  0  0  0999 V2000
  159.3020  211.9610  151.8110 O   0  0  0  0  0  0  0  0  0  0  0  0
  160.4540  211.4800  151.6310 C   0  0  0  0  0  0  0  0  0  0  0  0
  161.2720  212.0630  150.6050 N   0  0  0  0  0  2  0  0  0  0  0  0
  158.8950  209.8790  153.6260 O   0  0  0  0  0  0  0  0  0  0  0  0
  160.0630  210.2170  153.7460 C   0  0  0  0  0  0  0  0  0  0  0  0
  162.3020  210.6870  152.8680 O   0  0  0  0  0  0  0  0  0  0  0  0
  160.6230  210.4400  155.1200 C   0  0  1  0  0  3  0  0  0  0  0  0
  162.6520  210.0280  153.9670 O   0  0  0  0  0  0  0  0  0  0  0  0
  160.9590  210.3490  152.5090 C   0  0  2  0  0  0  0  0  0  0  0  0
  162.7960  210.3560  156.3240 C   0  0  0  0  0  1  0  0  0  0  0  0
  162.1080  210.7550  155.0340 C   0  0  2  0  0  3  0  0  0  0  0  0
  159.9530  211.4910  155.7440 O   0  0  0  0  0  1  0  0  0  0  0  0
  160.8900  209.1690  151.7270 O   0  0  0  0  0  0  0  0  0  0  0  0
  159.9810  205.2940  150.0650 C   0  0  0  0  0  2  0  0  0  0  0  0
  161.0240  206.8540  151.8730 C   0  0  1  0  0  0  0  0  0  0  0  0
  162.8580  207.7630  151.5430 O   0  0  0  0  0  0  0  0  0  0  0  0
  161.1660  207.2470  153.2080 O   0  0  0  0  0  0  0  0  0  0  0  0
  161.2770  204.4690  150.4500 C   0  0  1  0  0  0  0  0  0  0  0  0
  161.2240  201.7090  150.3460 C   0  0  0  0  0  2  0  0  0  0  0  0
  161.0040  202.4460  149.1490 O   0  0  0  0  0  0  0  0  0  0  0  0
  161.7330  203.6490  149.2190 C   0  0  1  0  0  3  0  0  0  0  0  0
  162.5140  205.3100  150.9310 C   0  0  0  0  0  2  0  0  0  0  0  0
  159.3780  206.6400  151.2090 S   0  0  0  0  0  0  0  0  0  0  0  0
  161.6930  208.1400  152.2610 C   0  0  1  0  0  0  0  0  0  0  0  0
  161.6910  202.5100  151.4210 O   0  0  0  0  0  0  0  0  0  0  0  0
  162.1270  206.7620  150.9080 C   0  0  1  0  0  3  0  0  0  0  0  0
  160.8940  203.5720  151.4800 O   0  0  0  0  0  0  0  0  0  0  0  0
  161.6120  205.8310  145.5080 C   0  0  0  0  0  3  0  0  0  0  0  0
  161.7370  204.4000  147.9150 C   0  0  0  0  0  0  0  0  0  0  0  0
  161.8430  203.7290  146.6880 C   0  0  0  0  0  3  0  0  0  0  0  0
  161.7810  204.4440  145.4880 C   0  0  0  0  0  3  0  0  0  0  0  0
  161.5590  205.7880  147.9280 C   0  0  0  0  0  3  0  0  0  0  0  0
  161.5010  206.5040  146.7290 C   0  0  0  0  0  3  0  0  0  0  0  0
  161.1980  210.1210  149.0780 C   0  0  0  0  0  1  0  0  0  0  0  0
  163.3220  210.9920  149.9260 C   0  0  0  0  0  1  0  0  0  0  0  0
  161.9270  211.3870  149.4830 C   0  0  0  0  0  0  0  0  0  0  0  0
  162.0760  212.5160  148.0560 P   0  0  1  0  0  0  0  0  0  0  0  0
  161.9060  213.9380  148.5520 O   0  0  0  0  0  0  0  0  0  0  0  0
  163.7260  212.3490  147.3200 C   0  0  0  0  0  1  0  0  0  0  0  0
  160.9200  212.1240  146.8660 O   0  0  0  0  0  0  0  0  0  0  0  0
  160.5960  213.3150  146.2050 C   0  0  1  0  0  3  0  0  0  0  0  0
  162.0160  213.0180  144.1280 C   0  0  0  0  0  3  0  0  0  0  0  0
  160.9910  212.8740  141.9330 C   0  0  0  0  0  0  0  0  0  0  0  0
  159.6160  213.2020  143.9120 C   0  0  0  0  0  3  0  0  0  0  0  0
  160.7550  213.1660  144.7200 C   0  0  0  0  0  0  0  0  0  0  0  0
  158.5690  213.1000  141.7520 O   0  0  0  0  0  1  0  0  0  0  0  0
  162.1300  212.8670  142.7440 C   0  0  0  0  0  3  0  0  0  0  0  0
  159.7240  213.0610  142.5250 C   0  0  0  0  0  0  0  0  0  0  0  0
  161.7110  213.9210  139.7600 C   0  0  2  0  0  3  0  0  0  0  0  0
  161.1770  212.6580  140.4580 C   0  0  1  0  0  3  0  0  0  0  0  0
  160.7050  214.3960  138.7300 C   0  0  0  0  0  1  0  0  0  0  0  0
  162.1540  211.4970  140.1600 C   0  0  2  0  0  3  0  0  0  0  0  0
  162.9410  213.5180  139.1040 N   0  0  0  0  0  0  0  0  0  0  0  0
  163.2160  212.1580  139.3700 C   0  0  0  0  0  0  0  0  0  0  0  0
  163.9020  214.4530  138.5420 C   0  0  0  0  0  1  0  0  0  0  0  0
  164.2770  211.5860  139.0020 O   0  0  0  0  0  0  0  0  0  0  0  0
  161.2880  209.1070  140.1740 C   0  0  0  0  0  2  0  0  0  0  0  0
  161.5550  210.3190  139.3620 C   0  0  2  0  0  3  0  0  0  0  0  0
  162.4330  209.2190  139.3640 O   0  0  0  0  0  0  0  0  0  0  0  0
  159.1950  213.7610  146.6020 C   0  0  0  0  0  2  0  0  0  0  0  0
  158.7930  213.0950  147.7600 O   0  0  0  0  0  1  0  0  0  0  0  0
  2  1  2  0  0  0  0
  3  2  1  0  0  0  0
  4  5  2  0  0  0  0
  5  7  1  0  0  0  0
  6  8  1  0  0  0  0
  7 12  1  6  0  0  0
  8 11  1  0  0  0  0
  9  2  1  6  0  0  0
  9  6  1  0  0  0  0
  9  5  1  0  0  0  0
 11  7  1  0  0  0  0
 11 10  1  1  0  0  0
 13  9  1  0  0  0  0
 14 23  1  0  0  0  0
 15 23  1  6  0  0  0
 15 24  1  0  0  0  0
 15 17  1  0  0  0  0
 16 24  1  0  0  0  0
 18 14  1  6  0  0  0
 18 22  1  0  0  0  0
 18 27  1  0  0  0  0
 19 25  1  0  0  0  0
 20 21  1  0  0  0  0
 20 19  1  0  0  0  0
 21 29  1  6  0  0  0
 21 18  1  0  0  0  0
 24 13  1  6  0  0  0
 24 17  1  0  0  0  0
 25 27  1  0  0  0  0
 26 22  1  1  0  0  0
 26 16  1  0  0  0  0
 26 15  1  0  0  0  0
 28 33  1  0  0  0  0
 29 32  1  0  0  0  0
 30 29  2  0  0  0  0
 31 28  2  0  0  0  0
 31 30  1  0  0  0  0
 33 32  2  0  0  0  0
 34 36  1  0  0  0  0
 36 35  1  0  0  0  0
 36  3  1  0  0  0  0
 37 39  1  6  0  0  0
 37 38  2  0  0  0  0
 37 36  1  0  0  0  0
 40 37  1  0  0  0  0
 41 60  1  6  0  0  0
 41 40  1  0  0  0  0
 42 45  1  0  0  0  0
 43 48  2  0  0  0  0
 43 47  1  0  0  0  0
 44 45  2  0  0  0  0
 45 41  1  0  0  0  0
 46 48  1  0  0  0  0
 47 42  2  0  0  0  0
 48 44  1  0  0  0  0
 49 51  1  6  0  0  0
 49 50  1  0  0  0  0
 50 43  1  1  0  0  0
 52 54  1  6  0  0  0
 52 50  1  0  0  0  0
 53 54  1  0  0  0  0
 53 49  1  0  0  0  0
 55 53  1  0  0  0  0
 56 54  2  0  0  0  0
 58 59  1  0  0  0  0
 58 52  1  0  0  0  0
 58 57  1  1  0  0  0
 59 57  1  0  0  0  0
 60 61  1  0  0  0  0
M  END
>  <MODEL>
2

>  <REMARK>
 VINA RESULT:      -0.9      1.454      1.932
  Name = 
  12 active torsions:
  status: ('A' for Active; 'I' for Inactive)
    1  A    between atoms: P_1  and  O_42
    2  A    between atoms: P_1  and  C_53
    3  A    between atoms: C_2  and  C_5
    4  A    between atoms: C_2  and  C_37
    5  A    between atoms: C_2  and  O_42
    6  A    between atoms: C_4  and  C_12
    7  A    between atoms: C_22  and  C_23
    8  A    between atoms: C_32  and  C_36
    9  A    between atoms: O_39  and  C_40
   10  A    between atoms: O_39  and  C_51
   11  A    between atoms: C_40  and  C_47
   12  A    between atoms: C_53  and  N_58
                            x       y       z     vdW  Elec       q    Type
                         _______ _______ _______ _____ _____    ______ ____

>  <TORSDO>
F 12

$$$$
=
 OpenBabel11072411383D

 61 69  0  0  1  0  0  0  0  0999 V2000
  159.3560  211.8450  151.4810 O   0  0  0  0  0  0  0  0  0  0  0  0
  160.5340  211.4790  151.2220 C   0  0  0  0  0  0  0  0  0  0  0  0
  161.2430  212.1780  150.1860 N   0  0  0  0  0  2  0  0  0  0  0  0
  159.1960  209.5410  153.0740 O   0  0  0  0  0  0  0  0  0  0  0  0
  160.3100  210.0190  153.2310 C   0  0  0  0  0  0  0  0  0  0  0  0
  162.4690  210.8440  152.4170 O   0  0  0  0  0  0  0  0  0  0  0  0
  160.8340  210.2090  154.6250 C   0  0  1  0  0  3  0  0  0  0  0  0
  162.9010  210.1550  153.4670 O   0  0  0  0  0  0  0  0  0  0  0  0
  161.1820  210.3610  152.0180 C   0  0  2  0  0  0  0  0  0  0  0  0
  162.9970  210.3190  155.8440 C   0  0  0  0  0  1  0  0  0  0  0  0
  162.2650  210.7210  154.5790 C   0  0  2  0  0  3  0  0  0  0  0  0
  160.0310  211.1120  155.3180 O   0  0  0  0  0  1  0  0  0  0  0  0
  161.2700  209.2440  151.1490 O   0  0  0  0  0  0  0  0  0  0  0  0
  160.0310  205.4200  149.5870 C   0  0  0  0  0  2  0  0  0  0  0  0
  161.1550  206.9360  151.3830 C   0  0  1  0  0  0  0  0  0  0  0  0
  163.0860  207.6370  151.1060 O   0  0  0  0  0  0  0  0  0  0  0  0
  161.2820  207.3660  152.7090 O   0  0  0  0  0  0  0  0  0  0  0  0
  161.2170  204.4820  150.0610 C   0  0  1  0  0  0  0  0  0  0  0  0
  160.8790  201.7400  150.0530 C   0  0  0  0  0  2  0  0  0  0  0  0
  160.7880  202.4470  148.8210 O   0  0  0  0  0  0  0  0  0  0  0  0
  161.6350  203.5700  148.8820 C   0  0  1  0  0  3  0  0  0  0  0  0
  162.5130  205.2100  150.5680 C   0  0  0  0  0  2  0  0  0  0  0  0
  159.5250  206.8660  150.6540 S   0  0  0  0  0  0  0  0  0  0  0  0
  161.9380  208.1600  151.7560 C   0  0  1  0  0  0  0  0  0  0  0  0
  161.3820  202.5310  151.1190 O   0  0  0  0  0  0  0  0  0  0  0  0
  162.2820  206.6910  150.4750 C   0  0  1  0  0  3  0  0  0  0  0  0
  160.6990  203.6710  151.1030 O   0  0  0  0  0  0  0  0  0  0  0  0
  162.0380  205.4320  145.0190 C   0  0  0  0  0  3  0  0  0  0  0  0
  161.7720  204.2630  147.5540 C   0  0  0  0  0  0  0  0  0  0  0  0
  162.9170  205.0100  147.2370 C   0  0  0  0  0  3  0  0  0  0  0  0
  163.0470  205.5930  145.9720 C   0  0  0  0  0  3  0  0  0  0  0  0
  160.7690  204.0990  146.5920 C   0  0  0  0  0  3  0  0  0  0  0  0
  160.8970  204.6850  145.3290 C   0  0  0  0  0  3  0  0  0  0  0  0
  161.3710  210.2300  148.6710 C   0  0  0  0  0  1  0  0  0  0  0  0
  163.3750  211.4860  149.3020 C   0  0  0  0  0  1  0  0  0  0  0  0
  161.8950  211.6140  149.0030 C   0  0  0  0  0  0  0  0  0  0  0  0
  161.6920  212.7280  147.5710 P   0  0  1  0  0  0  0  0  0  0  0  0
  161.3150  214.1030  148.0840 O   0  0  0  0  0  0  0  0  0  0  0  0
  163.2630  212.8540  146.6720 C   0  0  0  0  0  1  0  0  0  0  0  0
  160.5150  212.1130  146.5020 O   0  0  0  0  0  0  0  0  0  0  0  0
  160.1550  213.1600  145.6460 C   0  0  1  0  0  3  0  0  0  0  0  0
  159.9200  211.8460  143.4920 C   0  0  0  0  0  3  0  0  0  0  0  0
  161.3220  212.3420  141.5740 C   0  0  0  0  0  0  0  0  0  0  0  0
  161.5900  213.5860  143.6480 C   0  0  0  0  0  3  0  0  0  0  0  0
  160.5500  212.8560  144.2300 C   0  0  0  0  0  0  0  0  0  0  0  0
  163.0200  214.0800  141.7810 O   0  0  0  0  0  1  0  0  0  0  0  0
  160.3010  211.5960  142.1710 C   0  0  0  0  0  3  0  0  0  0  0  0
  161.9830  213.3340  142.3290 C   0  0  0  0  0  0  0  0  0  0  0  0
  161.0550  210.7200  139.6690 C   0  0  2  0  0  3  0  0  0  0  0  0
  161.6510  212.0580  140.1360 C   0  0  1  0  0  3  0  0  0  0  0  0
  162.1730  209.7820  139.2540 C   0  0  0  0  0  1  0  0  0  0  0  0
  161.1330  213.1680  139.1920 C   0  0  2  0  0  3  0  0  0  0  0  0
  160.2230  211.0370  138.5240 N   0  0  0  0  0  0  0  0  0  0  0  0
  160.2290  212.4290  138.2830 C   0  0  0  0  0  0  0  0  0  0  0  0
  159.2750  210.1090  137.9300 C   0  0  0  0  0  1  0  0  0  0  0  0
  159.5080  212.9800  137.4080 O   0  0  0  0  0  0  0  0  0  0  0  0
  163.0010  213.0230  137.4740 C   0  0  0  0  0  2  0  0  0  0  0  0
  162.2190  213.9020  138.3780 C   0  0  2  0  0  3  0  0  0  0  0  0
  163.5020  213.4350  138.7230 O   0  0  0  0  0  0  0  0  0  0  0  0
  158.6680  213.4560  145.7880 C   0  0  0  0  0  2  0  0  0  0  0  0
  158.2570  213.2140  147.0990 O   0  0  0  0  0  1  0  0  0  0  0  0
  2  1  2  0  0  0  0
  2  9  1  0  0  0  0
  3  2  1  0  0  0  0
  4  5  2  0  0  0  0
  5  7  1  0  0  0  0
  6  8  1  0  0  0  0
  7 12  1  6  0  0  0
  8 11  1  0  0  0  0
  9 13  1  6  0  0  0
  9  6  1  0  0  0  0
  9  5  1  0  0  0  0
 11  7  1  0  0  0  0
 11 10  1  1  0  0  0
 14 23  1  0  0  0  0
 15 23  1  6  0  0  0
 15 24  1  0  0  0  0
 15 17  1  0  0  0  0
 16 24  1  0  0  0  0
 18 14  1  6  0  0  0
 18 22  1  0  0  0  0
 18 27  1  0  0  0  0
 19 25  1  0  0  0  0
 20 21  1  0  0  0  0
 20 19  1  0  0  0  0
 21 29  1  6  0  0  0
 21 18  1  0  0  0  0
 24 13  1  6  0  0  0
 24 17  1  0  0  0  0
 26 22  1  1  0  0  0
 26 16  1  0  0  0  0
 26 15  1  0  0  0  0
 27 25  1  0  0  0  0
 28 33  2  0  0  0  0
 28 31  1  0  0  0  0
 30 29  1  0  0  0  0
 31 30  2  0  0  0  0
 32 29  2  0  0  0  0
 33 32  1  0  0  0  0
 34 36  1  0  0  0  0
 36 35  1  0  0  0  0
 36  3  1  0  0  0  0
 37 39  1  6  0  0  0
 37 38  2  0  0  0  0
 37 36  1  0  0  0  0
 40 37  1  0  0  0  0
 41 60  1  6  0  0  0
 41 40  1  0  0  0  0
 42 45  1  0  0  0  0
 43 47  1  0  0  0  0
 43 48  2  0  0  0  0
 44 45  2  0  0  0  0
 45 41  1  0  0  0  0
 46 48  1  0  0  0  0
 47 42  2  0  0  0  0
 48 44  1  0  0  0  0
 49 51  1  6  0  0  0
 49 50  1  0  0  0  0
 50 43  1  1  0  0  0
 52 54  1  6  0  0  0
 52 50  1  0  0  0  0
 53 49  1  0  0  0  0
 54 53  1  0  0  0  0
 55 53  1  0  0  0  0
 56 54  2  0  0  0  0
 57 59  1  0  0  0  0
 58 57  1  6  0  0  0
 58 59  1  0  0  0  0
 58 52  1  0  0  0  0
 60 61  1  0  0  0  0
M  END
>  <MODEL>
3

>  <REMARK>
 VINA RESULT:      -0.8      1.317      2.059
  Name = 
  12 active torsions:
  status: ('A' for Active; 'I' for Inactive)
    1  A    between atoms: P_1  and  O_42
    2  A    between atoms: P_1  and  C_53
    3  A    between atoms: C_2  and  C_5
    4  A    between atoms: C_2  and  C_37
    5  A    between atoms: C_2  and  O_42
    6  A    between atoms: C_4  and  C_12
    7  A    between atoms: C_22  and  C_23
    8  A    between atoms: C_32  and  C_36
    9  A    between atoms: O_39  and  C_40
   10  A    between atoms: O_39  and  C_51
   11  A    between atoms: C_40  and  C_47
   12  A    between atoms: C_53  and  N_58
                            x       y       z     vdW  Elec       q    Type
                         _______ _______ _______ _____ _____    ______ ____

>  <TORSDO>
F 12

$$$$
