=
 OpenBabel11072411023D

 30 37  0  0  1  0  0  0  0  0999 V2000
  160.8190  206.4240  149.7950 C   0  0  1  0  0  3  0  0  0  0  0  0
  162.3210  208.3280  148.2470 C   0  0  0  0  0  3  0  0  0  0  0  0
  162.7480  207.4020  151.1000 N   0  0  0  0  0  2  0  0  0  0  0  0
  161.4530  207.7490  150.5080 C   0  0  2  0  0  0  0  0  0  0  0  0
  160.5520  208.1360  151.7250 C   0  0  1  0  0  3  0  0  0  0  0  0
  160.9290  209.4130  154.4930 C   0  0  0  0  0  2  0  0  0  0  0  0
  161.0730  207.2530  152.8790 C   0  0  1  0  0  3  0  0  0  0  0  0
  161.5680  208.8790  149.4180 C   0  0  1  0  0  3  0  0  0  0  0  0
  162.4150  206.7330  152.3760 C   0  0  0  0  0  2  0  0  0  0  0  0
  160.6840  206.5240  148.2510 C   0  0  0  0  0  2  0  0  0  0  0  0
  160.5940  209.6340  152.1260 C   0  0  0  0  0  2  0  0  0  0  0  0
  159.9350  209.8750  153.4670 C   0  0  0  0  0  2  0  0  0  0  0  0
  161.1830  207.8880  154.3140 C   0  0  2  0  0  3  0  0  0  0  0  0
  161.9090  207.1770  147.6880 C   0  0  0  0  0  3  0  0  0  0  0  0
  160.0630  213.6520  148.2090 C   0  0  1  0  0  3  0  0  0  0  0  0
  160.1460  213.3610  149.6710 C   0  0  2  0  0  3  0  0  0  0  0  0
  161.1760  211.3610  147.6490 C   0  0  0  0  0  2  0  0  0  0  0  0
  162.2190  210.2020  149.9110 C   0  0  2  0  0  3  0  0  0  0  0  0
  161.6960  211.3420  149.0930 C   0  0  1  0  0  0  0  0  0  0  0  0
  163.0480  210.9590  149.0320 O   0  0  0  0  0  0  0  0  0  0  0  0
  161.4040  212.5460  150.0150 C   0  0  0  0  0  2  0  0  0  0  0  0
  161.0380  212.8760  147.2670 C   0  0  0  0  0  2  0  0  0  0  0  0
  159.1850  212.7290  148.8340 O   0  0  0  0  0  0  0  0  0  0  0  0
  160.4120  204.2400  151.1760 C   0  0  1  0  0  3  0  0  0  0  0  0
  160.5060  203.8430  149.7120 C   0  0  2  0  0  3  0  0  0  0  0  0
  161.0490  202.8970  151.4360 C   0  0  0  0  0  2  0  0  0  0  0  0
  161.1780  202.5760  150.0070 N   0  0  0  0  0  2  0  0  0  0  0  0
  161.3400  205.0270  150.2530 C   0  0  1  0  0  3  0  0  0  0  0  0
  160.5860  207.1100  155.3660 O   0  0  0  0  0  0  0  0  0  0  0  0
  160.6470  207.9080  156.4880 N   0  0  0  0  0  1  0  0  0  0  0  0
  1 10  1  6  0  0  0
  1  4  1  0  0  0  0
  3  9  1  0  0  0  0
  4  3  1  1  0  0  0
  4  5  1  0  0  0  0
  5 11  1  1  0  0  0
  5  7  1  0  0  0  0
  7  9  1  6  0  0  0
  7 13  1  0  0  0  0
  8  2  1  6  0  0  0
  8 18  1  0  0  0  0
  8  4  1  0  0  0  0
 11 12  1  0  0  0  0
 12  6  1  0  0  0  0
 13  6  1  0  0  0  0
 13 29  1  1  0  0  0
 14  2  2  0  0  0  0
 14 10  1  0  0  0  0
 15 22  1  6  0  0  0
 15 23  1  0  0  0  0
 15 16  1  0  0  0  0
 16 21  1  6  0  0  0
 18 20  1  6  0  0  0
 19 17  1  6  0  0  0
 19 18  1  0  0  0  0
 19 21  1  0  0  0  0
 20 19  1  0  0  0  0
 22 17  1  0  0  0  0
 23 16  1  0  0  0  0
 24 26  1  1  0  0  0
 25 27  1  1  0  0  0
 25 28  1  0  0  0  0
 25 24  1  0  0  0  0
 27 26  1  0  0  0  0
 28  1  1  6  0  0  0
 28 24  1  0  0  0  0
 29 30  1  0  0  0  0
M  END
>  <MODEL>
1

>  <REMARK>
 VINA RESULT:      -6.7      0.000      0.000
  Name = 
  3 active torsions:
  status: ('A' for Active; 'I' for Inactive)
    1  A    between atoms: C_2  and  C_16
    2  A    between atoms: O_14  and  C_25
    3  A    between atoms: C_17  and  C_18
                            x       y       z     vdW  Elec       q    Type
                         _______ _______ _______ _____ _____    ______ ____

>  <TORSDO>
F 3

$$$$
=
 OpenBabel11072411023D

 30 37  0  0  1  0  0  0  0  0999 V2000
  160.9850  207.5520  150.4320 C   0  0  1  0  0  3  0  0  0  0  0  0
  162.4890  209.1620  148.5810 C   0  0  0  0  0  3  0  0  0  0  0  0
  162.6850  209.0090  151.6010 N   0  0  0  0  0  2  0  0  0  0  0  0
  161.4360  209.0680  150.8360 C   0  0  2  0  0  0  0  0  0  0  0  0
  160.3840  209.6480  151.8370 C   0  0  1  0  0  3  0  0  0  0  0  0
  160.3690  211.5940  154.2130 C   0  0  0  0  0  2  0  0  0  0  0  0
  160.8490  209.1310  153.2160 C   0  0  1  0  0  3  0  0  0  0  0  0
  161.5770  209.9030  149.5090 C   0  0  1  0  0  3  0  0  0  0  0  0
  162.2730  208.6430  152.9730 C   0  0  0  0  0  2  0  0  0  0  0  0
  161.0050  207.2570  148.9070 C   0  0  0  0  0  2  0  0  0  0  0  0
  160.2680  211.1950  151.8470 C   0  0  0  0  0  2  0  0  0  0  0  0
  159.4550  211.6880  153.0260 C   0  0  0  0  0  2  0  0  0  0  0  0
  160.7580  210.1050  154.4480 C   0  0  2  0  0  3  0  0  0  0  0  0
  162.2280  207.8730  148.3000 C   0  0  0  0  0  3  0  0  0  0  0  0
  159.5060  214.1190  147.4000 C   0  0  1  0  0  3  0  0  0  0  0  0
  159.6310  214.1460  148.8870 C   0  0  2  0  0  3  0  0  0  0  0  0
  160.8810  211.9060  147.2840 C   0  0  0  0  0  2  0  0  0  0  0  0
  162.0670  211.3650  149.7030 C   0  0  2  0  0  3  0  0  0  0  0  0
  161.4080  212.2440  148.6860 C   0  0  1  0  0  0  0  0  0  0  0  0
  162.7950  212.0160  148.6640 O   0  0  0  0  0  0  0  0  0  0  0  0
  160.9790  213.5700  149.3520 C   0  0  0  0  0  2  0  0  0  0  0  0
  160.5610  213.2830  146.6060 C   0  0  0  0  0  2  0  0  0  0  0  0
  158.7480  213.2490  148.2250 O   0  0  0  0  0  0  0  0  0  0  0  0
  160.5580  205.6190  152.1420 C   0  0  1  0  0  3  0  0  0  0  0  0
  161.0260  204.9830  150.8440 C   0  0  2  0  0  3  0  0  0  0  0  0
  161.2830  204.4720  152.8020 C   0  0  0  0  0  2  0  0  0  0  0  0
  161.7680  203.9230  151.5270 N   0  0  0  0  0  2  0  0  0  0  0  0
  161.5620  206.3700  151.2700 C   0  0  1  0  0  3  0  0  0  0  0  0
  160.1160  209.5520  155.6090 O   0  0  0  0  0  0  0  0  0  0  0  0
  160.3540  210.4570  156.6220 N   0  0  0  0  0  1  0  0  0  0  0  0
  1 10  1  6  0  0  0
  1  4  1  0  0  0  0
  3  9  1  0  0  0  0
  4  3  1  1  0  0  0
  4  5  1  0  0  0  0
  5 11  1  1  0  0  0
  5  7  1  0  0  0  0
  6 13  1  0  0  0  0
  7  9  1  6  0  0  0
  7 13  1  0  0  0  0
  8  2  1  6  0  0  0
  8 18  1  0  0  0  0
  8  4  1  0  0  0  0
 11 12  1  0  0  0  0
 12  6  1  0  0  0  0
 13 29  1  1  0  0  0
 14  2  2  0  0  0  0
 14 10  1  0  0  0  0
 15 22  1  6  0  0  0
 15 23  1  0  0  0  0
 15 16  1  0  0  0  0
 16 21  1  6  0  0  0
 18 20  1  6  0  0  0
 19 17  1  6  0  0  0
 19 21  1  0  0  0  0
 19 18  1  0  0  0  0
 20 19  1  0  0  0  0
 22 17  1  0  0  0  0
 23 16  1  0  0  0  0
 24 26  1  1  0  0  0
 25 28  1  0  0  0  0
 25 27  1  1  0  0  0
 25 24  1  0  0  0  0
 27 26  1  0  0  0  0
 28  1  1  6  0  0  0
 28 24  1  0  0  0  0
 29 30  1  0  0  0  0
M  END
>  <MODEL>
2

>  <REMARK>
 VINA RESULT:      -5.4      1.383      1.608
  Name = 
  3 active torsions:
  status: ('A' for Active; 'I' for Inactive)
    1  A    between atoms: C_2  and  C_16
    2  A    between atoms: O_14  and  C_25
    3  A    between atoms: C_17  and  C_18
                            x       y       z     vdW  Elec       q    Type
                         _______ _______ _______ _____ _____    ______ ____

>  <TORSDO>
F 3

$$$$
=
 OpenBabel11072411023D

 30 37  0  0  1  0  0  0  0  0999 V2000
  159.9860  209.9340  153.4670 C   0  0  1  0  0  3  0  0  0  0  0  0
  161.2600  211.4450  151.3760 C   0  0  0  0  0  3  0  0  0  0  0  0
  160.4370  212.3210  154.1580 N   0  0  0  0  0  2  0  0  0  0  0  0
  159.6210  211.5090  153.2500 C   0  0  2  0  0  0  0  0  0  0  0  0
  158.1490  211.7470  153.7210 C   0  0  1  0  0  3  0  0  0  0  0  0
  156.5310  214.0240  154.9970 C   0  0  0  0  0  2  0  0  0  0  0  0
  158.2710  211.9740  155.2440 C   0  0  1  0  0  3  0  0  0  0  0  0
  159.8680  211.8610  151.7360 C   0  0  1  0  0  3  0  0  0  0  0  0
  159.7580  212.2250  155.4680 C   0  0  0  0  0  2  0  0  0  0  0  0
  160.6520  209.2500  152.2410 C   0  0  0  0  0  2  0  0  0  0  0  0
  157.4280  212.9450  153.0490 C   0  0  0  0  0  2  0  0  0  0  0  0
  156.1310  213.2850  153.7530 C   0  0  0  0  0  2  0  0  0  0  0  0
  157.3750  213.0850  155.9060 C   0  0  2  0  0  3  0  0  0  0  0  0
  161.6530  210.1850  151.6360 C   0  0  0  0  0  3  0  0  0  0  0  0
  158.1140  213.6310  147.2290 C   0  0  1  0  0  3  0  0  0  0  0  0
  157.3440  214.0710  148.4310 C   0  0  2  0  0  3  0  0  0  0  0  0
  159.9510  212.5710  148.7460 C   0  0  0  0  0  2  0  0  0  0  0  0
  159.6310  213.3510  151.3610 C   0  0  2  0  0  3  0  0  0  0  0  0
  159.4260  213.4600  149.8820 C   0  0  1  0  0  0  0  0  0  0  0  0
  160.5510  214.0270  150.5070 O   0  0  0  0  0  0  0  0  0  0  0  0
  158.2770  214.4520  149.5920 C   0  0  0  0  0  2  0  0  0  0  0  0
  159.6390  213.3460  147.4190 C   0  0  0  0  0  2  0  0  0  0  0  0
  157.3670  212.7130  148.0120 O   0  0  0  0  0  0  0  0  0  0  0  0
  159.7860  208.7060  155.7690 C   0  0  1  0  0  3  0  0  0  0  0  0
  160.8570  207.9910  154.9630 C   0  0  2  0  0  3  0  0  0  0  0  0
  160.6310  208.3320  156.9610 C   0  0  0  0  0  2  0  0  0  0  0  0
  161.6760  207.7030  156.1410 N   0  0  0  0  0  2  0  0  0  0  0  0
  160.6570  209.5170  154.8120 C   0  0  1  0  0  3  0  0  0  0  0  0
  156.6490  212.6590  157.0720 O   0  0  0  0  0  0  0  0  0  0  0  0
  156.0750  211.4550  156.7230 N   0  0  0  0  0  1  0  0  0  0  0  0
  1 10  1  6  0  0  0
  2 14  2  0  0  0  0
  3  9  1  0  0  0  0
  4  1  1  0  0  0  0
  4  5  1  0  0  0  0
  4  3  1  1  0  0  0
  5 11  1  6  0  0  0
  5  7  1  0  0  0  0
  6 13  1  0  0  0  0
  7  9  1  6  0  0  0
  7 13  1  0  0  0  0
  8  2  1  1  0  0  0
  8  4  1  0  0  0  0
 11 12  1  0  0  0  0
 12  6  1  0  0  0  0
 13 29  1  1  0  0  0
 14 10  1  0  0  0  0
 15 22  1  1  0  0  0
 15 23  1  0  0  0  0
 15 16  1  0  0  0  0
 16 21  1  1  0  0  0
 18 20  1  6  0  0  0
 18  8  1  0  0  0  0
 19 17  1  6  0  0  0
 19 20  1  0  0  0  0
 19 18  1  0  0  0  0
 21 19  1  0  0  0  0
 22 17  1  0  0  0  0
 23 16  1  0  0  0  0
 24 26  1  1  0  0  0
 25 24  1  0  0  0  0
 25 27  1  1  0  0  0
 27 26  1  0  0  0  0
 28  1  1  6  0  0  0
 28 25  1  0  0  0  0
 28 24  1  0  0  0  0
 30 29  1  0  0  0  0
M  END
>  <MODEL>
3

>  <REMARK>
 VINA RESULT:      -3.9      3.701      5.275
  Name = 
  3 active torsions:
  status: ('A' for Active; 'I' for Inactive)
    1  A    between atoms: C_2  and  C_16
    2  A    between atoms: O_14  and  C_25
    3  A    between atoms: C_17  and  C_18
                            x       y       z     vdW  Elec       q    Type
                         _______ _______ _______ _____ _____    ______ ____

>  <TORSDO>
F 3

$$$$
