=
 OpenBabel11072411363D

 25 27  0  0  1  0  0  0  0  0999 V2000
  161.8120  207.0140  149.7050 C   0  0  2  0  0  3  0  0  0  0  0  0
  162.1060  209.1760  151.5340 C   0  0  0  0  0  0  0  0  0  0  0  0
  161.8110  207.8570  152.0020 N   0  0  0  0  0  2  0  0  0  0  0  0
  161.1910  206.8900  151.0970 C   0  0  0  0  0  2  0  0  0  0  0  0
  162.0020  209.4650  150.0910 C   0  0  0  0  0  0  0  0  0  0  0  0
  162.4350  210.1010  152.3740 N   0  0  0  0  0  2  0  0  0  0  0  0
  161.8100  208.4480  149.2380 C   0  0  0  0  0  3  0  0  0  0  0  0
  161.9740  211.1230  148.3990 N   0  0  0  0  0  0  0  0  0  0  0  0
  162.0780  210.8200  149.6290 N   0  0  0  0  0  0  0  0  0  0  0  0
  159.0010  213.6790  149.4670 O   0  0  0  0  0  0  0  0  0  0  0  0
  161.4980  212.6760  146.5550 C   0  0  0  0  0  2  0  0  0  0  0  0
  159.8380  213.4850  148.6030 C   0  0  0  0  0  0  0  0  0  0  0  0
  161.2910  213.4090  148.9590 C   0  0  0  0  0  2  0  0  0  0  0  0
  162.0530  212.5130  147.9770 C   0  0  1  0  0  3  0  0  0  0  0  0
  160.1320  212.3500  146.5310 O   0  0  0  0  0  0  0  0  0  0  0  0
  159.4430  213.4050  147.1570 C   0  0  0  0  0  2  0  0  0  0  0  0
  161.0880  206.1720  148.7650 N   0  0  0  0  0  2  0  0  0  0  0  0
  160.9770  201.9350  148.9470 C   0  0  0  0  0  3  0  0  0  0  0  0
  161.3290  203.9740  147.6780 C   0  0  0  0  0  0  0  0  0  0  0  0
  161.2920  202.5750  147.7460 C   0  0  0  0  0  3  0  0  0  0  0  0
  160.7000  202.6900  150.0870 C   0  0  0  0  0  3  0  0  0  0  0  0
  160.7460  204.0850  150.0300 C   0  0  0  0  0  3  0  0  0  0  0  0
  161.0710  204.7390  148.8330 C   0  0  0  0  0  0  0  0  0  0  0  0
  163.1340  204.7830  146.1880 C   0  0  0  0  0  1  0  0  0  0  0  0
  161.6340  204.6290  146.3690 C   0  0  0  0  0  2  0  0  0  0  0  0
  1 17  1  6  0  0  0
  1  4  1  0  0  0  0
  2  3  1  0  0  0  0
  2  6  2  0  0  0  0
  4  3  1  0  0  0  0
  5  2  1  0  0  0  0
  7  1  1  0  0  0  0
  7  5  2  0  0  0  0
  8  9  2  0  0  0  0
  9  5  1  0  0  0  0
 11 14  1  0  0  0  0
 12 13  1  0  0  0  0
 12 10  2  0  0  0  0
 14  8  1  1  0  0  0
 14 13  1  0  0  0  0
 15 11  1  0  0  0  0
 15 16  1  0  0  0  0
 16 12  1  0  0  0  0
 17 23  1  0  0  0  0
 18 21  1  0  0  0  0
 19 20  1  0  0  0  0
 19 23  2  0  0  0  0
 20 18  2  0  0  0  0
 22 21  2  0  0  0  0
 23 22  1  0  0  0  0
 24 25  1  0  0  0  0
 25 19  1  0  0  0  0
M  END
>  <MODEL>
1

>  <REMARK>
 VINA RESULT:      -8.4      0.000      0.000
  Name = 
  5 active torsions:
  status: ('A' for Active; 'I' for Inactive)
    1  A    between atoms: N_2  and  C_6
    2  A    between atoms: N_2  and  C_25
    3  A    between atoms: C_5  and  C_10
    4  A    between atoms: N_8  and  C_19
    5  A    between atoms: N_16  and  C_18
                            x       y       z     vdW  Elec       q    Type
                         _______ _______ _______ _____ _____    ______ ____

>  <TORSDO>
F 5

$$$$
=
 OpenBabel11072411363D

 25 27  0  0  1  0  0  0  0  0999 V2000
  161.5850  207.1790  149.6420 C   0  0  2  0  0  3  0  0  0  0  0  0
  162.1840  209.2190  151.5350 C   0  0  0  0  0  0  0  0  0  0  0  0
  161.8840  207.8870  151.9640 N   0  0  0  0  0  2  0  0  0  0  0  0
  161.1220  206.9990  151.0870 C   0  0  0  0  0  2  0  0  0  0  0  0
  161.9300  209.5940  150.1300 C   0  0  0  0  0  0  0  0  0  0  0  0
  162.6490  210.0800  152.3780 N   0  0  0  0  0  2  0  0  0  0  0  0
  161.5960  208.6360  149.2530 C   0  0  0  0  0  3  0  0  0  0  0  0
  162.2220  211.3160  148.5290 N   0  0  0  0  0  0  0  0  0  0  0  0
  162.0140  210.9690  149.7350 N   0  0  0  0  0  0  0  0  0  0  0  0
  158.8590  213.5840  148.7530 O   0  0  0  0  0  0  0  0  0  0  0  0
  162.1540  212.9030  146.6550 C   0  0  0  0  0  2  0  0  0  0  0  0
  159.9190  213.4930  148.1600 C   0  0  0  0  0  0  0  0  0  0  0  0
  161.2130  213.5150  148.9140 C   0  0  0  0  0  2  0  0  0  0  0  0
  162.2960  212.7240  148.1730 C   0  0  1  0  0  3  0  0  0  0  0  0
  160.8840  212.4730  146.2370 O   0  0  0  0  0  0  0  0  0  0  0  0
  159.9570  213.4440  146.6600 C   0  0  0  0  0  2  0  0  0  0  0  0
  160.7210  206.4210  148.7490 N   0  0  0  0  0  2  0  0  0  0  0  0
  162.2180  204.1090  145.5230 C   0  0  0  0  0  3  0  0  0  0  0  0
  161.3560  204.2430  147.7870 C   0  0  0  0  0  0  0  0  0  0  0  0
  161.8490  203.4860  146.7160 C   0  0  0  0  0  3  0  0  0  0  0  0
  162.0930  205.4920  145.3900 C   0  0  0  0  0  3  0  0  0  0  0  0
  161.5910  206.2530  146.4490 C   0  0  0  0  0  3  0  0  0  0  0  0
  161.2070  205.6380  147.6500 C   0  0  0  0  0  0  0  0  0  0  0  0
  160.7240  202.0790  148.8120 C   0  0  0  0  0  1  0  0  0  0  0  0
  161.0050  203.5500  149.0650 C   0  0  0  0  0  2  0  0  0  0  0  0
  1 17  1  6  0  0  0
  1  4  1  0  0  0  0
  2  3  1  0  0  0  0
  2  6  2  0  0  0  0
  4  3  1  0  0  0  0
  5  2  1  0  0  0  0
  7  1  1  0  0  0  0
  7  5  2  0  0  0  0
  8  9  2  0  0  0  0
  9  5  1  0  0  0  0
 11 14  1  0  0  0  0
 12 10  2  0  0  0  0
 12 13  1  0  0  0  0
 14  8  1  6  0  0  0
 14 13  1  0  0  0  0
 15 11  1  0  0  0  0
 15 16  1  0  0  0  0
 16 12  1  0  0  0  0
 18 20  1  0  0  0  0
 19 25  1  0  0  0  0
 20 19  2  0  0  0  0
 21 18  2  0  0  0  0
 21 22  1  0  0  0  0
 22 23  2  0  0  0  0
 23 19  1  0  0  0  0
 23 17  1  0  0  0  0
 24 25  1  0  0  0  0
M  END
>  <MODEL>
2

>  <REMARK>
 VINA RESULT:      -8.4      0.754      2.046
  Name = 
  5 active torsions:
  status: ('A' for Active; 'I' for Inactive)
    1  A    between atoms: N_2  and  C_6
    2  A    between atoms: N_2  and  C_25
    3  A    between atoms: C_5  and  C_10
    4  A    between atoms: N_8  and  C_19
    5  A    between atoms: N_16  and  C_18
                            x       y       z     vdW  Elec       q    Type
                         _______ _______ _______ _____ _____    ______ ____

>  <TORSDO>
F 5

$$$$
=
 OpenBabel11072411363D

 25 27  0  0  1  0  0  0  0  0999 V2000
  161.1740  205.7720  150.7620 C   0  0  2  0  0  3  0  0  0  0  0  0
  161.3910  206.5950  153.4790 C   0  0  0  0  0  0  0  0  0  0  0  0
  161.1890  205.2180  153.1450 N   0  0  0  0  0  2  0  0  0  0  0  0
  160.6030  204.8650  151.8530 C   0  0  0  0  0  2  0  0  0  0  0  0
  161.2270  207.6180  152.4290 C   0  0  0  0  0  0  0  0  0  0  0  0
  161.6880  206.9280  154.6910 N   0  0  0  0  0  2  0  0  0  0  0  0
  161.0720  207.2240  151.1570 C   0  0  0  0  0  3  0  0  0  0  0  0
  160.3500  209.8160  152.3120 N   0  0  0  0  0  0  0  0  0  0  0  0
  161.2080  209.0060  152.7860 N   0  0  0  0  0  0  0  0  0  0  0  0
  159.7550  210.7700  156.2160 O   0  0  0  0  0  0  0  0  0  0  0  0
  158.9890  211.8540  152.4800 C   0  0  0  0  0  2  0  0  0  0  0  0
  159.6100  211.2050  155.0880 C   0  0  0  0  0  0  0  0  0  0  0  0
  160.7880  211.3480  154.1730 C   0  0  0  0  0  2  0  0  0  0  0  0
  160.3660  211.2160  152.7060 C   0  0  1  0  0  3  0  0  0  0  0  0
  158.0320  211.2400  153.3050 O   0  0  0  0  0  0  0  0  0  0  0  0
  158.2680  211.6870  154.6180 C   0  0  0  0  0  2  0  0  0  0  0  0
  160.4750  205.5360  149.5080 N   0  0  0  0  0  2  0  0  0  0  0  0
  162.4910  204.5240  145.9150 C   0  0  0  0  0  3  0  0  0  0  0  0
  161.3060  203.8440  147.9210 C   0  0  0  0  0  0  0  0  0  0  0  0
  161.9720  203.5180  146.7320 C   0  0  0  0  0  3  0  0  0  0  0  0
  162.3450  205.8630  146.2800 C   0  0  0  0  0  3  0  0  0  0  0  0
  161.6730  206.1970  147.4580 C   0  0  0  0  0  3  0  0  0  0  0  0
  161.1380  205.1960  148.2820 C   0  0  0  0  0  0  0  0  0  0  0  0
  161.1680  201.3890  148.2120 C   0  0  0  0  0  1  0  0  0  0  0  0
  160.7940  202.7420  148.7920 C   0  0  0  0  0  2  0  0  0  0  0  0
  1 17  1  6  0  0  0
  1  7  1  0  0  0  0
  1  4  1  0  0  0  0
  2  6  2  0  0  0  0
  3  2  1  0  0  0  0
  4  3  1  0  0  0  0
  5  9  1  0  0  0  0
  5  2  1  0  0  0  0
  7  5  2  0  0  0  0
  8  9  2  0  0  0  0
 11 14  1  0  0  0  0
 11 15  1  0  0  0  0
 12 10  2  0  0  0  0
 13 12  1  0  0  0  0
 14  8  1  1  0  0  0
 14 13  1  0  0  0  0
 15 16  1  0  0  0  0
 16 12  1  0  0  0  0
 18 21  2  0  0  0  0
 18 20  1  0  0  0  0
 19 23  1  0  0  0  0
 19 25  1  0  0  0  0
 20 19  2  0  0  0  0
 21 22  1  0  0  0  0
 22 23  2  0  0  0  0
 23 17  1  0  0  0  0
 24 25  1  0  0  0  0
M  END
>  <MODEL>
3

>  <REMARK>
 VINA RESULT:      -8.1      3.326      4.463
  Name = 
  5 active torsions:
  status: ('A' for Active; 'I' for Inactive)
    1  A    between atoms: N_2  and  C_6
    2  A    between atoms: N_2  and  C_25
    3  A    between atoms: C_5  and  C_10
    4  A    between atoms: N_8  and  C_19
    5  A    between atoms: N_16  and  C_18
                            x       y       z     vdW  Elec       q    Type
                         _______ _______ _______ _____ _____    ______ ____

>  <TORSDO>
F 5

$$$$
=
 OpenBabel11072411363D

 25 27  0  0  1  0  0  0  0  0999 V2000
  161.2470  206.5720  149.9770 C   0  0  2  0  0  3  0  0  0  0  0  0
  161.5510  209.0270  151.3860 C   0  0  0  0  0  0  0  0  0  0  0  0
  162.1620  208.8370  150.1060 N   0  0  0  0  0  2  0  0  0  0  0  0
  162.4230  207.4820  149.6230 C   0  0  0  0  0  2  0  0  0  0  0  0
  160.9820  207.8600  152.0880 C   0  0  0  0  0  0  0  0  0  0  0  0
  161.5250  210.2020  151.9220 N   0  0  0  0  0  2  0  0  0  0  0  0
  160.8890  206.6920  151.4370 C   0  0  0  0  0  3  0  0  0  0  0  0
  161.3480  207.7410  154.4260 N   0  0  0  0  0  0  0  0  0  0  0  0
  160.5660  207.9860  153.4540 N   0  0  0  0  0  0  0  0  0  0  0  0
  159.4480  211.1650  155.5100 O   0  0  0  0  0  0  0  0  0  0  0  0
  162.0200  208.3910  156.6990 C   0  0  0  0  0  2  0  0  0  0  0  0
  160.1380  210.2650  155.9570 C   0  0  0  0  0  0  0  0  0  0  0  0
  159.6870  208.8400  155.8520 C   0  0  0  0  0  2  0  0  0  0  0  0
  160.8840  207.8860  155.7970 C   0  0  1  0  0  3  0  0  0  0  0  0
  162.4190  209.6760  156.2960 O   0  0  0  0  0  0  0  0  0  0  0  0
  161.4080  210.5690  156.6960 C   0  0  0  0  0  2  0  0  0  0  0  0
  161.5720  205.1930  149.6450 N   0  0  0  0  0  2  0  0  0  0  0  0
  161.4880  203.6090  145.7100 C   0  0  0  0  0  3  0  0  0  0  0  0
  161.1660  203.3180  148.0980 C   0  0  0  0  0  0  0  0  0  0  0  0
  161.1390  202.8030  146.7950 C   0  0  0  0  0  3  0  0  0  0  0  0
  161.8630  204.9370  145.9200 C   0  0  0  0  0  3  0  0  0  0  0  0
  161.8810  205.4610  147.2140 C   0  0  0  0  0  3  0  0  0  0  0  0
  161.5230  204.6650  148.3120 C   0  0  0  0  0  0  0  0  0  0  0  0
  161.1610  200.9760  148.9040 C   0  0  0  0  0  1  0  0  0  0  0  0
  160.8230  202.4180  149.2420 C   0  0  0  0  0  2  0  0  0  0  0  0
  1 17  1  1  0  0  0
  1  7  1  0  0  0  0
  2  6  2  0  0  0  0
  2  5  1  0  0  0  0
  3  2  1  0  0  0  0
  4  1  1  0  0  0  0
  4  3  1  0  0  0  0
  5  9  1  0  0  0  0
  7  5  2  0  0  0  0
  9  8  2  0  0  0  0
 10 12  2  0  0  0  0
 12 16  1  0  0  0  0
 13 12  1  0  0  0  0
 14  8  1  6  0  0  0
 14 13  1  0  0  0  0
 14 11  1  0  0  0  0
 15 16  1  0  0  0  0
 15 11  1  0  0  0  0
 18 21  2  0  0  0  0
 18 20  1  0  0  0  0
 19 23  1  0  0  0  0
 19 25  1  0  0  0  0
 20 19  2  0  0  0  0
 21 22  1  0  0  0  0
 22 23  2  0  0  0  0
 23 17  1  0  0  0  0
 24 25  1  0  0  0  0
M  END
>  <MODEL>
4

>  <REMARK>
 VINA RESULT:      -8.0      3.553      5.610
  Name = 
  5 active torsions:
  status: ('A' for Active; 'I' for Inactive)
    1  A    between atoms: N_2  and  C_6
    2  A    between atoms: N_2  and  C_25
    3  A    between atoms: C_5  and  C_10
    4  A    between atoms: N_8  and  C_19
    5  A    between atoms: N_16  and  C_18
                            x       y       z     vdW  Elec       q    Type
                         _______ _______ _______ _____ _____    ______ ____

>  <TORSDO>
F 5

$$$$
=
 OpenBabel11072411363D

 25 27  0  0  1  0  0  0  0  0999 V2000
  161.4040  205.7720  151.0890 C   0  0  2  0  0  3  0  0  0  0  0  0
  161.3840  206.8550  153.7220 C   0  0  0  0  0  0  0  0  0  0  0  0
  161.2190  205.4500  153.5070 N   0  0  0  0  0  2  0  0  0  0  0  0
  160.7460  204.9670  152.2100 C   0  0  0  0  0  2  0  0  0  0  0  0
  161.3060  207.7700  152.5670 C   0  0  0  0  0  0  0  0  0  0  0  0
  161.5750  207.3080  154.9160 N   0  0  0  0  0  2  0  0  0  0  0  0
  161.2630  207.2540  151.3300 C   0  0  0  0  0  3  0  0  0  0  0  0
  160.1980  209.8640  152.5640 N   0  0  0  0  0  0  0  0  0  0  0  0
  161.2500  209.1860  152.7840 N   0  0  0  0  0  0  0  0  0  0  0  0
  159.2750  211.2350  156.2760 O   0  0  0  0  0  0  0  0  0  0  0  0
  158.8350  211.9010  152.3930 C   0  0  0  0  0  2  0  0  0  0  0  0
  159.2290  211.5430  155.0990 C   0  0  0  0  0  0  0  0  0  0  0  0
  160.4810  211.5920  154.2780 C   0  0  0  0  0  2  0  0  0  0  0  0
  160.1860  211.2990  152.8040 C   0  0  1  0  0  3  0  0  0  0  0  0
  157.8090  211.3750  153.1950 O   0  0  0  0  0  0  0  0  0  0  0  0
  157.9340  211.9640  154.4670 C   0  0  0  0  0  2  0  0  0  0  0  0
  160.8160  205.4070  149.8080 N   0  0  0  0  0  2  0  0  0  0  0  0
  160.9030  201.4960  148.1670 C   0  0  0  0  0  3  0  0  0  0  0  0
  161.2650  203.8840  147.9240 C   0  0  0  0  0  0  0  0  0  0  0  0
  161.2920  202.5880  147.3900 C   0  0  0  0  0  3  0  0  0  0  0  0
  160.4870  201.6900  149.4850 C   0  0  0  0  0  3  0  0  0  0  0  0
  160.4670  202.9770  150.0290 C   0  0  0  0  0  3  0  0  0  0  0  0
  160.8660  204.0810  149.2620 C   0  0  0  0  0  0  0  0  0  0  0  0
  162.9850  204.7650  146.3760 C   0  0  0  0  0  1  0  0  0  0  0  0
  161.6530  205.0360  147.0550 C   0  0  0  0  0  2  0  0  0  0  0  0
  1 17  1  6  0  0  0
  1  7  1  0  0  0  0
  1  4  1  0  0  0  0
  2  6  2  0  0  0  0
  3  2  1  0  0  0  0
  4  3  1  0  0  0  0
  5  9  1  0  0  0  0
  5  2  1  0  0  0  0
  7  5  2  0  0  0  0
  8  9  2  0  0  0  0
 11 14  1  0  0  0  0
 11 15  1  0  0  0  0
 12 10  2  0  0  0  0
 13 12  1  0  0  0  0
 14  8  1  1  0  0  0
 14 13  1  0  0  0  0
 15 16  1  0  0  0  0
 16 12  1  0  0  0  0
 18 21  1  0  0  0  0
 19 23  2  0  0  0  0
 20 19  1  0  0  0  0
 20 18  2  0  0  0  0
 21 22  2  0  0  0  0
 23 17  1  0  0  0  0
 23 22  1  0  0  0  0
 24 25  1  0  0  0  0
 25 19  1  0  0  0  0
M  END
>  <MODEL>
5

>  <REMARK>
 VINA RESULT:      -7.9      3.312      4.051
  Name = 
  5 active torsions:
  status: ('A' for Active; 'I' for Inactive)
    1  A    between atoms: N_2  and  C_6
    2  A    between atoms: N_2  and  C_25
    3  A    between atoms: C_5  and  C_10
    4  A    between atoms: N_8  and  C_19
    5  A    between atoms: N_16  and  C_18
                            x       y       z     vdW  Elec       q    Type
                         _______ _______ _______ _____ _____    ______ ____

>  <TORSDO>
F 5

$$$$
=
 OpenBabel11072411363D

 25 27  0  0  1  0  0  0  0  0999 V2000
  161.2420  206.1760  151.0660 C   0  0  2  0  0  3  0  0  0  0  0  0
  160.8470  208.7600  152.1940 C   0  0  0  0  0  0  0  0  0  0  0  0
  161.2080  208.6100  150.8170 N   0  0  0  0  0  2  0  0  0  0  0  0
  161.8720  207.3850  150.3730 C   0  0  0  0  0  2  0  0  0  0  0  0
  160.9320  207.5910  153.0890 C   0  0  0  0  0  0  0  0  0  0  0  0
  160.4750  209.9130  152.6410 N   0  0  0  0  0  2  0  0  0  0  0  0
  161.1710  206.3830  152.5580 C   0  0  0  0  0  3  0  0  0  0  0  0
  161.6340  208.4140  155.1960 N   0  0  0  0  0  0  0  0  0  0  0  0
  160.7880  207.7660  154.5040 N   0  0  0  0  0  0  0  0  0  0  0  0
  159.0030  211.2020  156.5420 O   0  0  0  0  0  0  0  0  0  0  0  0
  162.5180  209.4980  157.2170 C   0  0  0  0  0  2  0  0  0  0  0  0
  160.0220  210.6130  156.8540 C   0  0  0  0  0  0  0  0  0  0  0  0
  160.0430  209.1170  156.9220 C   0  0  0  0  0  2  0  0  0  0  0  0
  161.4440  208.5710  156.6300 C   0  0  1  0  0  3  0  0  0  0  0  0
  162.3900  210.7870  156.6750 O   0  0  0  0  0  0  0  0  0  0  0  0
  161.2520  211.3720  157.2610 C   0  0  0  0  0  2  0  0  0  0  0  0
  162.0040  204.9760  150.7540 N   0  0  0  0  0  2  0  0  0  0  0  0
  160.2270  201.5010  149.0920 C   0  0  0  0  0  3  0  0  0  0  0  0
  161.1840  203.7130  148.8040 C   0  0  0  0  0  0  0  0  0  0  0  0
  160.5980  202.5610  148.2620 C   0  0  0  0  0  3  0  0  0  0  0  0
  160.4430  201.5840  150.4680 C   0  0  0  0  0  3  0  0  0  0  0  0
  161.0370  202.7240  151.0140 C   0  0  0  0  0  3  0  0  0  0  0  0
  161.4230  203.7910  150.1910 C   0  0  0  0  0  0  0  0  0  0  0  0
  162.1560  204.3220  146.6090 C   0  0  0  0  0  1  0  0  0  0  0  0
  161.5350  204.8460  147.8930 C   0  0  0  0  0  2  0  0  0  0  0  0
  1 17  1  1  0  0  0
  1  7  1  0  0  0  0
  2  6  2  0  0  0  0
  2  5  1  0  0  0  0
  3  2  1  0  0  0  0
  4  3  1  0  0  0  0
  4  1  1  0  0  0  0
  5  9  1  0  0  0  0
  7  5  2  0  0  0  0
  9  8  2  0  0  0  0
 10 12  2  0  0  0  0
 12 13  1  0  0  0  0
 12 16  1  0  0  0  0
 14  8  1  6  0  0  0
 14 13  1  0  0  0  0
 14 11  1  0  0  0  0
 15 11  1  0  0  0  0
 15 16  1  0  0  0  0
 18 21  1  0  0  0  0
 19 23  2  0  0  0  0
 20 19  1  0  0  0  0
 20 18  2  0  0  0  0
 21 22  2  0  0  0  0
 23 17  1  0  0  0  0
 23 22  1  0  0  0  0
 24 25  1  0  0  0  0
 25 19  1  0  0  0  0
M  END
>  <MODEL>
6

>  <REMARK>
 VINA RESULT:      -7.8      4.002      5.664
  Name = 
  5 active torsions:
  status: ('A' for Active; 'I' for Inactive)
    1  A    between atoms: N_2  and  C_6
    2  A    between atoms: N_2  and  C_25
    3  A    between atoms: C_5  and  C_10
    4  A    between atoms: N_8  and  C_19
    5  A    between atoms: N_16  and  C_18
                            x       y       z     vdW  Elec       q    Type
                         _______ _______ _______ _____ _____    ______ ____

>  <TORSDO>
F 5

$$$$
=
 OpenBabel11072411363D

 25 27  0  0  1  0  0  0  0  0999 V2000
  161.0940  206.9180  149.5710 C   0  0  2  0  0  3  0  0  0  0  0  0
  162.0090  209.6080  149.7570 C   0  0  0  0  0  0  0  0  0  0  0  0
  162.0770  208.8960  148.5180 N   0  0  0  0  0  2  0  0  0  0  0  0
  162.0810  207.4330  148.5230 C   0  0  0  0  0  2  0  0  0  0  0  0
  161.7040  208.8640  150.9950 C   0  0  0  0  0  0  0  0  0  0  0  0
  162.2340  210.8790  149.7850 N   0  0  0  0  0  2  0  0  0  0  0  0
  161.3240  207.5810  150.9050 C   0  0  0  0  0  3  0  0  0  0  0  0
  160.9560  210.2920  152.7310 N   0  0  0  0  0  0  0  0  0  0  0  0
  161.8450  209.5110  152.2660 N   0  0  0  0  0  0  0  0  0  0  0  0
  159.7900  208.3010  156.0750 O   0  0  0  0  0  0  0  0  0  0  0  0
  159.9660  211.8620  154.3420 C   0  0  0  0  0  2  0  0  0  0  0  0
  159.9450  209.4250  155.6310 C   0  0  0  0  0  0  0  0  0  0  0  0
  161.2850  209.8590  155.1200 C   0  0  0  0  0  2  0  0  0  0  0  0
  161.1400  210.9240  154.0290 C   0  0  1  0  0  3  0  0  0  0  0  0
  158.7750  211.1250  154.4450 O   0  0  0  0  0  0  0  0  0  0  0  0
  158.8260  210.4240  155.6640 C   0  0  0  0  0  2  0  0  0  0  0  0
  161.2140  205.4730  149.6940 N   0  0  0  0  0  2  0  0  0  0  0  0
  161.2900  202.8160  146.3880 C   0  0  0  0  0  3  0  0  0  0  0  0
  161.0100  203.1980  148.7680 C   0  0  0  0  0  0  0  0  0  0  0  0
  161.0350  202.3270  147.6710 C   0  0  0  0  0  3  0  0  0  0  0  0
  161.5180  204.1780  146.1930 C   0  0  0  0  0  3  0  0  0  0  0  0
  161.4830  205.0550  147.2800 C   0  0  0  0  0  3  0  0  0  0  0  0
  161.2180  204.5790  148.5720 C   0  0  0  0  0  0  0  0  0  0  0  0
  160.8040  201.1200  150.0990 C   0  0  0  0  0  1  0  0  0  0  0  0
  160.7720  202.6390  150.1340 C   0  0  0  0  0  2  0  0  0  0  0  0
  1 17  1  1  0  0  0
  1  7  1  0  0  0  0
  2  6  2  0  0  0  0
  2  5  1  0  0  0  0
  3  4  1  0  0  0  0
  3  2  1  0  0  0  0
  4  1  1  0  0  0  0
  5  9  1  0  0  0  0
  7  5  2  0  0  0  0
  9  8  2  0  0  0  0
 11 15  1  0  0  0  0
 12 16  1  0  0  0  0
 12 10  2  0  0  0  0
 13 12  1  0  0  0  0
 14  8  1  6  0  0  0
 14 11  1  0  0  0  0
 14 13  1  0  0  0  0
 15 16  1  0  0  0  0
 18 20  1  0  0  0  0
 19 25  1  0  0  0  0
 20 19  2  0  0  0  0
 21 18  2  0  0  0  0
 21 22  1  0  0  0  0
 22 23  2  0  0  0  0
 23 19  1  0  0  0  0
 23 17  1  0  0  0  0
 24 25  1  0  0  0  0
M  END
>  <MODEL>
7

>  <REMARK>
 VINA RESULT:      -7.7      2.960      4.893
  Name = 
  5 active torsions:
  status: ('A' for Active; 'I' for Inactive)
    1  A    between atoms: N_2  and  C_6
    2  A    between atoms: N_2  and  C_25
    3  A    between atoms: C_5  and  C_10
    4  A    between atoms: N_8  and  C_19
    5  A    between atoms: N_16  and  C_18
                            x       y       z     vdW  Elec       q    Type
                         _______ _______ _______ _____ _____    ______ ____

>  <TORSDO>
F 5

$$$$
=
 OpenBabel11072411363D

 25 27  0  0  1  0  0  0  0  0999 V2000
  160.8310  206.9270  149.1620 C   0  0  2  0  0  3  0  0  0  0  0  0
  161.9480  209.3730  150.0990 C   0  0  0  0  0  0  0  0  0  0  0  0
  161.9420  209.0580  148.7030 N   0  0  0  0  0  2  0  0  0  0  0  0
  161.8370  207.6640  148.2760 C   0  0  0  0  0  2  0  0  0  0  0  0
  161.6100  208.3170  151.0730 C   0  0  0  0  0  0  0  0  0  0  0  0
  162.2690  210.5600  150.4920 N   0  0  0  0  0  2  0  0  0  0  0  0
  161.1340  207.1470  150.6230 C   0  0  0  0  0  3  0  0  0  0  0  0
  160.8730  208.8660  153.2570 N   0  0  0  0  0  0  0  0  0  0  0  0
  161.8200  208.5460  152.4720 N   0  0  0  0  0  0  0  0  0  0  0  0
  157.9930  210.5900  155.5460 O   0  0  0  0  0  0  0  0  0  0  0  0
  161.8970  210.3990  154.8810 C   0  0  0  0  0  2  0  0  0  0  0  0
  159.2010  210.4590  155.4590 C   0  0  0  0  0  0  0  0  0  0  0  0
  159.8180  209.0930  155.4560 C   0  0  0  0  0  2  0  0  0  0  0  0
  161.1330  209.0840  154.6710 C   0  0  1  0  0  3  0  0  0  0  0  0
  161.1080  211.4850  154.4690 O   0  0  0  0  0  0  0  0  0  0  0  0
  160.1030  211.6590  155.4390 C   0  0  0  0  0  2  0  0  0  0  0  0
  160.8450  205.5060  148.8470 N   0  0  0  0  0  2  0  0  0  0  0  0
  161.0430  202.4450  151.7770 C   0  0  0  0  0  3  0  0  0  0  0  0
  161.0940  203.1300  149.4490 C   0  0  0  0  0  0  0  0  0  0  0  0
  161.1600  202.1250  150.4230 C   0  0  0  0  0  3  0  0  0  0  0  0
  160.8620  203.7720  152.1670 C   0  0  0  0  0  3  0  0  0  0  0  0
  160.8070  204.7820  151.2030 C   0  0  0  0  0  3  0  0  0  0  0  0
  160.9330  204.4750  149.8400 C   0  0  0  0  0  0  0  0  0  0  0  0
  160.9220  201.2640  147.8300 C   0  0  0  0  0  1  0  0  0  0  0  0
  161.1860  202.7500  148.0060 C   0  0  0  0  0  2  0  0  0  0  0  0
  1 17  1  6  0  0  0
  1  7  1  0  0  0  0
  2  6  2  0  0  0  0
  2  5  1  0  0  0  0
  3  2  1  0  0  0  0
  4  3  1  0  0  0  0
  4  1  1  0  0  0  0
  5  9  1  0  0  0  0
  7  5  2  0  0  0  0
  9  8  2  0  0  0  0
 12 10  2  0  0  0  0
 13 12  1  0  0  0  0
 14  8  1  6  0  0  0
 14 11  1  0  0  0  0
 14 13  1  0  0  0  0
 15 11  1  0  0  0  0
 15 16  1  0  0  0  0
 16 12  1  0  0  0  0
 17 23  1  0  0  0  0
 18 21  1  0  0  0  0
 19 23  2  0  0  0  0
 19 20  1  0  0  0  0
 20 18  2  0  0  0  0
 22 21  2  0  0  0  0
 23 22  1  0  0  0  0
 24 25  1  0  0  0  0
 25 19  1  0  0  0  0
M  END
>  <MODEL>
8

>  <REMARK>
 VINA RESULT:      -7.7      3.139      4.771
  Name = 
  5 active torsions:
  status: ('A' for Active; 'I' for Inactive)
    1  A    between atoms: N_2  and  C_6
    2  A    between atoms: N_2  and  C_25
    3  A    between atoms: C_5  and  C_10
    4  A    between atoms: N_8  and  C_19
    5  A    between atoms: N_16  and  C_18
                            x       y       z     vdW  Elec       q    Type
                         _______ _______ _______ _____ _____    ______ ____

>  <TORSDO>
F 5

$$$$
=
 OpenBabel11072411363D

 25 27  0  0  1  0  0  0  0  0999 V2000
  161.0600  204.7930  151.5960 C   0  0  2  0  0  3  0  0  0  0  0  0
  160.6030  202.6220  149.8120 C   0  0  0  0  0  0  0  0  0  0  0  0
  160.4780  202.4450  151.2260 N   0  0  0  0  0  2  0  0  0  0  0  0
  161.1640  203.3650  152.1330 C   0  0  0  0  0  2  0  0  0  0  0  0
  161.2190  203.8590  149.2960 C   0  0  0  0  0  0  0  0  0  0  0  0
  160.2000  201.6950  149.0080 N   0  0  0  0  0  2  0  0  0  0  0  0
  161.4810  204.8590  150.1490 C   0  0  0  0  0  3  0  0  0  0  0  0
  162.5490  204.6340  147.4940 N   0  0  0  0  0  0  0  0  0  0  0  0
  161.5510  203.9610  147.9050 N   0  0  0  0  0  0  0  0  0  0  0  0
  159.9550  206.5510  145.0240 O   0  0  0  0  0  0  0  0  0  0  0  0
  162.3800  203.4320  145.3580 C   0  0  0  0  0  2  0  0  0  0  0  0
  160.7850  205.6600  145.0410 C   0  0  0  0  0  0  0  0  0  0  0  0
  162.1970  205.9450  145.4550 C   0  0  0  0  0  2  0  0  0  0  0  0
  162.8510  204.7060  146.0730 C   0  0  1  0  0  3  0  0  0  0  0  0
  160.9820  203.3210  145.4420 O   0  0  0  0  0  0  0  0  0  0  0  0
  160.4370  204.2780  144.5670 C   0  0  0  0  0  2  0  0  0  0  0  0
  161.8760  205.6860  152.4050 N   0  0  0  0  0  2  0  0  0  0  0  0
  160.3620  208.9550  154.6440 C   0  0  0  0  0  3  0  0  0  0  0  0
  161.3680  208.0870  152.6120 C   0  0  0  0  0  0  0  0  0  0  0  0
  160.8640  209.1620  153.3580 C   0  0  0  0  0  3  0  0  0  0  0  0
  160.3560  207.6720  155.1920 C   0  0  0  0  0  3  0  0  0  0  0  0
  160.8460  206.5940  154.4520 C   0  0  0  0  0  3  0  0  0  0  0  0
  161.3440  206.7860  153.1550 C   0  0  0  0  0  0  0  0  0  0  0  0
  162.0950  209.8410  151.0220 C   0  0  0  0  0  1  0  0  0  0  0  0
  161.9330  208.3480  151.2530 C   0  0  0  0  0  2  0  0  0  0  0  0
  1  4  1  0  0  0  0
  1 17  1  1  0  0  0
  2  3  1  0  0  0  0
  3  4  1  0  0  0  0
  5  2  1  0  0  0  0
  5  7  2  0  0  0  0
  6  2  2  0  0  0  0
  7  1  1  0  0  0  0
  8  9  2  0  0  0  0
  9  5  1  0  0  0  0
 10 12  2  0  0  0  0
 11 15  1  0  0  0  0
 11 14  1  0  0  0  0
 12 13  1  0  0  0  0
 13 14  1  0  0  0  0
 14  8  1  1  0  0  0
 16 12  1  0  0  0  0
 16 15  1  0  0  0  0
 17 23  1  0  0  0  0
 18 21  1  0  0  0  0
 19 23  2  0  0  0  0
 19 20  1  0  0  0  0
 20 18  2  0  0  0  0
 22 21  2  0  0  0  0
 23 22  1  0  0  0  0
 24 25  1  0  0  0  0
 25 19  1  0  0  0  0
M  END
>  <MODEL>
9

>  <REMARK>
 VINA RESULT:      -7.6      3.800      7.133
  Name = 
  5 active torsions:
  status: ('A' for Active; 'I' for Inactive)
    1  A    between atoms: N_2  and  C_6
    2  A    between atoms: N_2  and  C_25
    3  A    between atoms: C_5  and  C_10
    4  A    between atoms: N_8  and  C_19
    5  A    between atoms: N_16  and  C_18
                            x       y       z     vdW  Elec       q    Type
                         _______ _______ _______ _____ _____    ______ ____

>  <TORSDO>
F 5

$$$$
