=
 OpenBabel11072414083D

 57 61  0  0  1  0  0  0  0  0999 V2000
  159.1500  206.5720  154.5950 F   0  0  0  0  0  0  0  0  0  0  0  0
  160.5630  211.9270  148.3460 C   0  0  0  0  0  2  0  0  0  0  0  0
  161.6030  207.9730  148.8330 C   0  0  1  0  0  3  0  0  0  0  0  0
  161.7710  207.0720  150.0490 C   0  0  0  0  0  2  0  0  0  0  0  0
  160.3410  212.0950  150.9170 C   0  0  0  0  0  0  0  0  0  0  0  0
  163.5110  210.2850  155.9630 O   0  0  0  0  0  1  0  0  0  0  0  0
  160.6030  205.3510  152.0730 O   0  0  0  0  0  0  0  0  0  0  0  0
  162.0670  207.8840  156.1690 C   0  0  0  0  0  2  0  0  0  0  0  0
  162.4910  211.3800  149.8020 O   0  0  0  0  0  0  0  0  0  0  0  0
  161.2130  211.0400  155.5130 C   0  0  2  0  0  0  0  0  0  0  0  0
  160.6650  204.9110  154.7590 F   0  0  0  0  0  0  0  0  0  0  0  0
  162.4900  210.1900  155.0060 C   0  0  2  0  0  0  0  0  0  0  0  0
  161.2140  213.2320  148.7920 C   0  0  2  0  0  3  0  0  0  0  0  0
  159.0420  210.0900  153.3540 C   0  0  0  0  0  1  0  0  0  0  0  0
  160.6690  211.3820  152.0740 O   0  0  0  0  0  0  0  0  0  0  0  0
  160.8830  206.5210  152.2910 C   0  0  0  0  0  0  0  0  0  0  0  0
  160.4930  206.2850  154.7920 C   0  0  0  0  0  0  0  0  0  0  0  0
  159.2860  212.7880  150.8770 O   0  0  0  0  0  0  0  0  0  0  0  0
  158.8430  208.0530  156.9830 C   0  0  0  0  0  2  0  0  0  0  0  0
  162.5540  209.1600  148.8830 C   0  0  0  0  0  2  0  0  0  0  0  0
  159.8190  211.3840  153.2100 C   0  0  2  0  0  3  0  0  0  0  0  0
  162.2470  208.6470  154.8240 C   0  0  2  0  0  3  0  0  0  0  0  0
  160.9790  206.7880  156.1650 C   0  0  2  0  0  3  0  0  0  0  0  0
  162.4370  213.3830  148.1310 O   0  0  0  0  0  1  0  0  0  0  0  0
  159.9020  206.9720  157.2600 C   0  0  0  0  0  2  0  0  0  0  0  0
  161.2330  212.0100  149.7020 C   0  0  1  0  0  0  0  0  0  0  0  0
  160.8200  207.4970  151.1600 C   0  0  0  0  0  2  0  0  0  0  0  0
  160.1990  210.1480  156.0980 C   0  0  0  0  0  0  0  0  0  0  0  0
  161.3190  206.9420  153.6770 C   0  0  2  0  0  3  0  0  0  0  0  0
  162.2430  210.0310  150.0820 C   0  0  0  0  0  2  0  0  0  0  0  0
  161.2800  208.3390  153.8450 O   0  0  0  0  0  0  0  0  0  0  0  0
  159.4950  209.2780  156.5360 C   0  0  0  0  0  0  0  0  0  0  0  0
  160.5110  211.9430  154.4610 C   0  0  0  0  0  2  0  0  0  0  0  0
  162.6910  210.3720  152.6040 O   0  0  0  0  0  0  0  0  0  0  0  0
  164.1690  211.6300  153.8030 O   0  0  0  0  0  1  0  0  0  0  0  0
  163.0860  210.7610  153.7350 C   0  0  0  0  0  0  0  0  0  0  0  0
  162.8600  212.0950  156.9220 O   0  0  0  0  0  0  0  0  0  0  0  0
  161.6400  212.0170  156.6010 C   0  0  0  0  0  0  0  0  0  0  0  0
  160.6970  212.8220  157.2550 O   0  0  0  0  0  0  0  0  0  0  0  0
  160.1720  214.0030  156.6600 C   0  0  0  0  0  2  0  0  0  0  0  0
  158.9260  214.2940  157.2170 O   0  0  0  0  0  0  0  0  0  0  0  0
  158.2390  213.0770  157.2170 C   0  0  0  0  0  2  0  0  0  0  0  0
  157.3840  213.0240  156.1150 O   0  0  0  0  0  1  0  0  0  0  0  0
  161.8780  207.1840  147.5650 C   0  0  0  0  0  2  0  0  0  0  0  0
  160.8510  206.2610  147.3380 O   0  0  0  0  0  0  0  0  0  0  0  0
  161.2540  205.5350  146.2160 C   0  0  1  0  0  3  0  0  0  0  0  0
  161.5980  206.4080  145.1870 O   0  0  0  0  0  1  0  0  0  0  0  0
  162.2900  203.5190  147.4250 N   0  0  0  0  0  2  0  0  0  0  0  0
  162.4180  204.6530  146.5570 C   0  0  0  0  0  0  0  0  0  0  0  0
  163.5430  204.9100  146.0510 O   0  0  0  0  0  0  0  0  0  0  0  0
  161.5030  202.3410  150.4780 C   0  0  0  0  0  2  0  0  0  0  0  0
  159.7910  204.1230  150.0200 C   0  0  0  0  0  1  0  0  0  0  0  0
  160.5940  201.1100  150.3030 C   0  0  0  0  0  2  0  0  0  0  0  0
  159.9200  201.0370  148.9290 C   0  0  0  0  0  2  0  0  0  0  0  0
  161.1110  203.5170  149.5760 C   0  0  2  0  0  3  0  0  0  0  0  0
  161.0540  203.1270  148.0870 C   0  0  2  0  0  3  0  0  0  0  0  0
  160.8140  201.6330  147.8480 C   0  0  0  0  0  2  0  0  0  0  0  0
  1 17  1  0  0  0  0
  2 13  1  0  0  0  0
  3 44  1  6  0  0  0
  3 20  1  0  0  0  0
  3  4  1  0  0  0  0
  4 27  1  0  0  0  0
  5 15  1  0  0  0  0
  7 16  2  0  0  0  0
  9 30  1  0  0  0  0
 10 28  1  0  0  0  0
 10 38  1  1  0  0  0
 11 17  1  0  0  0  0
 12 10  1  0  0  0  0
 12  6  1  1  0  0  0
 13 24  1  6  0  0  0
 13 26  1  0  0  0  0
 15 21  1  0  0  0  0
 17 23  1  0  0  0  0
 18  5  2  0  0  0  0
 19 25  1  0  0  0  0
 20 30  1  0  0  0  0
 21 14  1  1  0  0  0
 21 33  1  0  0  0  0
 22 12  1  0  0  0  0
 22  8  1  1  0  0  0
 23  8  1  6  0  0  0
 23 25  1  0  0  0  0
 26  2  1  6  0  0  0
 26  9  1  0  0  0  0
 26  5  1  0  0  0  0
 27 16  1  0  0  0  0
 28 32  3  0  0  0  0
 29 16  1  6  0  0  0
 29 31  1  0  0  0  0
 29 17  1  0  0  0  0
 31 22  1  0  0  0  0
 32 19  1  0  0  0  0
 33 10  1  0  0  0  0
 34 36  2  0  0  0  0
 36 35  1  0  0  0  0
 36 12  1  0  0  0  0
 38 37  2  0  0  0  0
 38 39  1  0  0  0  0
 40 41  1  0  0  0  0
 40 39  1  0  0  0  0
 42 41  1  0  0  0  0
 43 42  1  0  0  0  0
 45 44  1  0  0  0  0
 46 47  1  6  0  0  0
 46 49  1  0  0  0  0
 46 45  1  0  0  0  0
 49 48  1  0  0  0  0
 50 49  2  0  0  0  0
 53 51  1  0  0  0  0
 54 53  1  0  0  0  0
 55 52  1  1  0  0  0
 55 51  1  0  0  0  0
 56 48  1  1  0  0  0
 56 55  1  0  0  0  0
 57 56  1  0  0  0  0
 57 54  1  0  0  0  0
M  END
>  <MODEL>
1

>  <REMARK>
 VINA RESULT:       1.6      0.000      0.000
  Name = 
  11 active torsions:
  status: ('A' for Active; 'I' for Inactive)
    1  A    between atoms: O_4  and  C_24
    2  A    between atoms: O_4  and  C_40
    3  A    between atoms: C_5  and  O_46
    4  A    between atoms: C_6  and  C_27
    5  A    between atoms: N_9  and  C_53
    6  A    between atoms: C_11  and  O_18
    7  A    between atoms: C_11  and  C_49
    8  A    between atoms: O_18  and  C_27
    9  A    between atoms: C_21  and  C_40
   10  A    between atoms: C_24  and  O_46
   11  A    between atoms: C_25  and  C_41
                            x       y       z     vdW  Elec       q    Type
                         _______ _______ _______ _____ _____    ______ ____

>  <TORSDO>
F 11

$$$$
=
 OpenBabel11072414083D

 57 61  0  0  1  0  0  0  0  0999 V2000
  159.1120  206.4680  154.1250 F   0  0  0  0  0  0  0  0  0  0  0  0
  160.5470  212.1160  148.1450 C   0  0  0  0  0  2  0  0  0  0  0  0
  161.6380  208.1590  148.4730 C   0  0  1  0  0  3  0  0  0  0  0  0
  161.7990  207.2070  149.6500 C   0  0  0  0  0  2  0  0  0  0  0  0
  160.2810  212.1660  150.7170 C   0  0  0  0  0  0  0  0  0  0  0  0
  163.3950  210.1760  155.7300 O   0  0  0  0  0  1  0  0  0  0  0  0
  160.6240  205.3800  151.5760 O   0  0  0  0  0  0  0  0  0  0  0  0
  161.9840  207.7480  155.8040 C   0  0  0  0  0  2  0  0  0  0  0  0
  162.4590  211.5320  149.6080 O   0  0  0  0  0  0  0  0  0  0  0  0
  161.0940  210.9180  155.2760 C   0  0  2  0  0  0  0  0  0  0  0  0
  160.6490  204.8220  154.2400 F   0  0  0  0  0  0  0  0  0  0  0  0
  162.3910  210.1090  154.7520 C   0  0  2  0  0  0  0  0  0  0  0  0
  161.1720  213.4080  148.6600 C   0  0  2  0  0  3  0  0  0  0  0  0
  158.9730  210.0360  153.0400 C   0  0  0  0  0  1  0  0  0  0  0  0
  160.6010  211.4060  151.8470 O   0  0  0  0  0  0  0  0  0  0  0  0
  160.8830  206.5440  151.8500 C   0  0  0  0  0  0  0  0  0  0  0  0
  160.4560  206.1910  154.3310 C   0  0  0  0  0  0  0  0  0  0  0  0
  159.2170  212.8450  150.6890 O   0  0  0  0  0  0  0  0  0  0  0  0
  158.7450  207.8350  156.5710 C   0  0  0  0  0  2  0  0  0  0  0  0
  162.5700  209.3560  148.5920 C   0  0  0  0  0  2  0  0  0  0  0  0
  159.7320  211.3460  152.9660 C   0  0  2  0  0  3  0  0  0  0  0  0
  162.1750  208.5730  154.4980 C   0  0  2  0  0  3  0  0  0  0  0  0
  160.9120  206.6390  155.7330 C   0  0  2  0  0  3  0  0  0  0  0  0
  162.4030  213.6060  148.0270 O   0  0  0  0  0  1  0  0  0  0  0  0
  159.8150  206.7580  156.8170 C   0  0  0  0  0  2  0  0  0  0  0  0
  161.1940  212.1470  149.5150 C   0  0  1  0  0  0  0  0  0  0  0  0
  160.8240  207.5680  150.7630 C   0  0  0  0  0  2  0  0  0  0  0  0
  160.0840  209.9870  155.8030 C   0  0  0  0  0  0  0  0  0  0  0  0
  161.2910  206.9090  153.2600 C   0  0  2  0  0  3  0  0  0  0  0  0
  162.2270  210.1680  149.8220 C   0  0  0  0  0  2  0  0  0  0  0  0
  161.2280  208.2950  153.4900 O   0  0  0  0  0  0  0  0  0  0  0  0
  159.3860  209.0880  156.1890 C   0  0  0  0  0  0  0  0  0  0  0  0
  160.3960  211.8570  154.2530 C   0  0  0  0  0  2  0  0  0  0  0  0
  162.3460  210.8260  152.4440 O   0  0  0  0  0  0  0  0  0  0  0  0
  164.3350  211.1320  153.5200 O   0  0  0  0  0  1  0  0  0  0  0  0
  162.9990  210.7450  153.5190 C   0  0  0  0  0  0  0  0  0  0  0  0
  160.8230  212.9070  156.6090 O   0  0  0  0  0  0  0  0  0  0  0  0
  161.4890  211.8520  156.4130 C   0  0  0  0  0  0  0  0  0  0  0  0
  162.5860  211.5580  157.2350 O   0  0  0  0  0  0  0  0  0  0  0  0
  163.7490  212.3760  157.2600 C   0  0  0  0  0  2  0  0  0  0  0  0
  164.8880  211.5700  157.2610 O   0  0  0  0  0  0  0  0  0  0  0  0
  165.9620  212.4640  157.2600 C   0  0  0  0  0  2  0  0  0  0  0  0
  166.3170  212.7650  155.9440 O   0  0  0  0  0  1  0  0  0  0  0  0
  161.9440  207.4310  147.1750 C   0  0  0  0  0  2  0  0  0  0  0  0
  161.0110  206.4110  146.9610 O   0  0  0  0  0  0  0  0  0  0  0  0
  161.6330  205.5290  146.0770 C   0  0  1  0  0  3  0  0  0  0  0  0
  162.1980  206.2380  145.0200 O   0  0  0  0  0  1  0  0  0  0  0  0
  162.4500  203.4020  147.2630 N   0  0  0  0  0  2  0  0  0  0  0  0
  162.6860  204.7330  146.7880 C   0  0  0  0  0  0  0  0  0  0  0  0
  163.8230  205.2500  146.9620 O   0  0  0  0  0  0  0  0  0  0  0  0
  161.5210  200.1670  147.1800 C   0  0  0  0  0  2  0  0  0  0  0  0
  159.8930  201.2600  148.7540 C   0  0  0  0  0  1  0  0  0  0  0  0
  160.5720  199.9670  145.9840 C   0  0  0  0  0  2  0  0  0  0  0  0
  159.9400  201.2670  145.4780 C   0  0  0  0  0  2  0  0  0  0  0  0
  161.2040  201.4220  148.0020 C   0  0  2  0  0  3  0  0  0  0  0  0
  161.1800  202.7010  147.1430 C   0  0  2  0  0  3  0  0  0  0  0  0
  160.8900  202.4440  145.6610 C   0  0  0  0  0  2  0  0  0  0  0  0
  1 17  1  0  0  0  0
  2 13  1  0  0  0  0
  3 44  1  6  0  0  0
  3 20  1  0  0  0  0
  3  4  1  0  0  0  0
  4 27  1  0  0  0  0
  5 15  1  0  0  0  0
  7 16  2  0  0  0  0
  9 30  1  0  0  0  0
 10 28  1  0  0  0  0
 10 38  1  1  0  0  0
 11 17  1  0  0  0  0
 12 10  1  0  0  0  0
 12  6  1  1  0  0  0
 13 24  1  6  0  0  0
 13 26  1  0  0  0  0
 15 21  1  0  0  0  0
 17 23  1  0  0  0  0
 18  5  2  0  0  0  0
 19 25  1  0  0  0  0
 20 30  1  0  0  0  0
 21 14  1  1  0  0  0
 21 33  1  0  0  0  0
 22 12  1  0  0  0  0
 22  8  1  1  0  0  0
 23  8  1  6  0  0  0
 23 25  1  0  0  0  0
 26  2  1  6  0  0  0
 26  9  1  0  0  0  0
 26  5  1  0  0  0  0
 27 16  1  0  0  0  0
 28 32  3  0  0  0  0
 29 16  1  6  0  0  0
 29 31  1  0  0  0  0
 29 17  1  0  0  0  0
 31 22  1  0  0  0  0
 32 19  1  0  0  0  0
 33 10  1  0  0  0  0
 34 36  2  0  0  0  0
 36 35  1  0  0  0  0
 36 12  1  0  0  0  0
 38 37  2  0  0  0  0
 38 39  1  0  0  0  0
 39 40  1  0  0  0  0
 40 41  1  0  0  0  0
 42 41  1  0  0  0  0
 43 42  1  0  0  0  0
 45 44  1  0  0  0  0
 46 47  1  6  0  0  0
 46 49  1  0  0  0  0
 46 45  1  0  0  0  0
 49 50  2  0  0  0  0
 49 48  1  0  0  0  0
 51 55  1  0  0  0  0
 53 51  1  0  0  0  0
 54 57  1  0  0  0  0
 54 53  1  0  0  0  0
 55 52  1  6  0  0  0
 56 48  1  6  0  0  0
 56 55  1  0  0  0  0
 57 56  1  0  0  0  0
M  END
>  <MODEL>
2

>  <REMARK>
 VINA RESULT:       2.8      1.131      2.244
  Name = 
  11 active torsions:
  status: ('A' for Active; 'I' for Inactive)
    1  A    between atoms: O_4  and  C_24
    2  A    between atoms: O_4  and  C_40
    3  A    between atoms: C_5  and  O_46
    4  A    between atoms: C_6  and  C_27
    5  A    between atoms: N_9  and  C_53
    6  A    between atoms: C_11  and  O_18
    7  A    between atoms: C_11  and  C_49
    8  A    between atoms: O_18  and  C_27
    9  A    between atoms: C_21  and  C_40
   10  A    between atoms: C_24  and  O_46
   11  A    between atoms: C_25  and  C_41
                            x       y       z     vdW  Elec       q    Type
                         _______ _______ _______ _____ _____    ______ ____

>  <TORSDO>
F 11

$$$$
