=
 OpenBabel11072410553D

 40 42  0  0  1  0  0  0  0  0999 V2000
  160.1620  210.2890  153.0130 C   0  0  1  0  0  3  0  0  0  0  0  0
  161.1080  210.5190  154.1840 C   0  0  0  0  0  1  0  0  0  0  0  0
  159.1950  211.4590  152.8590 C   0  0  0  0  0  2  0  0  0  0  0  0
  158.9960  212.2880  154.1360 C   0  0  2  0  0  3  0  0  0  0  0  0
  157.8120  212.5930  156.3910 C   0  0  0  0  0  2  0  0  0  0  0  0
  155.5000  211.9430  156.5320 O   0  0  0  0  0  0  0  0  0  0  0  0
  155.6640  210.9330  155.5700 C   0  0  0  0  0  2  0  0  0  0  0  0
  156.6560  211.3860  154.4940 C   0  0  0  0  0  2  0  0  0  0  0  0
  157.9990  211.7120  155.1510 C   0  0  0  0  0  3  0  0  0  0  0  0
  156.7020  212.0020  157.2610 C   0  0  0  0  0  2  0  0  0  0  0  0
  158.7280  214.0650  153.8140 S   0  0  0  0  0  0  0  0  0  0  0  0
  158.5270  213.4740  149.2630 C   0  0  0  0  0  0  0  0  0  0  0  0
  159.7590  213.7020  149.8930 C   0  0  0  0  0  3  0  0  0  0  0  0
  157.4220  213.6010  151.4230 C   0  0  0  0  0  3  0  0  0  0  0  0
  158.6520  213.8280  152.0430 C   0  0  0  0  0  0  0  0  0  0  0  0
  159.8210  213.8800  151.2760 C   0  0  0  0  0  3  0  0  0  0  0  0
  157.3580  213.4240  150.0390 C   0  0  0  0  0  3  0  0  0  0  0  0
  159.4230  213.9070  146.9520 N   0  0  0  0  0  1  0  0  0  0  0  0
  157.5380  212.6030  147.2940 O   0  0  0  0  0  0  0  0  0  0  0  0
  158.4560  213.2960  147.8030 C   0  0  0  0  0  0  0  0  0  0  0  0
  160.9520  210.0970  151.7240 C   0  0  0  0  0  2  0  0  0  0  0  0
  162.2850  209.7660  152.0040 O   0  0  0  0  0  0  0  0  0  0  0  0
  162.6100  208.7670  151.0810 C   0  0  0  0  0  2  0  0  0  0  0  0
  161.3510  208.2640  150.3980 C   0  0  0  0  0  2  0  0  0  0  0  0
  160.4770  206.6150  148.7980 C   0  0  2  0  0  3  0  0  0  0  0  0
  161.2030  207.6030  148.1050 O   0  0  0  0  0  0  0  0  0  0  0  0
  161.7080  207.2160  149.3600 C   0  0  1  0  0  3  0  0  0  0  0  0
  160.8090  205.2440  148.2220 C   0  0  2  0  0  3  0  0  0  0  0  0
  161.6470  203.1890  149.0600 O   0  0  0  0  0  0  0  0  0  0  0  0
  161.0230  204.2150  149.2940 C   0  0  0  0  0  0  0  0  0  0  0  0
  160.4470  204.4500  150.6560 C   0  0  0  0  0  2  0  0  0  0  0  0
  161.4180  204.0480  151.7670 C   0  0  0  0  0  2  0  0  0  0  0  0
  162.2500  205.2240  152.2650 C   0  0  0  0  0  2  0  0  0  0  0  0
  160.9050  206.6640  154.0650 C   0  0  0  0  0  3  0  0  0  0  0  0
  161.5120  206.0110  153.2560 C   0  0  0  0  0  0  0  0  0  0  0  0
  161.9880  205.3160  147.2560 C   0  0  0  0  0  2  0  0  0  0  0  0
  161.8130  204.4400  146.1800 O   0  0  0  0  0  0  0  0  0  0  0  0
  160.0020  206.3600  145.3320 O   0  0  0  0  0  0  0  0  0  0  0  0
  161.5500  205.2500  143.5390 O   0  0  0  0  0  0  0  0  0  0  0  0
  161.0970  205.3870  144.9750 P   0  0  0  0  0  0  0  0  0  0  0  0
  1  2  1  1  0  0  0
  3  1  1  0  0  0  0
  4  3  1  6  0  0  0
  4  9  1  0  0  0  0
  5 10  1  0  0  0  0
  6 10  1  0  0  0  0
  7  6  1  0  0  0  0
  8  9  1  0  0  0  0
  8  7  1  0  0  0  0
  9  5  1  0  0  0  0
 11  4  1  0  0  0  0
 12 13  2  0  0  0  0
 12 17  1  0  0  0  0
 13 16  1  0  0  0  0
 14 15  1  0  0  0  0
 15 11  1  0  0  0  0
 16 15  2  0  0  0  0
 17 14  2  0  0  0  0
 18 20  1  0  0  0  0
 19 20  2  0  0  0  0
 20 12  1  0  0  0  0
 21 22  1  0  0  0  0
 21  1  1  0  0  0  0
 23 22  1  0  0  0  0
 24 23  1  0  0  0  0
 25 28  1  6  0  0  0
 25 27  1  0  0  0  0
 26 25  1  0  0  0  0
 26 27  1  0  0  0  0
 27 24  1  1  0  0  0
 28 36  1  1  0  0  0
 28 30  1  0  0  0  0
 29 30  2  0  0  0  0
 30 31  1  0  0  0  0
 31 32  1  0  0  0  0
 32 33  1  0  0  0  0
 33 35  1  0  0  0  0
 35 34  3  0  0  0  0
 37 36  1  0  0  0  0
 39 40  2  0  0  0  0
 40 38  2  0  0  0  0
 40 37  1  0  0  0  0
M  END
>  <MODEL>
1

>  <REMARK>
 VINA RESULT:      -6.2      0.000      0.000
  Name = 
  20 active torsions:
  status: ('A' for Active; 'I' for Inactive)
    1  A    between atoms: C_2  and  C_8
    2  A    between atoms: C_3  and  C_32
    3  A    between atoms: C_3  and  C_33
    4  A    between atoms: C_5  and  C_38
    5  A    between atoms: O_6  and  P_35
    6  A    between atoms: O_6  and  C_40
    7  A    between atoms: C_8  and  C_13
    8  A    between atoms: C_8  and  C_40
    9  A    between atoms: C_12  and  C_21
   10  A    between atoms: C_12  and  C_30
   11  A    between atoms: C_13  and  C_39
   12  A    between atoms: C_20  and  O_28
   13  A    between atoms: C_20  and  C_37
   14  A    between atoms: C_21  and  C_39
   15  A    between atoms: C_22  and  C_27
   16  A    between atoms: C_24  and  S_31
   17  A    between atoms: C_27  and  S_31
   18  A    between atoms: C_27  and  C_32
   19  A    between atoms: O_28  and  C_33
   20  A    between atoms: C_34  and  C_37
                            x       y       z     vdW  Elec       q    Type
                         _______ _______ _______ _____ _____    ______ ____

>  <TORSDO>
F 20

$$$$
=
 OpenBabel11072410553D

 40 42  0  0  1  0  0  0  0  0999 V2000
  160.0030  210.4850  153.5700 C   0  0  1  0  0  3  0  0  0  0  0  0
  160.9210  210.5960  154.7790 C   0  0  0  0  0  1  0  0  0  0  0  0
  158.9080  211.5470  153.6200 C   0  0  0  0  0  2  0  0  0  0  0  0
  158.8090  212.2900  154.9590 C   0  0  2  0  0  3  0  0  0  0  0  0
  156.9350  213.0910  156.5180 C   0  0  0  0  0  2  0  0  0  0  0  0
  154.8050  211.9840  156.3590 O   0  0  0  0  0  0  0  0  0  0  0  0
  155.3990  210.7670  155.9840 C   0  0  0  0  0  2  0  0  0  0  0  0
  156.6160  211.0280  155.0910 C   0  0  0  0  0  2  0  0  0  0  0  0
  157.6230  211.8950  155.8500 C   0  0  0  0  0  3  0  0  0  0  0  0
  155.6910  212.6020  157.2600 C   0  0  0  0  0  2  0  0  0  0  0  0
  159.0020  214.0990  154.8030 S   0  0  0  0  0  0  0  0  0  0  0  0
  156.9330  214.2230  150.7040 C   0  0  0  0  0  0  0  0  0  0  0  0
  158.3290  214.1250  150.7880 C   0  0  0  0  0  3  0  0  0  0  0  0
  156.8060  214.2360  153.1300 C   0  0  0  0  0  3  0  0  0  0  0  0
  158.1970  214.1400  153.2060 C   0  0  0  0  0  0  0  0  0  0  0  0
  158.9590  214.0860  152.0340 C   0  0  0  0  0  3  0  0  0  0  0  0
  156.1760  214.2780  151.8840 C   0  0  0  0  0  3  0  0  0  0  0  0
  154.8540  214.4510  149.3040 N   0  0  0  0  0  1  0  0  0  0  0  0
  156.9390  214.1620  148.3350 O   0  0  0  0  0  0  0  0  0  0  0  0
  156.2660  214.2750  149.3910 C   0  0  0  0  0  0  0  0  0  0  0  0
  160.8040  210.6280  152.2810 C   0  0  0  0  0  2  0  0  0  0  0  0
  162.1490  210.2950  152.4940 O   0  0  0  0  0  0  0  0  0  0  0  0
  162.3140  209.0520  151.8730 C   0  0  0  0  0  2  0  0  0  0  0  0
  161.5280  209.0130  150.5750 C   0  0  0  0  0  2  0  0  0  0  0  0
  161.1780  207.4400  148.7180 C   0  0  2  0  0  3  0  0  0  0  0  0
  161.9750  208.5160  148.2790 O   0  0  0  0  0  0  0  0  0  0  0  0
  162.1950  208.0660  149.5940 C   0  0  1  0  0  3  0  0  0  0  0  0
  161.7350  206.1360  148.1600 C   0  0  2  0  0  3  0  0  0  0  0  0
  160.3900  206.4420  146.2310 O   0  0  0  0  0  0  0  0  0  0  0  0
  161.4070  205.9560  146.7060 C   0  0  0  0  0  0  0  0  0  0  0  0
  162.3340  205.1590  145.8420 C   0  0  0  0  0  2  0  0  0  0  0  0
  161.6120  204.0150  145.1290 C   0  0  0  0  0  2  0  0  0  0  0  0
  161.2740  202.8660  146.0700 C   0  0  0  0  0  2  0  0  0  0  0  0
  159.6930  201.0770  144.8760 C   0  0  0  0  0  3  0  0  0  0  0  0
  160.4020  201.8860  145.4170 C   0  0  0  0  0  0  0  0  0  0  0  0
  161.2950  204.9390  148.9980 C   0  0  0  0  0  2  0  0  0  0  0  0
  160.4660  205.3380  150.0510 O   0  0  0  0  0  0  0  0  0  0  0  0
  160.7460  203.3950  152.0080 O   0  0  0  0  0  0  0  0  0  0  0  0
  162.3300  205.4750  152.1020 O   0  0  0  0  0  0  0  0  0  0  0  0
  161.2090  204.7110  151.4350 P   0  0  0  0  0  0  0  0  0  0  0  0
  1  3  1  0  0  0  0
  1  2  1  1  0  0  0
  4  3  1  6  0  0  0
  4  9  1  0  0  0  0
  5 10  1  0  0  0  0
  6 10  1  0  0  0  0
  7  6  1  0  0  0  0
  8  9  1  0  0  0  0
  8  7  1  0  0  0  0
  9  5  1  0  0  0  0
 11  4  1  0  0  0  0
 12 13  2  0  0  0  0
 12 17  1  0  0  0  0
 13 16  1  0  0  0  0
 14 15  1  0  0  0  0
 15 11  1  0  0  0  0
 16 15  2  0  0  0  0
 17 14  2  0  0  0  0
 18 20  1  0  0  0  0
 19 20  2  0  0  0  0
 20 12  1  0  0  0  0
 21 22  1  0  0  0  0
 21  1  1  0  0  0  0
 23 22  1  0  0  0  0
 24 23  1  0  0  0  0
 25 28  1  6  0  0  0
 25 27  1  0  0  0  0
 26 25  1  0  0  0  0
 26 27  1  0  0  0  0
 27 24  1  1  0  0  0
 28 36  1  1  0  0  0
 29 30  2  0  0  0  0
 30 28  1  0  0  0  0
 31 30  1  0  0  0  0
 32 31  1  0  0  0  0
 32 33  1  0  0  0  0
 34 35  3  0  0  0  0
 35 33  1  0  0  0  0
 36 37  1  0  0  0  0
 37 40  1  0  0  0  0
 40 38  2  0  0  0  0
 40 39  2  0  0  0  0
M  END
>  <MODEL>
2

>  <REMARK>
 VINA RESULT:      -6.0      2.222      3.902
  Name = 
  20 active torsions:
  status: ('A' for Active; 'I' for Inactive)
    1  A    between atoms: C_2  and  C_8
    2  A    between atoms: C_3  and  C_32
    3  A    between atoms: C_3  and  C_33
    4  A    between atoms: C_5  and  C_38
    5  A    between atoms: O_6  and  P_35
    6  A    between atoms: O_6  and  C_40
    7  A    between atoms: C_8  and  C_13
    8  A    between atoms: C_8  and  C_40
    9  A    between atoms: C_12  and  C_21
   10  A    between atoms: C_12  and  C_30
   11  A    between atoms: C_13  and  C_39
   12  A    between atoms: C_20  and  O_28
   13  A    between atoms: C_20  and  C_37
   14  A    between atoms: C_21  and  C_39
   15  A    between atoms: C_22  and  C_27
   16  A    between atoms: C_24  and  S_31
   17  A    between atoms: C_27  and  S_31
   18  A    between atoms: C_27  and  C_32
   19  A    between atoms: O_28  and  C_33
   20  A    between atoms: C_34  and  C_37
                            x       y       z     vdW  Elec       q    Type
                         _______ _______ _______ _____ _____    ______ ____

>  <TORSDO>
F 20

$$$$
=
 OpenBabel11072410553D

 40 42  0  0  1  0  0  0  0  0999 V2000
  160.5300  210.6120  152.7180 C   0  0  1  0  0  3  0  0  0  0  0  0
  161.2140  210.4240  151.3710 C   0  0  0  0  0  1  0  0  0  0  0  0
  159.1510  211.2420  152.5430 C   0  0  0  0  0  2  0  0  0  0  0  0
  159.0790  212.7250  152.9330 C   0  0  2  0  0  3  0  0  0  0  0  0
  157.6500  212.7720  155.0620 C   0  0  0  0  0  2  0  0  0  0  0  0
  158.6770  212.0370  157.1090 O   0  0  0  0  0  0  0  0  0  0  0  0
  159.9480  212.4730  156.6980 C   0  0  0  0  0  2  0  0  0  0  0  0
  160.1200  212.2480  155.1920 C   0  0  0  0  0  2  0  0  0  0  0  0
  159.0290  213.0130  154.4390 C   0  0  0  0  0  3  0  0  0  0  0  0
  157.7480  212.9490  156.5780 C   0  0  0  0  0  2  0  0  0  0  0  0
  157.8250  213.6630  151.9940 S   0  0  0  0  0  0  0  0  0  0  0  0
  160.3180  213.5700  148.1370 C   0  0  0  0  0  0  0  0  0  0  0  0
  158.9390  213.3250  148.0930 C   0  0  0  0  0  3  0  0  0  0  0  0
  160.1660  213.8790  150.5420 C   0  0  0  0  0  3  0  0  0  0  0  0
  158.7930  213.6330  150.4900 C   0  0  0  0  0  0  0  0  0  0  0  0
  158.1790  213.3540  149.2650 C   0  0  0  0  0  3  0  0  0  0  0  0
  160.9270  213.8480  149.3710 C   0  0  0  0  0  3  0  0  0  0  0  0
  160.5360  213.1300  145.6700 N   0  0  0  0  0  1  0  0  0  0  0  0
  162.3410  213.8450  146.9340 O   0  0  0  0  0  0  0  0  0  0  0  0
  161.1240  213.5290  146.9050 C   0  0  0  0  0  0  0  0  0  0  0  0
  160.4000  209.2750  153.4380 C   0  0  0  0  0  2  0  0  0  0  0  0
  161.3510  208.3610  152.9620 O   0  0  0  0  0  0  0  0  0  0  0  0
  161.3290  207.3080  153.8810 C   0  0  0  0  0  2  0  0  0  0  0  0
  161.2400  205.9820  153.1460 C   0  0  0  0  0  2  0  0  0  0  0  0
  160.7510  205.4310  150.8010 C   0  0  2  0  0  3  0  0  0  0  0  0
  160.6600  206.8240  150.9850 O   0  0  0  0  0  0  0  0  0  0  0  0
  161.6720  206.1590  151.7030 C   0  0  1  0  0  3  0  0  0  0  0  0
  161.4650  205.1380  149.4870 C   0  0  2  0  0  3  0  0  0  0  0  0
  159.8850  206.5260  148.3910 O   0  0  0  0  0  0  0  0  0  0  0  0
  161.0090  206.0440  148.3800 C   0  0  0  0  0  0  0  0  0  0  0  0
  161.9430  206.3410  147.2480 C   0  0  0  0  0  2  0  0  0  0  0  0
  161.3500  205.9460  145.8960 C   0  0  0  0  0  2  0  0  0  0  0  0
  162.1180  204.8090  145.2340 C   0  0  0  0  0  2  0  0  0  0  0  0
  160.9000  202.4670  145.6260 C   0  0  0  0  0  3  0  0  0  0  0  0
  161.4520  203.5230  145.4540 C   0  0  0  0  0  0  0  0  0  0  0  0
  161.3490  203.6650  149.1050 C   0  0  0  0  0  2  0  0  0  0  0  0
  160.8290  202.9110  150.1620 O   0  0  0  0  0  0  0  0  0  0  0  0
  158.8870  201.0410  149.5140 O   0  0  0  0  0  0  0  0  0  0  0  0
  161.3430  200.5860  148.7370 O   0  0  0  0  0  0  0  0  0  0  0  0
  160.3320  201.4620  149.4430 P   0  0  0  0  0  0  0  0  0  0  0  0
  1  2  1  6  0  0  0
  1 21  1  0  0  0  0
  3  1  1  0  0  0  0
  4  3  1  1  0  0  0
  4  9  1  0  0  0  0
  5 10  1  0  0  0  0
  7  6  1  0  0  0  0
  8  7  1  0  0  0  0
  9  5  1  0  0  0  0
  9  8  1  0  0  0  0
 10  6  1  0  0  0  0
 11  4  1  0  0  0  0
 12 17  1  0  0  0  0
 13 12  2  0  0  0  0
 13 16  1  0  0  0  0
 15 14  1  0  0  0  0
 15 11  1  0  0  0  0
 16 15  2  0  0  0  0
 17 14  2  0  0  0  0
 18 20  1  0  0  0  0
 20 19  2  0  0  0  0
 20 12  1  0  0  0  0
 22 21  1  0  0  0  0
 22 23  1  0  0  0  0
 24 23  1  0  0  0  0
 25 28  1  6  0  0  0
 25 26  1  0  0  0  0
 25 27  1  0  0  0  0
 26 27  1  0  0  0  0
 27 24  1  1  0  0  0
 28 36  1  6  0  0  0
 30 29  2  0  0  0  0
 30 28  1  0  0  0  0
 31 30  1  0  0  0  0
 32 31  1  0  0  0  0
 33 35  1  0  0  0  0
 33 32  1  0  0  0  0
 35 34  3  0  0  0  0
 36 37  1  0  0  0  0
 39 40  2  0  0  0  0
 40 38  2  0  0  0  0
 40 37  1  0  0  0  0
M  END
>  <MODEL>
3

>  <REMARK>
 VINA RESULT:      -5.8      2.164      3.988
  Name = 
  20 active torsions:
  status: ('A' for Active; 'I' for Inactive)
    1  A    between atoms: C_2  and  C_8
    2  A    between atoms: C_3  and  C_32
    3  A    between atoms: C_3  and  C_33
    4  A    between atoms: C_5  and  C_38
    5  A    between atoms: O_6  and  P_35
    6  A    between atoms: O_6  and  C_40
    7  A    between atoms: C_8  and  C_13
    8  A    between atoms: C_8  and  C_40
    9  A    between atoms: C_12  and  C_21
   10  A    between atoms: C_12  and  C_30
   11  A    between atoms: C_13  and  C_39
   12  A    between atoms: C_20  and  O_28
   13  A    between atoms: C_20  and  C_37
   14  A    between atoms: C_21  and  C_39
   15  A    between atoms: C_22  and  C_27
   16  A    between atoms: C_24  and  S_31
   17  A    between atoms: C_27  and  S_31
   18  A    between atoms: C_27  and  C_32
   19  A    between atoms: O_28  and  C_33
   20  A    between atoms: C_34  and  C_37
                            x       y       z     vdW  Elec       q    Type
                         _______ _______ _______ _____ _____    ______ ____

>  <TORSDO>
F 20

$$$$
=
 OpenBabel11072410553D

 40 42  0  0  1  0  0  0  0  0999 V2000
  161.5570  208.1320  149.0770 C   0  0  1  0  0  3  0  0  0  0  0  0
  162.6870  207.4100  149.7970 C   0  0  0  0  0  1  0  0  0  0  0  0
  161.9390  209.5800  148.7830 C   0  0  0  0  0  2  0  0  0  0  0  0
  161.7660  210.5340  149.9730 C   0  0  2  0  0  3  0  0  0  0  0  0
  162.6350  212.2940  148.3220 C   0  0  0  0  0  2  0  0  0  0  0  0
  161.2900  214.2590  147.9790 O   0  0  0  0  0  0  0  0  0  0  0  0
  160.7910  214.2190  149.2910 C   0  0  0  0  0  2  0  0  0  0  0  0
  160.5920  212.7660  149.7350 C   0  0  0  0  0  2  0  0  0  0  0  0
  161.9290  212.0260  149.6560 C   0  0  0  0  0  3  0  0  0  0  0  0
  162.6180  213.7970  148.0400 C   0  0  0  0  0  2  0  0  0  0  0  0
  162.7000  210.0210  151.4560 S   0  0  0  0  0  0  0  0  0  0  0  0
  159.2750  211.1600  154.2970 C   0  0  0  0  0  0  0  0  0  0  0  0
  159.0100  210.8620  152.9530 C   0  0  0  0  0  3  0  0  0  0  0  0
  161.6370  210.7520  153.9000 C   0  0  0  0  0  3  0  0  0  0  0  0
  161.3650  210.4580  152.5630 C   0  0  0  0  0  0  0  0  0  0  0  0
  160.0500  210.5140  152.0890 C   0  0  0  0  0  3  0  0  0  0  0  0
  160.5980  211.1020  154.7640 C   0  0  0  0  0  3  0  0  0  0  0  0
  158.4290  212.3990  156.3160 N   0  0  0  0  0  1  0  0  0  0  0  0
  157.0180  211.1000  155.0160 O   0  0  0  0  0  0  0  0  0  0  0  0
  158.1820  211.5380  155.2090 C   0  0  0  0  0  0  0  0  0  0  0  0
  161.2120  207.4140  147.7770 C   0  0  0  0  0  2  0  0  0  0  0  0
  162.3340  206.7450  147.2680 O   0  0  0  0  0  0  0  0  0  0  0  0
  161.8770  206.0990  146.1160 C   0  0  0  0  0  2  0  0  0  0  0  0
  161.9260  204.5940  146.3120 C   0  0  0  0  0  2  0  0  0  0  0  0
  161.7010  203.0680  148.2270 C   0  0  2  0  0  3  0  0  0  0  0  0
  161.8040  204.3940  148.6910 O   0  0  0  0  0  0  0  0  0  0  0  0
  161.0740  204.1990  147.5040 C   0  0  1  0  0  3  0  0  0  0  0  0
  160.6330  202.3320  149.0250 C   0  0  2  0  0  3  0  0  0  0  0  0
  161.4160  201.6320  151.1520 O   0  0  0  0  0  0  0  0  0  0  0  0
  160.8250  202.4870  150.5070 C   0  0  0  0  0  0  0  0  0  0  0  0
  160.2700  203.6960  151.1930 C   0  0  0  0  0  2  0  0  0  0  0  0
  161.0660  204.0610  152.4450 C   0  0  0  0  0  2  0  0  0  0  0  0
  161.7670  205.4080  152.3160 C   0  0  0  0  0  2  0  0  0  0  0  0
  160.8720  207.1440  154.1350 C   0  0  0  0  0  3  0  0  0  0  0  0
  161.2710  206.3600  153.3130 C   0  0  0  0  0  0  0  0  0  0  0  0
  160.5380  200.8670  148.6110 C   0  0  0  0  0  2  0  0  0  0  0  0
  161.6590  200.4790  147.8700 O   0  0  0  0  0  0  0  0  0  0  0  0
  161.2580  198.8150  145.6900 O   0  0  0  0  0  0  0  0  0  0  0  0
  160.3230  201.2550  145.5660 O   0  0  0  0  0  0  0  0  0  0  0  0
  161.0560  200.1690  146.3210 P   0  0  0  0  0  0  0  0  0  0  0  0
  1  2  1  6  0  0  0
  3  1  1  0  0  0  0
  4  3  1  6  0  0  0
  4 11  1  0  0  0  0
  5  9  1  0  0  0  0
  6 10  1  0  0  0  0
  6  7  1  0  0  0  0
  7  8  1  0  0  0  0
  9  8  1  0  0  0  0
  9  4  1  0  0  0  0
 10  5  1  0  0  0  0
 11 15  1  0  0  0  0
 12 17  1  0  0  0  0
 12 20  1  0  0  0  0
 13 12  2  0  0  0  0
 14 17  2  0  0  0  0
 15 14  1  0  0  0  0
 16 15  2  0  0  0  0
 16 13  1  0  0  0  0
 19 20  2  0  0  0  0
 20 18  1  0  0  0  0
 21  1  1  0  0  0  0
 22 21  1  0  0  0  0
 23 24  1  0  0  0  0
 23 22  1  0  0  0  0
 25 26  1  0  0  0  0
 25 28  1  1  0  0  0
 27 24  1  6  0  0  0
 27 25  1  0  0  0  0
 27 26  1  0  0  0  0
 28 36  1  1  0  0  0
 28 30  1  0  0  0  0
 30 29  2  0  0  0  0
 30 31  1  0  0  0  0
 31 32  1  0  0  0  0
 33 32  1  0  0  0  0
 33 35  1  0  0  0  0
 35 34  3  0  0  0  0
 37 36  1  0  0  0  0
 38 40  2  0  0  0  0
 39 40  2  0  0  0  0
 40 37  1  0  0  0  0
M  END
>  <MODEL>
4

>  <REMARK>
 VINA RESULT:      -5.6      2.919      5.754
  Name = 
  20 active torsions:
  status: ('A' for Active; 'I' for Inactive)
    1  A    between atoms: C_2  and  C_8
    2  A    between atoms: C_3  and  C_32
    3  A    between atoms: C_3  and  C_33
    4  A    between atoms: C_5  and  C_38
    5  A    between atoms: O_6  and  P_35
    6  A    between atoms: O_6  and  C_40
    7  A    between atoms: C_8  and  C_13
    8  A    between atoms: C_8  and  C_40
    9  A    between atoms: C_12  and  C_21
   10  A    between atoms: C_12  and  C_30
   11  A    between atoms: C_13  and  C_39
   12  A    between atoms: C_20  and  O_28
   13  A    between atoms: C_20  and  C_37
   14  A    between atoms: C_21  and  C_39
   15  A    between atoms: C_22  and  C_27
   16  A    between atoms: C_24  and  S_31
   17  A    between atoms: C_27  and  S_31
   18  A    between atoms: C_27  and  C_32
   19  A    between atoms: O_28  and  C_33
   20  A    between atoms: C_34  and  C_37
                            x       y       z     vdW  Elec       q    Type
                         _______ _______ _______ _____ _____    ______ ____

>  <TORSDO>
F 20

$$$$
=
 OpenBabel11072410553D

 40 42  0  0  1  0  0  0  0  0999 V2000
  159.0690  213.0850  151.7270 C   0  0  1  0  0  3  0  0  0  0  0  0
  158.0910  213.4750  150.6280 C   0  0  0  0  0  1  0  0  0  0  0  0
  158.5970  211.8300  152.4550 C   0  0  0  0  0  2  0  0  0  0  0  0
  158.5830  211.9540  153.9850 C   0  0  2  0  0  3  0  0  0  0  0  0
  156.1970  212.8930  153.9610 C   0  0  0  0  0  2  0  0  0  0  0  0
  155.2340  213.5440  156.0670 O   0  0  0  0  0  0  0  0  0  0  0  0
  156.4870  213.8960  156.5980 C   0  0  0  0  0  2  0  0  0  0  0  0
  157.5640  212.9340  156.0870 C   0  0  0  0  0  2  0  0  0  0  0  0
  157.6050  212.9880  154.5580 C   0  0  0  0  0  3  0  0  0  0  0  0
  155.2740  213.8650  154.6980 C   0  0  0  0  0  2  0  0  0  0  0  0
  160.2520  212.0800  154.7180 S   0  0  0  0  0  0  0  0  0  0  0  0
  161.2460  207.6810  153.8470 C   0  0  0  0  0  0  0  0  0  0  0  0
  160.5000  208.0260  154.9820 C   0  0  0  0  0  3  0  0  0  0  0  0
  161.3750  210.0310  153.2430 C   0  0  0  0  0  3  0  0  0  0  0  0
  160.6320  210.3660  154.3760 C   0  0  0  0  0  0  0  0  0  0  0  0
  160.1950  209.3630  155.2470 C   0  0  0  0  0  3  0  0  0  0  0  0
  161.6820  208.6940  152.9790 C   0  0  0  0  0  3  0  0  0  0  0  0
  160.6930  205.2300  153.9680 N   0  0  0  0  0  1  0  0  0  0  0  0
  162.6500  205.9800  152.9800 O   0  0  0  0  0  0  0  0  0  0  0  0
  161.5780  206.2730  153.5700 C   0  0  0  0  0  0  0  0  0  0  0  0
  160.4570  212.8510  151.1410 C   0  0  0  0  0  2  0  0  0  0  0  0
  160.3690  212.4600  149.7980 O   0  0  0  0  0  0  0  0  0  0  0  0
  161.6490  212.6700  149.2770 C   0  0  0  0  0  2  0  0  0  0  0  0
  161.9740  211.5950  148.2530 C   0  0  0  0  0  2  0  0  0  0  0  0
  162.3380  209.1810  148.5380 C   0  0  2  0  0  3  0  0  0  0  0  0
  162.0390  209.7610  149.7850 O   0  0  0  0  0  0  0  0  0  0  0  0
  161.3510  210.2770  148.6710 C   0  0  1  0  0  3  0  0  0  0  0  0
  161.5980  207.8560  148.4040 C   0  0  2  0  0  3  0  0  0  0  0  0
  162.8590  206.8790  150.1600 O   0  0  0  0  0  0  0  0  0  0  0  0
  161.7680  206.9870  149.6170 C   0  0  0  0  0  0  0  0  0  0  0  0
  160.5870  206.2360  150.1480 C   0  0  0  0  0  2  0  0  0  0  0  0
  160.5710  204.7830  149.6770 C   0  0  0  0  0  2  0  0  0  0  0  0
  161.0100  203.8130  150.7670 C   0  0  0  0  0  2  0  0  0  0  0  0
  160.8070  201.2810  149.9490 C   0  0  0  0  0  3  0  0  0  0  0  0
  160.9020  202.4240  150.3150 C   0  0  0  0  0  0  0  0  0  0  0  0
  161.9860  207.1280  147.1200 C   0  0  0  0  0  2  0  0  0  0  0  0
  161.0090  206.1980  146.7530 O   0  0  0  0  0  0  0  0  0  0  0  0
  163.3550  204.8080  146.2550 O   0  0  0  0  0  0  0  0  0  0  0  0
  161.1590  203.9680  145.1090 O   0  0  0  0  0  0  0  0  0  0  0  0
  161.8730  204.9450  146.0160 P   0  0  0  0  0  0  0  0  0  0  0  0
  1  2  1  6  0  0  0
  1  3  1  0  0  0  0
  4  3  1  6  0  0  0
  4  9  1  0  0  0  0
  4 11  1  0  0  0  0
  5  9  1  0  0  0  0
  5 10  1  0  0  0  0
  6  7  1  0  0  0  0
  8  7  1  0  0  0  0
  9  8  1  0  0  0  0
 10  6  1  0  0  0  0
 12 13  1  0  0  0  0
 13 16  2  0  0  0  0
 14 15  2  0  0  0  0
 15 11  1  0  0  0  0
 15 16  1  0  0  0  0
 17 14  1  0  0  0  0
 17 12  2  0  0  0  0
 19 20  2  0  0  0  0
 20 12  1  0  0  0  0
 20 18  1  0  0  0  0
 21  1  1  0  0  0  0
 22 21  1  0  0  0  0
 23 22  1  0  0  0  0
 24 23  1  0  0  0  0
 25 28  1  1  0  0  0
 25 27  1  0  0  0  0
 25 26  1  0  0  0  0
 27 24  1  6  0  0  0
 27 26  1  0  0  0  0
 28 36  1  6  0  0  0
 28 30  1  0  0  0  0
 30 31  1  0  0  0  0
 30 29  2  0  0  0  0
 32 31  1  0  0  0  0
 32 33  1  0  0  0  0
 34 35  3  0  0  0  0
 35 33  1  0  0  0  0
 37 36  1  0  0  0  0
 39 40  2  0  0  0  0
 40 38  2  0  0  0  0
 40 37  1  0  0  0  0
M  END
>  <MODEL>
5

>  <REMARK>
 VINA RESULT:      -5.6      2.608      4.749
  Name = 
  20 active torsions:
  status: ('A' for Active; 'I' for Inactive)
    1  A    between atoms: C_2  and  C_8
    2  A    between atoms: C_3  and  C_32
    3  A    between atoms: C_3  and  C_33
    4  A    between atoms: C_5  and  C_38
    5  A    between atoms: O_6  and  P_35
    6  A    between atoms: O_6  and  C_40
    7  A    between atoms: C_8  and  C_13
    8  A    between atoms: C_8  and  C_40
    9  A    between atoms: C_12  and  C_21
   10  A    between atoms: C_12  and  C_30
   11  A    between atoms: C_13  and  C_39
   12  A    between atoms: C_20  and  O_28
   13  A    between atoms: C_20  and  C_37
   14  A    between atoms: C_21  and  C_39
   15  A    between atoms: C_22  and  C_27
   16  A    between atoms: C_24  and  S_31
   17  A    between atoms: C_27  and  S_31
   18  A    between atoms: C_27  and  C_32
   19  A    between atoms: O_28  and  C_33
   20  A    between atoms: C_34  and  C_37
                            x       y       z     vdW  Elec       q    Type
                         _______ _______ _______ _____ _____    ______ ____

>  <TORSDO>
F 20

$$$$
=
 OpenBabel11072410553D

 40 42  0  0  1  0  0  0  0  0999 V2000
  161.5390  208.4660  149.4280 C   0  0  1  0  0  3  0  0  0  0  0  0
  161.0780  207.3150  148.5430 C   0  0  0  0  0  1  0  0  0  0  0  0
  162.3490  207.9480  150.6130 C   0  0  0  0  0  2  0  0  0  0  0  0
  161.5070  207.2930  151.7170 C   0  0  2  0  0  3  0  0  0  0  0  0
  160.8680  207.8370  154.1400 C   0  0  0  0  0  2  0  0  0  0  0  0
  160.9560  210.1420  154.8240 O   0  0  0  0  0  0  0  0  0  0  0  0
  160.6360  210.5990  153.5350 C   0  0  0  0  0  2  0  0  0  0  0  0
  161.2870  209.6980  152.4800 C   0  0  0  0  0  2  0  0  0  0  0  0
  160.7940  208.2620  152.6690 C   0  0  0  0  0  3  0  0  0  0  0  0
  160.2550  208.9370  155.0090 C   0  0  0  0  0  2  0  0  0  0  0  0
  162.3810  205.9520  152.5970 S   0  0  0  0  0  0  0  0  0  0  0  0
  160.6600  202.7070  149.8400 C   0  0  0  0  0  0  0  0  0  0  0  0
  161.0290  203.9540  149.3180 C   0  0  0  0  0  3  0  0  0  0  0  0
  161.3530  203.4470  152.0480 C   0  0  0  0  0  3  0  0  0  0  0  0
  161.7170  204.6870  151.5210 C   0  0  0  0  0  0  0  0  0  0  0  0
  161.5540  204.9420  150.1550 C   0  0  0  0  0  3  0  0  0  0  0  0
  160.8260  202.4600  151.2110 C   0  0  0  0  0  3  0  0  0  0  0  0
  160.7590  201.3040  147.7540 N   0  0  0  0  0  1  0  0  0  0  0  0
  159.0210  201.0920  149.2710 O   0  0  0  0  0  0  0  0  0  0  0  0
  160.0960  201.6670  148.9610 C   0  0  0  0  0  0  0  0  0  0  0  0
  162.3750  209.4520  148.6200 C   0  0  0  0  0  2  0  0  0  0  0  0
  162.3790  210.7140  149.2310 O   0  0  0  0  0  0  0  0  0  0  0  0
  161.5470  211.5030  148.4300 C   0  0  0  0  0  2  0  0  0  0  0  0
  162.3680  212.5600  147.7130 C   0  0  0  0  0  2  0  0  0  0  0  0
  160.2040  212.8890  146.5960 C   0  0  2  0  0  3  0  0  0  0  0  0
  160.2510  213.6700  147.7670 O   0  0  0  0  0  0  0  0  0  0  0  0
  161.4490  213.5590  147.0360 C   0  0  1  0  0  3  0  0  0  0  0  0
  159.5720  213.7000  145.4710 C   0  0  2  0  0  3  0  0  0  0  0  0
  157.4200  214.4520  144.8160 O   0  0  0  0  0  0  0  0  0  0  0  0
  158.0870  213.8480  145.6440 C   0  0  0  0  0  0  0  0  0  0  0  0
  157.4310  213.2620  146.8550 C   0  0  0  0  0  2  0  0  0  0  0  0
  156.9630  214.3390  147.8330 C   0  0  0  0  0  2  0  0  0  0  0  0
  156.3650  213.7490  149.1040 C   0  0  0  0  0  2  0  0  0  0  0  0
  158.2550  213.2290  150.9160 C   0  0  0  0  0  3  0  0  0  0  0  0
  157.4060  213.4660  150.0960 C   0  0  0  0  0  0  0  0  0  0  0  0
  159.9340  213.1310  144.1020 C   0  0  0  0  0  2  0  0  0  0  0  0
  161.1070  212.3730  144.1660 O   0  0  0  0  0  0  0  0  0  0  0  0
  161.3870  211.8880  141.4510 O   0  0  0  0  0  0  0  0  0  0  0  0
  163.0130  213.6050  142.5690 O   0  0  0  0  0  0  0  0  0  0  0  0
  161.8600  212.6330  142.6730 P   0  0  0  0  0  0  0  0  0  0  0  0
  1  2  1  6  0  0  0
  1  3  1  0  0  0  0
  4  3  1  1  0  0  0
  4 11  1  0  0  0  0
  4  9  1  0  0  0  0
  5 10  1  0  0  0  0
  6 10  1  0  0  0  0
  7  6  1  0  0  0  0
  8  9  1  0  0  0  0
  8  7  1  0  0  0  0
  9  5  1  0  0  0  0
 12 17  1  0  0  0  0
 13 12  2  0  0  0  0
 13 16  1  0  0  0  0
 15 14  1  0  0  0  0
 15 11  1  0  0  0  0
 16 15  2  0  0  0  0
 17 14  2  0  0  0  0
 18 20  1  0  0  0  0
 20 19  2  0  0  0  0
 20 12  1  0  0  0  0
 21 22  1  0  0  0  0
 21  1  1  0  0  0  0
 23 22  1  0  0  0  0
 24 23  1  0  0  0  0
 25 28  1  6  0  0  0
 25 27  1  0  0  0  0
 25 26  1  0  0  0  0
 27 24  1  1  0  0  0
 27 26  1  0  0  0  0
 28 36  1  6  0  0  0
 28 30  1  0  0  0  0
 29 30  2  0  0  0  0
 30 31  1  0  0  0  0
 31 32  1  0  0  0  0
 32 33  1  0  0  0  0
 33 35  1  0  0  0  0
 35 34  3  0  0  0  0
 36 37  1  0  0  0  0
 38 40  2  0  0  0  0
 39 40  2  0  0  0  0
 40 37  1  0  0  0  0
M  END
>  <MODEL>
6

>  <REMARK>
 VINA RESULT:      -5.4      4.001      8.438
  Name = 
  20 active torsions:
  status: ('A' for Active; 'I' for Inactive)
    1  A    between atoms: C_2  and  C_8
    2  A    between atoms: C_3  and  C_32
    3  A    between atoms: C_3  and  C_33
    4  A    between atoms: C_5  and  C_38
    5  A    between atoms: O_6  and  P_35
    6  A    between atoms: O_6  and  C_40
    7  A    between atoms: C_8  and  C_13
    8  A    between atoms: C_8  and  C_40
    9  A    between atoms: C_12  and  C_21
   10  A    between atoms: C_12  and  C_30
   11  A    between atoms: C_13  and  C_39
   12  A    between atoms: C_20  and  O_28
   13  A    between atoms: C_20  and  C_37
   14  A    between atoms: C_21  and  C_39
   15  A    between atoms: C_22  and  C_27
   16  A    between atoms: C_24  and  S_31
   17  A    between atoms: C_27  and  S_31
   18  A    between atoms: C_27  and  C_32
   19  A    between atoms: O_28  and  C_33
   20  A    between atoms: C_34  and  C_37
                            x       y       z     vdW  Elec       q    Type
                         _______ _______ _______ _____ _____    ______ ____

>  <TORSDO>
F 20

$$$$
=
 OpenBabel11072410553D

 40 42  0  0  1  0  0  0  0  0999 V2000
  161.0470  212.9700  149.5580 C   0  0  1  0  0  3  0  0  0  0  0  0
  161.6150  213.8090  148.4210 C   0  0  0  0  0  1  0  0  0  0  0  0
  159.5310  212.8450  149.4360 C   0  0  0  0  0  2  0  0  0  0  0  0
  158.7610  213.2230  150.7090 C   0  0  2  0  0  3  0  0  0  0  0  0
  156.7130  213.5210  149.1940 C   0  0  0  0  0  2  0  0  0  0  0  0
  154.5710  213.7870  150.2560 O   0  0  0  0  0  0  0  0  0  0  0  0
  155.1380  214.4170  151.3760 C   0  0  0  0  0  2  0  0  0  0  0  0
  156.5000  213.7930  151.6980 C   0  0  0  0  0  2  0  0  0  0  0  0
  157.4220  213.9390  150.4870 C   0  0  0  0  0  3  0  0  0  0  0  0
  155.3350  214.1820  149.1430 C   0  0  0  0  0  2  0  0  0  0  0  0
  159.7980  214.0430  151.9690 S   0  0  0  0  0  0  0  0  0  0  0  0
  160.0280  210.2640  154.5700 C   0  0  0  0  0  0  0  0  0  0  0  0
  160.1700  210.1740  153.1790 C   0  0  0  0  0  3  0  0  0  0  0  0
  159.7540  212.6700  154.3670 C   0  0  0  0  0  3  0  0  0  0  0  0
  159.8950  212.5710  152.9810 C   0  0  0  0  0  0  0  0  0  0  0  0
  160.1010  211.3220  152.3870 C   0  0  0  0  0  3  0  0  0  0  0  0
  159.8200  211.5210  155.1590 C   0  0  0  0  0  3  0  0  0  0  0  0
  161.2660  208.2520  155.4340 N   0  0  0  0  0  1  0  0  0  0  0  0
  159.0970  208.7160  156.1050 O   0  0  0  0  0  0  0  0  0  0  0  0
  160.0880  209.0530  155.4070 C   0  0  0  0  0  0  0  0  0  0  0  0
  161.6810  211.5840  149.5620 C   0  0  0  0  0  2  0  0  0  0  0  0
  161.2860  210.8550  148.4320 O   0  0  0  0  0  0  0  0  0  0  0  0
  162.3420  209.9730  148.1840 C   0  0  0  0  0  2  0  0  0  0  0  0
  162.1820  208.7230  149.0320 C   0  0  0  0  0  2  0  0  0  0  0  0
  161.6630  206.3240  148.8920 C   0  0  2  0  0  3  0  0  0  0  0  0
  160.4660  207.0580  148.9930 O   0  0  0  0  0  0  0  0  0  0  0  0
  161.4950  207.6360  148.2260 C   0  0  1  0  0  3  0  0  0  0  0  0
  161.4930  205.2150  147.8610 C   0  0  2  0  0  3  0  0  0  0  0  0
  161.6020  202.8480  147.9520 O   0  0  0  0  0  0  0  0  0  0  0  0
  161.2420  203.8800  148.5000 C   0  0  0  0  0  0  0  0  0  0  0  0
  160.5270  203.8230  149.8150 C   0  0  0  0  0  2  0  0  0  0  0  0
  161.4900  203.6090  150.9820 C   0  0  0  0  0  2  0  0  0  0  0  0
  160.9700  204.2120  152.2810 C   0  0  0  0  0  2  0  0  0  0  0  0
  161.3780  206.8490  152.3400 C   0  0  0  0  0  3  0  0  0  0  0  0
  161.1920  205.6600  152.3180 C   0  0  0  0  0  0  0  0  0  0  0  0
  162.6690  205.1720  146.8890 C   0  0  0  0  0  2  0  0  0  0  0  0
  162.3740  205.8650  145.7100 O   0  0  0  0  0  0  0  0  0  0  0  0
  159.6490  206.2110  145.3380 O   0  0  0  0  0  0  0  0  0  0  0  0
  160.6810  203.8720  144.7820 O   0  0  0  0  0  0  0  0  0  0  0  0
  160.8460  205.2980  145.2580 P   0  0  0  0  0  0  0  0  0  0  0  0
  1  2  1  6  0  0  0
  1 21  1  0  0  0  0
  3  1  1  0  0  0  0
  4  3  1  6  0  0  0
  4 11  1  0  0  0  0
  5  9  1  0  0  0  0
  6  7  1  0  0  0  0
  7  8  1  0  0  0  0
  9  4  1  0  0  0  0
  9  8  1  0  0  0  0
 10  5  1  0  0  0  0
 10  6  1  0  0  0  0
 11 15  1  0  0  0  0
 12 17  1  0  0  0  0
 12 20  1  0  0  0  0
 13 12  2  0  0  0  0
 14 17  2  0  0  0  0
 15 14  1  0  0  0  0
 16 15  2  0  0  0  0
 16 13  1  0  0  0  0
 20 18  1  0  0  0  0
 20 19  2  0  0  0  0
 22 21  1  0  0  0  0
 23 22  1  0  0  0  0
 23 24  1  0  0  0  0
 25 28  1  6  0  0  0
 25 26  1  0  0  0  0
 27 25  1  0  0  0  0
 27 26  1  0  0  0  0
 27 24  1  1  0  0  0
 28 36  1  1  0  0  0
 28 30  1  0  0  0  0
 29 30  2  0  0  0  0
 30 31  1  0  0  0  0
 31 32  1  0  0  0  0
 32 33  1  0  0  0  0
 33 35  1  0  0  0  0
 35 34  3  0  0  0  0
 37 36  1  0  0  0  0
 39 40  2  0  0  0  0
 40 38  2  0  0  0  0
 40 37  1  0  0  0  0
M  END
>  <MODEL>
7

>  <REMARK>
 VINA RESULT:      -5.4      2.589      4.480
  Name = 
  20 active torsions:
  status: ('A' for Active; 'I' for Inactive)
    1  A    between atoms: C_2  and  C_8
    2  A    between atoms: C_3  and  C_32
    3  A    between atoms: C_3  and  C_33
    4  A    between atoms: C_5  and  C_38
    5  A    between atoms: O_6  and  P_35
    6  A    between atoms: O_6  and  C_40
    7  A    between atoms: C_8  and  C_13
    8  A    between atoms: C_8  and  C_40
    9  A    between atoms: C_12  and  C_21
   10  A    between atoms: C_12  and  C_30
   11  A    between atoms: C_13  and  C_39
   12  A    between atoms: C_20  and  O_28
   13  A    between atoms: C_20  and  C_37
   14  A    between atoms: C_21  and  C_39
   15  A    between atoms: C_22  and  C_27
   16  A    between atoms: C_24  and  S_31
   17  A    between atoms: C_27  and  S_31
   18  A    between atoms: C_27  and  C_32
   19  A    between atoms: O_28  and  C_33
   20  A    between atoms: C_34  and  C_37
                            x       y       z     vdW  Elec       q    Type
                         _______ _______ _______ _____ _____    ______ ____

>  <TORSDO>
F 20

$$$$
=
 OpenBabel11072410553D

 40 42  0  0  1  0  0  0  0  0999 V2000
  161.3600  207.1470  152.6480 C   0  0  1  0  0  3  0  0  0  0  0  0
  161.2590  207.2280  154.1650 C   0  0  0  0  0  1  0  0  0  0  0  0
  160.8180  205.8140  152.1380 C   0  0  0  0  0  2  0  0  0  0  0  0
  161.1710  205.5060  150.6760 C   0  0  2  0  0  3  0  0  0  0  0  0
  161.2360  203.0980  151.5580 C   0  0  0  0  0  2  0  0  0  0  0  0
  160.3690  201.3660  150.1320 O   0  0  0  0  0  0  0  0  0  0  0  0
  160.7370  202.0590  148.9670 C   0  0  0  0  0  2  0  0  0  0  0  0
  160.5530  203.5660  149.1700 C   0  0  0  0  0  2  0  0  0  0  0  0
  161.4100  204.0250  150.3510 C   0  0  0  0  0  3  0  0  0  0  0  0
  161.3550  201.6450  151.0940 C   0  0  0  0  0  2  0  0  0  0  0  0
  162.4690  206.5960  149.9970 S   0  0  0  0  0  0  0  0  0  0  0  0
  161.2580  205.7050  145.6570 C   0  0  0  0  0  0  0  0  0  0  0  0
  160.5710  206.6770  146.3970 C   0  0  0  0  0  3  0  0  0  0  0  0
  162.6910  205.2860  147.5740 C   0  0  0  0  0  3  0  0  0  0  0  0
  162.0010  206.2550  148.3050 C   0  0  0  0  0  0  0  0  0  0  0  0
  160.9390  206.9500  147.7170 C   0  0  0  0  0  3  0  0  0  0  0  0
  162.3220  205.0110  146.2560 C   0  0  0  0  0  3  0  0  0  0  0  0
  161.4740  206.0980  143.1820 N   0  0  0  0  0  1  0  0  0  0  0  0
  159.9860  204.5390  144.0330 O   0  0  0  0  0  0  0  0  0  0  0  0
  160.8660  205.4070  144.2690 C   0  0  0  0  0  0  0  0  0  0  0  0
  160.5940  208.2970  152.0030 C   0  0  0  0  0  2  0  0  0  0  0  0
  161.4770  209.2050  151.4020 O   0  0  0  0  0  0  0  0  0  0  0  0
  161.2460  210.4190  152.0560 C   0  0  0  0  0  2  0  0  0  0  0  0
  159.7530  210.6360  152.2310 C   0  0  0  0  0  2  0  0  0  0  0  0
  158.0470  212.1670  153.1220 C   0  0  2  0  0  3  0  0  0  0  0  0
  158.8970  211.7520  154.1650 O   0  0  0  0  0  0  0  0  0  0  0  0
  159.5000  211.9680  152.9120 C   0  0  1  0  0  3  0  0  0  0  0  0
  157.7630  213.6570  153.2620 C   0  0  2  0  0  3  0  0  0  0  0  0
  158.1250  214.4080  155.4830 O   0  0  0  0  0  0  0  0  0  0  0  0
  157.3170  214.0200  154.6500 C   0  0  0  0  0  0  0  0  0  0  0  0
  155.8710  213.8870  155.0110 C   0  0  0  0  0  2  0  0  0  0  0  0
  155.6800  213.3810  156.4400 C   0  0  0  0  0  2  0  0  0  0  0  0
  156.2790  211.9960  156.6520 C   0  0  0  0  0  2  0  0  0  0  0  0
  155.1880  210.2150  154.9900 C   0  0  0  0  0  3  0  0  0  0  0  0
  155.6850  211.0180  155.7370 C   0  0  0  0  0  0  0  0  0  0  0  0
  156.7780  214.1390  152.2010 C   0  0  0  0  0  2  0  0  0  0  0  0
  157.4180  214.3430  150.9750 O   0  0  0  0  0  0  0  0  0  0  0  0
  154.7310  214.4440  150.3000 O   0  0  0  0  0  0  0  0  0  0  0  0
  156.4820  214.2780  148.3640 O   0  0  0  0  0  0  0  0  0  0  0  0
  156.1640  214.3590  149.8400 P   0  0  0  0  0  0  0  0  0  0  0  0
  1  2  1  1  0  0  0
  3  1  1  0  0  0  0
  4  3  1  1  0  0  0
  6 10  1  0  0  0  0
  7  8  1  0  0  0  0
  7  6  1  0  0  0  0
  8  9  1  0  0  0  0
  9  4  1  0  0  0  0
  9  5  1  0  0  0  0
 10  5  1  0  0  0  0
 11  4  1  0  0  0  0
 12 17  2  0  0  0  0
 12 13  1  0  0  0  0
 13 16  2  0  0  0  0
 14 15  2  0  0  0  0
 15 11  1  0  0  0  0
 16 15  1  0  0  0  0
 17 14  1  0  0  0  0
 18 20  1  0  0  0  0
 19 20  2  0  0  0  0
 20 12  1  0  0  0  0
 21  1  1  0  0  0  0
 22 21  1  0  0  0  0
 22 23  1  0  0  0  0
 23 24  1  0  0  0  0
 25 28  1  1  0  0  0
 25 26  1  0  0  0  0
 27 24  1  6  0  0  0
 27 25  1  0  0  0  0
 27 26  1  0  0  0  0
 28 36  1  6  0  0  0
 28 30  1  0  0  0  0
 30 31  1  0  0  0  0
 30 29  2  0  0  0  0
 31 32  1  0  0  0  0
 32 33  1  0  0  0  0
 34 35  3  0  0  0  0
 35 33  1  0  0  0  0
 37 36  1  0  0  0  0
 39 40  2  0  0  0  0
 40 38  2  0  0  0  0
 40 37  1  0  0  0  0
M  END
>  <MODEL>
8

>  <REMARK>
 VINA RESULT:      -5.0      3.361      9.354
  Name = 
  20 active torsions:
  status: ('A' for Active; 'I' for Inactive)
    1  A    between atoms: C_2  and  C_8
    2  A    between atoms: C_3  and  C_32
    3  A    between atoms: C_3  and  C_33
    4  A    between atoms: C_5  and  C_38
    5  A    between atoms: O_6  and  P_35
    6  A    between atoms: O_6  and  C_40
    7  A    between atoms: C_8  and  C_13
    8  A    between atoms: C_8  and  C_40
    9  A    between atoms: C_12  and  C_21
   10  A    between atoms: C_12  and  C_30
   11  A    between atoms: C_13  and  C_39
   12  A    between atoms: C_20  and  O_28
   13  A    between atoms: C_20  and  C_37
   14  A    between atoms: C_21  and  C_39
   15  A    between atoms: C_22  and  C_27
   16  A    between atoms: C_24  and  S_31
   17  A    between atoms: C_27  and  S_31
   18  A    between atoms: C_27  and  C_32
   19  A    between atoms: O_28  and  C_33
   20  A    between atoms: C_34  and  C_37
                            x       y       z     vdW  Elec       q    Type
                         _______ _______ _______ _____ _____    ______ ____

>  <TORSDO>
F 20

$$$$
=
 OpenBabel11072410553D

 40 42  0  0  1  0  0  0  0  0999 V2000
  160.8810  211.0320  151.9510 C   0  0  1  0  0  3  0  0  0  0  0  0
  160.4540  212.3710  151.3660 C   0  0  0  0  0  1  0  0  0  0  0  0
  159.6830  210.2890  152.5370 C   0  0  0  0  0  2  0  0  0  0  0  0
  159.6920  210.1820  154.0680 C   0  0  2  0  0  3  0  0  0  0  0  0
  160.0190  212.4320  155.2560 C   0  0  0  0  0  2  0  0  0  0  0  0
  158.3460  214.1270  154.9110 O   0  0  0  0  0  0  0  0  0  0  0  0
  157.3280  213.1720  154.7500 C   0  0  0  0  0  2  0  0  0  0  0  0
  157.8710  211.9420  154.0160 C   0  0  0  0  0  2  0  0  0  0  0  0
  159.0300  211.3460  154.8180 C   0  0  0  0  0  3  0  0  0  0  0  0
  159.2420  213.6020  155.8610 C   0  0  0  0  0  2  0  0  0  0  0  0
  161.3250  209.7380  154.7560 S   0  0  0  0  0  0  0  0  0  0  0  0
  161.2150  205.5100  152.9650 C   0  0  0  0  0  0  0  0  0  0  0  0
  160.5240  205.7930  154.1510 C   0  0  0  0  0  3  0  0  0  0  0  0
  161.9660  207.8190  152.8730 C   0  0  0  0  0  3  0  0  0  0  0  0
  161.2760  208.0930  154.0560 C   0  0  0  0  0  0  0  0  0  0  0  0
  160.5550  207.0790  154.6960 C   0  0  0  0  0  3  0  0  0  0  0  0
  161.9360  206.5330  152.3300 C   0  0  0  0  0  3  0  0  0  0  0  0
  162.2840  203.6810  151.6070 N   0  0  0  0  0  1  0  0  0  0  0  0
  160.2060  203.3980  152.5940 O   0  0  0  0  0  0  0  0  0  0  0  0
  161.1930  204.1520  152.3940 C   0  0  0  0  0  0  0  0  0  0  0  0
  161.5480  210.1750  150.8820 C   0  0  0  0  0  2  0  0  0  0  0  0
  161.6680  210.8870  149.6800 O   0  0  0  0  0  0  0  0  0  0  0  0
  162.2280  209.9780  148.7770 C   0  0  0  0  0  2  0  0  0  0  0  0
  161.8110  208.5640  149.1410 C   0  0  0  0  0  2  0  0  0  0  0  0
  161.5320  206.3090  148.2020 C   0  0  2  0  0  3  0  0  0  0  0  0
  161.1330  207.2670  147.2500 O   0  0  0  0  0  0  0  0  0  0  0  0
  162.2410  207.6010  148.0500 C   0  0  1  0  0  3  0  0  0  0  0  0
  162.3360  205.2140  147.5120 C   0  0  2  0  0  3  0  0  0  0  0  0
  162.4120  206.1910  145.3520 O   0  0  0  0  0  0  0  0  0  0  0  0
  162.1280  205.2100  146.0250 C   0  0  0  0  0  0  0  0  0  0  0  0
  161.5510  203.9930  145.3720 C   0  0  0  0  0  2  0  0  0  0  0  0
  160.0810  204.1830  144.9990 C   0  0  0  0  0  2  0  0  0  0  0  0
  159.5360  203.0240  144.1750 C   0  0  0  0  0  2  0  0  0  0  0  0
  160.0940  200.6750  145.3140 C   0  0  0  0  0  3  0  0  0  0  0  0
  159.8440  201.7370  144.8040 C   0  0  0  0  0  0  0  0  0  0  0  0
  162.0620  203.8470  148.1320 C   0  0  0  0  0  2  0  0  0  0  0  0
  160.7810  203.7940  148.6880 O   0  0  0  0  0  0  0  0  0  0  0  0
  161.5560  201.1320  148.6380 O   0  0  0  0  0  0  0  0  0  0  0  0
  159.0510  201.6770  149.1610 O   0  0  0  0  0  0  0  0  0  0  0  0
  160.4530  202.1410  148.8380 P   0  0  0  0  0  0  0  0  0  0  0  0
  1  2  1  6  0  0  0
  1  3  1  0  0  0  0
  4  3  1  6  0  0  0
  4 11  1  0  0  0  0
  4  9  1  0  0  0  0
  5 10  1  0  0  0  0
  6 10  1  0  0  0  0
  7  6  1  0  0  0  0
  8  7  1  0  0  0  0
  8  9  1  0  0  0  0
  9  5  1  0  0  0  0
 12 13  1  0  0  0  0
 13 16  2  0  0  0  0
 14 15  2  0  0  0  0
 15 16  1  0  0  0  0
 15 11  1  0  0  0  0
 17 14  1  0  0  0  0
 17 12  2  0  0  0  0
 18 20  1  0  0  0  0
 20 19  2  0  0  0  0
 20 12  1  0  0  0  0
 21  1  1  0  0  0  0
 22 21  1  0  0  0  0
 23 24  1  0  0  0  0
 23 22  1  0  0  0  0
 25 28  1  6  0  0  0
 26 27  1  0  0  0  0
 26 25  1  0  0  0  0
 27 25  1  0  0  0  0
 27 24  1  1  0  0  0
 28 36  1  1  0  0  0
 29 30  2  0  0  0  0
 30 28  1  0  0  0  0
 31 30  1  0  0  0  0
 32 31  1  0  0  0  0
 33 35  1  0  0  0  0
 33 32  1  0  0  0  0
 35 34  3  0  0  0  0
 36 37  1  0  0  0  0
 37 40  1  0  0  0  0
 38 40  2  0  0  0  0
 40 39  2  0  0  0  0
M  END
>  <MODEL>
9

>  <REMARK>
 VINA RESULT:      -4.8      3.064      5.925
  Name = 
  20 active torsions:
  status: ('A' for Active; 'I' for Inactive)
    1  A    between atoms: C_2  and  C_8
    2  A    between atoms: C_3  and  C_32
    3  A    between atoms: C_3  and  C_33
    4  A    between atoms: C_5  and  C_38
    5  A    between atoms: O_6  and  P_35
    6  A    between atoms: O_6  and  C_40
    7  A    between atoms: C_8  and  C_13
    8  A    between atoms: C_8  and  C_40
    9  A    between atoms: C_12  and  C_21
   10  A    between atoms: C_12  and  C_30
   11  A    between atoms: C_13  and  C_39
   12  A    between atoms: C_20  and  O_28
   13  A    between atoms: C_20  and  C_37
   14  A    between atoms: C_21  and  C_39
   15  A    between atoms: C_22  and  C_27
   16  A    between atoms: C_24  and  S_31
   17  A    between atoms: C_27  and  S_31
   18  A    between atoms: C_27  and  C_32
   19  A    between atoms: O_28  and  C_33
   20  A    between atoms: C_34  and  C_37
                            x       y       z     vdW  Elec       q    Type
                         _______ _______ _______ _____ _____    ______ ____

>  <TORSDO>
F 20

$$$$
