=
 OpenBabel11072413393D

 59 67  0  0  1  0  0  0  0  0999 V2000
  160.9710  205.5370  148.7940 C   0  0  0  0  0  2  0  0  0  0  0  0
  161.0860  206.5500  147.6990 C   0  0  1  0  0  3  0  0  0  0  0  0
  161.0860  206.4360  150.0080 C   0  0  2  0  0  3  0  0  0  0  0  0
  161.9440  207.5150  149.6950 O   0  0  0  0  0  0  0  0  0  0  0  0
  162.0090  207.5830  148.2900 C   0  0  2  0  0  3  0  0  0  0  0  0
  161.5970  206.0700  146.3340 C   0  0  2  0  0  3  0  0  0  0  0  0
  160.5260  206.9060  144.3170 F   0  0  0  0  0  0  0  0  0  0  0  0
  159.2120  206.1470  146.0160 F   0  0  0  0  0  0  0  0  0  0  0  0
  160.4170  205.9960  145.3620 C   0  0  0  0  0  3  0  0  0  0  0  0
  162.4190  204.7810  146.3700 C   0  0  0  0  0  2  0  0  0  0  0  0
  161.2400  202.8590  145.4460 C   0  0  0  0  0  3  0  0  0  0  0  0
  160.3560  201.6660  145.5680 C   0  0  0  0  0  1  0  0  0  0  0  0
  161.5360  203.5810  146.5160 C   0  0  0  0  0  3  0  0  0  0  0  0
  161.5830  205.6840  151.2580 C   0  0  2  0  0  3  0  0  0  0  0  0
  161.1810  204.3240  151.2890 O   0  0  0  0  0  0  0  0  0  0  0  0
  160.9430  203.9380  152.6210 C   0  0  0  0  0  1  0  0  0  0  0  0
  161.2220  206.4450  152.5410 C   0  0  0  0  0  2  0  0  0  0  0  0
  160.8740  207.9000  152.2720 C   0  0  0  0  0  2  0  0  0  0  0  0
  161.6800  208.8010  153.1840 C   0  0  0  0  0  2  0  0  0  0  0  0
  161.2930  209.6160  155.6930 C   0  0  1  0  0  0  0  0  0  0  0  0
  159.6260  208.5720  154.5070 C   0  0  0  0  0  2  0  0  0  0  0  0
  160.0130  207.7650  155.6760 N   0  0  1  0  0  0  0  0  0  0  0  0
  161.4190  208.1350  155.8260 C   0  0  2  0  0  3  0  0  0  0  0  0
  159.3080  208.4260  156.7730 C   0  0  0  0  0  2  0  0  0  0  0  0
  162.0390  207.6730  157.1450 C   0  0  0  0  0  1  0  0  0  0  0  0
  161.7300  210.6860  154.6780 C   0  0  1  0  0  0  0  0  0  0  0  0
  160.7960  209.5300  154.2180 C   0  0  2  0  0  0  0  0  0  0  0  0
  159.9910  210.1110  156.9360 S   0  0  0  0  0  0  0  0  0  0  0  0
  160.9030  211.8560  154.2740 N   0  0  0  0  0  0  0  0  0  0  0  0
  161.5890  211.8220  155.4450 O   0  0  0  0  0  0  0  0  0  0  0  0
  159.5880  211.7610  154.6370 O   0  0  0  0  0  0  0  0  0  0  0  0
  158.8640  212.7310  153.9040 C   0  0  2  0  0  3  0  0  0  0  0  0
  158.7960  214.1040  154.5980 C   0  0  0  0  0  2  0  0  0  0  0  0
  157.4330  212.2290  153.7090 C   0  0  0  0  0  2  0  0  0  0  0  0
  156.7300  212.0740  155.0600 C   0  0  0  0  0  2  0  0  0  0  0  0
  156.7320  213.3780  155.8710 C   0  0  1  0  0  3  0  0  0  0  0  0
  158.1380  213.9910  155.9700 C   0  0  0  0  0  2  0  0  0  0  0  0
  155.7060  214.3700  155.3150 C   0  0  0  0  0  2  0  0  0  0  0  0
  154.9510  213.7890  154.2250 N   0  0  0  0  0  0  0  0  0  0  0  0
  154.0180  214.4530  153.6360 C   0  0  0  0  0  2  0  0  0  0  0  0
  161.6180  208.8730  147.8440 O   0  0  0  0  0  0  0  0  0  0  0  0
  161.6400  210.0230  148.6390 C   0  0  0  0  0  0  0  0  0  0  0  0
  162.2360  209.9560  149.7450 O   0  0  0  0  0  0  0  0  0  0  0  0
  161.0600  211.3530  148.1960 C   0  0  2  0  0  3  0  0  0  0  0  0
  161.3780  211.6230  146.7460 C   0  0  2  0  0  3  0  0  0  0  0  0
  162.3470  213.3810  148.0040 O   0  0  0  0  0  0  0  0  0  0  0  0
  161.8220  213.0680  146.7360 C   0  0  1  0  0  3  0  0  0  0  0  0
  160.2500  211.4600  145.9590 F   0  0  0  0  0  0  0  0  0  0  0  0
  161.6790  212.5480  148.9210 C   0  0  1  0  0  3  0  0  0  0  0  0
  160.5540  212.8750  151.0290 O   0  0  0  0  0  1  0  0  0  0  0  0
  160.6280  213.3310  149.7110 C   0  0  0  0  0  2  0  0  0  0  0  0
  162.8020  213.2570  145.7570 O   0  0  0  0  0  0  0  0  0  0  0  0
  161.8740  212.3190  143.1790 C   0  0  0  0  0  2  0  0  0  0  0  0
  162.3430  213.7030  142.7770 C   0  0  2  0  0  0  0  0  0  0  0  0
  162.2680  214.1990  144.8680 C   0  0  1  0  0  3  0  0  0  0  0  0
  163.2450  214.4480  143.7400 C   0  0  0  0  0  2  0  0  0  0  0  0
  161.3050  213.5330  143.8870 C   0  0  2  0  0  3  0  0  0  0  0  0
  161.6530  214.4520  141.6590 C   0  0  0  0  0  2  0  0  0  0  0  0
  162.1820  214.0150  140.3770 N   0  0  0  0  0  1  0  0  0  0  0  0
  1  3  1  0  0  0  0
  2  6  1  6  0  0  0
  2  5  1  0  0  0  0
  2  1  1  0  0  0  0
  3 14  1  1  0  0  0
  4  3  1  0  0  0  0
  5 41  1  6  0  0  0
  5  4  1  0  0  0  0
  6 10  1  1  0  0  0
  7  9  1  0  0  0  0
  9  8  1  0  0  0  0
  9  6  1  0  0  0  0
 10 13  1  0  0  0  0
 11 12  1  0  0  0  0
 11 13  2  0  0  0  0
 14 15  1  0  0  0  0
 14 17  1  1  0  0  0
 15 16  1  0  0  0  0
 18 17  1  0  0  0  0
 18 19  1  0  0  0  0
 20 23  1  0  0  0  0
 20 28  1  1  0  0  0
 22 21  1  6  0  0  0
 22 23  1  0  0  0  0
 22 24  1  0  0  0  0
 23 25  1  1  0  0  0
 24 28  1  0  0  0  0
 26 30  1  6  0  0  0
 26 20  1  0  0  0  0
 27 19  1  6  0  0  0
 27 21  1  0  0  0  0
 27 26  1  0  0  0  0
 27 20  1  0  0  0  0
 29 31  1  0  0  0  0
 29 26  1  0  0  0  0
 29 30  1  0  0  0  0
 32 33  1  0  0  0  0
 32 31  1  1  0  0  0
 33 37  1  0  0  0  0
 34 32  1  0  0  0  0
 34 35  1  0  0  0  0
 35 36  1  0  0  0  0
 36 38  1  6  0  0  0
 36 37  1  0  0  0  0
 39 38  1  0  0  0  0
 40 39  2  0  0  0  0
 41 42  1  0  0  0  0
 42 43  2  0  0  0  0
 44 42  1  1  0  0  0
 44 49  1  0  0  0  0
 45 48  1  6  0  0  0
 45 44  1  0  0  0  0
 46 49  1  0  0  0  0
 47 52  1  6  0  0  0
 47 45  1  0  0  0  0
 47 46  1  0  0  0  0
 49 51  1  6  0  0  0
 51 50  1  0  0  0  0
 54 58  1  6  0  0  0
 54 53  1  0  0  0  0
 54 56  1  0  0  0  0
 54 57  1  0  0  0  0
 55 52  1  1  0  0  0
 56 55  1  0  0  0  0
 57 53  1  1  0  0  0
 57 55  1  0  0  0  0
 59 58  1  0  0  0  0
M  END
>  <MODEL>
1

>  <REMARK>
 VINA RESULT:      -5.2      0.000      0.000
  Name = 
  21 active torsions:
  status: ('A' for Active; 'I' for Inactive)
    1  A    between atoms: C_1  and  C_3
    2  A    between atoms: C_1  and  C_24
    3  A    between atoms: C_3  and  C_36
    4  A    between atoms: C_4  and  C_37
    5  A    between atoms: N_6  and  C_30
    6  A    between atoms: C_7  and  C_27
    7  A    between atoms: O_8  and  C_29
    8  A    between atoms: O_8  and  C_32
    9  A    between atoms: C_9  and  O_34
   10  A    between atoms: O_22  and  C_36
   11  A    between atoms: C_24  and  C_51
   12  A    between atoms: C_27  and  C_28
   13  A    between atoms: C_27  and  C_40
   14  A    between atoms: C_30  and  C_55
   15  A    between atoms: C_31  and  C_43
   16  A    between atoms: O_34  and  N_58
   17  A    between atoms: C_36  and  C_47
   18  A    between atoms: C_37  and  O_46
   19  A    between atoms: C_40  and  C_53
   20  A    between atoms: C_44  and  C_50
   21  A    between atoms: O_46  and  C_54
                            x       y       z     vdW  Elec       q    Type
                         _______ _______ _______ _____ _____    ______ ____

>  <TORSDO>
F 21

$$$$
=
 OpenBabel11072413393D

 59 67  0  0  1  0  0  0  0  0999 V2000
  161.2670  205.7630  149.1130 C   0  0  0  0  0  2  0  0  0  0  0  0
  161.4250  206.8220  148.0680 C   0  0  1  0  0  3  0  0  0  0  0  0
  161.5790  206.5630  150.3610 C   0  0  2  0  0  3  0  0  0  0  0  0
  162.5390  207.5500  150.0390 O   0  0  0  0  0  0  0  0  0  0  0  0
  162.5090  207.6990  148.6390 C   0  0  2  0  0  3  0  0  0  0  0  0
  161.7720  206.3720  146.6430 C   0  0  2  0  0  3  0  0  0  0  0  0
  160.2650  207.1300  144.8920 F   0  0  0  0  0  0  0  0  0  0  0  0
  159.3850  206.0660  146.7040 F   0  0  0  0  0  0  0  0  0  0  0  0
  160.4740  206.1580  145.8620 C   0  0  0  0  0  3  0  0  0  0  0  0
  162.7220  205.1770  146.5570 C   0  0  0  0  0  2  0  0  0  0  0  0
  161.4300  203.4100  145.4860 C   0  0  0  0  0  3  0  0  0  0  0  0
  160.6700  202.1300  145.5070 C   0  0  0  0  0  1  0  0  0  0  0  0
  161.9690  203.8840  146.5990 C   0  0  0  0  0  3  0  0  0  0  0  0
  162.0700  205.6800  151.5240 C   0  0  2  0  0  3  0  0  0  0  0  0
  161.9430  204.2910  151.2640 O   0  0  0  0  0  0  0  0  0  0  0  0
  160.9150  203.7590  152.0650 C   0  0  0  0  0  1  0  0  0  0  0  0
  161.4230  206.1040  152.8510 C   0  0  0  0  0  2  0  0  0  0  0  0
  160.7630  207.4700  152.7610 C   0  0  0  0  0  2  0  0  0  0  0  0
  161.6380  208.5100  153.4280 C   0  0  0  0  0  2  0  0  0  0  0  0
  161.3120  209.1420  155.9980 C   0  0  1  0  0  0  0  0  0  0  0  0
  159.5210  208.6020  154.6650 C   0  0  0  0  0  2  0  0  0  0  0  0
  159.6710  207.6210  155.7520 N   0  0  1  0  0  0  0  0  0  0  0  0
  161.1150  207.6630  155.9780 C   0  0  2  0  0  3  0  0  0  0  0  0
  159.0700  208.3090  156.8940 C   0  0  0  0  0  2  0  0  0  0  0  0
  161.5590  206.9520  157.2570 C   0  0  0  0  0  1  0  0  0  0  0  0
  162.0140  210.1860  155.1130 C   0  0  1  0  0  0  0  0  0  0  0  0
  160.8800  209.3090  154.5090 C   0  0  2  0  0  0  0  0  0  0  0  0
  160.0860  209.7830  157.2510 S   0  0  0  0  0  0  0  0  0  0  0  0
  161.4750  211.5400  154.8130 N   0  0  0  0  0  0  0  0  0  0  0  0
  162.0810  211.2460  155.9910 O   0  0  0  0  0  0  0  0  0  0  0  0
  160.1530  211.6960  155.1280 O   0  0  0  0  0  0  0  0  0  0  0  0
  159.7950  213.0370  154.8490 C   0  0  2  0  0  3  0  0  0  0  0  0
  158.5250  213.5010  155.5850 C   0  0  0  0  0  2  0  0  0  0  0  0
  159.5460  213.1730  153.3460 C   0  0  0  0  0  2  0  0  0  0  0  0
  158.3670  212.2960  152.9150 C   0  0  0  0  0  2  0  0  0  0  0  0
  157.0860  212.6170  153.7000 C   0  0  1  0  0  3  0  0  0  0  0  0
  157.3290  212.6290  155.2160 C   0  0  0  0  0  2  0  0  0  0  0  0
  156.4540  213.9210  153.2040 C   0  0  0  0  0  2  0  0  0  0  0  0
  156.4390  213.9820  151.7580 N   0  0  0  0  0  0  0  0  0  0  0  0
  155.3290  213.9880  151.1060 C   0  0  0  0  0  2  0  0  0  0  0  0
  162.2490  209.0520  148.2950 O   0  0  0  0  0  0  0  0  0  0  0  0
  162.0050  210.0690  149.2240 C   0  0  0  0  0  0  0  0  0  0  0  0
  161.8070  209.7310  150.4200 O   0  0  0  0  0  0  0  0  0  0  0  0
  162.0540  211.5440  148.8750 C   0  0  2  0  0  3  0  0  0  0  0  0
  160.7670  212.2310  149.2580 C   0  0  2  0  0  3  0  0  0  0  0  0
  161.0200  212.4950  146.9170 O   0  0  0  0  0  0  0  0  0  0  0  0
  160.4420  213.0890  148.0560 C   0  0  1  0  0  3  0  0  0  0  0  0
  160.9500  213.0240  150.3800 F   0  0  0  0  0  0  0  0  0  0  0  0
  162.1570  211.8010  147.3720 C   0  0  1  0  0  3  0  0  0  0  0  0
  164.0210  213.1130  148.1580 O   0  0  0  0  0  1  0  0  0  0  0  0
  163.4390  212.5560  147.0170 C   0  0  0  0  0  2  0  0  0  0  0  0
  159.0560  213.1750  147.8950 O   0  0  0  0  0  0  0  0  0  0  0  0
  158.1800  212.3880  145.2500 C   0  0  0  0  0  2  0  0  0  0  0  0
  159.0040  213.6040  144.8780 C   0  0  2  0  0  0  0  0  0  0  0  0
  158.8520  214.1830  146.9430 C   0  0  1  0  0  3  0  0  0  0  0  0
  159.9630  214.1490  145.9170 C   0  0  0  0  0  2  0  0  0  0  0  0
  157.8550  213.7290  145.8790 C   0  0  2  0  0  3  0  0  0  0  0  0
  158.6240  214.4530  143.6850 C   0  0  0  0  0  2  0  0  0  0  0  0
  158.7690  213.6740  142.4650 N   0  0  0  0  0  1  0  0  0  0  0  0
  1  3  1  0  0  0  0
  2  6  1  6  0  0  0
  2  5  1  0  0  0  0
  2  1  1  0  0  0  0
  3 14  1  1  0  0  0
  4  3  1  0  0  0  0
  5 41  1  1  0  0  0
  5  4  1  0  0  0  0
  6 10  1  1  0  0  0
  7  9  1  0  0  0  0
  9  6  1  0  0  0  0
  9  8  1  0  0  0  0
 10 13  1  0  0  0  0
 11 12  1  0  0  0  0
 11 13  2  0  0  0  0
 14 17  1  1  0  0  0
 15 14  1  0  0  0  0
 15 16  1  0  0  0  0
 18 17  1  0  0  0  0
 18 19  1  0  0  0  0
 20 28  1  1  0  0  0
 22 21  1  6  0  0  0
 22 23  1  0  0  0  0
 22 24  1  0  0  0  0
 23 20  1  0  0  0  0
 23 25  1  1  0  0  0
 24 28  1  0  0  0  0
 26 30  1  6  0  0  0
 26 20  1  0  0  0  0
 27 19  1  6  0  0  0
 27 21  1  0  0  0  0
 27 26  1  0  0  0  0
 27 20  1  0  0  0  0
 29 26  1  0  0  0  0
 29 31  1  0  0  0  0
 29 30  1  0  0  0  0
 32 31  1  6  0  0  0
 32 33  1  0  0  0  0
 34 32  1  0  0  0  0
 35 34  1  0  0  0  0
 35 36  1  0  0  0  0
 36 38  1  6  0  0  0
 36 37  1  0  0  0  0
 37 33  1  0  0  0  0
 39 38  1  0  0  0  0
 40 39  2  0  0  0  0
 41 42  1  0  0  0  0
 42 43  2  0  0  0  0
 44 42  1  6  0  0  0
 44 45  1  0  0  0  0
 45 48  1  1  0  0  0
 46 49  1  0  0  0  0
 46 47  1  0  0  0  0
 47 52  1  6  0  0  0
 47 45  1  0  0  0  0
 49 51  1  1  0  0  0
 49 44  1  0  0  0  0
 51 50  1  0  0  0  0
 54 58  1  6  0  0  0
 54 53  1  0  0  0  0
 54 57  1  0  0  0  0
 54 56  1  0  0  0  0
 55 52  1  1  0  0  0
 56 55  1  0  0  0  0
 57 53  1  1  0  0  0
 57 55  1  0  0  0  0
 59 58  1  0  0  0  0
M  END
>  <MODEL>
2

>  <REMARK>
 VINA RESULT:      -4.1      1.695      2.124
  Name = 
  21 active torsions:
  status: ('A' for Active; 'I' for Inactive)
    1  A    between atoms: C_1  and  C_3
    2  A    between atoms: C_1  and  C_24
    3  A    between atoms: C_3  and  C_36
    4  A    between atoms: C_4  and  C_37
    5  A    between atoms: N_6  and  C_30
    6  A    between atoms: C_7  and  C_27
    7  A    between atoms: O_8  and  C_29
    8  A    between atoms: O_8  and  C_32
    9  A    between atoms: C_9  and  O_34
   10  A    between atoms: O_22  and  C_36
   11  A    between atoms: C_24  and  C_51
   12  A    between atoms: C_27  and  C_28
   13  A    between atoms: C_27  and  C_40
   14  A    between atoms: C_30  and  C_55
   15  A    between atoms: C_31  and  C_43
   16  A    between atoms: O_34  and  N_58
   17  A    between atoms: C_36  and  C_47
   18  A    between atoms: C_37  and  O_46
   19  A    between atoms: C_40  and  C_53
   20  A    between atoms: C_44  and  C_50
   21  A    between atoms: O_46  and  C_54
                            x       y       z     vdW  Elec       q    Type
                         _______ _______ _______ _____ _____    ______ ____

>  <TORSDO>
F 21

$$$$
=
 OpenBabel11072413393D

 59 67  0  0  1  0  0  0  0  0999 V2000
  159.3370  213.6960  146.5450 C   0  0  0  0  0  2  0  0  0  0  0  0
  159.6450  213.1640  147.9090 C   0  0  1  0  0  3  0  0  0  0  0  0
  159.9050  212.5850  145.6860 C   0  0  2  0  0  3  0  0  0  0  0  0
  161.0290  212.0330  146.3410 O   0  0  0  0  0  0  0  0  0  0  0  0
  160.9320  212.4100  147.6940 C   0  0  2  0  0  3  0  0  0  0  0  0
  159.7830  214.1750  149.0550 C   0  0  2  0  0  3  0  0  0  0  0  0
  161.1390  214.4500  151.0550 F   0  0  0  0  0  0  0  0  0  0  0  0
  162.1750  214.4450  149.0260 F   0  0  0  0  0  0  0  0  0  0  0  0
  161.1210  213.9430  149.7610 C   0  0  0  0  0  3  0  0  0  0  0  0
  158.6000  214.2200  150.0220 C   0  0  0  0  0  2  0  0  0  0  0  0
  158.0010  213.2560  152.1790 C   0  0  0  0  0  3  0  0  0  0  0  0
  158.1100  212.2130  153.2370 C   0  0  0  0  0  1  0  0  0  0  0  0
  158.7180  213.1560  151.0690 C   0  0  0  0  0  3  0  0  0  0  0  0
  160.2750  213.0620  144.2690 C   0  0  2  0  0  3  0  0  0  0  0  0
  159.2500  212.8320  143.3150 O   0  0  0  0  0  0  0  0  0  0  0  0
  158.4330  213.9740  143.2230 C   0  0  0  0  0  1  0  0  0  0  0  0
  161.6360  212.4990  143.8340 C   0  0  0  0  0  2  0  0  0  0  0  0
  161.6920  212.2090  142.3430 C   0  0  0  0  0  2  0  0  0  0  0  0
  161.5050  213.4910  141.5600 C   0  0  0  0  0  2  0  0  0  0  0  0
  161.6700  212.1690  139.2510 C   0  0  1  0  0  0  0  0  0  0  0  0
  161.4090  214.4500  139.3040 C   0  0  0  0  0  2  0  0  0  0  0  0
  162.6940  214.0900  138.6810 N   0  0  1  0  0  0  0  0  0  0  0  0
  163.0000  212.8350  139.3630 C   0  0  2  0  0  3  0  0  0  0  0  0
  162.3010  213.7190  137.3220 C   0  0  0  0  0  2  0  0  0  0  0  0
  164.1500  212.0530  138.7260 C   0  0  0  0  0  1  0  0  0  0  0  0
  160.5530  211.7370  140.2160 C   0  0  1  0  0  0  0  0  0  0  0  0
  160.9610  213.2360  140.1390 C   0  0  2  0  0  0  0  0  0  0  0  0
  161.2380  212.2410  137.4360 S   0  0  0  0  0  0  0  0  0  0  0  0
  159.0970  211.8560  139.9320 N   0  0  0  0  0  0  0  0  0  0  0  0
  159.8580  210.8610  139.4110 O   0  0  0  0  0  0  0  0  0  0  0  0
  158.8010  212.6630  138.8690 O   0  0  0  0  0  0  0  0  0  0  0  0
  157.6780  213.4510  139.2210 C   0  0  2  0  0  3  0  0  0  0  0  0
  156.7140  212.7500  140.1960 C   0  0  0  0  0  2  0  0  0  0  0  0
  156.9000  213.7890  137.9480 C   0  0  0  0  0  2  0  0  0  0  0  0
  156.3630  212.5140  137.2930 C   0  0  0  0  0  2  0  0  0  0  0  0
  155.4890  211.6910  138.2510 C   0  0  1  0  0  3  0  0  0  0  0  0
  156.1830  211.4500  139.5990 C   0  0  0  0  0  2  0  0  0  0  0  0
  154.1070  212.3320  138.4170 C   0  0  0  0  0  2  0  0  0  0  0  0
  153.4600  212.5240  137.1370 N   0  0  0  0  0  0  0  0  0  0  0  0
  152.2340  212.9130  137.0650 C   0  0  0  0  0  2  0  0  0  0  0  0
  160.9470  211.2590  148.5260 O   0  0  0  0  0  0  0  0  0  0  0  0
  162.0650  210.4440  148.7240 C   0  0  0  0  0  0  0  0  0  0  0  0
  163.0020  210.5260  147.8890 O   0  0  0  0  0  0  0  0  0  0  0  0
  162.2330  209.5400  149.9320 C   0  0  2  0  0  3  0  0  0  0  0  0
  162.1230  208.0880  149.5380 C   0  0  2  0  0  3  0  0  0  0  0  0
  160.3960  208.5100  151.1030 O   0  0  0  0  0  0  0  0  0  0  0  0
  161.2270  207.4920  150.5980 C   0  0  1  0  0  3  0  0  0  0  0  0
  163.3680  207.4800  149.5600 F   0  0  0  0  0  0  0  0  0  0  0  0
  161.1200  209.7100  150.9660 C   0  0  1  0  0  3  0  0  0  0  0  0
  163.0660  210.2720  152.2760 O   0  0  0  0  0  1  0  0  0  0  0  0
  161.6730  210.1750  152.3140 C   0  0  0  0  0  2  0  0  0  0  0  0
  160.4460  206.4740  150.0420 O   0  0  0  0  0  0  0  0  0  0  0  0
  160.7730  204.6030  147.8570 C   0  0  0  0  0  2  0  0  0  0  0  0
  160.7050  203.6190  149.0070 C   0  0  2  0  0  0  0  0  0  0  0  0
  161.1440  205.2850  150.2930 C   0  0  1  0  0  3  0  0  0  0  0  0
  160.1750  204.1240  150.3340 C   0  0  0  0  0  2  0  0  0  0  0  0
  161.7530  204.7330  149.0060 C   0  0  2  0  0  3  0  0  0  0  0  0
  161.4680  202.3150  148.9480 C   0  0  0  0  0  2  0  0  0  0  0  0
  160.5350  201.2010  148.9640 N   0  0  0  0  0  1  0  0  0  0  0  0
  1  2  1  0  0  0  0
  2  6  1  1  0  0  0
  3 14  1  6  0  0  0
  3  4  1  0  0  0  0
  3  1  1  0  0  0  0
  4  5  1  0  0  0  0
  5  2  1  0  0  0  0
  5 41  1  1  0  0  0
  6  9  1  0  0  0  0
  6 10  1  1  0  0  0
  8  9  1  0  0  0  0
  9  7  1  0  0  0  0
 10 13  1  0  0  0  0
 11 12  1  0  0  0  0
 13 11  2  0  0  0  0
 14 17  1  6  0  0  0
 15 14  1  0  0  0  0
 16 15  1  0  0  0  0
 18 17  1  0  0  0  0
 19 18  1  0  0  0  0
 20 28  1  6  0  0  0
 20 23  1  0  0  0  0
 20 27  1  0  0  0  0
 20 26  1  0  0  0  0
 21 27  1  0  0  0  0
 22 24  1  6  0  0  0
 22 21  1  0  0  0  0
 22 23  1  0  0  0  0
 23 25  1  6  0  0  0
 24 28  1  0  0  0  0
 26 30  1  1  0  0  0
 27 26  1  0  0  0  0
 27 19  1  1  0  0  0
 29 26  1  0  0  0  0
 30 29  1  0  0  0  0
 31 29  1  0  0  0  0
 32 31  1  6  0  0  0
 32 33  1  0  0  0  0
 34 32  1  0  0  0  0
 35 34  1  0  0  0  0
 35 36  1  0  0  0  0
 36 38  1  1  0  0  0
 36 37  1  0  0  0  0
 37 33  1  0  0  0  0
 39 38  1  0  0  0  0
 40 39  2  0  0  0  0
 41 42  1  0  0  0  0
 43 42  2  0  0  0  0
 44 42  1  6  0  0  0
 44 49  1  0  0  0  0
 45 48  1  1  0  0  0
 45 44  1  0  0  0  0
 45 47  1  0  0  0  0
 47 52  1  6  0  0  0
 47 46  1  0  0  0  0
 49 46  1  0  0  0  0
 49 51  1  1  0  0  0
 50 51  1  0  0  0  0
 53 54  1  0  0  0  0
 54 58  1  6  0  0  0
 54 56  1  0  0  0  0
 55 52  1  6  0  0  0
 55 56  1  0  0  0  0
 57 53  1  6  0  0  0
 57 54  1  0  0  0  0
 57 55  1  0  0  0  0
 58 59  1  0  0  0  0
M  END
>  <MODEL>
3

>  <REMARK>
 VINA RESULT:      -3.1      4.914     12.522
  Name = 
  21 active torsions:
  status: ('A' for Active; 'I' for Inactive)
    1  A    between atoms: C_1  and  C_3
    2  A    between atoms: C_1  and  C_24
    3  A    between atoms: C_3  and  C_36
    4  A    between atoms: C_4  and  C_37
    5  A    between atoms: N_6  and  C_30
    6  A    between atoms: C_7  and  C_27
    7  A    between atoms: O_8  and  C_29
    8  A    between atoms: O_8  and  C_32
    9  A    between atoms: C_9  and  O_34
   10  A    between atoms: O_22  and  C_36
   11  A    between atoms: C_24  and  C_51
   12  A    between atoms: C_27  and  C_28
   13  A    between atoms: C_27  and  C_40
   14  A    between atoms: C_30  and  C_55
   15  A    between atoms: C_31  and  C_43
   16  A    between atoms: O_34  and  N_58
   17  A    between atoms: C_36  and  C_47
   18  A    between atoms: C_37  and  O_46
   19  A    between atoms: C_40  and  C_53
   20  A    between atoms: C_44  and  C_50
   21  A    between atoms: O_46  and  C_54
                            x       y       z     vdW  Elec       q    Type
                         _______ _______ _______ _____ _____    ______ ____

>  <TORSDO>
F 21

$$$$
=
 OpenBabel11072413393D

 59 67  0  0  1  0  0  0  0  0999 V2000
  160.9780  205.9160  148.8840 C   0  0  0  0  0  2  0  0  0  0  0  0
  161.3890  206.9130  147.8470 C   0  0  1  0  0  3  0  0  0  0  0  0
  161.4750  206.6060  150.1370 C   0  0  2  0  0  3  0  0  0  0  0  0
  162.6460  207.3330  149.8220 O   0  0  0  0  0  0  0  0  0  0  0  0
  162.6540  207.4960  148.4230 C   0  0  2  0  0  3  0  0  0  0  0  0
  161.6170  206.4040  146.4180 C   0  0  2  0  0  3  0  0  0  0  0  0
  159.1850  206.4260  146.4390 F   0  0  0  0  0  0  0  0  0  0  0  0
  160.2540  205.6310  144.5910 F   0  0  0  0  0  0  0  0  0  0  0  0
  160.3100  206.5350  145.6310 C   0  0  0  0  0  3  0  0  0  0  0  0
  162.2320  205.0070  146.3210 C   0  0  0  0  0  2  0  0  0  0  0  0
  161.6750  202.7370  147.0120 C   0  0  0  0  0  3  0  0  0  0  0  0
  160.9610  201.7560  147.8750 C   0  0  0  0  0  1  0  0  0  0  0  0
  161.5120  204.0370  147.2060 C   0  0  0  0  0  3  0  0  0  0  0  0
  161.7360  205.6200  151.2920 C   0  0  2  0  0  3  0  0  0  0  0  0
  161.3640  204.2870  150.9850 O   0  0  0  0  0  0  0  0  0  0  0  0
  160.3300  203.8800  151.8480 C   0  0  0  0  0  1  0  0  0  0  0  0
  161.1170  206.1290  152.6030 C   0  0  0  0  0  2  0  0  0  0  0  0
  160.5460  207.5300  152.4670 C   0  0  0  0  0  2  0  0  0  0  0  0
  161.4530  208.5270  153.1560 C   0  0  0  0  0  2  0  0  0  0  0  0
  161.4050  209.6880  155.5560 C   0  0  1  0  0  0  0  0  0  0  0  0
  159.6250  208.4530  154.7910 C   0  0  0  0  0  2  0  0  0  0  0  0
  160.2100  207.8300  155.9900 N   0  0  1  0  0  0  0  0  0  0  0  0
  161.6070  208.2440  155.8750 C   0  0  2  0  0  3  0  0  0  0  0  0
  159.6460  208.6290  157.0770 C   0  0  0  0  0  2  0  0  0  0  0  0
  162.4310  207.9890  157.1370 C   0  0  0  0  0  1  0  0  0  0  0  0
  161.6460  210.6090  154.3480 C   0  0  1  0  0  0  0  0  0  0  0  0
  160.7020  209.3810  154.1980 C   0  0  2  0  0  0  0  0  0  0  0  0
  160.2790  210.3320  156.8990 S   0  0  0  0  0  0  0  0  0  0  0  0
  160.7230  211.6930  153.9130 N   0  0  0  0  0  0  0  0  0  0  0  0
  161.5740  211.8410  154.9610 O   0  0  0  0  0  0  0  0  0  0  0  0
  159.4800  211.6260  154.4780 O   0  0  0  0  0  0  0  0  0  0  0  0
  159.1520  212.9160  154.9600 C   0  0  2  0  0  3  0  0  0  0  0  0
  158.8070  212.9430  156.4610 C   0  0  0  0  0  2  0  0  0  0  0  0
  157.9390  213.4330  154.1870 C   0  0  0  0  0  2  0  0  0  0  0  0
  156.7210  212.5400  154.4380 C   0  0  0  0  0  2  0  0  0  0  0  0
  156.3890  212.4160  155.9330 C   0  0  1  0  0  3  0  0  0  0  0  0
  157.6210  212.0330  156.7660 C   0  0  0  0  0  2  0  0  0  0  0  0
  155.7120  213.6890  156.4490 C   0  0  0  0  0  2  0  0  0  0  0  0
  154.9760  214.3570  155.3970 N   0  0  0  0  0  0  0  0  0  0  0  0
  153.6930  214.4530  155.4430 C   0  0  0  0  0  2  0  0  0  0  0  0
  162.7290  208.8750  148.0910 O   0  0  0  0  0  0  0  0  0  0  0  0
  161.8430  209.8490  148.5600 C   0  0  0  0  0  0  0  0  0  0  0  0
  160.7960  209.4550  149.1360 O   0  0  0  0  0  0  0  0  0  0  0  0
  162.1250  211.3380  148.4820 C   0  0  2  0  0  3  0  0  0  0  0  0
  160.8780  212.1370  148.7660 C   0  0  2  0  0  3  0  0  0  0  0  0
  161.5810  212.7090  146.5770 O   0  0  0  0  0  0  0  0  0  0  0  0
  160.8790  213.2020  147.6940 C   0  0  1  0  0  3  0  0  0  0  0  0
  160.9440  212.7190  150.0220 F   0  0  0  0  0  0  0  0  0  0  0  0
  162.5280  211.7980  147.0820 C   0  0  1  0  0  3  0  0  0  0  0  0
  164.2640  212.9130  148.3310 O   0  0  0  0  0  1  0  0  0  0  0  0
  163.9330  212.4050  147.0730 C   0  0  0  0  0  2  0  0  0  0  0  0
  159.5650  213.5110  147.3290 O   0  0  0  0  0  0  0  0  0  0  0  0
  156.7660  214.2500  147.3820 C   0  0  0  0  0  2  0  0  0  0  0  0
  156.9930  214.0630  148.8690 C   0  0  2  0  0  0  0  0  0  0  0  0
  158.7570  212.9580  148.3320 C   0  0  1  0  0  3  0  0  0  0  0  0
  158.4250  214.0160  149.3610 C   0  0  0  0  0  2  0  0  0  0  0  0
  157.2960  212.9240  147.8930 C   0  0  2  0  0  3  0  0  0  0  0  0
  155.8730  213.5740  149.7610 C   0  0  0  0  0  2  0  0  0  0  0  0
  156.0010  214.1750  151.0780 N   0  0  0  0  0  1  0  0  0  0  0  0
  1  3  1  0  0  0  0
  2  6  1  6  0  0  0
  2  5  1  0  0  0  0
  2  1  1  0  0  0  0
  3 14  1  1  0  0  0
  4  3  1  0  0  0  0
  5 41  1  1  0  0  0
  5  4  1  0  0  0  0
  6 10  1  1  0  0  0
  8  9  1  0  0  0  0
  9  6  1  0  0  0  0
  9  7  1  0  0  0  0
 10 13  1  0  0  0  0
 11 13  2  0  0  0  0
 11 12  1  0  0  0  0
 14 17  1  1  0  0  0
 15 14  1  0  0  0  0
 15 16  1  0  0  0  0
 18 17  1  0  0  0  0
 18 19  1  0  0  0  0
 20 23  1  0  0  0  0
 20 28  1  1  0  0  0
 22 21  1  6  0  0  0
 22 24  1  0  0  0  0
 23 22  1  0  0  0  0
 23 25  1  1  0  0  0
 26 30  1  6  0  0  0
 26 20  1  0  0  0  0
 27 19  1  6  0  0  0
 27 26  1  0  0  0  0
 27 21  1  0  0  0  0
 27 20  1  0  0  0  0
 28 24  1  0  0  0  0
 29 26  1  0  0  0  0
 29 31  1  0  0  0  0
 29 30  1  0  0  0  0
 32 31  1  6  0  0  0
 32 33  1  0  0  0  0
 33 37  1  0  0  0  0
 34 35  1  0  0  0  0
 34 32  1  0  0  0  0
 35 36  1  0  0  0  0
 36 38  1  1  0  0  0
 36 37  1  0  0  0  0
 39 40  2  0  0  0  0
 39 38  1  0  0  0  0
 41 42  1  0  0  0  0
 42 43  2  0  0  0  0
 44 42  1  6  0  0  0
 44 45  1  0  0  0  0
 45 48  1  1  0  0  0
 46 49  1  0  0  0  0
 46 47  1  0  0  0  0
 47 52  1  6  0  0  0
 47 45  1  0  0  0  0
 49 51  1  1  0  0  0
 49 44  1  0  0  0  0
 51 50  1  0  0  0  0
 53 54  1  0  0  0  0
 54 56  1  0  0  0  0
 54 58  1  1  0  0  0
 55 52  1  6  0  0  0
 55 56  1  0  0  0  0
 57 53  1  6  0  0  0
 57 55  1  0  0  0  0
 57 54  1  0  0  0  0
 58 59  1  0  0  0  0
M  END
>  <MODEL>
4

>  <REMARK>
 VINA RESULT:      -2.8      2.433      3.230
  Name = 
  21 active torsions:
  status: ('A' for Active; 'I' for Inactive)
    1  A    between atoms: C_1  and  C_3
    2  A    between atoms: C_1  and  C_24
    3  A    between atoms: C_3  and  C_36
    4  A    between atoms: C_4  and  C_37
    5  A    between atoms: N_6  and  C_30
    6  A    between atoms: C_7  and  C_27
    7  A    between atoms: O_8  and  C_29
    8  A    between atoms: O_8  and  C_32
    9  A    between atoms: C_9  and  O_34
   10  A    between atoms: O_22  and  C_36
   11  A    between atoms: C_24  and  C_51
   12  A    between atoms: C_27  and  C_28
   13  A    between atoms: C_27  and  C_40
   14  A    between atoms: C_30  and  C_55
   15  A    between atoms: C_31  and  C_43
   16  A    between atoms: O_34  and  N_58
   17  A    between atoms: C_36  and  C_47
   18  A    between atoms: C_37  and  O_46
   19  A    between atoms: C_40  and  C_53
   20  A    between atoms: C_44  and  C_50
   21  A    between atoms: O_46  and  C_54
                            x       y       z     vdW  Elec       q    Type
                         _______ _______ _______ _____ _____    ______ ____

>  <TORSDO>
F 21

$$$$
=
 OpenBabel11072413393D

 59 67  0  0  1  0  0  0  0  0999 V2000
  160.8780  205.6520  151.7760 C   0  0  0  0  0  2  0  0  0  0  0  0
  160.5740  204.9380  150.4980 C   0  0  1  0  0  3  0  0  0  0  0  0
  161.0320  207.0700  151.2660 C   0  0  2  0  0  3  0  0  0  0  0  0
  161.5760  207.0260  149.9620 O   0  0  0  0  0  0  0  0  0  0  0  0
  161.3600  205.7210  149.4790 C   0  0  2  0  0  3  0  0  0  0  0  0
  160.9060  203.4420  150.4200 C   0  0  2  0  0  3  0  0  0  0  0  0
  162.1260  201.8350  151.7780 F   0  0  0  0  0  0  0  0  0  0  0  0
  160.1840  202.7030  152.5940 F   0  0  0  0  0  0  0  0  0  0  0  0
  161.2960  202.9480  151.8160 C   0  0  0  0  0  3  0  0  0  0  0  0
  161.9290  203.0630  149.3480 C   0  0  0  0  0  2  0  0  0  0  0  0
  161.6680  200.8250  148.4180 C   0  0  0  0  0  3  0  0  0  0  0  0
  161.1030  199.8600  147.4350 C   0  0  0  0  0  1  0  0  0  0  0  0
  161.3420  202.1070  148.3560 C   0  0  0  0  0  3  0  0  0  0  0  0
  161.8990  207.9430  152.1930 C   0  0  2  0  0  3  0  0  0  0  0  0
  161.8710  207.5200  153.5470 O   0  0  0  0  0  0  0  0  0  0  0  0
  160.9160  208.2760  154.2510 C   0  0  0  0  0  1  0  0  0  0  0  0
  161.5650  209.4320  152.0220 C   0  0  0  0  0  2  0  0  0  0  0  0
  160.1930  209.7830  152.5740 C   0  0  0  0  0  2  0  0  0  0  0  0
  160.2260  211.1590  153.2040 C   0  0  0  0  0  2  0  0  0  0  0  0
  159.0120  213.5330  153.2010 C   0  0  1  0  0  0  0  0  0  0  0  0
  157.8190  211.5820  152.9830 C   0  0  0  0  0  2  0  0  0  0  0  0
  157.4400  212.2850  154.2190 N   0  0  1  0  0  0  0  0  0  0  0  0
  158.6830  212.9790  154.5470 C   0  0  2  0  0  3  0  0  0  0  0  0
  156.5230  213.3170  153.7360 C   0  0  0  0  0  2  0  0  0  0  0  0
  158.5290  214.0360  155.6410 C   0  0  0  0  0  1  0  0  0  0  0  0
  160.1030  213.3130  152.1390 C   0  0  1  0  0  0  0  0  0  0  0  0
  159.2010  212.1200  152.5670 C   0  0  2  0  0  0  0  0  0  0  0  0
  157.4740  214.4410  152.6570 S   0  0  0  0  0  0  0  0  0  0  0  0
  159.8640  213.2980  150.6700 N   0  0  0  0  0  0  0  0  0  0  0  0
  159.9400  214.4520  151.3810 O   0  0  0  0  0  0  0  0  0  0  0  0
  158.5460  213.1880  150.3220 O   0  0  0  0  0  0  0  0  0  0  0  0
  158.2680  214.1820  149.3540 C   0  0  2  0  0  3  0  0  0  0  0  0
  156.9990  213.9010  148.5280 C   0  0  0  0  0  2  0  0  0  0  0  0
  159.4510  214.2680  148.3870 C   0  0  0  0  0  2  0  0  0  0  0  0
  159.6250  212.9470  147.6340 C   0  0  0  0  0  2  0  0  0  0  0  0
  158.3500  212.5330  146.8830 C   0  0  1  0  0  3  0  0  0  0  0  0
  157.1110  212.5710  147.7890 C   0  0  0  0  0  2  0  0  0  0  0  0
  158.1670  213.3710  145.6140 C   0  0  0  0  0  2  0  0  0  0  0  0
  159.3170  213.2660  144.7430 N   0  0  0  0  0  0  0  0  0  0  0  0
  159.1910  212.8800  143.5210 C   0  0  0  0  0  2  0  0  0  0  0  0
  160.6360  205.7640  148.2580 O   0  0  0  0  0  0  0  0  0  0  0  0
  161.1540  206.2430  147.0510 C   0  0  0  0  0  0  0  0  0  0  0  0
  161.2590  207.4890  146.9150 O   0  0  0  0  0  0  0  0  0  0  0  0
  161.6680  205.3370  145.9470 C   0  0  2  0  0  3  0  0  0  0  0  0
  162.1530  206.1440  144.7690 C   0  0  2  0  0  3  0  0  0  0  0  0
  160.3980  204.7630  143.9820 O   0  0  0  0  0  0  0  0  0  0  0  0
  161.5700  205.4280  143.5730 C   0  0  1  0  0  3  0  0  0  0  0  0
  163.5380  206.1360  144.7080 F   0  0  0  0  0  0  0  0  0  0  0  0
  160.5780  204.4520  145.3430 C   0  0  1  0  0  3  0  0  0  0  0  0
  160.0850  202.1790  144.7060 O   0  0  0  0  0  1  0  0  0  0  0  0
  160.8920  202.9670  145.5310 C   0  0  0  0  0  2  0  0  0  0  0  0
  161.2660  206.3510  142.5680 O   0  0  0  0  0  0  0  0  0  0  0  0
  161.2780  208.1870  140.3290 C   0  0  0  0  0  2  0  0  0  0  0  0
  161.8970  206.9810  139.6540 C   0  0  2  0  0  0  0  0  0  0  0  0
  162.3020  206.2380  141.6300 C   0  0  1  0  0  3  0  0  0  0  0  0
  161.7660  205.6400  140.3480 C   0  0  0  0  0  2  0  0  0  0  0  0
  162.5320  207.5670  140.9160 C   0  0  2  0  0  3  0  0  0  0  0  0
  162.9110  207.1580  138.5450 C   0  0  0  0  0  2  0  0  0  0  0  0
  162.6790  206.1660  137.5070 N   0  0  0  0  0  1  0  0  0  0  0  0
  2  6  1  1  0  0  0
  2  1  1  0  0  0  0
  3  1  1  0  0  0  0
  3 14  1  1  0  0  0
  4  3  1  0  0  0  0
  5 41  1  6  0  0  0
  5  4  1  0  0  0  0
  5  2  1  0  0  0  0
  6 10  1  6  0  0  0
  6  9  1  0  0  0  0
  7  9  1  0  0  0  0
  9  8  1  0  0  0  0
 12 11  1  0  0  0  0
 13 11  2  0  0  0  0
 13 10  1  0  0  0  0
 14 17  1  1  0  0  0
 14 15  1  0  0  0  0
 15 16  1  0  0  0  0
 17 18  1  0  0  0  0
 18 19  1  0  0  0  0
 20 28  1  6  0  0  0
 20 23  1  0  0  0  0
 22 21  1  6  0  0  0
 22 23  1  0  0  0  0
 23 25  1  1  0  0  0
 24 22  1  0  0  0  0
 26 30  1  1  0  0  0
 26 27  1  0  0  0  0
 26 20  1  0  0  0  0
 27 21  1  0  0  0  0
 27 20  1  0  0  0  0
 27 19  1  1  0  0  0
 28 24  1  0  0  0  0
 29 30  1  0  0  0  0
 29 26  1  0  0  0  0
 31 29  1  0  0  0  0
 32 31  1  1  0  0  0
 33 32  1  0  0  0  0
 34 32  1  0  0  0  0
 35 34  1  0  0  0  0
 36 38  1  6  0  0  0
 36 35  1  0  0  0  0
 36 37  1  0  0  0  0
 37 33  1  0  0  0  0
 39 38  1  0  0  0  0
 40 39  2  0  0  0  0
 42 41  1  0  0  0  0
 43 42  2  0  0  0  0
 44 42  1  1  0  0  0
 45 48  1  6  0  0  0
 45 44  1  0  0  0  0
 46 49  1  0  0  0  0
 47 52  1  6  0  0  0
 47 46  1  0  0  0  0
 47 45  1  0  0  0  0
 49 51  1  6  0  0  0
 49 44  1  0  0  0  0
 50 51  1  0  0  0  0
 54 58  1  6  0  0  0
 54 53  1  0  0  0  0
 54 56  1  0  0  0  0
 54 57  1  0  0  0  0
 55 52  1  1  0  0  0
 56 55  1  0  0  0  0
 57 53  1  1  0  0  0
 57 55  1  0  0  0  0
 59 58  1  0  0  0  0
M  END
>  <MODEL>
5

>  <REMARK>
 VINA RESULT:      -2.7      3.627      6.521
  Name = 
  21 active torsions:
  status: ('A' for Active; 'I' for Inactive)
    1  A    between atoms: C_1  and  C_3
    2  A    between atoms: C_1  and  C_24
    3  A    between atoms: C_3  and  C_36
    4  A    between atoms: C_4  and  C_37
    5  A    between atoms: N_6  and  C_30
    6  A    between atoms: C_7  and  C_27
    7  A    between atoms: O_8  and  C_29
    8  A    between atoms: O_8  and  C_32
    9  A    between atoms: C_9  and  O_34
   10  A    between atoms: O_22  and  C_36
   11  A    between atoms: C_24  and  C_51
   12  A    between atoms: C_27  and  C_28
   13  A    between atoms: C_27  and  C_40
   14  A    between atoms: C_30  and  C_55
   15  A    between atoms: C_31  and  C_43
   16  A    between atoms: O_34  and  N_58
   17  A    between atoms: C_36  and  C_47
   18  A    between atoms: C_37  and  O_46
   19  A    between atoms: C_40  and  C_53
   20  A    between atoms: C_44  and  C_50
   21  A    between atoms: O_46  and  C_54
                            x       y       z     vdW  Elec       q    Type
                         _______ _______ _______ _____ _____    ______ ____

>  <TORSDO>
F 21

$$$$
