=
 OpenBabel11072413013D

 37 44  0  0  1  0  0  0  0  0999 V2000
  161.6490  211.6890  148.8410 C   0  0  1  0  0  3  0  0  0  0  0  0
  161.7620  209.8980  152.9580 C   0  0  0  0  0  2  0  0  0  0  0  0
  162.2900  212.3710  147.6190 C   0  0  1  0  0  3  0  0  0  0  0  0
  161.6640  210.5820  151.5920 C   0  0  0  0  0  2  0  0  0  0  0  0
  161.3150  212.7690  146.4960 C   0  0  2  0  0  3  0  0  0  0  0  0
  159.1930  212.7350  153.5820 C   0  0  0  0  0  2  0  0  0  0  0  0
  156.4540  214.4530  148.5150 N   0  0  0  0  0  0  0  0  0  0  0  0
  158.9100  213.5510  146.0580 C   0  0  0  0  0  0  0  0  0  0  0  0
  163.0430  213.6280  147.9930 C   0  0  1  0  0  3  0  0  0  0  0  0
  161.9640  213.9780  145.8310 C   0  0  0  0  0  2  0  0  0  0  0  0
  160.5900  210.4310  153.7690 C   0  0  1  0  0  0  0  0  0  0  0  0
  160.8980  211.8810  151.8370 C   0  0  2  0  0  3  0  0  0  0  0  0
  160.4640  212.4610  149.3520 C   0  0  0  0  0  0  0  0  0  0  0  0
  160.0910  211.6270  153.0850 C   0  0  2  0  0  0  0  0  0  0  0  0
  158.0600  213.7200  150.0590 C   0  0  0  0  0  0  0  0  0  0  0  0
  160.0240  212.4350  150.7240 C   0  0  0  0  0  0  0  0  0  0  0  0
  156.6550  214.2550  149.9710 C   0  0  0  0  0  2  0  0  0  0  0  0
  158.7900  213.1040  151.0810 C   0  0  0  0  0  0  0  0  0  0  0  0
  158.5480  213.7460  148.8100 C   0  0  0  0  0  0  0  0  0  0  0  0
  159.3740  210.4030  153.0610 O   0  0  0  0  0  0  0  0  0  0  0  0
  159.9710  213.1340  146.9840 N   0  0  0  0  0  0  0  0  0  0  0  0
  157.7730  214.0440  146.5070 N   0  0  0  0  0  0  0  0  0  0  0  0
  158.1870  213.0540  152.4710 C   0  0  0  0  0  2  0  0  0  0  0  0
  157.5690  214.1880  147.9170 C   0  0  0  0  0  0  0  0  0  0  0  0
  159.6860  213.1310  148.3980 C   0  0  0  0  0  0  0  0  0  0  0  0
  164.4470  213.2860  148.4470 C   0  0  0  0  0  1  0  0  0  0  0  0
  163.0980  214.4530  146.7270 C   0  0  0  0  0  2  0  0  0  0  0  0
  160.4870  210.3100  155.2970 C   0  0  0  0  0  0  0  0  0  0  0  0
  161.2900  209.1120  155.7710 C   0  0  0  0  0  1  0  0  0  0  0  0
  159.1500  210.1250  155.6530 O   0  0  0  0  0  1  0  0  0  0  0  0
  160.9680  211.4590  155.9270 O   0  0  0  0  0  1  0  0  0  0  0  0
  161.2230  210.2710  148.4780 C   0  0  0  0  0  2  0  0  0  0  0  0
  162.3090  209.4020  148.5870 O   0  0  0  0  0  1  0  0  0  0  0  0
  159.0980  213.3920  144.5790 C   0  0  2  0  0  3  0  0  0  0  0  0
  158.0420  214.1770  143.8230 C   0  0  0  0  0  1  0  0  0  0  0  0
  160.0650  211.8620  143.3030 C   0  0  0  0  0  1  0  0  0  0  0  0
  159.0310  212.0420  144.2250 O   0  0  0  0  0  0  0  0  0  0  0  0
  1 32  1  6  0  0  0
  1 13  1  0  0  0  0
  2 11  1  0  0  0  0
  3  9  1  0  0  0  0
  3  1  1  0  0  0  0
  4 12  1  0  0  0  0
  4  2  1  0  0  0  0
  5 21  1  0  0  0  0
  5  3  1  0  0  0  0
  7 17  1  0  0  0  0
  8 22  2  0  0  0  0
  8 21  1  0  0  0  0
  9 26  1  0  0  0  0
 10  5  1  0  0  0  0
 10 27  1  0  0  0  0
 11 28  1  0  0  0  0
 12 14  1  0  0  0  0
 13 16  1  0  0  0  0
 14  6  1  0  0  0  0
 14 11  1  0  0  0  0
 15 18  1  0  0  0  0
 16 18  2  0  0  0  0
 16 12  1  0  0  0  0
 17 15  1  0  0  0  0
 18 23  1  0  0  0  0
 19 15  2  0  0  0  0
 20 14  1  0  0  0  0
 20 11  1  0  0  0  0
 21 25  1  0  0  0  0
 22 24  1  0  0  0  0
 23  6  1  0  0  0  0
 24  7  2  0  0  0  0
 24 19  1  0  0  0  0
 25 19  1  0  0  0  0
 25 13  2  0  0  0  0
 27  9  1  0  0  0  0
 28 30  1  0  0  0  0
 28 29  1  0  0  0  0
 28 31  1  0  0  0  0
 32 33  1  0  0  0  0
 34  8  1  0  0  0  0
 35 34  1  0  0  0  0
 36 37  1  0  0  0  0
 37 34  1  0  0  0  0
M  END
>  <MODEL>
1

>  <REMARK>
 VINA RESULT:      -2.8      0.000      0.000
  Name = 
  4 active torsions:
  status: ('A' for Active; 'I' for Inactive)
    1  A    between atoms: C_1  and  C_8
    2  A    between atoms: C_3  and  C_17
    3  A    between atoms: C_14  and  C_25
    4  A    between atoms: O_24  and  C_25
                            x       y       z     vdW  Elec       q    Type
                         _______ _______ _______ _____ _____    ______ ____

>  <TORSDO>
F 4

$$$$
=
 OpenBabel11072413013D

 37 44  0  0  1  0  0  0  0  0999 V2000
  161.7690  205.2710  146.8190 C   0  0  1  0  0  3  0  0  0  0  0  0
  162.7100  208.8880  149.3100 C   0  0  0  0  0  2  0  0  0  0  0  0
  161.1720  204.5660  145.5880 C   0  0  1  0  0  3  0  0  0  0  0  0
  162.3290  207.6230  148.5360 C   0  0  0  0  0  2  0  0  0  0  0  0
  161.2480  203.0280  145.6060 C   0  0  2  0  0  3  0  0  0  0  0  0
  160.5780  206.9030  151.8700 C   0  0  0  0  0  2  0  0  0  0  0  0
  160.5610  201.0070  150.7030 N   0  0  0  0  0  0  0  0  0  0  0  0
  161.2110  200.9960  147.1740 C   0  0  0  0  0  0  0  0  0  0  0  0
  159.7170  204.9160  145.3770 C   0  0  1  0  0  3  0  0  0  0  0  0
  160.0500  202.5720  144.7800 C   0  0  0  0  0  2  0  0  0  0  0  0
  162.3660  208.5980  150.7640 C   0  0  1  0  0  0  0  0  0  0  0  0
  161.2520  206.9370  149.3760 C   0  0  2  0  0  3  0  0  0  0  0  0
  161.2560  204.6820  148.1030 C   0  0  0  0  0  0  0  0  0  0  0  0
  161.4830  207.4290  150.7810 C   0  0  2  0  0  0  0  0  0  0  0  0
  160.5630  203.3400  150.4670 C   0  0  0  0  0  0  0  0  0  0  0  0
  161.1520  205.4200  149.3370 C   0  0  0  0  0  0  0  0  0  0  0  0
  160.4380  202.2520  151.5000 C   0  0  0  0  0  2  0  0  0  0  0  0
  160.7770  204.7210  150.5470 C   0  0  0  0  0  0  0  0  0  0  0  0
  160.6330  202.7210  149.2790 C   0  0  0  0  0  0  0  0  0  0  0  0
  162.8360  207.3450  151.2010 O   0  0  0  0  0  0  0  0  0  0  0  0
  161.1660  202.4490  146.9600 N   0  0  0  0  0  0  0  0  0  0  0  0
  160.9610  200.4760  148.3580 N   0  0  0  0  0  0  0  0  0  0  0  0
  160.7350  205.3800  151.9120 C   0  0  0  0  0  2  0  0  0  0  0  0
  160.6280  201.3350  149.4540 C   0  0  0  0  0  0  0  0  0  0  0  0
  160.9930  203.3060  148.1080 C   0  0  0  0  0  0  0  0  0  0  0  0
  159.5930  206.2120  144.6020 C   0  0  0  0  0  1  0  0  0  0  0  0
  159.1440  203.7760  144.5660 C   0  0  0  0  0  2  0  0  0  0  0  0
  162.2370  209.6850  151.8410 C   0  0  0  0  0  0  0  0  0  0  0  0
  161.1420  210.6630  151.4540 C   0  0  0  0  0  1  0  0  0  0  0  0
  163.4440  210.3790  151.9390 O   0  0  0  0  0  1  0  0  0  0  0  0
  161.9330  209.1300  153.0850 O   0  0  0  0  0  1  0  0  0  0  0  0
  163.2910  205.1780  146.7810 C   0  0  0  0  0  2  0  0  0  0  0  0
  163.7110  204.6900  145.5420 O   0  0  0  0  0  1  0  0  0  0  0  0
  161.5760  200.0820  146.0430 C   0  0  2  0  0  3  0  0  0  0  0  0
  160.4030  199.9180  145.0940 C   0  0  0  0  0  1  0  0  0  0  0  0
  161.5820  197.9230  145.5500 C   0  0  0  0  0  1  0  0  0  0  0  0
  161.9680  198.8350  146.5350 O   0  0  0  0  0  0  0  0  0  0  0  0
  1 32  1  1  0  0  0
  1 13  1  0  0  0  0
  2 11  1  0  0  0  0
  3  5  1  0  0  0  0
  3  1  1  0  0  0  0
  4  2  1  0  0  0  0
  4 12  1  0  0  0  0
  5 21  1  0  0  0  0
  6 23  1  0  0  0  0
  7 17  1  0  0  0  0
  8 22  2  0  0  0  0
  9  3  1  0  0  0  0
 10  5  1  0  0  0  0
 11 14  1  0  0  0  0
 11 20  1  0  0  0  0
 11 28  1  0  0  0  0
 12 14  1  0  0  0  0
 13 25  2  0  0  0  0
 13 16  1  0  0  0  0
 14 20  1  0  0  0  0
 14  6  1  0  0  0  0
 15 18  1  0  0  0  0
 15 17  1  0  0  0  0
 16 12  1  0  0  0  0
 16 18  2  0  0  0  0
 18 23  1  0  0  0  0
 19 24  1  0  0  0  0
 19 15  2  0  0  0  0
 21  8  1  0  0  0  0
 21 25  1  0  0  0  0
 22 24  1  0  0  0  0
 24  7  2  0  0  0  0
 25 19  1  0  0  0  0
 26  9  1  0  0  0  0
 27 10  1  0  0  0  0
 27  9  1  0  0  0  0
 28 30  1  0  0  0  0
 28 31  1  0  0  0  0
 29 28  1  0  0  0  0
 33 32  1  0  0  0  0
 34 37  1  0  0  0  0
 34  8  1  0  0  0  0
 35 34  1  0  0  0  0
 36 37  1  0  0  0  0
M  END
>  <MODEL>
2

>  <REMARK>
 VINA RESULT:      -2.7      7.241      9.550
  Name = 
  4 active torsions:
  status: ('A' for Active; 'I' for Inactive)
    1  A    between atoms: C_1  and  C_8
    2  A    between atoms: C_3  and  C_17
    3  A    between atoms: C_14  and  C_25
    4  A    between atoms: O_24  and  C_25
                            x       y       z     vdW  Elec       q    Type
                         _______ _______ _______ _____ _____    ______ ____

>  <TORSDO>
F 4

$$$$
