=
 OpenBabel11072411373D

 25 28  0  0  1  0  0  0  0  0999 V2000
  161.0940  203.7610  152.2590 C   0  0  0  0  0  3  0  0  0  0  0  0
  161.0310  206.1930  152.2600 C   0  0  0  0  0  0  0  0  0  0  0  0
  160.8360  206.1690  150.8690 C   0  0  0  0  0  3  0  0  0  0  0  0
  160.7700  204.9550  150.1810 C   0  0  0  0  0  3  0  0  0  0  0  0
  161.1590  204.9750  152.9470 C   0  0  0  0  0  3  0  0  0  0  0  0
  160.8980  203.7450  150.8690 C   0  0  0  0  0  0  0  0  0  0  0  0
  161.1240  208.6990  152.3010 C   0  0  0  0  0  3  0  0  0  0  0  0
  161.1450  207.5140  154.3880 C   0  0  0  0  0  3  0  0  0  0  0  0
  161.2300  209.8880  154.3250 N   0  0  0  0  0  0  0  0  0  0  0  0
  161.1870  209.8680  152.9900 N   0  0  0  0  0  0  0  0  0  0  0  0
  161.1010  207.4810  152.9900 C   0  0  0  0  0  0  0  0  0  0  0  0
  161.2120  208.7400  155.0540 C   0  0  0  0  0  0  0  0  0  0  0  0
  160.2570  208.4610  157.2080 O   0  0  0  0  0  0  0  0  0  0  0  0
  162.4430  209.2340  157.1830 N   0  0  0  0  0  1  0  0  0  0  0  0
  161.2590  208.7970  156.5220 C   0  0  0  0  0  0  0  0  0  0  0  0
  160.9180  202.4430  148.8090 C   0  0  0  0  0  0  0  0  0  0  0  0
  161.0140  202.4090  147.5080 C   0  0  0  0  0  3  0  0  0  0  0  0
  160.8230  202.4870  150.1110 C   0  0  0  0  0  3  0  0  0  0  0  0
  162.2360  204.5220  147.0880 C   0  0  2  0  0  3  0  0  0  0  0  0
  161.9990  204.4240  144.7130 O   0  0  0  0  0  0  0  0  0  0  0  0
  160.9160  206.3210  146.1120 O   0  0  0  0  0  1  0  0  0  0  0  0
  162.8440  204.8820  145.7450 C   0  0  1  0  0  3  0  0  0  0  0  0
  161.0420  203.6720  146.7150 C   0  0  1  0  0  3  0  0  0  0  0  0
  162.1840  205.9700  146.5920 C   0  0  2  0  0  3  0  0  0  0  0  0
  161.2730  203.3570  145.2610 C   0  0  0  0  0  2  0  0  0  0  0  0
  1  5  1  0  0  0  0
  2  5  2  0  0  0  0
  2 11  1  0  0  0  0
  3  2  1  0  0  0  0
  4  3  2  0  0  0  0
  4  6  1  0  0  0  0
  6  1  2  0  0  0  0
  7 11  2  0  0  0  0
  7 10  1  0  0  0  0
  8 12  2  0  0  0  0
  9 12  1  0  0  0  0
 10  9  2  0  0  0  0
 11  8  1  0  0  0  0
 12 15  1  0  0  0  0
 15 14  1  0  0  0  0
 15 13  2  0  0  0  0
 16 18  2  0  0  0  0
 17 16  2  0  0  0  0
 18  6  1  0  0  0  0
 20 25  1  0  0  0  0
 20 22  1  0  0  0  0
 21 24  1  0  0  0  0
 22 24  1  0  0  0  0
 22 19  1  0  0  0  0
 23 19  1  0  0  0  0
 23 17  1  0  0  0  0
 24 19  1  0  0  0  0
 25 23  1  0  0  0  0
M  END
>  <MODEL>
1

>  <REMARK>
 VINA RESULT:      -9.9      0.000      0.000
  Name = 
  4 active torsions:
  status: ('A' for Active; 'I' for Inactive)
    1  A    between atoms: C_5  and  C_24
    2  A    between atoms: C_9  and  C_13
    3  A    between atoms: C_19  and  C_20
    4  A    between atoms: C_23  and  C_25
                            x       y       z     vdW  Elec       q    Type
                         _______ _______ _______ _____ _____    ______ ____

>  <TORSDO>
F 4

$$$$
=
 OpenBabel11072411373D

 25 28  0  0  1  0  0  0  0  0999 V2000
  161.0670  203.4120  152.0780 C   0  0  0  0  0  3  0  0  0  0  0  0
  160.9990  205.8380  152.2540 C   0  0  0  0  0  0  0  0  0  0  0  0
  160.8840  205.9160  150.8560 C   0  0  0  0  0  3  0  0  0  0  0  0
  160.8600  204.7560  150.0790 C   0  0  0  0  0  3  0  0  0  0  0  0
  161.0900  204.5720  152.8560 C   0  0  0  0  0  3  0  0  0  0  0  0
  160.9510  203.4990  150.6820 C   0  0  0  0  0  0  0  0  0  0  0  0
  161.1730  207.0010  154.4700 C   0  0  0  0  0  3  0  0  0  0  0  0
  160.9020  208.3320  152.4910 C   0  0  0  0  0  3  0  0  0  0  0  0
  161.0750  209.3420  154.6350 N   0  0  0  0  0  0  0  0  0  0  0  0
  161.1940  208.1420  155.2070 N   0  0  0  0  0  0  0  0  0  0  0  0
  161.0240  207.0690  153.0800 C   0  0  0  0  0  0  0  0  0  0  0  0
  160.9280  209.4770  153.2890 C   0  0  0  0  0  0  0  0  0  0  0  0
  161.1010  211.0060  151.4830 O   0  0  0  0  0  0  0  0  0  0  0  0
  160.3360  211.9080  153.4780 N   0  0  0  0  0  1  0  0  0  0  0  0
  160.8010  210.8150  152.6920 C   0  0  0  0  0  0  0  0  0  0  0  0
  160.9930  202.3590  148.5280 C   0  0  0  0  0  0  0  0  0  0  0  0
  161.0650  202.4290  147.2270 C   0  0  0  0  0  3  0  0  0  0  0  0
  160.9220  202.2990  149.8310 C   0  0  0  0  0  3  0  0  0  0  0  0
  162.2150  204.5980  146.8940 C   0  0  2  0  0  3  0  0  0  0  0  0
  161.8260  204.6730  144.5390 O   0  0  0  0  0  0  0  0  0  0  0  0
  160.7990  206.4320  146.1450 O   0  0  0  0  0  1  0  0  0  0  0  0
  162.7270  205.0730  145.5470 C   0  0  1  0  0  3  0  0  0  0  0  0
  161.0170  203.7490  146.5340 C   0  0  1  0  0  3  0  0  0  0  0  0
  162.1030  206.0770  146.5150 C   0  0  2  0  0  3  0  0  0  0  0  0
  161.1590  203.5500  145.0480 C   0  0  0  0  0  2  0  0  0  0  0  0
  1  5  1  0  0  0  0
  2  5  2  0  0  0  0
  2 11  1  0  0  0  0
  3  2  1  0  0  0  0
  4  6  1  0  0  0  0
  4  3  2  0  0  0  0
  6  1  2  0  0  0  0
  7 10  1  0  0  0  0
  8 11  1  0  0  0  0
  8 12  2  0  0  0  0
  9 10  2  0  0  0  0
 11  7  2  0  0  0  0
 12  9  1  0  0  0  0
 13 15  2  0  0  0  0
 15 12  1  0  0  0  0
 15 14  1  0  0  0  0
 16 18  2  0  0  0  0
 17 16  2  0  0  0  0
 18  6  1  0  0  0  0
 20 25  1  0  0  0  0
 20 22  1  0  0  0  0
 21 24  1  0  0  0  0
 22 24  1  0  0  0  0
 22 19  1  0  0  0  0
 23 19  1  0  0  0  0
 23 17  1  0  0  0  0
 24 19  1  0  0  0  0
 25 23  1  0  0  0  0
M  END
>  <MODEL>
2

>  <REMARK>
 VINA RESULT:      -9.8      1.587      2.096
  Name = 
  4 active torsions:
  status: ('A' for Active; 'I' for Inactive)
    1  A    between atoms: C_5  and  C_24
    2  A    between atoms: C_9  and  C_13
    3  A    between atoms: C_19  and  C_20
    4  A    between atoms: C_23  and  C_25
                            x       y       z     vdW  Elec       q    Type
                         _______ _______ _______ _____ _____    ______ ____

>  <TORSDO>
F 4

$$$$
=
 OpenBabel11072411373D

 25 28  0  0  1  0  0  0  0  0999 V2000
  161.2510  206.2120  151.4690 C   0  0  0  0  0  3  0  0  0  0  0  0
  161.2360  204.5290  149.7130 C   0  0  0  0  0  0  0  0  0  0  0  0
  161.0320  203.5400  150.6900 C   0  0  0  0  0  3  0  0  0  0  0  0
  160.9370  203.8840  152.0410 C   0  0  0  0  0  3  0  0  0  0  0  0
  161.3440  205.8690  150.1180 C   0  0  0  0  0  3  0  0  0  0  0  0
  161.0460  205.2190  152.4390 C   0  0  0  0  0  0  0  0  0  0  0  0
  161.7390  205.1040  147.3240 C   0  0  0  0  0  3  0  0  0  0  0  0
  161.0300  202.8710  147.8440 C   0  0  0  0  0  3  0  0  0  0  0  0
  161.5290  203.5110  145.6110 N   0  0  0  0  0  0  0  0  0  0  0  0
  161.8240  204.7480  146.0160 N   0  0  0  0  0  0  0  0  0  0  0  0
  161.3350  204.1640  148.2800 C   0  0  0  0  0  0  0  0  0  0  0  0
  161.1300  202.5510  146.4880 C   0  0  0  0  0  0  0  0  0  0  0  0
  161.2630  200.1850  146.6080 O   0  0  0  0  0  0  0  0  0  0  0  0
  159.9930  201.0210  144.8570 N   0  0  0  0  0  1  0  0  0  0  0  0
  160.8140  201.1980  146.0080 C   0  0  0  0  0  0  0  0  0  0  0  0
  161.0500  206.7630  154.3250 C   0  0  0  0  0  0  0  0  0  0  0  0
  161.1590  207.9850  154.7700 C   0  0  0  0  0  3  0  0  0  0  0  0
  160.9420  205.5430  153.8700 C   0  0  0  0  0  3  0  0  0  0  0  0
  160.6190  209.1880  152.6730 C   0  0  2  0  0  3  0  0  0  0  0  0
  161.0370  211.3610  153.5730 O   0  0  0  0  0  0  0  0  0  0  0  0
  162.4720  210.3860  151.6440 O   0  0  0  0  0  1  0  0  0  0  0  0
  160.2620  210.6620  152.6250 C   0  0  1  0  0  3  0  0  0  0  0  0
  161.5570  209.0930  153.8540 C   0  0  1  0  0  3  0  0  0  0  0  0
  161.1170  210.0540  151.5140 C   0  0  2  0  0  3  0  0  0  0  0  0
  161.3830  210.4180  154.5510 C   0  0  0  0  0  2  0  0  0  0  0  0
  1  6  1  0  0  0  0
  2  5  1  0  0  0  0
  2  3  2  0  0  0  0
  3  4  1  0  0  0  0
  4  6  2  0  0  0  0
  5  1  2  0  0  0  0
  6 18  1  0  0  0  0
  7 11  1  0  0  0  0
  8 11  2  0  0  0  0
  9 10  1  0  0  0  0
  9 12  2  0  0  0  0
 10  7  2  0  0  0  0
 11  2  1  0  0  0  0
 12  8  1  0  0  0  0
 14 15  1  0  0  0  0
 15 12  1  0  0  0  0
 15 13  2  0  0  0  0
 16 17  2  0  0  0  0
 18 16  2  0  0  0  0
 19 23  1  0  0  0  0
 20 25  1  0  0  0  0
 22 19  1  0  0  0  0
 22 20  1  0  0  0  0
 23 25  1  0  0  0  0
 23 17  1  0  0  0  0
 24 21  1  0  0  0  0
 24 22  1  0  0  0  0
 24 19  1  0  0  0  0
M  END
>  <MODEL>
3

>  <REMARK>
 VINA RESULT:      -9.1      4.125      8.465
  Name = 
  4 active torsions:
  status: ('A' for Active; 'I' for Inactive)
    1  A    between atoms: C_5  and  C_24
    2  A    between atoms: C_9  and  C_13
    3  A    between atoms: C_19  and  C_20
    4  A    between atoms: C_23  and  C_25
                            x       y       z     vdW  Elec       q    Type
                         _______ _______ _______ _____ _____    ______ ____

>  <TORSDO>
F 4

$$$$
=
 OpenBabel11072411373D

 25 28  0  0  1  0  0  0  0  0999 V2000
  161.4660  206.8190  151.9170 C   0  0  0  0  0  3  0  0  0  0  0  0
  161.1380  205.1370  150.1910 C   0  0  0  0  0  0  0  0  0  0  0  0
  161.0830  206.1610  149.2310 C   0  0  0  0  0  3  0  0  0  0  0  0
  161.2190  207.4990  149.6100 C   0  0  0  0  0  3  0  0  0  0  0  0
  161.3310  205.4810  151.5380 C   0  0  0  0  0  3  0  0  0  0  0  0
  161.4110  207.8370  150.9520 C   0  0  0  0  0  0  0  0  0  0  0  0
  160.7840  202.7160  150.7440 C   0  0  0  0  0  3  0  0  0  0  0  0
  161.0620  203.3410  148.4430 C   0  0  0  0  0  3  0  0  0  0  0  0
  160.7220  201.0730  149.0660 N   0  0  0  0  0  0  0  0  0  0  0  0
  160.6540  201.4220  150.3520 N   0  0  0  0  0  0  0  0  0  0  0  0
  160.9930  203.7180  149.7880 C   0  0  0  0  0  0  0  0  0  0  0  0
  160.9240  201.9970  148.0880 C   0  0  0  0  0  0  0  0  0  0  0  0
  161.1350  200.3630  146.3810 O   0  0  0  0  0  0  0  0  0  0  0  0
  160.8960  202.5480  145.6410 N   0  0  0  0  0  1  0  0  0  0  0  0
  160.9920  201.5790  146.6800 C   0  0  0  0  0  0  0  0  0  0  0  0
  161.2520  209.7120  152.5020 C   0  0  0  0  0  0  0  0  0  0  0  0
  160.9510  210.1580  153.6910 C   0  0  0  0  0  3  0  0  0  0  0  0
  161.5510  209.2560  151.3140 C   0  0  0  0  0  3  0  0  0  0  0  0
  161.2740  208.2550  155.2440 C   0  0  2  0  0  3  0  0  0  0  0  0
  159.9970  209.2220  157.0160 O   0  0  0  0  0  0  0  0  0  0  0  0
  159.2540  207.0330  155.8390 O   0  0  0  0  0  1  0  0  0  0  0  0
  161.0800  208.3610  156.7460 C   0  0  1  0  0  3  0  0  0  0  0  0
  160.2960  209.2670  154.6920 C   0  0  1  0  0  3  0  0  0  0  0  0
  160.6420  207.0930  156.0140 C   0  0  2  0  0  3  0  0  0  0  0  0
  159.8970  210.0690  155.9030 C   0  0  0  0  0  2  0  0  0  0  0  0
  2  5  2  0  0  0  0
  3  4  2  0  0  0  0
  3  2  1  0  0  0  0
  4  6  1  0  0  0  0
  5  1  1  0  0  0  0
  6 18  1  0  0  0  0
  6  1  2  0  0  0  0
  8 11  1  0  0  0  0
  9 10  2  0  0  0  0
 10  7  1  0  0  0  0
 11  2  1  0  0  0  0
 11  7  2  0  0  0  0
 12  8  2  0  0  0  0
 12  9  1  0  0  0  0
 13 15  2  0  0  0  0
 14 15  1  0  0  0  0
 15 12  1  0  0  0  0
 16 17  2  0  0  0  0
 17 23  1  0  0  0  0
 18 16  2  0  0  0  0
 19 24  1  0  0  0  0
 19 22  1  0  0  0  0
 21 24  1  0  0  0  0
 22 20  1  0  0  0  0
 23 19  1  0  0  0  0
 23 25  1  0  0  0  0
 24 22  1  0  0  0  0
 25 20  1  0  0  0  0
M  END
>  <MODEL>
4

>  <REMARK>
 VINA RESULT:      -9.0      3.913      8.956
  Name = 
  4 active torsions:
  status: ('A' for Active; 'I' for Inactive)
    1  A    between atoms: C_5  and  C_24
    2  A    between atoms: C_9  and  C_13
    3  A    between atoms: C_19  and  C_20
    4  A    between atoms: C_23  and  C_25
                            x       y       z     vdW  Elec       q    Type
                         _______ _______ _______ _____ _____    ______ ____

>  <TORSDO>
F 4

$$$$
=
 OpenBabel11072411373D

 25 28  0  0  1  0  0  0  0  0999 V2000
  160.9890  207.7540  152.6510 C   0  0  0  0  0  3  0  0  0  0  0  0
  161.1880  205.8860  151.1050 C   0  0  0  0  0  0  0  0  0  0  0  0
  161.2580  205.0110  152.2020 C   0  0  0  0  0  3  0  0  0  0  0  0
  161.1930  205.5030  153.5090 C   0  0  0  0  0  3  0  0  0  0  0  0
  161.0520  207.2630  151.3440 C   0  0  0  0  0  3  0  0  0  0  0  0
  161.0580  206.8740  153.7410 C   0  0  0  0  0  0  0  0  0  0  0  0
  161.4370  206.2290  148.6330 C   0  0  0  0  0  3  0  0  0  0  0  0
  161.1420  203.9950  149.4600 C   0  0  0  0  0  3  0  0  0  0  0  0
  161.3860  204.4200  147.1350 N   0  0  0  0  0  0  0  0  0  0  0  0
  161.4970  205.7290  147.3710 N   0  0  0  0  0  0  0  0  0  0  0  0
  161.2560  205.3640  149.7190 C   0  0  0  0  0  0  0  0  0  0  0  0
  161.2090  203.5270  148.1450 C   0  0  0  0  0  0  0  0  0  0  0  0
  161.2140  201.2380  148.7680 O   0  0  0  0  0  0  0  0  0  0  0  0
  160.8350  201.6540  146.5180 N   0  0  0  0  0  1  0  0  0  0  0  0
  161.0910  202.0920  147.8500 C   0  0  0  0  0  0  0  0  0  0  0  0
  160.7240  208.5960  155.4330 C   0  0  0  0  0  0  0  0  0  0  0  0
  160.4530  209.8390  155.7260 C   0  0  0  0  0  3  0  0  0  0  0  0
  160.9940  207.3550  155.1300 C   0  0  0  0  0  3  0  0  0  0  0  0
  159.1340  210.6430  153.7890 C   0  0  2  0  0  3  0  0  0  0  0  0
  159.3310  212.9550  154.3560 O   0  0  0  0  0  0  0  0  0  0  0  0
  160.3570  211.9950  152.1750 O   0  0  0  0  0  1  0  0  0  0  0  0
  158.4860  212.0140  153.7320 C   0  0  1  0  0  3  0  0  0  0  0  0
  160.3560  210.8680  154.6500 C   0  0  1  0  0  3  0  0  0  0  0  0
  159.1140  211.4210  152.4710 C   0  0  2  0  0  3  0  0  0  0  0  0
  160.1120  212.2230  155.2610 C   0  0  0  0  0  2  0  0  0  0  0  0
  1  6  1  0  0  0  0
  2  5  1  0  0  0  0
  2  3  2  0  0  0  0
  3  4  1  0  0  0  0
  4  6  2  0  0  0  0
  5  1  2  0  0  0  0
  6 18  1  0  0  0  0
  7 11  1  0  0  0  0
  8 11  2  0  0  0  0
  9 10  1  0  0  0  0
  9 12  2  0  0  0  0
 10  7  2  0  0  0  0
 11  2  1  0  0  0  0
 12  8  1  0  0  0  0
 14 15  1  0  0  0  0
 15 12  1  0  0  0  0
 15 13  2  0  0  0  0
 16 17  2  0  0  0  0
 18 16  2  0  0  0  0
 19 23  1  0  0  0  0
 20 25  1  0  0  0  0
 21 24  1  0  0  0  0
 22 19  1  0  0  0  0
 22 20  1  0  0  0  0
 23 25  1  0  0  0  0
 23 17  1  0  0  0  0
 24 22  1  0  0  0  0
 24 19  1  0  0  0  0
M  END
>  <MODEL>
5

>  <REMARK>
 VINA RESULT:      -8.8      3.960      8.588
  Name = 
  4 active torsions:
  status: ('A' for Active; 'I' for Inactive)
    1  A    between atoms: C_5  and  C_24
    2  A    between atoms: C_9  and  C_13
    3  A    between atoms: C_19  and  C_20
    4  A    between atoms: C_23  and  C_25
                            x       y       z     vdW  Elec       q    Type
                         _______ _______ _______ _____ _____    ______ ____

>  <TORSDO>
F 4

$$$$
=
 OpenBabel11072411373D

 25 28  0  0  1  0  0  0  0  0999 V2000
  160.8410  203.7500  152.3540 C   0  0  0  0  0  3  0  0  0  0  0  0
  161.1220  204.2890  149.9980 C   0  0  0  0  0  0  0  0  0  0  0  0
  161.3130  205.6360  150.3500 C   0  0  0  0  0  3  0  0  0  0  0  0
  161.2700  206.0340  151.6890 C   0  0  0  0  0  3  0  0  0  0  0  0
  160.8850  203.3510  151.0160 C   0  0  0  0  0  3  0  0  0  0  0  0
  161.0340  205.0970  152.6970 C   0  0  0  0  0  0  0  0  0  0  0  0
  161.1830  202.5100  148.2320 C   0  0  0  0  0  3  0  0  0  0  0  0
  161.1960  204.8110  147.5480 C   0  0  0  0  0  3  0  0  0  0  0  0
  161.2530  203.0550  145.9470 N   0  0  0  0  0  0  0  0  0  0  0  0
  161.2250  202.1450  146.9240 N   0  0  0  0  0  0  0  0  0  0  0  0
  161.1680  203.8660  148.5790 C   0  0  0  0  0  0  0  0  0  0  0  0
  161.2410  204.3880  146.2170 C   0  0  0  0  0  0  0  0  0  0  0  0
  162.1740  205.3100  144.2400 O   0  0  0  0  0  0  0  0  0  0  0  0
  160.2760  206.3790  145.0340 N   0  0  0  0  0  1  0  0  0  0  0  0
  161.2710  205.3630  145.1170 C   0  0  0  0  0  0  0  0  0  0  0  0
  161.1230  206.8100  154.4290 C   0  0  0  0  0  0  0  0  0  0  0  0
  161.2510  208.0680  154.7520 C   0  0  0  0  0  3  0  0  0  0  0  0
  160.9950  205.5530  154.0950 C   0  0  0  0  0  3  0  0  0  0  0  0
  160.6190  209.0670  152.5760 C   0  0  2  0  0  3  0  0  0  0  0  0
  161.0660  211.3150  153.2480 O   0  0  0  0  0  0  0  0  0  0  0  0
  162.4230  210.1630  151.3610 O   0  0  0  0  0  1  0  0  0  0  0  0
  160.2540  210.5300  152.4030 C   0  0  1  0  0  3  0  0  0  0  0  0
  161.6060  209.0850  153.7200 C   0  0  1  0  0  3  0  0  0  0  0  0
  161.0650  209.8200  151.3200 C   0  0  2  0  0  3  0  0  0  0  0  0
  161.4560  210.4690  154.2950 C   0  0  0  0  0  2  0  0  0  0  0  0
  1  6  1  0  0  0  0
  2  3  2  0  0  0  0
  2  5  1  0  0  0  0
  3  4  1  0  0  0  0
  4  6  2  0  0  0  0
  5  1  2  0  0  0  0
  6 18  1  0  0  0  0
  7 11  1  0  0  0  0
  8 11  2  0  0  0  0
  9 12  2  0  0  0  0
  9 10  1  0  0  0  0
 10  7  2  0  0  0  0
 11  2  1  0  0  0  0
 12  8  1  0  0  0  0
 13 15  2  0  0  0  0
 14 15  1  0  0  0  0
 15 12  1  0  0  0  0
 16 17  2  0  0  0  0
 18 16  2  0  0  0  0
 19 23  1  0  0  0  0
 20 25  1  0  0  0  0
 22 19  1  0  0  0  0
 22 20  1  0  0  0  0
 23 25  1  0  0  0  0
 23 17  1  0  0  0  0
 24 21  1  0  0  0  0
 24 22  1  0  0  0  0
 24 19  1  0  0  0  0
M  END
>  <MODEL>
6

>  <REMARK>
 VINA RESULT:      -8.6      3.936      8.180
  Name = 
  4 active torsions:
  status: ('A' for Active; 'I' for Inactive)
    1  A    between atoms: C_5  and  C_24
    2  A    between atoms: C_9  and  C_13
    3  A    between atoms: C_19  and  C_20
    4  A    between atoms: C_23  and  C_25
                            x       y       z     vdW  Elec       q    Type
                         _______ _______ _______ _____ _____    ______ ____

>  <TORSDO>
F 4

$$$$
=
 OpenBabel11072411373D

 25 28  0  0  1  0  0  0  0  0999 V2000
  161.9670  208.1900  148.6830 C   0  0  0  0  0  3  0  0  0  0  0  0
  161.5050  208.0900  151.0700 C   0  0  0  0  0  0  0  0  0  0  0  0
  161.1280  206.7450  150.9200 C   0  0  0  0  0  3  0  0  0  0  0  0
  161.1700  206.1300  149.6670 C   0  0  0  0  0  3  0  0  0  0  0  0
  161.9260  208.8050  149.9370 C   0  0  0  0  0  3  0  0  0  0  0  0
  161.5890  206.8460  148.5420 C   0  0  0  0  0  0  0  0  0  0  0  0
  161.7000  210.1160  152.5360 C   0  0  0  0  0  3  0  0  0  0  0  0
  161.1770  208.0060  153.5540 C   0  0  0  0  0  3  0  0  0  0  0  0
  161.3830  209.9800  154.8600 N   0  0  0  0  0  0  0  0  0  0  0  0
  161.6530  210.6940  153.7650 N   0  0  0  0  0  0  0  0  0  0  0  0
  161.4610  208.7430  152.4000 C   0  0  0  0  0  0  0  0  0  0  0  0
  161.1410  208.6430  154.7960 C   0  0  0  0  0  0  0  0  0  0  0  0
  161.6120  207.9620  157.0200 O   0  0  0  0  0  0  0  0  0  0  0  0
  159.6860  207.0630  156.0920 N   0  0  0  0  0  1  0  0  0  0  0  0
  160.8460  207.8870  156.0220 C   0  0  0  0  0  0  0  0  0  0  0  0
  161.5710  204.8640  147.1230 C   0  0  0  0  0  0  0  0  0  0  0  0
  161.5200  203.5640  147.0180 C   0  0  0  0  0  3  0  0  0  0  0  0
  161.6210  206.1650  147.2390 C   0  0  0  0  0  3  0  0  0  0  0  0
  160.3910  202.9180  149.1260 C   0  0  2  0  0  3  0  0  0  0  0  0
  160.8280  200.5830  148.8810 O   0  0  0  0  0  0  0  0  0  0  0  0
  161.8340  201.9590  150.8370 O   0  0  0  0  0  1  0  0  0  0  0  0
  159.9090  201.5090  149.4160 C   0  0  1  0  0  3  0  0  0  0  0  0
  161.5910  202.7010  148.2320 C   0  0  1  0  0  3  0  0  0  0  0  0
  160.5210  202.3460  150.5390 C   0  0  2  0  0  3  0  0  0  0  0  0
  161.4780  201.2520  147.8350 C   0  0  0  0  0  2  0  0  0  0  0  0
  1  5  1  0  0  0  0
  2 11  1  0  0  0  0
  3  2  1  0  0  0  0
  4  3  2  0  0  0  0
  5  2  2  0  0  0  0
  6  1  2  0  0  0  0
  6  4  1  0  0  0  0
  7 10  1  0  0  0  0
  8 12  2  0  0  0  0
 10  9  2  0  0  0  0
 11  7  2  0  0  0  0
 11  8  1  0  0  0  0
 12  9  1  0  0  0  0
 12 15  1  0  0  0  0
 15 14  1  0  0  0  0
 15 13  2  0  0  0  0
 16 18  2  0  0  0  0
 17 16  2  0  0  0  0
 17 23  1  0  0  0  0
 18  6  1  0  0  0  0
 19 22  1  0  0  0  0
 19 24  1  0  0  0  0
 20 22  1  0  0  0  0
 22 24  1  0  0  0  0
 23 19  1  0  0  0  0
 24 21  1  0  0  0  0
 25 23  1  0  0  0  0
 25 20  1  0  0  0  0
M  END
>  <MODEL>
7

>  <REMARK>
 VINA RESULT:      -8.3      2.272      3.484
  Name = 
  4 active torsions:
  status: ('A' for Active; 'I' for Inactive)
    1  A    between atoms: C_5  and  C_24
    2  A    between atoms: C_9  and  C_13
    3  A    between atoms: C_19  and  C_20
    4  A    between atoms: C_23  and  C_25
                            x       y       z     vdW  Elec       q    Type
                         _______ _______ _______ _____ _____    ______ ____

>  <TORSDO>
F 4

$$$$
=
 OpenBabel11072411373D

 25 28  0  0  1  0  0  0  0  0999 V2000
  162.2410  208.4020  148.5350 C   0  0  0  0  0  3  0  0  0  0  0  0
  161.5870  206.0610  148.4410 C   0  0  0  0  0  0  0  0  0  0  0  0
  161.1870  206.1390  149.7850 C   0  0  0  0  0  3  0  0  0  0  0  0
  161.3120  207.3350  150.4960 C   0  0  0  0  0  3  0  0  0  0  0  0
  162.1150  207.2060  147.8240 C   0  0  0  0  0  3  0  0  0  0  0  0
  161.8380  208.4720  149.8780 C   0  0  0  0  0  0  0  0  0  0  0  0
  161.4240  204.7860  146.2870 C   0  0  0  0  0  3  0  0  0  0  0  0
  161.3550  203.5660  148.3530 C   0  0  0  0  0  3  0  0  0  0  0  0
  161.2080  202.4470  146.2610 N   0  0  0  0  0  0  0  0  0  0  0  0
  161.3030  203.6110  145.6150 N   0  0  0  0  0  0  0  0  0  0  0  0
  161.4540  204.7920  147.6860 C   0  0  0  0  0  0  0  0  0  0  0  0
  161.2300  202.3840  147.6200 C   0  0  0  0  0  0  0  0  0  0  0  0
  161.4440  200.0220  147.7020 O   0  0  0  0  0  0  0  0  0  0  0  0
  160.6580  201.0160  149.6440 N   0  0  0  0  0  1  0  0  0  0  0  0
  161.1240  201.0840  148.2990 C   0  0  0  0  0  0  0  0  0  0  0  0
  161.7700  210.8950  150.1320 C   0  0  0  0  0  0  0  0  0  0  0  0
  161.5840  212.0710  149.5970 C   0  0  0  0  0  3  0  0  0  0  0  0
  161.9550  209.7140  150.6580 C   0  0  0  0  0  3  0  0  0  0  0  0
  160.4940  213.3800  147.7990 C   0  0  2  0  0  3  0  0  0  0  0  0
  162.4110  213.4010  146.3740 O   0  0  0  0  0  0  0  0  0  0  0  0
  160.2110  212.2160  145.6780 O   0  0  0  0  0  1  0  0  0  0  0  0
  161.2650  214.1390  146.7340 C   0  0  1  0  0  3  0  0  0  0  0  0
  161.4010  212.2150  148.1240 C   0  0  1  0  0  3  0  0  0  0  0  0
  159.9710  213.4160  146.3600 C   0  0  2  0  0  3  0  0  0  0  0  0
  162.7090  212.5960  147.4820 C   0  0  0  0  0  2  0  0  0  0  0  0
  1  6  1  0  0  0  0
  2  3  2  0  0  0  0
  3  4  1  0  0  0  0
  5  2  1  0  0  0  0
  5  1  2  0  0  0  0
  6  4  2  0  0  0  0
  6 18  1  0  0  0  0
  7 11  1  0  0  0  0
  9 12  2  0  0  0  0
 10  9  1  0  0  0  0
 10  7  2  0  0  0  0
 11  8  2  0  0  0  0
 11  2  1  0  0  0  0
 12 15  1  0  0  0  0
 12  8  1  0  0  0  0
 13 15  2  0  0  0  0
 15 14  1  0  0  0  0
 16 18  2  0  0  0  0
 17 16  2  0  0  0  0
 19 23  1  0  0  0  0
 20 22  1  0  0  0  0
 20 25  1  0  0  0  0
 21 24  1  0  0  0  0
 22 19  1  0  0  0  0
 23 17  1  0  0  0  0
 24 22  1  0  0  0  0
 24 19  1  0  0  0  0
 25 23  1  0  0  0  0
M  END
>  <MODEL>
8

>  <REMARK>
 VINA RESULT:      -8.1      5.286      8.308
  Name = 
  4 active torsions:
  status: ('A' for Active; 'I' for Inactive)
    1  A    between atoms: C_5  and  C_24
    2  A    between atoms: C_9  and  C_13
    3  A    between atoms: C_19  and  C_20
    4  A    between atoms: C_23  and  C_25
                            x       y       z     vdW  Elec       q    Type
                         _______ _______ _______ _____ _____    ______ ____

>  <TORSDO>
F 4

$$$$
=
 OpenBabel11072411373D

 25 28  0  0  1  0  0  0  0  0999 V2000
  160.9630  208.8620  152.9910 C   0  0  0  0  0  3  0  0  0  0  0  0
  161.0310  206.7270  151.8270 C   0  0  0  0  0  0  0  0  0  0  0  0
  161.2310  206.0830  153.0600 C   0  0  0  0  0  3  0  0  0  0  0  0
  161.2950  206.8210  154.2450 C   0  0  0  0  0  3  0  0  0  0  0  0
  160.8980  208.1240  151.8060 C   0  0  0  0  0  3  0  0  0  0  0  0
  161.1620  208.2120  154.2190 C   0  0  0  0  0  0  0  0  0  0  0  0
  160.9340  206.5830  149.3250 C   0  0  0  0  0  3  0  0  0  0  0  0
  160.9260  204.5460  150.5940 C   0  0  0  0  0  3  0  0  0  0  0  0
  160.8360  204.5120  148.2200 N   0  0  0  0  0  0  0  0  0  0  0  0
  160.8720  205.8460  148.1850 N   0  0  0  0  0  0  0  0  0  0  0  0
  160.9630  205.9440  150.5700 C   0  0  0  0  0  0  0  0  0  0  0  0
  160.8610  203.8310  149.3970 C   0  0  0  0  0  0  0  0  0  0  0  0
  160.7980  201.7230  150.4850 O   0  0  0  0  0  0  0  0  0  0  0  0
  160.8060  201.6440  148.1680 N   0  0  0  0  0  1  0  0  0  0  0  0
  160.8210  202.3610  149.3990 C   0  0  0  0  0  0  0  0  0  0  0  0
  160.2670  209.7250  155.9070 C   0  0  0  0  0  0  0  0  0  0  0  0
  159.2950  210.4920  156.3190 C   0  0  0  0  0  3  0  0  0  0  0  0
  161.2350  208.9550  155.4860 C   0  0  0  0  0  3  0  0  0  0  0  0
  157.2140  211.8100  156.0570 C   0  0  2  0  0  3  0  0  0  0  0  0
  157.5780  212.3050  153.7490 O   0  0  0  0  0  0  0  0  0  0  0  0
  155.5630  210.8720  154.5330 O   0  0  0  0  0  1  0  0  0  0  0  0
  156.9910  212.8020  154.9300 C   0  0  1  0  0  3  0  0  0  0  0  0
  158.1260  210.7760  155.4370 C   0  0  1  0  0  3  0  0  0  0  0  0
  155.8310  211.9300  155.4110 C   0  0  2  0  0  3  0  0  0  0  0  0
  158.5940  211.4340  154.1660 C   0  0  0  0  0  2  0  0  0  0  0  0
  1  6  1  0  0  0  0
  2  3  2  0  0  0  0
  3  4  1  0  0  0  0
  5  2  1  0  0  0  0
  5  1  2  0  0  0  0
  6  4  2  0  0  0  0
  6 18  1  0  0  0  0
  7 11  1  0  0  0  0
  9 12  2  0  0  0  0
 10  9  1  0  0  0  0
 10  7  2  0  0  0  0
 11  8  2  0  0  0  0
 11  2  1  0  0  0  0
 12 15  1  0  0  0  0
 12  8  1  0  0  0  0
 14 15  1  0  0  0  0
 15 13  2  0  0  0  0
 16 17  2  0  0  0  0
 18 16  2  0  0  0  0
 20 25  1  0  0  0  0
 20 22  1  0  0  0  0
 21 24  1  0  0  0  0
 22 24  1  0  0  0  0
 22 19  1  0  0  0  0
 23 19  1  0  0  0  0
 23 17  1  0  0  0  0
 24 19  1  0  0  0  0
 25 23  1  0  0  0  0
M  END
>  <MODEL>
9

>  <REMARK>
 VINA RESULT:      -8.1      4.181      8.969
  Name = 
  4 active torsions:
  status: ('A' for Active; 'I' for Inactive)
    1  A    between atoms: C_5  and  C_24
    2  A    between atoms: C_9  and  C_13
    3  A    between atoms: C_19  and  C_20
    4  A    between atoms: C_23  and  C_25
                            x       y       z     vdW  Elec       q    Type
                         _______ _______ _______ _____ _____    ______ ____

>  <TORSDO>
F 4

$$$$
