=
 OpenBabel11072412533D

 41 46  0  0  1  0  0  0  0  0999 V2000
  159.2840  213.0070  154.0320 C   0  0  0  0  0  2  0  0  0  0  0  0
  159.3820  212.2180  152.7220 C   0  0  2  0  0  3  0  0  0  0  0  0
  161.0670  208.3060  153.3660 C   0  0  0  0  0  3  0  0  0  0  0  0
  160.3580  208.9480  154.3840 C   0  0  0  0  0  3  0  0  0  0  0  0
  160.0510  210.8840  152.9480 C   0  0  0  0  0  0  0  0  0  0  0  0
  158.7990  212.1450  155.1720 C   0  0  0  0  0  0  0  0  0  0  0  0
  161.2720  208.9370  152.1320 C   0  0  0  0  0  0  0  0  0  0  0  0
  159.1230  210.8860  155.2280 N   0  0  0  0  0  0  0  0  0  0  0  0
  159.8510  210.2340  154.1800 C   0  0  0  0  0  0  0  0  0  0  0  0
  160.7470  210.2220  151.9260 C   0  0  0  0  0  3  0  0  0  0  0  0
  158.0840  212.7280  156.2630 N   0  0  0  0  0  2  0  0  0  0  0  0
  156.4200  214.3630  155.6280 C   0  0  0  0  0  2  0  0  0  0  0  0
  157.7500  214.1420  156.3160 C   0  0  0  0  0  3  0  0  0  0  0  0
  156.4930  214.3290  157.1390 C   0  0  0  0  0  2  0  0  0  0  0  0
  162.0320  208.2540  151.0690 C   0  0  0  0  0  0  0  0  0  0  0  0
  162.3150  208.8660  150.0020 O   0  0  0  0  0  0  0  0  0  0  0  0
  162.4450  206.8220  151.2190 C   0  0  0  0  0  2  0  0  0  0  0  0
  161.5050  205.1710  152.5350 C   0  0  0  0  0  1  0  0  0  0  0  0
  161.2720  205.9600  151.3320 N   0  0  0  0  0  0  0  0  0  0  0  0
  161.4340  205.7940  147.8460 O   0  0  0  0  0  0  0  0  0  0  0  0
  161.0920  202.4820  148.5240 N   0  0  0  0  0  0  0  0  0  0  0  0
  160.4170  202.6840  149.7750 C   0  0  0  0  0  3  0  0  0  0  0  0
  160.9930  203.4240  147.4150 C   0  0  0  0  0  2  0  0  0  0  0  0
  162.0240  204.5360  147.5790 C   0  0  0  0  0  2  0  0  0  0  0  0
  161.2380  205.0460  150.1790 C   0  0  1  0  0  3  0  0  0  0  0  0
  160.4500  203.8060  150.5040 C   0  0  0  0  0  3  0  0  0  0  0  0
  160.5760  205.7120  148.9660 C   0  0  0  0  0  2  0  0  0  0  0  0
  161.4880  201.1250  148.1990 C   0  0  0  0  0  1  0  0  0  0  0  0
  160.0830  213.0510  151.6460 C   0  0  0  0  0  2  0  0  0  0  0  0
  158.0190  213.8370  150.4680 C   0  0  0  0  0  0  0  0  0  0  0  0
  159.7790  212.6680  149.1130 C   0  0  2  0  0  3  0  0  0  0  0  0
  158.8110  212.6850  147.9310 C   0  0  1  0  0  3  0  0  0  0  0  0
  159.2350  213.2360  150.4110 C   0  0  0  0  0  0  0  0  0  0  0  0
  157.4640  214.3650  151.7540 C   0  0  0  0  0  1  0  0  0  0  0  0
  161.0780  213.1750  147.1400 C   0  0  2  0  0  3  0  0  0  0  0  0
  157.9160  213.9170  147.9720 C   0  0  0  0  0  2  0  0  0  0  0  0
  159.6860  212.7530  146.6920 C   0  0  0  0  0  2  0  0  0  0  0  0
  157.1180  213.9060  149.2660 C   0  0  0  0  0  2  0  0  0  0  0  0
  161.0120  213.4090  148.6390 C   0  0  0  0  0  2  0  0  0  0  0  0
  162.4590  214.1720  145.4660 O   0  0  0  0  0  1  0  0  0  0  0  0
  161.4830  214.4500  146.4240 C   0  0  0  0  0  2  0  0  0  0  0  0
  1  6  1  0  0  0  0
  2 29  1  6  0  0  0
  2  5  1  0  0  0  0
  2  1  1  0  0  0  0
  3  4  1  0  0  0  0
  5  9  1  0  0  0  0
  6  8  2  0  0  0  0
  6 11  1  0  0  0  0
  7  3  2  0  0  0  0
  9  4  2  0  0  0  0
  9  8  1  0  0  0  0
 10  7  1  0  0  0  0
 10  5  2  0  0  0  0
 11 13  1  0  0  0  0
 12 13  1  0  0  0  0
 12 14  1  0  0  0  0
 13 14  1  0  0  0  0
 15 17  1  0  0  0  0
 15  7  1  0  0  0  0
 16 15  2  0  0  0  0
 17 19  1  0  0  0  0
 19 18  1  0  0  0  0
 20 27  1  0  0  0  0
 21 22  1  0  0  0  0
 22 26  2  0  0  0  0
 23 24  1  0  0  0  0
 23 21  1  0  0  0  0
 24 20  1  0  0  0  0
 25 26  1  0  0  0  0
 25 19  1  1  0  0  0
 27 25  1  0  0  0  0
 28 21  1  0  0  0  0
 30 34  1  0  0  0  0
 31 39  1  6  0  0  0
 31 33  1  0  0  0  0
 32 37  1  6  0  0  0
 32 36  1  0  0  0  0
 32 31  1  0  0  0  0
 33 30  2  0  0  0  0
 33 29  1  0  0  0  0
 35 41  1  6  0  0  0
 35 39  1  0  0  0  0
 36 38  1  0  0  0  0
 37 35  1  0  0  0  0
 38 30  1  0  0  0  0
 40 41  1  0  0  0  0
M  END
>  <MODEL>
1

>  <REMARK>
 VINA RESULT:      -7.2      0.000      0.000
  Name = 
  8 active torsions:
  status: ('A' for Active; 'I' for Inactive)
    1  A    between atoms: C_8  and  C_27
    2  A    between atoms: C_9  and  C_27
    3  A    between atoms: C_11  and  N_38
    4  A    between atoms: N_18  and  C_26
    5  A    between atoms: N_18  and  C_39
    6  A    between atoms: C_21  and  C_24
    7  A    between atoms: C_25  and  C_28
    8  A    between atoms: C_28  and  C_39
                            x       y       z     vdW  Elec       q    Type
                         _______ _______ _______ _____ _____    ______ ____

>  <TORSDO>
F 8

$$$$
=
 OpenBabel11072412533D

 41 46  0  0  1  0  0  0  0  0999 V2000
  160.9330  211.0130  153.5440 C   0  0  0  0  0  2  0  0  0  0  0  0
  160.7020  210.7910  152.0460 C   0  0  2  0  0  3  0  0  0  0  0  0
  161.6840  206.7590  150.8860 C   0  0  0  0  0  3  0  0  0  0  0  0
  161.2530  207.0380  152.1850 C   0  0  0  0  0  3  0  0  0  0  0  0
  161.1290  209.4020  151.6370 C   0  0  0  0  0  0  0  0  0  0  0  0
  160.4500  209.8430  154.3660 C   0  0  0  0  0  0  0  0  0  0  0  0
  161.8370  207.7900  149.9490 C   0  0  0  0  0  0  0  0  0  0  0  0
  160.5340  208.6320  153.8980 N   0  0  0  0  0  0  0  0  0  0  0  0
  160.9770  208.3530  152.5640 C   0  0  0  0  0  0  0  0  0  0  0  0
  161.5420  209.1090  150.3290 C   0  0  0  0  0  3  0  0  0  0  0  0
  160.0120  210.0390  155.7130 N   0  0  0  0  0  2  0  0  0  0  0  0
  158.7060  212.0650  155.8920 C   0  0  0  0  0  2  0  0  0  0  0  0
  159.9640  211.3500  156.3380 C   0  0  0  0  0  3  0  0  0  0  0  0
  158.7650  211.4210  157.2600 C   0  0  0  0  0  2  0  0  0  0  0  0
  162.3030  207.4860  148.5830 C   0  0  0  0  0  0  0  0  0  0  0  0
  163.3910  207.9700  148.1650 O   0  0  0  0  0  0  0  0  0  0  0  0
  161.4810  206.6350  147.6640 C   0  0  0  0  0  2  0  0  0  0  0  0
  162.1190  205.7870  145.6120 C   0  0  0  0  0  1  0  0  0  0  0  0
  162.3080  205.6040  147.0450 N   0  0  0  0  0  0  0  0  0  0  0  0
  161.1910  202.5470  145.7770 O   0  0  0  0  0  0  0  0  0  0  0  0
  160.8220  201.9170  149.0960 N   0  0  0  0  0  0  0  0  0  0  0  0
  160.6630  203.2960  149.4630 C   0  0  0  0  0  3  0  0  0  0  0  0
  160.4150  201.3970  147.7960 C   0  0  0  0  0  2  0  0  0  0  0  0
  161.5300  201.6050  146.7760 C   0  0  0  0  0  2  0  0  0  0  0  0
  161.7810  204.2820  147.4160 C   0  0  1  0  0  3  0  0  0  0  0  0
  161.0550  204.3460  148.7320 C   0  0  0  0  0  3  0  0  0  0  0  0
  160.7890  203.7690  146.3630 C   0  0  0  0  0  2  0  0  0  0  0  0
  160.9520  200.9570  150.1750 C   0  0  0  0  0  1  0  0  0  0  0  0
  161.3980  211.8830  151.2290 C   0  0  0  0  0  2  0  0  0  0  0  0
  159.4710  213.4150  150.7710 C   0  0  0  0  0  0  0  0  0  0  0  0
  160.6100  212.3310  148.8140 C   0  0  2  0  0  3  0  0  0  0  0  0
  159.5120  212.9050  147.9190 C   0  0  1  0  0  3  0  0  0  0  0  0
  160.4510  212.6020  150.2980 C   0  0  0  0  0  0  0  0  0  0  0  0
  159.2890  213.6550  152.2360 C   0  0  0  0  0  1  0  0  0  0  0  0
  161.6750  213.0890  146.7820 C   0  0  2  0  0  3  0  0  0  0  0  0
  159.0070  214.2390  148.4570 C   0  0  0  0  0  2  0  0  0  0  0  0
  160.1690  213.1360  146.5690 C   0  0  0  0  0  2  0  0  0  0  0  0
  158.4480  214.0280  149.8550 C   0  0  0  0  0  2  0  0  0  0  0  0
  161.9090  212.8850  148.2690 C   0  0  0  0  0  2  0  0  0  0  0  0
  162.9220  214.2200  145.0880 O   0  0  0  0  0  1  0  0  0  0  0  0
  162.2990  214.3950  146.3240 C   0  0  0  0  0  2  0  0  0  0  0  0
  1  6  1  0  0  0  0
  2 29  1  6  0  0  0
  2  1  1  0  0  0  0
  3  4  1  0  0  0  0
  4  9  2  0  0  0  0
  5  2  1  0  0  0  0
  5  9  1  0  0  0  0
  6 11  1  0  0  0  0
  7 10  1  0  0  0  0
  7  3  2  0  0  0  0
  8  6  2  0  0  0  0
  9  8  1  0  0  0  0
 10  5  2  0  0  0  0
 11 13  1  0  0  0  0
 12 13  1  0  0  0  0
 12 14  1  0  0  0  0
 13 14  1  0  0  0  0
 15  7  1  0  0  0  0
 16 15  2  0  0  0  0
 17 15  1  0  0  0  0
 18 19  1  0  0  0  0
 19 17  1  0  0  0  0
 20 27  1  0  0  0  0
 20 24  1  0  0  0  0
 21 22  1  0  0  0  0
 21 28  1  0  0  0  0
 23 21  1  0  0  0  0
 24 23  1  0  0  0  0
 25 19  1  6  0  0  0
 25 26  1  0  0  0  0
 26 22  2  0  0  0  0
 27 25  1  0  0  0  0
 30 34  1  0  0  0  0
 31 39  1  6  0  0  0
 31 33  1  0  0  0  0
 32 37  1  6  0  0  0
 32 36  1  0  0  0  0
 32 31  1  0  0  0  0
 33 30  2  0  0  0  0
 33 29  1  0  0  0  0
 35 41  1  1  0  0  0
 35 39  1  0  0  0  0
 36 38  1  0  0  0  0
 37 35  1  0  0  0  0
 38 30  1  0  0  0  0
 40 41  1  0  0  0  0
M  END
>  <MODEL>
2

>  <REMARK>
 VINA RESULT:      -6.8      1.636      2.658
  Name = 
  8 active torsions:
  status: ('A' for Active; 'I' for Inactive)
    1  A    between atoms: C_8  and  C_27
    2  A    between atoms: C_9  and  C_27
    3  A    between atoms: C_11  and  N_38
    4  A    between atoms: N_18  and  C_26
    5  A    between atoms: N_18  and  C_39
    6  A    between atoms: C_21  and  C_24
    7  A    between atoms: C_25  and  C_28
    8  A    between atoms: C_28  and  C_39
                            x       y       z     vdW  Elec       q    Type
                         _______ _______ _______ _____ _____    ______ ____

>  <TORSDO>
F 8

$$$$
=
 OpenBabel11072412533D

 41 46  0  0  1  0  0  0  0  0999 V2000
  161.1990  211.0200  153.7770 C   0  0  0  0  0  2  0  0  0  0  0  0
  161.0740  210.1170  152.5460 C   0  0  2  0  0  3  0  0  0  0  0  0
  160.8360  205.9630  153.6630 C   0  0  0  0  0  3  0  0  0  0  0  0
  160.3780  206.9570  154.5300 C   0  0  0  0  0  3  0  0  0  0  0  0
  161.0770  208.6610  152.9460 C   0  0  0  0  0  0  0  0  0  0  0  0
  160.2820  210.5810  154.8920 C   0  0  0  0  0  0  0  0  0  0  0  0
  161.4120  206.3010  152.4310 C   0  0  0  0  0  0  0  0  0  0  0  0
  160.0250  209.3180  155.0720 N   0  0  0  0  0  0  0  0  0  0  0  0
  160.4970  208.3030  154.1780 C   0  0  0  0  0  0  0  0  0  0  0  0
  161.5140  207.6540  152.0730 C   0  0  0  0  0  3  0  0  0  0  0  0
  159.7860  211.5330  155.8360 N   0  0  0  0  0  2  0  0  0  0  0  0
  158.9310  213.6700  155.0960 C   0  0  0  0  0  2  0  0  0  0  0  0
  160.0910  212.9510  155.7520 C   0  0  0  0  0  3  0  0  0  0  0  0
  159.1030  213.7270  156.5980 C   0  0  0  0  0  2  0  0  0  0  0  0
  161.9010  205.2430  151.5270 C   0  0  0  0  0  0  0  0  0  0  0  0
  162.3580  204.1670  152.0040 O   0  0  0  0  0  0  0  0  0  0  0  0
  161.8990  205.4400  150.0420 C   0  0  0  0  0  2  0  0  0  0  0  0
  160.6540  203.4950  150.1090 C   0  0  0  0  0  1  0  0  0  0  0  0
  160.7400  204.7880  149.4420 N   0  0  0  0  0  0  0  0  0  0  0  0
  161.1330  202.3160  147.0040 O   0  0  0  0  0  0  0  0  0  0  0  0
  161.5690  205.0650  145.0550 N   0  0  0  0  0  0  0  0  0  0  0  0
  162.0270  205.9020  146.1270 C   0  0  0  0  0  3  0  0  0  0  0  0
  161.7810  203.6220  145.0370 C   0  0  0  0  0  2  0  0  0  0  0  0
  160.6710  202.9200  145.8110 C   0  0  0  0  0  2  0  0  0  0  0  0
  161.0090  204.5540  148.0140 C   0  0  1  0  0  3  0  0  0  0  0  0
  161.8120  205.6840  147.4300 C   0  0  0  0  0  3  0  0  0  0  0  0
  161.8100  203.2610  147.8080 C   0  0  0  0  0  2  0  0  0  0  0  0
  161.3130  205.7060  143.7790 C   0  0  0  0  0  1  0  0  0  0  0  0
  162.1670  210.4470  151.5260 C   0  0  0  0  0  2  0  0  0  0  0  0
  161.6560  210.6890  149.0870 C   0  0  0  0  0  0  0  0  0  0  0  0
  161.1410  212.6250  150.5990 C   0  0  2  0  0  3  0  0  0  0  0  0
  160.8120  213.4470  149.3530 C   0  0  1  0  0  3  0  0  0  0  0  0
  161.6390  211.2160  150.3390 C   0  0  0  0  0  0  0  0  0  0  0  0
  162.1810  209.3120  148.8230 C   0  0  0  0  0  1  0  0  0  0  0  0
  159.1920  213.9540  151.1210 C   0  0  2  0  0  3  0  0  0  0  0  0
  160.2340  212.5660  148.2520 C   0  0  0  0  0  2  0  0  0  0  0  0
  159.7530  214.4430  149.7930 C   0  0  0  0  0  2  0  0  0  0  0  0
  161.2520  211.4990  147.8860 C   0  0  0  0  0  2  0  0  0  0  0  0
  159.8820  212.6390  151.4390 C   0  0  0  0  0  2  0  0  0  0  0  0
  157.2860  213.9510  149.6820 O   0  0  0  0  0  1  0  0  0  0  0  0
  157.6930  213.7490  151.0010 C   0  0  0  0  0  2  0  0  0  0  0  0
  1  6  1  0  0  0  0
  2 29  1  6  0  0  0
  2  5  1  0  0  0  0
  2  1  1  0  0  0  0
  3  4  1  0  0  0  0
  5  9  1  0  0  0  0
  6  8  2  0  0  0  0
  6 11  1  0  0  0  0
  7  3  2  0  0  0  0
  9  4  2  0  0  0  0
  9  8  1  0  0  0  0
 10  7  1  0  0  0  0
 10  5  2  0  0  0  0
 12 13  1  0  0  0  0
 12 14  1  0  0  0  0
 13 11  1  0  0  0  0
 13 14  1  0  0  0  0
 15 16  2  0  0  0  0
 15  7  1  0  0  0  0
 17 15  1  0  0  0  0
 19 17  1  0  0  0  0
 19 18  1  0  0  0  0
 20 27  1  0  0  0  0
 21 22  1  0  0  0  0
 22 26  2  0  0  0  0
 23 21  1  0  0  0  0
 23 24  1  0  0  0  0
 24 20  1  0  0  0  0
 25 19  1  1  0  0  0
 26 25  1  0  0  0  0
 27 25  1  0  0  0  0
 28 21  1  0  0  0  0
 30 33  2  0  0  0  0
 31 39  1  1  0  0  0
 32 36  1  6  0  0  0
 32 37  1  0  0  0  0
 32 31  1  0  0  0  0
 33 31  1  0  0  0  0
 33 29  1  0  0  0  0
 34 30  1  0  0  0  0
 35 41  1  6  0  0  0
 35 39  1  0  0  0  0
 37 35  1  0  0  0  0
 38 36  1  0  0  0  0
 38 30  1  0  0  0  0
 40 41  1  0  0  0  0
M  END
>  <MODEL>
3

>  <REMARK>
 VINA RESULT:      -6.5      2.168      3.649
  Name = 
  8 active torsions:
  status: ('A' for Active; 'I' for Inactive)
    1  A    between atoms: C_8  and  C_27
    2  A    between atoms: C_9  and  C_27
    3  A    between atoms: C_11  and  N_38
    4  A    between atoms: N_18  and  C_26
    5  A    between atoms: N_18  and  C_39
    6  A    between atoms: C_21  and  C_24
    7  A    between atoms: C_25  and  C_28
    8  A    between atoms: C_28  and  C_39
                            x       y       z     vdW  Elec       q    Type
                         _______ _______ _______ _____ _____    ______ ____

>  <TORSDO>
F 8

$$$$
=
 OpenBabel11072412533D

 41 46  0  0  1  0  0  0  0  0999 V2000
  161.6230  205.5460  150.9850 C   0  0  0  0  0  2  0  0  0  0  0  0
  161.2600  207.0180  151.2030 C   0  0  2  0  0  3  0  0  0  0  0  0
  161.6900  209.2970  147.5720 C   0  0  0  0  0  3  0  0  0  0  0  0
  161.3890  207.9340  147.5220 C   0  0  0  0  0  3  0  0  0  0  0  0
  161.4960  207.8210  149.9470 C   0  0  0  0  0  0  0  0  0  0  0  0
  161.0710  205.0180  149.6830 C   0  0  0  0  0  0  0  0  0  0  0  0
  161.8910  209.9380  148.8020 C   0  0  0  0  0  0  0  0  0  0  0  0
  160.9830  205.7960  148.6440 N   0  0  0  0  0  0  0  0  0  0  0  0
  161.2930  207.1940  148.7030 C   0  0  0  0  0  0  0  0  0  0  0  0
  161.7760  209.1940  149.9870 C   0  0  0  0  0  3  0  0  0  0  0  0
  160.7580  203.6310  149.5410 N   0  0  0  0  0  2  0  0  0  0  0  0
  159.9250  201.5420  150.4300 C   0  0  0  0  0  2  0  0  0  0  0  0
  160.9040  202.6790  150.6300 C   0  0  0  0  0  3  0  0  0  0  0  0
  161.3850  201.3550  150.0760 C   0  0  0  0  0  2  0  0  0  0  0  0
  162.2180  211.3750  148.8430 C   0  0  0  0  0  0  0  0  0  0  0  0
  163.1990  211.8180  148.1830 O   0  0  0  0  0  0  0  0  0  0  0  0
  161.4220  212.3200  149.6900 C   0  0  0  0  0  2  0  0  0  0  0  0
  161.4230  214.4530  148.8010 C   0  0  0  0  0  1  0  0  0  0  0  0
  160.6410  213.2240  148.8520 N   0  0  0  0  0  0  0  0  0  0  0  0
  157.2450  213.8530  148.3250 O   0  0  0  0  0  0  0  0  0  0  0  0
  157.3020  214.0290  151.7180 N   0  0  0  0  0  0  0  0  0  0  0  0
  158.6860  214.4050  151.7960 C   0  0  0  0  0  3  0  0  0  0  0  0
  156.4550  214.3770  150.5830 C   0  0  0  0  0  2  0  0  0  0  0  0
  156.6070  213.3370  149.4780 C   0  0  0  0  0  2  0  0  0  0  0  0
  159.3650  213.5170  149.5240 C   0  0  1  0  0  3  0  0  0  0  0  0
  159.6000  214.2100  150.8380 C   0  0  0  0  0  3  0  0  0  0  0  0
  158.4870  214.4360  148.6640 C   0  0  0  0  0  2  0  0  0  0  0  0
  156.6320  213.7150  152.9650 C   0  0  0  0  0  1  0  0  0  0  0  0
  162.0140  207.5820  152.4100 C   0  0  0  0  0  2  0  0  0  0  0  0
  160.7110  206.6520  154.3350 C   0  0  0  0  0  0  0  0  0  0  0  0
  160.6940  209.1380  153.9890 C   0  0  2  0  0  3  0  0  0  0  0  0
  159.6400  209.2350  155.0910 C   0  0  1  0  0  3  0  0  0  0  0  0
  161.1330  207.7310  153.6270 C   0  0  0  0  0  0  0  0  0  0  0  0
  161.1140  205.2600  153.9580 C   0  0  0  0  0  1  0  0  0  0  0  0
  161.2330  211.0830  155.3150 C   0  0  2  0  0  3  0  0  0  0  0  0
  159.8400  208.1460  156.1390 C   0  0  0  0  0  2  0  0  0  0  0  0
  159.8580  210.5900  155.7410 C   0  0  0  0  0  2  0  0  0  0  0  0
  159.7310  206.7870  155.4670 C   0  0  0  0  0  2  0  0  0  0  0  0
  161.8510  209.9940  154.4560 C   0  0  0  0  0  2  0  0  0  0  0  0
  163.0100  210.3030  156.7070 O   0  0  0  0  0  1  0  0  0  0  0  0
  162.0890  211.3380  156.5420 C   0  0  0  0  0  2  0  0  0  0  0  0
  1  2  1  0  0  0  0
  2 29  1  1  0  0  0
  3  7  1  0  0  0  0
  4  3  2  0  0  0  0
  4  9  1  0  0  0  0
  5 10  1  0  0  0  0
  5  2  1  0  0  0  0
  6  1  1  0  0  0  0
  7 15  1  0  0  0  0
  7 10  2  0  0  0  0
  8  9  1  0  0  0  0
  8  6  2  0  0  0  0
  9  5  2  0  0  0  0
 11  6  1  0  0  0  0
 11 13  1  0  0  0  0
 12 13  1  0  0  0  0
 14 12  1  0  0  0  0
 14 13  1  0  0  0  0
 15 17  1  0  0  0  0
 16 15  2  0  0  0  0
 18 19  1  0  0  0  0
 19 17  1  0  0  0  0
 20 27  1  0  0  0  0
 20 24  1  0  0  0  0
 21 22  1  0  0  0  0
 21 28  1  0  0  0  0
 23 21  1  0  0  0  0
 24 23  1  0  0  0  0
 25 19  1  6  0  0  0
 25 26  1  0  0  0  0
 26 22  2  0  0  0  0
 27 25  1  0  0  0  0
 29 33  1  0  0  0  0
 30 38  1  0  0  0  0
 31 39  1  1  0  0  0
 31 32  1  0  0  0  0
 32 37  1  1  0  0  0
 32 36  1  0  0  0  0
 33 31  1  0  0  0  0
 33 30  2  0  0  0  0
 34 30  1  0  0  0  0
 35 37  1  0  0  0  0
 35 41  1  1  0  0  0
 38 36  1  0  0  0  0
 39 35  1  0  0  0  0
 41 40  1  0  0  0  0
M  END
>  <MODEL>
4

>  <REMARK>
 VINA RESULT:      -6.4      2.626      9.279
  Name = 
  8 active torsions:
  status: ('A' for Active; 'I' for Inactive)
    1  A    between atoms: C_8  and  C_27
    2  A    between atoms: C_9  and  C_27
    3  A    between atoms: C_11  and  N_38
    4  A    between atoms: N_18  and  C_26
    5  A    between atoms: N_18  and  C_39
    6  A    between atoms: C_21  and  C_24
    7  A    between atoms: C_25  and  C_28
    8  A    between atoms: C_28  and  C_39
                            x       y       z     vdW  Elec       q    Type
                         _______ _______ _______ _____ _____    ______ ____

>  <TORSDO>
F 8

$$$$
=
 OpenBabel11072412533D

 41 46  0  0  1  0  0  0  0  0999 V2000
  161.5870  205.1430  150.7560 C   0  0  0  0  0  2  0  0  0  0  0  0
  161.2450  206.6060  151.0580 C   0  0  2  0  0  3  0  0  0  0  0  0
  161.5820  209.0590  147.5320 C   0  0  0  0  0  3  0  0  0  0  0  0
  161.2660  207.7030  147.4240 C   0  0  0  0  0  3  0  0  0  0  0  0
  161.4480  207.4680  149.8360 C   0  0  0  0  0  0  0  0  0  0  0  0
  160.9900  204.6860  149.4480 C   0  0  0  0  0  0  0  0  0  0  0  0
  161.8280  209.6360  148.7850 C   0  0  0  0  0  0  0  0  0  0  0  0
  160.8760  205.5150  148.4510 N   0  0  0  0  0  0  0  0  0  0  0  0
  161.2010  206.9060  148.5690 C   0  0  0  0  0  0  0  0  0  0  0  0
  161.7430  208.8360  149.9350 C   0  0  0  0  0  3  0  0  0  0  0  0
  160.6590  203.3100  149.2480 N   0  0  0  0  0  2  0  0  0  0  0  0
  159.7820  201.2270  150.1070 C   0  0  0  0  0  2  0  0  0  0  0  0
  160.8310  202.3040  150.2830 C   0  0  0  0  0  3  0  0  0  0  0  0
  161.2020  200.9830  149.6420 C   0  0  0  0  0  2  0  0  0  0  0  0
  162.1700  211.0670  148.8870 C   0  0  0  0  0  0  0  0  0  0  0  0
  163.0510  211.4490  149.7060 O   0  0  0  0  0  0  0  0  0  0  0  0
  161.4570  212.0880  148.0530 C   0  0  0  0  0  2  0  0  0  0  0  0
  162.1780  214.2830  148.0040 C   0  0  0  0  0  1  0  0  0  0  0  0
  162.4150  212.9770  147.4030 N   0  0  0  0  0  0  0  0  0  0  0  0
  163.3940  214.3860  144.3600 O   0  0  0  0  0  0  0  0  0  0  0  0
  160.7070  212.6080  143.2850 N   0  0  0  0  0  0  0  0  0  0  0  0
  160.0380  212.6200  144.5560 C   0  0  0  0  0  3  0  0  0  0  0  0
  161.5980  213.6790  142.8550 C   0  0  0  0  0  2  0  0  0  0  0  0
  163.0050  213.4350  143.3880 C   0  0  0  0  0  2  0  0  0  0  0  0
  162.0920  213.0620  145.9700 C   0  0  1  0  0  3  0  0  0  0  0  0
  160.6220  212.8390  145.7400 C   0  0  0  0  0  3  0  0  0  0  0  0
  162.4450  214.4450  145.4060 C   0  0  0  0  0  2  0  0  0  0  0  0
  160.1360  211.7720  142.2470 C   0  0  0  0  0  1  0  0  0  0  0  0
  162.0420  207.1040  152.2660 C   0  0  0  0  0  2  0  0  0  0  0  0
  160.7030  206.3410  154.2400 C   0  0  0  0  0  0  0  0  0  0  0  0
  160.7900  208.8020  153.7520 C   0  0  2  0  0  3  0  0  0  0  0  0
  159.7430  209.0060  154.8460 C   0  0  1  0  0  3  0  0  0  0  0  0
  161.1690  207.3590  153.4720 C   0  0  0  0  0  0  0  0  0  0  0  0
  161.0450  204.9140  153.9430 C   0  0  0  0  0  1  0  0  0  0  0  0
  161.4130  210.7940  154.9670 C   0  0  2  0  0  3  0  0  0  0  0  0
  159.8980  207.9710  155.9540 C   0  0  0  0  0  2  0  0  0  0  0  0
  160.0190  210.3850  155.4180 C   0  0  0  0  0  2  0  0  0  0  0  0
  159.7300  206.5820  155.3610 C   0  0  0  0  0  2  0  0  0  0  0  0
  161.9840  209.6330  154.1720 C   0  0  0  0  0  2  0  0  0  0  0  0
  163.6200  210.8280  155.8800 O   0  0  0  0  0  1  0  0  0  0  0  0
  162.2810  211.0820  156.1780 C   0  0  0  0  0  2  0  0  0  0  0  0
  1  2  1  0  0  0  0
  2 29  1  1  0  0  0
  3  7  1  0  0  0  0
  4  3  2  0  0  0  0
  4  9  1  0  0  0  0
  5 10  1  0  0  0  0
  5  2  1  0  0  0  0
  6  1  1  0  0  0  0
  7 15  1  0  0  0  0
  7 10  2  0  0  0  0
  8  9  1  0  0  0  0
  8  6  2  0  0  0  0
  9  5  2  0  0  0  0
 11  6  1  0  0  0  0
 11 13  1  0  0  0  0
 12 13  1  0  0  0  0
 14 12  1  0  0  0  0
 14 13  1  0  0  0  0
 15 16  2  0  0  0  0
 17 15  1  0  0  0  0
 19 18  1  0  0  0  0
 19 17  1  0  0  0  0
 20 27  1  0  0  0  0
 21 22  1  0  0  0  0
 22 26  2  0  0  0  0
 23 21  1  0  0  0  0
 23 24  1  0  0  0  0
 24 20  1  0  0  0  0
 25 19  1  1  0  0  0
 26 25  1  0  0  0  0
 27 25  1  0  0  0  0
 28 21  1  0  0  0  0
 29 33  1  0  0  0  0
 30 38  1  0  0  0  0
 31 39  1  1  0  0  0
 31 32  1  0  0  0  0
 32 37  1  1  0  0  0
 32 36  1  0  0  0  0
 33 31  1  0  0  0  0
 33 30  2  0  0  0  0
 34 30  1  0  0  0  0
 35 37  1  0  0  0  0
 35 41  1  1  0  0  0
 38 36  1  0  0  0  0
 39 35  1  0  0  0  0
 40 41  1  0  0  0  0
M  END
>  <MODEL>
5

>  <REMARK>
 VINA RESULT:      -6.3      3.544      9.218
  Name = 
  8 active torsions:
  status: ('A' for Active; 'I' for Inactive)
    1  A    between atoms: C_8  and  C_27
    2  A    between atoms: C_9  and  C_27
    3  A    between atoms: C_11  and  N_38
    4  A    between atoms: N_18  and  C_26
    5  A    between atoms: N_18  and  C_39
    6  A    between atoms: C_21  and  C_24
    7  A    between atoms: C_25  and  C_28
    8  A    between atoms: C_28  and  C_39
                            x       y       z     vdW  Elec       q    Type
                         _______ _______ _______ _____ _____    ______ ____

>  <TORSDO>
F 8

$$$$
=
 OpenBabel11072412533D

 41 46  0  0  1  0  0  0  0  0999 V2000
  160.3380  211.1640  151.7870 C   0  0  0  0  0  2  0  0  0  0  0  0
  160.8720  209.9810  152.6000 C   0  0  2  0  0  3  0  0  0  0  0  0
  162.0590  206.7240  150.0410 C   0  0  0  0  0  3  0  0  0  0  0  0
  162.1080  208.0420  149.5800 C   0  0  0  0  0  3  0  0  0  0  0  0
  161.2040  208.8160  151.6990 C   0  0  0  0  0  0  0  0  0  0  0  0
  161.1760  211.4250  150.5590 C   0  0  0  0  0  0  0  0  0  0  0  0
  161.5900  206.4370  151.3300 C   0  0  0  0  0  0  0  0  0  0  0  0
  161.7350  210.4370  149.9230 N   0  0  0  0  0  0  0  0  0  0  0  0
  161.6810  209.0870  150.4020 C   0  0  0  0  0  0  0  0  0  0  0  0
  161.1790  207.4920  152.1590 C   0  0  0  0  0  3  0  0  0  0  0  0
  161.2610  212.7420  150.0100 N   0  0  0  0  0  2  0  0  0  0  0  0
  159.5950  214.4530  149.6350 C   0  0  0  0  0  2  0  0  0  0  0  0
  160.6010  213.8870  150.6140 C   0  0  0  0  0  3  0  0  0  0  0  0
  159.1270  213.5840  150.7820 C   0  0  0  0  0  2  0  0  0  0  0  0
  161.5340  205.0410  151.8030 C   0  0  0  0  0  0  0  0  0  0  0  0
  161.2360  204.7930  153.0050 O   0  0  0  0  0  0  0  0  0  0  0  0
  161.8620  203.9050  150.8840 C   0  0  0  0  0  2  0  0  0  0  0  0
  160.5470  202.0050  150.9050 C   0  0  0  0  0  1  0  0  0  0  0  0
  160.6420  203.3350  150.3180 N   0  0  0  0  0  0  0  0  0  0  0  0
  160.8240  201.0160  147.7120 O   0  0  0  0  0  0  0  0  0  0  0  0
  161.1870  203.8740  145.9120 N   0  0  0  0  0  0  0  0  0  0  0  0
  161.7320  204.6350  147.0010 C   0  0  0  0  0  3  0  0  0  0  0  0
  161.3680  202.4320  145.7900 C   0  0  0  0  0  2  0  0  0  0  0  0
  160.2970  201.7010  146.5920 C   0  0  0  0  0  2  0  0  0  0  0  0
  160.8130  203.1870  148.8640 C   0  0  1  0  0  3  0  0  0  0  0  0
  161.5990  204.3390  148.2990 C   0  0  0  0  0  3  0  0  0  0  0  0
  161.5720  201.8970  148.5260 C   0  0  0  0  0  2  0  0  0  0  0  0
  160.8620  204.5990  144.6980 C   0  0  0  0  0  1  0  0  0  0  0  0
  159.8840  209.6020  153.7060 C   0  0  0  0  0  2  0  0  0  0  0  0
  160.8340  211.1580  155.4230 C   0  0  0  0  0  0  0  0  0  0  0  0
  158.3470  211.1530  155.0810 C   0  0  2  0  0  3  0  0  0  0  0  0
  158.2290  212.0810  156.2890 C   0  0  1  0  0  3  0  0  0  0  0  0
  159.7510  210.6770  154.7590 C   0  0  0  0  0  0  0  0  0  0  0  0
  162.2160  210.6630  155.1320 C   0  0  0  0  0  1  0  0  0  0  0  0
  156.6610  212.7990  154.5470 C   0  0  2  0  0  3  0  0  0  0  0  0
  159.4470  212.9900  156.4040 C   0  0  0  0  0  2  0  0  0  0  0  0
  157.0010  212.9360  156.0250 C   0  0  0  0  0  2  0  0  0  0  0  0
  160.6910  212.1320  156.5600 C   0  0  0  0  0  2  0  0  0  0  0  0
  157.7220  211.9070  153.9270 C   0  0  0  0  0  2  0  0  0  0  0  0
  156.2060  214.0710  152.5780 O   0  0  0  0  0  1  0  0  0  0  0  0
  156.6710  214.1670  153.8900 C   0  0  0  0  0  2  0  0  0  0  0  0
  1  2  1  0  0  0  0
  2 29  1  1  0  0  0
  3  7  1  0  0  0  0
  4  3  2  0  0  0  0
  4  9  1  0  0  0  0
  5 10  1  0  0  0  0
  5  2  1  0  0  0  0
  6  1  1  0  0  0  0
  7 15  1  0  0  0  0
  7 10  2  0  0  0  0
  8  9  1  0  0  0  0
  8  6  2  0  0  0  0
  9  5  2  0  0  0  0
 11  6  1  0  0  0  0
 11 13  1  0  0  0  0
 12 13  1  0  0  0  0
 12 14  1  0  0  0  0
 13 14  1  0  0  0  0
 15 16  2  0  0  0  0
 17 15  1  0  0  0  0
 19 17  1  0  0  0  0
 19 18  1  0  0  0  0
 20 27  1  0  0  0  0
 21 22  1  0  0  0  0
 22 26  2  0  0  0  0
 23 21  1  0  0  0  0
 23 24  1  0  0  0  0
 24 20  1  0  0  0  0
 25 19  1  1  0  0  0
 26 25  1  0  0  0  0
 27 25  1  0  0  0  0
 28 21  1  0  0  0  0
 29 33  1  0  0  0  0
 30 38  1  0  0  0  0
 31 39  1  6  0  0  0
 31 32  1  0  0  0  0
 32 37  1  6  0  0  0
 32 36  1  0  0  0  0
 33 31  1  0  0  0  0
 33 30  2  0  0  0  0
 34 30  1  0  0  0  0
 35 41  1  6  0  0  0
 35 37  1  0  0  0  0
 36 38  1  0  0  0  0
 39 35  1  0  0  0  0
 40 41  1  0  0  0  0
M  END
>  <MODEL>
6

>  <REMARK>
 VINA RESULT:      -6.2      2.893      5.608
  Name = 
  8 active torsions:
  status: ('A' for Active; 'I' for Inactive)
    1  A    between atoms: C_8  and  C_27
    2  A    between atoms: C_9  and  C_27
    3  A    between atoms: C_11  and  N_38
    4  A    between atoms: N_18  and  C_26
    5  A    between atoms: N_18  and  C_39
    6  A    between atoms: C_21  and  C_24
    7  A    between atoms: C_25  and  C_28
    8  A    between atoms: C_28  and  C_39
                            x       y       z     vdW  Elec       q    Type
                         _______ _______ _______ _____ _____    ______ ____

>  <TORSDO>
F 8

$$$$
=
 OpenBabel11072412533D

 41 46  0  0  1  0  0  0  0  0999 V2000
  161.1450  208.6590  153.1970 C   0  0  0  0  0  2  0  0  0  0  0  0
  161.9270  209.7000  152.3890 C   0  0  2  0  0  3  0  0  0  0  0  0
  159.3940  212.9630  151.1630 C   0  0  0  0  0  3  0  0  0  0  0  0
  159.1120  212.2460  152.3280 C   0  0  0  0  0  3  0  0  0  0  0  0
  161.0110  210.7930  151.8940 C   0  0  0  0  0  0  0  0  0  0  0  0
  160.2020  209.3060  154.1830 C   0  0  0  0  0  0  0  0  0  0  0  0
  160.4850  212.6110  150.3560 C   0  0  0  0  0  0  0  0  0  0  0  0
  159.6190  210.4320  153.8920 N   0  0  0  0  0  0  0  0  0  0  0  0
  159.9140  211.1630  152.6950 C   0  0  0  0  0  0  0  0  0  0  0  0
  161.2990  211.5340  150.7380 C   0  0  0  0  0  3  0  0  0  0  0  0
  159.8440  208.6290  155.3900 N   0  0  0  0  0  2  0  0  0  0  0  0
  161.4620  207.5200  156.8040 C   0  0  0  0  0  2  0  0  0  0  0  0
  160.3900  207.3310  155.7510 C   0  0  0  0  0  3  0  0  0  0  0  0
  160.0820  207.0470  157.2060 C   0  0  0  0  0  2  0  0  0  0  0  0
  160.7680  213.3690  149.1230 C   0  0  0  0  0  0  0  0  0  0  0  0
  161.4890  214.4040  149.1700 O   0  0  0  0  0  0  0  0  0  0  0  0
  160.1800  212.9480  147.8110 C   0  0  0  0  0  2  0  0  0  0  0  0
  162.4540  212.6490  147.5310 C   0  0  0  0  0  1  0  0  0  0  0  0
  161.1610  212.2070  147.0250 N   0  0  0  0  0  0  0  0  0  0  0  0
  162.9940  212.9650  144.1490 O   0  0  0  0  0  0  0  0  0  0  0  0
  159.8590  213.4040  142.9160 N   0  0  0  0  0  0  0  0  0  0  0  0
  159.2710  213.7140  144.1890 C   0  0  0  0  0  3  0  0  0  0  0  0
  161.2500  213.7050  142.5980 C   0  0  0  0  0  2  0  0  0  0  0  0
  162.1530  212.5750  143.0810 C   0  0  0  0  0  2  0  0  0  0  0  0
  161.0520  212.6160  145.6160 C   0  0  1  0  0  3  0  0  0  0  0  0
  159.7880  213.3980  145.3820 C   0  0  0  0  0  3  0  0  0  0  0  0
  162.2320  213.5090  145.2080 C   0  0  0  0  0  2  0  0  0  0  0  0
  158.9540  213.2250  141.7970 C   0  0  0  0  0  1  0  0  0  0  0  0
  162.7010  209.0250  151.2540 C   0  0  0  0  0  2  0  0  0  0  0  0
  161.6990  208.0540  149.1750 C   0  0  0  0  0  0  0  0  0  0  0  0
  161.2060  206.9250  151.3630 C   0  0  2  0  0  3  0  0  0  0  0  0
  160.2140  206.0300  150.6210 C   0  0  1  0  0  3  0  0  0  0  0  0
  161.8760  207.9950  150.5210 C   0  0  0  0  0  0  0  0  0  0  0  0
  162.3290  209.1300  148.3480 C   0  0  0  0  0  1  0  0  0  0  0  0
  161.4510  204.6980  152.2650 C   0  0  2  0  0  3  0  0  0  0  0  0
  160.6690  205.7770  149.1880 C   0  0  0  0  0  2  0  0  0  0  0  0
  160.2150  204.7120  151.3770 C   0  0  0  0  0  2  0  0  0  0  0  0
  160.7740  207.1080  148.4610 C   0  0  0  0  0  2  0  0  0  0  0  0
  162.2100  205.9840  151.9940 C   0  0  0  0  0  2  0  0  0  0  0  0
  161.5990  202.6070  151.1210 O   0  0  0  0  0  1  0  0  0  0  0  0
  162.3120  203.4950  151.9270 C   0  0  0  0  0  2  0  0  0  0  0  0
  1  6  1  0  0  0  0
  2 29  1  6  0  0  0
  2  1  1  0  0  0  0
  3  4  1  0  0  0  0
  4  9  2  0  0  0  0
  5  2  1  0  0  0  0
  5  9  1  0  0  0  0
  6 11  1  0  0  0  0
  7 10  1  0  0  0  0
  7  3  2  0  0  0  0
  8  6  2  0  0  0  0
  9  8  1  0  0  0  0
 10  5  2  0  0  0  0
 11 13  1  0  0  0  0
 12 14  1  0  0  0  0
 13 12  1  0  0  0  0
 13 14  1  0  0  0  0
 15 16  2  0  0  0  0
 15  7  1  0  0  0  0
 17 15  1  0  0  0  0
 19 18  1  0  0  0  0
 19 17  1  0  0  0  0
 20 27  1  0  0  0  0
 21 22  1  0  0  0  0
 22 26  2  0  0  0  0
 23 21  1  0  0  0  0
 23 24  1  0  0  0  0
 24 20  1  0  0  0  0
 25 19  1  1  0  0  0
 26 25  1  0  0  0  0
 27 25  1  0  0  0  0
 28 21  1  0  0  0  0
 30 33  2  0  0  0  0
 31 39  1  6  0  0  0
 32 36  1  6  0  0  0
 32 31  1  0  0  0  0
 32 37  1  0  0  0  0
 33 29  1  0  0  0  0
 33 31  1  0  0  0  0
 34 30  1  0  0  0  0
 35 41  1  6  0  0  0
 37 35  1  0  0  0  0
 38 30  1  0  0  0  0
 38 36  1  0  0  0  0
 39 35  1  0  0  0  0
 40 41  1  0  0  0  0
M  END
>  <MODEL>
7

>  <REMARK>
 VINA RESULT:      -6.0      2.992      7.989
  Name = 
  8 active torsions:
  status: ('A' for Active; 'I' for Inactive)
    1  A    between atoms: C_8  and  C_27
    2  A    between atoms: C_9  and  C_27
    3  A    between atoms: C_11  and  N_38
    4  A    between atoms: N_18  and  C_26
    5  A    between atoms: N_18  and  C_39
    6  A    between atoms: C_21  and  C_24
    7  A    between atoms: C_25  and  C_28
    8  A    between atoms: C_28  and  C_39
                            x       y       z     vdW  Elec       q    Type
                         _______ _______ _______ _____ _____    ______ ____

>  <TORSDO>
F 8

$$$$
=
 OpenBabel11072412533D

 41 46  0  0  1  0  0  0  0  0999 V2000
  160.6030  209.5310  154.2590 C   0  0  0  0  0  2  0  0  0  0  0  0
  160.2760  210.4350  153.0660 C   0  0  2  0  0  3  0  0  0  0  0  0
  162.2550  209.0880  149.4840 C   0  0  0  0  0  3  0  0  0  0  0  0
  161.9150  208.1810  150.4900 C   0  0  0  0  0  3  0  0  0  0  0  0
  161.0410  210.0030  151.8390 C   0  0  0  0  0  0  0  0  0  0  0  0
  160.5840  208.0710  153.8800 C   0  0  0  0  0  0  0  0  0  0  0  0
  161.9900  210.4550  149.6390 C   0  0  0  0  0  0  0  0  0  0  0  0
  160.9650  207.6950  152.6930 N   0  0  0  0  0  0  0  0  0  0  0  0
  161.3120  208.6320  151.6660 C   0  0  0  0  0  0  0  0  0  0  0  0
  161.3670  210.9030  150.8140 C   0  0  0  0  0  3  0  0  0  0  0  0
  160.2670  207.0750  154.8550 N   0  0  0  0  0  2  0  0  0  0  0  0
  160.7960  206.6270  157.1720 C   0  0  0  0  0  2  0  0  0  0  0  0
  159.9090  207.4070  156.2250 C   0  0  0  0  0  3  0  0  0  0  0  0
  161.0820  208.0880  156.8980 C   0  0  0  0  0  2  0  0  0  0  0  0
  162.3620  211.4060  148.5740 C   0  0  0  0  0  0  0  0  0  0  0  0
  163.4660  211.2810  147.9740 O   0  0  0  0  0  0  0  0  0  0  0  0
  161.4610  212.5480  148.2160 C   0  0  0  0  0  2  0  0  0  0  0  0
  161.5630  213.1150  145.9780 C   0  0  0  0  0  1  0  0  0  0  0  0
  160.8140  212.3050  146.9300 N   0  0  0  0  0  0  0  0  0  0  0  0
  157.8660  212.6940  145.0960 O   0  0  0  0  0  0  0  0  0  0  0  0
  156.8550  214.0700  148.0330 N   0  0  0  0  0  0  0  0  0  0  0  0
  158.1750  214.4530  148.4480 C   0  0  0  0  0  3  0  0  0  0  0  0
  156.4640  213.9870  146.6310 C   0  0  0  0  0  2  0  0  0  0  0  0
  156.8360  212.6220  146.0630 C   0  0  0  0  0  2  0  0  0  0  0  0
  159.4350  212.8140  146.9850 C   0  0  1  0  0  3  0  0  0  0  0  0
  159.3180  213.9320  147.9850 C   0  0  0  0  0  3  0  0  0  0  0  0
  158.9950  213.3630  145.6220 C   0  0  0  0  0  2  0  0  0  0  0  0
  155.7890  214.2210  149.0050 C   0  0  0  0  0  1  0  0  0  0  0  0
  160.5210  211.9030  153.4230 C   0  0  0  0  0  2  0  0  0  0  0  0
  158.8150  213.5240  152.5680 C   0  0  0  0  0  0  0  0  0  0  0  0
  158.4760  212.5500  154.8570 C   0  0  2  0  0  3  0  0  0  0  0  0
  157.3030  213.5140  155.0390 C   0  0  1  0  0  3  0  0  0  0  0  0
  159.2390  212.6900  153.5530 C   0  0  0  0  0  0  0  0  0  0  0  0
  159.5850  213.6920  151.2970 C   0  0  0  0  0  1  0  0  0  0  0  0
  156.7240  211.3280  155.9850 C   0  0  2  0  0  3  0  0  0  0  0  0
  156.6090  213.7900  153.7120 C   0  0  0  0  0  2  0  0  0  0  0  0
  156.3320  212.7990  155.9630 C   0  0  0  0  0  2  0  0  0  0  0  0
  157.6100  214.4060  152.7480 C   0  0  0  0  0  2  0  0  0  0  0  0
  157.8930  211.1640  155.0310 C   0  0  0  0  0  2  0  0  0  0  0  0
  154.5640  210.4610  156.5210 O   0  0  0  0  0  1  0  0  0  0  0  0
  155.5500  210.4780  155.5340 C   0  0  0  0  0  2  0  0  0  0  0  0
  2 29  1  1  0  0  0
  2  1  1  0  0  0  0
  3  7  2  0  0  0  0
  3  4  1  0  0  0  0
  4  9  2  0  0  0  0
  5  2  1  0  0  0  0
  6  1  1  0  0  0  0
  6 11  1  0  0  0  0
  7 10  1  0  0  0  0
  8  6  2  0  0  0  0
  9  5  1  0  0  0  0
  9  8  1  0  0  0  0
 10  5  2  0  0  0  0
 11 13  1  0  0  0  0
 13 14  1  0  0  0  0
 13 12  1  0  0  0  0
 14 12  1  0  0  0  0
 15  7  1  0  0  0  0
 16 15  2  0  0  0  0
 17 15  1  0  0  0  0
 18 19  1  0  0  0  0
 19 17  1  0  0  0  0
 20 27  1  0  0  0  0
 20 24  1  0  0  0  0
 21 22  1  0  0  0  0
 21 28  1  0  0  0  0
 23 21  1  0  0  0  0
 24 23  1  0  0  0  0
 25 19  1  6  0  0  0
 25 26  1  0  0  0  0
 26 22  2  0  0  0  0
 27 25  1  0  0  0  0
 29 33  1  0  0  0  0
 30 38  1  0  0  0  0
 30 33  2  0  0  0  0
 31 39  1  6  0  0  0
 31 32  1  0  0  0  0
 32 36  1  6  0  0  0
 32 37  1  0  0  0  0
 33 31  1  0  0  0  0
 34 30  1  0  0  0  0
 35 41  1  6  0  0  0
 37 35  1  0  0  0  0
 38 36  1  0  0  0  0
 39 35  1  0  0  0  0
 41 40  1  0  0  0  0
M  END
>  <MODEL>
8

>  <REMARK>
 VINA RESULT:      -5.8      3.101      7.629
  Name = 
  8 active torsions:
  status: ('A' for Active; 'I' for Inactive)
    1  A    between atoms: C_8  and  C_27
    2  A    between atoms: C_9  and  C_27
    3  A    between atoms: C_11  and  N_38
    4  A    between atoms: N_18  and  C_26
    5  A    between atoms: N_18  and  C_39
    6  A    between atoms: C_21  and  C_24
    7  A    between atoms: C_25  and  C_28
    8  A    between atoms: C_28  and  C_39
                            x       y       z     vdW  Elec       q    Type
                         _______ _______ _______ _____ _____    ______ ____

>  <TORSDO>
F 8

$$$$
=
 OpenBabel11072412533D

 41 46  0  0  1  0  0  0  0  0999 V2000
  162.0820  205.6810  148.0250 C   0  0  0  0  0  2  0  0  0  0  0  0
  161.5120  205.8710  149.4340 C   0  0  2  0  0  3  0  0  0  0  0  0
  161.8150  209.9730  150.7150 C   0  0  0  0  0  3  0  0  0  0  0  0
  161.7050  209.6600  149.3580 C   0  0  0  0  0  3  0  0  0  0  0  0
  161.7010  207.2930  149.9040 C   0  0  0  0  0  0  0  0  0  0  0  0
  161.6750  206.8020  147.1000 C   0  0  0  0  0  0  0  0  0  0  0  0
  161.8640  208.9570  151.6790 C   0  0  0  0  0  0  0  0  0  0  0  0
  161.5360  208.0130  147.5550 N   0  0  0  0  0  0  0  0  0  0  0  0
  161.6500  208.3260  148.9490 C   0  0  0  0  0  0  0  0  0  0  0  0
  161.7900  207.6180  151.2650 C   0  0  0  0  0  3  0  0  0  0  0  0
  161.5600  206.5710  145.6940 N   0  0  0  0  0  2  0  0  0  0  0  0
  160.4720  204.7600  144.5180 C   0  0  0  0  0  2  0  0  0  0  0  0
  161.7780  205.2650  145.0940 C   0  0  0  0  0  3  0  0  0  0  0  0
  161.5230  205.3500  143.6040 C   0  0  0  0  0  2  0  0  0  0  0  0
  161.9910  209.2980  153.1080 C   0  0  0  0  0  0  0  0  0  0  0  0
  162.9000  210.0860  153.4910 O   0  0  0  0  0  0  0  0  0  0  0  0
  161.0730  208.6930  154.1260 C   0  0  0  0  0  2  0  0  0  0  0  0
  160.3630  208.8050  156.3220 C   0  0  0  0  0  1  0  0  0  0  0  0
  160.8270  209.6320  155.2160 N   0  0  0  0  0  0  0  0  0  0  0  0
  159.9530  212.2560  153.0810 O   0  0  0  0  0  0  0  0  0  0  0  0
  156.9950  211.8820  154.7100 N   0  0  0  0  0  0  0  0  0  0  0  0
  157.5800  211.3270  155.8980 C   0  0  0  0  0  3  0  0  0  0  0  0
  157.7000  212.8270  153.8530 C   0  0  0  0  0  2  0  0  0  0  0  0
  158.5690  212.0770  152.8490 C   0  0  0  0  0  2  0  0  0  0  0  0
  159.7360  210.5400  154.8280 C   0  0  1  0  0  3  0  0  0  0  0  0
  158.7880  210.7550  155.9760 C   0  0  0  0  0  3  0  0  0  0  0  0
  160.2810  211.9130  154.4130 C   0  0  0  0  0  2  0  0  0  0  0  0
  155.5470  211.8670  154.6190 C   0  0  0  0  0  1  0  0  0  0  0  0
  162.1190  204.8490  150.3990 C   0  0  0  0  0  2  0  0  0  0  0  0
  160.5000  203.1610  151.2930 C   0  0  0  0  0  0  0  0  0  0  0  0
  161.8120  202.5660  149.2370 C   0  0  2  0  0  3  0  0  0  0  0  0
  161.2380  201.1530  149.3390 C   0  0  1  0  0  3  0  0  0  0  0  0
  161.4130  203.5150  150.3520 C   0  0  0  0  0  0  0  0  0  0  0  0
  160.1310  204.0810  152.4140 C   0  0  0  0  0  1  0  0  0  0  0  0
  161.2940  201.8480  146.9900 C   0  0  2  0  0  3  0  0  0  0  0  0
  159.8340  201.1740  149.9320 C   0  0  0  0  0  2  0  0  0  0  0  0
  161.1610  200.6440  147.9100 C   0  0  0  0  0  2  0  0  0  0  0  0
  159.8920  201.7850  151.3220 C   0  0  0  0  0  2  0  0  0  0  0  0
  161.3940  203.0780  147.8750 C   0  0  0  0  0  2  0  0  0  0  0  0
  160.1750  201.0190  145.0500 O   0  0  0  0  0  1  0  0  0  0  0  0
  160.0760  201.9430  146.0900 C   0  0  0  0  0  2  0  0  0  0  0  0
  1  2  1  0  0  0  0
  2  5  1  0  0  0  0
  2 29  1  1  0  0  0
  3  7  1  0  0  0  0
  4  3  2  0  0  0  0
  5 10  1  0  0  0  0
  6  8  2  0  0  0  0
  6  1  1  0  0  0  0
  7 15  1  0  0  0  0
  8  9  1  0  0  0  0
  9  4  1  0  0  0  0
  9  5  2  0  0  0  0
 10  7  2  0  0  0  0
 11  6  1  0  0  0  0
 12 13  1  0  0  0  0
 13 11  1  0  0  0  0
 14 12  1  0  0  0  0
 14 13  1  0  0  0  0
 15 16  2  0  0  0  0
 15 17  1  0  0  0  0
 17 19  1  0  0  0  0
 19 18  1  0  0  0  0
 20 27  1  0  0  0  0
 21 22  1  0  0  0  0
 22 26  2  0  0  0  0
 23 21  1  0  0  0  0
 24 20  1  0  0  0  0
 24 23  1  0  0  0  0
 25 19  1  1  0  0  0
 25 26  1  0  0  0  0
 27 25  1  0  0  0  0
 28 21  1  0  0  0  0
 30 38  1  0  0  0  0
 30 34  1  0  0  0  0
 31 39  1  6  0  0  0
 31 32  1  0  0  0  0
 31 33  1  0  0  0  0
 32 37  1  6  0  0  0
 32 36  1  0  0  0  0
 33 29  1  0  0  0  0
 33 30  2  0  0  0  0
 35 41  1  6  0  0  0
 35 39  1  0  0  0  0
 35 37  1  0  0  0  0
 36 38  1  0  0  0  0
 40 41  1  0  0  0  0
M  END
>  <MODEL>
9

>  <REMARK>
 VINA RESULT:      -5.7      3.166     10.002
  Name = 
  8 active torsions:
  status: ('A' for Active; 'I' for Inactive)
    1  A    between atoms: C_8  and  C_27
    2  A    between atoms: C_9  and  C_27
    3  A    between atoms: C_11  and  N_38
    4  A    between atoms: N_18  and  C_26
    5  A    between atoms: N_18  and  C_39
    6  A    between atoms: C_21  and  C_24
    7  A    between atoms: C_25  and  C_28
    8  A    between atoms: C_28  and  C_39
                            x       y       z     vdW  Elec       q    Type
                         _______ _______ _______ _____ _____    ______ ____

>  <TORSDO>
F 8

$$$$
