=
 OpenBabel11072413383D

 43 45  0  0  1  0  0  0  0  0999 V2000
  160.5630  206.6940  153.1920 C   0  0  0  0  0  2  0  0  0  0  0  0
  161.1280  211.1490  155.0760 C   0  0  0  0  0  2  0  0  0  0  0  0
  161.3430  211.4630  151.7300 C   0  0  0  0  0  2  0  0  0  0  0  0
  160.8260  209.0810  151.1150 C   0  0  0  0  0  2  0  0  0  0  0  0
  160.4330  209.8860  154.5930 C   0  0  0  0  0  2  0  0  0  0  0  0
  161.8900  210.0480  151.6290 C   0  0  0  0  0  2  0  0  0  0  0  0
  159.6960  207.0150  156.7080 F   0  0  0  0  0  0  0  0  0  0  0  0
  159.9680  207.6600  155.5140 C   0  0  1  0  0  3  0  0  0  0  0  0
  161.3500  207.6450  151.0140 C   0  0  2  0  0  3  0  0  0  0  0  0
  160.6060  209.0120  155.7880 C   0  0  0  0  0  2  0  0  0  0  0  0
  160.7210  211.1610  154.2350 C   0  0  0  0  0  0  0  0  0  0  0  0
  161.7920  206.2020  155.1440 O   0  0  0  0  0  0  0  0  0  0  0  0
  161.7740  207.1270  152.3820 C   0  0  0  0  0  2  0  0  0  0  0  0
  160.8500  206.8070  154.6540 C   0  0  0  0  0  0  0  0  0  0  0  0
  160.2260  211.5810  152.7680 C   0  0  1  0  0  3  0  0  0  0  0  0
  158.8410  213.1290  151.5380 O   0  0  0  0  0  1  0  0  0  0  0  0
  159.5720  212.9640  152.7150 C   0  0  1  0  0  3  0  0  0  0  0  0
  158.7940  213.3310  153.9540 C   0  0  0  0  0  0  0  0  0  0  0  0
  157.4140  212.9570  154.1630 N   0  0  0  0  0  0  0  0  0  0  0  0
  159.4080  213.9570  154.8600 O   0  0  0  0  0  0  0  0  0  0  0  0
  156.8670  213.0100  155.5200 C   0  0  0  0  0  3  0  0  0  0  0  0
  157.4530  211.8820  156.3530 C   0  0  0  0  0  2  0  0  0  0  0  0
  156.0460  211.7650  155.8180 C   0  0  0  0  0  2  0  0  0  0  0  0
  156.4700  212.9470  153.0490 C   0  0  0  0  0  2  0  0  0  0  0  0
  156.0770  214.3660  152.6740 C   0  0  0  0  0  2  0  0  0  0  0  0
  155.0760  214.4100  150.3710 C   0  0  0  0  0  0  0  0  0  0  0  0
  156.3690  214.4470  149.7760 N   0  0  0  0  0  1  0  0  0  0  0  0
  154.0530  214.4430  149.6410 O   0  0  0  0  0  0  0  0  0  0  0  0
  154.9280  214.3390  151.7880 N   0  0  0  0  0  2  0  0  0  0  0  0
  162.5170  207.5190  150.0360 C   0  0  0  0  0  2  0  0  0  0  0  0
  161.4270  206.2260  146.5650 C   0  0  0  0  0  2  0  0  0  0  0  0
  161.0580  205.5490  149.3730 C   0  0  1  0  0  3  0  0  0  0  0  0
  163.2260  204.8460  145.6380 N   0  0  0  0  0  1  0  0  0  0  0  0
  162.2030  207.0560  147.5940 C   0  0  0  0  0  2  0  0  0  0  0  0
  162.2700  206.4330  148.9960 C   0  0  1  0  0  3  0  0  0  0  0  0
  162.1230  203.9860  147.6390 C   0  0  0  0  0  2  0  0  0  0  0  0
  159.7310  206.2930  149.2890 C   0  0  0  0  0  1  0  0  0  0  0  0
  161.9620  204.8050  146.3550 C   0  0  1  0  0  3  0  0  0  0  0  0
  160.9770  204.1880  148.6440 C   0  0  1  0  0  3  0  0  0  0  0  0
  160.0180  201.9310  149.2030 C   0  0  0  0  0  1  0  0  0  0  0  0
  160.9600  203.0370  149.6610 C   0  0  2  0  0  3  0  0  0  0  0  0
  160.5170  203.5180  151.0390 C   0  0  0  0  0  2  0  0  0  0  0  0
  161.3480  202.8580  152.1260 C   0  0  0  0  0  1  0  0  0  0  0  0
  1 14  1  0  0  0  0
  3 15  1  0  0  0  0
  4  6  1  0  0  0  0
  5 10  1  0  0  0  0
  6  3  1  0  0  0  0
  8 10  1  0  0  0  0
  8  7  1  1  0  0  0
  9 30  1  6  0  0  0
  9  4  1  0  0  0  0
  9 13  1  0  0  0  0
 11  5  1  0  0  0  0
 11  2  2  0  0  0  0
 13  1  1  0  0  0  0
 14 12  2  0  0  0  0
 14  8  1  0  0  0  0
 15 17  1  1  0  0  0
 15 11  1  0  0  0  0
 17 16  1  6  0  0  0
 17 18  1  0  0  0  0
 18 19  1  0  0  0  0
 18 20  2  0  0  0  0
 19 21  1  0  0  0  0
 21 23  1  0  0  0  0
 21 22  1  0  0  0  0
 23 22  1  0  0  0  0
 24 19  1  0  0  0  0
 25 24  1  0  0  0  0
 26 29  1  0  0  0  0
 27 26  1  0  0  0  0
 28 26  2  0  0  0  0
 29 25  1  0  0  0  0
 31 34  1  0  0  0  0
 32 37  1  6  0  0  0
 34 35  1  0  0  0  0
 35 32  1  0  0  0  0
 35 30  1  1  0  0  0
 36 39  1  0  0  0  0
 38 33  1  1  0  0  0
 38 31  1  0  0  0  0
 38 36  1  0  0  0  0
 39 32  1  0  0  0  0
 39 41  1  1  0  0  0
 41 40  1  6  0  0  0
 41 42  1  0  0  0  0
 42 43  1  0  0  0  0
M  END
>  <MODEL>
1

>  <REMARK>
 VINA RESULT:      -6.8      0.000      0.000
  Name = 
  10 active torsions:
  status: ('A' for Active; 'I' for Inactive)
    1  A    between atoms: C_3  and  C_17
    2  A    between atoms: C_3  and  C_28
    3  A    between atoms: C_11  and  C_27
    4  A    between atoms: C_13  and  C_34
    5  A    between atoms: C_13  and  C_43
    6  A    between atoms: C_15  and  N_24
    7  A    between atoms: N_22  and  C_38
    8  A    between atoms: N_24  and  C_33
    9  A    between atoms: C_27  and  C_42
   10  A    between atoms: C_33  and  C_38
                            x       y       z     vdW  Elec       q    Type
                         _______ _______ _______ _____ _____    ______ ____

>  <TORSDO>
F 10

$$$$
=
 OpenBabel11072413383D

 43 45  0  0  1  0  0  0  0  0999 V2000
  161.9130  204.1750  152.1950 C   0  0  0  0  0  2  0  0  0  0  0  0
  160.3040  206.8900  148.4870 C   0  0  0  0  0  2  0  0  0  0  0  0
  161.0150  209.0010  151.0130 C   0  0  0  0  0  2  0  0  0  0  0  0
  161.9680  207.3210  152.6230 C   0  0  0  0  0  2  0  0  0  0  0  0
  161.2540  206.0610  149.3360 C   0  0  0  0  0  2  0  0  0  0  0  0
  160.6930  207.9070  152.0210 C   0  0  0  0  0  2  0  0  0  0  0  0
  161.6980  202.4630  148.9950 F   0  0  0  0  0  0  0  0  0  0  0  0
  161.7010  203.6720  149.6690 C   0  0  1  0  0  3  0  0  0  0  0  0
  161.6710  206.2090  153.6340 C   0  0  2  0  0  3  0  0  0  0  0  0
  160.8540  204.6870  148.9190 C   0  0  0  0  0  2  0  0  0  0  0  0
  160.9290  207.3380  149.0180 C   0  0  0  0  0  0  0  0  0  0  0  0
  160.2470  202.7660  151.2990 O   0  0  0  0  0  0  0  0  0  0  0  0
  160.9400  205.0520  152.9670 C   0  0  0  0  0  2  0  0  0  0  0  0
  161.2100  203.4840  151.0720 C   0  0  0  0  0  0  0  0  0  0  0  0
  161.7680  208.4640  149.7950 C   0  0  1  0  0  3  0  0  0  0  0  0
  161.7400  209.4630  147.5980 O   0  0  0  0  0  1  0  0  0  0  0  0
  162.2380  209.6080  148.8940 C   0  0  1  0  0  3  0  0  0  0  0  0
  162.0090  210.9850  149.4670 C   0  0  0  0  0  0  0  0  0  0  0  0
  161.9750  212.1830  148.6600 N   0  0  0  0  0  0  0  0  0  0  0  0
  161.7930  211.0680  150.7060 O   0  0  0  0  0  0  0  0  0  0  0  0
  161.3740  213.3940  149.2220 C   0  0  0  0  0  3  0  0  0  0  0  0
  160.0770  213.0410  149.9300 C   0  0  0  0  0  2  0  0  0  0  0  0
  160.0340  213.6840  148.5640 C   0  0  0  0  0  2  0  0  0  0  0  0
  162.8730  212.3360  147.5200 C   0  0  0  0  0  2  0  0  0  0  0  0
  162.4170  213.4830  146.6340 C   0  0  0  0  0  2  0  0  0  0  0  0
  162.3530  213.0820  144.1560 C   0  0  0  0  0  0  0  0  0  0  0  0
  163.6390  213.6740  143.9960 N   0  0  0  0  0  1  0  0  0  0  0  0
  161.7280  212.6670  143.1470 O   0  0  0  0  0  0  0  0  0  0  0  0
  161.7640  212.9590  145.4490 N   0  0  0  0  0  2  0  0  0  0  0  0
  160.8550  206.7090  154.8250 C   0  0  0  0  0  2  0  0  0  0  0  0
  161.9630  209.6060  157.1250 C   0  0  0  0  0  2  0  0  0  0  0  0
  159.8530  209.0100  155.2080 C   0  0  1  0  0  3  0  0  0  0  0  0
  163.7330  210.8730  156.0000 N   0  0  0  0  0  1  0  0  0  0  0  0
  162.0490  208.2690  156.3800 C   0  0  0  0  0  2  0  0  0  0  0  0
  161.1500  208.1720  155.1390 C   0  0  1  0  0  3  0  0  0  0  0  0
  161.5240  210.9420  154.9610 C   0  0  0  0  0  2  0  0  0  0  0  0
  158.9810  208.6590  156.4080 C   0  0  0  0  0  1  0  0  0  0  0  0
  162.3050  210.8350  156.2750 C   0  0  1  0  0  3  0  0  0  0  0  0
  160.0450  210.5410  155.0920 C   0  0  1  0  0  3  0  0  0  0  0  0
  159.9500  212.2930  153.2910 C   0  0  0  0  0  1  0  0  0  0  0  0
  159.2430  211.0920  153.9050 C   0  0  2  0  0  3  0  0  0  0  0  0
  157.8400  211.5140  154.3280 C   0  0  0  0  0  2  0  0  0  0  0  0
  157.4480  212.8160  153.6510 C   0  0  0  0  0  1  0  0  0  0  0  0
  1 13  1  0  0  0  0
  2 11  2  0  0  0  0
  3  6  1  0  0  0  0
  4  9  1  0  0  0  0
  6  4  1  0  0  0  0
  8  7  1  6  0  0  0
  8 14  1  0  0  0  0
  9 30  1  1  0  0  0
 10  5  1  0  0  0  0
 10  8  1  0  0  0  0
 11  5  1  0  0  0  0
 11 15  1  0  0  0  0
 13  9  1  0  0  0  0
 14 12  2  0  0  0  0
 14  1  1  0  0  0  0
 15 17  1  6  0  0  0
 15  3  1  0  0  0  0
 17 16  1  6  0  0  0
 17 18  1  0  0  0  0
 18 20  2  0  0  0  0
 19 21  1  0  0  0  0
 19 18  1  0  0  0  0
 21 22  1  0  0  0  0
 23 21  1  0  0  0  0
 23 22  1  0  0  0  0
 24 19  1  0  0  0  0
 25 24  1  0  0  0  0
 26 29  1  0  0  0  0
 27 26  1  0  0  0  0
 28 26  2  0  0  0  0
 29 25  1  0  0  0  0
 32 37  1  1  0  0  0
 34 31  1  0  0  0  0
 35 30  1  1  0  0  0
 35 32  1  0  0  0  0
 35 34  1  0  0  0  0
 36 39  1  0  0  0  0
 36 38  1  0  0  0  0
 38 33  1  6  0  0  0
 38 31  1  0  0  0  0
 39 41  1  6  0  0  0
 39 32  1  0  0  0  0
 41 40  1  1  0  0  0
 41 42  1  0  0  0  0
 43 42  1  0  0  0  0
M  END
>  <MODEL>
2

>  <REMARK>
 VINA RESULT:      -5.5      3.875      7.788
  Name = 
  10 active torsions:
  status: ('A' for Active; 'I' for Inactive)
    1  A    between atoms: C_3  and  C_17
    2  A    between atoms: C_3  and  C_28
    3  A    between atoms: C_11  and  C_27
    4  A    between atoms: C_13  and  C_34
    5  A    between atoms: C_13  and  C_43
    6  A    between atoms: C_15  and  N_24
    7  A    between atoms: N_22  and  C_38
    8  A    between atoms: N_24  and  C_33
    9  A    between atoms: C_27  and  C_42
   10  A    between atoms: C_33  and  C_38
                            x       y       z     vdW  Elec       q    Type
                         _______ _______ _______ _____ _____    ______ ____

>  <TORSDO>
F 10

$$$$
=
 OpenBabel11072413383D

 43 45  0  0  1  0  0  0  0  0999 V2000
  158.9850  213.0100  149.3970 C   0  0  0  0  0  2  0  0  0  0  0  0
  163.1440  210.6660  150.3590 C   0  0  0  0  0  2  0  0  0  0  0  0
  161.1520  210.2750  153.0460 C   0  0  0  0  0  2  0  0  0  0  0  0
  159.1010  211.4100  152.1370 C   0  0  0  0  0  2  0  0  0  0  0  0
  161.7670  210.9390  149.7760 C   0  0  0  0  0  2  0  0  0  0  0  0
  160.4860  211.6110  152.7500 C   0  0  0  0  0  2  0  0  0  0  0  0
  161.1840  212.5130  146.5450 F   0  0  0  0  0  0  0  0  0  0  0  0
  160.8740  212.1660  147.8480 C   0  0  1  0  0  3  0  0  0  0  0  0
  158.4120  212.7410  151.8190 C   0  0  2  0  0  3  0  0  0  0  0  0
  162.1370  211.7690  148.5950 C   0  0  0  0  0  2  0  0  0  0  0  0
  162.4030  210.2700  150.7680 C   0  0  0  0  0  0  0  0  0  0  0  0
  160.5550  214.4480  148.3790 O   0  0  0  0  0  0  0  0  0  0  0  0
  159.2190  213.5380  150.8040 C   0  0  0  0  0  2  0  0  0  0  0  0
  160.1700  213.2980  148.5320 C   0  0  0  0  0  0  0  0  0  0  0  0
  161.4400  209.4750  151.7750 C   0  0  1  0  0  3  0  0  0  0  0  0
  162.2980  207.9740  153.4590 O   0  0  0  0  0  1  0  0  0  0  0  0
  161.9360  208.0680  152.1140 C   0  0  1  0  0  3  0  0  0  0  0  0
  161.0160  206.9590  151.6690 C   0  0  0  0  0  0  0  0  0  0  0  0
  161.0060  206.4300  150.3240 N   0  0  0  0  0  0  0  0  0  0  0  0
  160.2570  206.4510  152.5390 O   0  0  0  0  0  0  0  0  0  0  0  0
  160.3800  205.1280  150.0840 C   0  0  0  0  0  3  0  0  0  0  0  0
  160.6620  204.2010  151.2540 C   0  0  0  0  0  2  0  0  0  0  0  0
  161.4340  204.0380  149.9670 C   0  0  0  0  0  2  0  0  0  0  0  0
  161.2030  207.3110  149.1780 C   0  0  0  0  0  2  0  0  0  0  0  0
  160.8320  206.5970  147.8890 C   0  0  0  0  0  2  0  0  0  0  0  0
  162.0090  205.4850  145.9690 C   0  0  0  0  0  0  0  0  0  0  0  0
  160.8460  205.5910  145.1540 N   0  0  0  0  0  1  0  0  0  0  0  0
  163.0390  204.9250  145.5150 O   0  0  0  0  0  0  0  0  0  0  0  0
  162.0170  206.0030  147.2980 N   0  0  0  0  0  2  0  0  0  0  0  0
  158.1820  213.5900  153.0680 C   0  0  0  0  0  2  0  0  0  0  0  0
  155.5110  212.6290  155.6850 C   0  0  0  0  0  2  0  0  0  0  0  0
  158.3880  213.0520  155.5410 C   0  0  1  0  0  3  0  0  0  0  0  0
  155.0440  210.2320  155.4910 N   0  0  0  0  0  1  0  0  0  0  0  0
  156.1090  212.9180  154.3030 C   0  0  0  0  0  2  0  0  0  0  0  0
  157.6340  212.7600  154.2240 C   0  0  1  0  0  3  0  0  0  0  0  0
  157.2880  210.8400  156.2350 C   0  0  0  0  0  2  0  0  0  0  0  0
  158.1220  214.4530  156.0800 C   0  0  0  0  0  1  0  0  0  0  0  0
  155.8050  211.2260  156.2290 C   0  0  1  0  0  3  0  0  0  0  0  0
  158.2200  211.9900  156.6520 C   0  0  1  0  0  3  0  0  0  0  0  0
  160.7090  212.1630  156.3450 C   0  0  0  0  0  1  0  0  0  0  0  0
  159.5880  211.4330  157.0720 C   0  0  2  0  0  3  0  0  0  0  0  0
  159.6990  209.9420  156.7710 C   0  0  0  0  0  2  0  0  0  0  0  0
  161.1300  209.5750  156.4190 C   0  0  0  0  0  1  0  0  0  0  0  0
  1 13  1  0  0  0  0
  2 11  2  0  0  0  0
  4  6  1  0  0  0  0
  5 11  1  0  0  0  0
  6  3  1  0  0  0  0
  8  7  1  6  0  0  0
  8 14  1  0  0  0  0
  8 10  1  0  0  0  0
  9  4  1  0  0  0  0
  9 30  1  1  0  0  0
 10  5  1  0  0  0  0
 11 15  1  0  0  0  0
 12 14  2  0  0  0  0
 13  9  1  0  0  0  0
 14  1  1  0  0  0  0
 15 17  1  1  0  0  0
 15  3  1  0  0  0  0
 17 16  1  1  0  0  0
 18 17  1  0  0  0  0
 18 20  2  0  0  0  0
 19 18  1  0  0  0  0
 21 19  1  0  0  0  0
 21 22  1  0  0  0  0
 23 21  1  0  0  0  0
 23 22  1  0  0  0  0
 24 19  1  0  0  0  0
 25 24  1  0  0  0  0
 26 29  1  0  0  0  0
 27 26  1  0  0  0  0
 28 26  2  0  0  0  0
 29 25  1  0  0  0  0
 31 38  1  0  0  0  0
 32 37  1  1  0  0  0
 32 39  1  0  0  0  0
 34 31  1  0  0  0  0
 35 30  1  6  0  0  0
 35 34  1  0  0  0  0
 35 32  1  0  0  0  0
 36 39  1  0  0  0  0
 38 33  1  6  0  0  0
 38 36  1  0  0  0  0
 39 41  1  6  0  0  0
 41 40  1  6  0  0  0
 42 41  1  0  0  0  0
 43 42  1  0  0  0  0
M  END
>  <MODEL>
3

>  <REMARK>
 VINA RESULT:      -5.3      3.196      9.365
  Name = 
  10 active torsions:
  status: ('A' for Active; 'I' for Inactive)
    1  A    between atoms: C_3  and  C_17
    2  A    between atoms: C_3  and  C_28
    3  A    between atoms: C_11  and  C_27
    4  A    between atoms: C_13  and  C_34
    5  A    between atoms: C_13  and  C_43
    6  A    between atoms: C_15  and  N_24
    7  A    between atoms: N_22  and  C_38
    8  A    between atoms: N_24  and  C_33
    9  A    between atoms: C_27  and  C_42
   10  A    between atoms: C_33  and  C_38
                            x       y       z     vdW  Elec       q    Type
                         _______ _______ _______ _____ _____    ______ ____

>  <TORSDO>
F 10

$$$$
=
 OpenBabel11072413383D

 43 45  0  0  1  0  0  0  0  0999 V2000
  159.0760  213.1470  149.6100 C   0  0  0  0  0  2  0  0  0  0  0  0
  162.9870  210.3280  150.2910 C   0  0  0  0  0  2  0  0  0  0  0  0
  161.0700  210.0290  153.0430 C   0  0  0  0  0  2  0  0  0  0  0  0
  159.1220  211.4180  152.2720 C   0  0  0  0  0  2  0  0  0  0  0  0
  161.6270  210.7740  149.7800 C   0  0  0  0  0  2  0  0  0  0  0  0
  160.5420  211.4400  152.8320 C   0  0  0  0  0  2  0  0  0  0  0  0
  161.0960  212.5500  146.6470 F   0  0  0  0  0  0  0  0  0  0  0  0
  160.8000  212.1770  147.9460 C   0  0  1  0  0  3  0  0  0  0  0  0
  158.5710  212.8290  152.0400 C   0  0  2  0  0  3  0  0  0  0  0  0
  162.0400  211.6140  148.6200 C   0  0  0  0  0  2  0  0  0  0  0  0
  162.2240  209.9950  150.7150 C   0  0  0  0  0  0  0  0  0  0  0  0
  160.7530  214.4530  148.5860 O   0  0  0  0  0  0  0  0  0  0  0  0
  159.4200  213.5810  151.0260 C   0  0  0  0  0  2  0  0  0  0  0  0
  160.2510  213.3450  148.7070 C   0  0  0  0  0  0  0  0  0  0  0  0
  161.2190  209.2620  151.7280 C   0  0  1  0  0  3  0  0  0  0  0  0
  160.5080  207.1220  152.5880 O   0  0  0  0  0  1  0  0  0  0  0  0
  161.5720  207.7960  151.9860 C   0  0  1  0  0  3  0  0  0  0  0  0
  162.1310  207.0710  150.7870 C   0  0  0  0  0  0  0  0  0  0  0  0
  161.3140  206.3140  149.8660 N   0  0  0  0  0  0  0  0  0  0  0  0
  163.3690  207.1800  150.5690 O   0  0  0  0  0  0  0  0  0  0  0  0
  161.8620  205.9790  148.5510 C   0  0  0  0  0  3  0  0  0  0  0  0
  162.3190  207.2480  147.8480 C   0  0  0  0  0  2  0  0  0  0  0  0
  161.0180  206.5950  147.4440 C   0  0  0  0  0  2  0  0  0  0  0  0
  160.1800  205.5340  150.3490 C   0  0  0  0  0  2  0  0  0  0  0  0
  160.6130  204.1160  150.6810 C   0  0  0  0  0  2  0  0  0  0  0  0
  160.7930  202.0690  149.2370 C   0  0  0  0  0  0  0  0  0  0  0  0
  160.0000  201.3170  150.1500 N   0  0  0  0  0  1  0  0  0  0  0  0
  161.2580  201.5120  148.2100 O   0  0  0  0  0  0  0  0  0  0  0  0
  161.0710  203.4470  149.4770 N   0  0  0  0  0  2  0  0  0  0  0  0
  158.4830  213.6380  153.3330 C   0  0  0  0  0  2  0  0  0  0  0  0
  155.9550  212.9740  156.1750 C   0  0  0  0  0  2  0  0  0  0  0  0
  158.8240  212.8060  155.7080 C   0  0  1  0  0  3  0  0  0  0  0  0
  154.9590  210.7600  155.8410 N   0  0  0  0  0  1  0  0  0  0  0  0
  156.4540  213.2800  154.7580 C   0  0  0  0  0  2  0  0  0  0  0  0
  157.8910  212.8200  154.4750 C   0  0  1  0  0  3  0  0  0  0  0  0
  157.3470  210.8070  156.3470 C   0  0  0  0  0  2  0  0  0  0  0  0
  158.9270  214.1650  156.3910 C   0  0  0  0  0  1  0  0  0  0  0  0
  155.9920  211.4900  156.5580 C   0  0  1  0  0  3  0  0  0  0  0  0
  158.5450  211.6880  156.7390 C   0  0  1  0  0  3  0  0  0  0  0  0
  161.0590  211.6430  156.7360 C   0  0  0  0  0  1  0  0  0  0  0  0
  159.7950  210.8180  156.9360 C   0  0  2  0  0  3  0  0  0  0  0  0
  159.8170  209.6450  155.9620 C   0  0  0  0  0  2  0  0  0  0  0  0
  160.2650  208.3760  156.6670 C   0  0  0  0  0  1  0  0  0  0  0  0
  1 13  1  0  0  0  0
  2 11  2  0  0  0  0
  4  6  1  0  0  0  0
  5 11  1  0  0  0  0
  6  3  1  0  0  0  0
  8  7  1  6  0  0  0
  8 10  1  0  0  0  0
  8 14  1  0  0  0  0
  9  4  1  0  0  0  0
  9 30  1  1  0  0  0
 10  5  1  0  0  0  0
 11 15  1  0  0  0  0
 12 14  2  0  0  0  0
 13  9  1  0  0  0  0
 14  1  1  0  0  0  0
 15 17  1  1  0  0  0
 15  3  1  0  0  0  0
 17 16  1  6  0  0  0
 18 17  1  0  0  0  0
 19 24  1  0  0  0  0
 19 18  1  0  0  0  0
 20 18  2  0  0  0  0
 21 19  1  0  0  0  0
 22 21  1  0  0  0  0
 23 22  1  0  0  0  0
 23 21  1  0  0  0  0
 24 25  1  0  0  0  0
 26 29  1  0  0  0  0
 26 27  1  0  0  0  0
 28 26  2  0  0  0  0
 29 25  1  0  0  0  0
 31 38  1  0  0  0  0
 32 37  1  1  0  0  0
 32 39  1  0  0  0  0
 34 31  1  0  0  0  0
 35 30  1  6  0  0  0
 35 34  1  0  0  0  0
 35 32  1  0  0  0  0
 36 38  1  0  0  0  0
 36 39  1  0  0  0  0
 38 33  1  6  0  0  0
 39 41  1  6  0  0  0
 41 40  1  6  0  0  0
 42 43  1  0  0  0  0
 42 41  1  0  0  0  0
M  END
>  <MODEL>
4

>  <REMARK>
 VINA RESULT:      -5.3      3.248      9.661
  Name = 
  10 active torsions:
  status: ('A' for Active; 'I' for Inactive)
    1  A    between atoms: C_3  and  C_17
    2  A    between atoms: C_3  and  C_28
    3  A    between atoms: C_11  and  C_27
    4  A    between atoms: C_13  and  C_34
    5  A    between atoms: C_13  and  C_43
    6  A    between atoms: C_15  and  N_24
    7  A    between atoms: N_22  and  C_38
    8  A    between atoms: N_24  and  C_33
    9  A    between atoms: C_27  and  C_42
   10  A    between atoms: C_33  and  C_38
                            x       y       z     vdW  Elec       q    Type
                         _______ _______ _______ _____ _____    ______ ____

>  <TORSDO>
F 10

$$$$
=
 OpenBabel11072413383D

 43 45  0  0  1  0  0  0  0  0999 V2000
  159.8780  212.5310  150.5760 C   0  0  0  0  0  2  0  0  0  0  0  0
  163.0670  210.0390  147.8690 C   0  0  0  0  0  2  0  0  0  0  0  0
  162.1670  208.0340  150.4200 C   0  0  0  0  0  2  0  0  0  0  0  0
  160.4310  209.5310  151.4530 C   0  0  0  0  0  2  0  0  0  0  0  0
  161.7480  210.6550  148.3070 C   0  0  0  0  0  2  0  0  0  0  0  0
  161.9240  209.2540  151.2970 C   0  0  0  0  0  2  0  0  0  0  0  0
  160.6030  213.9660  147.3160 F   0  0  0  0  0  0  0  0  0  0  0  0
  160.6850  212.8610  148.1430 C   0  0  1  0  0  3  0  0  0  0  0  0
  160.1590  210.7620  152.3240 C   0  0  2  0  0  3  0  0  0  0  0  0
  161.9220  212.0470  147.8010 C   0  0  0  0  0  2  0  0  0  0  0  0
  162.4360  209.4880  148.2830 C   0  0  0  0  0  0  0  0  0  0  0  0
  161.3590  214.2510  149.9330 O   0  0  0  0  0  0  0  0  0  0  0  0
  160.7640  212.0110  151.6970 C   0  0  0  0  0  2  0  0  0  0  0  0
  160.6950  213.2880  149.5790 C   0  0  0  0  0  0  0  0  0  0  0  0
  161.6930  208.2490  148.9820 C   0  0  1  0  0  3  0  0  0  0  0  0
  163.1030  206.5260  148.0490 O   0  0  0  0  0  1  0  0  0  0  0  0
  161.7800  206.9510  148.1770 C   0  0  1  0  0  3  0  0  0  0  0  0
  160.8500  205.8620  148.6530 C   0  0  0  0  0  0  0  0  0  0  0  0
  161.1860  204.4570  148.6040 N   0  0  0  0  0  0  0  0  0  0  0  0
  159.7500  206.2170  149.1570 O   0  0  0  0  0  0  0  0  0  0  0  0
  160.4150  203.5200  149.4240 C   0  0  0  0  0  3  0  0  0  0  0  0
  160.8570  203.6240  150.8740 C   0  0  0  0  0  2  0  0  0  0  0  0
  161.3240  202.4620  150.0300 C   0  0  0  0  0  2  0  0  0  0  0  0
  161.9470  203.9130  147.4840 C   0  0  0  0  0  2  0  0  0  0  0  0
  161.0200  203.5660  146.3310 C   0  0  0  0  0  2  0  0  0  0  0  0
  161.2350  205.2590  144.4880 C   0  0  0  0  0  0  0  0  0  0  0  0
  160.3220  206.1340  145.1430 N   0  0  0  0  0  1  0  0  0  0  0  0
  161.7200  205.5840  143.3740 O   0  0  0  0  0  0  0  0  0  0  0  0
  161.6040  204.0140  145.0800 N   0  0  0  0  0  2  0  0  0  0  0  0
  160.6910  210.5960  153.7460 C   0  0  0  0  0  2  0  0  0  0  0  0
  159.9460  212.0220  157.2560 C   0  0  0  0  0  2  0  0  0  0  0  0
  158.5050  211.2930  154.8330 C   0  0  1  0  0  3  0  0  0  0  0  0
  160.3790  214.4340  157.2340 N   0  0  0  0  0  1  0  0  0  0  0  0
  160.7810  211.5700  156.0520 C   0  0  0  0  0  2  0  0  0  0  0  0
  160.0230  211.5620  154.7180 C   0  0  1  0  0  3  0  0  0  0  0  0
  158.5330  213.6530  155.8400 C   0  0  0  0  0  2  0  0  0  0  0  0
  158.1870  209.9720  155.5240 C   0  0  0  0  0  1  0  0  0  0  0  0
  159.3390  213.4240  157.1230 C   0  0  1  0  0  3  0  0  0  0  0  0
  157.6690  212.4470  155.4340 C   0  0  1  0  0  3  0  0  0  0  0  0
  157.0990  213.9880  153.5310 C   0  0  0  0  0  1  0  0  0  0  0  0
  156.5790  212.8880  154.4470 C   0  0  2  0  0  3  0  0  0  0  0  0
  155.3420  213.4020  155.1760 C   0  0  0  0  0  2  0  0  0  0  0  0
  154.6270  214.4490  154.3390 C   0  0  0  0  0  1  0  0  0  0  0  0
  1 13  1  0  0  0  0
  2 11  2  0  0  0  0
  3  6  1  0  0  0  0
  4  9  1  0  0  0  0
  6  4  1  0  0  0  0
  8  7  1  6  0  0  0
  8 14  1  0  0  0  0
  9 30  1  1  0  0  0
 10  8  1  0  0  0  0
 10  5  1  0  0  0  0
 11  5  1  0  0  0  0
 11 15  1  0  0  0  0
 13  9  1  0  0  0  0
 14 12  2  0  0  0  0
 14  1  1  0  0  0  0
 15 17  1  6  0  0  0
 15  3  1  0  0  0  0
 17 16  1  1  0  0  0
 17 18  1  0  0  0  0
 18 20  2  0  0  0  0
 19 18  1  0  0  0  0
 19 21  1  0  0  0  0
 21 23  1  0  0  0  0
 21 22  1  0  0  0  0
 23 22  1  0  0  0  0
 24 19  1  0  0  0  0
 25 24  1  0  0  0  0
 26 29  1  0  0  0  0
 26 27  1  0  0  0  0
 28 26  2  0  0  0  0
 29 25  1  0  0  0  0
 32 39  1  0  0  0  0
 32 37  1  1  0  0  0
 34 31  1  0  0  0  0
 35 30  1  6  0  0  0
 35 32  1  0  0  0  0
 35 34  1  0  0  0  0
 36 38  1  0  0  0  0
 38 33  1  6  0  0  0
 38 31  1  0  0  0  0
 39 41  1  6  0  0  0
 39 36  1  0  0  0  0
 41 40  1  6  0  0  0
 41 42  1  0  0  0  0
 43 42  1  0  0  0  0
M  END
>  <MODEL>
5

>  <REMARK>
 VINA RESULT:      -4.7      3.560     10.039
  Name = 
  10 active torsions:
  status: ('A' for Active; 'I' for Inactive)
    1  A    between atoms: C_3  and  C_17
    2  A    between atoms: C_3  and  C_28
    3  A    between atoms: C_11  and  C_27
    4  A    between atoms: C_13  and  C_34
    5  A    between atoms: C_13  and  C_43
    6  A    between atoms: C_15  and  N_24
    7  A    between atoms: N_22  and  C_38
    8  A    between atoms: N_24  and  C_33
    9  A    between atoms: C_27  and  C_42
   10  A    between atoms: C_33  and  C_38
                            x       y       z     vdW  Elec       q    Type
                         _______ _______ _______ _____ _____    ______ ____

>  <TORSDO>
F 10

$$$$
=
 OpenBabel11072413383D

 43 45  0  0  1  0  0  0  0  0999 V2000
  162.2730  206.4100  152.5600 C   0  0  0  0  0  2  0  0  0  0  0  0
  160.3320  204.4490  148.5480 C   0  0  0  0  0  2  0  0  0  0  0  0
  161.4810  207.4970  147.6940 C   0  0  0  0  0  2  0  0  0  0  0  0
  162.5490  208.1020  149.8890 C   0  0  0  0  0  2  0  0  0  0  0  0
  161.3420  204.7280  149.6500 C   0  0  0  0  0  2  0  0  0  0  0  0
  161.2380  207.9890  149.1130 C   0  0  0  0  0  2  0  0  0  0  0  0
  161.5470  202.8540  152.7640 F   0  0  0  0  0  0  0  0  0  0  0  0
  161.7030  203.9630  151.9530 C   0  0  1  0  0  3  0  0  0  0  0  0
  162.3300  208.5860  151.3260 C   0  0  2  0  0  3  0  0  0  0  0  0
  160.8180  203.8360  150.7230 C   0  0  0  0  0  2  0  0  0  0  0  0
  161.0450  205.0230  148.3610 C   0  0  0  0  0  0  0  0  0  0  0  0
  160.4310  205.2520  153.4730 O   0  0  0  0  0  0  0  0  0  0  0  0
  161.4580  207.6070  152.0990 C   0  0  0  0  0  2  0  0  0  0  0  0
  161.3920  205.2130  152.7190 C   0  0  0  0  0  0  0  0  0  0  0  0
  162.0370  206.0730  147.6610 C   0  0  1  0  0  3  0  0  0  0  0  0
  163.5110  204.7790  146.2550 O   0  0  0  0  0  1  0  0  0  0  0  0
  162.4430  205.6770  146.2400 C   0  0  1  0  0  3  0  0  0  0  0  0
  161.2980  205.2220  145.3700 C   0  0  0  0  0  0  0  0  0  0  0  0
  160.7060  203.9060  145.4630 N   0  0  0  0  0  0  0  0  0  0  0  0
  160.8160  206.0600  144.5600 O   0  0  0  0  0  0  0  0  0  0  0  0
  159.3830  203.6860  144.8750 C   0  0  0  0  0  3  0  0  0  0  0  0
  159.3260  202.3030  144.2470 C   0  0  0  0  0  2  0  0  0  0  0  0
  159.4860  203.5190  143.3670 C   0  0  0  0  0  2  0  0  0  0  0  0
  161.5360  202.7350  145.7270 C   0  0  0  0  0  2  0  0  0  0  0  0
  160.7350  201.6690  146.4540 C   0  0  0  0  0  2  0  0  0  0  0  0
  160.8450  200.9910  148.8700 C   0  0  0  0  0  0  0  0  0  0  0  0
  159.4420  201.1820  149.0200 N   0  0  0  0  0  1  0  0  0  0  0  0
  161.5350  200.6400  149.8600 O   0  0  0  0  0  0  0  0  0  0  0  0
  161.4780  201.1980  147.6090 N   0  0  0  0  0  2  0  0  0  0  0  0
  161.7060  209.9800  151.3810 C   0  0  0  0  0  2  0  0  0  0  0  0
  159.9670  212.1240  154.0790 C   0  0  0  0  0  2  0  0  0  0  0  0
  161.6730  209.7710  153.9110 C   0  0  1  0  0  3  0  0  0  0  0  0
  157.6310  211.4080  154.2700 N   0  0  0  0  0  1  0  0  0  0  0  0
  160.3120  211.6070  152.6780 C   0  0  0  0  0  2  0  0  0  0  0  0
  160.8830  210.1820  152.6480 C   0  0  1  0  0  3  0  0  0  0  0  0
  159.3210  209.7780  154.9380 C   0  0  0  0  0  2  0  0  0  0  0  0
  162.8410  210.7030  154.2110 C   0  0  0  0  0  1  0  0  0  0  0  0
  158.9570  211.2630  154.8480 C   0  0  1  0  0  3  0  0  0  0  0  0
  160.8190  209.5270  155.1780 C   0  0  1  0  0  3  0  0  0  0  0  0
  159.7030  207.4340  156.0130 C   0  0  0  0  0  1  0  0  0  0  0  0
  161.0370  208.1000  155.7020 C   0  0  2  0  0  3  0  0  0  0  0  0
  161.8930  208.0950  156.9640 C   0  0  0  0  0  2  0  0  0  0  0  0
  162.4160  209.4900  157.2600 C   0  0  0  0  0  1  0  0  0  0  0  0
  1 14  1  0  0  0  0
  3  6  1  0  0  0  0
  4  9  1  0  0  0  0
  5 10  1  0  0  0  0
  6  4  1  0  0  0  0
  8 14  1  0  0  0  0
  8  7  1  1  0  0  0
  9 30  1  6  0  0  0
  9 13  1  0  0  0  0
 10  8  1  0  0  0  0
 11  2  2  0  0  0  0
 11  5  1  0  0  0  0
 13  1  1  0  0  0  0
 14 12  2  0  0  0  0
 15 17  1  6  0  0  0
 15  3  1  0  0  0  0
 15 11  1  0  0  0  0
 17 16  1  1  0  0  0
 18 19  1  0  0  0  0
 18 17  1  0  0  0  0
 19 24  1  0  0  0  0
 20 18  2  0  0  0  0
 21 19  1  0  0  0  0
 22 21  1  0  0  0  0
 23 22  1  0  0  0  0
 23 21  1  0  0  0  0
 24 25  1  0  0  0  0
 25 29  1  0  0  0  0
 26 27  1  0  0  0  0
 26 28  2  0  0  0  0
 29 26  1  0  0  0  0
 31 38  1  0  0  0  0
 32 37  1  1  0  0  0
 32 39  1  0  0  0  0
 34 31  1  0  0  0  0
 35 30  1  6  0  0  0
 35 34  1  0  0  0  0
 35 32  1  0  0  0  0
 36 39  1  0  0  0  0
 38 33  1  6  0  0  0
 38 36  1  0  0  0  0
 39 41  1  6  0  0  0
 41 40  1  1  0  0  0
 41 42  1  0  0  0  0
 42 43  1  0  0  0  0
M  END
>  <MODEL>
6

>  <REMARK>
 VINA RESULT:      -4.5      3.511      9.780
  Name = 
  10 active torsions:
  status: ('A' for Active; 'I' for Inactive)
    1  A    between atoms: C_3  and  C_17
    2  A    between atoms: C_3  and  C_28
    3  A    between atoms: C_11  and  C_27
    4  A    between atoms: C_13  and  C_34
    5  A    between atoms: C_13  and  C_43
    6  A    between atoms: C_15  and  N_24
    7  A    between atoms: N_22  and  C_38
    8  A    between atoms: N_24  and  C_33
    9  A    between atoms: C_27  and  C_42
   10  A    between atoms: C_33  and  C_38
                            x       y       z     vdW  Elec       q    Type
                         _______ _______ _______ _____ _____    ______ ____

>  <TORSDO>
F 10

$$$$
=
 OpenBabel11072413383D

 43 45  0  0  1  0  0  0  0  0999 V2000
  162.2000  206.1160  150.9620 C   0  0  0  0  0  2  0  0  0  0  0  0
  161.0310  209.5440  147.7070 C   0  0  0  0  0  2  0  0  0  0  0  0
  161.2190  211.0620  150.7070 C   0  0  0  0  0  2  0  0  0  0  0  0
  162.0060  209.0900  152.0540 C   0  0  0  0  0  2  0  0  0  0  0  0
  161.8850  208.5700  148.5020 C   0  0  0  0  0  2  0  0  0  0  0  0
  160.8080  209.7670  151.3910 C   0  0  0  0  0  2  0  0  0  0  0  0
  162.5810  205.1460  147.4790 F   0  0  0  0  0  0  0  0  0  0  0  0
  162.4110  206.1760  148.3860 C   0  0  1  0  0  3  0  0  0  0  0  0
  161.6210  207.7770  152.7420 C   0  0  2  0  0  3  0  0  0  0  0  0
  161.6330  207.3120  147.7420 C   0  0  0  0  0  2  0  0  0  0  0  0
  161.5400  209.8770  148.4160 C   0  0  0  0  0  0  0  0  0  0  0  0
  160.7770  204.9020  149.5240 O   0  0  0  0  0  0  0  0  0  0  0  0
  161.0700  206.7800  151.7320 C   0  0  0  0  0  2  0  0  0  0  0  0
  161.7200  205.6730  149.6170 C   0  0  0  0  0  0  0  0  0  0  0  0
  162.1810  210.8230  149.5420 C   0  0  1  0  0  3  0  0  0  0  0  0
  163.6030  211.9320  147.9380 O   0  0  0  0  0  1  0  0  0  0  0  0
  162.7190  212.1480  148.9960 C   0  0  1  0  0  3  0  0  0  0  0  0
  161.6530  213.1680  148.6810 C   0  0  0  0  0  0  0  0  0  0  0  0
  160.7850  213.0780  147.5290 N   0  0  0  0  0  0  0  0  0  0  0  0
  161.4970  214.1150  149.4990 O   0  0  0  0  0  0  0  0  0  0  0  0
  159.5550  213.8710  147.5100 C   0  0  0  0  0  3  0  0  0  0  0  0
  158.6620  213.4600  148.6700 C   0  0  0  0  0  2  0  0  0  0  0  0
  158.3440  212.9820  147.2730 C   0  0  0  0  0  2  0  0  0  0  0  0
  161.2910  212.5780  146.2550 C   0  0  0  0  0  2  0  0  0  0  0  0
  161.4260  213.7140  145.2550 C   0  0  0  0  0  2  0  0  0  0  0  0
  161.6190  212.5110  143.0580 C   0  0  0  0  0  0  0  0  0  0  0  0
  160.2270  212.2110  143.0640 N   0  0  0  0  0  1  0  0  0  0  0  0
  162.3410  212.0970  142.1160 O   0  0  0  0  0  0  0  0  0  0  0  0
  162.2050  213.2720  144.1130 N   0  0  0  0  0  2  0  0  0  0  0  0
  160.6030  207.9850  153.8620 C   0  0  0  0  0  2  0  0  0  0  0  0
  161.6280  209.5050  157.2600 C   0  0  0  0  0  2  0  0  0  0  0  0
  159.8110  210.0800  155.0580 C   0  0  1  0  0  3  0  0  0  0  0  0
  163.6880  210.7960  156.9560 N   0  0  0  0  0  1  0  0  0  0  0  0
  161.6880  208.5770  156.0410 C   0  0  0  0  0  2  0  0  0  0  0  0
  161.0010  209.1310  154.7840 C   0  0  1  0  0  3  0  0  0  0  0  0
  161.7030  211.6410  155.8130 C   0  0  0  0  0  2  0  0  0  0  0  0
  158.7200  209.4350  155.9040 C   0  0  0  0  0  1  0  0  0  0  0  0
  162.2400  210.8930  157.0380 C   0  0  1  0  0  3  0  0  0  0  0  0
  160.1880  211.4750  155.6090 C   0  0  1  0  0  3  0  0  0  0  0  0
  158.8670  213.6100  155.4710 C   0  0  0  0  0  1  0  0  0  0  0  0
  159.6580  212.5770  154.6800 C   0  0  2  0  0  3  0  0  0  0  0  0
  158.7620  212.0030  153.5890 C   0  0  0  0  0  2  0  0  0  0  0  0
  158.7040  212.9440  152.3970 C   0  0  0  0  0  1  0  0  0  0  0  0
  1 13  1  0  0  0  0
  2 11  2  0  0  0  0
  3  6  1  0  0  0  0
  4  9  1  0  0  0  0
  6  4  1  0  0  0  0
  8  7  1  6  0  0  0
  8 14  1  0  0  0  0
  9 30  1  1  0  0  0
 10  8  1  0  0  0  0
 10  5  1  0  0  0  0
 11  5  1  0  0  0  0
 11 15  1  0  0  0  0
 12 14  2  0  0  0  0
 13  9  1  0  0  0  0
 14  1  1  0  0  0  0
 15 17  1  6  0  0  0
 15  3  1  0  0  0  0
 17 16  1  6  0  0  0
 18 17  1  0  0  0  0
 18 20  2  0  0  0  0
 19 18  1  0  0  0  0
 21 19  1  0  0  0  0
 21 22  1  0  0  0  0
 23 21  1  0  0  0  0
 23 22  1  0  0  0  0
 24 19  1  0  0  0  0
 25 24  1  0  0  0  0
 26 27  1  0  0  0  0
 26 29  1  0  0  0  0
 28 26  2  0  0  0  0
 29 25  1  0  0  0  0
 32 39  1  0  0  0  0
 32 37  1  1  0  0  0
 34 31  1  0  0  0  0
 35 30  1  6  0  0  0
 35 32  1  0  0  0  0
 35 34  1  0  0  0  0
 36 38  1  0  0  0  0
 38 33  1  6  0  0  0
 38 31  1  0  0  0  0
 39 41  1  6  0  0  0
 39 36  1  0  0  0  0
 41 40  1  1  0  0  0
 42 41  1  0  0  0  0
 43 42  1  0  0  0  0
M  END
>  <MODEL>
7

>  <REMARK>
 VINA RESULT:      -4.4      4.232      8.087
  Name = 
  10 active torsions:
  status: ('A' for Active; 'I' for Inactive)
    1  A    between atoms: C_3  and  C_17
    2  A    between atoms: C_3  and  C_28
    3  A    between atoms: C_11  and  C_27
    4  A    between atoms: C_13  and  C_34
    5  A    between atoms: C_13  and  C_43
    6  A    between atoms: C_15  and  N_24
    7  A    between atoms: N_22  and  C_38
    8  A    between atoms: N_24  and  C_33
    9  A    between atoms: C_27  and  C_42
   10  A    between atoms: C_33  and  C_38
                            x       y       z     vdW  Elec       q    Type
                         _______ _______ _______ _____ _____    ______ ____

>  <TORSDO>
F 10

$$$$
=
 OpenBabel11072413383D

 43 45  0  0  1  0  0  0  0  0999 V2000
  161.9500  204.4210  151.6920 C   0  0  0  0  0  2  0  0  0  0  0  0
  160.5960  207.4350  148.1140 C   0  0  0  0  0  2  0  0  0  0  0  0
  161.1450  209.3330  150.8420 C   0  0  0  0  0  2  0  0  0  0  0  0
  161.9850  207.5220  152.3710 C   0  0  0  0  0  2  0  0  0  0  0  0
  161.4870  206.5340  148.9540 C   0  0  0  0  0  2  0  0  0  0  0  0
  160.7540  208.1650  151.7360 C   0  0  0  0  0  2  0  0  0  0  0  0
  161.9420  202.9710  148.3580 F   0  0  0  0  0  0  0  0  0  0  0  0
  161.9040  204.1220  149.1240 C   0  0  1  0  0  3  0  0  0  0  0  0
  161.6190  206.3360  153.2690 C   0  0  2  0  0  3  0  0  0  0  0  0
  161.1110  205.2000  148.4040 C   0  0  0  0  0  2  0  0  0  0  0  0
  161.1870  207.8340  148.7190 C   0  0  0  0  0  0  0  0  0  0  0  0
  160.3430  203.1010  150.5780 O   0  0  0  0  0  0  0  0  0  0  0  0
  160.9300  205.2420  152.4650 C   0  0  0  0  0  2  0  0  0  0  0  0
  161.3200  203.8270  150.4730 C   0  0  0  0  0  0  0  0  0  0  0  0
  161.9750  208.8880  149.6370 C   0  0  1  0  0  3  0  0  0  0  0  0
  163.6040  209.7450  148.0750 O   0  0  0  0  0  1  0  0  0  0  0  0
  162.5060  210.0960  148.8630 C   0  0  1  0  0  3  0  0  0  0  0  0
  161.4510  210.8610  148.1030 C   0  0  0  0  0  0  0  0  0  0  0  0
  161.1640  212.2580  148.3340 N   0  0  0  0  0  0  0  0  0  0  0  0
  160.8320  210.2460  147.1930 O   0  0  0  0  0  0  0  0  0  0  0  0
  160.4230  213.0030  147.3150 C   0  0  0  0  0  3  0  0  0  0  0  0
  161.0640  212.7860  145.9540 C   0  0  0  0  0  2  0  0  0  0  0  0
  161.2980  214.0810  146.6930 C   0  0  0  0  0  2  0  0  0  0  0  0
  161.2060  212.8110  149.6840 C   0  0  0  0  0  2  0  0  0  0  0  0
  160.4070  214.1020  149.7550 C   0  0  0  0  0  2  0  0  0  0  0  0
  158.0890  213.7330  150.6490 C   0  0  0  0  0  0  0  0  0  0  0  0
  157.6030  213.4210  149.3470 N   0  0  0  0  0  1  0  0  0  0  0  0
  157.2960  213.7440  151.6240 O   0  0  0  0  0  0  0  0  0  0  0  0
  159.4670  214.0370  150.8590 N   0  0  0  0  0  2  0  0  0  0  0  0
  160.7270  206.7470  154.4400 C   0  0  0  0  0  2  0  0  0  0  0  0
  161.8960  209.3300  157.0610 C   0  0  0  0  0  2  0  0  0  0  0  0
  159.7590  208.9960  155.1110 C   0  0  1  0  0  3  0  0  0  0  0  0
  163.6700  210.7040  156.0760 N   0  0  0  0  0  1  0  0  0  0  0  0
  161.9570  208.0920  156.1580 C   0  0  0  0  0  2  0  0  0  0  0  0
  161.0440  208.1570  154.9260 C   0  0  1  0  0  3  0  0  0  0  0  0
  161.4510  210.9240  155.0800 C   0  0  0  0  0  2  0  0  0  0  0  0
  158.8950  208.5120  156.2700 C   0  0  0  0  0  1  0  0  0  0  0  0
  162.2450  210.6490  156.3620 C   0  0  1  0  0  3  0  0  0  0  0  0
  159.9690  210.5260  155.1790 C   0  0  1  0  0  3  0  0  0  0  0  0
  160.0830  212.0140  153.1550 C   0  0  0  0  0  1  0  0  0  0  0  0
  159.1610  211.2270  154.0770 C   0  0  2  0  0  3  0  0  0  0  0  0
  158.1260  212.1800  154.6650 C   0  0  0  0  0  2  0  0  0  0  0  0
  156.8480  211.4330  155.0060 C   0  0  0  0  0  1  0  0  0  0  0  0
  1 13  1  0  0  0  0
  2 11  2  0  0  0  0
  3  6  1  0  0  0  0
  4  9  1  0  0  0  0
  6  4  1  0  0  0  0
  8  7  1  6  0  0  0
  8 14  1  0  0  0  0
  9 30  1  1  0  0  0
 10  5  1  0  0  0  0
 10  8  1  0  0  0  0
 11  5  1  0  0  0  0
 11 15  1  0  0  0  0
 13  9  1  0  0  0  0
 14 12  2  0  0  0  0
 14  1  1  0  0  0  0
 15 17  1  6  0  0  0
 15  3  1  0  0  0  0
 17 16  1  6  0  0  0
 18 19  1  0  0  0  0
 18 17  1  0  0  0  0
 19 24  1  0  0  0  0
 20 18  2  0  0  0  0
 21 19  1  0  0  0  0
 22 23  1  0  0  0  0
 22 21  1  0  0  0  0
 23 21  1  0  0  0  0
 24 25  1  0  0  0  0
 25 29  1  0  0  0  0
 26 29  1  0  0  0  0
 26 28  2  0  0  0  0
 27 26  1  0  0  0  0
 32 39  1  0  0  0  0
 32 37  1  1  0  0  0
 34 31  1  0  0  0  0
 35 30  1  1  0  0  0
 35 32  1  0  0  0  0
 35 34  1  0  0  0  0
 36 39  1  0  0  0  0
 36 38  1  0  0  0  0
 38 33  1  6  0  0  0
 38 31  1  0  0  0  0
 39 41  1  6  0  0  0
 41 40  1  6  0  0  0
 41 42  1  0  0  0  0
 42 43  1  0  0  0  0
M  END
>  <MODEL>
8

>  <REMARK>
 VINA RESULT:      -4.1      3.316      7.447
  Name = 
  10 active torsions:
  status: ('A' for Active; 'I' for Inactive)
    1  A    between atoms: C_3  and  C_17
    2  A    between atoms: C_3  and  C_28
    3  A    between atoms: C_11  and  C_27
    4  A    between atoms: C_13  and  C_34
    5  A    between atoms: C_13  and  C_43
    6  A    between atoms: C_15  and  N_24
    7  A    between atoms: N_22  and  C_38
    8  A    between atoms: N_24  and  C_33
    9  A    between atoms: C_27  and  C_42
   10  A    between atoms: C_33  and  C_38
                            x       y       z     vdW  Elec       q    Type
                         _______ _______ _______ _____ _____    ______ ____

>  <TORSDO>
F 10

$$$$
=
 OpenBabel11072413383D

 43 45  0  0  1  0  0  0  0  0999 V2000
  159.9420  213.0710  150.2660 C   0  0  0  0  0  2  0  0  0  0  0  0
  162.8020  209.7360  148.1680 C   0  0  0  0  0  2  0  0  0  0  0  0
  161.9090  208.5110  151.1750 C   0  0  0  0  0  2  0  0  0  0  0  0
  160.3370  210.3510  151.8550 C   0  0  0  0  0  2  0  0  0  0  0  0
  161.5540  210.5440  148.4820 C   0  0  0  0  0  2  0  0  0  0  0  0
  161.7980  209.9270  151.7210 C   0  0  0  0  0  2  0  0  0  0  0  0
  160.5830  213.5820  146.7240 F   0  0  0  0  0  0  0  0  0  0  0  0
  160.6350  212.7150  147.8020 C   0  0  1  0  0  3  0  0  0  0  0  0
  160.1970  211.7790  152.3940 C   0  0  2  0  0  3  0  0  0  0  0  0
  161.7940  211.7460  147.6340 C   0  0  0  0  0  2  0  0  0  0  0  0
  162.1590  209.3580  148.7300 C   0  0  0  0  0  0  0  0  0  0  0  0
  161.4980  214.4520  149.1550 O   0  0  0  0  0  0  0  0  0  0  0  0
  160.8500  212.7790  151.4500 C   0  0  0  0  0  2  0  0  0  0  0  0
  160.7530  213.4860  149.0810 C   0  0  0  0  0  0  0  0  0  0  0  0
  161.3740  208.3960  149.7470 C   0  0  1  0  0  3  0  0  0  0  0  0
  162.2940  206.6800  148.3210 O   0  0  0  0  0  1  0  0  0  0  0  0
  161.3280  206.9350  149.2950 C   0  0  1  0  0  3  0  0  0  0  0  0
  161.3450  205.9340  150.4240 C   0  0  0  0  0  0  0  0  0  0  0  0
  161.4130  204.5060  150.2160 N   0  0  0  0  0  0  0  0  0  0  0  0
  161.3450  206.3880  151.6010 O   0  0  0  0  0  0  0  0  0  0  0  0
  161.8110  203.6490  151.3350 C   0  0  0  0  0  3  0  0  0  0  0  0
  161.4970  202.1990  151.0060 C   0  0  0  0  0  2  0  0  0  0  0  0
  160.5980  202.9650  151.9470 C   0  0  0  0  0  2  0  0  0  0  0  0
  160.7060  203.8830  149.1010 C   0  0  0  0  0  2  0  0  0  0  0  0
  161.6230  203.7550  147.8960 C   0  0  0  0  0  2  0  0  0  0  0  0
  161.2120  204.4510  145.5190 C   0  0  0  0  0  0  0  0  0  0  0  0
  162.4200  205.2040  145.4970 N   0  0  0  0  0  1  0  0  0  0  0  0
  160.4690  204.4370  144.5050 O   0  0  0  0  0  0  0  0  0  0  0  0
  160.8320  203.7150  146.6800 N   0  0  0  0  0  2  0  0  0  0  0  0
  160.7930  211.9330  153.7920 C   0  0  0  0  0  2  0  0  0  0  0  0
  158.1680  212.5830  156.5470 C   0  0  0  0  0  2  0  0  0  0  0  0
  160.5470  210.9580  156.1240 C   0  0  1  0  0  3  0  0  0  0  0  0
  156.1800  211.2290  156.0760 N   0  0  0  0  0  1  0  0  0  0  0  0
  158.8150  212.6350  155.1580 C   0  0  0  0  0  2  0  0  0  0  0  0
  159.8120  211.5030  154.8770 C   0  0  1  0  0  3  0  0  0  0  0  0
  158.2180  210.0040  156.6260 C   0  0  0  0  0  2  0  0  0  0  0  0
  161.3120  212.0360  156.8810 C   0  0  0  0  0  1  0  0  0  0  0  0
  157.4090  211.2850  156.8500 C   0  0  1  0  0  3  0  0  0  0  0  0
  159.6810  210.1130  157.0880 C   0  0  1  0  0  3  0  0  0  0  0  0
  161.7980  208.7560  157.0920 C   0  0  0  0  0  1  0  0  0  0  0  0
  160.2850  208.7120  157.2600 C   0  0  2  0  0  3  0  0  0  0  0  0
  159.7080  207.7280  156.2470 C   0  0  0  0  0  2  0  0  0  0  0  0
  160.4670  207.8100  154.9330 C   0  0  0  0  0  1  0  0  0  0  0  0
  1 13  1  0  0  0  0
  2 11  2  0  0  0  0
  3  6  1  0  0  0  0
  4  9  1  0  0  0  0
  5 11  1  0  0  0  0
  6  4  1  0  0  0  0
  8  7  1  6  0  0  0
  8 14  1  0  0  0  0
  9 30  1  1  0  0  0
 10  8  1  0  0  0  0
 10  5  1  0  0  0  0
 11 15  1  0  0  0  0
 13  9  1  0  0  0  0
 14 12  2  0  0  0  0
 14  1  1  0  0  0  0
 15 17  1  6  0  0  0
 15  3  1  0  0  0  0
 17 16  1  6  0  0  0
 17 18  1  0  0  0  0
 18 20  2  0  0  0  0
 19 18  1  0  0  0  0
 19 21  1  0  0  0  0
 21 23  1  0  0  0  0
 22 21  1  0  0  0  0
 22 23  1  0  0  0  0
 24 19  1  0  0  0  0
 25 24  1  0  0  0  0
 26 29  1  0  0  0  0
 27 26  1  0  0  0  0
 28 26  2  0  0  0  0
 29 25  1  0  0  0  0
 31 38  1  0  0  0  0
 32 37  1  1  0  0  0
 32 39  1  0  0  0  0
 34 31  1  0  0  0  0
 35 30  1  6  0  0  0
 35 34  1  0  0  0  0
 35 32  1  0  0  0  0
 36 38  1  0  0  0  0
 36 39  1  0  0  0  0
 38 33  1  6  0  0  0
 39 41  1  6  0  0  0
 41 40  1  6  0  0  0
 42 41  1  0  0  0  0
 43 42  1  0  0  0  0
M  END
>  <MODEL>
9

>  <REMARK>
 VINA RESULT:      -3.9      3.391      9.439
  Name = 
  10 active torsions:
  status: ('A' for Active; 'I' for Inactive)
    1  A    between atoms: C_3  and  C_17
    2  A    between atoms: C_3  and  C_28
    3  A    between atoms: C_11  and  C_27
    4  A    between atoms: C_13  and  C_34
    5  A    between atoms: C_13  and  C_43
    6  A    between atoms: C_15  and  N_24
    7  A    between atoms: N_22  and  C_38
    8  A    between atoms: N_24  and  C_33
    9  A    between atoms: C_27  and  C_42
   10  A    between atoms: C_33  and  C_38
                            x       y       z     vdW  Elec       q    Type
                         _______ _______ _______ _____ _____    ______ ____

>  <TORSDO>
F 10

$$$$
