=
 OpenBabel11072411383D

 61 67  0  0  1  0  0  0  0  0999 V2000
  160.8650  207.2620  150.2550 C   0  0  0  0  0  2  0  0  0  0  0  0
  161.0480  204.9980  151.0090 O   0  0  0  0  0  0  0  0  0  0  0  0
  162.9370  206.6070  152.5430 C   0  0  0  0  0  1  0  0  0  0  0  0
  160.9950  205.6580  153.7940 C   0  0  0  0  0  2  0  0  0  0  0  0
  160.4220  204.1140  151.9080 C   0  0  2  0  0  3  0  0  0  0  0  0
  161.4120  206.6790  152.7200 C   0  0  2  0  0  0  0  0  0  0  0  0
  161.0800  204.2150  153.2920 C   0  0  0  0  0  2  0  0  0  0  0  0
  160.6820  206.2920  151.4150 C   0  0  1  0  0  3  0  0  0  0  0  0
  161.6970  202.0790  151.8140 O   0  0  0  0  0  1  0  0  0  0  0  0
  160.5020  202.6810  151.3800 C   0  0  2  0  0  3  0  0  0  0  0  0
  160.4480  202.6520  149.8510 C   0  0  2  0  0  3  0  0  0  0  0  0
  159.1920  202.2230  149.4090 O   0  0  0  0  0  1  0  0  0  0  0  0
  161.5160  201.7250  149.3010 C   0  0  0  0  0  1  0  0  0  0  0  0
  160.9220  208.0480  153.2220 C   0  0  0  0  0  2  0  0  0  0  0  0
  159.6290  208.8550  157.0870 C   0  0  0  0  0  2  0  0  0  0  0  0
  161.1940  209.5420  155.3020 C   0  0  2  0  0  0  0  0  0  0  0  0
  158.9930  210.0020  156.3210 C   0  0  1  0  0  3  0  0  0  0  0  0
  159.1720  212.5020  154.5180 C   0  0  0  0  0  2  0  0  0  0  0  0
  161.0700  208.7260  156.6030 C   0  0  2  0  0  3  0  0  0  0  0  0
  162.6510  209.7480  153.4300 O   0  0  0  0  0  0  0  0  0  0  0  0
  163.0910  210.6770  154.3940 C   0  0  0  0  0  2  0  0  0  0  0  0
  161.8840  208.8160  154.1450 C   0  0  2  0  0  3  0  0  0  0  0  0
  157.8380  212.4510  156.9510 S   0  0  0  0  0  0  0  0  0  0  0  0
  162.0970  210.7210  155.5360 C   0  0  0  0  0  2  0  0  0  0  0  0
  159.2280  211.2790  157.1200 C   0  0  0  0  0  2  0  0  0  0  0  0
  159.5850  211.1340  153.9650 C   0  0  1  0  0  3  0  0  0  0  0  0
  159.7640  210.0020  155.0020 C   0  0  1  0  0  3  0  0  0  0  0  0
  157.7780  212.4610  155.1270 C   0  0  0  0  0  2  0  0  0  0  0  0
  161.4320  207.2510  156.4870 C   0  0  0  0  0  1  0  0  0  0  0  0
  158.3170  211.7600  152.0360 O   0  0  0  0  0  1  0  0  0  0  0  0
  158.6810  210.6740  152.8300 C   0  0  0  0  0  2  0  0  0  0  0  0
  162.0240  205.8540  148.5240 C   0  0  2  0  0  3  0  0  0  0  0  0
  160.7100  206.5240  148.9230 C   0  0  2  0  0  3  0  0  0  0  0  0
  161.5480  207.1030  147.7800 C   0  0  2  0  0  0  0  0  0  0  0  0
  161.7270  204.5540  147.7940 C   0  0  0  0  0  1  0  0  0  0  0  0
  161.7020  206.3040  145.5290 O   0  0  0  0  0  1  0  0  0  0  0  0
  160.8570  206.9480  146.4280 C   0  0  0  0  0  2  0  0  0  0  0  0
  162.2930  208.4200  148.0510 C   0  0  0  0  0  2  0  0  0  0  0  0
  161.4530  209.6870  147.8360 C   0  0  0  0  0  2  0  0  0  0  0  0
  161.8400  210.8740  148.7230 C   0  0  1  0  0  3  0  0  0  0  0  0
  160.5400  212.0600  146.8520 C   0  0  2  0  0  3  0  0  0  0  0  0
  162.0410  213.5450  145.8990 C   0  0  1  0  0  3  0  0  0  0  0  0
  162.0560  213.4360  148.3710 C   0  0  0  0  0  2  0  0  0  0  0  0
  161.1850  212.1800  148.2440 C   0  0  2  0  0  3  0  0  0  0  0  0
  161.4730  212.2560  145.8020 O   0  0  0  0  0  0  0  0  0  0  0  0
  162.9220  213.6390  147.1370 C   0  0  0  0  0  2  0  0  0  0  0  0
  162.7120  212.7830  143.7460 O   0  0  0  0  0  1  0  0  0  0  0  0
  162.8730  213.8240  144.6640 C   0  0  0  0  0  2  0  0  0  0  0  0
  159.3310  212.9820  146.7110 C   0  0  0  0  0  2  0  0  0  0  0  0
  158.4330  212.5360  145.5670 C   0  0  1  0  0  3  0  0  0  0  0  0
  157.1400  212.3480  146.0470 O   0  0  0  0  0  1  0  0  0  0  0  0
  157.5180  214.4360  144.4180 O   0  0  0  0  0  0  0  0  0  0  0  0
  158.4040  213.5380  144.4530 C   0  0  0  0  0  0  0  0  0  0  0  0
  159.3420  213.4120  143.3870 N   0  0  0  0  0  2  0  0  0  0  0  0
  159.1760  214.1410  142.1340 C   0  0  0  0  0  2  0  0  0  0  0  0
  157.3540  214.1190  140.5510 O   0  0  0  0  0  0  0  0  0  0  0  0
  158.5150  213.9440  139.7780 C   0  0  0  0  0  2  0  0  0  0  0  0
  158.3750  213.3320  141.1230 C   0  0  1  0  0  3  0  0  0  0  0  0
  161.7490  210.5900  150.2320 C   0  0  0  0  0  3  0  0  0  0  0  0
  161.2340  211.7020  150.8920 O   0  0  0  0  0  1  0  0  0  0  0  0
  163.0090  210.3030  150.7540 O   0  0  0  0  0  1  0  0  0  0  0  0
  2  8  1  0  0  0  0
  2  5  1  0  0  0  0
  5 10  1  6  0  0  0
  5  7  1  0  0  0  0
  6  3  1  6  0  0  0
  6 14  1  0  0  0  0
  6  4  1  0  0  0  0
  7  4  1  0  0  0  0
  8  1  1  6  0  0  0
  8  6  1  0  0  0  0
 10  9  1  6  0  0  0
 11 13  1  1  0  0  0
 11 10  1  0  0  0  0
 12 11  1  0  0  0  0
 16 24  1  1  0  0  0
 16 19  1  0  0  0  0
 17 15  1  1  0  0  0
 17 25  1  0  0  0  0
 18 28  1  0  0  0  0
 19 29  1  6  0  0  0
 19 15  1  0  0  0  0
 20 22  1  0  0  0  0
 20 21  1  0  0  0  0
 21 24  1  0  0  0  0
 22 14  1  6  0  0  0
 22 16  1  0  0  0  0
 23 25  1  0  0  0  0
 26 31  1  6  0  0  0
 26 18  1  0  0  0  0
 26 27  1  0  0  0  0
 27 16  1  0  0  0  0
 27 17  1  0  0  0  0
 28 23  1  0  0  0  0
 30 31  1  0  0  0  0
 32 33  1  0  0  0  0
 33  1  1  0  0  0  0
 34 38  1  0  0  0  0
 34 32  1  0  0  0  0
 34 33  1  0  0  0  0
 35 32  1  0  0  0  0
 36 37  1  0  0  0  0
 37 34  1  0  0  0  0
 39 38  1  0  0  0  0
 39 40  1  0  0  0  0
 40 59  1  0  0  0  0
 41 44  1  0  0  0  0
 42 46  1  0  0  0  0
 44 43  1  0  0  0  0
 44 40  1  0  0  0  0
 45 42  1  0  0  0  0
 45 41  1  0  0  0  0
 46 43  1  0  0  0  0
 47 48  1  0  0  0  0
 48 42  1  0  0  0  0
 49 41  1  0  0  0  0
 50 51  1  0  0  0  0
 50 49  1  0  0  0  0
 52 53  2  0  0  0  0
 53 50  1  0  0  0  0
 54 53  1  0  0  0  0
 55 54  1  0  0  0  0
 56 58  1  0  0  0  0
 57 56  1  0  0  0  0
 57 58  1  0  0  0  0
 58 55  1  0  0  0  0
 59 61  1  0  0  0  0
 59 60  1  0  0  0  0
M  END
>  <MODEL>
1

>  <REMARK>
 VINA RESULT:      -3.2      0.000      0.000
  Name = 
  19 active torsions:
  status: ('A' for Active; 'I' for Inactive)
    1  A    between atoms: C_2  and  C_11
    2  A    between atoms: C_4  and  C_57
    3  A    between atoms: C_5  and  C_12
    4  A    between atoms: C_6  and  C_41
    5  A    between atoms: C_6  and  C_44
    6  A    between atoms: C_8  and  C_24
    7  A    between atoms: C_9  and  C_17
    8  A    between atoms: C_9  and  C_23
    9  A    between atoms: C_11  and  C_19
   10  A    between atoms: C_11  and  C_45
   11  A    between atoms: C_12  and  C_25
   12  A    between atoms: C_17  and  C_19
   13  A    between atoms: C_22  and  C_25
   14  A    between atoms: C_24  and  C_47
   15  A    between atoms: N_27  and  C_55
   16  A    between atoms: C_38  and  C_57
   17  A    between atoms: C_39  and  C_51
   18  A    between atoms: C_42  and  C_50
   19  A    between atoms: C_55  and  C_56
                            x       y       z     vdW  Elec       q    Type
                         _______ _______ _______ _____ _____    ______ ____

>  <TORSDO>
F 19

$$$$
