=
 OpenBabel11072414373D

 26 28  0  0  1  0  0  0  0  0999 V2000
  161.0860  203.5090  150.6950 C   0  0  0  0  0  2  0  0  0  0  0  0
  161.6970  204.0160  148.2800 C   0  0  1  0  0  3  0  0  0  0  0  0
  160.8590  204.4450  149.4980 C   0  0  2  0  0  3  0  0  0  0  0  0
  161.1020  202.0300  150.3220 C   0  0  0  0  0  2  0  0  0  0  0  0
  159.9730  201.7210  149.3530 C   0  0  0  0  0  2  0  0  0  0  0  0
  160.3750  201.9030  147.9730 N   0  0  0  0  0  0  0  0  0  0  0  0
  161.0650  202.8880  147.4910 C   0  0  0  0  0  3  0  0  0  0  0  0
  161.4400  208.4610  150.7240 N   0  0  0  0  0  0  0  0  0  0  0  0
  160.9380  206.2150  151.2140 N   0  0  0  0  0  0  0  0  0  0  0  0
  161.1090  207.5000  151.6310 C   0  0  0  0  0  0  0  0  0  0  0  0
  161.4240  206.8500  148.9690 C   0  0  0  0  0  3  0  0  0  0  0  0
  161.0900  205.8690  149.9090 C   0  0  0  0  0  0  0  0  0  0  0  0
  161.5980  208.1600  149.4090 C   0  0  0  0  0  3  0  0  0  0  0  0
  160.8060  209.1260  153.4210 C   0  0  0  0  0  3  0  0  0  0  0  0
  160.9400  207.8410  153.0570 C   0  0  0  0  0  0  0  0  0  0  0  0
  160.6550  209.5600  154.8540 C   0  0  1  0  0  3  0  0  0  0  0  0
  160.9280  207.1910  155.5130 C   0  0  0  0  0  2  0  0  0  0  0  0
  160.7850  206.7230  154.0650 C   0  0  0  0  0  2  0  0  0  0  0  0
  159.7600  210.7790  154.9310 C   0  0  0  0  0  1  0  0  0  0  0  0
  160.0960  208.4460  155.7300 C   0  0  0  0  0  2  0  0  0  0  0  0
  161.9240  205.0900  147.4090 O   0  0  0  0  0  0  0  0  0  0  0  0
  162.0150  204.5220  146.1340 C   0  0  2  0  0  3  0  0  0  0  0  0
  163.4040  204.4900  145.7120 N   0  0  0  0  0  1  0  0  0  0  0  0
  161.2100  205.3150  145.1590 C   0  0  0  0  0  0  0  0  0  0  0  0
  160.2620  206.2180  145.6210 O   0  0  0  0  0  1  0  0  0  0  0  0
  161.3860  205.1720  143.9200 O   0  0  0  0  0  0  0  0  0  0  0  0
  2 21  1  6  0  0  0
  2  3  1  0  0  0  0
  3 12  1  1  0  0  0
  3  1  1  0  0  0  0
  4  1  1  0  0  0  0
  5  4  1  0  0  0  0
  6  5  1  0  0  0  0
  7  6  2  0  0  0  0
  7  2  1  0  0  0  0
  8 10  2  0  0  0  0
  9 10  1  0  0  0  0
 10 15  1  0  0  0  0
 11 13  2  0  0  0  0
 11 12  1  0  0  0  0
 12  9  2  0  0  0  0
 13  8  1  0  0  0  0
 14 16  1  0  0  0  0
 15 14  2  0  0  0  0
 15 18  1  0  0  0  0
 16 19  1  6  0  0  0
 16 20  1  0  0  0  0
 17 20  1  0  0  0  0
 18 17  1  0  0  0  0
 22 23  1  6  0  0  0
 22 21  1  0  0  0  0
 24 25  1  0  0  0  0
 24 22  1  0  0  0  0
 26 24  2  0  0  0  0
M  END
>  <MODEL>
1

>  <REMARK>
 VINA RESULT:      -9.2      0.000      0.000
  Name = 
  5 active torsions:
  status: ('A' for Active; 'I' for Inactive)
    1  A    between atoms: C_3  and  C_8
    2  A    between atoms: C_4  and  O_25
    3  A    between atoms: C_5  and  C_20
    4  A    between atoms: C_8  and  O_25
    5  A    between atoms: C_9  and  C_11
                            x       y       z     vdW  Elec       q    Type
                         _______ _______ _______ _____ _____    ______ ____

>  <TORSDO>
F 5

$$$$
=
 OpenBabel11072414373D

 26 28  0  0  1  0  0  0  0  0999 V2000
  160.9110  207.2370  153.5590 C   0  0  0  0  0  2  0  0  0  0  0  0
  160.4870  209.7290  153.2870 C   0  0  1  0  0  3  0  0  0  0  0  0
  161.3950  208.5440  152.9140 C   0  0  2  0  0  3  0  0  0  0  0  0
  160.5000  207.3910  155.0200 C   0  0  0  0  0  2  0  0  0  0  0  0
  161.5150  208.2440  155.7630 C   0  0  0  0  0  2  0  0  0  0  0  0
  161.1930  209.6550  155.6960 N   0  0  0  0  0  0  0  0  0  0  0  0
  160.8000  210.3110  154.6510 C   0  0  0  0  0  3  0  0  0  0  0  0
  161.8780  207.9280  148.7470 N   0  0  0  0  0  0  0  0  0  0  0  0
  161.3570  207.1240  150.8970 N   0  0  0  0  0  0  0  0  0  0  0  0
  161.5160  206.8990  149.5630 C   0  0  0  0  0  0  0  0  0  0  0  0
  161.9320  209.4190  150.6050 C   0  0  0  0  0  3  0  0  0  0  0  0
  161.5530  208.3570  151.4330 C   0  0  0  0  0  0  0  0  0  0  0  0
  162.0880  209.1750  149.2420 C   0  0  0  0  0  3  0  0  0  0  0  0
  161.3200  205.3590  147.6830 C   0  0  0  0  0  3  0  0  0  0  0  0
  161.2910  205.5480  149.0120 C   0  0  0  0  0  0  0  0  0  0  0  0
  161.0760  204.0220  147.0400 C   0  0  1  0  0  3  0  0  0  0  0  0
  160.6360  203.1100  149.2980 C   0  0  0  0  0  2  0  0  0  0  0  0
  161.1670  204.3790  149.9640 C   0  0  0  0  0  2  0  0  0  0  0  0
  161.9150  203.8920  145.7860 C   0  0  0  0  0  1  0  0  0  0  0  0
  161.3770  202.8700  147.9910 C   0  0  0  0  0  2  0  0  0  0  0  0
  160.5690  210.7570  152.3390 O   0  0  0  0  0  0  0  0  0  0  0  0
  159.7230  211.7660  152.8110 C   0  0  2  0  0  3  0  0  0  0  0  0
  158.3720  211.2500  152.9440 N   0  0  0  0  0  1  0  0  0  0  0  0
  159.7280  212.9250  151.8690 C   0  0  0  0  0  0  0  0  0  0  0  0
  159.1330  214.1210  152.2460 O   0  0  0  0  0  1  0  0  0  0  0  0
  160.2700  212.8240  150.7370 O   0  0  0  0  0  0  0  0  0  0  0  0
  1  4  1  0  0  0  0
  2 21  1  6  0  0  0
  2  7  1  0  0  0  0
  3 12  1  6  0  0  0
  3  2  1  0  0  0  0
  3  1  1  0  0  0  0
  4  5  1  0  0  0  0
  6  5  1  0  0  0  0
  7  6  2  0  0  0  0
  8 13  1  0  0  0  0
  8 10  2  0  0  0  0
  9 12  2  0  0  0  0
 10  9  1  0  0  0  0
 11 12  1  0  0  0  0
 13 11  2  0  0  0  0
 14 15  2  0  0  0  0
 15 10  1  0  0  0  0
 15 18  1  0  0  0  0
 16 19  1  6  0  0  0
 16 14  1  0  0  0  0
 16 20  1  0  0  0  0
 17 18  1  0  0  0  0
 20 17  1  0  0  0  0
 21 22  1  0  0  0  0
 22 23  1  6  0  0  0
 24 25  1  0  0  0  0
 24 22  1  0  0  0  0
 26 24  2  0  0  0  0
M  END
>  <MODEL>
2

>  <REMARK>
 VINA RESULT:      -8.4      3.546      7.781
  Name = 
  5 active torsions:
  status: ('A' for Active; 'I' for Inactive)
    1  A    between atoms: C_3  and  C_8
    2  A    between atoms: C_4  and  O_25
    3  A    between atoms: C_5  and  C_20
    4  A    between atoms: C_8  and  O_25
    5  A    between atoms: C_9  and  C_11
                            x       y       z     vdW  Elec       q    Type
                         _______ _______ _______ _____ _____    ______ ____

>  <TORSDO>
F 5

$$$$
=
 OpenBabel11072414373D

 26 28  0  0  1  0  0  0  0  0999 V2000
  160.6230  207.2790  155.0130 C   0  0  0  0  0  2  0  0  0  0  0  0
  159.7910  209.6630  154.7220 C   0  0  1  0  0  3  0  0  0  0  0  0
  160.9170  208.6600  154.4120 C   0  0  2  0  0  3  0  0  0  0  0  0
  160.0860  207.3340  156.4400 C   0  0  0  0  0  2  0  0  0  0  0  0
  160.8800  208.3360  157.2610 C   0  0  0  0  0  2  0  0  0  0  0  0
  160.3220  209.6710  157.1770 N   0  0  0  0  0  0  0  0  0  0  0  0
  159.8980  210.2670  156.1070 C   0  0  0  0  0  3  0  0  0  0  0  0
  161.7840  208.2010  150.2880 N   0  0  0  0  0  0  0  0  0  0  0  0
  161.0300  207.3280  152.3390 N   0  0  0  0  0  0  0  0  0  0  0  0
  161.3110  207.1530  151.0180 C   0  0  0  0  0  0  0  0  0  0  0  0
  161.7040  209.6100  152.2070 C   0  0  0  0  0  3  0  0  0  0  0  0
  161.2120  208.5290  152.9460 C   0  0  0  0  0  0  0  0  0  0  0  0
  161.9840  209.4180  150.8560 C   0  0  0  0  0  3  0  0  0  0  0  0
  161.1360  205.7240  149.0510 C   0  0  0  0  0  3  0  0  0  0  0  0
  161.0980  205.8350  150.3880 C   0  0  0  0  0  0  0  0  0  0  0  0
  160.9050  204.4240  148.3290 C   0  0  1  0  0  3  0  0  0  0  0  0
  160.4560  203.3810  150.5280 C   0  0  0  0  0  2  0  0  0  0  0  0
  160.9750  204.6120  151.2700 C   0  0  0  0  0  2  0  0  0  0  0  0
  161.7520  204.3720  147.0760 C   0  0  0  0  0  1  0  0  0  0  0  0
  161.2060  203.2210  149.2140 C   0  0  0  0  0  2  0  0  0  0  0  0
  159.7610  210.7070  153.7870 O   0  0  0  0  0  0  0  0  0  0  0  0
  158.8960  211.6640  154.3270 C   0  0  2  0  0  3  0  0  0  0  0  0
  157.5250  211.1990  154.2200 N   0  0  0  0  0  1  0  0  0  0  0  0
  159.0460  212.9600  153.6010 C   0  0  0  0  0  0  0  0  0  0  0  0
  159.7010  212.9920  152.3770 O   0  0  0  0  0  0  0  0  0  0  0  0
  158.5810  214.0240  154.0900 O   0  0  0  0  0  1  0  0  0  0  0  0
  1  4  1  0  0  0  0
  2 21  1  6  0  0  0
  2  7  1  0  0  0  0
  3 12  1  6  0  0  0
  3  2  1  0  0  0  0
  3  1  1  0  0  0  0
  4  5  1  0  0  0  0
  6  5  1  0  0  0  0
  7  6  2  0  0  0  0
  8 13  1  0  0  0  0
  8 10  2  0  0  0  0
  9 12  2  0  0  0  0
 10  9  1  0  0  0  0
 11 12  1  0  0  0  0
 13 11  2  0  0  0  0
 14 15  2  0  0  0  0
 15 10  1  0  0  0  0
 15 18  1  0  0  0  0
 16 19  1  6  0  0  0
 16 14  1  0  0  0  0
 16 20  1  0  0  0  0
 17 18  1  0  0  0  0
 20 17  1  0  0  0  0
 21 22  1  0  0  0  0
 22 23  1  6  0  0  0
 24 26  1  0  0  0  0
 24 22  1  0  0  0  0
 25 24  2  0  0  0  0
M  END
>  <MODEL>
3

>  <REMARK>
 VINA RESULT:      -8.4      4.008      8.218
  Name = 
  5 active torsions:
  status: ('A' for Active; 'I' for Inactive)
    1  A    between atoms: C_3  and  C_8
    2  A    between atoms: C_4  and  O_25
    3  A    between atoms: C_5  and  C_20
    4  A    between atoms: C_8  and  O_25
    5  A    between atoms: C_9  and  C_11
                            x       y       z     vdW  Elec       q    Type
                         _______ _______ _______ _____ _____    ______ ____

>  <TORSDO>
F 5

$$$$
=
 OpenBabel11072414373D

 26 28  0  0  1  0  0  0  0  0999 V2000
  160.7940  206.5180  148.2720 C   0  0  0  0  0  2  0  0  0  0  0  0
  161.0110  203.9940  148.0660 C   0  0  1  0  0  3  0  0  0  0  0  0
  161.4840  205.2560  148.8090 C   0  0  2  0  0  3  0  0  0  0  0  0
  160.7140  206.5710  146.7490 C   0  0  0  0  0  2  0  0  0  0  0  0
  162.0390  206.1440  146.1400 C   0  0  0  0  0  2  0  0  0  0  0  0
  162.1010  204.7130  145.9210 N   0  0  0  0  0  0  0  0  0  0  0  0
  161.7140  203.7870  146.7400 C   0  0  0  0  0  3  0  0  0  0  0  0
  161.0510  205.0970  153.0230 N   0  0  0  0  0  0  0  0  0  0  0  0
  161.2050  206.3190  151.0180 N   0  0  0  0  0  0  0  0  0  0  0  0
  161.0740  206.2930  152.3730 C   0  0  0  0  0  0  0  0  0  0  0  0
  161.2950  203.9380  150.9560 C   0  0  0  0  0  3  0  0  0  0  0  0
  161.3110  205.1720  150.2980 C   0  0  0  0  0  0  0  0  0  0  0  0
  161.1590  203.9270  152.3420 C   0  0  0  0  0  3  0  0  0  0  0  0
  161.0480  207.5460  154.4650 C   0  0  0  0  0  3  0  0  0  0  0  0
  160.9570  207.5590  153.1260 C   0  0  0  0  0  0  0  0  0  0  0  0
  160.9140  208.7850  155.3070 C   0  0  1  0  0  3  0  0  0  0  0  0
  160.4450  210.0440  153.2300 C   0  0  0  0  0  2  0  0  0  0  0  0
  160.8700  208.8610  152.3610 C   0  0  0  0  0  2  0  0  0  0  0  0
  161.8070  208.6790  156.5260 C   0  0  0  0  0  1  0  0  0  0  0  0
  161.2500  210.0460  154.5220 C   0  0  0  0  0  2  0  0  0  0  0  0
  161.1910  202.8420  148.8450 O   0  0  0  0  0  0  0  0  0  0  0  0
  160.3650  201.8720  148.2680 C   0  0  2  0  0  3  0  0  0  0  0  0
  159.3870  201.4210  149.2430 N   0  0  0  0  0  1  0  0  0  0  0  0
  161.1820  200.7130  147.8010 C   0  0  0  0  0  0  0  0  0  0  0  0
  161.1120  200.3110  146.4740 O   0  0  0  0  0  0  0  0  0  0  0  0
  161.9350  200.0980  148.6030 O   0  0  0  0  0  1  0  0  0  0  0  0
  1  3  1  0  0  0  0
  2  3  1  0  0  0  0
  2 21  1  1  0  0  0
  3 12  1  1  0  0  0
  4  1  1  0  0  0  0
  5  4  1  0  0  0  0
  6  5  1  0  0  0  0
  6  7  2  0  0  0  0
  7  2  1  0  0  0  0
  9 10  1  0  0  0  0
 10  8  2  0  0  0  0
 10 15  1  0  0  0  0
 11 13  2  0  0  0  0
 12 11  1  0  0  0  0
 12  9  2  0  0  0  0
 13  8  1  0  0  0  0
 14 16  1  0  0  0  0
 15 14  2  0  0  0  0
 16 19  1  1  0  0  0
 17 20  1  0  0  0  0
 18 15  1  0  0  0  0
 18 17  1  0  0  0  0
 20 16  1  0  0  0  0
 22 21  1  0  0  0  0
 22 23  1  1  0  0  0
 24 22  1  0  0  0  0
 24 26  1  0  0  0  0
 25 24  2  0  0  0  0
M  END
>  <MODEL>
4

>  <REMARK>
 VINA RESULT:      -8.4      1.950      3.798
  Name = 
  5 active torsions:
  status: ('A' for Active; 'I' for Inactive)
    1  A    between atoms: C_3  and  C_8
    2  A    between atoms: C_4  and  O_25
    3  A    between atoms: C_5  and  C_20
    4  A    between atoms: C_8  and  O_25
    5  A    between atoms: C_9  and  C_11
                            x       y       z     vdW  Elec       q    Type
                         _______ _______ _______ _____ _____    ______ ____

>  <TORSDO>
F 5

$$$$
=
 OpenBabel11072414373D

 26 28  0  0  1  0  0  0  0  0999 V2000
  160.8410  208.4580  155.0140 C   0  0  0  0  0  2  0  0  0  0  0  0
  160.2920  210.7530  154.0690 C   0  0  1  0  0  3  0  0  0  0  0  0
  161.2590  209.5560  154.0250 C   0  0  2  0  0  3  0  0  0  0  0  0
  160.4240  208.9910  156.3810 C   0  0  0  0  0  2  0  0  0  0  0  0
  161.3960  210.0630  156.8440 C   0  0  0  0  0  2  0  0  0  0  0  0
  161.0050  211.3840  156.3940 N   0  0  0  0  0  0  0  0  0  0  0  0
  160.5780  211.7040  155.2140 C   0  0  0  0  0  3  0  0  0  0  0  0
  161.7610  207.8300  150.1850 N   0  0  0  0  0  0  0  0  0  0  0  0
  161.2110  207.6440  152.4660 N   0  0  0  0  0  0  0  0  0  0  0  0
  161.3750  207.0650  151.2440 C   0  0  0  0  0  0  0  0  0  0  0  0
  161.8250  209.7670  151.5720 C   0  0  0  0  0  3  0  0  0  0  0  0
  161.4230  208.9730  152.6520 C   0  0  0  0  0  0  0  0  0  0  0  0
  161.9870  209.1620  150.3280 C   0  0  0  0  0  3  0  0  0  0  0  0
  160.9250  205.1180  149.8480 C   0  0  0  0  0  3  0  0  0  0  0  0
  161.1320  205.6190  151.0760 C   0  0  0  0  0  0  0  0  0  0  0  0
  160.6450  203.6630  149.5920 C   0  0  1  0  0  3  0  0  0  0  0  0
  160.6840  203.3120  152.0410 C   0  0  0  0  0  2  0  0  0  0  0  0
  161.2550  204.7100  152.2790 C   0  0  0  0  0  2  0  0  0  0  0  0
  161.2440  203.2480  148.2650 C   0  0  0  0  0  1  0  0  0  0  0  0
  161.1840  202.7760  150.7080 C   0  0  0  0  0  2  0  0  0  0  0  0
  160.3220  211.4810  152.8730 O   0  0  0  0  0  0  0  0  0  0  0  0
  159.1990  212.3150  152.9170 C   0  0  2  0  0  3  0  0  0  0  0  0
  158.0140  211.5240  153.1940 N   0  0  0  0  0  1  0  0  0  0  0  0
  159.0360  213.0270  151.6150 C   0  0  0  0  0  0  0  0  0  0  0  0
  160.0920  213.7650  151.0970 O   0  0  0  0  0  1  0  0  0  0  0  0
  157.9480  212.9630  150.9840 O   0  0  0  0  0  0  0  0  0  0  0  0
  1  4  1  0  0  0  0
  2 21  1  6  0  0  0
  2  7  1  0  0  0  0
  3 12  1  6  0  0  0
  3  2  1  0  0  0  0
  3  1  1  0  0  0  0
  4  5  1  0  0  0  0
  6  5  1  0  0  0  0
  7  6  2  0  0  0  0
  8 13  1  0  0  0  0
  8 10  2  0  0  0  0
  9 12  2  0  0  0  0
 10  9  1  0  0  0  0
 11 12  1  0  0  0  0
 13 11  2  0  0  0  0
 14 15  2  0  0  0  0
 15 10  1  0  0  0  0
 15 18  1  0  0  0  0
 16 19  1  6  0  0  0
 16 14  1  0  0  0  0
 16 20  1  0  0  0  0
 17 18  1  0  0  0  0
 20 17  1  0  0  0  0
 21 22  1  0  0  0  0
 22 23  1  6  0  0  0
 24 22  1  0  0  0  0
 25 24  1  0  0  0  0
 26 24  2  0  0  0  0
M  END
>  <MODEL>
5

>  <REMARK>
 VINA RESULT:      -8.2      3.926      7.983
  Name = 
  5 active torsions:
  status: ('A' for Active; 'I' for Inactive)
    1  A    between atoms: C_3  and  C_8
    2  A    between atoms: C_4  and  O_25
    3  A    between atoms: C_5  and  C_20
    4  A    between atoms: C_8  and  O_25
    5  A    between atoms: C_9  and  C_11
                            x       y       z     vdW  Elec       q    Type
                         _______ _______ _______ _____ _____    ______ ____

>  <TORSDO>
F 5

$$$$
=
 OpenBabel11072414373D

 26 28  0  0  1  0  0  0  0  0999 V2000
  161.0820  206.1090  147.4770 C   0  0  0  0  0  2  0  0  0  0  0  0
  160.8470  203.6470  146.8910 C   0  0  1  0  0  3  0  0  0  0  0  0
  161.5080  204.6760  147.8250 C   0  0  2  0  0  3  0  0  0  0  0  0
  161.0790  206.4000  145.9790 C   0  0  0  0  0  2  0  0  0  0  0  0
  162.3290  205.8290  145.3320 C   0  0  0  0  0  2  0  0  0  0  0  0
  162.1400  204.4600  144.8970 N   0  0  0  0  0  0  0  0  0  0  0  0
  161.5560  203.5120  145.5590 C   0  0  0  0  0  3  0  0  0  0  0  0
  160.8710  203.9810  151.9590 N   0  0  0  0  0  0  0  0  0  0  0  0
  161.2940  205.4400  150.1610 N   0  0  0  0  0  0  0  0  0  0  0  0
  161.1020  205.2400  151.4940 C   0  0  0  0  0  0  0  0  0  0  0  0
  161.0290  203.1080  149.7480 C   0  0  0  0  0  3  0  0  0  0  0  0
  161.2590  204.4060  149.2810 C   0  0  0  0  0  0  0  0  0  0  0  0
  160.8320  202.9190  151.1130 C   0  0  0  0  0  3  0  0  0  0  0  0
  161.3360  207.6260  151.9430 C   0  0  0  0  0  3  0  0  0  0  0  0
  161.1430  206.3870  152.4240 C   0  0  0  0  0  0  0  0  0  0  0  0
  161.4160  208.8430  152.8230 C   0  0  1  0  0  3  0  0  0  0  0  0
  161.2060  207.3410  154.7770 C   0  0  0  0  0  2  0  0  0  0  0  0
  160.8320  206.1570  153.8860 C   0  0  0  0  0  2  0  0  0  0  0  0
  160.8290  210.0390  152.1020 C   0  0  0  0  0  1  0  0  0  0  0  0
  160.7010  208.6320  154.1520 C   0  0  0  0  0  2  0  0  0  0  0  0
  160.7810  202.3800  147.4860 O   0  0  0  0  0  0  0  0  0  0  0  0
  161.0040  201.4690  146.4480 C   0  0  2  0  0  3  0  0  0  0  0  0
  159.7950  201.3260  145.6560 N   0  0  0  0  0  1  0  0  0  0  0  0
  161.4020  200.1420  147.0050 C   0  0  0  0  0  0  0  0  0  0  0  0
  161.5750  199.0620  146.1500 O   0  0  0  0  0  0  0  0  0  0  0  0
  161.5810  199.9970  148.2430 O   0  0  0  0  0  1  0  0  0  0  0  0
  1  3  1  0  0  0  0
  2 21  1  1  0  0  0
  2  3  1  0  0  0  0
  3 12  1  1  0  0  0
  4  1  1  0  0  0  0
  5  4  1  0  0  0  0
  6  5  1  0  0  0  0
  6  7  2  0  0  0  0
  7  2  1  0  0  0  0
  9 10  1  0  0  0  0
 10  8  2  0  0  0  0
 10 15  1  0  0  0  0
 11 13  2  0  0  0  0
 12 11  1  0  0  0  0
 12  9  2  0  0  0  0
 13  8  1  0  0  0  0
 14 15  2  0  0  0  0
 14 16  1  0  0  0  0
 15 18  1  0  0  0  0
 16 19  1  6  0  0  0
 16 20  1  0  0  0  0
 18 17  1  0  0  0  0
 20 17  1  0  0  0  0
 22 23  1  1  0  0  0
 22 24  1  0  0  0  0
 22 21  1  0  0  0  0
 24 26  1  0  0  0  0
 25 24  2  0  0  0  0
M  END
>  <MODEL>
6

>  <REMARK>
 VINA RESULT:      -7.9      2.163      3.910
  Name = 
  5 active torsions:
  status: ('A' for Active; 'I' for Inactive)
    1  A    between atoms: C_3  and  C_8
    2  A    between atoms: C_4  and  O_25
    3  A    between atoms: C_5  and  C_20
    4  A    between atoms: C_8  and  O_25
    5  A    between atoms: C_9  and  C_11
                            x       y       z     vdW  Elec       q    Type
                         _______ _______ _______ _____ _____    ______ ____

>  <TORSDO>
F 5

$$$$
=
 OpenBabel11072414373D

 26 28  0  0  1  0  0  0  0  0999 V2000
  161.9510  209.2560  150.8680 C   0  0  0  0  0  2  0  0  0  0  0  0
  161.3030  209.6700  153.2910 C   0  0  1  0  0  3  0  0  0  0  0  0
  161.0200  208.8490  152.0200 C   0  0  2  0  0  3  0  0  0  0  0  0
  162.1210  210.7650  150.7220 C   0  0  0  0  0  2  0  0  0  0  0  0
  160.7770  211.4600  150.8600 C   0  0  0  0  0  2  0  0  0  0  0  0
  160.4750  211.7950  152.2370 N   0  0  0  0  0  0  0  0  0  0  0  0
  160.6490  211.0370  153.2730 C   0  0  0  0  0  3  0  0  0  0  0  0
  161.1660  204.6480  152.5690 N   0  0  0  0  0  0  0  0  0  0  0  0
  161.0410  206.5340  151.1680 N   0  0  0  0  0  0  0  0  0  0  0  0
  161.0770  205.1820  151.3190 C   0  0  0  0  0  0  0  0  0  0  0  0
  161.1800  206.8290  153.5290 C   0  0  0  0  0  3  0  0  0  0  0  0
  161.0950  207.3660  152.2400 C   0  0  0  0  0  0  0  0  0  0  0  0
  161.2180  205.4430  153.6690 C   0  0  0  0  0  3  0  0  0  0  0  0
  161.2630  204.8200  148.9150 C   0  0  0  0  0  3  0  0  0  0  0  0
  161.0210  204.3060  150.1310 C   0  0  0  0  0  0  0  0  0  0  0  0
  161.2010  204.0040  147.6530 C   0  0  1  0  0  3  0  0  0  0  0  0
  160.4780  202.0810  149.0330 C   0  0  0  0  0  2  0  0  0  0  0  0
  160.8240  202.8190  150.3250 C   0  0  0  0  0  2  0  0  0  0  0  0
  162.2280  204.5090  146.6620 C   0  0  0  0  0  1  0  0  0  0  0  0
  161.4230  202.5210  147.9240 C   0  0  0  0  0  2  0  0  0  0  0  0
  160.8810  208.9940  154.4440 O   0  0  0  0  0  0  0  0  0  0  0  0
  161.0340  209.9110  155.4890 C   0  0  2  0  0  3  0  0  0  0  0  0
  162.4020  209.8720  155.9770 N   0  0  0  0  0  1  0  0  0  0  0  0
  160.0940  209.5840  156.6020 C   0  0  0  0  0  0  0  0  0  0  0  0
  160.0780  208.3030  157.1360 O   0  0  0  0  0  1  0  0  0  0  0  0
  159.3150  210.4630  157.0580 O   0  0  0  0  0  0  0  0  0  0  0  0
  1  3  1  0  0  0  0
  2 21  1  1  0  0  0
  3 12  1  1  0  0  0
  3  2  1  0  0  0  0
  4  5  1  0  0  0  0
  4  1  1  0  0  0  0
  5  6  1  0  0  0  0
  6  7  2  0  0  0  0
  7  2  1  0  0  0  0
  8 13  1  0  0  0  0
  9 10  1  0  0  0  0
  9 12  2  0  0  0  0
 10  8  2  0  0  0  0
 11 13  2  0  0  0  0
 12 11  1  0  0  0  0
 14 15  2  0  0  0  0
 15 18  1  0  0  0  0
 15 10  1  0  0  0  0
 16 19  1  6  0  0  0
 16 20  1  0  0  0  0
 16 14  1  0  0  0  0
 17 18  1  0  0  0  0
 20 17  1  0  0  0  0
 21 22  1  0  0  0  0
 22 23  1  1  0  0  0
 22 24  1  0  0  0  0
 24 26  2  0  0  0  0
 24 25  1  0  0  0  0
M  END
>  <MODEL>
7

>  <REMARK>
 VINA RESULT:      -7.8      3.894      8.433
  Name = 
  5 active torsions:
  status: ('A' for Active; 'I' for Inactive)
    1  A    between atoms: C_3  and  C_8
    2  A    between atoms: C_4  and  O_25
    3  A    between atoms: C_5  and  C_20
    4  A    between atoms: C_8  and  O_25
    5  A    between atoms: C_9  and  C_11
                            x       y       z     vdW  Elec       q    Type
                         _______ _______ _______ _____ _____    ______ ____

>  <TORSDO>
F 5

$$$$
=
 OpenBabel11072414373D

 26 28  0  0  1  0  0  0  0  0999 V2000
  161.9140  208.9950  150.8970 C   0  0  0  0  0  2  0  0  0  0  0  0
  161.4490  208.4990  153.3460 C   0  0  1  0  0  3  0  0  0  0  0  0
  161.0770  208.1740  151.8880 C   0  0  2  0  0  3  0  0  0  0  0  0
  162.0630  210.4620  151.2880 C   0  0  0  0  0  2  0  0  0  0  0  0
  160.7280  211.0170  151.7560 C   0  0  0  0  0  2  0  0  0  0  0  0
  160.5290  210.8300  153.1790 N   0  0  0  0  0  0  0  0  0  0  0  0
  160.7860  209.7600  153.8620 C   0  0  0  0  0  3  0  0  0  0  0  0
  161.3080  204.0640  150.8770 N   0  0  0  0  0  0  0  0  0  0  0  0
  161.2930  206.3350  150.2590 N   0  0  0  0  0  0  0  0  0  0  0  0
  161.3600  205.0210  149.9090 C   0  0  0  0  0  0  0  0  0  0  0  0
  161.1170  205.7390  152.5600 C   0  0  0  0  0  3  0  0  0  0  0  0
  161.1770  206.7140  151.5580 C   0  0  0  0  0  0  0  0  0  0  0  0
  161.1880  204.3990  152.1880 C   0  0  0  0  0  3  0  0  0  0  0  0
  161.4130  203.3500  148.1340 C   0  0  0  0  0  3  0  0  0  0  0  0
  161.4900  204.6430  148.4870 C   0  0  0  0  0  0  0  0  0  0  0  0
  161.5610  202.8790  146.7130 C   0  0  1  0  0  3  0  0  0  0  0  0
  162.0090  205.2260  146.0700 C   0  0  0  0  0  2  0  0  0  0  0  0
  161.5720  205.7340  147.4430 C   0  0  0  0  0  2  0  0  0  0  0  0
  160.6810  201.6690  146.4770 C   0  0  0  0  0  1  0  0  0  0  0  0
  161.2200  203.9750  145.7120 C   0  0  0  0  0  2  0  0  0  0  0  0
  161.1200  207.4440  154.2070 O   0  0  0  0  0  0  0  0  0  0  0  0
  160.7740  208.0480  155.4210 C   0  0  2  0  0  3  0  0  0  0  0  0
  161.9740  208.3140  156.1940 N   0  0  0  0  0  1  0  0  0  0  0  0
  159.8610  207.1570  156.1970 C   0  0  0  0  0  0  0  0  0  0  0  0
  158.5540  206.9690  155.7670 O   0  0  0  0  0  0  0  0  0  0  0  0
  160.2690  206.5750  157.2370 O   0  0  0  0  0  1  0  0  0  0  0  0
  1  4  1  0  0  0  0
  1  3  1  0  0  0  0
  2  7  1  0  0  0  0
  2 21  1  1  0  0  0
  3 12  1  6  0  0  0
  3  2  1  0  0  0  0
  4  5  1  0  0  0  0
  5  6  1  0  0  0  0
  6  7  2  0  0  0  0
  8 13  1  0  0  0  0
  9 12  2  0  0  0  0
 10  9  1  0  0  0  0
 10  8  2  0  0  0  0
 12 11  1  0  0  0  0
 13 11  2  0  0  0  0
 14 15  2  0  0  0  0
 15 10  1  0  0  0  0
 16 19  1  6  0  0  0
 16 14  1  0  0  0  0
 17 18  1  0  0  0  0
 18 15  1  0  0  0  0
 20 17  1  0  0  0  0
 20 16  1  0  0  0  0
 21 22  1  0  0  0  0
 22 23  1  1  0  0  0
 22 24  1  0  0  0  0
 24 26  1  0  0  0  0
 25 24  2  0  0  0  0
M  END
>  <MODEL>
8

>  <REMARK>
 VINA RESULT:      -7.5      3.541      8.414
  Name = 
  5 active torsions:
  status: ('A' for Active; 'I' for Inactive)
    1  A    between atoms: C_3  and  C_8
    2  A    between atoms: C_4  and  O_25
    3  A    between atoms: C_5  and  C_20
    4  A    between atoms: C_8  and  O_25
    5  A    between atoms: C_9  and  C_11
                            x       y       z     vdW  Elec       q    Type
                         _______ _______ _______ _____ _____    ______ ____

>  <TORSDO>
F 5

$$$$
=
 OpenBabel11072414373D

 26 28  0  0  1  0  0  0  0  0999 V2000
  160.9470  206.5780  146.4120 C   0  0  0  0  0  2  0  0  0  0  0  0
  161.1350  204.8120  148.2300 C   0  0  1  0  0  3  0  0  0  0  0  0
  161.7310  206.1050  147.6440 C   0  0  2  0  0  3  0  0  0  0  0  0
  160.5870  205.4530  145.4460 C   0  0  0  0  0  2  0  0  0  0  0  0
  161.7780  204.5310  145.2470 C   0  0  0  0  0  2  0  0  0  0  0  0
  161.8060  203.4600  146.2230 N   0  0  0  0  0  0  0  0  0  0  0  0
  161.5810  203.5650  147.4940 C   0  0  0  0  0  3  0  0  0  0  0  0
  161.9560  209.2140  150.5170 N   0  0  0  0  0  0  0  0  0  0  0  0
  161.6160  206.9540  149.9580 N   0  0  0  0  0  0  0  0  0  0  0  0
  161.6730  207.9370  150.8970 C   0  0  0  0  0  0  0  0  0  0  0  0
  162.1230  208.5280  148.2410 C   0  0  0  0  0  3  0  0  0  0  0  0
  161.8370  207.2190  148.6440 C   0  0  0  0  0  0  0  0  0  0  0  0
  162.1800  209.5240  149.2140 C   0  0  0  0  0  3  0  0  0  0  0  0
  161.1990  208.6040  153.1940 C   0  0  0  0  0  3  0  0  0  0  0  0
  161.4310  207.6130  152.3180 C   0  0  0  0  0  0  0  0  0  0  0  0
  160.9690  208.3620  154.6610 C   0  0  1  0  0  3  0  0  0  0  0  0
  161.3780  205.9580  154.2430 C   0  0  0  0  0  2  0  0  0  0  0  0
  161.3180  206.1630  152.7300 C   0  0  0  0  0  2  0  0  0  0  0  0
  159.9920  209.3830  155.2050 C   0  0  0  0  0  1  0  0  0  0  0  0
  160.4560  206.9530  154.9320 C   0  0  0  0  0  2  0  0  0  0  0  0
  161.4610  204.6650  149.5850 O   0  0  0  0  0  0  0  0  0  0  0  0
  160.5500  203.7300  150.0870 C   0  0  2  0  0  3  0  0  0  0  0  0
  159.6850  204.3660  151.0650 N   0  0  0  0  0  1  0  0  0  0  0  0
  161.2780  202.5920  150.7240 C   0  0  0  0  0  0  0  0  0  0  0  0
  161.2060  201.3260  150.1580 O   0  0  0  0  0  0  0  0  0  0  0  0
  161.9570  202.7740  151.7690 O   0  0  0  0  0  1  0  0  0  0  0  0
  1  3  1  0  0  0  0
  2 21  1  1  0  0  0
  3  2  1  0  0  0  0
  3 12  1  1  0  0  0
  4  1  1  0  0  0  0
  5  4  1  0  0  0  0
  5  6  1  0  0  0  0
  6  7  2  0  0  0  0
  7  2  1  0  0  0  0
  8 10  2  0  0  0  0
  9 10  1  0  0  0  0
 10 15  1  0  0  0  0
 11 12  1  0  0  0  0
 11 13  2  0  0  0  0
 12  9  2  0  0  0  0
 13  8  1  0  0  0  0
 14 16  1  0  0  0  0
 15 18  1  0  0  0  0
 15 14  2  0  0  0  0
 16 20  1  0  0  0  0
 16 19  1  6  0  0  0
 17 20  1  0  0  0  0
 18 17  1  0  0  0  0
 21 22  1  0  0  0  0
 22 24  1  0  0  0  0
 22 23  1  1  0  0  0
 24 26  1  0  0  0  0
 25 24  2  0  0  0  0
M  END
>  <MODEL>
9

>  <REMARK>
 VINA RESULT:      -7.3      1.905      3.687
  Name = 
  5 active torsions:
  status: ('A' for Active; 'I' for Inactive)
    1  A    between atoms: C_3  and  C_8
    2  A    between atoms: C_4  and  O_25
    3  A    between atoms: C_5  and  C_20
    4  A    between atoms: C_8  and  O_25
    5  A    between atoms: C_9  and  C_11
                            x       y       z     vdW  Elec       q    Type
                         _______ _______ _______ _____ _____    ______ ____

>  <TORSDO>
F 5

$$$$
