=
 OpenBabel11072410493D

 38 41  0  0  1  0  0  0  0  0999 V2000
  161.4650  206.9040  151.2870 C   0  0  0  0  0  0  0  0  0  0  0  0
  162.0640  204.5500  151.5770 O   0  0  0  0  0  1  0  0  0  0  0  0
  161.0210  208.0990  151.8740 C   0  0  0  0  0  3  0  0  0  0  0  0
  160.9480  207.0450  154.0480 C   0  0  0  0  0  3  0  0  0  0  0  0
  161.3870  205.8470  153.4790 C   0  0  0  0  0  3  0  0  0  0  0  0
  161.6410  205.7660  152.1070 C   0  0  0  0  0  0  0  0  0  0  0  0
  160.7570  208.1750  153.2430 C   0  0  0  0  0  0  0  0  0  0  0  0
  160.5730  212.1820  156.6750 C   0  0  0  0  0  1  0  0  0  0  0  0
  160.3200  209.4800  153.8220 C   0  0  2  0  0  3  0  0  0  0  0  0
  160.0150  210.4660  152.7360 C   0  0  0  0  0  3  0  0  0  0  0  0
  159.9600  212.2610  154.3470 N   0  0  0  0  0  0  0  0  0  0  0  0
  161.5720  210.1600  154.9570 S   0  0  0  0  0  0  0  0  0  0  0  0
  159.8300  211.7640  153.0040 C   0  0  0  0  0  0  0  0  0  0  0  0
  160.5970  211.6350  155.2950 C   0  0  0  0  0  0  0  0  0  0  0  0
  156.9360  213.8060  152.7030 C   0  0  0  0  0  2  0  0  0  0  0  0
  158.2150  213.4400  152.0280 N   0  0  0  0  0  0  0  0  0  0  0  0
  159.4270  212.6880  151.9300 C   0  0  0  0  0  0  0  0  0  0  0  0
  156.4820  213.8780  150.4310 N   0  0  0  0  0  1  0  0  0  0  0  0
  157.2430  214.4530  151.5250 C   0  0  1  0  0  3  0  0  0  0  0  0
  160.1630  212.8310  150.9160 O   0  0  0  0  0  0  0  0  0  0  0  0
  161.6930  206.8790  149.8260 C   0  0  0  0  0  0  0  0  0  0  0  0
  160.9180  206.0000  149.0060 N   0  0  0  0  0  2  0  0  0  0  0  0
  162.5840  207.5980  149.2990 O   0  0  0  0  0  0  0  0  0  0  0  0
  161.2910  205.6720  147.6370 C   0  0  2  0  0  3  0  0  0  0  0  0
  160.0920  205.7780  146.6960 C   0  0  0  0  0  2  0  0  0  0  0  0
  160.4720  206.3620  145.4200 N   0  0  0  0  0  2  0  0  0  0  0  0
  161.6710  205.6180  143.5730 O   0  0  0  0  0  1  0  0  0  0  0  0
  160.7060  205.2550  144.5100 C   0  0  0  0  0  2  0  0  0  0  0  0
  162.0090  204.3180  147.5560 C   0  0  0  0  0  2  0  0  0  0  0  0
  160.5620  203.2160  149.0850 O   0  0  0  0  0  0  0  0  0  0  0  0
  161.1510  203.1570  147.9730 C   0  0  0  0  0  0  0  0  0  0  0  0
  161.3090  199.5630  146.7280 C   0  0  0  0  0  3  0  0  0  0  0  0
  160.2240  200.9400  145.0590 C   0  0  0  0  0  3  0  0  0  0  0  0
  160.3890  202.0600  145.8780 C   0  0  0  0  0  3  0  0  0  0  0  0
  160.6810  199.6900  145.4850 C   0  0  0  0  0  3  0  0  0  0  0  0
  161.0070  201.9460  147.1340 C   0  0  0  0  0  0  0  0  0  0  0  0
  161.4790  200.6830  147.5510 C   0  0  0  0  0  0  0  0  0  0  0  0
  162.1170  200.5260  148.7370 F   0  0  0  0  0  0  0  0  0  0  0  0
  1  3  2  0  0  0  0
  1  6  1  0  0  0  0
  2  6  1  0  0  0  0
  3  7  1  0  0  0  0
  5  4  1  0  0  0  0
  6  5  2  0  0  0  0
  7  4  2  0  0  0  0
  9  7  1  6  0  0  0
  9 12  1  0  0  0  0
 10 13  2  0  0  0  0
 10  9  1  0  0  0  0
 11 14  2  0  0  0  0
 12 14  1  0  0  0  0
 13 11  1  0  0  0  0
 14  8  1  0  0  0  0
 16 15  1  0  0  0  0
 17 16  1  0  0  0  0
 17 13  1  0  0  0  0
 19 18  1  6  0  0  0
 19 16  1  0  0  0  0
 19 15  1  0  0  0  0
 20 17  2  0  0  0  0
 21  1  1  0  0  0  0
 22 21  1  0  0  0  0
 23 21  2  0  0  0  0
 24 25  1  6  0  0  0
 24 22  1  0  0  0  0
 26 25  1  0  0  0  0
 27 28  1  0  0  0  0
 28 26  1  0  0  0  0
 29 24  1  0  0  0  0
 29 31  1  0  0  0  0
 31 30  2  0  0  0  0
 32 37  1  0  0  0  0
 33 35  1  0  0  0  0
 33 34  2  0  0  0  0
 34 36  1  0  0  0  0
 35 32  2  0  0  0  0
 36 37  2  0  0  0  0
 36 31  1  0  0  0  0
 37 38  1  0  0  0  0
M  END
>  <MODEL>
1

>  <REMARK>
 VINA RESULT:      -8.4      0.000      0.000
  Name = 
  10 active torsions:
  status: ('A' for Active; 'I' for Inactive)
    1  A    between atoms: C_3  and  C_34
    2  A    between atoms: N_8  and  C_12
    3  A    between atoms: N_8  and  C_17
    4  A    between atoms: C_9  and  C_11
    5  A    between atoms: C_10  and  C_17
    6  A    between atoms: C_10  and  N_22
    7  A    between atoms: C_10  and  C_23
    8  A    between atoms: C_16  and  C_23
    9  A    between atoms: C_16  and  C_30
   10  A    between atoms: C_21  and  C_37
                            x       y       z     vdW  Elec       q    Type
                         _______ _______ _______ _____ _____    ______ ____

>  <TORSDO>
F 10

$$$$
=
 OpenBabel11072410493D

 38 41  0  0  1  0  0  0  0  0999 V2000
  161.4640  210.6710  150.0880 C   0  0  0  0  0  0  0  0  0  0  0  0
  162.2410  211.4390  147.9000 O   0  0  0  0  0  1  0  0  0  0  0  0
  160.8430  210.9850  151.3070 C   0  0  0  0  0  3  0  0  0  0  0  0
  160.5280  213.2730  150.5960 C   0  0  0  0  0  3  0  0  0  0  0  0
  161.1460  212.9780  149.3790 C   0  0  0  0  0  3  0  0  0  0  0  0
  161.6200  211.6890  149.1200 C   0  0  0  0  0  0  0  0  0  0  0  0
  160.3810  212.2760  151.5680 C   0  0  0  0  0  0  0  0  0  0  0  0
  156.5800  213.9310  154.8380 C   0  0  0  0  0  1  0  0  0  0  0  0
  159.6970  212.5480  152.8670 C   0  0  2  0  0  3  0  0  0  0  0  0
  160.0230  211.4850  153.8710 C   0  0  0  0  0  3  0  0  0  0  0  0
  158.2610  212.2740  155.3170 N   0  0  0  0  0  0  0  0  0  0  0  0
  157.8920  212.6810  152.6560 S   0  0  0  0  0  0  0  0  0  0  0  0
  159.3520  211.3840  155.0240 C   0  0  0  0  0  0  0  0  0  0  0  0
  157.6150  212.9540  154.4140 C   0  0  0  0  0  0  0  0  0  0  0  0
  160.7290  208.1330  154.6180 C   0  0  0  0  0  2  0  0  0  0  0  0
  160.3290  209.1410  155.6420 N   0  0  0  0  0  0  0  0  0  0  0  0
  159.7680  210.3960  156.0350 C   0  0  0  0  0  0  0  0  0  0  0  0
  159.9230  206.9080  156.4140 N   0  0  0  0  0  1  0  0  0  0  0  0
  160.9500  207.8190  155.9420 C   0  0  1  0  0  3  0  0  0  0  0  0
  159.6430  210.6600  157.2610 O   0  0  0  0  0  0  0  0  0  0  0  0
  161.9640  209.2940  149.8860 C   0  0  0  0  0  0  0  0  0  0  0  0
  161.6020  208.5770  148.7030 N   0  0  0  0  0  2  0  0  0  0  0  0
  162.6790  208.7320  150.7600 O   0  0  0  0  0  0  0  0  0  0  0  0
  161.7690  207.1360  148.5760 C   0  0  2  0  0  3  0  0  0  0  0  0
  162.0340  206.7340  147.1270 C   0  0  0  0  0  2  0  0  0  0  0  0
  160.8060  206.3440  146.4540 N   0  0  0  0  0  2  0  0  0  0  0  0
  162.5390  205.2830  145.3270 O   0  0  0  0  0  1  0  0  0  0  0  0
  161.2000  205.6530  145.2390 C   0  0  0  0  0  2  0  0  0  0  0  0
  160.5980  206.3740  149.2130 C   0  0  0  0  0  2  0  0  0  0  0  0
  161.4420  205.6360  151.3070 O   0  0  0  0  0  0  0  0  0  0  0  0
  161.0300  205.2970  150.1670 C   0  0  0  0  0  0  0  0  0  0  0  0
  160.8150  201.5000  150.3410 C   0  0  0  0  0  3  0  0  0  0  0  0
  161.1780  202.1750  148.0450 C   0  0  0  0  0  3  0  0  0  0  0  0
  161.1950  203.5140  148.4430 C   0  0  0  0  0  3  0  0  0  0  0  0
  160.9830  201.1670  148.9930 C   0  0  0  0  0  3  0  0  0  0  0  0
  161.0150  203.8650  149.7920 C   0  0  0  0  0  0  0  0  0  0  0  0
  160.8340  202.8400  150.7460 C   0  0  0  0  0  0  0  0  0  0  0  0
  160.6950  203.1220  152.0640 F   0  0  0  0  0  0  0  0  0  0  0  0
  1  3  1  0  0  0  0
  2  6  1  0  0  0  0
  3  7  2  0  0  0  0
  4  7  1  0  0  0  0
  5  4  2  0  0  0  0
  6  5  1  0  0  0  0
  6  1  2  0  0  0  0
  9  7  1  6  0  0  0
  9 10  1  0  0  0  0
 10 13  2  0  0  0  0
 12  9  1  0  0  0  0
 12 14  1  0  0  0  0
 13 11  1  0  0  0  0
 13 17  1  0  0  0  0
 14  8  1  0  0  0  0
 14 11  2  0  0  0  0
 15 16  1  0  0  0  0
 15 19  1  0  0  0  0
 16 19  1  0  0  0  0
 16 17  1  0  0  0  0
 17 20  2  0  0  0  0
 19 18  1  1  0  0  0
 21  1  1  0  0  0  0
 21 23  2  0  0  0  0
 22 21  1  0  0  0  0
 24 25  1  6  0  0  0
 24 22  1  0  0  0  0
 24 29  1  0  0  0  0
 26 25  1  0  0  0  0
 28 27  1  0  0  0  0
 28 26  1  0  0  0  0
 29 31  1  0  0  0  0
 31 30  2  0  0  0  0
 32 37  1  0  0  0  0
 33 34  2  0  0  0  0
 33 35  1  0  0  0  0
 34 36  1  0  0  0  0
 35 32  2  0  0  0  0
 36 31  1  0  0  0  0
 36 37  2  0  0  0  0
 37 38  1  0  0  0  0
M  END
>  <MODEL>
2

>  <REMARK>
 VINA RESULT:      -8.3      2.671      4.685
  Name = 
  10 active torsions:
  status: ('A' for Active; 'I' for Inactive)
    1  A    between atoms: C_3  and  C_34
    2  A    between atoms: N_8  and  C_12
    3  A    between atoms: N_8  and  C_17
    4  A    between atoms: C_9  and  C_11
    5  A    between atoms: C_10  and  C_17
    6  A    between atoms: C_10  and  N_22
    7  A    between atoms: C_10  and  C_23
    8  A    between atoms: C_16  and  C_23
    9  A    between atoms: C_16  and  C_30
   10  A    between atoms: C_21  and  C_37
                            x       y       z     vdW  Elec       q    Type
                         _______ _______ _______ _____ _____    ______ ____

>  <TORSDO>
F 10

$$$$
=
 OpenBabel11072410493D

 38 41  0  0  1  0  0  0  0  0999 V2000
  161.2920  207.7690  152.8750 C   0  0  0  0  0  0  0  0  0  0  0  0
  161.2500  205.7510  154.2580 O   0  0  0  0  0  1  0  0  0  0  0  0
  161.0020  209.1370  152.7590 C   0  0  0  0  0  3  0  0  0  0  0  0
  160.1600  209.1860  155.0240 C   0  0  0  0  0  3  0  0  0  0  0  0
  160.4400  207.8240  155.1550 C   0  0  0  0  0  3  0  0  0  0  0  0
  160.9970  207.1090  154.0900 C   0  0  0  0  0  0  0  0  0  0  0  0
  160.4350  209.8460  153.8200 C   0  0  0  0  0  0  0  0  0  0  0  0
  159.4410  214.3810  151.3060 C   0  0  0  0  0  1  0  0  0  0  0  0
  160.1780  211.3070  153.6550 C   0  0  2  0  0  3  0  0  0  0  0  0
  159.3970  211.8420  154.8160 C   0  0  0  0  0  3  0  0  0  0  0  0
  158.9590  213.8860  153.6140 N   0  0  0  0  0  0  0  0  0  0  0  0
  159.3060  211.6600  152.0950 S   0  0  0  0  0  0  0  0  0  0  0  0
  158.8490  213.0620  154.7870 C   0  0  0  0  0  0  0  0  0  0  0  0
  159.2370  213.4280  152.4270 C   0  0  0  0  0  0  0  0  0  0  0  0
  155.6270  212.3610  156.1150 C   0  0  0  0  0  2  0  0  0  0  0  0
  156.8710  213.1510  156.3520 N   0  0  0  0  0  0  0  0  0  0  0  0
  158.1780  213.5980  155.9840 C   0  0  0  0  0  0  0  0  0  0  0  0
  154.9270  214.3500  157.0800 N   0  0  0  0  0  1  0  0  0  0  0  0
  155.6880  213.1270  157.2600 C   0  0  1  0  0  3  0  0  0  0  0  0
  158.7640  214.4510  156.7040 O   0  0  0  0  0  0  0  0  0  0  0  0
  161.8590  207.0670  151.7040 C   0  0  0  0  0  0  0  0  0  0  0  0
  161.1350  207.0530  150.4710 N   0  0  0  0  0  2  0  0  0  0  0  0
  162.9570  206.4530  151.7880 O   0  0  0  0  0  0  0  0  0  0  0  0
  161.4480  206.1310  149.3870 C   0  0  2  0  0  3  0  0  0  0  0  0
  161.5970  206.8680  148.0580 C   0  0  0  0  0  2  0  0  0  0  0  0
  160.5910  206.4390  147.1000 N   0  0  0  0  0  2  0  0  0  0  0  0
  160.4040  205.7890  144.8770 O   0  0  0  0  0  1  0  0  0  0  0  0
  161.3060  205.9950  145.9170 C   0  0  0  0  0  2  0  0  0  0  0  0
  160.4470  204.9690  149.3270 C   0  0  0  0  0  2  0  0  0  0  0  0
  161.5820  203.4340  150.7420 O   0  0  0  0  0  0  0  0  0  0  0  0
  161.0650  203.6290  149.6110 C   0  0  0  0  0  0  0  0  0  0  0  0
  161.2390  200.2100  147.9440 C   0  0  0  0  0  3  0  0  0  0  0  0
  161.0810  201.9220  146.2410 C   0  0  0  0  0  3  0  0  0  0  0  0
  161.0520  202.9060  147.2330 C   0  0  0  0  0  3  0  0  0  0  0  0
  161.1700  200.5740  146.5960 C   0  0  0  0  0  3  0  0  0  0  0  0
  161.1090  202.5550  148.5930 C   0  0  0  0  0  0  0  0  0  0  0  0
  161.2140  201.1920  148.9430 C   0  0  0  0  0  0  0  0  0  0  0  0
  161.3100  200.8030  150.2380 F   0  0  0  0  0  0  0  0  0  0  0  0
  1  6  1  0  0  0  0
  3  1  2  0  0  0  0
  3  7  1  0  0  0  0
  4  5  1  0  0  0  0
  6  2  1  0  0  0  0
  6  5  2  0  0  0  0
  7  4  2  0  0  0  0
  8 14  1  0  0  0  0
  9  7  1  1  0  0  0
  9 10  1  0  0  0  0
 11 13  1  0  0  0  0
 12 14  1  0  0  0  0
 12  9  1  0  0  0  0
 13 10  2  0  0  0  0
 13 17  1  0  0  0  0
 14 11  2  0  0  0  0
 15 16  1  0  0  0  0
 15 19  1  0  0  0  0
 16 19  1  0  0  0  0
 17 16  1  0  0  0  0
 17 20  2  0  0  0  0
 19 18  1  6  0  0  0
 21 23  2  0  0  0  0
 21  1  1  0  0  0  0
 22 21  1  0  0  0  0
 24 25  1  6  0  0  0
 24 22  1  0  0  0  0
 26 25  1  0  0  0  0
 27 28  1  0  0  0  0
 28 26  1  0  0  0  0
 29 24  1  0  0  0  0
 29 31  1  0  0  0  0
 31 30  2  0  0  0  0
 32 37  1  0  0  0  0
 33 35  1  0  0  0  0
 33 34  2  0  0  0  0
 34 36  1  0  0  0  0
 35 32  2  0  0  0  0
 36 37  2  0  0  0  0
 36 31  1  0  0  0  0
 37 38  1  0  0  0  0
M  END
>  <MODEL>
3

>  <REMARK>
 VINA RESULT:      -8.0      2.398      3.083
  Name = 
  10 active torsions:
  status: ('A' for Active; 'I' for Inactive)
    1  A    between atoms: C_3  and  C_34
    2  A    between atoms: N_8  and  C_12
    3  A    between atoms: N_8  and  C_17
    4  A    between atoms: C_9  and  C_11
    5  A    between atoms: C_10  and  C_17
    6  A    between atoms: C_10  and  N_22
    7  A    between atoms: C_10  and  C_23
    8  A    between atoms: C_16  and  C_23
    9  A    between atoms: C_16  and  C_30
   10  A    between atoms: C_21  and  C_37
                            x       y       z     vdW  Elec       q    Type
                         _______ _______ _______ _____ _____    ______ ____

>  <TORSDO>
F 10

$$$$
=
 OpenBabel11072410493D

 38 41  0  0  1  0  0  0  0  0999 V2000
  161.6010  207.0690  152.4400 C   0  0  0  0  0  0  0  0  0  0  0  0
  161.7860  204.6390  152.6580 O   0  0  0  0  0  1  0  0  0  0  0  0
  161.1700  208.2830  152.9970 C   0  0  0  0  0  3  0  0  0  0  0  0
  160.3640  207.1350  154.9650 C   0  0  0  0  0  3  0  0  0  0  0  0
  160.7840  205.9170  154.4240 C   0  0  0  0  0  3  0  0  0  0  0  0
  161.3940  205.8740  153.1670 C   0  0  0  0  0  0  0  0  0  0  0  0
  160.5510  208.3230  154.2470 C   0  0  0  0  0  0  0  0  0  0  0  0
  160.8310  212.6490  157.2600 C   0  0  0  0  0  1  0  0  0  0  0  0
  160.1440  209.6450  154.8090 C   0  0  2  0  0  3  0  0  0  0  0  0
  159.4770  210.4830  153.7620 C   0  0  0  0  0  3  0  0  0  0  0  0
  159.6480  212.4300  155.1740 N   0  0  0  0  0  0  0  0  0  0  0  0
  161.5660  210.5370  155.5170 S   0  0  0  0  0  0  0  0  0  0  0  0
  159.2340  211.7840  153.9590 C   0  0  0  0  0  0  0  0  0  0  0  0
  160.5630  211.9610  155.9730 C   0  0  0  0  0  0  0  0  0  0  0  0
  156.4760  213.9900  154.3530 C   0  0  0  0  0  2  0  0  0  0  0  0
  157.4080  213.4120  153.3420 N   0  0  0  0  0  0  0  0  0  0  0  0
  158.4830  212.5540  152.9520 C   0  0  0  0  0  0  0  0  0  0  0  0
  155.2170  213.7330  152.4230 N   0  0  0  0  0  1  0  0  0  0  0  0
  156.3390  214.4100  153.0480 C   0  0  1  0  0  3  0  0  0  0  0  0
  158.7950  212.4690  151.7340 O   0  0  0  0  0  0  0  0  0  0  0  0
  162.2170  207.0890  151.0960 C   0  0  0  0  0  0  0  0  0  0  0  0
  161.4430  207.5120  149.9710 N   0  0  0  0  0  2  0  0  0  0  0  0
  163.4070  206.7080  150.9260 O   0  0  0  0  0  0  0  0  0  0  0  0
  161.8520  207.2560  148.5960 C   0  0  2  0  0  3  0  0  0  0  0  0
  162.2010  208.5540  147.8710 C   0  0  0  0  0  2  0  0  0  0  0  0
  162.5970  209.5930  148.8080 N   0  0  0  0  0  2  0  0  0  0  0  0
  162.3610  211.8940  149.0260 O   0  0  0  0  0  1  0  0  0  0  0  0
  161.7540  210.7430  148.5310 C   0  0  0  0  0  2  0  0  0  0  0  0
  160.8180  206.4020  147.8490 C   0  0  0  0  0  2  0  0  0  0  0  0
  162.0190  205.1380  146.2360 O   0  0  0  0  0  0  0  0  0  0  0  0
  161.3750  205.1130  147.3170 C   0  0  0  0  0  0  0  0  0  0  0  0
  161.0080  201.3890  148.0240 C   0  0  0  0  0  3  0  0  0  0  0  0
  160.6880  202.6280  150.0790 C   0  0  0  0  0  3  0  0  0  0  0  0
  160.8890  203.8260  149.3870 C   0  0  0  0  0  3  0  0  0  0  0  0
  160.7520  201.4100  149.3990 C   0  0  0  0  0  3  0  0  0  0  0  0
  161.1590  203.8210  148.0080 C   0  0  0  0  0  0  0  0  0  0  0  0
  161.2070  202.5860  147.3250 C   0  0  0  0  0  0  0  0  0  0  0  0
  161.4260  202.5290  145.9890 F   0  0  0  0  0  0  0  0  0  0  0  0
  1  3  2  0  0  0  0
  1  6  1  0  0  0  0
  2  6  1  0  0  0  0
  3  7  1  0  0  0  0
  5  4  1  0  0  0  0
  6  5  2  0  0  0  0
  7  4  2  0  0  0  0
  9  7  1  6  0  0  0
  9 12  1  0  0  0  0
 10 13  2  0  0  0  0
 10  9  1  0  0  0  0
 11 14  2  0  0  0  0
 12 14  1  0  0  0  0
 13 11  1  0  0  0  0
 14  8  1  0  0  0  0
 16 15  1  0  0  0  0
 17 16  1  0  0  0  0
 17 13  1  0  0  0  0
 19 18  1  6  0  0  0
 19 16  1  0  0  0  0
 19 15  1  0  0  0  0
 20 17  2  0  0  0  0
 21  1  1  0  0  0  0
 22 21  1  0  0  0  0
 23 21  2  0  0  0  0
 24 29  1  6  0  0  0
 24 22  1  0  0  0  0
 25 24  1  0  0  0  0
 25 26  1  0  0  0  0
 28 26  1  0  0  0  0
 28 27  1  0  0  0  0
 30 31  2  0  0  0  0
 31 29  1  0  0  0  0
 31 36  1  0  0  0  0
 32 35  1  0  0  0  0
 34 33  1  0  0  0  0
 35 33  2  0  0  0  0
 36 34  2  0  0  0  0
 37 36  1  0  0  0  0
 37 32  2  0  0  0  0
 38 37  1  0  0  0  0
M  END
>  <MODEL>
4

>  <REMARK>
 VINA RESULT:      -7.9      1.882      2.880
  Name = 
  10 active torsions:
  status: ('A' for Active; 'I' for Inactive)
    1  A    between atoms: C_3  and  C_34
    2  A    between atoms: N_8  and  C_12
    3  A    between atoms: N_8  and  C_17
    4  A    between atoms: C_9  and  C_11
    5  A    between atoms: C_10  and  C_17
    6  A    between atoms: C_10  and  N_22
    7  A    between atoms: C_10  and  C_23
    8  A    between atoms: C_16  and  C_23
    9  A    between atoms: C_16  and  C_30
   10  A    between atoms: C_21  and  C_37
                            x       y       z     vdW  Elec       q    Type
                         _______ _______ _______ _____ _____    ______ ____

>  <TORSDO>
F 10

$$$$
=
 OpenBabel11072410493D

 38 41  0  0  1  0  0  0  0  0999 V2000
  160.9640  208.4350  152.9760 C   0  0  0  0  0  0  0  0  0  0  0  0
  160.7000  208.8070  155.3790 O   0  0  0  0  0  1  0  0  0  0  0  0
  161.1670  207.5220  151.9290 C   0  0  0  0  0  3  0  0  0  0  0  0
  161.1920  205.6810  153.4930 C   0  0  0  0  0  3  0  0  0  0  0  0
  160.9930  206.5760  154.5470 C   0  0  0  0  0  3  0  0  0  0  0  0
  160.8850  207.9480  154.3000 C   0  0  0  0  0  0  0  0  0  0  0  0
  161.2860  206.1550  152.1790 C   0  0  0  0  0  0  0  0  0  0  0  0
  161.0990  201.6190  149.4830 C   0  0  0  0  0  1  0  0  0  0  0  0
  161.4660  205.2240  151.0250 C   0  0  2  0  0  3  0  0  0  0  0  0
  161.2570  205.9420  149.7270 C   0  0  0  0  0  3  0  0  0  0  0  0
  161.1630  203.8380  148.5500 N   0  0  0  0  0  0  0  0  0  0  0  0
  160.3440  203.7930  151.1410 S   0  0  0  0  0  0  0  0  0  0  0  0
  161.1370  205.2760  148.5730 C   0  0  0  0  0  0  0  0  0  0  0  0
  160.9330  203.0900  149.5910 C   0  0  0  0  0  0  0  0  0  0  0  0
  160.7580  204.0770  145.2490 C   0  0  0  0  0  2  0  0  0  0  0  0
  160.8610  205.3220  146.0650 N   0  0  0  0  0  0  0  0  0  0  0  0
  161.0390  206.0150  147.3020 C   0  0  0  0  0  0  0  0  0  0  0  0
  161.9070  205.5960  143.9250 N   0  0  0  0  0  1  0  0  0  0  0  0
  160.6540  205.2830  144.5880 C   0  0  1  0  0  3  0  0  0  0  0  0
  161.0980  207.2740  147.3020 O   0  0  0  0  0  0  0  0  0  0  0  0
  160.8820  209.8750  152.6500 C   0  0  0  0  0  0  0  0  0  0  0  0
  160.2070  210.7640  153.5440 N   0  0  0  0  0  2  0  0  0  0  0  0
  161.3690  210.3230  151.5770 O   0  0  0  0  0  0  0  0  0  0  0  0
  159.7970  212.1070  153.1550 C   0  0  2  0  0  3  0  0  0  0  0  0
  159.3890  212.9360  154.3710 C   0  0  0  0  0  2  0  0  0  0  0  0
  157.9620  212.8280  154.6290 N   0  0  0  0  0  2  0  0  0  0  0  0
  156.8640  210.9450  155.4360 O   0  0  0  0  0  1  0  0  0  0  0  0
  157.8120  211.9160  155.7490 C   0  0  0  0  0  2  0  0  0  0  0  0
  158.7250  212.0730  152.0560 C   0  0  0  0  0  2  0  0  0  0  0  0
  159.9570  213.7860  150.9630 O   0  0  0  0  0  0  0  0  0  0  0  0
  158.8520  213.1900  151.0590 C   0  0  0  0  0  0  0  0  0  0  0  0
  156.6720  214.0480  148.0580 C   0  0  0  0  0  3  0  0  0  0  0  0
  155.4250  214.4530  150.0930 C   0  0  0  0  0  3  0  0  0  0  0  0
  156.5280  214.0440  150.8480 C   0  0  0  0  0  3  0  0  0  0  0  0
  155.4960  214.4520  148.6980 C   0  0  0  0  0  3  0  0  0  0  0  0
  157.7130  213.6250  150.2200 C   0  0  0  0  0  0  0  0  0  0  0  0
  157.7810  213.6400  148.8100 C   0  0  0  0  0  0  0  0  0  0  0  0
  158.9120  213.2820  148.1560 F   0  0  0  0  0  0  0  0  0  0  0  0
  1  6  1  0  0  0  0
  3  7  1  0  0  0  0
  3  1  2  0  0  0  0
  4  5  1  0  0  0  0
  6  5  2  0  0  0  0
  6  2  1  0  0  0  0
  7  4  2  0  0  0  0
  8 14  1  0  0  0  0
  9 12  1  0  0  0  0
  9  7  1  1  0  0  0
 10  9  1  0  0  0  0
 11 13  1  0  0  0  0
 11 14  2  0  0  0  0
 13 10  2  0  0  0  0
 14 12  1  0  0  0  0
 15 16  1  0  0  0  0
 16 17  1  0  0  0  0
 17 13  1  0  0  0  0
 19 18  1  6  0  0  0
 19 15  1  0  0  0  0
 19 16  1  0  0  0  0
 20 17  2  0  0  0  0
 21  1  1  0  0  0  0
 21 22  1  0  0  0  0
 23 21  2  0  0  0  0
 24 29  1  6  0  0  0
 24 22  1  0  0  0  0
 24 25  1  0  0  0  0
 25 26  1  0  0  0  0
 26 28  1  0  0  0  0
 27 28  1  0  0  0  0
 30 31  2  0  0  0  0
 31 29  1  0  0  0  0
 32 35  2  0  0  0  0
 32 37  1  0  0  0  0
 33 34  2  0  0  0  0
 35 33  1  0  0  0  0
 36 34  1  0  0  0  0
 36 31  1  0  0  0  0
 37 36  2  0  0  0  0
 38 37  1  0  0  0  0
M  END
>  <MODEL>
5

>  <REMARK>
 VINA RESULT:      -7.9      3.345      9.982
  Name = 
  10 active torsions:
  status: ('A' for Active; 'I' for Inactive)
    1  A    between atoms: C_3  and  C_34
    2  A    between atoms: N_8  and  C_12
    3  A    between atoms: N_8  and  C_17
    4  A    between atoms: C_9  and  C_11
    5  A    between atoms: C_10  and  C_17
    6  A    between atoms: C_10  and  N_22
    7  A    between atoms: C_10  and  C_23
    8  A    between atoms: C_16  and  C_23
    9  A    between atoms: C_16  and  C_30
   10  A    between atoms: C_21  and  C_37
                            x       y       z     vdW  Elec       q    Type
                         _______ _______ _______ _____ _____    ______ ____

>  <TORSDO>
F 10

$$$$
=
 OpenBabel11072410493D

 38 41  0  0  1  0  0  0  0  0999 V2000
  160.9850  208.4170  152.9600 C   0  0  0  0  0  0  0  0  0  0  0  0
  160.7930  208.8170  155.3660 O   0  0  0  0  0  1  0  0  0  0  0  0
  161.1720  207.4930  151.9190 C   0  0  0  0  0  3  0  0  0  0  0  0
  161.2860  205.6750  153.5070 C   0  0  0  0  0  3  0  0  0  0  0  0
  161.1040  206.5810  154.5550 C   0  0  0  0  0  3  0  0  0  0  0  0
  160.9600  207.9470  154.2930 C   0  0  0  0  0  0  0  0  0  0  0  0
  161.3270  206.1320  152.1840 C   0  0  0  0  0  0  0  0  0  0  0  0
  161.0940  201.5670  149.5420 C   0  0  0  0  0  1  0  0  0  0  0  0
  161.4880  205.1880  151.0380 C   0  0  2  0  0  3  0  0  0  0  0  0
  161.2590  205.8920  149.7360 C   0  0  0  0  0  3  0  0  0  0  0  0
  161.1440  203.7760  148.5840 N   0  0  0  0  0  0  0  0  0  0  0  0
  160.3680  203.7590  151.1870 S   0  0  0  0  0  0  0  0  0  0  0  0
  161.1190  205.2140  148.5910 C   0  0  0  0  0  0  0  0  0  0  0  0
  160.9310  203.0400  149.6370 C   0  0  0  0  0  0  0  0  0  0  0  0
  160.9280  203.9780  145.2640 C   0  0  0  0  0  2  0  0  0  0  0  0
  160.9120  205.2300  146.0760 N   0  0  0  0  0  0  0  0  0  0  0  0
  161.0010  205.9390  147.3140 C   0  0  0  0  0  0  0  0  0  0  0  0
  161.9940  205.5760  143.9650 N   0  0  0  0  0  1  0  0  0  0  0  0
  160.7510  205.1710  144.5950 C   0  0  1  0  0  3  0  0  0  0  0  0
  160.9630  207.1990  147.3090 O   0  0  0  0  0  0  0  0  0  0  0  0
  160.8630  209.8500  152.6170 C   0  0  0  0  0  0  0  0  0  0  0  0
  160.1480  210.7270  153.4920 N   0  0  0  0  0  2  0  0  0  0  0  0
  161.3510  210.3010  151.5460 O   0  0  0  0  0  0  0  0  0  0  0  0
  159.7020  212.0520  153.0830 C   0  0  2  0  0  3  0  0  0  0  0  0
  159.5490  212.9810  154.2860 C   0  0  0  0  0  2  0  0  0  0  0  0
  158.6270  212.4300  155.2650 N   0  0  0  0  0  2  0  0  0  0  0  0
  156.4320  213.1310  154.9630 O   0  0  0  0  0  1  0  0  0  0  0  0
  157.6510  213.4680  155.5460 C   0  0  0  0  0  2  0  0  0  0  0  0
  158.4420  211.9780  152.2090 C   0  0  0  0  0  2  0  0  0  0  0  0
  157.4840  214.1410  151.9870 O   0  0  0  0  0  0  0  0  0  0  0  0
  158.1710  213.2390  151.4390 C   0  0  0  0  0  0  0  0  0  0  0  0
  158.2930  213.6410  147.6550 C   0  0  0  0  0  3  0  0  0  0  0  0
  160.5370  213.7980  148.5480 C   0  0  0  0  0  3  0  0  0  0  0  0
  160.0360  213.6030  149.8380 C   0  0  0  0  0  3  0  0  0  0  0  0
  159.6660  213.8210  147.4560 C   0  0  0  0  0  3  0  0  0  0  0  0
  158.6590  213.4320  150.0550 C   0  0  0  0  0  0  0  0  0  0  0  0
  157.7860  213.4420  148.9450 C   0  0  0  0  0  0  0  0  0  0  0  0
  156.4540  213.2440  149.0950 F   0  0  0  0  0  0  0  0  0  0  0  0
  1  6  1  0  0  0  0
  3  7  1  0  0  0  0
  3  1  2  0  0  0  0
  4  5  1  0  0  0  0
  6  5  2  0  0  0  0
  6  2  1  0  0  0  0
  7  4  2  0  0  0  0
  8 14  1  0  0  0  0
  9 12  1  0  0  0  0
  9  7  1  1  0  0  0
 10  9  1  0  0  0  0
 11 13  1  0  0  0  0
 11 14  2  0  0  0  0
 13 10  2  0  0  0  0
 14 12  1  0  0  0  0
 15 16  1  0  0  0  0
 16 17  1  0  0  0  0
 17 13  1  0  0  0  0
 19 18  1  6  0  0  0
 19 15  1  0  0  0  0
 19 16  1  0  0  0  0
 20 17  2  0  0  0  0
 21  1  1  0  0  0  0
 21 22  1  0  0  0  0
 23 21  2  0  0  0  0
 24 29  1  1  0  0  0
 24 22  1  0  0  0  0
 24 25  1  0  0  0  0
 25 26  1  0  0  0  0
 26 28  1  0  0  0  0
 27 28  1  0  0  0  0
 31 30  2  0  0  0  0
 31 29  1  0  0  0  0
 32 37  1  0  0  0  0
 33 34  2  0  0  0  0
 34 36  1  0  0  0  0
 35 32  2  0  0  0  0
 35 33  1  0  0  0  0
 36 31  1  0  0  0  0
 37 38  1  0  0  0  0
 37 36  2  0  0  0  0
M  END
>  <MODEL>
6

>  <REMARK>
 VINA RESULT:      -7.9      3.506      9.884
  Name = 
  10 active torsions:
  status: ('A' for Active; 'I' for Inactive)
    1  A    between atoms: C_3  and  C_34
    2  A    between atoms: N_8  and  C_12
    3  A    between atoms: N_8  and  C_17
    4  A    between atoms: C_9  and  C_11
    5  A    between atoms: C_10  and  C_17
    6  A    between atoms: C_10  and  N_22
    7  A    between atoms: C_10  and  C_23
    8  A    between atoms: C_16  and  C_23
    9  A    between atoms: C_16  and  C_30
   10  A    between atoms: C_21  and  C_37
                            x       y       z     vdW  Elec       q    Type
                         _______ _______ _______ _____ _____    ______ ____

>  <TORSDO>
F 10

$$$$
=
 OpenBabel11072410493D

 38 41  0  0  1  0  0  0  0  0999 V2000
  161.8390  209.0270  150.0150 C   0  0  0  0  0  0  0  0  0  0  0  0
  162.5230  210.7510  148.4200 O   0  0  0  0  0  1  0  0  0  0  0  0
  161.2720  208.7170  151.2620 C   0  0  0  0  0  3  0  0  0  0  0  0
  160.9340  211.0640  151.7290 C   0  0  0  0  0  3  0  0  0  0  0  0
  161.4970  211.3900  150.4930 C   0  0  0  0  0  3  0  0  0  0  0  0
  161.9560  210.3840  149.6370 C   0  0  0  0  0  0  0  0  0  0  0  0
  160.8260  209.7230  152.1190 C   0  0  0  0  0  0  0  0  0  0  0  0
  160.0810  206.9610  156.5570 C   0  0  0  0  0  1  0  0  0  0  0  0
  160.2000  209.3380  153.4190 C   0  0  2  0  0  3  0  0  0  0  0  0
  159.7220  210.5510  154.1570 C   0  0  0  0  0  3  0  0  0  0  0  0
  159.4180  209.2420  156.1610 N   0  0  0  0  0  0  0  0  0  0  0  0
  161.3520  208.3820  154.4580 S   0  0  0  0  0  0  0  0  0  0  0  0
  159.3400  210.4830  155.4380 C   0  0  0  0  0  0  0  0  0  0  0  0
  160.1640  208.2370  155.8020 C   0  0  0  0  0  0  0  0  0  0  0  0
  155.9680  211.5710  155.7090 C   0  0  0  0  0  2  0  0  0  0  0  0
  157.3660  211.9030  156.1110 N   0  0  0  0  0  0  0  0  0  0  0  0
  158.7760  211.6700  156.1030 C   0  0  0  0  0  0  0  0  0  0  0  0
  156.0800  213.8870  155.7150 N   0  0  0  0  0  1  0  0  0  0  0  0
  156.1550  212.6760  156.5120 C   0  0  1  0  0  3  0  0  0  0  0  0
  159.5400  212.4870  156.6850 O   0  0  0  0  0  0  0  0  0  0  0  0
  162.3250  207.9170  149.1670 C   0  0  0  0  0  0  0  0  0  0  0  0
  161.5400  207.4830  148.0540 N   0  0  0  0  0  2  0  0  0  0  0  0
  163.4080  207.3280  149.4330 O   0  0  0  0  0  0  0  0  0  0  0  0
  161.7710  206.2130  147.3780 C   0  0  2  0  0  3  0  0  0  0  0  0
  161.9560  206.4110  145.8750 C   0  0  0  0  0  2  0  0  0  0  0  0
  160.7440  206.0790  145.1450 N   0  0  0  0  0  2  0  0  0  0  0  0
  160.4560  203.8620  144.5110 O   0  0  0  0  0  1  0  0  0  0  0  0
  161.1060  205.0500  144.1860 C   0  0  0  0  0  2  0  0  0  0  0  0
  160.6860  205.1840  147.7250 C   0  0  0  0  0  2  0  0  0  0  0  0
  161.7170  203.0460  147.8290 O   0  0  0  0  0  0  0  0  0  0  0  0
  161.2060  203.9940  148.4810 C   0  0  0  0  0  0  0  0  0  0  0  0
  160.8260  202.6190  152.0110 C   0  0  0  0  0  3  0  0  0  0  0  0
  161.1260  205.0190  152.1160 C   0  0  0  0  0  3  0  0  0  0  0  0
  161.2060  205.0690  150.7210 C   0  0  0  0  0  3  0  0  0  0  0  0
  160.9400  203.7940  152.7610 C   0  0  0  0  0  3  0  0  0  0  0  0
  161.1050  203.8960  149.9540 C   0  0  0  0  0  0  0  0  0  0  0  0
  160.9030  202.6640  150.6130 C   0  0  0  0  0  0  0  0  0  0  0  0
  160.7610  201.5090  149.9180 F   0  0  0  0  0  0  0  0  0  0  0  0
  1  3  1  0  0  0  0
  2  6  1  0  0  0  0
  3  7  2  0  0  0  0
  4  7  1  0  0  0  0
  5  4  2  0  0  0  0
  6  1  2  0  0  0  0
  6  5  1  0  0  0  0
  9  7  1  6  0  0  0
  9 10  1  0  0  0  0
  9 12  1  0  0  0  0
 10 13  2  0  0  0  0
 12 14  1  0  0  0  0
 13 17  1  0  0  0  0
 13 11  1  0  0  0  0
 14 11  2  0  0  0  0
 14  8  1  0  0  0  0
 15 16  1  0  0  0  0
 15 19  1  0  0  0  0
 16 19  1  0  0  0  0
 17 16  1  0  0  0  0
 17 20  2  0  0  0  0
 19 18  1  6  0  0  0
 21 23  2  0  0  0  0
 21  1  1  0  0  0  0
 22 21  1  0  0  0  0
 24 25  1  6  0  0  0
 24 29  1  0  0  0  0
 24 22  1  0  0  0  0
 26 25  1  0  0  0  0
 28 27  1  0  0  0  0
 28 26  1  0  0  0  0
 29 31  1  0  0  0  0
 30 31  2  0  0  0  0
 31 36  1  0  0  0  0
 32 35  1  0  0  0  0
 33 35  2  0  0  0  0
 34 33  1  0  0  0  0
 36 37  1  0  0  0  0
 36 34  2  0  0  0  0
 37 32  2  0  0  0  0
 38 37  1  0  0  0  0
M  END
>  <MODEL>
7

>  <REMARK>
 VINA RESULT:      -7.6      2.730      4.038
  Name = 
  10 active torsions:
  status: ('A' for Active; 'I' for Inactive)
    1  A    between atoms: C_3  and  C_34
    2  A    between atoms: N_8  and  C_12
    3  A    between atoms: N_8  and  C_17
    4  A    between atoms: C_9  and  C_11
    5  A    between atoms: C_10  and  C_17
    6  A    between atoms: C_10  and  N_22
    7  A    between atoms: C_10  and  C_23
    8  A    between atoms: C_16  and  C_23
    9  A    between atoms: C_16  and  C_30
   10  A    between atoms: C_21  and  C_37
                            x       y       z     vdW  Elec       q    Type
                         _______ _______ _______ _____ _____    ______ ____

>  <TORSDO>
F 10

$$$$
=
 OpenBabel11072410493D

 38 41  0  0  1  0  0  0  0  0999 V2000
  161.1570  207.8520  153.0750 C   0  0  0  0  0  0  0  0  0  0  0  0
  161.2060  205.7860  154.3830 O   0  0  0  0  0  1  0  0  0  0  0  0
  160.8080  209.2110  153.0100 C   0  0  0  0  0  3  0  0  0  0  0  0
  159.9750  209.1410  155.2780 C   0  0  0  0  0  3  0  0  0  0  0  0
  160.3130  207.7880  155.3580 C   0  0  0  0  0  3  0  0  0  0  0  0
  160.8950  207.1370  154.2660 C   0  0  0  0  0  0  0  0  0  0  0  0
  160.2170  209.8550  154.0980 C   0  0  0  0  0  0  0  0  0  0  0  0
  159.1150  214.4530  151.7490 C   0  0  0  0  0  1  0  0  0  0  0  0
  159.8970  211.3100  153.9880 C   0  0  2  0  0  3  0  0  0  0  0  0
  159.0430  211.7530  155.1360 C   0  0  0  0  0  3  0  0  0  0  0  0
  158.5600  213.8290  154.0080 N   0  0  0  0  0  0  0  0  0  0  0  0
  159.0770  211.6950  152.4080 S   0  0  0  0  0  0  0  0  0  0  0  0
  158.4400  212.9470  155.1370 C   0  0  0  0  0  0  0  0  0  0  0  0
  158.9100  213.4410  152.8150 C   0  0  0  0  0  0  0  0  0  0  0  0
  155.0270  212.4800  156.0120 C   0  0  0  0  0  2  0  0  0  0  0  0
  156.3120  213.0690  156.4880 N   0  0  0  0  0  0  0  0  0  0  0  0
  157.6940  213.3950  156.3260 C   0  0  0  0  0  0  0  0  0  0  0  0
  154.4380  214.3910  157.1850 N   0  0  0  0  0  1  0  0  0  0  0  0
  155.0340  213.0700  157.2580 C   0  0  1  0  0  3  0  0  0  0  0  0
  158.2810  214.0620  157.2200 O   0  0  0  0  0  0  0  0  0  0  0  0
  161.7480  207.2190  151.8770 C   0  0  0  0  0  0  0  0  0  0  0  0
  161.9540  207.9970  150.6960 N   0  0  0  0  0  2  0  0  0  0  0  0
  162.0410  205.9930  151.8740 O   0  0  0  0  0  0  0  0  0  0  0  0
  162.2150  207.3960  149.3950 C   0  0  2  0  0  3  0  0  0  0  0  0
  162.5800  208.4550  148.3570 C   0  0  0  0  0  2  0  0  0  0  0  0
  161.6150  209.5430  148.3510 N   0  0  0  0  0  2  0  0  0  0  0  0
  162.2210  211.7580  147.9920 O   0  0  0  0  0  1  0  0  0  0  0  0
  162.2960  210.7040  148.8980 C   0  0  0  0  0  2  0  0  0  0  0  0
  161.0600  206.4860  148.9520 C   0  0  0  0  0  2  0  0  0  0  0  0
  162.1130  205.4220  147.1070 O   0  0  0  0  0  0  0  0  0  0  0  0
  161.5120  205.2650  148.2020 C   0  0  0  0  0  0  0  0  0  0  0  0
  161.1250  201.4820  148.3890 C   0  0  0  0  0  3  0  0  0  0  0  0
  160.5680  202.4490  150.5360 C   0  0  0  0  0  3  0  0  0  0  0  0
  160.8250  203.7250  150.0270 C   0  0  0  0  0  3  0  0  0  0  0  0
  160.7220  201.3270  149.7190 C   0  0  0  0  0  3  0  0  0  0  0  0
  161.2410  203.8960  148.6960 C   0  0  0  0  0  0  0  0  0  0  0  0
  161.3800  202.7580  147.8720 C   0  0  0  0  0  0  0  0  0  0  0  0
  161.7420  202.8710  146.5710 F   0  0  0  0  0  0  0  0  0  0  0  0
  1  6  1  0  0  0  0
  3  1  2  0  0  0  0
  3  7  1  0  0  0  0
  4  5  1  0  0  0  0
  6  2  1  0  0  0  0
  6  5  2  0  0  0  0
  7  4  2  0  0  0  0
  8 14  1  0  0  0  0
  9  7  1  1  0  0  0
  9 10  1  0  0  0  0
 10 13  2  0  0  0  0
 11 13  1  0  0  0  0
 12 14  1  0  0  0  0
 12  9  1  0  0  0  0
 13 17  1  0  0  0  0
 14 11  2  0  0  0  0
 15 16  1  0  0  0  0
 15 19  1  0  0  0  0
 16 19  1  0  0  0  0
 17 16  1  0  0  0  0
 17 20  2  0  0  0  0
 19 18  1  6  0  0  0
 21  1  1  0  0  0  0
 22 21  1  0  0  0  0
 23 21  2  0  0  0  0
 24 25  1  6  0  0  0
 24 22  1  0  0  0  0
 26 25  1  0  0  0  0
 26 28  1  0  0  0  0
 27 28  1  0  0  0  0
 29 24  1  0  0  0  0
 30 31  2  0  0  0  0
 31 36  1  0  0  0  0
 31 29  1  0  0  0  0
 32 35  1  0  0  0  0
 34 33  1  0  0  0  0
 35 33  2  0  0  0  0
 36 34  2  0  0  0  0
 37 32  2  0  0  0  0
 37 36  1  0  0  0  0
 38 37  1  0  0  0  0
M  END
>  <MODEL>
8

>  <REMARK>
 VINA RESULT:      -7.4      2.854      4.044
  Name = 
  10 active torsions:
  status: ('A' for Active; 'I' for Inactive)
    1  A    between atoms: C_3  and  C_34
    2  A    between atoms: N_8  and  C_12
    3  A    between atoms: N_8  and  C_17
    4  A    between atoms: C_9  and  C_11
    5  A    between atoms: C_10  and  C_17
    6  A    between atoms: C_10  and  N_22
    7  A    between atoms: C_10  and  C_23
    8  A    between atoms: C_16  and  C_23
    9  A    between atoms: C_16  and  C_30
   10  A    between atoms: C_21  and  C_37
                            x       y       z     vdW  Elec       q    Type
                         _______ _______ _______ _____ _____    ______ ____

>  <TORSDO>
F 10

$$$$
=
 OpenBabel11072410493D

 38 41  0  0  1  0  0  0  0  0999 V2000
  161.8120  209.4260  151.0880 C   0  0  0  0  0  0  0  0  0  0  0  0
  162.0230  211.4020  149.6620 O   0  0  0  0  0  1  0  0  0  0  0  0
  161.7450  208.0260  151.1790 C   0  0  0  0  0  3  0  0  0  0  0  0
  161.9980  207.8250  148.7840 C   0  0  0  0  0  3  0  0  0  0  0  0
  162.0630  209.2160  148.6760 C   0  0  0  0  0  3  0  0  0  0  0  0
  161.9660  210.0200  149.8150 C   0  0  0  0  0  0  0  0  0  0  0  0
  161.8310  207.2260  150.0390 C   0  0  0  0  0  0  0  0  0  0  0  0
  160.8410  202.5800  152.3430 C   0  0  0  0  0  1  0  0  0  0  0  0
  161.7890  205.7410  150.1950 C   0  0  2  0  0  3  0  0  0  0  0  0
  161.5510  205.0760  148.8740 C   0  0  0  0  0  3  0  0  0  0  0  0
  161.0910  202.9840  149.9820 N   0  0  0  0  0  0  0  0  0  0  0  0
  160.5150  205.2320  151.3940 S   0  0  0  0  0  0  0  0  0  0  0  0
  161.2440  203.7770  148.7920 C   0  0  0  0  0  0  0  0  0  0  0  0
  160.8680  203.4820  151.1640 C   0  0  0  0  0  0  0  0  0  0  0  0
  161.5360  205.1540  145.5290 C   0  0  0  0  0  2  0  0  0  0  0  0
  161.3040  203.8810  146.2710 N   0  0  0  0  0  0  0  0  0  0  0  0
  161.1210  203.1300  147.4740 C   0  0  0  0  0  0  0  0  0  0  0  0
  160.0580  203.9330  144.2240 N   0  0  0  0  0  1  0  0  0  0  0  0
  161.3950  204.0000  144.7880 C   0  0  1  0  0  3  0  0  0  0  0  0
  160.8650  201.8980  147.4000 O   0  0  0  0  0  0  0  0  0  0  0  0
  161.6790  210.2190  152.3280 C   0  0  0  0  0  0  0  0  0  0  0  0
  160.4060  210.7620  152.6870 N   0  0  0  0  0  2  0  0  0  0  0  0
  162.6820  210.4520  153.0570 O   0  0  0  0  0  0  0  0  0  0  0  0
  160.2510  211.8070  153.6890 C   0  0  2  0  0  3  0  0  0  0  0  0
  160.3660  211.2410  155.1030 C   0  0  0  0  0  2  0  0  0  0  0  0
  159.5370  210.0580  155.2670 N   0  0  0  0  0  2  0  0  0  0  0  0
  160.7220  208.0950  154.8900 O   0  0  0  0  0  1  0  0  0  0  0  0
  160.3840  209.0370  155.8580 C   0  0  0  0  0  2  0  0  0  0  0  0
  158.9680  212.6200  153.4640 C   0  0  0  0  0  2  0  0  0  0  0  0
  159.9760  213.5500  151.5230 O   0  0  0  0  0  0  0  0  0  0  0  0
  158.8980  213.2680  152.1100 C   0  0  0  0  0  0  0  0  0  0  0  0
  155.3230  214.4530  151.5520 C   0  0  0  0  0  3  0  0  0  0  0  0
  156.2590  213.7180  149.4450 C   0  0  0  0  0  3  0  0  0  0  0  0
  157.4580  213.4000  150.0900 C   0  0  0  0  0  3  0  0  0  0  0  0
  155.1930  214.2490  150.1750 C   0  0  0  0  0  3  0  0  0  0  0  0
  157.6080  213.6100  151.4710 C   0  0  0  0  0  0  0  0  0  0  0  0
  156.5200  214.1330  152.2040 C   0  0  0  0  0  0  0  0  0  0  0  0
  156.6000  214.3190  153.5440 F   0  0  0  0  0  0  0  0  0  0  0  0
  1  3  1  0  0  0  0
  1 21  1  0  0  0  0
  2  6  1  0  0  0  0
  4  7  1  0  0  0  0
  5  4  2  0  0  0  0
  5  6  1  0  0  0  0
  6  1  2  0  0  0  0
  7  3  2  0  0  0  0
  9  7  1  6  0  0  0
  9 12  1  0  0  0  0
 10  9  1  0  0  0  0
 11 14  2  0  0  0  0
 13 10  2  0  0  0  0
 13 11  1  0  0  0  0
 14 12  1  0  0  0  0
 14  8  1  0  0  0  0
 15 16  1  0  0  0  0
 16 17  1  0  0  0  0
 17 13  1  0  0  0  0
 19 18  1  6  0  0  0
 19 15  1  0  0  0  0
 19 16  1  0  0  0  0
 20 17  2  0  0  0  0
 21 22  1  0  0  0  0
 21 23  2  0  0  0  0
 22 24  1  0  0  0  0
 24 29  1  1  0  0  0
 24 25  1  0  0  0  0
 25 26  1  0  0  0  0
 26 28  1  0  0  0  0
 27 28  1  0  0  0  0
 30 31  2  0  0  0  0
 31 29  1  0  0  0  0
 32 37  1  0  0  0  0
 33 34  2  0  0  0  0
 33 35  1  0  0  0  0
 34 36  1  0  0  0  0
 35 32  2  0  0  0  0
 36 31  1  0  0  0  0
 36 37  2  0  0  0  0
 37 38  1  0  0  0  0
M  END
>  <MODEL>
9

>  <REMARK>
 VINA RESULT:      -7.1      3.724     10.304
  Name = 
  10 active torsions:
  status: ('A' for Active; 'I' for Inactive)
    1  A    between atoms: C_3  and  C_34
    2  A    between atoms: N_8  and  C_12
    3  A    between atoms: N_8  and  C_17
    4  A    between atoms: C_9  and  C_11
    5  A    between atoms: C_10  and  C_17
    6  A    between atoms: C_10  and  N_22
    7  A    between atoms: C_10  and  C_23
    8  A    between atoms: C_16  and  C_23
    9  A    between atoms: C_16  and  C_30
   10  A    between atoms: C_21  and  C_37
                            x       y       z     vdW  Elec       q    Type
                         _______ _______ _______ _____ _____    ______ ____

>  <TORSDO>
F 10

$$$$
