=
 OpenBabel11072411193D

 28 30  0  0  1  0  0  0  0  0999 V2000
  161.3040  205.1560  149.8310 C   0  0  1  0  0  3  0  0  0  0  0  0
  161.1310  204.3960  152.6860 C   0  0  0  0  0  2  0  0  0  0  0  0
  160.1430  205.8060  149.3990 O   0  0  0  0  0  1  0  0  0  0  0  0
  160.8060  203.4440  151.5670 C   0  0  0  0  0  3  0  0  0  0  0  0
  161.9810  205.9560  150.9560 C   0  0  2  0  0  3  0  0  0  0  0  0
  161.1510  205.8500  152.2260 C   0  0  0  0  0  2  0  0  0  0  0  0
  160.9540  203.7480  150.2660 C   0  0  0  0  0  0  0  0  0  0  0  0
  160.6610  202.7190  149.2460 C   0  0  0  0  0  0  0  0  0  0  0  0
  159.8560  201.7820  149.4990 O   0  0  0  0  0  0  0  0  0  0  0  0
  161.2960  202.7740  147.8940 C   0  0  0  0  0  2  0  0  0  0  0  0
  160.7520  201.7280  147.0400 N   0  0  0  0  0  2  0  0  0  0  0  0
  161.0020  202.1050  145.6540 C   0  0  1  0  0  3  0  0  0  0  0  0
  159.8240  202.0010  144.9100 O   0  0  0  0  0  1  0  0  0  0  0  0
  161.5540  203.4590  145.5640 N   0  0  0  0  0  2  0  0  0  0  0  0
  160.7550  204.2660  144.6490 C   0  0  0  0  0  2  0  0  0  0  0  0
  161.1420  205.7230  144.7920 C   0  0  1  0  0  3  0  0  0  0  0  0
  160.3770  206.3400  145.8950 C   0  0  0  0  0  2  0  0  0  0  0  0
  161.7100  205.9210  146.0620 O   0  0  0  0  0  0  0  0  0  0  0  0
  162.1860  207.4180  150.5810 C   0  0  0  0  0  2  0  0  0  0  0  0
  161.6530  209.7210  151.5030 C   0  0  0  0  0  0  0  0  0  0  0  0
  162.0980  210.2700  150.4590 O   0  0  0  0  0  0  0  0  0  0  0  0
  161.6770  208.2950  151.6270 N   0  0  0  0  0  2  0  0  0  0  0  0
  161.5510  210.3500  153.9150 C   0  0  0  0  0  3  0  0  0  0  0  0
  160.1590  211.5410  152.3330 C   0  0  0  0  0  3  0  0  0  0  0  0
  160.0970  212.1280  154.6810 C   0  0  0  0  0  3  0  0  0  0  0  0
  159.6540  212.3290  153.3720 C   0  0  0  0  0  3  0  0  0  0  0  0
  161.1130  210.5470  152.5980 C   0  0  0  0  0  0  0  0  0  0  0  0
  161.0460  211.1380  154.9540 C   0  0  0  0  0  3  0  0  0  0  0  0
  1  3  1  1  0  0  0
  1  7  1  0  0  0  0
  1  5  1  0  0  0  0
  4  2  1  0  0  0  0
  5 19  1  6  0  0  0
  5  6  1  0  0  0  0
  6  2  1  0  0  0  0
  7  4  2  0  0  0  0
  8  9  2  0  0  0  0
  8  7  1  0  0  0  0
 10  8  1  0  0  0  0
 11 10  1  0  0  0  0
 12 13  1  6  0  0  0
 12 11  1  0  0  0  0
 14 12  1  0  0  0  0
 15 14  1  0  0  0  0
 16 15  1  1  0  0  0
 16 17  1  0  0  0  0
 16 18  1  0  0  0  0
 17 18  1  0  0  0  0
 19 22  1  0  0  0  0
 20 22  1  0  0  0  0
 20 27  1  0  0  0  0
 21 20  2  0  0  0  0
 23 28  1  0  0  0  0
 24 27  1  0  0  0  0
 24 26  2  0  0  0  0
 25 28  2  0  0  0  0
 26 25  1  0  0  0  0
 27 23  2  0  0  0  0
M  END
>  <MODEL>
1

>  <REMARK>
 VINA RESULT:      -7.8      0.000      0.000
  Name = 
  10 active torsions:
  status: ('A' for Active; 'I' for Inactive)
    1  A    between atoms: N_1  and  C_18
    2  A    between atoms: N_1  and  C_22
    3  A    between atoms: C_2  and  C_16
    4  A    between atoms: C_2  and  N_28
    5  A    between atoms: C_3  and  C_19
    6  A    between atoms: C_3  and  C_20
    7  A    between atoms: C_8  and  C_22
    8  A    between atoms: C_9  and  C_15
    9  A    between atoms: C_18  and  N_26
   10  A    between atoms: C_20  and  N_26
                            x       y       z     vdW  Elec       q    Type
                         _______ _______ _______ _____ _____    ______ ____

>  <TORSDO>
F 10

$$$$
=
 OpenBabel11072411193D

 28 30  0  0  1  0  0  0  0  0999 V2000
  161.0530  209.2980  152.0310 C   0  0  1  0  0  3  0  0  0  0  0  0
  160.8720  207.3380  154.2390 C   0  0  0  0  0  2  0  0  0  0  0  0
  162.3810  209.6380  151.7500 O   0  0  0  0  0  1  0  0  0  0  0  0
  160.7190  208.8200  154.4500 C   0  0  0  0  0  3  0  0  0  0  0  0
  160.8240  207.7960  151.8040 C   0  0  2  0  0  3  0  0  0  0  0  0
  161.5180  207.0030  152.9000 C   0  0  0  0  0  2  0  0  0  0  0  0
  160.7220  209.7160  153.4480 C   0  0  0  0  0  0  0  0  0  0  0  0
  160.5060  211.1460  153.7580 C   0  0  0  0  0  0  0  0  0  0  0  0
  160.7450  211.5910  154.9130 O   0  0  0  0  0  0  0  0  0  0  0  0
  160.0180  212.0940  152.7110 C   0  0  0  0  0  2  0  0  0  0  0  0
  158.5640  212.0720  152.6500 N   0  0  0  0  0  2  0  0  0  0  0  0
  158.0770  213.3810  153.0680 C   0  0  1  0  0  3  0  0  0  0  0  0
  157.0330  213.7910  152.2350 O   0  0  0  0  0  1  0  0  0  0  0  0
  157.6460  213.3650  154.4680 N   0  0  0  0  0  2  0  0  0  0  0  0
  156.2730  212.8840  154.5650 C   0  0  0  0  0  2  0  0  0  0  0  0
  156.1660  211.8880  155.7010 C   0  0  1  0  0  3  0  0  0  0  0  0
  155.6720  210.5930  155.1900 C   0  0  0  0  0  2  0  0  0  0  0  0
  157.0370  210.8130  155.4490 O   0  0  0  0  0  0  0  0  0  0  0  0
  161.3100  207.3390  150.4340 C   0  0  0  0  0  2  0  0  0  0  0  0
  160.9890  205.1940  149.1180 C   0  0  0  0  0  0  0  0  0  0  0  0
  160.7240  205.8450  148.0720 O   0  0  0  0  0  0  0  0  0  0  0  0
  161.2840  205.8860  150.3370 N   0  0  0  0  0  2  0  0  0  0  0  0
  161.1880  203.0360  147.8810 C   0  0  0  0  0  3  0  0  0  0  0  0
  160.8050  202.9860  150.2700 C   0  0  0  0  0  3  0  0  0  0  0  0
  161.0140  200.9150  149.0340 C   0  0  0  0  0  3  0  0  0  0  0  0
  160.8160  201.5880  150.2420 C   0  0  0  0  0  3  0  0  0  0  0  0
  160.9930  203.7200  149.0890 C   0  0  0  0  0  0  0  0  0  0  0  0
  161.2000  201.6380  147.8530 C   0  0  0  0  0  3  0  0  0  0  0  0
  1  3  1  1  0  0  0
  1  7  1  0  0  0  0
  2  4  1  0  0  0  0
  5 19  1  6  0  0  0
  5  1  1  0  0  0  0
  5  6  1  0  0  0  0
  6  2  1  0  0  0  0
  7  8  1  0  0  0  0
  7  4  2  0  0  0  0
  8  9  2  0  0  0  0
 10  8  1  0  0  0  0
 11 10  1  0  0  0  0
 11 12  1  0  0  0  0
 12 13  1  6  0  0  0
 12 14  1  0  0  0  0
 14 15  1  0  0  0  0
 16 15  1  6  0  0  0
 17 18  1  0  0  0  0
 17 16  1  0  0  0  0
 18 16  1  0  0  0  0
 20 22  1  0  0  0  0
 21 20  2  0  0  0  0
 22 19  1  0  0  0  0
 23 27  1  0  0  0  0
 25 26  2  0  0  0  0
 26 24  1  0  0  0  0
 27 20  1  0  0  0  0
 27 24  2  0  0  0  0
 28 23  2  0  0  0  0
 28 25  1  0  0  0  0
M  END
>  <MODEL>
2

>  <REMARK>
 VINA RESULT:      -7.7      3.205      9.552
  Name = 
  10 active torsions:
  status: ('A' for Active; 'I' for Inactive)
    1  A    between atoms: N_1  and  C_18
    2  A    between atoms: N_1  and  C_22
    3  A    between atoms: C_2  and  C_16
    4  A    between atoms: C_2  and  N_28
    5  A    between atoms: C_3  and  C_19
    6  A    between atoms: C_3  and  C_20
    7  A    between atoms: C_8  and  C_22
    8  A    between atoms: C_9  and  C_15
    9  A    between atoms: C_18  and  N_26
   10  A    between atoms: C_20  and  N_26
                            x       y       z     vdW  Elec       q    Type
                         _______ _______ _______ _____ _____    ______ ____

>  <TORSDO>
F 10

$$$$
=
 OpenBabel11072411193D

 28 30  0  0  1  0  0  0  0  0999 V2000
  160.9760  209.1910  152.2060 C   0  0  1  0  0  3  0  0  0  0  0  0
  160.8890  207.1730  154.3680 C   0  0  0  0  0  2  0  0  0  0  0  0
  162.2840  209.6150  151.9480 O   0  0  0  0  0  1  0  0  0  0  0  0
  160.6460  208.6390  154.6100 C   0  0  0  0  0  3  0  0  0  0  0  0
  160.8390  207.6840  151.9430 C   0  0  2  0  0  3  0  0  0  0  0  0
  161.5680  206.9080  153.0290 C   0  0  0  0  0  2  0  0  0  0  0  0
  160.6060  209.5560  153.6280 C   0  0  0  0  0  0  0  0  0  0  0  0
  160.3020  210.9630  153.9670 C   0  0  0  0  0  0  0  0  0  0  0  0
  160.8770  211.5230  154.9400 O   0  0  0  0  0  0  0  0  0  0  0  0
  159.3250  211.7550  153.1590 C   0  0  0  0  0  2  0  0  0  0  0  0
  160.0220  212.7650  152.3760 N   0  0  0  0  0  2  0  0  0  0  0  0
  159.2060  213.0670  151.2060 C   0  0  1  0  0  3  0  0  0  0  0  0
  157.9870  213.6220  151.6040 O   0  0  0  0  0  1  0  0  0  0  0  0
  159.9080  213.9660  150.2880 N   0  0  0  0  0  2  0  0  0  0  0  0
  160.0970  213.3170  148.9960 C   0  0  0  0  0  2  0  0  0  0  0  0
  161.5700  213.3070  148.6460 C   0  0  1  0  0  3  0  0  0  0  0  0
  162.0450  211.9150  148.5040 C   0  0  0  0  0  2  0  0  0  0  0  0
  161.7360  212.7100  147.3840 O   0  0  0  0  0  0  0  0  0  0  0  0
  161.3650  207.2870  150.5690 C   0  0  0  0  0  2  0  0  0  0  0  0
  160.9300  205.1890  149.2110 C   0  0  0  0  0  0  0  0  0  0  0  0
  160.5220  205.8750  148.2350 O   0  0  0  0  0  0  0  0  0  0  0  0
  161.3590  205.8390  150.4120 N   0  0  0  0  0  2  0  0  0  0  0  0
  161.1760  203.0910  147.8820 C   0  0  0  0  0  3  0  0  0  0  0  0
  160.7810  202.9310  150.2650 C   0  0  0  0  0  3  0  0  0  0  0  0
  161.0360  200.9190  148.9410 C   0  0  0  0  0  3  0  0  0  0  0  0
  160.8180  201.5350  150.1760 C   0  0  0  0  0  3  0  0  0  0  0  0
  160.9610  203.7190  149.1180 C   0  0  0  0  0  0  0  0  0  0  0  0
  161.2140  201.6970  147.7940 C   0  0  0  0  0  3  0  0  0  0  0  0
  1  3  1  1  0  0  0
  1  7  1  0  0  0  0
  2  4  1  0  0  0  0
  5 19  1  6  0  0  0
  5  1  1  0  0  0  0
  5  6  1  0  0  0  0
  6  2  1  0  0  0  0
  7  8  1  0  0  0  0
  7  4  2  0  0  0  0
  8  9  2  0  0  0  0
 10  8  1  0  0  0  0
 11 10  1  0  0  0  0
 12 13  1  1  0  0  0
 12 11  1  0  0  0  0
 14 12  1  0  0  0  0
 15 14  1  0  0  0  0
 16 15  1  1  0  0  0
 17 16  1  0  0  0  0
 18 17  1  0  0  0  0
 18 16  1  0  0  0  0
 20 22  1  0  0  0  0
 21 20  2  0  0  0  0
 22 19  1  0  0  0  0
 23 27  1  0  0  0  0
 25 26  2  0  0  0  0
 26 24  1  0  0  0  0
 27 20  1  0  0  0  0
 27 24  2  0  0  0  0
 28 23  2  0  0  0  0
 28 25  1  0  0  0  0
M  END
>  <MODEL>
3

>  <REMARK>
 VINA RESULT:      -7.6      2.821      8.613
  Name = 
  10 active torsions:
  status: ('A' for Active; 'I' for Inactive)
    1  A    between atoms: N_1  and  C_18
    2  A    between atoms: N_1  and  C_22
    3  A    between atoms: C_2  and  C_16
    4  A    between atoms: C_2  and  N_28
    5  A    between atoms: C_3  and  C_19
    6  A    between atoms: C_3  and  C_20
    7  A    between atoms: C_8  and  C_22
    8  A    between atoms: C_9  and  C_15
    9  A    between atoms: C_18  and  N_26
   10  A    between atoms: C_20  and  N_26
                            x       y       z     vdW  Elec       q    Type
                         _______ _______ _______ _____ _____    ______ ____

>  <TORSDO>
F 10

$$$$
=
 OpenBabel11072411193D

 28 30  0  0  1  0  0  0  0  0999 V2000
  161.5780  206.8470  151.6880 C   0  0  1  0  0  3  0  0  0  0  0  0
  160.8300  208.2940  154.1580 C   0  0  0  0  0  2  0  0  0  0  0  0
  162.9070  206.4140  151.7260 O   0  0  0  0  0  1  0  0  0  0  0  0
  161.2760  208.9970  152.9040 C   0  0  0  0  0  3  0  0  0  0  0  0
  160.7700  206.2040  152.8260 C   0  0  2  0  0  3  0  0  0  0  0  0
  161.1900  206.8130  154.1550 C   0  0  0  0  0  2  0  0  0  0  0  0
  161.5450  208.3600  151.7520 C   0  0  0  0  0  0  0  0  0  0  0  0
  161.9210  209.1510  150.5600 C   0  0  0  0  0  0  0  0  0  0  0  0
  162.5520  210.2350  150.6880 O   0  0  0  0  0  0  0  0  0  0  0  0
  161.5790  208.6790  149.1840 C   0  0  0  0  0  2  0  0  0  0  0  0
  162.6510  207.8490  148.6560 N   0  0  0  0  0  2  0  0  0  0  0  0
  162.0450  206.7050  147.9860 C   0  0  1  0  0  3  0  0  0  0  0  0
  160.6840  206.6380  148.2910 O   0  0  0  0  0  1  0  0  0  0  0  0
  162.2480  206.7710  146.5370 N   0  0  0  0  0  2  0  0  0  0  0  0
  162.3310  205.4250  145.9800 C   0  0  0  0  0  2  0  0  0  0  0  0
  161.7300  205.4150  144.5900 C   0  0  1  0  0  3  0  0  0  0  0  0
  160.5830  204.4850  144.5450 C   0  0  0  0  0  2  0  0  0  0  0  0
  160.4040  205.8760  144.6640 O   0  0  0  0  0  0  0  0  0  0  0  0
  160.9340  204.6900  152.8650 C   0  0  0  0  0  2  0  0  0  0  0  0
  161.3270  202.8170  151.1990 C   0  0  0  0  0  0  0  0  0  0  0  0
  161.8620  202.1030  152.0900 O   0  0  0  0  0  0  0  0  0  0  0  0
  160.8490  204.1270  151.5240 N   0  0  0  0  0  2  0  0  0  0  0  0
  161.0140  203.1940  148.7530 C   0  0  0  0  0  3  0  0  0  0  0  0
  161.2620  200.9290  149.5670 C   0  0  0  0  0  3  0  0  0  0  0  0
  160.9670  201.3380  147.2000 C   0  0  0  0  0  3  0  0  0  0  0  0
  161.1470  200.4470  148.2600 C   0  0  0  0  0  3  0  0  0  0  0  0
  161.1980  202.3070  149.8230 C   0  0  0  0  0  0  0  0  0  0  0  0
  160.9000  202.7130  147.4450 C   0  0  0  0  0  3  0  0  0  0  0  0
  1  3  1  1  0  0  0
  1  7  1  0  0  0  0
  1  5  1  0  0  0  0
  4  2  1  0  0  0  0
  5 19  1  1  0  0  0
  5  6  1  0  0  0  0
  6  2  1  0  0  0  0
  7  4  2  0  0  0  0
  8  9  2  0  0  0  0
  8  7  1  0  0  0  0
 10  8  1  0  0  0  0
 11 10  1  0  0  0  0
 12 13  1  6  0  0  0
 12 11  1  0  0  0  0
 14 12  1  0  0  0  0
 15 14  1  0  0  0  0
 16 18  1  0  0  0  0
 16 15  1  1  0  0  0
 17 16  1  0  0  0  0
 17 18  1  0  0  0  0
 20 22  1  0  0  0  0
 20 21  2  0  0  0  0
 22 19  1  0  0  0  0
 23 27  1  0  0  0  0
 24 27  2  0  0  0  0
 25 28  1  0  0  0  0
 25 26  2  0  0  0  0
 26 24  1  0  0  0  0
 27 20  1  0  0  0  0
 28 23  2  0  0  0  0
M  END
>  <MODEL>
4

>  <REMARK>
 VINA RESULT:      -7.4      2.340      6.794
  Name = 
  10 active torsions:
  status: ('A' for Active; 'I' for Inactive)
    1  A    between atoms: N_1  and  C_18
    2  A    between atoms: N_1  and  C_22
    3  A    between atoms: C_2  and  C_16
    4  A    between atoms: C_2  and  N_28
    5  A    between atoms: C_3  and  C_19
    6  A    between atoms: C_3  and  C_20
    7  A    between atoms: C_8  and  C_22
    8  A    between atoms: C_9  and  C_15
    9  A    between atoms: C_18  and  N_26
   10  A    between atoms: C_20  and  N_26
                            x       y       z     vdW  Elec       q    Type
                         _______ _______ _______ _____ _____    ______ ____

>  <TORSDO>
F 10

$$$$
=
 OpenBabel11072411193D

 28 30  0  0  1  0  0  0  0  0999 V2000
  161.1270  209.2020  152.0860 C   0  0  1  0  0  3  0  0  0  0  0  0
  160.9890  207.1570  154.2190 C   0  0  0  0  0  2  0  0  0  0  0  0
  162.4490  209.5050  151.7450 O   0  0  0  0  0  1  0  0  0  0  0  0
  160.9060  208.6330  154.4980 C   0  0  0  0  0  3  0  0  0  0  0  0
  160.8270  207.7210  151.8100 C   0  0  2  0  0  3  0  0  0  0  0  0
  161.5480  206.8560  152.8330 C   0  0  0  0  0  2  0  0  0  0  0  0
  160.8890  209.5710  153.5350 C   0  0  0  0  0  0  0  0  0  0  0  0
  160.7460  210.9930  153.9140 C   0  0  0  0  0  0  0  0  0  0  0  0
  160.3620  211.8430  153.0650 O   0  0  0  0  0  0  0  0  0  0  0  0
  161.0350  211.4510  155.3070 C   0  0  0  0  0  2  0  0  0  0  0  0
  159.9060  212.2020  155.8340 N   0  0  0  0  0  2  0  0  0  0  0  0
  158.9430  211.2460  156.3700 C   0  0  1  0  0  3  0  0  0  0  0  0
  159.5770  210.3770  157.2610 O   0  0  0  0  0  1  0  0  0  0  0  0
  157.8240  211.9310  157.0230 N   0  0  0  0  0  2  0  0  0  0  0  0
  157.4310  213.1020  156.2470 C   0  0  0  0  0  2  0  0  0  0  0  0
  156.2360  212.7570  155.3840 C   0  0  1  0  0  3  0  0  0  0  0  0
  156.3710  213.3950  154.0580 C   0  0  0  0  0  2  0  0  0  0  0  0
  156.6770  212.0370  154.2600 O   0  0  0  0  0  0  0  0  0  0  0  0
  161.2200  207.3050  150.3980 C   0  0  0  0  0  2  0  0  0  0  0  0
  160.9090  205.1740  149.0580 C   0  0  0  0  0  0  0  0  0  0  0  0
  160.5730  205.8340  148.0380 O   0  0  0  0  0  0  0  0  0  0  0  0
  161.2380  205.8540  150.2740 N   0  0  0  0  0  2  0  0  0  0  0  0
  160.7720  202.9410  150.1630 C   0  0  0  0  0  3  0  0  0  0  0  0
  161.1920  203.0460  147.7820 C   0  0  0  0  0  3  0  0  0  0  0  0
  161.0410  200.8990  148.8910 C   0  0  0  0  0  3  0  0  0  0  0  0
  161.2330  201.6490  147.7280 C   0  0  0  0  0  3  0  0  0  0  0  0
  160.9600  203.7020  149.0010 C   0  0  0  0  0  0  0  0  0  0  0  0
  160.8120  201.5440  150.1090 C   0  0  0  0  0  3  0  0  0  0  0  0
  1  3  1  1  0  0  0
  1  7  1  0  0  0  0
  2  4  1  0  0  0  0
  5 19  1  6  0  0  0
  5  1  1  0  0  0  0
  5  6  1  0  0  0  0
  6  2  1  0  0  0  0
  7  8  1  0  0  0  0
  7  4  2  0  0  0  0
  8 10  1  0  0  0  0
  9  8  2  0  0  0  0
 10 11  1  0  0  0  0
 11 12  1  0  0  0  0
 12 14  1  0  0  0  0
 12 13  1  1  0  0  0
 15 14  1  0  0  0  0
 16 15  1  1  0  0  0
 17 18  1  0  0  0  0
 17 16  1  0  0  0  0
 18 16  1  0  0  0  0
 20 22  1  0  0  0  0
 21 20  2  0  0  0  0
 22 19  1  0  0  0  0
 24 27  1  0  0  0  0
 25 28  2  0  0  0  0
 26 24  2  0  0  0  0
 26 25  1  0  0  0  0
 27 20  1  0  0  0  0
 27 23  2  0  0  0  0
 28 23  1  0  0  0  0
M  END
>  <MODEL>
5

>  <REMARK>
 VINA RESULT:      -7.4      3.216      9.804
  Name = 
  10 active torsions:
  status: ('A' for Active; 'I' for Inactive)
    1  A    between atoms: N_1  and  C_18
    2  A    between atoms: N_1  and  C_22
    3  A    between atoms: C_2  and  C_16
    4  A    between atoms: C_2  and  N_28
    5  A    between atoms: C_3  and  C_19
    6  A    between atoms: C_3  and  C_20
    7  A    between atoms: C_8  and  C_22
    8  A    between atoms: C_9  and  C_15
    9  A    between atoms: C_18  and  N_26
   10  A    between atoms: C_20  and  N_26
                            x       y       z     vdW  Elec       q    Type
                         _______ _______ _______ _____ _____    ______ ____

>  <TORSDO>
F 10

$$$$
=
 OpenBabel11072411193D

 28 30  0  0  1  0  0  0  0  0999 V2000
  161.1760  208.3790  151.7450 C   0  0  1  0  0  3  0  0  0  0  0  0
  161.2770  205.7760  153.1480 C   0  0  0  0  0  2  0  0  0  0  0  0
  162.4550  208.8350  151.4100 O   0  0  0  0  0  1  0  0  0  0  0  0
  161.1880  207.0910  153.8740 C   0  0  0  0  0  3  0  0  0  0  0  0
  160.8840  207.0400  151.0510 C   0  0  2  0  0  3  0  0  0  0  0  0
  161.7140  205.9400  151.6960 C   0  0  0  0  0  2  0  0  0  0  0  0
  161.0630  208.2760  153.2520 C   0  0  0  0  0  0  0  0  0  0  0  0
  160.9240  209.5060  154.0610 C   0  0  0  0  0  0  0  0  0  0  0  0
  161.6040  209.6560  155.1120 O   0  0  0  0  0  0  0  0  0  0  0  0
  159.9940  210.5990  153.6460 C   0  0  0  0  0  2  0  0  0  0  0  0
  160.3420  211.8400  154.3210 N   0  0  0  0  0  2  0  0  0  0  0  0
  159.1080  212.4530  154.7970 C   0  0  1  0  0  3  0  0  0  0  0  0
  159.3580  213.7580  155.2290 O   0  0  0  0  0  1  0  0  0  0  0  0
  158.0750  212.4410  153.7580 N   0  0  0  0  0  2  0  0  0  0  0  0
  156.7530  212.3490  154.3660 C   0  0  0  0  0  2  0  0  0  0  0  0
  156.6810  211.1090  155.2320 C   0  0  1  0  0  3  0  0  0  0  0  0
  155.6060  211.2570  156.2350 C   0  0  0  0  0  2  0  0  0  0  0  0
  155.4230  210.5040  155.0600 O   0  0  0  0  0  0  0  0  0  0  0  0
  161.1560  207.0940  149.5530 C   0  0  0  0  0  2  0  0  0  0  0  0
  161.6360  205.3160  147.8090 C   0  0  0  0  0  0  0  0  0  0  0  0
  162.5480  206.0230  147.3020 O   0  0  0  0  0  0  0  0  0  0  0  0
  160.8960  205.8010  148.9350 N   0  0  0  0  0  2  0  0  0  0  0  0
  161.1470  203.8380  145.8580 C   0  0  0  0  0  3  0  0  0  0  0  0
  161.2150  202.8690  148.0750 C   0  0  0  0  0  3  0  0  0  0  0  0
  160.7550  201.4680  146.1550 C   0  0  0  0  0  3  0  0  0  0  0  0
  160.9290  201.6120  147.5340 C   0  0  0  0  0  3  0  0  0  0  0  0
  161.3270  203.9920  147.2410 C   0  0  0  0  0  0  0  0  0  0  0  0
  160.8630  202.5810  145.3170 C   0  0  0  0  0  3  0  0  0  0  0  0
  1  3  1  1  0  0  0
  1  7  1  0  0  0  0
  2  4  1  0  0  0  0
  5 19  1  6  0  0  0
  5  6  1  0  0  0  0
  5  1  1  0  0  0  0
  6  2  1  0  0  0  0
  7  4  2  0  0  0  0
  7  8  1  0  0  0  0
  8  9  2  0  0  0  0
 10  8  1  0  0  0  0
 10 11  1  0  0  0  0
 11 12  1  0  0  0  0
 12 13  1  6  0  0  0
 14 15  1  0  0  0  0
 14 12  1  0  0  0  0
 16 15  1  6  0  0  0
 16 17  1  0  0  0  0
 18 16  1  0  0  0  0
 18 17  1  0  0  0  0
 20 22  1  0  0  0  0
 21 20  2  0  0  0  0
 22 19  1  0  0  0  0
 23 27  1  0  0  0  0
 25 26  2  0  0  0  0
 26 24  1  0  0  0  0
 27 20  1  0  0  0  0
 27 24  2  0  0  0  0
 28 23  2  0  0  0  0
 28 25  1  0  0  0  0
M  END
>  <MODEL>
6

>  <REMARK>
 VINA RESULT:      -7.4      3.187      9.610
  Name = 
  10 active torsions:
  status: ('A' for Active; 'I' for Inactive)
    1  A    between atoms: N_1  and  C_18
    2  A    between atoms: N_1  and  C_22
    3  A    between atoms: C_2  and  C_16
    4  A    between atoms: C_2  and  N_28
    5  A    between atoms: C_3  and  C_19
    6  A    between atoms: C_3  and  C_20
    7  A    between atoms: C_8  and  C_22
    8  A    between atoms: C_9  and  C_15
    9  A    between atoms: C_18  and  N_26
   10  A    between atoms: C_20  and  N_26
                            x       y       z     vdW  Elec       q    Type
                         _______ _______ _______ _____ _____    ______ ____

>  <TORSDO>
F 10

$$$$
=
 OpenBabel11072411193D

 28 30  0  0  1  0  0  0  0  0999 V2000
  161.0940  209.3390  152.5030 C   0  0  1  0  0  3  0  0  0  0  0  0
  160.8310  207.1380  154.4620 C   0  0  0  0  0  2  0  0  0  0  0  0
  162.4340  209.6800  152.2880 O   0  0  0  0  0  1  0  0  0  0  0  0
  160.7020  208.5880  154.8430 C   0  0  0  0  0  3  0  0  0  0  0  0
  160.8400  207.8790  152.0970 C   0  0  2  0  0  3  0  0  0  0  0  0
  161.4970  206.9480  153.1040 C   0  0  0  0  0  2  0  0  0  0  0  0
  160.7430  209.5950  153.9540 C   0  0  0  0  0  0  0  0  0  0  0  0
  160.5480  210.9830  154.4250 C   0  0  0  0  0  0  0  0  0  0  0  0
  161.2090  211.4210  155.4060 O   0  0  0  0  0  0  0  0  0  0  0  0
  159.5830  211.8980  153.7450 C   0  0  0  0  0  2  0  0  0  0  0  0
  158.2280  211.6330  154.2060 N   0  0  0  0  0  2  0  0  0  0  0  0
  157.3730  212.7140  153.7310 C   0  0  1  0  0  3  0  0  0  0  0  0
  156.7230  213.3180  154.8110 O   0  0  0  0  0  1  0  0  0  0  0  0
  158.1410  213.7020  152.9700 N   0  0  0  0  0  2  0  0  0  0  0  0
  157.3930  214.1180  151.7890 C   0  0  0  0  0  2  0  0  0  0  0  0
  157.8750  213.3350  150.5860 C   0  0  1  0  0  3  0  0  0  0  0  0
  158.2780  214.2630  149.5090 C   0  0  0  0  0  2  0  0  0  0  0  0
  159.2250  213.6470  150.3490 O   0  0  0  0  0  0  0  0  0  0  0  0
  161.3440  207.5750  150.6910 C   0  0  0  0  0  2  0  0  0  0  0  0
  160.7970  205.5050  149.3310 C   0  0  0  0  0  0  0  0  0  0  0  0
  160.1700  206.1970  148.4830 O   0  0  0  0  0  0  0  0  0  0  0  0
  161.4010  206.1370  150.4640 N   0  0  0  0  0  2  0  0  0  0  0  0
  161.2060  203.5020  147.9000 C   0  0  0  0  0  3  0  0  0  0  0  0
  160.7100  203.1850  150.2480 C   0  0  0  0  0  3  0  0  0  0  0  0
  161.1240  201.2680  148.8290 C   0  0  0  0  0  3  0  0  0  0  0  0
  160.8200  201.8000  150.0840 C   0  0  0  0  0  3  0  0  0  0  0  0
  160.9040  204.0460  149.1570 C   0  0  0  0  0  0  0  0  0  0  0  0
  161.3170  202.1180  147.7360 C   0  0  0  0  0  3  0  0  0  0  0  0
  1  3  1  1  0  0  0
  1  7  1  0  0  0  0
  2  4  1  0  0  0  0
  5 19  1  6  0  0  0
  5  1  1  0  0  0  0
  5  6  1  0  0  0  0
  6  2  1  0  0  0  0
  7  8  1  0  0  0  0
  7  4  2  0  0  0  0
  8  9  2  0  0  0  0
 10 11  1  0  0  0  0
 10  8  1  0  0  0  0
 12 11  1  0  0  0  0
 12 13  1  1  0  0  0
 14 12  1  0  0  0  0
 15 14  1  0  0  0  0
 16 15  1  1  0  0  0
 17 18  1  0  0  0  0
 17 16  1  0  0  0  0
 18 16  1  0  0  0  0
 20 22  1  0  0  0  0
 21 20  2  0  0  0  0
 22 19  1  0  0  0  0
 23 27  1  0  0  0  0
 25 26  2  0  0  0  0
 26 24  1  0  0  0  0
 27 20  1  0  0  0  0
 27 24  2  0  0  0  0
 28 23  2  0  0  0  0
 28 25  1  0  0  0  0
M  END
>  <MODEL>
7

>  <REMARK>
 VINA RESULT:      -7.2      3.069      9.178
  Name = 
  10 active torsions:
  status: ('A' for Active; 'I' for Inactive)
    1  A    between atoms: N_1  and  C_18
    2  A    between atoms: N_1  and  C_22
    3  A    between atoms: C_2  and  C_16
    4  A    between atoms: C_2  and  N_28
    5  A    between atoms: C_3  and  C_19
    6  A    between atoms: C_3  and  C_20
    7  A    between atoms: C_8  and  C_22
    8  A    between atoms: C_9  and  C_15
    9  A    between atoms: C_18  and  N_26
   10  A    between atoms: C_20  and  N_26
                            x       y       z     vdW  Elec       q    Type
                         _______ _______ _______ _____ _____    ______ ____

>  <TORSDO>
F 10

$$$$
=
 OpenBabel11072411193D

 28 30  0  0  1  0  0  0  0  0999 V2000
  161.6860  206.5110  151.6380 C   0  0  1  0  0  3  0  0  0  0  0  0
  160.6010  206.7270  154.3820 C   0  0  0  0  0  2  0  0  0  0  0  0
  163.0670  206.2870  151.6450 O   0  0  0  0  0  1  0  0  0  0  0  0
  160.9740  207.9280  153.5550 C   0  0  0  0  0  3  0  0  0  0  0  0
  160.9520  205.3600  152.3440 C   0  0  2  0  0  3  0  0  0  0  0  0
  161.2060  205.4370  153.8410 C   0  0  0  0  0  2  0  0  0  0  0  0
  161.3950  207.8510  152.2810 C   0  0  0  0  0  0  0  0  0  0  0  0
  161.6820  209.0970  151.5380 C   0  0  0  0  0  0  0  0  0  0  0  0
  161.7730  209.0810  150.2800 O   0  0  0  0  0  0  0  0  0  0  0  0
  161.8540  210.3970  152.2540 C   0  0  0  0  0  2  0  0  0  0  0  0
  160.7800  211.3120  151.8980 N   0  0  0  0  0  2  0  0  0  0  0  0
  160.0040  211.5840  153.1020 C   0  0  1  0  0  3  0  0  0  0  0  0
  158.9040  210.7270  153.1660 O   0  0  0  0  0  1  0  0  0  0  0  0
  160.8310  211.4560  154.3050 N   0  0  0  0  0  2  0  0  0  0  0  0
  160.0380  210.9190  155.4050 C   0  0  0  0  0  2  0  0  0  0  0  0
  160.9220  210.7270  156.6180 C   0  0  1  0  0  3  0  0  0  0  0  0
  160.8210  209.3340  157.1000 C   0  0  0  0  0  2  0  0  0  0  0  0
  161.9070  209.7700  156.3180 O   0  0  0  0  0  0  0  0  0  0  0  0
  161.3680  203.9960  151.8080 C   0  0  0  0  0  2  0  0  0  0  0  0
  160.9650  202.9430  149.5350 C   0  0  0  0  0  0  0  0  0  0  0  0
  160.4600  201.9190  150.0710 O   0  0  0  0  0  0  0  0  0  0  0  0
  161.4460  204.0150  150.3530 N   0  0  0  0  0  2  0  0  0  0  0  0
  161.5030  204.2210  147.4610 C   0  0  0  0  0  3  0  0  0  0  0  0
  160.7280  201.9360  147.2630 C   0  0  0  0  0  3  0  0  0  0  0  0
  161.2710  203.2070  145.2750 C   0  0  0  0  0  3  0  0  0  0  0  0
  160.8310  202.0230  145.8700 C   0  0  0  0  0  3  0  0  0  0  0  0
  161.0650  203.0350  148.0680 C   0  0  0  0  0  0  0  0  0  0  0  0
  161.6080  204.3070  146.0690 C   0  0  0  0  0  3  0  0  0  0  0  0
  1  3  1  1  0  0  0
  1  7  1  0  0  0  0
  1  5  1  0  0  0  0
  4  2  1  0  0  0  0
  5 19  1  6  0  0  0
  5  6  1  0  0  0  0
  6  2  1  0  0  0  0
  7  4  2  0  0  0  0
  8 10  1  0  0  0  0
  8  7  1  0  0  0  0
  9  8  2  0  0  0  0
 11 10  1  0  0  0  0
 11 12  1  0  0  0  0
 12 13  1  1  0  0  0
 12 14  1  0  0  0  0
 14 15  1  0  0  0  0
 16 15  1  6  0  0  0
 16 17  1  0  0  0  0
 18 16  1  0  0  0  0
 18 17  1  0  0  0  0
 20 21  2  0  0  0  0
 20 22  1  0  0  0  0
 22 19  1  0  0  0  0
 23 27  1  0  0  0  0
 24 27  2  0  0  0  0
 25 26  2  0  0  0  0
 25 28  1  0  0  0  0
 26 24  1  0  0  0  0
 27 20  1  0  0  0  0
 28 23  2  0  0  0  0
M  END
>  <MODEL>
8

>  <REMARK>
 VINA RESULT:      -7.2      2.353      9.022
  Name = 
  10 active torsions:
  status: ('A' for Active; 'I' for Inactive)
    1  A    between atoms: N_1  and  C_18
    2  A    between atoms: N_1  and  C_22
    3  A    between atoms: C_2  and  C_16
    4  A    between atoms: C_2  and  N_28
    5  A    between atoms: C_3  and  C_19
    6  A    between atoms: C_3  and  C_20
    7  A    between atoms: C_8  and  C_22
    8  A    between atoms: C_9  and  C_15
    9  A    between atoms: C_18  and  N_26
   10  A    between atoms: C_20  and  N_26
                            x       y       z     vdW  Elec       q    Type
                         _______ _______ _______ _____ _____    ______ ____

>  <TORSDO>
F 10

$$$$
=
 OpenBabel11072411193D

 28 30  0  0  1  0  0  0  0  0999 V2000
  161.6820  207.6850  151.0480 C   0  0  1  0  0  3  0  0  0  0  0  0
  160.8570  209.3920  153.3180 C   0  0  0  0  0  2  0  0  0  0  0  0
  163.0250  207.3080  151.1470 O   0  0  0  0  0  1  0  0  0  0  0  0
  161.2920  209.9540  151.9920 C   0  0  0  0  0  3  0  0  0  0  0  0
  160.8860  207.1550  152.2500 C   0  0  2  0  0  3  0  0  0  0  0  0
  161.2690  207.9350  153.4980 C   0  0  0  0  0  2  0  0  0  0  0  0
  161.5950  209.1920  150.9270 C   0  0  0  0  0  0  0  0  0  0  0  0
  161.9560  209.8450  149.6500 C   0  0  0  0  0  0  0  0  0  0  0  0
  162.2880  209.1510  148.6510 O   0  0  0  0  0  0  0  0  0  0  0  0
  161.9190  211.3320  149.5100 C   0  0  0  0  0  2  0  0  0  0  0  0
  162.5770  211.7380  148.2760 N   0  0  0  0  0  2  0  0  0  0  0  0
  161.7880  212.8100  147.6800 C   0  0  1  0  0  3  0  0  0  0  0  0
  162.0240  214.0090  148.3560 O   0  0  0  0  0  1  0  0  0  0  0  0
  162.0850  212.9530  146.2520 N   0  0  0  0  0  2  0  0  0  0  0  0
  160.8610  213.2400  145.5120 C   0  0  0  0  0  2  0  0  0  0  0  0
  159.7880  212.2460  145.9060 C   0  0  1  0  0  3  0  0  0  0  0  0
  158.5290  212.9570  146.2080 C   0  0  0  0  0  2  0  0  0  0  0  0
  158.7380  212.3150  144.9730 O   0  0  0  0  0  0  0  0  0  0  0  0
  161.1020  205.6640  152.4750 C   0  0  0  0  0  2  0  0  0  0  0  0
  160.9890  203.5290  151.1090 C   0  0  0  0  0  0  0  0  0  0  0  0
  160.8460  202.8380  152.1540 O   0  0  0  0  0  0  0  0  0  0  0  0
  161.1300  204.9500  151.2050 N   0  0  0  0  0  2  0  0  0  0  0  0
  160.8530  201.4850  149.6840 C   0  0  0  0  0  3  0  0  0  0  0  0
  161.1970  203.6330  148.6230 C   0  0  0  0  0  3  0  0  0  0  0  0
  161.0490  201.6270  147.2760 C   0  0  0  0  0  3  0  0  0  0  0  0
  161.2140  203.0100  147.3710 C   0  0  0  0  0  3  0  0  0  0  0  0
  161.0150  202.8740  149.7890 C   0  0  0  0  0  0  0  0  0  0  0  0
  160.8680  200.8630  148.4320 C   0  0  0  0  0  3  0  0  0  0  0  0
  1  3  1  1  0  0  0
  1  5  1  0  0  0  0
  2  6  1  0  0  0  0
  4  2  1  0  0  0  0
  5 19  1  1  0  0  0
  5  6  1  0  0  0  0
  7  1  1  0  0  0  0
  7  4  2  0  0  0  0
  8  7  1  0  0  0  0
  9  8  2  0  0  0  0
 10  8  1  0  0  0  0
 11 10  1  0  0  0  0
 12 11  1  0  0  0  0
 12 13  1  1  0  0  0
 14 12  1  0  0  0  0
 15 14  1  0  0  0  0
 16 15  1  6  0  0  0
 16 17  1  0  0  0  0
 18 16  1  0  0  0  0
 18 17  1  0  0  0  0
 20 22  1  0  0  0  0
 20 21  2  0  0  0  0
 22 19  1  0  0  0  0
 23 27  1  0  0  0  0
 24 27  2  0  0  0  0
 25 26  2  0  0  0  0
 25 28  1  0  0  0  0
 26 24  1  0  0  0  0
 27 20  1  0  0  0  0
 28 23  2  0  0  0  0
M  END
>  <MODEL>
9

>  <REMARK>
 VINA RESULT:      -7.1      3.561      8.063
  Name = 
  10 active torsions:
  status: ('A' for Active; 'I' for Inactive)
    1  A    between atoms: N_1  and  C_18
    2  A    between atoms: N_1  and  C_22
    3  A    between atoms: C_2  and  C_16
    4  A    between atoms: C_2  and  N_28
    5  A    between atoms: C_3  and  C_19
    6  A    between atoms: C_3  and  C_20
    7  A    between atoms: C_8  and  C_22
    8  A    between atoms: C_9  and  C_15
    9  A    between atoms: C_18  and  N_26
   10  A    between atoms: C_20  and  N_26
                            x       y       z     vdW  Elec       q    Type
                         _______ _______ _______ _____ _____    ______ ____

>  <TORSDO>
F 10

$$$$
