=
 OpenBabel11072414573D

 57 63  0  0  1  0  0  0  0  0999 V2000
  160.0470  211.1830  153.6850 C   0  0  0  0  0  0  0  0  0  0  0  0
  160.6000  211.8300  151.6030 C   0  0  0  0  0  0  0  0  0  0  0  0
  161.5630  210.9680  151.9200 C   0  0  0  0  0  0  0  0  0  0  0  0
  161.9550  209.4840  153.8620 C   0  0  0  0  0  3  0  0  0  0  0  0
  161.3060  212.4620  149.3860 F   0  0  0  0  0  0  0  0  0  0  0  0
  158.4780  213.6240  151.4250 C   0  0  0  0  0  3  0  0  0  0  0  0
  159.5370  210.1170  155.9300 C   0  0  0  0  0  2  0  0  0  0  0  0
  161.5830  208.7440  155.1190 C   0  0  1  0  0  3  0  0  0  0  0  0
  162.7090  210.5570  151.0530 C   0  0  0  0  0  1  0  0  0  0  0  0
  159.5040  211.3780  155.0750 C   0  0  1  0  0  3  0  0  0  0  0  0
  161.2710  210.4680  153.2630 C   0  0  0  0  0  0  0  0  0  0  0  0
  160.4410  212.5770  150.4250 C   0  0  0  0  0  0  0  0  0  0  0  0
  161.5600  209.9710  157.1330 O   0  0  0  0  0  0  0  0  0  0  0  0
  159.7090  211.9630  152.6590 C   0  0  0  0  0  0  0  0  0  0  0  0
  160.9350  209.6270  156.1430 C   0  0  0  0  0  0  0  0  0  0  0  0
  158.6470  212.8700  152.5970 C   0  0  0  0  0  3  0  0  0  0  0  0
  159.3680  213.4780  150.3440 C   0  0  0  0  0  3  0  0  0  0  0  0
  159.5920  213.3480  156.6390 C   0  0  0  0  0  0  0  0  0  0  0  0
  160.1840  212.5410  155.7460 C   0  0  0  0  0  3  0  0  0  0  0  0
  160.3860  214.4490  157.2600 C   0  0  0  0  0  2  0  0  0  0  0  0
  161.8710  214.1360  157.2160 C   0  0  0  0  0  1  0  0  0  0  0  0
  158.1760  213.1450  157.1070 C   0  0  0  0  0  2  0  0  0  0  0  0
  157.1680  213.1770  155.9590 C   0  0  0  0  0  2  0  0  0  0  0  0
  155.2660  212.0460  157.1650 C   0  0  0  0  0  3  0  0  0  0  0  0
  154.3210  211.0190  157.2570 C   0  0  0  0  0  3  0  0  0  0  0  0
  154.2560  210.0320  156.2600 C   0  0  0  0  0  3  0  0  0  0  0  0
  155.0800  209.1140  154.2130 F   0  0  0  0  0  0  0  0  0  0  0  0
  156.1440  212.0940  156.0710 C   0  0  0  0  0  0  0  0  0  0  0  0
  156.0800  211.1020  155.0820 C   0  0  0  0  0  3  0  0  0  0  0  0
  155.1360  210.0740  155.1740 C   0  0  0  0  0  0  0  0  0  0  0  0
  160.7450  207.4980  154.7860 C   0  0  1  0  0  3  0  0  0  0  0  0
  160.1240  207.6560  153.5430 O   0  0  0  0  0  1  0  0  0  0  0  0
  161.6010  206.2410  154.7470 C   0  0  0  0  0  2  0  0  0  0  0  0
  160.7030  206.1160  151.2520 C   0  0  0  0  0  3  0  0  0  0  0  0
  161.0630  205.3210  153.7080 C   0  0  0  0  0  3  0  0  0  0  0  0
  160.8760  205.7330  152.4870 C   0  0  0  0  0  0  0  0  0  0  0  0
  160.7900  202.0420  145.9740 C   0  0  0  0  0  2  0  0  0  0  0  0
  161.4080  205.5770  148.9520 C   0  0  0  0  0  0  0  0  0  0  0  0
  160.2450  203.8050  150.2360 C   0  0  0  0  0  2  0  0  0  0  0  0
  161.8390  202.2440  147.0670 C   0  0  0  0  0  2  0  0  0  0  0  0
  162.9830  203.6920  144.4940 O   0  0  0  0  0  0  0  0  0  0  0  0
  161.6470  204.5940  147.8580 C   0  0  0  0  0  0  0  0  0  0  0  0
  161.4410  205.5700  144.1380 O   0  0  0  0  0  0  0  0  0  0  0  0
  160.4080  203.3210  145.2270 C   0  0  1  0  0  3  0  0  0  0  0  0
  160.8400  205.1830  150.1140 C   0  0  0  0  0  0  0  0  0  0  0  0
  161.4240  203.2790  148.0770 C   0  0  0  0  0  0  0  0  0  0  0  0
  160.8770  202.8510  149.3380 N   0  0  0  0  0  0  0  0  0  0  0  0
  161.8020  204.4340  145.0510 S   0  0  0  0  0  0  0  0  0  0  0  0
  162.1960  205.0720  146.6150 N   0  0  0  0  0  2  0  0  0  0  0  0
  163.0490  207.4160  149.4230 O   0  0  0  0  0  1  0  0  0  0  0  0
  161.8290  207.4640  147.4520 O   0  0  0  0  0  0  0  0  0  0  0  0
  161.8860  207.0010  148.7780 C   0  0  1  0  0  0  0  0  0  0  0  0
  160.9380  208.0560  148.3710 C   0  0  0  0  0  2  0  0  0  0  0  0
  158.5160  203.4130  143.7690 O   0  0  0  0  0  1  0  0  0  0  0  0
  159.8250  202.9500  143.8730 C   0  0  0  0  0  2  0  0  0  0  0  0
  160.8200  201.4430  149.7100 C   0  0  0  0  0  2  0  0  0  0  0  0
  159.4900  201.0170  149.7600 O   0  0  0  0  0  1  0  0  0  0  0  0
  1 10  1  0  0  0  0
  2  3  2  0  0  0  0
  2 14  1  0  0  0  0
  3 11  1  0  0  0  0
  4  8  1  0  0  0  0
  5 12  1  0  0  0  0
  6 16  2  0  0  0  0
  7 15  1  0  0  0  0
  8 31  1  6  0  0  0
  8 15  1  0  0  0  0
  9  3  1  0  0  0  0
 10 19  1  1  0  0  0
 10  7  1  0  0  0  0
 11  1  1  0  0  0  0
 11  4  2  0  0  0  0
 12  2  1  0  0  0  0
 14  1  2  0  0  0  0
 15 13  2  0  0  0  0
 16 14  1  0  0  0  0
 17 12  2  0  0  0  0
 17  6  1  0  0  0  0
 18 22  1  0  0  0  0
 18 20  1  0  0  0  0
 19 18  2  0  0  0  0
 21 20  1  0  0  0  0
 23 28  1  0  0  0  0
 23 22  1  0  0  0  0
 24 25  1  0  0  0  0
 26 25  2  0  0  0  0
 27 30  1  0  0  0  0
 28 24  2  0  0  0  0
 29 30  2  0  0  0  0
 29 28  1  0  0  0  0
 30 26  1  0  0  0  0
 31 32  1  6  0  0  0
 33 31  1  0  0  0  0
 34 36  2  0  0  0  0
 35 33  1  0  0  0  0
 36 35  2  0  0  0  0
 37 40  1  0  0  0  0
 38 45  2  0  0  0  0
 40 46  1  0  0  0  0
 41 48  2  0  0  0  0
 42 46  2  0  0  0  0
 42 38  1  0  0  0  0
 43 48  2  0  0  0  0
 44 55  1  6  0  0  0
 44 37  1  0  0  0  0
 45 39  1  0  0  0  0
 45 34  1  0  0  0  0
 46 47  1  0  0  0  0
 47 56  1  0  0  0  0
 47 39  1  0  0  0  0
 48 44  1  0  0  0  0
 48 49  1  0  0  0  0
 49 42  1  0  0  0  0
 51 53  1  0  0  0  0
 51 52  1  0  0  0  0
 52 38  1  0  0  0  0
 52 50  1  1  0  0  0
 53 52  1  0  0  0  0
 54 55  1  0  0  0  0
 56 57  1  0  0  0  0
M  END
>  <MODEL>
1

>  <REMARK>
 VINA RESULT:      -3.4      0.000      0.000
  Name = 
  12 active torsions:
  status: ('A' for Active; 'I' for Inactive)
    1  A    between atoms: C_1  and  C_6
    2  A    between atoms: C_1  and  C_45
    3  A    between atoms: C_5  and  C_35
    4  A    between atoms: C_6  and  C_13
    5  A    between atoms: C_13  and  C_41
    6  A    between atoms: C_15  and  C_27
    7  A    between atoms: C_15  and  C_57
    8  A    between atoms: C_16  and  C_32
    9  A    between atoms: C_17  and  N_39
   10  A    between atoms: C_25  and  C_30
   11  A    between atoms: C_33  and  C_40
   12  A    between atoms: C_49  and  C_57
                            x       y       z     vdW  Elec       q    Type
                         _______ _______ _______ _____ _____    ______ ____

>  <TORSDO>
F 12

$$$$
