=
 OpenBabel11072413163D

 27 30  0  0  1  0  0  0  0  0999 V2000
  160.8350  209.4660  155.2890 C   0  0  2  0  0  3  0  0  0  0  0  0
  163.1290  207.9250  147.9080 O   0  0  0  0  0  0  0  0  0  0  0  0
  160.9300  207.2960  153.3510 C   0  0  2  0  0  3  0  0  0  0  0  0
  161.8410  208.7980  151.6480 C   0  0  2  0  0  3  0  0  0  0  0  0
  161.3170  209.7990  153.8750 C   0  0  1  0  0  3  0  0  0  0  0  0
  161.5370  207.1620  154.6370 O   0  0  0  0  0  0  0  0  0  0  0  0
  161.4190  209.6830  150.5000 C   0  0  0  0  0  3  0  0  0  0  0  0
  162.0330  207.3780  151.2480 C   0  0  0  0  0  0  0  0  0  0  0  0
  161.7360  207.8780  156.8170 O   0  0  0  0  0  0  0  0  0  0  0  0
  162.4890  207.0630  150.0300 C   0  0  0  0  0  3  0  0  0  0  0  0
  161.6800  206.4180  152.3390 C   0  0  2  0  0  3  0  0  0  0  0  0
  162.5540  208.1270  149.0090 C   0  0  0  0  0  0  0  0  0  0  0  0
  160.8900  208.7590  152.8240 C   0  0  2  0  0  3  0  0  0  0  0  0
  161.8290  209.3920  149.2580 C   0  0  0  0  0  3  0  0  0  0  0  0
  161.3750  208.1240  155.6360 C   0  0  0  0  0  0  0  0  0  0  0  0
  160.6890  202.6080  151.9170 C   0  0  0  0  0  2  0  0  0  0  0  0
  160.7890  203.0000  149.3920 C   0  0  0  0  0  0  0  0  0  0  0  0
  161.0790  202.6350  148.0460 N   0  0  0  0  0  1  0  0  0  0  0  0
  161.1550  202.0840  150.5300 C   0  0  0  0  0  2  0  0  0  0  0  0
  160.6120  204.2410  149.7080 C   0  0  0  0  0  0  0  0  0  0  0  0
  160.5060  205.3280  150.4020 C   0  0  0  0  0  3  0  0  0  0  0  0
  161.4380  203.8910  152.3400 C   0  0  0  0  0  2  0  0  0  0  0  0
  160.7860  205.2420  151.8910 C   0  0  1  0  0  3  0  0  0  0  0  0
  159.7180  211.3280  152.9300 O   0  0  0  0  0  1  0  0  0  0  0  0
  161.0050  211.2370  153.4620 C   0  0  0  0  0  2  0  0  0  0  0  0
  159.4370  209.4390  155.3500 O   0  0  0  0  0  0  0  0  0  0  0  0
  159.1050  210.3740  156.3300 C   0  0  0  0  0  1  0  0  0  0  0  0
  1 26  1  6  0  0  0
  1 15  1  0  0  0  0
  2 12  2  0  0  0  0
  3  6  1  1  0  0  0
  4  7  1  6  0  0  0
  4 13  1  0  0  0  0
  5 25  1  6  0  0  0
  5  1  1  0  0  0  0
  6 15  1  0  0  0  0
  8  4  1  0  0  0  0
 10  8  2  0  0  0  0
 11  8  1  6  0  0  0
 11  3  1  0  0  0  0
 12 14  1  0  0  0  0
 12 10  1  0  0  0  0
 13  3  1  0  0  0  0
 13  5  1  0  0  0  0
 14  7  2  0  0  0  0
 15  9  2  0  0  0  0
 16 22  1  0  0  0  0
 17 20  2  0  0  0  0
 17 19  1  0  0  0  0
 18 17  1  0  0  0  0
 19 16  1  0  0  0  0
 20 21  2  0  0  0  0
 21 23  1  0  0  0  0
 23 11  1  0  0  0  0
 23 22  1  0  0  0  0
 24 25  1  0  0  0  0
 26 27  1  0  0  0  0
M  END
>  <MODEL>
1

>  <REMARK>
 VINA RESULT:      -7.8      0.000      0.000
  Name = 
  3 active torsions:
  status: ('A' for Active; 'I' for Inactive)
    1  A    between atoms: C_5  and  O_8
    2  A    between atoms: C_11  and  C_14
    3  A    between atoms: C_20  and  C_26
                            x       y       z     vdW  Elec       q    Type
                         _______ _______ _______ _____ _____    ______ ____

>  <TORSDO>
F 3

$$$$
=
 OpenBabel11072413163D

 27 30  0  0  1  0  0  0  0  0999 V2000
  161.8120  206.2610  150.2150 C   0  0  2  0  0  3  0  0  0  0  0  0
  160.8120  209.6550  157.2580 O   0  0  0  0  0  0  0  0  0  0  0  0
  160.8190  208.7130  151.4300 C   0  0  2  0  0  3  0  0  0  0  0  0
  161.2190  207.8170  153.6710 C   0  0  2  0  0  3  0  0  0  0  0  0
  161.7560  206.3230  151.7440 C   0  0  1  0  0  3  0  0  0  0  0  0
  161.8470  208.7470  150.4390 O   0  0  0  0  0  0  0  0  0  0  0  0
  160.5270  207.0870  154.7970 C   0  0  0  0  0  3  0  0  0  0  0  0
  161.0220  209.2900  153.7260 C   0  0  0  0  0  0  0  0  0  0  0  0
  162.9800  207.7050  148.7260 O   0  0  0  0  0  0  0  0  0  0  0  0
  160.9180  209.9270  154.8990 C   0  0  0  0  0  3  0  0  0  0  0  0
  160.9750  209.9180  152.3700 C   0  0  2  0  0  3  0  0  0  0  0  0
  160.7460  209.1190  156.1220 C   0  0  0  0  0  0  0  0  0  0  0  0
  160.8020  207.4070  152.2760 C   0  0  2  0  0  3  0  0  0  0  0  0
  160.3760  207.6930  155.9820 C   0  0  0  0  0  3  0  0  0  0  0  0
  162.2320  207.6050  149.7340 C   0  0  0  0  0  0  0  0  0  0  0  0
  159.3010  213.4920  152.0610 C   0  0  0  0  0  2  0  0  0  0  0  0
  157.9100  212.8710  154.1160 C   0  0  0  0  0  0  0  0  0  0  0  0
  157.2550  213.1380  155.3520 N   0  0  0  0  0  1  0  0  0  0  0  0
  158.7300  213.9370  153.4360 C   0  0  0  0  0  2  0  0  0  0  0  0
  158.1770  211.6540  153.7680 C   0  0  0  0  0  0  0  0  0  0  0  0
  158.7020  210.6370  153.1640 C   0  0  0  0  0  3  0  0  0  0  0  0
  160.3570  212.3740  152.1990 C   0  0  0  0  0  2  0  0  0  0  0  0
  159.8090  210.9080  152.1630 C   0  0  1  0  0  3  0  0  0  0  0  0
  162.1470  203.9520  151.6370 O   0  0  0  0  0  1  0  0  0  0  0  0
  161.5320  204.9550  152.3880 C   0  0  0  0  0  2  0  0  0  0  0  0
  160.5610  205.9410  149.6790 O   0  0  0  0  0  0  0  0  0  0  0  0
  160.8350  205.0510  148.6410 C   0  0  0  0  0  1  0  0  0  0  0  0
  1 26  1  6  0  0  0
  1  5  1  0  0  0  0
  3  6  1  6  0  0  0
  3 13  1  0  0  0  0
  3 11  1  0  0  0  0
  4  8  1  0  0  0  0
  4  7  1  1  0  0  0
  5 13  1  0  0  0  0
  5 25  1  6  0  0  0
  7 14  2  0  0  0  0
  8 10  2  0  0  0  0
  9 15  2  0  0  0  0
 10 12  1  0  0  0  0
 11  8  1  1  0  0  0
 12  2  2  0  0  0  0
 13  4  1  0  0  0  0
 14 12  1  0  0  0  0
 15  1  1  0  0  0  0
 15  6  1  0  0  0  0
 16 22  1  0  0  0  0
 16 19  1  0  0  0  0
 17 18  1  0  0  0  0
 19 17  1  0  0  0  0
 20 17  2  0  0  0  0
 21 20  2  0  0  0  0
 23 22  1  0  0  0  0
 23 11  1  0  0  0  0
 23 21  1  0  0  0  0
 24 25  1  0  0  0  0
 27 26  1  0  0  0  0
M  END
>  <MODEL>
2

>  <REMARK>
 VINA RESULT:      -7.3      3.305      7.499
  Name = 
  3 active torsions:
  status: ('A' for Active; 'I' for Inactive)
    1  A    between atoms: C_5  and  O_8
    2  A    between atoms: C_11  and  C_14
    3  A    between atoms: C_20  and  C_26
                            x       y       z     vdW  Elec       q    Type
                         _______ _______ _______ _____ _____    ______ ____

>  <TORSDO>
F 3

$$$$
=
 OpenBabel11072413163D

 27 30  0  0  1  0  0  0  0  0999 V2000
  161.7140  203.4580  146.0930 C   0  0  2  0  0  3  0  0  0  0  0  0
  161.2760  204.7140  153.8620 O   0  0  0  0  0  0  0  0  0  0  0  0
  161.5580  205.6220  148.0350 C   0  0  2  0  0  3  0  0  0  0  0  0
  161.3650  204.0180  149.8730 C   0  0  2  0  0  3  0  0  0  0  0  0
  161.5210  203.0790  147.5640 C   0  0  1  0  0  3  0  0  0  0  0  0
  162.6280  205.5560  147.0900 O   0  0  0  0  0  0  0  0  0  0  0  0
  160.3380  203.3050  150.7210 C   0  0  0  0  0  3  0  0  0  0  0  0
  161.7120  205.3670  150.3930 C   0  0  0  0  0  0  0  0  0  0  0  0
  163.4780  204.7240  145.1180 O   0  0  0  0  0  0  0  0  0  0  0  0
  161.7240  205.6160  151.7080 C   0  0  0  0  0  3  0  0  0  0  0  0
  162.0420  206.3380  149.3040 C   0  0  2  0  0  3  0  0  0  0  0  0
  161.1400  204.6080  152.6160 C   0  0  0  0  0  0  0  0  0  0  0  0
  160.9770  204.2320  148.4250 C   0  0  2  0  0  3  0  0  0  0  0  0
  160.2940  203.5410  152.0390 C   0  0  0  0  0  3  0  0  0  0  0  0
  162.6430  204.6190  146.0540 C   0  0  0  0  0  0  0  0  0  0  0  0
  161.7950  210.2840  149.0970 C   0  0  0  0  0  2  0  0  0  0  0  0
  161.3940  210.2580  151.6230 C   0  0  0  0  0  0  0  0  0  0  0  0
  161.5260  210.7590  152.9500 N   0  0  0  0  0  1  0  0  0  0  0  0
  162.1220  210.9150  150.4800 C   0  0  0  0  0  2  0  0  0  0  0  0
  161.0230  209.0360  151.4210 C   0  0  0  0  0  0  0  0  0  0  0  0
  160.8130  207.8960  150.8460 C   0  0  0  0  0  3  0  0  0  0  0  0
  162.3250  208.8390  148.9730 C   0  0  0  0  0  2  0  0  0  0  0  0
  161.3460  207.7090  149.4380 C   0  0  1  0  0  3  0  0  0  0  0  0
  161.5350  200.8220  148.3970 O   0  0  0  0  0  1  0  0  0  0  0  0
  160.7480  201.7740  147.7470 C   0  0  0  0  0  2  0  0  0  0  0  0
  160.4960  203.8120  145.5030 O   0  0  0  0  0  0  0  0  0  0  0  0
  160.8390  204.7000  144.4840 C   0  0  0  0  0  1  0  0  0  0  0  0
  1 26  1  1  0  0  0
  1  5  1  0  0  0  0
  3  6  1  6  0  0  0
  3 13  1  0  0  0  0
  3 11  1  0  0  0  0
  4  8  1  0  0  0  0
  4  7  1  1  0  0  0
  5 25  1  6  0  0  0
  5 13  1  0  0  0  0
  7 14  2  0  0  0  0
  8 10  2  0  0  0  0
  9 15  2  0  0  0  0
 10 12  1  0  0  0  0
 11 23  1  0  0  0  0
 11  8  1  1  0  0  0
 12  2  2  0  0  0  0
 13  4  1  0  0  0  0
 14 12  1  0  0  0  0
 15  1  1  0  0  0  0
 15  6  1  0  0  0  0
 16 19  1  0  0  0  0
 17 18  1  0  0  0  0
 19 17  1  0  0  0  0
 20 17  2  0  0  0  0
 21 20  2  0  0  0  0
 22 16  1  0  0  0  0
 22 23  1  0  0  0  0
 23 21  1  0  0  0  0
 25 24  1  0  0  0  0
 27 26  1  0  0  0  0
M  END
>  <MODEL>
3

>  <REMARK>
 VINA RESULT:      -6.9      3.298      8.032
  Name = 
  3 active torsions:
  status: ('A' for Active; 'I' for Inactive)
    1  A    between atoms: C_5  and  O_8
    2  A    between atoms: C_11  and  C_14
    3  A    between atoms: C_20  and  C_26
                            x       y       z     vdW  Elec       q    Type
                         _______ _______ _______ _____ _____    ______ ____

>  <TORSDO>
F 3

$$$$
=
 OpenBabel11072413163D

 27 30  0  0  1  0  0  0  0  0999 V2000
  162.1280  211.1360  149.2800 C   0  0  2  0  0  3  0  0  0  0  0  0
  160.6670  203.7980  151.7580 O   0  0  0  0  0  0  0  0  0  0  0  0
  161.8220  208.4220  148.2730 C   0  0  2  0  0  3  0  0  0  0  0  0
  161.5490  207.5620  150.5470 C   0  0  2  0  0  3  0  0  0  0  0  0
  161.9530  210.0140  150.3070 C   0  0  1  0  0  3  0  0  0  0  0  0
  161.0150  209.4890  147.7710 O   0  0  0  0  0  0  0  0  0  0  0  0
  162.3310  206.9540  151.6870 C   0  0  0  0  0  3  0  0  0  0  0  0
  161.0950  206.5550  149.5510 C   0  0  0  0  0  0  0  0  0  0  0  0
  160.6650  211.7490  147.5040 O   0  0  0  0  0  0  0  0  0  0  0  0
  160.7650  205.3140  149.9280 C   0  0  0  0  0  3  0  0  0  0  0  0
  161.0490  207.1000  148.1590 C   0  0  2  0  0  3  0  0  0  0  0  0
  161.1020  204.8870  151.3010 C   0  0  0  0  0  0  0  0  0  0  0  0
  162.2790  208.6190  149.7470 C   0  0  2  0  0  3  0  0  0  0  0  0
  162.0550  205.7040  152.0830 C   0  0  0  0  0  3  0  0  0  0  0  0
  161.2460  210.8200  148.1240 C   0  0  0  0  0  0  0  0  0  0  0  0
  161.3230  205.2960  144.6460 C   0  0  0  0  0  2  0  0  0  0  0  0
  161.2220  203.0820  145.9240 C   0  0  0  0  0  0  0  0  0  0  0  0
  160.8310  201.7260  146.1140 N   0  0  0  0  0  1  0  0  0  0  0  0
  160.7300  203.8620  144.7320 C   0  0  0  0  0  2  0  0  0  0  0  0
  161.6280  203.7920  146.9260 C   0  0  0  0  0  0  0  0  0  0  0  0
  161.9490  204.8070  147.6620 C   0  0  0  0  0  3  0  0  0  0  0  0
  160.8310  206.2030  145.7940 C   0  0  0  0  0  2  0  0  0  0  0  0
  161.7030  206.1920  147.0950 C   0  0  1  0  0  3  0  0  0  0  0  0
  161.7230  210.3280  152.6810 O   0  0  0  0  0  1  0  0  0  0  0  0
  162.6470  210.3090  151.6360 C   0  0  0  0  0  2  0  0  0  0  0  0
  163.4560  211.2180  148.8480 O   0  0  0  0  0  0  0  0  0  0  0  0
  163.4640  212.2560  147.9170 C   0  0  0  0  0  1  0  0  0  0  0  0
  1 26  1  6  0  0  0
  1  5  1  0  0  0  0
  3  6  1  1  0  0  0
  3 13  1  0  0  0  0
  4  7  1  1  0  0  0
  5 25  1  1  0  0  0
  6 15  1  0  0  0  0
  7 14  2  0  0  0  0
  8 10  2  0  0  0  0
  8  4  1  0  0  0  0
  9 15  2  0  0  0  0
 10 12  1  0  0  0  0
 11  3  1  0  0  0  0
 11  8  1  1  0  0  0
 12  2  2  0  0  0  0
 12 14  1  0  0  0  0
 13  5  1  0  0  0  0
 13  4  1  0  0  0  0
 15  1  1  0  0  0  0
 16 19  1  0  0  0  0
 16 22  1  0  0  0  0
 17 18  1  0  0  0  0
 17 20  2  0  0  0  0
 19 17  1  0  0  0  0
 20 21  2  0  0  0  0
 22 23  1  0  0  0  0
 23 21  1  0  0  0  0
 23 11  1  0  0  0  0
 25 24  1  0  0  0  0
 27 26  1  0  0  0  0
M  END
>  <MODEL>
4

>  <REMARK>
 VINA RESULT:      -6.9      2.753      5.458
  Name = 
  3 active torsions:
  status: ('A' for Active; 'I' for Inactive)
    1  A    between atoms: C_5  and  O_8
    2  A    between atoms: C_11  and  C_14
    3  A    between atoms: C_20  and  C_26
                            x       y       z     vdW  Elec       q    Type
                         _______ _______ _______ _____ _____    ______ ____

>  <TORSDO>
F 3

$$$$
=
 OpenBabel11072413163D

 27 30  0  0  1  0  0  0  0  0999 V2000
  160.8110  209.6030  155.9020 C   0  0  2  0  0  3  0  0  0  0  0  0
  162.4740  210.6680  148.2720 O   0  0  0  0  0  0  0  0  0  0  0  0
  160.8840  208.1600  153.3750 C   0  0  2  0  0  3  0  0  0  0  0  0
  161.5000  210.2020  152.1760 C   0  0  2  0  0  3  0  0  0  0  0  0
  161.1220  210.4060  154.6360 C   0  0  1  0  0  3  0  0  0  0  0  0
  161.6250  207.7010  154.5070 O   0  0  0  0  0  0  0  0  0  0  0  0
  160.8970  211.3490  151.4000 C   0  0  0  0  0  3  0  0  0  0  0  0
  161.7620  209.0040  151.3340 C   0  0  0  0  0  0  0  0  0  0  0  0
  161.9830  207.7260  156.7810 O   0  0  0  0  0  0  0  0  0  0  0  0
  162.1180  209.1310  150.0500 C   0  0  0  0  0  3  0  0  0  0  0  0
  161.5970  207.7220  152.0860 C   0  0  2  0  0  3  0  0  0  0  0  0
  161.9970  210.4590  149.4180 C   0  0  0  0  0  0  0  0  0  0  0  0
  160.6760  209.7020  153.3430 C   0  0  2  0  0  3  0  0  0  0  0  0
  161.2030  211.5010  150.1040 C   0  0  0  0  0  3  0  0  0  0  0  0
  161.4870  208.2850  155.7670 C   0  0  0  0  0  0  0  0  0  0  0  0
  160.4940  204.0410  151.1370 C   0  0  0  0  0  2  0  0  0  0  0  0
  161.1960  204.5920  148.7390 C   0  0  0  0  0  0  0  0  0  0  0  0
  161.7640  204.2960  147.4670 N   0  0  0  0  0  1  0  0  0  0  0  0
  161.2320  203.5750  149.8510 C   0  0  0  0  0  2  0  0  0  0  0  0
  161.0290  205.8190  149.1110 C   0  0  0  0  0  0  0  0  0  0  0  0
  160.8340  206.8620  149.8520 C   0  0  0  0  0  3  0  0  0  0  0  0
  161.2040  205.2290  151.8220 C   0  0  0  0  0  2  0  0  0  0  0  0
  160.7580  206.6540  151.3530 C   0  0  1  0  0  3  0  0  0  0  0  0
  159.3340  211.9790  154.2990 O   0  0  0  0  0  1  0  0  0  0  0  0
  160.6580  211.8590  154.7220 C   0  0  0  0  0  2  0  0  0  0  0  0
  159.4330  209.4110  156.0480 O   0  0  0  0  0  0  0  0  0  0  0  0
  159.1050  210.0710  157.2320 C   0  0  0  0  0  1  0  0  0  0  0  0
  1 26  1  6  0  0  0
  2 12  2  0  0  0  0
  3  6  1  1  0  0  0
  4  7  1  6  0  0  0
  4 13  1  0  0  0  0
  5 25  1  1  0  0  0
  5  1  1  0  0  0  0
  6 15  1  0  0  0  0
  8  4  1  0  0  0  0
 10  8  2  0  0  0  0
 11  8  1  6  0  0  0
 11  3  1  0  0  0  0
 12 10  1  0  0  0  0
 12 14  1  0  0  0  0
 13  3  1  0  0  0  0
 13  5  1  0  0  0  0
 14  7  2  0  0  0  0
 15  1  1  0  0  0  0
 15  9  2  0  0  0  0
 16 22  1  0  0  0  0
 17 20  2  0  0  0  0
 17 19  1  0  0  0  0
 18 17  1  0  0  0  0
 19 16  1  0  0  0  0
 20 21  2  0  0  0  0
 21 23  1  0  0  0  0
 23 22  1  0  0  0  0
 23 11  1  0  0  0  0
 24 25  1  0  0  0  0
 26 27  1  0  0  0  0
M  END
>  <MODEL>
5

>  <REMARK>
 VINA RESULT:      -6.8      1.289      1.571
  Name = 
  3 active torsions:
  status: ('A' for Active; 'I' for Inactive)
    1  A    between atoms: C_5  and  O_8
    2  A    between atoms: C_11  and  C_14
    3  A    between atoms: C_20  and  C_26
                            x       y       z     vdW  Elec       q    Type
                         _______ _______ _______ _____ _____    ______ ____

>  <TORSDO>
F 3

$$$$
=
 OpenBabel11072413163D

 27 30  0  0  1  0  0  0  0  0999 V2000
  160.5410  201.6510  148.1000 C   0  0  2  0  0  3  0  0  0  0  0  0
  161.5890  209.4630  148.1280 O   0  0  0  0  0  0  0  0  0  0  0  0
  160.9580  203.8760  149.9300 C   0  0  2  0  0  3  0  0  0  0  0  0
  161.1840  205.4330  148.0560 C   0  0  2  0  0  3  0  0  0  0  0  0
  160.8120  203.0300  147.4900 C   0  0  1  0  0  3  0  0  0  0  0  0
  159.8240  203.0180  150.0610 O   0  0  0  0  0  0  0  0  0  0  0  0
  162.2220  206.0830  147.1740 C   0  0  0  0  0  3  0  0  0  0  0  0
  160.9530  206.1740  149.3250 C   0  0  0  0  0  0  0  0  0  0  0  0
  158.7910  201.0150  149.5840 O   0  0  0  0  0  0  0  0  0  0  0  0
  161.0470  207.5090  149.3690 C   0  0  0  0  0  3  0  0  0  0  0  0
  160.6060  205.2720  150.4660 C   0  0  2  0  0  3  0  0  0  0  0  0
  161.6320  208.2080  148.2080 C   0  0  0  0  0  0  0  0  0  0  0  0
  161.4820  204.0090  148.4710 C   0  0  2  0  0  3  0  0  0  0  0  0
  162.3720  207.4140  147.2020 C   0  0  0  0  0  3  0  0  0  0  0  0
  159.6820  201.8580  149.2970 C   0  0  0  0  0  0  0  0  0  0  0  0
  161.1240  205.4660  154.3860 C   0  0  0  0  0  2  0  0  0  0  0  0
  161.4610  207.9830  154.0840 C   0  0  0  0  0  0  0  0  0  0  0  0
  161.3300  209.3510  154.4590 N   0  0  0  0  0  1  0  0  0  0  0  0
  160.8070  206.8980  154.8990 C   0  0  0  0  0  2  0  0  0  0  0  0
  161.7540  207.6660  152.8640 C   0  0  0  0  0  0  0  0  0  0  0  0
  161.9000  206.9840  151.7740 C   0  0  0  0  0  3  0  0  0  0  0  0
  160.5010  205.1870  153.0010 C   0  0  0  0  0  2  0  0  0  0  0  0
  161.3900  205.5550  151.7650 C   0  0  1  0  0  3  0  0  0  0  0  0
  160.6880  202.3650  145.1820 O   0  0  0  0  0  1  0  0  0  0  0  0
  161.5170  202.9540  146.1370 C   0  0  0  0  0  2  0  0  0  0  0  0
  161.7340  201.0280  148.4810 O   0  0  0  0  0  0  0  0  0  0  0  0
  161.8410  199.9200  147.6410 C   0  0  0  0  0  1  0  0  0  0  0  0
  1 26  1  1  0  0  0
  1 15  1  0  0  0  0
  2 12  2  0  0  0  0
  3  6  1  6  0  0  0
  3 11  1  0  0  0  0
  4  7  1  1  0  0  0
  4 13  1  0  0  0  0
  4  8  1  0  0  0  0
  5 25  1  6  0  0  0
  5  1  1  0  0  0  0
  5 13  1  0  0  0  0
  7 14  2  0  0  0  0
  8 10  2  0  0  0  0
 11  8  1  6  0  0  0
 11 23  1  0  0  0  0
 12 10  1  0  0  0  0
 13  3  1  0  0  0  0
 14 12  1  0  0  0  0
 15  9  2  0  0  0  0
 15  6  1  0  0  0  0
 16 19  1  0  0  0  0
 17 18  1  0  0  0  0
 17 19  1  0  0  0  0
 20 17  2  0  0  0  0
 21 20  2  0  0  0  0
 22 16  1  0  0  0  0
 23 21  1  0  0  0  0
 23 22  1  0  0  0  0
 24 25  1  0  0  0  0
 27 26  1  0  0  0  0
M  END
>  <MODEL>
6

>  <REMARK>
 VINA RESULT:      -6.6      3.676      7.145
  Name = 
  3 active torsions:
  status: ('A' for Active; 'I' for Inactive)
    1  A    between atoms: C_5  and  O_8
    2  A    between atoms: C_11  and  C_14
    3  A    between atoms: C_20  and  C_26
                            x       y       z     vdW  Elec       q    Type
                         _______ _______ _______ _____ _____    ______ ____

>  <TORSDO>
F 3

$$$$
=
 OpenBabel11072413163D

 27 30  0  0  1  0  0  0  0  0999 V2000
  161.5340  206.7810  149.6350 C   0  0  2  0  0  3  0  0  0  0  0  0
  161.4740  208.7760  157.2600 O   0  0  0  0  0  0  0  0  0  0  0  0
  161.2280  209.0980  151.3710 C   0  0  2  0  0  3  0  0  0  0  0  0
  161.3770  207.6840  153.3610 C   0  0  2  0  0  3  0  0  0  0  0  0
  161.4950  206.5350  151.1470 C   0  0  1  0  0  3  0  0  0  0  0  0
  162.2290  209.0690  150.3510 O   0  0  0  0  0  0  0  0  0  0  0  0
  160.5150  206.9410  154.3540 C   0  0  0  0  0  3  0  0  0  0  0  0
  161.5780  209.1120  153.7210 C   0  0  0  0  0  0  0  0  0  0  0  0
  163.0430  208.1490  148.4030 O   0  0  0  0  0  0  0  0  0  0  0  0
  161.6480  209.4960  155.0010 C   0  0  0  0  0  3  0  0  0  0  0  0
  161.7000  209.9980  152.5220 C   0  0  2  0  0  3  0  0  0  0  0  0
  161.2670  208.5240  156.0450 C   0  0  0  0  0  0  0  0  0  0  0  0
  160.8650  207.6960  151.9370 C   0  0  2  0  0  3  0  0  0  0  0  0
  160.5310  207.3050  155.6430 C   0  0  0  0  0  3  0  0  0  0  0  0
  162.2960  208.0380  149.4110 C   0  0  0  0  0  0  0  0  0  0  0  0
  158.3320  212.0580  152.8130 C   0  0  0  0  0  2  0  0  0  0  0  0
  158.8420  212.9670  150.4770 C   0  0  0  0  0  0  0  0  0  0  0  0
  158.4990  213.4020  149.1650 N   0  0  0  0  0  1  0  0  0  0  0  0
  157.7910  212.4040  151.3970 C   0  0  0  0  0  2  0  0  0  0  0  0
  160.0630  212.6470  150.7610 C   0  0  0  0  0  0  0  0  0  0  0  0
  161.0920  212.1430  151.3620 C   0  0  0  0  0  3  0  0  0  0  0  0
  159.3370  210.8860  152.7860 C   0  0  0  0  0  2  0  0  0  0  0  0
  160.8390  211.2780  152.5830 C   0  0  1  0  0  3  0  0  0  0  0  0
  161.6130  204.1490  150.8660 O   0  0  0  0  0  1  0  0  0  0  0  0
  160.9170  205.1700  151.5140 C   0  0  0  0  0  2  0  0  0  0  0  0
  160.2420  206.9160  149.1160 O   0  0  0  0  0  0  0  0  0  0  0  0
  160.2670  206.2150  147.9110 C   0  0  0  0  0  1  0  0  0  0  0  0
  1 26  1  1  0  0  0
  1  5  1  0  0  0  0
  3  6  1  6  0  0  0
  3 13  1  0  0  0  0
  3 11  1  0  0  0  0
  4  8  1  0  0  0  0
  4  7  1  1  0  0  0
  5 25  1  6  0  0  0
  5 13  1  0  0  0  0
  7 14  2  0  0  0  0
  8 10  2  0  0  0  0
  9 15  2  0  0  0  0
 10 12  1  0  0  0  0
 11 23  1  0  0  0  0
 11  8  1  1  0  0  0
 12  2  2  0  0  0  0
 13  4  1  0  0  0  0
 14 12  1  0  0  0  0
 15  1  1  0  0  0  0
 15  6  1  0  0  0  0
 17 20  2  0  0  0  0
 17 19  1  0  0  0  0
 18 17  1  0  0  0  0
 19 16  1  0  0  0  0
 20 21  2  0  0  0  0
 21 23  1  0  0  0  0
 22 16  1  0  0  0  0
 23 22  1  0  0  0  0
 24 25  1  0  0  0  0
 27 26  1  0  0  0  0
M  END
>  <MODEL>
7

>  <REMARK>
 VINA RESULT:      -6.4      3.022      7.097
  Name = 
  3 active torsions:
  status: ('A' for Active; 'I' for Inactive)
    1  A    between atoms: C_5  and  O_8
    2  A    between atoms: C_11  and  C_14
    3  A    between atoms: C_20  and  C_26
                            x       y       z     vdW  Elec       q    Type
                         _______ _______ _______ _____ _____    ______ ____

>  <TORSDO>
F 3

$$$$
=
 OpenBabel11072413163D

 27 30  0  0  1  0  0  0  0  0999 V2000
  161.6540  203.7750  145.3080 C   0  0  2  0  0  3  0  0  0  0  0  0
  161.0130  203.5650  153.1610 O   0  0  0  0  0  0  0  0  0  0  0  0
  161.4650  205.5400  147.6160 C   0  0  2  0  0  3  0  0  0  0  0  0
  161.2060  203.6240  149.1160 C   0  0  2  0  0  3  0  0  0  0  0  0
  161.4180  203.1300  146.6770 C   0  0  1  0  0  3  0  0  0  0  0  0
  162.5590  205.6370  146.7030 O   0  0  0  0  0  0  0  0  0  0  0  0
  160.1500  202.7800  149.7890 C   0  0  0  0  0  3  0  0  0  0  0  0
  161.5520  204.8480  149.8870 C   0  0  0  0  0  0  0  0  0  0  0  0
  163.4570  205.1760  144.6320 O   0  0  0  0  0  0  0  0  0  0  0  0
  161.5290  204.8460  151.2260 C   0  0  0  0  0  3  0  0  0  0  0  0
  161.9200  206.0000  149.0090 C   0  0  2  0  0  3  0  0  0  0  0  0
  160.9110  203.6950  151.9140 C   0  0  0  0  0  0  0  0  0  0  0  0
  160.8610  204.1100  147.7250 C   0  0  2  0  0  3  0  0  0  0  0  0
  160.0710  202.7670  151.1260 C   0  0  0  0  0  3  0  0  0  0  0  0
  162.5950  204.9100  145.5110 C   0  0  0  0  0  0  0  0  0  0  0  0
  161.5810  209.9390  149.2150 C   0  0  0  0  0  2  0  0  0  0  0  0
  161.5890  209.6740  151.7590 C   0  0  0  0  0  0  0  0  0  0  0  0
  161.9240  210.0570  153.0890 N   0  0  0  0  0  1  0  0  0  0  0  0
  162.1150  210.4530  150.5810 C   0  0  0  0  0  2  0  0  0  0  0  0
  161.2090  208.4640  151.5030 C   0  0  0  0  0  0  0  0  0  0  0  0
  160.9280  207.3740  150.8640 C   0  0  0  0  0  3  0  0  0  0  0  0
  162.1070  208.5280  148.8730 C   0  0  0  0  0  2  0  0  0  0  0  0
  161.2330  207.3320  149.3790 C   0  0  1  0  0  3  0  0  0  0  0  0
  160.4570  201.4390  145.2620 O   0  0  0  0  0  1  0  0  0  0  0  0
  160.6280  201.8250  146.5920 C   0  0  0  0  0  2  0  0  0  0  0  0
  160.4570  204.2500  144.7640 O   0  0  0  0  0  0  0  0  0  0  0  0
  160.8290  205.3420  143.9810 C   0  0  0  0  0  1  0  0  0  0  0  0
  1 26  1  1  0  0  0
  1 15  1  0  0  0  0
  1  5  1  0  0  0  0
  3  6  1  6  0  0  0
  3 13  1  0  0  0  0
  3 11  1  0  0  0  0
  4  7  1  1  0  0  0
  4  8  1  0  0  0  0
  5 25  1  6  0  0  0
  5 13  1  0  0  0  0
  7 14  2  0  0  0  0
  8 10  2  0  0  0  0
  9 15  2  0  0  0  0
 10 12  1  0  0  0  0
 11 23  1  0  0  0  0
 11  8  1  1  0  0  0
 12  2  2  0  0  0  0
 13  4  1  0  0  0  0
 14 12  1  0  0  0  0
 15  6  1  0  0  0  0
 16 19  1  0  0  0  0
 17 18  1  0  0  0  0
 19 17  1  0  0  0  0
 20 17  2  0  0  0  0
 21 20  2  0  0  0  0
 22 16  1  0  0  0  0
 22 23  1  0  0  0  0
 23 21  1  0  0  0  0
 24 25  1  0  0  0  0
 27 26  1  0  0  0  0
M  END
>  <MODEL>
8

>  <REMARK>
 VINA RESULT:      -6.3      3.508      8.265
  Name = 
  3 active torsions:
  status: ('A' for Active; 'I' for Inactive)
    1  A    between atoms: C_5  and  O_8
    2  A    between atoms: C_11  and  C_14
    3  A    between atoms: C_20  and  C_26
                            x       y       z     vdW  Elec       q    Type
                         _______ _______ _______ _____ _____    ______ ____

>  <TORSDO>
F 3

$$$$
=
 OpenBabel11072413163D

 27 30  0  0  1  0  0  0  0  0999 V2000
  161.2170  208.9190  153.3200 C   0  0  2  0  0  3  0  0  0  0  0  0
  160.4780  201.9060  149.8000 O   0  0  0  0  0  0  0  0  0  0  0  0
  161.1220  207.7090  150.6740 C   0  0  2  0  0  3  0  0  0  0  0  0
  160.9910  205.4710  151.6530 C   0  0  2  0  0  3  0  0  0  0  0  0
  161.1700  207.3910  153.2400 C   0  0  1  0  0  3  0  0  0  0  0  0
  160.2110  208.7460  151.0420 O   0  0  0  0  0  0  0  0  0  0  0  0
  161.8560  204.3010  152.0580 C   0  0  0  0  0  3  0  0  0  0  0  0
  160.6000  205.4360  150.2190 C   0  0  0  0  0  0  0  0  0  0  0  0
  159.6550  210.4880  152.4420 O   0  0  0  0  0  0  0  0  0  0  0  0
  160.3910  204.2730  149.5910 C   0  0  0  0  0  3  0  0  0  0  0  0
  160.4660  206.8010  149.6230 C   0  0  2  0  0  3  0  0  0  0  0  0
  160.8030  203.0280  150.2690 C   0  0  0  0  0  0  0  0  0  0  0  0
  161.6020  206.8380  151.8710 C   0  0  2  0  0  3  0  0  0  0  0  0
  161.7020  203.1230  151.4400 C   0  0  0  0  0  3  0  0  0  0  0  0
  160.3330  209.4450  152.2440 C   0  0  0  0  0  0  0  0  0  0  0  0
  160.8170  206.4830  145.6930 C   0  0  0  0  0  2  0  0  0  0  0  0
  162.8630  205.0100  146.1290 C   0  0  0  0  0  0  0  0  0  0  0  0
  163.7340  203.9140  145.8710 N   0  0  0  0  0  1  0  0  0  0  0  0
  161.6000  205.1910  145.3280 C   0  0  0  0  0  2  0  0  0  0  0  0
  162.8870  205.6080  147.2760 C   0  0  0  0  0  0  0  0  0  0  0  0
  162.5430  206.3380  148.2870 C   0  0  0  0  0  3  0  0  0  0  0  0
  160.2360  206.4320  147.1230 C   0  0  0  0  0  2  0  0  0  0  0  0
  161.1660  206.9750  148.2590 C   0  0  1  0  0  3  0  0  0  0  0  0
  161.5810  207.3680  155.6100 O   0  0  0  0  0  1  0  0  0  0  0  0
  161.8740  206.7110  154.4140 C   0  0  0  0  0  2  0  0  0  0  0  0
  162.5200  209.3920  153.1300 O   0  0  0  0  0  0  0  0  0  0  0  0
  162.6800  210.3890  154.0910 C   0  0  0  0  0  1  0  0  0  0  0  0
  1 26  1  6  0  0  0
  2 12  2  0  0  0  0
  3  6  1  1  0  0  0
  3 13  1  0  0  0  0
  4 13  1  0  0  0  0
  4  7  1  6  0  0  0
  5  1  1  0  0  0  0
  5 25  1  1  0  0  0
  6 15  1  0  0  0  0
  8  4  1  0  0  0  0
 10  8  2  0  0  0  0
 10 12  1  0  0  0  0
 11  8  1  1  0  0  0
 11  3  1  0  0  0  0
 12 14  1  0  0  0  0
 13  5  1  0  0  0  0
 14  7  2  0  0  0  0
 15  9  2  0  0  0  0
 15  1  1  0  0  0  0
 16 22  1  0  0  0  0
 17 20  2  0  0  0  0
 18 17  1  0  0  0  0
 19 16  1  0  0  0  0
 19 17  1  0  0  0  0
 20 21  2  0  0  0  0
 22 23  1  0  0  0  0
 23 21  1  0  0  0  0
 23 11  1  0  0  0  0
 25 24  1  0  0  0  0
 26 27  1  0  0  0  0
M  END
>  <MODEL>
9

>  <REMARK>
 VINA RESULT:      -6.0      2.573      4.537
  Name = 
  3 active torsions:
  status: ('A' for Active; 'I' for Inactive)
    1  A    between atoms: C_5  and  O_8
    2  A    between atoms: C_11  and  C_14
    3  A    between atoms: C_20  and  C_26
                            x       y       z     vdW  Elec       q    Type
                         _______ _______ _______ _____ _____    ______ ____

>  <TORSDO>
F 3

$$$$
