=
 OpenBabel11072413593D

 29 33  0  0  1  0  0  0  0  0999 V2000
  161.0980  209.3050  151.8520 C   0  0  0  0  0  3  0  0  0  0  0  0
  160.9640  207.6150  153.5620 C   0  0  0  0  0  3  0  0  0  0  0  0
  160.6340  208.6000  154.4990 C   0  0  0  0  0  0  0  0  0  0  0  0
  159.9590  210.5620  156.3400 C   0  0  0  0  0  3  0  0  0  0  0  0
  160.3760  208.2780  155.8380 C   0  0  0  0  0  0  0  0  0  0  0  0
  161.2000  207.9660  152.2290 C   0  0  0  0  0  0  0  0  0  0  0  0
  160.4500  206.9280  156.2930 N   0  0  0  0  0  1  0  0  0  0  0  0
  160.5490  209.9490  154.0800 C   0  0  0  0  0  0  0  0  0  0  0  0
  160.0430  209.2590  156.7160 N   0  0  0  0  0  0  0  0  0  0  0  0
  160.2160  210.9490  155.0220 C   0  0  0  0  0  0  0  0  0  0  0  0
  160.7780  210.2530  152.7720 N   0  0  0  0  0  0  0  0  0  0  0  0
  161.1380  207.3530  149.8820 N   0  0  0  0  0  0  0  0  0  0  0  0
  160.9230  200.9750  149.8040 O   0  0  0  0  0  1  0  0  0  0  0  0
  161.4270  205.0830  149.1370 C   0  0  1  0  0  3  0  0  0  0  0  0
  160.5960  202.3040  149.5330 C   0  0  2  0  0  3  0  0  0  0  0  0
  161.5580  206.9350  151.2100 C   0  0  2  0  0  3  0  0  0  0  0  0
  161.0180  205.5430  151.6070 C   0  0  0  0  0  2  0  0  0  0  0  0
  161.0930  206.5210  148.8990 C   0  0  0  0  0  3  0  0  0  0  0  0
  161.3040  202.7540  148.2540 C   0  0  0  0  0  2  0  0  0  0  0  0
  160.6940  204.6400  150.4060 C   0  0  2  0  0  3  0  0  0  0  0  0
  160.9950  204.2200  147.9560 C   0  0  0  0  0  2  0  0  0  0  0  0
  161.0060  203.1810  150.7150 C   0  0  0  0  0  2  0  0  0  0  0  0
  160.1130  212.3160  154.7180 O   0  0  0  0  0  0  0  0  0  0  0  0
  158.4120  213.6980  155.6620 C   0  0  0  0  0  0  0  0  0  0  0  0
  156.3090  212.4970  154.7660 S   0  0  0  0  0  0  0  0  0  0  0  0
  158.8980  213.0060  154.4470 C   0  0  2  0  0  3  0  0  0  0  0  0
  159.1340  214.4530  156.3650 O   0  0  0  0  0  0  0  0  0  0  0  0
  157.0900  213.4850  155.9510 O   0  0  0  0  0  0  0  0  0  0  0  0
  157.8750  212.0410  154.0420 N   0  0  0  0  0  2  0  0  0  0  0  0
  1  6  2  0  0  0  0
  1 11  1  0  0  0  0
  2  3  2  0  0  0  0
  3  5  1  0  0  0  0
  4  9  1  0  0  0  0
  5  7  1  0  0  0  0
  5  9  2  0  0  0  0
  6  2  1  0  0  0  0
  8  3  1  0  0  0  0
  8 10  1  0  0  0  0
 10  4  2  0  0  0  0
 11  8  2  0  0  0  0
 12 16  1  0  0  0  0
 14 21  1  6  0  0  0
 14 20  1  0  0  0  0
 15 13  1  1  0  0  0
 15 22  1  0  0  0  0
 16 17  1  0  0  0  0
 16  6  1  1  0  0  0
 18 14  1  0  0  0  0
 18 12  2  0  0  0  0
 19 15  1  0  0  0  0
 20 22  1  1  0  0  0
 20 17  1  0  0  0  0
 21 19  1  0  0  0  0
 23 10  1  0  0  0  0
 24 28  1  0  0  0  0
 24 27  2  0  0  0  0
 25 28  1  0  0  0  0
 26 23  1  1  0  0  0
 26 24  1  0  0  0  0
 29 26  1  0  0  0  0
 29 25  1  0  0  0  0
M  END
>  <MODEL>
1

>  <REMARK>
 VINA RESULT:      -9.1      0.000      0.000
  Name = 
  3 active torsions:
  status: ('A' for Active; 'I' for Inactive)
    1  A    between atoms: O_2  and  C_15
    2  A    between atoms: O_2  and  C_25
    3  A    between atoms: C_12  and  C_14
                            x       y       z     vdW  Elec       q    Type
                         _______ _______ _______ _____ _____    ______ ____

>  <TORSDO>
F 3

$$$$
=
 OpenBabel11072413593D

 29 33  0  0  1  0  0  0  0  0999 V2000
  161.6870  209.0060  150.5610 C   0  0  0  0  0  3  0  0  0  0  0  0
  161.3980  207.0500  151.9350 C   0  0  0  0  0  3  0  0  0  0  0  0
  161.1170  207.8710  153.0320 C   0  0  0  0  0  0  0  0  0  0  0  0
  160.5400  209.5130  155.1920 C   0  0  0  0  0  3  0  0  0  0  0  0
  160.8080  207.3330  154.2880 C   0  0  0  0  0  0  0  0  0  0  0  0
  161.6870  207.6170  150.6900 C   0  0  0  0  0  0  0  0  0  0  0  0
  160.7780  205.9210  154.4920 N   0  0  0  0  0  1  0  0  0  0  0  0
  161.1360  209.2760  152.8630 C   0  0  0  0  0  0  0  0  0  0  0  0
  160.5260  208.1620  155.3260 N   0  0  0  0  0  0  0  0  0  0  0  0
  160.8520  210.1110  153.9690 C   0  0  0  0  0  0  0  0  0  0  0  0
  161.4140  209.7940  151.6350 N   0  0  0  0  0  0  0  0  0  0  0  0
  161.5910  207.4240  148.2730 N   0  0  0  0  0  0  0  0  0  0  0  0
  161.0800  201.1730  147.0940 O   0  0  0  0  0  1  0  0  0  0  0  0
  161.7730  205.3070  147.1430 C   0  0  1  0  0  3  0  0  0  0  0  0
  160.8150  202.5420  147.0610 C   0  0  2  0  0  3  0  0  0  0  0  0
  161.9950  206.7640  149.5040 C   0  0  2  0  0  3  0  0  0  0  0  0
  161.3920  205.3500  149.6590 C   0  0  0  0  0  2  0  0  0  0  0  0
  161.5050  206.7790  147.1610 C   0  0  0  0  0  3  0  0  0  0  0  0
  161.5390  203.1740  145.8720 C   0  0  0  0  0  2  0  0  0  0  0  0
  161.0230  204.6850  148.3240 C   0  0  2  0  0  3  0  0  0  0  0  0
  161.2980  204.6830  145.8360 C   0  0  0  0  0  2  0  0  0  0  0  0
  161.2680  203.1810  148.3730 C   0  0  0  0  0  2  0  0  0  0  0  0
  160.8520  211.5150  153.9170 O   0  0  0  0  0  0  0  0  0  0  0  0
  159.3670  212.7690  155.3010 C   0  0  0  0  0  0  0  0  0  0  0  0
  157.0970  211.9570  154.3760 S   0  0  0  0  0  0  0  0  0  0  0  0
  159.6890  212.3350  153.9230 C   0  0  2  0  0  3  0  0  0  0  0  0
  160.2090  213.2930  156.0760 O   0  0  0  0  0  0  0  0  0  0  0  0
  158.0580  212.5930  155.6650 O   0  0  0  0  0  0  0  0  0  0  0  0
  158.5510  211.5620  153.4200 N   0  0  0  0  0  2  0  0  0  0  0  0
  1  6  2  0  0  0  0
  1 11  1  0  0  0  0
  2  3  2  0  0  0  0
  3  5  1  0  0  0  0
  4  9  1  0  0  0  0
  5  7  1  0  0  0  0
  5  9  2  0  0  0  0
  6  2  1  0  0  0  0
  8  3  1  0  0  0  0
  8 10  1  0  0  0  0
 10  4  2  0  0  0  0
 11  8  2  0  0  0  0
 12 16  1  0  0  0  0
 14 21  1  6  0  0  0
 14 18  1  0  0  0  0
 14 20  1  0  0  0  0
 15 13  1  1  0  0  0
 15 22  1  0  0  0  0
 16 17  1  0  0  0  0
 16  6  1  1  0  0  0
 18 12  2  0  0  0  0
 19 15  1  0  0  0  0
 20 22  1  1  0  0  0
 20 17  1  0  0  0  0
 21 19  1  0  0  0  0
 23 10  1  0  0  0  0
 24 28  1  0  0  0  0
 24 27  2  0  0  0  0
 25 28  1  0  0  0  0
 26 23  1  1  0  0  0
 26 24  1  0  0  0  0
 29 26  1  0  0  0  0
 29 25  1  0  0  0  0
M  END
>  <MODEL>
2

>  <REMARK>
 VINA RESULT:      -8.7      1.398      1.805
  Name = 
  3 active torsions:
  status: ('A' for Active; 'I' for Inactive)
    1  A    between atoms: O_2  and  C_15
    2  A    between atoms: O_2  and  C_25
    3  A    between atoms: C_12  and  C_14
                            x       y       z     vdW  Elec       q    Type
                         _______ _______ _______ _____ _____    ______ ____

>  <TORSDO>
F 3

$$$$
=
 OpenBabel11072413593D

 29 33  0  0  1  0  0  0  0  0999 V2000
  160.4510  209.4540  152.2490 C   0  0  0  0  0  3  0  0  0  0  0  0
  161.1880  207.9310  153.9620 C   0  0  0  0  0  3  0  0  0  0  0  0
  160.7600  208.8360  154.9400 C   0  0  0  0  0  0  0  0  0  0  0  0
  159.8860  210.6300  156.8660 C   0  0  0  0  0  3  0  0  0  0  0  0
  160.8840  208.5490  156.3060 C   0  0  0  0  0  0  0  0  0  0  0  0
  161.0360  208.2390  152.6070 C   0  0  0  0  0  0  0  0  0  0  0  0
  161.4620  207.3210  156.7460 N   0  0  0  0  0  1  0  0  0  0  0  0
  160.1800  210.0620  154.5370 C   0  0  0  0  0  0  0  0  0  0  0  0
  160.4430  209.4450  157.2260 N   0  0  0  0  0  0  0  0  0  0  0  0
  159.7450  210.9800  155.5210 C   0  0  0  0  0  0  0  0  0  0  0  0
  160.0400  210.3260  153.2080 N   0  0  0  0  0  0  0  0  0  0  0  0
  161.1900  207.8210  150.2220 N   0  0  0  0  0  0  0  0  0  0  0  0
  160.9990  201.4730  149.6010 O   0  0  0  0  0  1  0  0  0  0  0  0
  161.5510  205.6190  149.3220 C   0  0  1  0  0  3  0  0  0  0  0  0
  160.6950  202.8210  149.4120 C   0  0  2  0  0  3  0  0  0  0  0  0
  161.4880  207.2940  151.5440 C   0  0  2  0  0  3  0  0  0  0  0  0
  160.9180  205.8760  151.7740 C   0  0  0  0  0  2  0  0  0  0  0  0
  161.2360  207.0730  149.1730 C   0  0  0  0  0  3  0  0  0  0  0  0
  161.5150  203.3700  148.2430 C   0  0  0  0  0  2  0  0  0  0  0  0
  160.7070  205.0770  150.4780 C   0  0  2  0  0  3  0  0  0  0  0  0
  161.2310  204.8580  148.0400 C   0  0  0  0  0  2  0  0  0  0  0  0
  160.9930  203.5960  150.6940 C   0  0  0  0  0  2  0  0  0  0  0  0
  159.1650  212.2270  155.2350 O   0  0  0  0  0  0  0  0  0  0  0  0
  156.7930  211.9750  155.1740 C   0  0  0  0  0  0  0  0  0  0  0  0
  156.0820  214.4530  155.0230 S   0  0  0  0  0  0  0  0  0  0  0  0
  157.9360  212.7020  155.7720 C   0  0  2  0  0  3  0  0  0  0  0  0
  156.7260  210.7200  155.1140 O   0  0  0  0  0  0  0  0  0  0  0  0
  155.7810  212.7780  154.7190 O   0  0  0  0  0  0  0  0  0  0  0  0
  157.7830  214.1210  155.4470 N   0  0  0  0  0  2  0  0  0  0  0  0
  1  6  2  0  0  0  0
  1 11  1  0  0  0  0
  2  3  2  0  0  0  0
  3  5  1  0  0  0  0
  4  9  1  0  0  0  0
  5  7  1  0  0  0  0
  5  9  2  0  0  0  0
  6  2  1  0  0  0  0
  8  3  1  0  0  0  0
  8 10  1  0  0  0  0
 10  4  2  0  0  0  0
 11  8  2  0  0  0  0
 12 16  1  0  0  0  0
 14 21  1  6  0  0  0
 14 20  1  0  0  0  0
 15 13  1  1  0  0  0
 15 22  1  0  0  0  0
 16 17  1  0  0  0  0
 16  6  1  1  0  0  0
 18 14  1  0  0  0  0
 18 12  2  0  0  0  0
 19 15  1  0  0  0  0
 20 22  1  1  0  0  0
 20 17  1  0  0  0  0
 21 19  1  0  0  0  0
 23 10  1  0  0  0  0
 24 26  1  0  0  0  0
 25 29  1  0  0  0  0
 26 23  1  6  0  0  0
 27 24  2  0  0  0  0
 28 25  1  0  0  0  0
 28 24  1  0  0  0  0
 29 26  1  0  0  0  0
M  END
>  <MODEL>
3

>  <REMARK>
 VINA RESULT:      -8.5      1.170      1.365
  Name = 
  3 active torsions:
  status: ('A' for Active; 'I' for Inactive)
    1  A    between atoms: O_2  and  C_15
    2  A    between atoms: O_2  and  C_25
    3  A    between atoms: C_12  and  C_14
                            x       y       z     vdW  Elec       q    Type
                         _______ _______ _______ _____ _____    ______ ____

>  <TORSDO>
F 3

$$$$
=
 OpenBabel11072413593D

 29 33  0  0  1  0  0  0  0  0999 V2000
  161.3030  207.8600  151.1550 C   0  0  0  0  0  3  0  0  0  0  0  0
  161.0940  205.8070  152.3950 C   0  0  0  0  0  3  0  0  0  0  0  0
  161.0500  205.0940  151.1930 C   0  0  0  0  0  0  0  0  0  0  0  0
  160.9860  203.6910  148.8000 C   0  0  0  0  0  3  0  0  0  0  0  0
  160.9400  203.6970  151.1750 C   0  0  0  0  0  0  0  0  0  0  0  0
  161.2200  207.1990  152.3810 C   0  0  0  0  0  0  0  0  0  0  0  0
  160.8610  202.9540  152.3900 N   0  0  0  0  0  1  0  0  0  0  0  0
  161.1280  205.8000  149.9700 C   0  0  0  0  0  0  0  0  0  0  0  0
  160.9160  203.0370  149.9880 N   0  0  0  0  0  0  0  0  0  0  0  0
  161.0850  205.0840  148.7510 C   0  0  0  0  0  0  0  0  0  0  0  0
  161.2580  207.1560  149.9930 N   0  0  0  0  0  0  0  0  0  0  0  0
  160.5450  207.2980  154.7090 N   0  0  0  0  0  0  0  0  0  0  0  0
  160.0270  213.5140  156.0590 O   0  0  0  0  0  1  0  0  0  0  0  0
  160.5350  209.3540  155.9600 C   0  0  1  0  0  3  0  0  0  0  0  0
  159.7040  212.1610  155.9540 C   0  0  2  0  0  3  0  0  0  0  0  0
  161.2640  207.9850  153.6490 C   0  0  2  0  0  3  0  0  0  0  0  0
  160.7780  209.4350  153.4280 C   0  0  0  0  0  2  0  0  0  0  0  0
  160.2170  207.9010  155.8000 C   0  0  0  0  0  3  0  0  0  0  0  0
  160.0880  211.4420  157.2480 C   0  0  0  0  0  2  0  0  0  0  0  0
  160.1230  210.0640  154.6680 C   0  0  2  0  0  3  0  0  0  0  0  0
  159.7820  209.9490  157.1450 C   0  0  0  0  0  2  0  0  0  0  0  0
  160.4360  211.5520  154.7590 C   0  0  0  0  0  2  0  0  0  0  0  0
  161.1460  205.6830  147.4810 O   0  0  0  0  0  0  0  0  0  0  0  0
  162.6470  205.0190  145.7500 C   0  0  0  0  0  0  0  0  0  0  0  0
  161.2450  205.6440  143.6740 S   0  0  0  0  0  0  0  0  0  0  0  0
  161.2540  204.9810  146.2480 C   0  0  2  0  0  3  0  0  0  0  0  0
  163.6430  204.7100  146.4560 O   0  0  0  0  0  0  0  0  0  0  0  0
  162.7750  205.3810  144.4360 O   0  0  0  0  0  0  0  0  0  0  0  0
  160.4040  205.6290  145.2480 N   0  0  0  0  0  2  0  0  0  0  0  0
  1  6  1  0  0  0  0
  3  2  1  0  0  0  0
  4  9  1  0  0  0  0
  5  3  1  0  0  0  0
  5  7  1  0  0  0  0
  6  2  2  0  0  0  0
  8 11  1  0  0  0  0
  8  3  2  0  0  0  0
  9  5  2  0  0  0  0
 10  4  2  0  0  0  0
 10  8  1  0  0  0  0
 11  1  2  0  0  0  0
 12 18  2  0  0  0  0
 14 18  1  6  0  0  0
 14 21  1  0  0  0  0
 15 13  1  1  0  0  0
 15 19  1  0  0  0  0
 16  6  1  6  0  0  0
 16 12  1  0  0  0  0
 17 16  1  0  0  0  0
 20 17  1  6  0  0  0
 20 22  1  0  0  0  0
 20 14  1  0  0  0  0
 21 19  1  0  0  0  0
 22 15  1  0  0  0  0
 23 10  1  0  0  0  0
 24 26  1  0  0  0  0
 24 27  2  0  0  0  0
 25 28  1  0  0  0  0
 25 29  1  0  0  0  0
 26 23  1  1  0  0  0
 28 24  1  0  0  0  0
 29 26  1  0  0  0  0
M  END
>  <MODEL>
4

>  <REMARK>
 VINA RESULT:      -8.5      3.742      9.329
  Name = 
  3 active torsions:
  status: ('A' for Active; 'I' for Inactive)
    1  A    between atoms: O_2  and  C_15
    2  A    between atoms: O_2  and  C_25
    3  A    between atoms: C_12  and  C_14
                            x       y       z     vdW  Elec       q    Type
                         _______ _______ _______ _____ _____    ______ ____

>  <TORSDO>
F 3

$$$$
=
 OpenBabel11072413593D

 29 33  0  0  1  0  0  0  0  0999 V2000
  160.8400  205.7180  152.4810 C   0  0  0  0  0  3  0  0  0  0  0  0
  161.2570  206.6770  150.3120 C   0  0  0  0  0  3  0  0  0  0  0  0
  161.5140  207.9120  150.9160 C   0  0  0  0  0  0  0  0  0  0  0  0
  162.0420  210.3500  152.1300 C   0  0  0  0  0  3  0  0  0  0  0  0
  161.8730  209.0350  150.1590 C   0  0  0  0  0  0  0  0  0  0  0  0
  160.9160  205.5710  151.0960 C   0  0  0  0  0  0  0  0  0  0  0  0
  161.9810  208.9560  148.7390 N   0  0  0  0  0  1  0  0  0  0  0  0
  161.4180  208.0240  152.3230 C   0  0  0  0  0  0  0  0  0  0  0  0
  162.1310  210.2140  150.7820 N   0  0  0  0  0  0  0  0  0  0  0  0
  161.6770  209.2710  152.9390 C   0  0  0  0  0  0  0  0  0  0  0  0
  161.0910  206.9240  153.0560 N   0  0  0  0  0  0  0  0  0  0  0  0
  161.4240  203.1980  151.1070 N   0  0  0  0  0  0  0  0  0  0  0  0
  160.5070  201.2440  145.1010 O   0  0  0  0  0  1  0  0  0  0  0  0
  160.9200  201.7650  149.2400 C   0  0  1  0  0  3  0  0  0  0  0  0
  161.1210  201.4480  146.3370 C   0  0  2  0  0  3  0  0  0  0  0  0
  160.6320  204.2420  150.4770 C   0  0  2  0  0  3  0  0  0  0  0  0
  160.8040  204.2900  148.9420 C   0  0  0  0  0  2  0  0  0  0  0  0
  161.5530  202.0340  150.5680 C   0  0  0  0  0  3  0  0  0  0  0  0
  160.8310  200.2590  147.2540 C   0  0  0  0  0  2  0  0  0  0  0  0
  161.2380  202.9510  148.3260 C   0  0  2  0  0  3  0  0  0  0  0  0
  161.4590  200.4760  148.6300 C   0  0  0  0  0  2  0  0  0  0  0  0
  160.6060  202.7470  146.9550 C   0  0  0  0  0  2  0  0  0  0  0  0
  161.6020  209.4970  154.3240 O   0  0  0  0  0  0  0  0  0  0  0  0
  161.7210  210.8110  156.3110 C   0  0  0  0  0  0  0  0  0  0  0  0
  159.2330  211.4500  156.5780 S   0  0  0  0  0  0  0  0  0  0  0  0
  161.1880  210.7140  154.9340 C   0  0  2  0  0  3  0  0  0  0  0  0
  162.9340  210.6310  156.5990 O   0  0  0  0  0  0  0  0  0  0  0  0
  160.7950  211.1550  157.2600 O   0  0  0  0  0  0  0  0  0  0  0  0
  159.7270  210.7390  155.0170 N   0  0  0  0  0  2  0  0  0  0  0  0
  1 11  1  0  0  0  0
  2  3  2  0  0  0  0
  2  6  1  0  0  0  0
  3  8  1  0  0  0  0
  4 10  2  0  0  0  0
  5  9  2  0  0  0  0
  5  3  1  0  0  0  0
  6  1  2  0  0  0  0
  7  5  1  0  0  0  0
  8 10  1  0  0  0  0
  8 11  2  0  0  0  0
  9  4  1  0  0  0  0
 10 23  1  0  0  0  0
 14 21  1  6  0  0  0
 14 18  1  0  0  0  0
 15 13  1  6  0  0  0
 15 22  1  0  0  0  0
 15 19  1  0  0  0  0
 16  6  1  1  0  0  0
 16 12  1  0  0  0  0
 17 16  1  0  0  0  0
 18 12  2  0  0  0  0
 19 21  1  0  0  0  0
 20 22  1  6  0  0  0
 20 17  1  0  0  0  0
 20 14  1  0  0  0  0
 24 27  2  0  0  0  0
 24 28  1  0  0  0  0
 25 28  1  0  0  0  0
 26 23  1  1  0  0  0
 26 29  1  0  0  0  0
 26 24  1  0  0  0  0
 29 25  1  0  0  0  0
M  END
>  <MODEL>
5

>  <REMARK>
 VINA RESULT:      -8.3      2.403      4.125
  Name = 
  3 active torsions:
  status: ('A' for Active; 'I' for Inactive)
    1  A    between atoms: O_2  and  C_15
    2  A    between atoms: O_2  and  C_25
    3  A    between atoms: C_12  and  C_14
                            x       y       z     vdW  Elec       q    Type
                         _______ _______ _______ _____ _____    ______ ____

>  <TORSDO>
F 3

$$$$
=
 OpenBabel11072413593D

 29 33  0  0  1  0  0  0  0  0999 V2000
  161.5710  208.0730  150.2930 C   0  0  0  0  0  3  0  0  0  0  0  0
  161.2060  206.3440  151.9270 C   0  0  0  0  0  3  0  0  0  0  0  0
  161.1760  205.3920  150.9020 C   0  0  0  0  0  0  0  0  0  0  0  0
  161.1430  203.5130  148.8610 C   0  0  0  0  0  3  0  0  0  0  0  0
  160.9970  204.0290  151.1760 C   0  0  0  0  0  0  0  0  0  0  0  0
  161.4030  207.6940  151.6240 C   0  0  0  0  0  0  0  0  0  0  0  0
  160.8290  203.5670  152.5150 N   0  0  0  0  0  1  0  0  0  0  0  0
  161.3420  205.8160  149.5630 C   0  0  0  0  0  0  0  0  0  0  0  0
  160.9900  203.1320  150.1560 N   0  0  0  0  0  0  0  0  0  0  0  0
  161.3140  204.8580  148.5230 C   0  0  0  0  0  0  0  0  0  0  0  0
  161.5400  207.1390  149.3050 N   0  0  0  0  0  0  0  0  0  0  0  0
  161.2060  208.1310  154.0030 N   0  0  0  0  0  0  0  0  0  0  0  0
  158.9370  214.0790  154.4470 O   0  0  0  0  0  1  0  0  0  0  0  0
  160.7620  210.3300  154.8750 C   0  0  1  0  0  3  0  0  0  0  0  0
  159.0660  212.7050  154.6440 C   0  0  2  0  0  3  0  0  0  0  0  0
  161.4340  208.7310  152.6980 C   0  0  2  0  0  3  0  0  0  0  0  0
  160.4610  209.8900  152.3860 C   0  0  0  0  0  2  0  0  0  0  0  0
  160.9180  208.8510  155.0330 C   0  0  0  0  0  3  0  0  0  0  0  0
  159.9130  212.4440  155.8900 C   0  0  0  0  0  2  0  0  0  0  0  0
  159.8930  210.5750  153.6390 C   0  0  2  0  0  3  0  0  0  0  0  0
  160.1040  210.9430  156.1060 C   0  0  0  0  0  2  0  0  0  0  0  0
  159.7070  212.0710  153.4110 C   0  0  0  0  0  2  0  0  0  0  0  0
  161.4590  205.1680  147.1610 O   0  0  0  0  0  0  0  0  0  0  0  0
  160.8290  204.5750  144.9370 C   0  0  0  0  0  0  0  0  0  0  0  0
  160.3550  202.0570  145.2610 S   0  0  0  0  0  0  0  0  0  0  0  0
  161.6460  204.2170  146.1190 C   0  0  2  0  0  3  0  0  0  0  0  0
  160.8320  205.7210  144.4150 O   0  0  0  0  0  0  0  0  0  0  0  0
  160.0900  203.5450  144.4200 O   0  0  0  0  0  0  0  0  0  0  0  0
  161.2060  202.9000  146.5840 N   0  0  0  0  0  2  0  0  0  0  0  0
  1  6  1  0  0  0  0
  3  5  1  0  0  0  0
  3  2  1  0  0  0  0
  4  9  1  0  0  0  0
  5  7  1  0  0  0  0
  6  2  2  0  0  0  0
  8  3  2  0  0  0  0
  9  5  2  0  0  0  0
 10  4  2  0  0  0  0
 10  8  1  0  0  0  0
 11  8  1  0  0  0  0
 11  1  2  0  0  0  0
 12 18  2  0  0  0  0
 14 18  1  1  0  0  0
 14 21  1  0  0  0  0
 15 13  1  6  0  0  0
 15 19  1  0  0  0  0
 16  6  1  6  0  0  0
 16 12  1  0  0  0  0
 17 16  1  0  0  0  0
 19 21  1  0  0  0  0
 20 17  1  6  0  0  0
 20 14  1  0  0  0  0
 22 20  1  0  0  0  0
 22 15  1  0  0  0  0
 23 10  1  0  0  0  0
 24 26  1  0  0  0  0
 25 29  1  0  0  0  0
 26 29  1  0  0  0  0
 26 23  1  1  0  0  0
 27 24  2  0  0  0  0
 28 24  1  0  0  0  0
 28 25  1  0  0  0  0
M  END
>  <MODEL>
6

>  <REMARK>
 VINA RESULT:      -8.2      3.892      9.480
  Name = 
  3 active torsions:
  status: ('A' for Active; 'I' for Inactive)
    1  A    between atoms: O_2  and  C_15
    2  A    between atoms: O_2  and  C_25
    3  A    between atoms: C_12  and  C_14
                            x       y       z     vdW  Elec       q    Type
                         _______ _______ _______ _____ _____    ______ ____

>  <TORSDO>
F 3

$$$$
=
 OpenBabel11072413593D

 29 33  0  0  1  0  0  0  0  0999 V2000
  160.9180  205.7150  153.0630 C   0  0  0  0  0  3  0  0  0  0  0  0
  161.2510  206.9490  151.0230 C   0  0  0  0  0  3  0  0  0  0  0  0
  161.5700  208.0870  151.7720 C   0  0  0  0  0  0  0  0  0  0  0  0
  162.2220  210.3280  153.2710 C   0  0  0  0  0  3  0  0  0  0  0  0
  161.9210  209.2950  151.1530 C   0  0  0  0  0  0  0  0  0  0  0  0
  160.9210  205.7540  151.6680 C   0  0  0  0  0  0  0  0  0  0  0  0
  161.9560  209.4050  149.7320 N   0  0  0  0  0  1  0  0  0  0  0  0
  161.5470  208.0100  153.1840 C   0  0  0  0  0  0  0  0  0  0  0  0
  162.2390  210.3740  151.9140 N   0  0  0  0  0  0  0  0  0  0  0  0
  161.8690  209.1570  153.9460 C   0  0  0  0  0  0  0  0  0  0  0  0
  161.2290  206.8280  153.7800 N   0  0  0  0  0  0  0  0  0  0  0  0
  161.1740  203.3470  151.4940 N   0  0  0  0  0  0  0  0  0  0  0  0
  160.7490  202.0480  145.2610 O   0  0  0  0  0  1  0  0  0  0  0  0
  160.7390  202.1520  149.4510 C   0  0  1  0  0  3  0  0  0  0  0  0
  161.2360  202.0710  146.5680 C   0  0  2  0  0  3  0  0  0  0  0  0
  160.5720  204.5270  150.8930 C   0  0  2  0  0  3  0  0  0  0  0  0
  160.9230  204.6900  149.3970 C   0  0  0  0  0  2  0  0  0  0  0  0
  161.2410  202.2280  150.8580 C   0  0  0  0  0  3  0  0  0  0  0  0
  160.7200  200.8470  147.3260 C   0  0  0  0  0  2  0  0  0  0  0  0
  161.2820  203.3690  148.6980 C   0  0  2  0  0  3  0  0  0  0  0  0
  161.2060  200.8680  148.7750 C   0  0  0  0  0  2  0  0  0  0  0  0
  160.7910  203.3610  147.2550 C   0  0  0  0  0  2  0  0  0  0  0  0
  161.8690  209.1960  155.3510 O   0  0  0  0  0  0  0  0  0  0  0  0
  159.5820  209.3680  156.0060 C   0  0  0  0  0  0  0  0  0  0  0  0
  159.2270  211.9120  155.7380 S   0  0  0  0  0  0  0  0  0  0  0  0
  160.9450  209.9260  156.1500 C   0  0  2  0  0  3  0  0  0  0  0  0
  159.3170  208.1440  156.1360 O   0  0  0  0  0  0  0  0  0  0  0  0
  158.6070  210.2980  155.7580 O   0  0  0  0  0  0  0  0  0  0  0  0
  160.9090  211.3180  155.6960 N   0  0  0  0  0  2  0  0  0  0  0  0
  1 11  1  0  0  0  0
  2  6  1  0  0  0  0
  2  3  2  0  0  0  0
  3  8  1  0  0  0  0
  4 10  2  0  0  0  0
  5  3  1  0  0  0  0
  5  9  2  0  0  0  0
  6  1  2  0  0  0  0
  7  5  1  0  0  0  0
  8 11  2  0  0  0  0
  8 10  1  0  0  0  0
  9  4  1  0  0  0  0
 10 23  1  0  0  0  0
 14 21  1  6  0  0  0
 14 18  1  0  0  0  0
 15 13  1  6  0  0  0
 15 22  1  0  0  0  0
 15 19  1  0  0  0  0
 16 12  1  0  0  0  0
 16  6  1  1  0  0  0
 17 16  1  0  0  0  0
 18 12  2  0  0  0  0
 19 21  1  0  0  0  0
 20 22  1  6  0  0  0
 20 17  1  0  0  0  0
 20 14  1  0  0  0  0
 24 27  2  0  0  0  0
 24 26  1  0  0  0  0
 25 28  1  0  0  0  0
 26 23  1  6  0  0  0
 28 24  1  0  0  0  0
 29 25  1  0  0  0  0
 29 26  1  0  0  0  0
M  END
>  <MODEL>
7

>  <REMARK>
 VINA RESULT:      -8.2      2.344      3.866
  Name = 
  3 active torsions:
  status: ('A' for Active; 'I' for Inactive)
    1  A    between atoms: O_2  and  C_15
    2  A    between atoms: O_2  and  C_25
    3  A    between atoms: C_12  and  C_14
                            x       y       z     vdW  Elec       q    Type
                         _______ _______ _______ _____ _____    ______ ____

>  <TORSDO>
F 3

$$$$
=
 OpenBabel11072413593D

 29 33  0  0  1  0  0  0  0  0999 V2000
  160.9770  205.3660  151.8170 C   0  0  0  0  0  3  0  0  0  0  0  0
  161.6800  207.4150  150.7660 C   0  0  0  0  0  3  0  0  0  0  0  0
  161.5910  206.7950  149.5150 C   0  0  0  0  0  0  0  0  0  0  0  0
  161.3880  205.5570  147.0400 C   0  0  0  0  0  3  0  0  0  0  0  0
  161.8760  207.4910  148.3320 C   0  0  0  0  0  0  0  0  0  0  0  0
  161.3740  206.6990  151.9270 C   0  0  0  0  0  0  0  0  0  0  0  0
  162.2760  208.8590  148.3670 N   0  0  0  0  0  1  0  0  0  0  0  0
  161.1940  205.4390  149.4450 C   0  0  0  0  0  0  0  0  0  0  0  0
  161.7640  206.8600  147.1350 N   0  0  0  0  0  0  0  0  0  0  0  0
  161.1020  204.8070  148.1830 C   0  0  0  0  0  0  0  0  0  0  0  0
  160.8960  204.7740  150.5960 N   0  0  0  0  0  0  0  0  0  0  0  0
  160.7380  206.5570  154.2640 N   0  0  0  0  0  0  0  0  0  0  0  0
  160.4560  212.5940  156.3120 O   0  0  0  0  0  1  0  0  0  0  0  0
  160.8180  208.4570  155.7380 C   0  0  1  0  0  3  0  0  0  0  0  0
  160.0850  211.2730  156.0620 C   0  0  2  0  0  3  0  0  0  0  0  0
  161.4650  207.3350  153.2740 C   0  0  2  0  0  3  0  0  0  0  0  0
  161.0250  208.8160  153.2260 C   0  0  0  0  0  2  0  0  0  0  0  0
  160.4480  207.0430  155.4220 C   0  0  0  0  0  3  0  0  0  0  0  0
  160.4640  210.4010  157.2600 C   0  0  0  0  0  2  0  0  0  0  0  0
  160.4110  209.3220  154.5410 C   0  0  2  0  0  3  0  0  0  0  0  0
  160.1040  208.9390  156.9960 C   0  0  0  0  0  2  0  0  0  0  0  0
  160.7770  210.7790  154.7930 C   0  0  0  0  0  2  0  0  0  0  0  0
  160.7280  203.4650  147.9980 O   0  0  0  0  0  0  0  0  0  0  0  0
  160.8960  202.1010  146.0480 C   0  0  0  0  0  0  0  0  0  0  0  0
  161.4630  199.8290  147.1360 S   0  0  0  0  0  0  0  0  0  0  0  0
  161.5140  202.4790  147.3390 C   0  0  2  0  0  3  0  0  0  0  0  0
  160.5300  202.9410  145.1840 O   0  0  0  0  0  0  0  0  0  0  0  0
  160.7850  200.7520  145.8400 O   0  0  0  0  0  0  0  0  0  0  0  0
  161.5790  201.2770  148.1730 N   0  0  0  0  0  2  0  0  0  0  0  0
  1  6  1  0  0  0  0
  2  6  2  0  0  0  0
  3  2  1  0  0  0  0
  4  9  2  0  0  0  0
  4 10  1  0  0  0  0
  5  7  1  0  0  0  0
  5  3  2  0  0  0  0
  8  3  1  0  0  0  0
  8 11  1  0  0  0  0
  9  5  1  0  0  0  0
 10  8  2  0  0  0  0
 11  1  2  0  0  0  0
 12 18  2  0  0  0  0
 14 18  1  6  0  0  0
 14 21  1  0  0  0  0
 15 13  1  1  0  0  0
 15 19  1  0  0  0  0
 16  6  1  6  0  0  0
 16 12  1  0  0  0  0
 17 16  1  0  0  0  0
 20 17  1  6  0  0  0
 20 22  1  0  0  0  0
 20 14  1  0  0  0  0
 21 19  1  0  0  0  0
 22 15  1  0  0  0  0
 23 10  1  0  0  0  0
 24 26  1  0  0  0  0
 25 29  1  0  0  0  0
 26 23  1  1  0  0  0
 26 29  1  0  0  0  0
 27 24  2  0  0  0  0
 28 24  1  0  0  0  0
 28 25  1  0  0  0  0
M  END
>  <MODEL>
8

>  <REMARK>
 VINA RESULT:      -8.1      3.676      9.875
  Name = 
  3 active torsions:
  status: ('A' for Active; 'I' for Inactive)
    1  A    between atoms: O_2  and  C_15
    2  A    between atoms: O_2  and  C_25
    3  A    between atoms: C_12  and  C_14
                            x       y       z     vdW  Elec       q    Type
                         _______ _______ _______ _____ _____    ______ ____

>  <TORSDO>
F 3

$$$$
=
 OpenBabel11072413593D

 29 33  0  0  1  0  0  0  0  0999 V2000
  161.1450  206.2080  151.7300 C   0  0  0  0  0  3  0  0  0  0  0  0
  161.6000  208.2050  150.4640 C   0  0  0  0  0  3  0  0  0  0  0  0
  161.2950  208.9790  151.5880 C   0  0  0  0  0  0  0  0  0  0  0  0
  160.7090  210.4980  153.8340 C   0  0  0  0  0  3  0  0  0  0  0  0
  161.3770  210.3780  151.5570 C   0  0  0  0  0  0  0  0  0  0  0  0
  161.5240  206.8110  150.5300 C   0  0  0  0  0  0  0  0  0  0  0  0
  161.7690  211.0610  150.3690 N   0  0  0  0  0  1  0  0  0  0  0  0
  160.9060  208.3320  152.7850 C   0  0  0  0  0  0  0  0  0  0  0  0
  161.0890  211.0950  152.6740 N   0  0  0  0  0  0  0  0  0  0  0  0
  160.5970  209.1090  153.9250 C   0  0  0  0  0  0  0  0  0  0  0  0
  160.8500  206.9710  152.8160 N   0  0  0  0  0  0  0  0  0  0  0  0
  161.3880  206.5990  148.1160 N   0  0  0  0  0  0  0  0  0  0  0  0
  161.0800  200.3260  146.9840 O   0  0  0  0  0  1  0  0  0  0  0  0
  161.6240  204.4830  146.9950 C   0  0  1  0  0  3  0  0  0  0  0  0
  160.7650  201.6850  146.9480 C   0  0  2  0  0  3  0  0  0  0  0  0
  161.8390  205.9620  149.3430 C   0  0  2  0  0  3  0  0  0  0  0  0
  161.2910  204.5280  149.5180 C   0  0  0  0  0  2  0  0  0  0  0  0
  161.3040  205.9440  147.0100 C   0  0  0  0  0  3  0  0  0  0  0  0
  161.4430  202.3350  145.7410 C   0  0  0  0  0  2  0  0  0  0  0  0
  160.9200  203.8420  148.1940 C   0  0  2  0  0  3  0  0  0  0  0  0
  161.1470  203.8330  145.7010 C   0  0  0  0  0  2  0  0  0  0  0  0
  161.2200  202.3480  148.2470 C   0  0  0  0  0  2  0  0  0  0  0  0
  160.1920  208.5730  155.1590 O   0  0  0  0  0  0  0  0  0  0  0  0
  160.3170  210.2650  156.8360 C   0  0  0  0  0  0  0  0  0  0  0  0
  162.8640  210.2920  157.2600 S   0  0  0  0  0  0  0  0  0  0  0  0
  160.7520  208.9120  156.4230 C   0  0  2  0  0  3  0  0  0  0  0  0
  159.1130  210.6350  156.8370 O   0  0  0  0  0  0  0  0  0  0  0  0
  161.3280  211.0860  157.2610 O   0  0  0  0  0  0  0  0  0  0  0  0
  162.2120  208.9240  156.3170 N   0  0  0  0  0  2  0  0  0  0  0  0
  1 11  1  0  0  0  0
  2  6  1  0  0  0  0
  2  3  2  0  0  0  0
  3  8  1  0  0  0  0
  4 10  2  0  0  0  0
  5  3  1  0  0  0  0
  5  9  2  0  0  0  0
  6  1  2  0  0  0  0
  7  5  1  0  0  0  0
  8 11  2  0  0  0  0
  8 10  1  0  0  0  0
  9  4  1  0  0  0  0
 10 23  1  0  0  0  0
 12 16  1  0  0  0  0
 14 21  1  6  0  0  0
 14 18  1  0  0  0  0
 14 20  1  0  0  0  0
 15 13  1  1  0  0  0
 15 22  1  0  0  0  0
 16 17  1  0  0  0  0
 16  6  1  1  0  0  0
 18 12  2  0  0  0  0
 19 15  1  0  0  0  0
 20 22  1  1  0  0  0
 20 17  1  0  0  0  0
 21 19  1  0  0  0  0
 24 27  2  0  0  0  0
 24 28  1  0  0  0  0
 25 28  1  0  0  0  0
 26 23  1  6  0  0  0
 26 24  1  0  0  0  0
 29 26  1  0  0  0  0
 29 25  1  0  0  0  0
M  END
>  <MODEL>
9

>  <REMARK>
 VINA RESULT:      -7.8      2.425      3.732
  Name = 
  3 active torsions:
  status: ('A' for Active; 'I' for Inactive)
    1  A    between atoms: O_2  and  C_15
    2  A    between atoms: O_2  and  C_25
    3  A    between atoms: C_12  and  C_14
                            x       y       z     vdW  Elec       q    Type
                         _______ _______ _______ _____ _____    ______ ____

>  <TORSDO>
F 3

$$$$
