=
 OpenBabel11072409523D

 64 69  0  0  1  0  0  0  0  0999 V2000
  160.8300  211.4150  151.8630 O   0  0  0  0  0  0  0  0  0  0  0  0
  161.1050  212.3140  149.6490 C   0  0  1  0  0  3  0  0  0  0  0  0
  162.0160  210.1920  150.1400 C   0  0  1  0  0  3  0  0  0  0  0  0
  160.1500  212.0680  150.8270 C   0  0  2  0  0  3  0  0  0  0  0  0
  162.2850  211.5180  149.7040 O   0  0  0  0  0  0  0  0  0  0  0  0
  161.1030  210.1240  151.3810 C   0  0  0  0  0  2  0  0  0  0  0  0
  161.5510  209.3050  149.0150 C   0  0  0  0  0  0  0  0  0  0  0  0
  161.9070  209.5700  147.8370 O   0  0  0  0  0  0  0  0  0  0  0  0
  160.7770  208.1610  149.2260 O   0  0  0  0  0  0  0  0  0  0  0  0
  162.5740  206.5300  147.7630 O   0  0  0  0  0  1  0  0  0  0  0  0
  161.0420  206.6280  148.4760 P   0  0  2  0  0  0  0  0  0  0  0  0
  159.9960  206.4260  147.4060 O   0  0  0  0  0  0  0  0  0  0  0  0
  160.6290  205.6610  150.9020 O   0  0  0  0  0  0  0  0  0  0  0  0
  160.8710  205.3330  149.7120 C   0  0  0  0  0  0  0  0  0  0  0  0
  160.6490  203.0260  150.1870 O   0  0  0  0  0  0  0  0  0  0  0  0
  161.0260  203.9080  149.3680 C   0  0  0  0  0  0  0  0  0  0  0  0
  162.6780  202.5840  148.2660 O   0  0  0  0  0  1  0  0  0  0  0  0
  161.6400  203.4940  148.0620 C   0  0  1  0  0  3  0  0  0  0  0  0
  160.6110  202.9540  147.0710 C   0  0  0  0  0  2  0  0  0  0  0  0
  161.1580  202.8820  145.6530 C   0  0  1  0  0  3  0  0  0  0  0  0
  160.3550  202.0350  144.8860 O   0  0  0  0  0  1  0  0  0  0  0  0
  160.1870  204.8630  144.8270 O   0  0  0  0  0  0  0  0  0  0  0  0
  161.2260  204.2580  145.0510 C   0  0  0  0  0  0  0  0  0  0  0  0
  162.5380  204.9220  144.7600 C   0  0  0  0  0  2  0  0  0  0  0  0
  163.5660  204.2790  145.4430 O   0  0  0  0  0  1  0  0  0  0  0  0
  159.5650  213.3810  151.3300 C   0  0  0  0  0  2  0  0  0  0  0  0
  158.1500  213.2160  151.6480 N   0  0  0  0  0  2  0  0  0  0  0  0
  156.6870  212.9520  155.6190 C   0  0  0  0  0  3  0  0  0  0  0  0
  156.5050  214.1340  154.8910 C   0  0  0  0  0  3  0  0  0  0  0  0
  157.8370  211.9630  153.7280 C   0  0  0  0  0  3  0  0  0  0  0  0
  156.9860  214.2270  153.5790 C   0  0  0  0  0  3  0  0  0  0  0  0
  157.3530  211.8690  155.0390 C   0  0  0  0  0  3  0  0  0  0  0  0
  157.6500  213.1400  152.9910 C   0  0  0  0  0  0  0  0  0  0  0  0
  160.4390  212.1310  148.4320 O   0  0  0  0  0  0  0  0  0  0  0  0
  158.5260  213.4930  147.8460 C   0  0  0  0  0  2  0  0  0  0  0  0
  159.8600  211.8210  145.5870 O   0  0  0  0  0  0  0  0  0  0  0  0
  160.0470  213.4140  148.0220 C   0  0  2  0  0  3  0  0  0  0  0  0
  157.9590  212.4460  146.8820 C   0  0  0  0  0  2  0  0  0  0  0  0
  160.9310  212.7470  145.6930 C   0  0  2  0  0  3  0  0  0  0  0  0
  160.7670  213.8620  146.7440 C   0  0  0  0  0  2  0  0  0  0  0  0
  158.6310  212.5080  145.5160 C   0  0  0  0  0  2  0  0  0  0  0  0
  162.5760  212.1990  142.4570 O   0  0  0  0  0  0  0  0  0  0  0  0
  158.3780  210.5930  139.9870 O   0  0  0  0  0  0  0  0  0  0  0  0
  159.5430  214.1570  140.0140 C   0  0  0  0  0  2  0  0  0  0  0  0
  164.2450  213.8020  142.8390 O   0  0  0  0  0  0  0  0  0  0  0  0
  160.1810  212.6010  142.3270 C   0  0  0  0  0  2  0  0  0  0  0  0
  158.2540  212.8740  138.4380 C   0  0  0  0  0  0  0  0  0  0  0  0
  162.7150  213.8250  144.5260 O   0  0  0  0  0  0  0  0  0  0  0  0
  163.0190  214.0540  140.7370 C   0  0  2  0  0  3  0  0  0  0  0  0
  159.8050  211.4900  141.5180 O   0  0  0  0  0  0  0  0  0  0  0  0
  163.0440  213.5070  142.1730 C   0  0  1  0  0  0  0  0  0  0  0  0
  160.8800  214.4030  139.3200 C   0  0  0  0  0  2  0  0  0  0  0  0
  157.6490  212.8730  137.3550 O   0  0  0  0  0  0  0  0  0  0  0  0
  161.3710  212.2690  143.2130 C   0  0  2  0  0  3  0  0  0  0  0  0
  163.0930  214.4530  143.3250 C   0  0  2  0  0  3  0  0  0  0  0  0
  161.9490  213.4970  139.8380 C   0  0  0  0  0  0  0  0  0  0  0  0
  158.8980  212.8780  139.5800 C   0  0  0  0  0  0  0  0  0  0  0  0
  161.9700  212.3270  139.4950 O   0  0  0  0  0  0  0  0  0  0  0  0
  159.0080  211.6160  140.3740 C   0  0  0  0  0  0  0  0  0  0  0  0
  161.4190  213.3080  144.3560 C   0  0  1  0  0  3  0  0  0  0  0  0
  164.2910  214.1690  140.1280 O   0  0  0  0  0  0  0  0  0  0  0  0
  163.7810  213.4750  138.0140 O   0  0  0  0  0  1  0  0  0  0  0  0
  165.9260  212.9560  138.8800 C   0  0  0  0  0  1  0  0  0  0  0  0
  164.4530  213.1400  139.1870 C   0  0  1  0  0  3  0  0  0  0  0  0
  2 34  1  6  0  0  0
  2  5  1  0  0  0  0
  2  4  1  0  0  0  0
  3  7  1  6  0  0  0
  3  6  1  0  0  0  0
  4 26  1  1  0  0  0
  4  1  1  0  0  0  0
  5  3  1  0  0  0  0
  6  1  1  0  0  0  0
  7  9  1  0  0  0  0
  8  7  2  0  0  0  0
 10 11  1  0  0  0  0
 11 12  2  6  0  0  0
 11  9  1  0  0  0  0
 11 14  1  0  0  0  0
 14 13  2  0  0  0  0
 16 14  1  0  0  0  0
 16 15  2  0  0  0  0
 18 17  1  1  0  0  0
 18 16  1  0  0  0  0
 19 18  1  0  0  0  0
 20 21  1  6  0  0  0
 20 19  1  0  0  0  0
 22 23  2  0  0  0  0
 23 20  1  0  0  0  0
 24 23  1  0  0  0  0
 24 25  1  0  0  0  0
 26 27  1  0  0  0  0
 27 33  1  0  0  0  0
 29 28  2  0  0  0  0
 30 32  2  0  0  0  0
 31 29  1  0  0  0  0
 32 28  1  0  0  0  0
 33 31  2  0  0  0  0
 33 30  1  0  0  0  0
 35 37  1  0  0  0  0
 36 39  1  0  0  0  0
 37 34  1  6  0  0  0
 38 35  1  0  0  0  0
 39 40  1  1  0  0  0
 40 37  1  0  0  0  0
 41 36  1  0  0  0  0
 41 38  1  0  0  0  0
 42 54  1  0  0  0  0
 43 59  2  0  0  0  0
 47 57  2  0  0  0  0
 49 61  1  6  0  0  0
 49 51  1  0  0  0  0
 50 46  1  0  0  0  0
 51 42  1  1  0  0  0
 51 45  1  0  0  0  0
 51 55  1  0  0  0  0
 52 56  1  0  0  0  0
 52 44  1  0  0  0  0
 53 47  2  0  0  0  0
 54 46  1  6  0  0  0
 54 60  1  0  0  0  0
 55 45  1  1  0  0  0
 55 48  1  0  0  0  0
 56 49  1  0  0  0  0
 57 44  1  0  0  0  0
 57 59  1  0  0  0  0
 58 56  2  0  0  0  0
 59 50  1  0  0  0  0
 60 48  1  1  0  0  0
 60 39  1  0  0  0  0
 62 64  1  0  0  0  0
 64 63  1  6  0  0  0
 64 61  1  0  0  0  0
M  END
>  <MODEL>
1

>  <REMARK>
 VINA RESULT:      -3.8      0.000      0.000
  Name = 
  18 active torsions:
  status: ('A' for Active; 'I' for Inactive)
    1  A    between atoms: C_1  and  O_25
    2  A    between atoms: C_1  and  C_35
    3  A    between atoms: N_2  and  C_54
    4  A    between atoms: N_2  and  C_58
    5  A    between atoms: O_6  and  C_17
    6  A    between atoms: O_6  and  C_64
    7  A    between atoms: O_12  and  C_27
    8  A    between atoms: O_12  and  C_32
    9  A    between atoms: P_20  and  C_24
   10  A    between atoms: P_20  and  O_25
   11  A    between atoms: C_24  and  C_53
   12  A    between atoms: C_36  and  C_38
   13  A    between atoms: C_36  and  C_49
   14  A    between atoms: C_37  and  C_63
   15  A    between atoms: C_38  and  C_46
   16  A    between atoms: C_40  and  C_58
   17  A    between atoms: C_42  and  C_46
   18  A    between atoms: C_49  and  C_53
                            x       y       z     vdW  Elec       q    Type
                         _______ _______ _______ _____ _____    ______ ____

>  <TORSDO>
F 18

$$$$
=
 OpenBabel11072409523D

 64 69  0  0  1  0  0  0  0  0999 V2000
  158.9720  214.2260  153.2130 O   0  0  0  0  0  0  0  0  0  0  0  0
  158.9190  211.8510  152.8320 C   0  0  1  0  0  3  0  0  0  0  0  0
  158.3650  213.3040  151.0550 C   0  0  1  0  0  3  0  0  0  0  0  0
  159.6830  213.0390  153.4360 C   0  0  2  0  0  3  0  0  0  0  0  0
  157.9250  212.2400  151.8890 O   0  0  0  0  0  0  0  0  0  0  0  0
  159.0430  214.4530  151.8280 C   0  0  0  0  0  2  0  0  0  0  0  0
  159.1830  212.8130  149.8900 C   0  0  0  0  0  0  0  0  0  0  0  0
  158.6430  212.0670  149.0310 O   0  0  0  0  0  0  0  0  0  0  0  0
  160.5130  213.1920  149.6860 O   0  0  0  0  0  0  0  0  0  0  0  0
  161.7430  211.3200  147.9530 O   0  0  0  0  0  0  0  0  0  0  0  0
  161.4040  212.9550  148.2260 P   0  0  2  0  0  0  0  0  0  0  0  0
  162.7080  213.7100  148.3280 O   0  0  0  0  0  1  0  0  0  0  0  0
  159.5470  214.4490  147.0800 O   0  0  0  0  0  0  0  0  0  0  0  0
  160.4560  213.6100  146.8460 C   0  0  0  0  0  0  0  0  0  0  0  0
  161.8120  213.4350  144.9160 O   0  0  0  0  0  0  0  0  0  0  0  0
  160.7040  213.1760  145.4600 C   0  0  0  0  0  0  0  0  0  0  0  0
  158.5840  213.2860  144.3680 O   0  0  0  0  0  1  0  0  0  0  0  0
  159.6500  212.4420  144.6830 C   0  0  1  0  0  3  0  0  0  0  0  0
  160.2060  211.7560  143.4360 C   0  0  0  0  0  2  0  0  0  0  0  0
  160.3020  212.7030  142.2500 C   0  0  1  0  0  3  0  0  0  0  0  0
  161.6370  213.0500  142.0360 O   0  0  0  0  0  1  0  0  0  0  0  0
  158.6180  212.4590  140.6220 O   0  0  0  0  0  0  0  0  0  0  0  0
  159.7030  212.0670  141.0260 C   0  0  0  0  0  0  0  0  0  0  0  0
  160.4260  210.9970  140.2660 C   0  0  0  0  0  2  0  0  0  0  0  0
  159.5620  210.3770  139.3670 O   0  0  0  0  0  1  0  0  0  0  0  0
  159.9050  212.8350  154.9290 C   0  0  0  0  0  2  0  0  0  0  0  0
  158.9800  213.6630  155.6960 N   0  0  0  0  0  2  0  0  0  0  0  0
  155.1230  212.3340  156.8510 C   0  0  0  0  0  3  0  0  0  0  0  0
  155.2790  213.6140  156.3050 C   0  0  0  0  0  3  0  0  0  0  0  0
  157.5070  211.9500  156.6380 C   0  0  0  0  0  3  0  0  0  0  0  0
  156.5510  214.0580  155.9220 C   0  0  0  0  0  3  0  0  0  0  0  0
  156.2350  211.5040  157.0180 C   0  0  0  0  0  3  0  0  0  0  0  0
  157.6690  213.2260  156.0830 C   0  0  0  0  0  0  0  0  0  0  0  0
  159.8100  210.9330  152.2640 O   0  0  0  0  0  0  0  0  0  0  0  0
  160.8550  210.0540  154.2620 C   0  0  0  0  0  2  0  0  0  0  0  0
  162.2390  209.4870  151.5340 O   0  0  0  0  0  0  0  0  0  0  0  0
  159.8310  209.8390  153.1410 C   0  0  2  0  0  3  0  0  0  0  0  0
  162.2730  210.3420  153.7580 C   0  0  0  0  0  2  0  0  0  0  0  0
  161.1480  208.6110  151.2940 C   0  0  2  0  0  3  0  0  0  0  0  0
  160.0930  208.5150  152.4130 C   0  0  0  0  0  2  0  0  0  0  0  0
  162.7750  209.2540  152.8180 C   0  0  0  0  0  2  0  0  0  0  0  0
  160.1540  205.3110  150.0270 O   0  0  0  0  0  0  0  0  0  0  0  0
  159.7040  206.7340  145.1210 O   0  0  0  0  0  0  0  0  0  0  0  0
  162.8290  205.2680  146.5860 C   0  0  0  0  0  2  0  0  0  0  0  0
  161.2580  204.1340  151.7300 O   0  0  0  0  0  0  0  0  0  0  0  0
  161.1790  206.7710  148.3730 C   0  0  0  0  0  2  0  0  0  0  0  0
  161.9230  205.2810  144.3570 C   0  0  0  0  0  0  0  0  0  0  0  0
  161.7020  206.3630  151.8830 O   0  0  0  0  0  0  0  0  0  0  0  0
  161.8100  203.4340  149.4510 C   0  0  2  0  0  3  0  0  0  0  0  0
  160.2010  206.6710  147.3420 O   0  0  0  0  0  0  0  0  0  0  0  0
  161.2870  204.5390  150.3850 C   0  0  1  0  0  0  0  0  0  0  0  0
  162.7040  203.8210  147.0530 C   0  0  0  0  0  2  0  0  0  0  0  0
  162.0730  204.9280  143.1770 O   0  0  0  0  0  0  0  0  0  0  0  0
  160.5490  206.6520  149.7520 C   0  0  2  0  0  3  0  0  0  0  0  0
  162.1960  205.1360  151.4050 C   0  0  2  0  0  3  0  0  0  0  0  0
  161.5500  203.6360  147.9840 C   0  0  0  0  0  0  0  0  0  0  0  0
  161.7640  205.6500  145.6050 C   0  0  0  0  0  0  0  0  0  0  0  0
  160.4140  203.6070  147.5410 O   0  0  0  0  0  0  0  0  0  0  0  0
  160.5260  206.3800  146.0120 C   0  0  0  0  0  0  0  0  0  0  0  0
  161.5480  207.2250  150.7830 C   0  0  1  0  0  3  0  0  0  0  0  0
  161.5760  202.1160  149.9100 O   0  0  0  0  0  0  0  0  0  0  0  0
  161.3290  200.2460  148.6250 O   0  0  0  0  0  1  0  0  0  0  0  0
  159.4040  201.1580  149.6630 C   0  0  0  0  0  1  0  0  0  0  0  0
  160.7370  201.4480  149.0050 C   0  0  1  0  0  3  0  0  0  0  0  0
  1  4  1  0  0  0  0
  2 34  1  6  0  0  0
  2  4  1  0  0  0  0
  3  7  1  6  0  0  0
  3  6  1  0  0  0  0
  3  5  1  0  0  0  0
  4 26  1  1  0  0  0
  5  2  1  0  0  0  0
  6  1  1  0  0  0  0
  8  7  2  0  0  0  0
  9  7  1  0  0  0  0
 11 10  2  6  0  0  0
 11 12  1  0  0  0  0
 11  9  1  0  0  0  0
 14 13  2  0  0  0  0
 14 11  1  0  0  0  0
 15 16  2  0  0  0  0
 16 14  1  0  0  0  0
 18 17  1  6  0  0  0
 18 16  1  0  0  0  0
 19 18  1  0  0  0  0
 20 21  1  6  0  0  0
 20 19  1  0  0  0  0
 22 23  2  0  0  0  0
 23 20  1  0  0  0  0
 24 23  1  0  0  0  0
 25 24  1  0  0  0  0
 26 27  1  0  0  0  0
 27 33  1  0  0  0  0
 28 32  1  0  0  0  0
 29 28  2  0  0  0  0
 30 32  2  0  0  0  0
 31 33  2  0  0  0  0
 31 29  1  0  0  0  0
 33 30  1  0  0  0  0
 36 41  1  0  0  0  0
 37 34  1  6  0  0  0
 37 35  1  0  0  0  0
 38 35  1  0  0  0  0
 39 36  1  0  0  0  0
 39 40  1  1  0  0  0
 40 37  1  0  0  0  0
 41 38  1  0  0  0  0
 43 59  2  0  0  0  0
 44 52  1  0  0  0  0
 47 57  2  0  0  0  0
 49 61  1  1  0  0  0
 49 51  1  0  0  0  0
 50 46  1  0  0  0  0
 51 42  1  6  0  0  0
 51 55  1  0  0  0  0
 51 45  1  0  0  0  0
 52 56  1  0  0  0  0
 53 47  2  0  0  0  0
 54 46  1  6  0  0  0
 54 42  1  0  0  0  0
 54 60  1  0  0  0  0
 55 45  1  1  0  0  0
 55 48  1  0  0  0  0
 56 49  1  0  0  0  0
 57 59  1  0  0  0  0
 57 44  1  0  0  0  0
 58 56  2  0  0  0  0
 59 50  1  0  0  0  0
 60 39  1  0  0  0  0
 60 48  1  1  0  0  0
 62 64  1  0  0  0  0
 64 63  1  1  0  0  0
 64 61  1  0  0  0  0
M  END
>  <MODEL>
2

>  <REMARK>
 VINA RESULT:      -3.3      2.426      9.169
  Name = 
  18 active torsions:
  status: ('A' for Active; 'I' for Inactive)
    1  A    between atoms: C_1  and  O_25
    2  A    between atoms: C_1  and  C_35
    3  A    between atoms: N_2  and  C_54
    4  A    between atoms: N_2  and  C_58
    5  A    between atoms: O_6  and  C_17
    6  A    between atoms: O_6  and  C_64
    7  A    between atoms: O_12  and  C_27
    8  A    between atoms: O_12  and  C_32
    9  A    between atoms: P_20  and  C_24
   10  A    between atoms: P_20  and  O_25
   11  A    between atoms: C_24  and  C_53
   12  A    between atoms: C_36  and  C_38
   13  A    between atoms: C_36  and  C_49
   14  A    between atoms: C_37  and  C_63
   15  A    between atoms: C_38  and  C_46
   16  A    between atoms: C_40  and  C_58
   17  A    between atoms: C_42  and  C_46
   18  A    between atoms: C_49  and  C_53
                            x       y       z     vdW  Elec       q    Type
                         _______ _______ _______ _____ _____    ______ ____

>  <TORSDO>
F 18

$$$$
=
 OpenBabel11072409523D

 64 69  0  0  1  0  0  0  0  0999 V2000
  157.0750  213.7500  147.0680 O   0  0  0  0  0  0  0  0  0  0  0  0
  159.3180  213.1400  147.6870 C   0  0  1  0  0  3  0  0  0  0  0  0
  158.6220  212.8160  145.4530 C   0  0  1  0  0  3  0  0  0  0  0  0
  158.1990  214.1880  147.7800 C   0  0  2  0  0  3  0  0  0  0  0  0
  159.1240  212.2010  146.6330 O   0  0  0  0  0  0  0  0  0  0  0  0
  157.4490  213.7830  145.7150 C   0  0  0  0  0  2  0  0  0  0  0  0
  159.7160  213.4270  144.6190 C   0  0  0  0  0  0  0  0  0  0  0  0
  160.7450  213.8770  145.1890 O   0  0  0  0  0  0  0  0  0  0  0  0
  159.6670  213.4710  143.2230 O   0  0  0  0  0  0  0  0  0  0  0  0
  160.5500  211.0430  142.0590 O   0  0  0  0  0  0  0  0  0  0  0  0
  160.8010  212.7140  142.1620 P   0  0  2  0  0  0  0  0  0  0  0  0
  162.1950  212.9630  142.6860 O   0  0  0  0  0  1  0  0  0  0  0  0
  159.9060  214.4470  140.3770 O   0  0  0  0  0  0  0  0  0  0  0  0
  160.6510  213.4450  140.5260 C   0  0  0  0  0  0  0  0  0  0  0  0
  162.5930  213.1250  139.2120 O   0  0  0  0  0  0  0  0  0  0  0  0
  161.3620  212.8880  139.3610 C   0  0  0  0  0  0  0  0  0  0  0  0
  161.3020  212.0810  137.1160 O   0  0  0  0  0  1  0  0  0  0  0  0
  160.6390  212.0560  138.3420 C   0  0  1  0  0  3  0  0  0  0  0  0
  160.3940  210.6250  138.8160 C   0  0  0  0  0  2  0  0  0  0  0  0
  161.5780  209.7130  138.5340 C   0  0  1  0  0  3  0  0  0  0  0  0
  162.3880  209.6350  139.6680 O   0  0  0  0  0  1  0  0  0  0  0  0
  159.9270  208.2020  137.7980 O   0  0  0  0  0  0  0  0  0  0  0  0
  161.0980  208.3510  138.1150 C   0  0  0  0  0  0  0  0  0  0  0  0
  162.0330  207.1810  138.0350 C   0  0  0  0  0  2  0  0  0  0  0  0
  162.0220  206.4730  139.2330 O   0  0  0  0  0  1  0  0  0  0  0  0
  157.8280  214.4530  149.2340 C   0  0  0  0  0  2  0  0  0  0  0  0
  157.8000  213.2020  149.9850 N   0  0  0  0  0  2  0  0  0  0  0  0
  158.5160  212.9710  154.1570 C   0  0  0  0  0  3  0  0  0  0  0  0
  157.2670  213.3990  153.6920 C   0  0  0  0  0  3  0  0  0  0  0  0
  159.2800  212.7090  151.8710 C   0  0  0  0  0  3  0  0  0  0  0  0
  157.0250  213.4770  152.3150 C   0  0  0  0  0  3  0  0  0  0  0  0
  159.5210  212.6280  153.2490 C   0  0  0  0  0  3  0  0  0  0  0  0
  158.0290  213.1290  151.3990 C   0  0  0  0  0  0  0  0  0  0  0  0
  160.5660  213.7630  147.5730 O   0  0  0  0  0  0  0  0  0  0  0  0
  162.5230  214.3490  148.8700 C   0  0  0  0  0  2  0  0  0  0  0  0
  162.5930  211.6850  147.2670 O   0  0  0  0  0  0  0  0  0  0  0  0
  161.1500  213.6670  148.8450 C   0  0  2  0  0  3  0  0  0  0  0  0
  163.4960  213.8210  147.8120 C   0  0  0  0  0  2  0  0  0  0  0  0
  161.6610  211.2150  148.2300 C   0  0  2  0  0  3  0  0  0  0  0  0
  161.2550  212.2160  149.3290 C   0  0  0  0  0  2  0  0  0  0  0  0
  163.6800  212.3120  147.9100 C   0  0  0  0  0  2  0  0  0  0  0  0
  160.5180  208.0750  149.7510 O   0  0  0  0  0  0  0  0  0  0  0  0
  159.5150  205.6730  145.3320 O   0  0  0  0  0  0  0  0  0  0  0  0
  162.7820  205.4060  147.1540 C   0  0  0  0  0  2  0  0  0  0  0  0
  161.8050  208.3470  151.6930 O   0  0  0  0  0  0  0  0  0  0  0  0
  161.3520  207.8600  147.4760 C   0  0  0  0  0  2  0  0  0  0  0  0
  161.6280  203.9250  145.6490 C   0  0  0  0  0  0  0  0  0  0  0  0
  162.2710  209.9930  150.1890 O   0  0  0  0  0  0  0  0  0  0  0  0
  162.0910  206.2060  150.5440 C   0  0  2  0  0  3  0  0  0  0  0  0
  160.2630  207.1470  146.8990 O   0  0  0  0  0  0  0  0  0  0  0  0
  161.6820  207.6860  150.4600 C   0  0  1  0  0  0  0  0  0  0  0  0
  162.7070  204.7200  148.5150 C   0  0  0  0  0  2  0  0  0  0  0  0
  161.6410  202.8340  145.0590 O   0  0  0  0  0  0  0  0  0  0  0  0
  160.8830  208.7970  148.5790 C   0  0  2  0  0  3  0  0  0  0  0  0
  162.7040  208.7490  150.6840 C   0  0  2  0  0  3  0  0  0  0  0  0
  161.6660  205.3390  149.3900 C   0  0  0  0  0  0  0  0  0  0  0  0
  161.6140  205.0740  146.2780 C   0  0  0  0  0  0  0  0  0  0  0  0
  160.4870  205.1020  149.1890 O   0  0  0  0  0  0  0  0  0  0  0  0
  160.4330  205.9800  146.1440 C   0  0  0  0  0  0  0  0  0  0  0  0
  161.9950  209.8430  148.8190 C   0  0  1  0  0  3  0  0  0  0  0  0
  161.9070  205.6160  151.8170 O   0  0  0  0  0  0  0  0  0  0  0  0
  162.2900  203.3730  151.6320 O   0  0  0  0  0  1  0  0  0  0  0  0
  160.3770  204.0910  152.8330 C   0  0  0  0  0  1  0  0  0  0  0  0
  161.3050  204.3570  151.6650 C   0  0  1  0  0  3  0  0  0  0  0  0
  1  4  1  0  0  0  0
  2 34  1  6  0  0  0
  2  4  1  0  0  0  0
  3  7  1  1  0  0  0
  3  6  1  0  0  0  0
  3  5  1  0  0  0  0
  4 26  1  1  0  0  0
  5  2  1  0  0  0  0
  6  1  1  0  0  0  0
  7  8  2  0  0  0  0
  9  7  1  0  0  0  0
 11 10  2  6  0  0  0
 11 12  1  0  0  0  0
 11  9  1  0  0  0  0
 13 14  2  0  0  0  0
 14 11  1  0  0  0  0
 15 16  2  0  0  0  0
 16 14  1  0  0  0  0
 18 17  1  6  0  0  0
 18 19  1  0  0  0  0
 18 16  1  0  0  0  0
 20 19  1  0  0  0  0
 20 21  1  1  0  0  0
 22 23  2  0  0  0  0
 23 20  1  0  0  0  0
 24 23  1  0  0  0  0
 24 25  1  0  0  0  0
 26 27  1  0  0  0  0
 27 33  1  0  0  0  0
 29 28  1  0  0  0  0
 30 32  1  0  0  0  0
 31 29  2  0  0  0  0
 32 28  2  0  0  0  0
 33 30  2  0  0  0  0
 33 31  1  0  0  0  0
 36 41  1  0  0  0  0
 36 39  1  0  0  0  0
 37 34  1  6  0  0  0
 37 35  1  0  0  0  0
 37 40  1  0  0  0  0
 38 41  1  0  0  0  0
 38 35  1  0  0  0  0
 39 60  1  0  0  0  0
 39 40  1  1  0  0  0
 43 59  2  0  0  0  0
 44 52  1  0  0  0  0
 47 57  2  0  0  0  0
 49 61  1  1  0  0  0
 50 46  1  0  0  0  0
 51 42  1  6  0  0  0
 51 49  1  0  0  0  0
 51 55  1  0  0  0  0
 51 45  1  0  0  0  0
 52 56  1  0  0  0  0
 53 47  2  0  0  0  0
 54 46  1  6  0  0  0
 54 60  1  0  0  0  0
 54 42  1  0  0  0  0
 55 48  1  6  0  0  0
 55 45  1  0  0  0  0
 56 49  1  0  0  0  0
 57 44  1  0  0  0  0
 58 56  2  0  0  0  0
 59 57  1  0  0  0  0
 59 50  1  0  0  0  0
 60 48  1  1  0  0  0
 62 64  1  0  0  0  0
 64 61  1  0  0  0  0
 64 63  1  1  0  0  0
M  END
>  <MODEL>
3

>  <REMARK>
 VINA RESULT:      -2.9      2.479      9.130
  Name = 
  18 active torsions:
  status: ('A' for Active; 'I' for Inactive)
    1  A    between atoms: C_1  and  O_25
    2  A    between atoms: C_1  and  C_35
    3  A    between atoms: N_2  and  C_54
    4  A    between atoms: N_2  and  C_58
    5  A    between atoms: O_6  and  C_17
    6  A    between atoms: O_6  and  C_64
    7  A    between atoms: O_12  and  C_27
    8  A    between atoms: O_12  and  C_32
    9  A    between atoms: P_20  and  C_24
   10  A    between atoms: P_20  and  O_25
   11  A    between atoms: C_24  and  C_53
   12  A    between atoms: C_36  and  C_38
   13  A    between atoms: C_36  and  C_49
   14  A    between atoms: C_37  and  C_63
   15  A    between atoms: C_38  and  C_46
   16  A    between atoms: C_40  and  C_58
   17  A    between atoms: C_42  and  C_46
   18  A    between atoms: C_49  and  C_53
                            x       y       z     vdW  Elec       q    Type
                         _______ _______ _______ _____ _____    ______ ____

>  <TORSDO>
F 18

$$$$
=
 OpenBabel11072409523D

 64 69  0  0  1  0  0  0  0  0999 V2000
  157.1910  213.2340  146.6000 O   0  0  0  0  0  0  0  0  0  0  0  0
  159.3740  213.0460  147.5960 C   0  0  1  0  0  3  0  0  0  0  0  0
  159.0810  212.3710  145.3510 C   0  0  1  0  0  3  0  0  0  0  0  0
  158.1230  213.9150  147.3940 C   0  0  2  0  0  3  0  0  0  0  0  0
  159.4730  211.9770  146.6600 O   0  0  0  0  0  0  0  0  0  0  0  0
  157.7620  213.1710  145.3180 C   0  0  0  0  0  2  0  0  0  0  0  0
  160.1990  213.0440  144.6000 C   0  0  0  0  0  0  0  0  0  0  0  0
  160.4700  214.2480  144.8510 O   0  0  0  0  0  0  0  0  0  0  0  0
  160.9920  212.3740  143.6650 O   0  0  0  0  0  0  0  0  0  0  0  0
  163.0870  213.6230  142.2250 O   0  0  0  0  0  1  0  0  0  0  0  0
  161.5070  213.0200  142.1490 P   0  0  2  0  0  0  0  0  0  0  0  0
  160.5770  214.1440  141.7620 O   0  0  0  0  0  0  0  0  0  0  0  0
  162.2600  210.7980  140.9300 O   0  0  0  0  0  0  0  0  0  0  0  0
  161.4160  211.7300  140.9000 C   0  0  0  0  0  0  0  0  0  0  0  0
  160.7350  212.0080  138.6510 O   0  0  0  0  0  0  0  0  0  0  0  0
  160.3940  211.7510  139.8380 C   0  0  0  0  0  0  0  0  0  0  0  0
  158.2050  212.6630  140.1100 O   0  0  0  0  0  1  0  0  0  0  0  0
  158.9510  211.4840  140.1540 C   0  0  1  0  0  3  0  0  0  0  0  0
  158.3420  210.4040  139.2610 C   0  0  0  0  0  2  0  0  0  0  0  0
  157.3240  210.9700  138.2830 C   0  0  1  0  0  3  0  0  0  0  0  0
  157.5450  210.4310  137.0140 O   0  0  0  0  0  1  0  0  0  0  0  0
  155.3280  211.5330  139.4010 O   0  0  0  0  0  0  0  0  0  0  0  0
  155.9270  210.6820  138.7600 C   0  0  0  0  0  0  0  0  0  0  0  0
  155.2360  209.3940  138.4290 C   0  0  0  0  0  2  0  0  0  0  0  0
  155.0600  208.6310  139.5800 O   0  0  0  0  0  1  0  0  0  0  0  0
  157.4990  214.2820  148.7350 C   0  0  0  0  0  2  0  0  0  0  0  0
  157.9090  213.3280  149.7610 N   0  0  0  0  0  2  0  0  0  0  0  0
  156.9890  213.7620  153.8770 C   0  0  0  0  0  3  0  0  0  0  0  0
  156.1020  214.2560  152.9140 C   0  0  0  0  0  3  0  0  0  0  0  0
  158.4740  212.9980  152.1200 C   0  0  0  0  0  3  0  0  0  0  0  0
  156.4000  214.1150  151.5530 C   0  0  0  0  0  3  0  0  0  0  0  0
  158.1750  213.1350  153.4810 C   0  0  0  0  0  3  0  0  0  0  0  0
  157.5860  213.4820  151.1510 C   0  0  0  0  0  0  0  0  0  0  0  0
  160.5280  213.8360  147.5710 O   0  0  0  0  0  0  0  0  0  0  0  0
  162.4350  214.4480  148.9300 C   0  0  0  0  0  2  0  0  0  0  0  0
  162.6250  211.8280  147.2650 O   0  0  0  0  0  0  0  0  0  0  0  0
  161.0850  213.7270  148.8540 C   0  0  2  0  0  3  0  0  0  0  0  0
  163.4490  213.9760  147.8830 C   0  0  0  0  0  2  0  0  0  0  0  0
  161.6850  211.3070  148.1930 C   0  0  2  0  0  3  0  0  0  0  0  0
  161.2220  212.2670  149.3060 C   0  0  0  0  0  2  0  0  0  0  0  0
  163.6760  212.4710  147.9490 C   0  0  0  0  0  2  0  0  0  0  0  0
  160.6140  208.1520  149.7350 O   0  0  0  0  0  0  0  0  0  0  0  0
  159.4360  205.7800  145.3430 O   0  0  0  0  0  0  0  0  0  0  0  0
  162.7760  205.5090  147.0270 C   0  0  0  0  0  2  0  0  0  0  0  0
  161.9780  208.4130  151.6250 O   0  0  0  0  0  0  0  0  0  0  0  0
  161.3540  207.9570  147.4270 C   0  0  0  0  0  2  0  0  0  0  0  0
  161.5640  204.0360  145.5600 C   0  0  0  0  0  0  0  0  0  0  0  0
  162.3780  210.0720  150.1160 O   0  0  0  0  0  0  0  0  0  0  0  0
  162.2220  206.2810  150.4490 C   0  0  2  0  0  3  0  0  0  0  0  0
  160.2440  207.2450  146.8890 O   0  0  0  0  0  0  0  0  0  0  0  0
  161.8070  207.7610  150.3930 C   0  0  1  0  0  0  0  0  0  0  0  0
  162.7580  204.8130  148.3850 C   0  0  0  0  0  2  0  0  0  0  0  0
  161.5570  202.9500  144.9610 O   0  0  0  0  0  0  0  0  0  0  0  0
  160.9280  208.8840  148.5550 C   0  0  2  0  0  3  0  0  0  0  0  0
  162.8340  208.8250  150.5830 C   0  0  2  0  0  3  0  0  0  0  0  0
  161.7530  205.4220  149.3070 C   0  0  0  0  0  0  0  0  0  0  0  0
  161.5730  205.1810  146.1970 C   0  0  0  0  0  0  0  0  0  0  0  0
  160.5670  205.1840  149.1530 O   0  0  0  0  0  0  0  0  0  0  0  0
  160.3850  206.0840  146.1190 C   0  0  0  0  0  0  0  0  0  0  0  0
  162.0460  209.9320  148.7580 C   0  0  1  0  0  3  0  0  0  0  0  0
  162.0920  205.6810  151.7230 O   0  0  0  0  0  0  0  0  0  0  0  0
  162.5020  203.4390  151.8490 O   0  0  0  0  0  1  0  0  0  0  0  0
  160.3860  204.2360  152.5590 C   0  0  0  0  0  1  0  0  0  0  0  0
  161.5320  204.4020  151.5820 C   0  0  1  0  0  3  0  0  0  0  0  0
  1  4  1  0  0  0  0
  2 34  1  6  0  0  0
  3  7  1  1  0  0  0
  3  5  1  0  0  0  0
  4  2  1  0  0  0  0
  4 26  1  1  0  0  0
  5  2  1  0  0  0  0
  6  3  1  0  0  0  0
  6  1  1  0  0  0  0
  7  8  2  0  0  0  0
  9  7  1  0  0  0  0
 11 12  2  6  0  0  0
 11 10  1  0  0  0  0
 11  9  1  0  0  0  0
 14 13  2  0  0  0  0
 14 11  1  0  0  0  0
 15 16  2  0  0  0  0
 16 18  1  0  0  0  0
 16 14  1  0  0  0  0
 18 17  1  6  0  0  0
 19 18  1  0  0  0  0
 20 21  1  6  0  0  0
 20 23  1  0  0  0  0
 20 19  1  0  0  0  0
 23 22  2  0  0  0  0
 24 23  1  0  0  0  0
 24 25  1  0  0  0  0
 26 27  1  0  0  0  0
 27 33  1  0  0  0  0
 29 28  2  0  0  0  0
 30 32  2  0  0  0  0
 31 29  1  0  0  0  0
 32 28  1  0  0  0  0
 33 31  2  0  0  0  0
 33 30  1  0  0  0  0
 36 41  1  0  0  0  0
 36 39  1  0  0  0  0
 37 34  1  6  0  0  0
 37 35  1  0  0  0  0
 37 40  1  0  0  0  0
 38 41  1  0  0  0  0
 38 35  1  0  0  0  0
 39 60  1  0  0  0  0
 39 40  1  1  0  0  0
 43 59  2  0  0  0  0
 44 52  1  0  0  0  0
 47 57  2  0  0  0  0
 49 61  1  1  0  0  0
 50 46  1  0  0  0  0
 51 42  1  6  0  0  0
 51 49  1  0  0  0  0
 51 55  1  0  0  0  0
 51 45  1  0  0  0  0
 52 56  1  0  0  0  0
 53 47  2  0  0  0  0
 54 46  1  6  0  0  0
 54 60  1  0  0  0  0
 54 42  1  0  0  0  0
 55 48  1  6  0  0  0
 55 45  1  0  0  0  0
 56 49  1  0  0  0  0
 57 44  1  0  0  0  0
 58 56  2  0  0  0  0
 59 57  1  0  0  0  0
 59 50  1  0  0  0  0
 60 48  1  1  0  0  0
 64 61  1  0  0  0  0
 64 62  1  0  0  0  0
 64 63  1  1  0  0  0
M  END
>  <MODEL>
4

>  <REMARK>
 VINA RESULT:      -2.6      2.315      9.200
  Name = 
  18 active torsions:
  status: ('A' for Active; 'I' for Inactive)
    1  A    between atoms: C_1  and  O_25
    2  A    between atoms: C_1  and  C_35
    3  A    between atoms: N_2  and  C_54
    4  A    between atoms: N_2  and  C_58
    5  A    between atoms: O_6  and  C_17
    6  A    between atoms: O_6  and  C_64
    7  A    between atoms: O_12  and  C_27
    8  A    between atoms: O_12  and  C_32
    9  A    between atoms: P_20  and  C_24
   10  A    between atoms: P_20  and  O_25
   11  A    between atoms: C_24  and  C_53
   12  A    between atoms: C_36  and  C_38
   13  A    between atoms: C_36  and  C_49
   14  A    between atoms: C_37  and  C_63
   15  A    between atoms: C_38  and  C_46
   16  A    between atoms: C_40  and  C_58
   17  A    between atoms: C_42  and  C_46
   18  A    between atoms: C_49  and  C_53
                            x       y       z     vdW  Elec       q    Type
                         _______ _______ _______ _____ _____    ______ ____

>  <TORSDO>
F 18

$$$$
