=
 OpenBabel11072412363D

 51 53  0  0  1  0  0  0  0  0999 V2000
  162.1390  208.4890  148.2320 O   0  0  0  0  0  0  0  0  0  0  0  0
  162.0820  209.7650  150.2100 N   0  0  0  0  0  0  0  0  0  0  0  0
  162.0390  208.5470  149.4890 C   0  0  0  0  0  0  0  0  0  0  0  0
  162.1110  209.4110  151.5770 C   0  0  0  0  0  0  0  0  0  0  0  0
  161.9400  207.3490  150.3710 C   0  0  1  0  0  3  0  0  0  0  0  0
  162.3270  210.2480  152.4940 O   0  0  0  0  0  0  0  0  0  0  0  0
  161.9490  207.9420  151.8070 C   0  0  2  0  0  3  0  0  0  0  0  0
  160.6650  207.6640  152.5930 C   0  0  0  0  0  2  0  0  0  0  0  0
  162.1010  206.1560  153.7220 F   0  0  0  0  0  0  0  0  0  0  0  0
  160.9900  206.9600  153.9010 C   0  0  1  0  0  3  0  0  0  0  0  0
  161.2630  207.3650  156.2420 F   0  0  0  0  0  0  0  0  0  0  0  0
  161.2560  207.9820  155.0010 C   0  0  2  0  0  3  0  0  0  0  0  0
  160.1950  209.0640  154.9770 C   0  0  0  0  0  1  0  0  0  0  0  0
  160.7660  206.6320  150.0730 O   0  0  0  0  0  0  0  0  0  0  0  0
  161.1880  205.3320  149.7470 C   0  0  1  0  0  3  0  0  0  0  0  0
  160.7160  204.3780  150.8320 C   0  0  0  0  0  2  0  0  0  0  0  0
  161.8140  203.9180  151.5670 O   0  0  0  0  0  1  0  0  0  0  0  0
  160.6470  204.9370  148.5140 O   0  0  0  0  0  0  0  0  0  0  0  0
  161.6450  204.1750  147.9000 C   0  0  2  0  0  3  0  0  0  0  0  0
  162.6780  205.0120  147.4740 O   0  0  0  0  0  1  0  0  0  0  0  0
  161.1230  203.4870  146.8000 O   0  0  0  0  0  0  0  0  0  0  0  0
  160.6910  202.2540  147.3110 C   0  0  1  0  0  3  0  0  0  0  0  0
  161.2390  200.1240  146.3850 O   0  0  0  0  0  1  0  0  0  0  0  0
  160.6680  201.2360  146.2180 C   0  0  0  0  0  0  0  0  0  0  0  0
  160.0470  201.5170  145.0090 O   0  0  0  0  0  0  0  0  0  0  0  0
  161.6160  201.7900  148.4330 C   0  0  0  0  0  2  0  0  0  0  0  0
  160.8100  201.0940  149.5150 C   0  0  0  0  0  1  0  0  0  0  0  0
  162.4820  211.0630  149.6750 C   0  0  0  0  0  2  0  0  0  0  0  0
  161.3650  211.7280  148.8690 C   0  0  1  0  0  3  0  0  0  0  0  0
  160.6650  212.8630  149.6000 C   0  0  0  0  0  1  0  0  0  0  0  0
  161.7730  212.0870  147.5070 N   0  0  0  0  0  2  0  0  0  0  0  0
  161.7390  213.3880  146.8880 C   0  0  0  0  0  0  0  0  0  0  0  0
  162.4670  214.3990  147.3480 C   0  0  0  0  0  2  0  0  0  0  0  0
  161.5740  213.3140  144.3920 C   0  0  0  0  0  0  0  0  0  0  0  0
  163.1420  212.9880  142.9510 N   0  0  0  0  0  0  0  0  0  0  0  0
  158.6290  213.8750  143.7490 C   0  0  0  0  0  2  0  0  0  0  0  0
  159.6320  213.4140  142.7950 N   0  0  0  0  0  2  0  0  0  0  0  0
  158.5640  212.9660  144.9400 C   0  0  0  0  0  3  0  0  0  0  0  0
  161.0100  213.2400  143.1330 C   0  0  0  0  0  0  0  0  0  0  0  0
  163.0090  212.7820  140.1600 O   0  0  0  0  0  0  0  0  0  0  0  0
  161.9420  212.8420  140.8340 C   0  0  0  0  0  0  0  0  0  0  0  0
  160.8650  213.6220  145.6880 C   0  0  1  0  0  3  0  0  0  0  0  0
  159.5750  212.8500  145.8130 C   0  0  0  0  0  3  0  0  0  0  0  0
  162.0110  213.0180  142.2600 N   0  0  0  0  0  0  0  0  0  0  0  0
  162.9100  213.1710  144.2450 N   0  0  0  0  0  0  0  0  0  0  0  0
  160.6330  212.6660  140.1290 C   0  0  0  0  0  2  0  0  0  0  0  0
  160.2520  211.1900  140.0640 C   0  0  0  0  0  3  0  0  0  0  0  0
  161.8250  209.2700  139.8160 C   0  0  0  0  0  1  0  0  0  0  0  0
  161.1940  210.4580  139.1180 C   0  0  0  0  0  2  0  0  0  0  0  0
  158.8240  211.0440  139.5650 C   0  0  0  0  0  2  0  0  0  0  0  0
  158.0490  212.3250  139.7930 C   0  0  0  0  0  1  0  0  0  0  0  0
  1  3  2  0  0  0  0
  2  4  1  0  0  0  0
  3  2  1  0  0  0  0
  3  5  1  0  0  0  0
  4  7  1  0  0  0  0
  4  6  2  0  0  0  0
  5 14  1  6  0  0  0
  5  7  1  0  0  0  0
  7  8  1  6  0  0  0
  8 10  1  0  0  0  0
 10  9  1  6  0  0  0
 10 12  1  0  0  0  0
 12 13  1  1  0  0  0
 12 11  1  0  0  0  0
 15 14  1  0  0  0  0
 15 16  1  1  0  0  0
 16 17  1  0  0  0  0
 18 15  1  0  0  0  0
 19 20  1  6  0  0  0
 19 18  1  0  0  0  0
 21 22  1  0  0  0  0
 21 19  1  0  0  0  0
 22 26  1  1  0  0  0
 24 23  1  0  0  0  0
 24 22  1  0  0  0  0
 25 24  2  0  0  0  0
 26 27  1  0  0  0  0
 28  2  1  0  0  0  0
 29 30  1  1  0  0  0
 29 28  1  0  0  0  0
 31 29  1  0  0  0  0
 32 33  2  0  0  0  0
 32 31  1  0  0  0  0
 34 42  1  0  0  0  0
 35 45  2  0  0  0  0
 36 38  1  0  0  0  0
 37 39  1  0  0  0  0
 37 36  1  0  0  0  0
 38 43  2  0  0  0  0
 39 34  2  0  0  0  0
 40 41  2  0  0  0  0
 41 44  1  0  0  0  0
 42 43  1  0  0  0  0
 42 32  1  1  0  0  0
 44 35  1  0  0  0  0
 44 39  1  0  0  0  0
 45 34  1  0  0  0  0
 46 41  1  0  0  0  0
 47 46  1  0  0  0  0
 49 48  1  0  0  0  0
 49 47  1  0  0  0  0
 50 51  1  0  0  0  0
 50 47  1  0  0  0  0
M  END
>  <MODEL>
1

>  <REMARK>
 VINA RESULT:      -6.9      0.000      0.000
  Name = 
  21 active torsions:
  status: ('A' for Active; 'I' for Inactive)
    1  A    between atoms: N_3  and  C_51
    2  A    between atoms: C_5  and  C_13
    3  A    between atoms: C_5  and  C_20
    4  A    between atoms: C_5  and  C_48
    5  A    between atoms: C_7  and  C_39
    6  A    between atoms: C_8  and  C_29
    7  A    between atoms: C_8  and  C_49
    8  A    between atoms: C_14  and  O_25
    9  A    between atoms: C_14  and  O_35
   10  A    between atoms: C_17  and  O_25
   11  A    between atoms: C_17  and  C_27
   12  A    between atoms: C_17  and  C_37
   13  A    between atoms: C_18  and  O_36
   14  A    between atoms: C_21  and  C_38
   15  A    between atoms: C_21  and  N_46
   16  A    between atoms: C_29  and  C_30
   17  A    between atoms: C_32  and  N_46
   18  A    between atoms: C_32  and  C_51
   19  A    between atoms: C_33  and  C_48
   20  A    between atoms: O_35  and  C_39
   21  A    between atoms: O_36  and  C_39
                            x       y       z     vdW  Elec       q    Type
                         _______ _______ _______ _____ _____    ______ ____

>  <TORSDO>
F 21

$$$$
=
 OpenBabel11072412363D

 51 53  0  0  1  0  0  0  0  0999 V2000
  162.4090  207.9540  148.5200 O   0  0  0  0  0  0  0  0  0  0  0  0
  162.2330  209.4830  150.3020 N   0  0  0  0  0  0  0  0  0  0  0  0
  162.2160  208.1800  149.7470 C   0  0  0  0  0  0  0  0  0  0  0  0
  162.1520  209.3130  151.7020 C   0  0  0  0  0  0  0  0  0  0  0  0
  162.0240  207.1110  150.7690 C   0  0  1  0  0  3  0  0  0  0  0  0
  162.3180  210.2620  152.5150 O   0  0  0  0  0  0  0  0  0  0  0  0
  161.9400  207.8900  152.1100 C   0  0  2  0  0  3  0  0  0  0  0  0
  160.5940  207.7350  152.8250 C   0  0  0  0  0  2  0  0  0  0  0  0
  161.9710  206.2860  154.0980 F   0  0  0  0  0  0  0  0  0  0  0  0
  160.7780  206.9850  154.1350 C   0  0  1  0  0  3  0  0  0  0  0  0
  160.1430  207.3980  156.4030 F   0  0  0  0  0  0  0  0  0  0  0  0
  160.7790  207.9590  155.3080 C   0  0  2  0  0  3  0  0  0  0  0  0
  160.0790  209.2460  154.9190 C   0  0  0  0  0  1  0  0  0  0  0  0
  160.8600  206.3750  150.4780 O   0  0  0  0  0  0  0  0  0  0  0  0
  161.2890  205.0550  150.2680 C   0  0  1  0  0  3  0  0  0  0  0  0
  161.8900  204.5240  151.5590 C   0  0  0  0  0  2  0  0  0  0  0  0
  160.9130  203.8360  152.2880 O   0  0  0  0  0  1  0  0  0  0  0  0
  160.2070  204.2440  149.8920 O   0  0  0  0  0  0  0  0  0  0  0  0
  160.6890  203.4450  148.8500 C   0  0  2  0  0  3  0  0  0  0  0  0
  161.2890  202.3000  149.3770 O   0  0  0  0  0  1  0  0  0  0  0  0
  161.6280  204.1520  148.0910 O   0  0  0  0  0  0  0  0  0  0  0  0
  161.0760  204.2230  146.8020 C   0  0  1  0  0  3  0  0  0  0  0  0
  160.5490  206.5450  146.6500 O   0  0  0  0  0  1  0  0  0  0  0  0
  161.2730  205.5960  146.2460 C   0  0  0  0  0  0  0  0  0  0  0  0
  162.2300  205.8260  145.2660 O   0  0  0  0  0  0  0  0  0  0  0  0
  161.7310  203.1940  145.8860 C   0  0  0  0  0  2  0  0  0  0  0  0
  160.8140  201.9960  145.7130 C   0  0  0  0  0  1  0  0  0  0  0  0
  162.7010  210.6920  149.6340 C   0  0  0  0  0  2  0  0  0  0  0  0
  161.5750  211.4230  148.9000 C   0  0  1  0  0  3  0  0  0  0  0  0
  160.7740  212.3700  149.7810 C   0  0  0  0  0  1  0  0  0  0  0  0
  162.0110  212.0390  147.6430 N   0  0  0  0  0  2  0  0  0  0  0  0
  161.6950  213.3540  147.1460 C   0  0  0  0  0  0  0  0  0  0  0  0
  162.1030  214.4530  147.7700 C   0  0  0  0  0  2  0  0  0  0  0  0
  161.7480  213.5230  144.6500 C   0  0  0  0  0  0  0  0  0  0  0  0
  163.4560  213.7510  143.3550 N   0  0  0  0  0  0  0  0  0  0  0  0
  158.8160  213.4220  143.7590 C   0  0  0  0  0  2  0  0  0  0  0  0
  159.9740  213.3280  142.8760 N   0  0  0  0  0  2  0  0  0  0  0  0
  158.8900  212.3960  144.8500 C   0  0  0  0  0  3  0  0  0  0  0  0
  161.3220  213.4570  143.3370 C   0  0  0  0  0  0  0  0  0  0  0  0
  163.5970  213.8330  140.5580 O   0  0  0  0  0  0  0  0  0  0  0  0
  162.5000  213.5570  141.1210 C   0  0  0  0  0  0  0  0  0  0  0  0
  160.8860  213.5020  145.8870 C   0  0  1  0  0  3  0  0  0  0  0  0
  159.8260  212.4320  145.8090 C   0  0  0  0  0  3  0  0  0  0  0  0
  162.4100  213.5830  142.5570 N   0  0  0  0  0  0  0  0  0  0  0  0
  163.0840  213.7260  144.6290 N   0  0  0  0  0  0  0  0  0  0  0  0
  161.3360  213.1490  140.2710 C   0  0  0  0  0  2  0  0  0  0  0  0
  161.8170  212.5460  138.9550 C   0  0  0  0  0  3  0  0  0  0  0  0
  160.3220  214.0710  137.6640 C   0  0  0  0  0  1  0  0  0  0  0  0
  160.7050  212.6260  137.9180 C   0  0  0  0  0  2  0  0  0  0  0  0
  162.2080  211.0930  139.1610 C   0  0  0  0  0  2  0  0  0  0  0  0
  161.1030  210.3420  139.8750 C   0  0  0  0  0  1  0  0  0  0  0  0
  1  3  2  0  0  0  0
  2  4  1  0  0  0  0
  3  2  1  0  0  0  0
  3  5  1  0  0  0  0
  4  7  1  0  0  0  0
  4  6  2  0  0  0  0
  5 14  1  6  0  0  0
  5  7  1  0  0  0  0
  7  8  1  6  0  0  0
  8 10  1  0  0  0  0
 10  9  1  6  0  0  0
 10 12  1  0  0  0  0
 12 13  1  6  0  0  0
 12 11  1  0  0  0  0
 15 14  1  0  0  0  0
 15 16  1  1  0  0  0
 16 17  1  0  0  0  0
 18 15  1  0  0  0  0
 19 20  1  1  0  0  0
 19 18  1  0  0  0  0
 21 19  1  0  0  0  0
 22 26  1  6  0  0  0
 22 21  1  0  0  0  0
 24 23  1  0  0  0  0
 24 22  1  0  0  0  0
 25 24  2  0  0  0  0
 27 26  1  0  0  0  0
 28  2  1  0  0  0  0
 29 28  1  0  0  0  0
 29 30  1  1  0  0  0
 31 29  1  0  0  0  0
 32 31  1  0  0  0  0
 32 33  2  0  0  0  0
 34 42  1  0  0  0  0
 35 45  2  0  0  0  0
 36 38  1  0  0  0  0
 37 39  1  0  0  0  0
 37 36  1  0  0  0  0
 38 43  2  0  0  0  0
 39 34  2  0  0  0  0
 40 41  2  0  0  0  0
 41 44  1  0  0  0  0
 42 32  1  1  0  0  0
 43 42  1  0  0  0  0
 44 39  1  0  0  0  0
 44 35  1  0  0  0  0
 45 34  1  0  0  0  0
 46 41  1  0  0  0  0
 47 50  1  0  0  0  0
 47 46  1  0  0  0  0
 48 49  1  0  0  0  0
 49 47  1  0  0  0  0
 50 51  1  0  0  0  0
M  END
>  <MODEL>
2

>  <REMARK>
 VINA RESULT:      -6.3      1.311      2.049
  Name = 
  21 active torsions:
  status: ('A' for Active; 'I' for Inactive)
    1  A    between atoms: N_3  and  C_51
    2  A    between atoms: C_5  and  C_13
    3  A    between atoms: C_5  and  C_20
    4  A    between atoms: C_5  and  C_48
    5  A    between atoms: C_7  and  C_39
    6  A    between atoms: C_8  and  C_29
    7  A    between atoms: C_8  and  C_49
    8  A    between atoms: C_14  and  O_25
    9  A    between atoms: C_14  and  O_35
   10  A    between atoms: C_17  and  O_25
   11  A    between atoms: C_17  and  C_27
   12  A    between atoms: C_17  and  C_37
   13  A    between atoms: C_18  and  O_36
   14  A    between atoms: C_21  and  C_38
   15  A    between atoms: C_21  and  N_46
   16  A    between atoms: C_29  and  C_30
   17  A    between atoms: C_32  and  N_46
   18  A    between atoms: C_32  and  C_51
   19  A    between atoms: C_33  and  C_48
   20  A    between atoms: O_35  and  C_39
   21  A    between atoms: O_36  and  C_39
                            x       y       z     vdW  Elec       q    Type
                         _______ _______ _______ _____ _____    ______ ____

>  <TORSDO>
F 21

$$$$
=
 OpenBabel11072412363D

 51 53  0  0  1  0  0  0  0  0999 V2000
  162.1280  208.4260  148.1460 O   0  0  0  0  0  0  0  0  0  0  0  0
  161.9420  210.0110  149.8780 N   0  0  0  0  0  0  0  0  0  0  0  0
  162.0320  208.6890  149.3770 C   0  0  0  0  0  0  0  0  0  0  0  0
  162.0220  209.9040  151.2840 C   0  0  0  0  0  0  0  0  0  0  0  0
  162.0750  207.6580  150.4540 C   0  0  1  0  0  3  0  0  0  0  0  0
  162.1490  210.9060  152.0380 O   0  0  0  0  0  0  0  0  0  0  0  0
  162.0290  208.4890  151.7660 C   0  0  2  0  0  3  0  0  0  0  0  0
  160.7900  208.2120  152.6230 C   0  0  0  0  0  2  0  0  0  0  0  0
  159.7580  209.9690  153.8330 F   0  0  0  0  0  0  0  0  0  0  0  0
  160.8130  209.0750  153.8750 C   0  0  1  0  0  3  0  0  0  0  0  0
  161.7060  208.5310  156.0250 F   0  0  0  0  0  0  0  0  0  0  0  0
  160.7090  208.2020  155.1210 C   0  0  2  0  0  3  0  0  0  0  0  0
  160.8260  206.7390  154.7460 C   0  0  0  0  0  1  0  0  0  0  0  0
  160.9880  206.7760  150.3150 O   0  0  0  0  0  0  0  0  0  0  0  0
  161.5230  205.5980  149.7700 C   0  0  1  0  0  3  0  0  0  0  0  0
  161.4840  204.5070  150.8270 C   0  0  0  0  0  2  0  0  0  0  0  0
  160.4780  204.7880  151.7590 O   0  0  0  0  0  1  0  0  0  0  0  0
  160.7740  205.1910  148.6550 O   0  0  0  0  0  0  0  0  0  0  0  0
  161.4990  204.1390  148.0860 C   0  0  2  0  0  3  0  0  0  0  0  0
  162.2820  204.6240  147.0380 O   0  0  0  0  0  1  0  0  0  0  0  0
  160.6300  203.1580  147.5990 O   0  0  0  0  0  0  0  0  0  0  0  0
  161.2100  201.9360  147.9750 C   0  0  1  0  0  3  0  0  0  0  0  0
  161.1740  200.9400  150.1430 O   0  0  0  0  0  1  0  0  0  0  0  0
  160.5050  201.3940  149.1760 C   0  0  0  0  0  0  0  0  0  0  0  0
  159.1180  201.3590  149.2210 O   0  0  0  0  0  0  0  0  0  0  0  0
  161.1280  200.9330  146.8290 C   0  0  0  0  0  2  0  0  0  0  0  0
  160.3660  201.5390  145.6640 C   0  0  0  0  0  1  0  0  0  0  0  0
  162.1900  211.2320  149.1180 C   0  0  0  0  0  2  0  0  0  0  0  0
  160.9050  212.0200  148.8510 C   0  0  1  0  0  3  0  0  0  0  0  0
  160.8920  213.4100  149.4650 C   0  0  0  0  0  1  0  0  0  0  0  0
  160.5080  212.0110  147.4390 N   0  0  0  0  0  2  0  0  0  0  0  0
  160.4780  213.1230  146.5220 C   0  0  0  0  0  0  0  0  0  0  0  0
  159.6750  214.1630  146.7130 C   0  0  0  0  0  2  0  0  0  0  0  0
  160.5980  213.0990  144.0230 C   0  0  0  0  0  0  0  0  0  0  0  0
  159.0030  212.8020  142.6050 N   0  0  0  0  0  0  0  0  0  0  0  0
  163.5590  213.5040  143.3410 C   0  0  0  0  0  2  0  0  0  0  0  0
  162.4560  213.5500  142.3870 N   0  0  0  0  0  2  0  0  0  0  0  0
  163.3250  214.4530  144.4780 C   0  0  0  0  0  3  0  0  0  0  0  0
  161.0990  213.2790  142.7480 C   0  0  0  0  0  0  0  0  0  0  0  0
  159.0470  212.8730  139.8040 O   0  0  0  0  0  0  0  0  0  0  0  0
  160.0770  213.2090  140.4540 C   0  0  0  0  0  0  0  0  0  0  0  0
  161.3740  213.1200  145.3160 C   0  0  1  0  0  3  0  0  0  0  0  0
  162.3370  214.2800  145.3680 C   0  0  0  0  0  3  0  0  0  0  0  0
  160.0770  213.1050  141.8890 N   0  0  0  0  0  0  0  0  0  0  0  0
  159.2890  212.7830  143.9000 N   0  0  0  0  0  0  0  0  0  0  0  0
  161.2510  213.7660  139.7090 C   0  0  0  0  0  2  0  0  0  0  0  0
  162.2320  212.6560  139.3450 C   0  0  0  0  0  3  0  0  0  0  0  0
  163.3210  214.4460  137.9910 C   0  0  0  0  0  1  0  0  0  0  0  0
  163.5580  213.2660  138.9120 C   0  0  0  0  0  2  0  0  0  0  0  0
  161.6700  211.8180  138.2090 C   0  0  0  0  0  2  0  0  0  0  0  0
  162.7620  210.9800  137.5770 C   0  0  0  0  0  1  0  0  0  0  0  0
  1  3  2  0  0  0  0
  2  4  1  0  0  0  0
  3  2  1  0  0  0  0
  3  5  1  0  0  0  0
  4  7  1  0  0  0  0
  4  6  2  0  0  0  0
  5 14  1  6  0  0  0
  5  7  1  0  0  0  0
  7  8  1  6  0  0  0
  8 10  1  0  0  0  0
 10  9  1  6  0  0  0
 10 12  1  0  0  0  0
 12 13  1  6  0  0  0
 12 11  1  0  0  0  0
 15 14  1  0  0  0  0
 15 16  1  1  0  0  0
 16 17  1  0  0  0  0
 18 15  1  0  0  0  0
 19 20  1  6  0  0  0
 19 18  1  0  0  0  0
 21 22  1  0  0  0  0
 21 19  1  0  0  0  0
 22 26  1  6  0  0  0
 22 24  1  0  0  0  0
 24 25  2  0  0  0  0
 24 23  1  0  0  0  0
 27 26  1  0  0  0  0
 28  2  1  0  0  0  0
 29 28  1  0  0  0  0
 29 30  1  6  0  0  0
 31 29  1  0  0  0  0
 32 33  2  0  0  0  0
 32 31  1  0  0  0  0
 34 42  1  0  0  0  0
 35 45  2  0  0  0  0
 36 38  1  0  0  0  0
 37 39  1  0  0  0  0
 37 36  1  0  0  0  0
 38 43  2  0  0  0  0
 39 34  2  0  0  0  0
 40 41  2  0  0  0  0
 41 44  1  0  0  0  0
 42 43  1  0  0  0  0
 42 32  1  1  0  0  0
 44 35  1  0  0  0  0
 44 39  1  0  0  0  0
 45 34  1  0  0  0  0
 46 41  1  0  0  0  0
 47 46  1  0  0  0  0
 48 49  1  0  0  0  0
 49 47  1  0  0  0  0
 50 47  1  0  0  0  0
 51 50  1  0  0  0  0
M  END
>  <MODEL>
3

>  <REMARK>
 VINA RESULT:      -5.6      1.568      2.550
  Name = 
  21 active torsions:
  status: ('A' for Active; 'I' for Inactive)
    1  A    between atoms: N_3  and  C_51
    2  A    between atoms: C_5  and  C_13
    3  A    between atoms: C_5  and  C_20
    4  A    between atoms: C_5  and  C_48
    5  A    between atoms: C_7  and  C_39
    6  A    between atoms: C_8  and  C_29
    7  A    between atoms: C_8  and  C_49
    8  A    between atoms: C_14  and  O_25
    9  A    between atoms: C_14  and  O_35
   10  A    between atoms: C_17  and  O_25
   11  A    between atoms: C_17  and  C_27
   12  A    between atoms: C_17  and  C_37
   13  A    between atoms: C_18  and  O_36
   14  A    between atoms: C_21  and  C_38
   15  A    between atoms: C_21  and  N_46
   16  A    between atoms: C_29  and  C_30
   17  A    between atoms: C_32  and  N_46
   18  A    between atoms: C_32  and  C_51
   19  A    between atoms: C_33  and  C_48
   20  A    between atoms: O_35  and  C_39
   21  A    between atoms: O_36  and  C_39
                            x       y       z     vdW  Elec       q    Type
                         _______ _______ _______ _____ _____    ______ ____

>  <TORSDO>
F 21

$$$$
=
 OpenBabel11072412363D

 51 53  0  0  1  0  0  0  0  0999 V2000
  162.1180  207.9000  148.1020 O   0  0  0  0  0  0  0  0  0  0  0  0
  161.9300  209.6910  149.6190 N   0  0  0  0  0  0  0  0  0  0  0  0
  161.9720  208.3160  149.2850 C   0  0  0  0  0  0  0  0  0  0  0  0
  161.9300  209.7530  151.0300 C   0  0  0  0  0  0  0  0  0  0  0  0
  161.9030  207.4220  150.4780 C   0  0  1  0  0  3  0  0  0  0  0  0
  162.0730  210.8310  151.6660 O   0  0  0  0  0  0  0  0  0  0  0  0
  161.8340  208.4080  151.6770 C   0  0  2  0  0  3  0  0  0  0  0  0
  160.5380  208.2970  152.4870 C   0  0  0  0  0  2  0  0  0  0  0  0
  161.9940  207.1060  153.9280 F   0  0  0  0  0  0  0  0  0  0  0  0
  160.8450  207.8760  153.9150 C   0  0  1  0  0  3  0  0  0  0  0  0
  162.1700  208.9730  155.5770 F   0  0  0  0  0  0  0  0  0  0  0  0
  161.0300  209.1040  154.8000 C   0  0  2  0  0  3  0  0  0  0  0  0
  159.8220  209.2880  155.6970 C   0  0  0  0  0  1  0  0  0  0  0  0
  160.7770  206.5830  150.3810 O   0  0  0  0  0  0  0  0  0  0  0  0
  161.2730  205.3260  150.0000 C   0  0  1  0  0  3  0  0  0  0  0  0
  161.7600  204.5960  151.2410 C   0  0  0  0  0  2  0  0  0  0  0  0
  160.8480  204.7800  152.2870 O   0  0  0  0  0  1  0  0  0  0  0  0
  160.2650  204.5690  149.3830 O   0  0  0  0  0  0  0  0  0  0  0  0
  160.9310  203.7320  148.4820 C   0  0  2  0  0  3  0  0  0  0  0  0
  161.8330  202.9230  149.1750 O   0  0  0  0  0  1  0  0  0  0  0  0
  161.6250  204.4930  147.5350 O   0  0  0  0  0  0  0  0  0  0  0  0
  160.9320  204.2950  146.3300 C   0  0  1  0  0  3  0  0  0  0  0  0
  160.5400  206.5890  145.8040 O   0  0  0  0  0  1  0  0  0  0  0  0
  161.0790  205.5020  145.4620 C   0  0  0  0  0  0  0  0  0  0  0  0
  161.7800  205.4270  144.2660 O   0  0  0  0  0  0  0  0  0  0  0  0
  161.4690  203.0660  145.6030 C   0  0  0  0  0  2  0  0  0  0  0  0
  160.3370  202.0950  145.3220 C   0  0  0  0  0  1  0  0  0  0  0  0
  162.2830  210.7970  148.7350 C   0  0  0  0  0  2  0  0  0  0  0  0
  161.2250  211.9030  148.7380 C   0  0  1  0  0  3  0  0  0  0  0  0
  161.7810  213.2910  149.0140 C   0  0  0  0  0  1  0  0  0  0  0  0
  160.3450  211.8590  147.5660 N   0  0  0  0  0  2  0  0  0  0  0  0
  160.2230  212.8370  146.5140 C   0  0  0  0  0  0  0  0  0  0  0  0
  159.2160  213.7020  146.4780 C   0  0  0  0  0  2  0  0  0  0  0  0
  160.6600  212.6820  144.0550 C   0  0  0  0  0  0  0  0  0  0  0  0
  159.3130  212.0730  142.4880 N   0  0  0  0  0  0  0  0  0  0  0  0
  163.6000  213.4740  143.6940 C   0  0  0  0  0  2  0  0  0  0  0  0
  162.6300  213.3020  142.6170 N   0  0  0  0  0  2  0  0  0  0  0  0
  163.0950  214.4440  144.7190 C   0  0  0  0  0  3  0  0  0  0  0  0
  161.2880  212.8580  142.8380 C   0  0  0  0  0  0  0  0  0  0  0  0
  159.7000  211.9830  139.7140 O   0  0  0  0  0  0  0  0  0  0  0  0
  160.5840  212.5040  140.4530 C   0  0  0  0  0  0  0  0  0  0  0  0
  161.2570  212.8930  145.4240 C   0  0  1  0  0  3  0  0  0  0  0  0
  162.0360  214.1820  145.4990 C   0  0  0  0  0  3  0  0  0  0  0  0
  160.4170  212.4860  141.8810 N   0  0  0  0  0  0  0  0  0  0  0  0
  159.4330  212.1730  143.8050 N   0  0  0  0  0  0  0  0  0  0  0  0
  161.7540  213.1800  139.8090 C   0  0  0  0  0  2  0  0  0  0  0  0
  162.8290  212.1610  139.4430 C   0  0  0  0  0  3  0  0  0  0  0  0
  164.0520  214.3120  139.1150 C   0  0  0  0  0  1  0  0  0  0  0  0
  163.9630  212.8560  138.7010 C   0  0  0  0  0  2  0  0  0  0  0  0
  162.2380  211.0780  138.5570 C   0  0  0  0  0  2  0  0  0  0  0  0
  162.7740  211.1970  137.1440 C   0  0  0  0  0  1  0  0  0  0  0  0
  1  3  2  0  0  0  0
  2  4  1  0  0  0  0
  3  2  1  0  0  0  0
  3  5  1  0  0  0  0
  4  6  2  0  0  0  0
  4  7  1  0  0  0  0
  5 14  1  6  0  0  0
  5  7  1  0  0  0  0
  7  8  1  6  0  0  0
  8 10  1  0  0  0  0
 10  9  1  6  0  0  0
 10 12  1  0  0  0  0
 12 11  1  0  0  0  0
 12 13  1  1  0  0  0
 15 14  1  0  0  0  0
 15 16  1  1  0  0  0
 16 17  1  0  0  0  0
 18 15  1  0  0  0  0
 19 20  1  1  0  0  0
 19 18  1  0  0  0  0
 21 19  1  0  0  0  0
 22 26  1  6  0  0  0
 22 21  1  0  0  0  0
 24 23  1  0  0  0  0
 24 22  1  0  0  0  0
 25 24  2  0  0  0  0
 27 26  1  0  0  0  0
 28 29  1  0  0  0  0
 28  2  1  0  0  0  0
 29 30  1  6  0  0  0
 31 29  1  0  0  0  0
 32 31  1  0  0  0  0
 33 32  2  0  0  0  0
 34 42  1  0  0  0  0
 35 45  2  0  0  0  0
 36 38  1  0  0  0  0
 37 39  1  0  0  0  0
 37 36  1  0  0  0  0
 38 43  2  0  0  0  0
 39 34  2  0  0  0  0
 40 41  2  0  0  0  0
 41 44  1  0  0  0  0
 42 43  1  0  0  0  0
 42 32  1  1  0  0  0
 44 35  1  0  0  0  0
 44 39  1  0  0  0  0
 45 34  1  0  0  0  0
 46 41  1  0  0  0  0
 47 46  1  0  0  0  0
 49 48  1  0  0  0  0
 49 47  1  0  0  0  0
 50 47  1  0  0  0  0
 51 50  1  0  0  0  0
M  END
>  <MODEL>
4

>  <REMARK>
 VINA RESULT:      -5.4      1.628      2.694
  Name = 
  21 active torsions:
  status: ('A' for Active; 'I' for Inactive)
    1  A    between atoms: N_3  and  C_51
    2  A    between atoms: C_5  and  C_13
    3  A    between atoms: C_5  and  C_20
    4  A    between atoms: C_5  and  C_48
    5  A    between atoms: C_7  and  C_39
    6  A    between atoms: C_8  and  C_29
    7  A    between atoms: C_8  and  C_49
    8  A    between atoms: C_14  and  O_25
    9  A    between atoms: C_14  and  O_35
   10  A    between atoms: C_17  and  O_25
   11  A    between atoms: C_17  and  C_27
   12  A    between atoms: C_17  and  C_37
   13  A    between atoms: C_18  and  O_36
   14  A    between atoms: C_21  and  C_38
   15  A    between atoms: C_21  and  N_46
   16  A    between atoms: C_29  and  C_30
   17  A    between atoms: C_32  and  N_46
   18  A    between atoms: C_32  and  C_51
   19  A    between atoms: C_33  and  C_48
   20  A    between atoms: O_35  and  C_39
   21  A    between atoms: O_36  and  C_39
                            x       y       z     vdW  Elec       q    Type
                         _______ _______ _______ _____ _____    ______ ____

>  <TORSDO>
F 21

$$$$
=
 OpenBabel11072412363D

 51 53  0  0  1  0  0  0  0  0999 V2000
  161.7410  208.0130  147.9140 O   0  0  0  0  0  0  0  0  0  0  0  0
  161.6280  209.9980  149.1760 N   0  0  0  0  0  0  0  0  0  0  0  0
  161.7440  208.5930  149.0350 C   0  0  0  0  0  0  0  0  0  0  0  0
  161.8420  210.2740  150.5450 C   0  0  0  0  0  0  0  0  0  0  0  0
  161.9410  207.8900  150.3350 C   0  0  1  0  0  3  0  0  0  0  0  0
  161.9830  211.4440  150.9910 O   0  0  0  0  0  0  0  0  0  0  0  0
  161.9700  209.0400  151.3800 C   0  0  2  0  0  3  0  0  0  0  0  0
  160.8310  208.9670  152.4020 C   0  0  0  0  0  2  0  0  0  0  0  0
  161.0500  210.7930  153.8970 F   0  0  0  0  0  0  0  0  0  0  0  0
  161.3160  209.4420  153.7630 C   0  0  1  0  0  3  0  0  0  0  0  0
  161.2280  208.9130  156.0930 F   0  0  0  0  0  0  0  0  0  0  0  0
  160.6220  208.6600  154.8730 C   0  0  2  0  0  3  0  0  0  0  0  0
  160.6750  207.1750  154.5780 C   0  0  0  0  0  1  0  0  0  0  0  0
  160.8950  206.9720  150.5460 O   0  0  0  0  0  0  0  0  0  0  0  0
  161.4570  205.7020  150.3360 C   0  0  1  0  0  3  0  0  0  0  0  0
  161.7140  205.0520  151.6860 C   0  0  0  0  0  2  0  0  0  0  0  0
  162.8090  205.6660  152.3050 O   0  0  0  0  0  1  0  0  0  0  0  0
  160.5820  204.8970  149.5920 O   0  0  0  0  0  0  0  0  0  0  0  0
  161.3980  204.1710  148.7190 C   0  0  2  0  0  3  0  0  0  0  0  0
  162.1430  205.0530  147.9340 O   0  0  0  0  0  1  0  0  0  0  0  0
  160.6200  203.3580  147.8900 O   0  0  0  0  0  0  0  0  0  0  0  0
  161.1590  202.0700  148.0320 C   0  0  1  0  0  3  0  0  0  0  0  0
  161.2610  200.8580  150.0850 O   0  0  0  0  0  1  0  0  0  0  0  0
  160.5320  201.3890  149.2050 C   0  0  0  0  0  0  0  0  0  0  0  0
  159.1490  201.3120  149.3160 O   0  0  0  0  0  0  0  0  0  0  0  0
  160.9190  201.2500  146.7680 C   0  0  0  0  0  2  0  0  0  0  0  0
  160.7090  202.1760  145.5830 C   0  0  0  0  0  1  0  0  0  0  0  0
  161.7380  210.9780  148.1000 C   0  0  0  0  0  2  0  0  0  0  0  0
  162.7110  212.1080  148.4420 C   0  0  1  0  0  3  0  0  0  0  0  0
  164.1440  211.8430  148.0100 C   0  0  0  0  0  1  0  0  0  0  0  0
  162.2230  213.4300  148.0350 N   0  0  0  0  0  2  0  0  0  0  0  0
  160.8670  213.9160  148.0540 C   0  0  0  0  0  0  0  0  0  0  0  0
  160.3320  214.4490  149.1460 C   0  0  0  0  0  2  0  0  0  0  0  0
  160.8380  213.4780  145.5900 C   0  0  0  0  0  0  0  0  0  0  0  0
  162.5070  213.2440  144.2480 N   0  0  0  0  0  0  0  0  0  0  0  0
  157.8750  213.4170  144.8040 C   0  0  0  0  0  2  0  0  0  0  0  0
  158.9870  213.0170  143.9490 N   0  0  0  0  0  2  0  0  0  0  0  0
  157.9100  212.6800  146.1090 C   0  0  0  0  0  3  0  0  0  0  0  0
  160.3570  213.1370  144.3410 C   0  0  0  0  0  0  0  0  0  0  0  0
  162.5470  212.6440  141.5120 O   0  0  0  0  0  0  0  0  0  0  0  0
  161.4540  212.6050  142.1450 C   0  0  0  0  0  0  0  0  0  0  0  0
  160.0250  213.8270  146.8120 C   0  0  1  0  0  3  0  0  0  0  0  0
  158.8820  212.8640  147.0140 C   0  0  0  0  0  3  0  0  0  0  0  0
  161.4220  212.9810  143.5330 N   0  0  0  0  0  0  0  0  0  0  0  0
  162.1840  213.5560  145.4970 N   0  0  0  0  0  0  0  0  0  0  0  0
  160.2300  212.1060  141.4400 C   0  0  0  0  0  2  0  0  0  0  0  0
  160.4890  211.9710  139.9430 C   0  0  0  0  0  3  0  0  0  0  0  0
  159.3040  212.3580  137.7820 C   0  0  0  0  0  1  0  0  0  0  0  0
  159.5560  212.8980  139.1750 C   0  0  0  0  0  2  0  0  0  0  0  0
  160.2490  210.5370  139.5010 C   0  0  0  0  0  2  0  0  0  0  0  0
  161.4770  209.6890  139.7590 C   0  0  0  0  0  1  0  0  0  0  0  0
  1  3  2  0  0  0  0
  2  4  1  0  0  0  0
  3  2  1  0  0  0  0
  3  5  1  0  0  0  0
  4  6  2  0  0  0  0
  4  7  1  0  0  0  0
  5 14  1  1  0  0  0
  5  7  1  0  0  0  0
  7  8  1  1  0  0  0
  8 10  1  0  0  0  0
 10  9  1  1  0  0  0
 10 12  1  0  0  0  0
 12 13  1  6  0  0  0
 12 11  1  0  0  0  0
 15 14  1  0  0  0  0
 15 16  1  1  0  0  0
 16 17  1  0  0  0  0
 18 15  1  0  0  0  0
 19 20  1  6  0  0  0
 19 18  1  0  0  0  0
 21 22  1  0  0  0  0
 21 19  1  0  0  0  0
 22 26  1  6  0  0  0
 22 24  1  0  0  0  0
 24 25  2  0  0  0  0
 24 23  1  0  0  0  0
 27 26  1  0  0  0  0
 28 29  1  0  0  0  0
 28  2  1  0  0  0  0
 29 30  1  6  0  0  0
 31 32  1  0  0  0  0
 31 29  1  0  0  0  0
 32 33  2  0  0  0  0
 34 42  1  0  0  0  0
 35 45  2  0  0  0  0
 36 38  1  0  0  0  0
 37 39  1  0  0  0  0
 37 36  1  0  0  0  0
 38 43  2  0  0  0  0
 39 34  2  0  0  0  0
 40 41  2  0  0  0  0
 41 44  1  0  0  0  0
 42 43  1  0  0  0  0
 42 32  1  1  0  0  0
 44 35  1  0  0  0  0
 44 39  1  0  0  0  0
 45 34  1  0  0  0  0
 46 41  1  0  0  0  0
 47 46  1  0  0  0  0
 48 49  1  0  0  0  0
 49 47  1  0  0  0  0
 50 51  1  0  0  0  0
 50 47  1  0  0  0  0
M  END
>  <MODEL>
5

>  <REMARK>
 VINA RESULT:      -5.4      1.532      2.134
  Name = 
  21 active torsions:
  status: ('A' for Active; 'I' for Inactive)
    1  A    between atoms: N_3  and  C_51
    2  A    between atoms: C_5  and  C_13
    3  A    between atoms: C_5  and  C_20
    4  A    between atoms: C_5  and  C_48
    5  A    between atoms: C_7  and  C_39
    6  A    between atoms: C_8  and  C_29
    7  A    between atoms: C_8  and  C_49
    8  A    between atoms: C_14  and  O_25
    9  A    between atoms: C_14  and  O_35
   10  A    between atoms: C_17  and  O_25
   11  A    between atoms: C_17  and  C_27
   12  A    between atoms: C_17  and  C_37
   13  A    between atoms: C_18  and  O_36
   14  A    between atoms: C_21  and  C_38
   15  A    between atoms: C_21  and  N_46
   16  A    between atoms: C_29  and  C_30
   17  A    between atoms: C_32  and  N_46
   18  A    between atoms: C_32  and  C_51
   19  A    between atoms: C_33  and  C_48
   20  A    between atoms: O_35  and  C_39
   21  A    between atoms: O_36  and  C_39
                            x       y       z     vdW  Elec       q    Type
                         _______ _______ _______ _____ _____    ______ ____

>  <TORSDO>
F 21

$$$$
=
 OpenBabel11072412363D

 51 53  0  0  1  0  0  0  0  0999 V2000
  162.4300  208.2100  148.5680 O   0  0  0  0  0  0  0  0  0  0  0  0
  161.6460  210.2860  149.3570 N   0  0  0  0  0  0  0  0  0  0  0  0
  162.0640  208.9430  149.5280 C   0  0  0  0  0  0  0  0  0  0  0  0
  161.4850  210.8150  150.6570 C   0  0  0  0  0  0  0  0  0  0  0  0
  162.0950  208.5190  150.9570 C   0  0  1  0  0  3  0  0  0  0  0  0
  161.2880  212.0400  150.8740 O   0  0  0  0  0  0  0  0  0  0  0  0
  161.6590  209.7920  151.7330 C   0  0  2  0  0  3  0  0  0  0  0  0
  160.3550  209.6160  152.5170 C   0  0  0  0  0  2  0  0  0  0  0  0
  161.5320  208.6020  154.3070 F   0  0  0  0  0  0  0  0  0  0  0  0
  160.6360  209.6140  154.0110 C   0  0  1  0  0  3  0  0  0  0  0  0
  161.9470  210.8200  155.6070 F   0  0  0  0  0  0  0  0  0  0  0  0
  161.2070  210.9600  154.4440 C   0  0  2  0  0  3  0  0  0  0  0  0
  160.0860  211.9540  154.6720 C   0  0  0  0  0  1  0  0  0  0  0  0
  161.2300  207.4260  151.1500 O   0  0  0  0  0  0  0  0  0  0  0  0
  162.0070  206.2800  150.9120 C   0  0  1  0  0  3  0  0  0  0  0  0
  162.4850  205.7280  152.2450 C   0  0  0  0  0  2  0  0  0  0  0  0
  161.4060  205.1720  152.9410 O   0  0  0  0  0  1  0  0  0  0  0  0
  161.2480  205.3030  150.2510 O   0  0  0  0  0  0  0  0  0  0  0  0
  161.1930  205.7180  148.9160 C   0  0  2  0  0  3  0  0  0  0  0  0
  159.9250  206.2300  148.6380 O   0  0  0  0  0  1  0  0  0  0  0  0
  161.4560  204.6430  148.0620 O   0  0  0  0  0  0  0  0  0  0  0  0
  161.6700  205.2210  146.8010 C   0  0  1  0  0  3  0  0  0  0  0  0
  162.6040  203.7900  145.1370 O   0  0  0  0  0  0  0  0  0  0  0  0
  162.8160  204.5430  146.1250 C   0  0  0  0  0  0  0  0  0  0  0  0
  164.1110  204.7140  146.5950 O   0  0  0  0  0  1  0  0  0  0  0  0
  160.4150  205.1010  145.9410 C   0  0  0  0  0  2  0  0  0  0  0  0
  160.3940  206.2050  144.8990 C   0  0  0  0  0  1  0  0  0  0  0  0
  161.8030  211.0830  148.1450 C   0  0  0  0  0  2  0  0  0  0  0  0
  162.7580  212.2610  148.3450 C   0  0  1  0  0  3  0  0  0  0  0  0
  164.1920  211.9730  147.9310 C   0  0  0  0  0  1  0  0  0  0  0  0
  162.2430  213.5190  147.7950 N   0  0  0  0  0  2  0  0  0  0  0  0
  160.8800  213.9900  147.7880 C   0  0  0  0  0  0  0  0  0  0  0  0
  160.2970  214.4530  148.8880 C   0  0  0  0  0  2  0  0  0  0  0  0
  160.9140  213.5170  145.3310 C   0  0  0  0  0  0  0  0  0  0  0  0
  162.6080  213.1000  144.0670 N   0  0  0  0  0  0  0  0  0  0  0  0
  157.9960  213.7340  144.4160 C   0  0  0  0  0  2  0  0  0  0  0  0
  159.0990  213.2130  143.6150 N   0  0  0  0  0  2  0  0  0  0  0  0
  157.9020  213.0170  145.7300 C   0  0  0  0  0  3  0  0  0  0  0  0
  160.4560  213.2050  144.0660 C   0  0  0  0  0  0  0  0  0  0  0  0
  162.7060  212.4550  141.3420 O   0  0  0  0  0  0  0  0  0  0  0  0
  161.5880  212.5330  141.9270 C   0  0  0  0  0  0  0  0  0  0  0  0
  160.0880  213.9640  146.5120 C   0  0  1  0  0  3  0  0  0  0  0  0
  158.8480  213.1200  146.6750 C   0  0  0  0  0  3  0  0  0  0  0  0
  161.5340  212.9320  143.3080 N   0  0  0  0  0  0  0  0  0  0  0  0
  162.2640  213.4610  145.2960 N   0  0  0  0  0  0  0  0  0  0  0  0
  160.3520  212.1450  141.1750 C   0  0  0  0  0  2  0  0  0  0  0  0
  160.4370  212.6100  139.7240 C   0  0  0  0  0  3  0  0  0  0  0  0
  158.1000  213.2960  140.2620 C   0  0  0  0  0  1  0  0  0  0  0  0
  159.3340  213.6220  139.4440 C   0  0  0  0  0  2  0  0  0  0  0  0
  160.2810  211.4240  138.7880 C   0  0  0  0  0  2  0  0  0  0  0  0
  160.2440  210.1290  139.5740 C   0  0  0  0  0  1  0  0  0  0  0  0
  1  3  2  0  0  0  0
  2  3  1  0  0  0  0
  2  4  1  0  0  0  0
  3  5  1  0  0  0  0
  4  6  2  0  0  0  0
  4  7  1  0  0  0  0
  5 14  1  6  0  0  0
  5  7  1  0  0  0  0
  7  8  1  6  0  0  0
  8 10  1  0  0  0  0
 10  9  1  6  0  0  0
 10 12  1  0  0  0  0
 12 13  1  1  0  0  0
 12 11  1  0  0  0  0
 15 14  1  0  0  0  0
 15 16  1  1  0  0  0
 16 17  1  0  0  0  0
 18 15  1  0  0  0  0
 19 20  1  6  0  0  0
 19 18  1  0  0  0  0
 21 19  1  0  0  0  0
 22 26  1  6  0  0  0
 22 21  1  0  0  0  0
 23 24  2  0  0  0  0
 24 25  1  0  0  0  0
 24 22  1  0  0  0  0
 27 26  1  0  0  0  0
 28 29  1  0  0  0  0
 28  2  1  0  0  0  0
 29 30  1  6  0  0  0
 31 29  1  0  0  0  0
 32 31  1  0  0  0  0
 32 33  2  0  0  0  0
 34 42  1  0  0  0  0
 35 45  2  0  0  0  0
 36 38  1  0  0  0  0
 37 39  1  0  0  0  0
 37 36  1  0  0  0  0
 38 43  2  0  0  0  0
 39 34  2  0  0  0  0
 40 41  2  0  0  0  0
 41 44  1  0  0  0  0
 42 43  1  0  0  0  0
 42 32  1  1  0  0  0
 44 39  1  0  0  0  0
 44 35  1  0  0  0  0
 45 34  1  0  0  0  0
 46 41  1  0  0  0  0
 47 46  1  0  0  0  0
 49 47  1  0  0  0  0
 49 48  1  0  0  0  0
 50 51  1  0  0  0  0
 50 47  1  0  0  0  0
M  END
>  <MODEL>
6

>  <REMARK>
 VINA RESULT:      -4.4      1.909      2.611
  Name = 
  21 active torsions:
  status: ('A' for Active; 'I' for Inactive)
    1  A    between atoms: N_3  and  C_51
    2  A    between atoms: C_5  and  C_13
    3  A    between atoms: C_5  and  C_20
    4  A    between atoms: C_5  and  C_48
    5  A    between atoms: C_7  and  C_39
    6  A    between atoms: C_8  and  C_29
    7  A    between atoms: C_8  and  C_49
    8  A    between atoms: C_14  and  O_25
    9  A    between atoms: C_14  and  O_35
   10  A    between atoms: C_17  and  O_25
   11  A    between atoms: C_17  and  C_27
   12  A    between atoms: C_17  and  C_37
   13  A    between atoms: C_18  and  O_36
   14  A    between atoms: C_21  and  C_38
   15  A    between atoms: C_21  and  N_46
   16  A    between atoms: C_29  and  C_30
   17  A    between atoms: C_32  and  N_46
   18  A    between atoms: C_32  and  C_51
   19  A    between atoms: C_33  and  C_48
   20  A    between atoms: O_35  and  C_39
   21  A    between atoms: O_36  and  C_39
                            x       y       z     vdW  Elec       q    Type
                         _______ _______ _______ _____ _____    ______ ____

>  <TORSDO>
F 21

$$$$
=
 OpenBabel11072412363D

 51 53  0  0  1  0  0  0  0  0999 V2000
  161.1330  211.2320  151.6850 O   0  0  0  0  0  0  0  0  0  0  0  0
  160.5630  211.6290  153.9350 N   0  0  0  0  0  0  0  0  0  0  0  0
  160.3390  211.7160  152.5390 C   0  0  0  0  0  0  0  0  0  0  0  0
  159.3920  212.1250  154.5510 C   0  0  0  0  0  0  0  0  0  0  0  0
  159.0430  212.3680  152.1940 C   0  0  1  0  0  3  0  0  0  0  0  0
  159.1810  212.0290  155.7890 O   0  0  0  0  0  0  0  0  0  0  0  0
  158.4080  212.6860  153.5760 C   0  0  2  0  0  3  0  0  0  0  0  0
  158.2030  214.1830  153.8260 C   0  0  0  0  0  2  0  0  0  0  0  0
  155.9130  213.6210  153.5970 F   0  0  0  0  0  0  0  0  0  0  0  0
  156.7790  214.4500  154.2870 C   0  0  1  0  0  3  0  0  0  0  0  0
  157.8950  214.2870  156.3950 F   0  0  0  0  0  0  0  0  0  0  0  0
  156.6530  214.2050  155.7870 C   0  0  2  0  0  3  0  0  0  0  0  0
  156.0510  212.8380  156.0450 C   0  0  0  0  0  1  0  0  0  0  0  0
  159.2780  213.5150  151.4120 O   0  0  0  0  0  0  0  0  0  0  0  0
  158.8680  213.1780  150.1120 C   0  0  1  0  0  3  0  0  0  0  0  0
  157.3580  213.3220  150.0220 C   0  0  0  0  0  2  0  0  0  0  0  0
  156.9210  212.9320  148.7510 O   0  0  0  0  0  1  0  0  0  0  0  0
  159.4720  214.0280  149.1730 O   0  0  0  0  0  0  0  0  0  0  0  0
  160.1470  213.1810  148.2890 C   0  0  2  0  0  3  0  0  0  0  0  0
  161.2560  212.6250  148.9280 O   0  0  0  0  0  1  0  0  0  0  0  0
  160.5720  213.8940  147.1630 O   0  0  0  0  0  0  0  0  0  0  0  0
  160.4540  212.9930  146.0940 C   0  0  1  0  0  3  0  0  0  0  0  0
  158.2400  213.8770  145.9970 O   0  0  0  0  0  1  0  0  0  0  0  0
  159.0580  213.0220  145.5630 C   0  0  0  0  0  0  0  0  0  0  0  0
  158.6470  212.0950  144.6140 O   0  0  0  0  0  0  0  0  0  0  0  0
  161.4380  213.3520  144.9850 C   0  0  0  0  0  2  0  0  0  0  0  0
  160.8190  214.3800  144.0550 C   0  0  0  0  0  1  0  0  0  0  0  0
  161.5600  210.7890  154.5910 C   0  0  0  0  0  2  0  0  0  0  0  0
  160.9700  209.4670  155.0870 C   0  0  1  0  0  3  0  0  0  0  0  0
  159.7180  209.6270  155.9340 C   0  0  0  0  0  1  0  0  0  0  0  0
  160.8210  208.4690  154.0230 N   0  0  0  0  0  0  0  0  0  0  0  0
  160.8990  207.0340  154.1400 C   0  0  0  0  0  0  0  0  0  0  0  0
  161.0890  206.4390  155.3110 C   0  0  0  0  0  1  0  0  0  0  0  0
  161.3350  206.8360  151.6840 C   0  0  0  0  0  0  0  0  0  0  0  0
  162.0400  208.3480  150.3190 N   0  0  0  0  0  0  0  0  0  0  0  0
  160.5720  203.9600  150.9450 C   0  0  0  0  0  2  0  0  0  0  0  0
  161.2750  204.8990  150.0780 N   0  0  0  0  0  2  0  0  0  0  0  0
  161.2770  203.8130  152.2600 C   0  0  0  0  0  3  0  0  0  0  0  0
  161.5400  206.2560  150.4470 C   0  0  0  0  0  0  0  0  0  0  0  0
  162.6530  208.1650  147.5910 O   0  0  0  0  0  0  0  0  0  0  0  0
  162.3790  207.1170  148.2420 C   0  0  0  0  0  0  0  0  0  0  0  0
  160.7610  206.1770  152.9130 C   0  0  1  0  0  3  0  0  0  0  0  0
  161.3640  204.8150  153.1470 C   0  0  0  0  0  3  0  0  0  0  0  0
  161.9960  207.2180  149.6250 N   0  0  0  0  0  0  0  0  0  0  0  0
  161.6380  208.1480  151.5680 N   0  0  0  0  0  0  0  0  0  0  0  0
  162.5220  205.7890  147.5640 C   0  0  0  0  0  2  0  0  0  0  0  0
  161.4760  205.6310  146.4650 C   0  0  0  0  0  3  0  0  0  0  0  0
  161.3460  203.2150  147.0730 C   0  0  0  0  0  1  0  0  0  0  0  0
  160.5460  204.4750  146.8040 C   0  0  0  0  0  2  0  0  0  0  0  0
  162.1580  205.3550  145.1350 C   0  0  0  0  0  2  0  0  0  0  0  0
  161.1520  205.4030  144.0030 C   0  0  0  0  0  1  0  0  0  0  0  0
  1  3  2  0  0  0  0
  2  4  1  0  0  0  0
  2 28  1  0  0  0  0
  3  2  1  0  0  0  0
  4  6  2  0  0  0  0
  5 14  1  1  0  0  0
  5  3  1  0  0  0  0
  5  7  1  0  0  0  0
  7  8  1  1  0  0  0
  7  4  1  0  0  0  0
  8 10  1  0  0  0  0
 10  9  1  6  0  0  0
 10 12  1  0  0  0  0
 12 13  1  6  0  0  0
 12 11  1  0  0  0  0
 15 16  1  1  0  0  0
 15 14  1  0  0  0  0
 17 16  1  0  0  0  0
 18 15  1  0  0  0  0
 19 20  1  1  0  0  0
 19 18  1  0  0  0  0
 21 19  1  0  0  0  0
 22 26  1  6  0  0  0
 22 21  1  0  0  0  0
 24 23  1  0  0  0  0
 24 22  1  0  0  0  0
 25 24  2  0  0  0  0
 27 26  1  0  0  0  0
 28 29  1  0  0  0  0
 29 30  1  6  0  0  0
 31 32  2  0  0  0  0
 31 29  1  0  0  0  0
 32 33  1  0  0  0  0
 34 42  1  0  0  0  0
 35 45  2  0  0  0  0
 36 38  1  0  0  0  0
 37 39  1  0  0  0  0
 37 36  1  0  0  0  0
 38 43  2  0  0  0  0
 39 34  2  0  0  0  0
 40 41  2  0  0  0  0
 41 44  1  0  0  0  0
 42 43  1  0  0  0  0
 42 32  1  1  0  0  0
 44 35  1  0  0  0  0
 44 39  1  0  0  0  0
 45 34  1  0  0  0  0
 46 41  1  0  0  0  0
 47 49  1  0  0  0  0
 47 46  1  0  0  0  0
 49 48  1  0  0  0  0
 50 47  1  0  0  0  0
 51 50  1  0  0  0  0
M  END
>  <MODEL>
7

>  <REMARK>
 VINA RESULT:      -4.2      4.491      9.201
  Name = 
  21 active torsions:
  status: ('A' for Active; 'I' for Inactive)
    1  A    between atoms: N_3  and  C_51
    2  A    between atoms: C_5  and  C_13
    3  A    between atoms: C_5  and  C_20
    4  A    between atoms: C_5  and  C_48
    5  A    between atoms: C_7  and  C_39
    6  A    between atoms: C_8  and  C_29
    7  A    between atoms: C_8  and  C_49
    8  A    between atoms: C_14  and  O_25
    9  A    between atoms: C_14  and  O_35
   10  A    between atoms: C_17  and  O_25
   11  A    between atoms: C_17  and  C_27
   12  A    between atoms: C_17  and  C_37
   13  A    between atoms: C_18  and  O_36
   14  A    between atoms: C_21  and  C_38
   15  A    between atoms: C_21  and  N_46
   16  A    between atoms: C_29  and  C_30
   17  A    between atoms: C_32  and  N_46
   18  A    between atoms: C_32  and  C_51
   19  A    between atoms: C_33  and  C_48
   20  A    between atoms: O_35  and  C_39
   21  A    between atoms: O_36  and  C_39
                            x       y       z     vdW  Elec       q    Type
                         _______ _______ _______ _____ _____    ______ ____

>  <TORSDO>
F 21

$$$$
=
 OpenBabel11072412363D

 51 53  0  0  1  0  0  0  0  0999 V2000
  159.5600  212.8300  153.3610 O   0  0  0  0  0  0  0  0  0  0  0  0
  160.5430  212.2900  151.2910 N   0  0  0  0  0  0  0  0  0  0  0  0
  159.5760  212.9310  152.1030 C   0  0  0  0  0  0  0  0  0  0  0  0
  160.3370  212.7740  149.9800 C   0  0  0  0  0  0  0  0  0  0  0  0
  158.6340  213.7870  151.3250 C   0  0  1  0  0  3  0  0  0  0  0  0
  161.1360  212.5430  149.0340 O   0  0  0  0  0  0  0  0  0  0  0  0
  159.1310  213.6500  149.8600 C   0  0  2  0  0  3  0  0  0  0  0  0
  158.1010  213.0140  148.9210 C   0  0  0  0  0  2  0  0  0  0  0  0
  159.2140  214.3310  147.2950 F   0  0  0  0  0  0  0  0  0  0  0  0
  157.9720  213.8360  147.6480 C   0  0  1  0  0  3  0  0  0  0  0  0
  158.4390  212.4690  145.7420 F   0  0  0  0  0  0  0  0  0  0  0  0
  157.4110  212.9780  146.5190 C   0  0  2  0  0  3  0  0  0  0  0  0
  156.4770  213.7980  145.6530 C   0  0  0  0  0  1  0  0  0  0  0  0
  157.3140  213.3360  151.5110 O   0  0  0  0  0  0  0  0  0  0  0  0
  156.5930  214.4510  151.9680 C   0  0  1  0  0  3  0  0  0  0  0  0
  155.1840  214.3890  151.4000 C   0  0  0  0  0  2  0  0  0  0  0  0
  155.2320  213.9950  150.0580 O   0  0  0  0  0  1  0  0  0  0  0  0
  156.5290  214.4510  153.3690 O   0  0  0  0  0  0  0  0  0  0  0  0
  155.8580  213.2720  153.7090 C   0  0  2  0  0  3  0  0  0  0  0  0
  154.4800  213.4840  153.6500 O   0  0  0  0  0  1  0  0  0  0  0  0
  156.2090  212.8680  155.0010 O   0  0  0  0  0  0  0  0  0  0  0  0
  156.5920  211.5240  154.8730 C   0  0  1  0  0  3  0  0  0  0  0  0
  158.2910  212.1720  156.4190 O   0  0  0  0  0  1  0  0  0  0  0  0
  157.8550  211.2860  155.6350 C   0  0  0  0  0  0  0  0  0  0  0  0
  158.5670  210.1060  155.4640 O   0  0  0  0  0  0  0  0  0  0  0  0
  155.4910  210.6050  155.3940 C   0  0  0  0  0  2  0  0  0  0  0  0
  155.1410  210.9750  156.8240 C   0  0  0  0  0  1  0  0  0  0  0  0
  161.7680  211.6510  151.7610 C   0  0  0  0  0  2  0  0  0  0  0  0
  161.5390  210.1960  152.1790 C   0  0  1  0  0  3  0  0  0  0  0  0
  160.0770  209.8310  152.3770 C   0  0  0  0  0  1  0  0  0  0  0  0
  162.2620  209.2360  151.3390 N   0  0  0  0  0  2  0  0  0  0  0  0
  161.8490  208.6800  150.0750 C   0  0  0  0  0  0  0  0  0  0  0  0
  161.9090  209.3840  148.9500 C   0  0  0  0  0  2  0  0  0  0  0  0
  161.7380  206.5700  148.7350 C   0  0  0  0  0  0  0  0  0  0  0  0
  162.3580  206.2380  146.6980 N   0  0  0  0  0  0  0  0  0  0  0  0
  160.4320  204.4970  150.5780 C   0  0  0  0  0  2  0  0  0  0  0  0
  161.0700  204.2100  149.2980 N   0  0  0  0  0  2  0  0  0  0  0  0
  161.3640  205.2410  151.4870 C   0  0  0  0  0  3  0  0  0  0  0  0
  161.5980  205.2270  148.4420 C   0  0  0  0  0  0  0  0  0  0  0  0
  162.3640  203.8840  145.1780 O   0  0  0  0  0  0  0  0  0  0  0  0
  162.0810  203.8330  146.4090 C   0  0  0  0  0  0  0  0  0  0  0  0
  161.3390  207.2680  150.0110 C   0  0  1  0  0  3  0  0  0  0  0  0
  161.7750  206.4920  151.2290 C   0  0  0  0  0  3  0  0  0  0  0  0
  162.0090  205.0500  147.1730 N   0  0  0  0  0  0  0  0  0  0  0  0
  162.1970  207.1800  147.6190 N   0  0  0  0  0  0  0  0  0  0  0  0
  161.8890  202.4940  147.0500 C   0  0  0  0  0  2  0  0  0  0  0  0
  160.4500  202.0160  146.8750 C   0  0  0  0  0  3  0  0  0  0  0  0
  161.2290  200.7340  148.8690 C   0  0  0  0  0  1  0  0  0  0  0  0
  160.0170  201.2330  148.1080 C   0  0  0  0  0  2  0  0  0  0  0  0
  160.3440  201.1240  145.6500 C   0  0  0  0  0  2  0  0  0  0  0  0
  159.2360  201.6060  144.7370 C   0  0  0  0  0  1  0  0  0  0  0  0
  2 28  1  0  0  0  0
  2  3  1  0  0  0  0
  3  1  2  0  0  0  0
  4  2  1  0  0  0  0
  5 14  1  6  0  0  0
  5  3  1  0  0  0  0
  6  4  2  0  0  0  0
  7  8  1  6  0  0  0
  7  4  1  0  0  0  0
  7  5  1  0  0  0  0
 10  9  1  6  0  0  0
 10  8  1  0  0  0  0
 11 12  1  0  0  0  0
 12 13  1  6  0  0  0
 12 10  1  0  0  0  0
 14 15  1  0  0  0  0
 15 16  1  6  0  0  0
 15 18  1  0  0  0  0
 17 16  1  0  0  0  0
 18 19  1  0  0  0  0
 19 20  1  1  0  0  0
 19 21  1  0  0  0  0
 22 21  1  0  0  0  0
 22 26  1  1  0  0  0
 22 24  1  0  0  0  0
 24 23  1  0  0  0  0
 25 24  2  0  0  0  0
 26 27  1  0  0  0  0
 28 29  1  0  0  0  0
 29 30  1  6  0  0  0
 31 29  1  0  0  0  0
 32 31  1  0  0  0  0
 33 32  2  0  0  0  0
 34 42  1  0  0  0  0
 35 44  1  0  0  0  0
 35 45  2  0  0  0  0
 36 38  1  0  0  0  0
 37 36  1  0  0  0  0
 39 34  2  0  0  0  0
 39 37  1  0  0  0  0
 40 41  2  0  0  0  0
 41 46  1  0  0  0  0
 41 44  1  0  0  0  0
 42 32  1  1  0  0  0
 42 43  1  0  0  0  0
 43 38  2  0  0  0  0
 44 39  1  0  0  0  0
 45 34  1  0  0  0  0
 47 46  1  0  0  0  0
 47 49  1  0  0  0  0
 49 48  1  0  0  0  0
 50 47  1  0  0  0  0
 51 50  1  0  0  0  0
M  END
>  <MODEL>
8

>  <REMARK>
 VINA RESULT:      -4.1      5.031     10.078
  Name = 
  21 active torsions:
  status: ('A' for Active; 'I' for Inactive)
    1  A    between atoms: N_3  and  C_51
    2  A    between atoms: C_5  and  C_13
    3  A    between atoms: C_5  and  C_20
    4  A    between atoms: C_5  and  C_48
    5  A    between atoms: C_7  and  C_39
    6  A    between atoms: C_8  and  C_29
    7  A    between atoms: C_8  and  C_49
    8  A    between atoms: C_14  and  O_25
    9  A    between atoms: C_14  and  O_35
   10  A    between atoms: C_17  and  O_25
   11  A    between atoms: C_17  and  C_27
   12  A    between atoms: C_17  and  C_37
   13  A    between atoms: C_18  and  O_36
   14  A    between atoms: C_21  and  C_38
   15  A    between atoms: C_21  and  N_46
   16  A    between atoms: C_29  and  C_30
   17  A    between atoms: C_32  and  N_46
   18  A    between atoms: C_32  and  C_51
   19  A    between atoms: C_33  and  C_48
   20  A    between atoms: O_35  and  C_39
   21  A    between atoms: O_36  and  C_39
                            x       y       z     vdW  Elec       q    Type
                         _______ _______ _______ _____ _____    ______ ____

>  <TORSDO>
F 21

$$$$
