=
 OpenBabel11072409473D

 49 54  0  0  1  0  0  0  0  0999 V2000
  159.0390  213.1980  146.4440 C   0  0  2  0  0  3  0  0  0  0  0  0
  160.0750  213.9290  151.0800 O   0  0  0  0  0  0  0  0  0  0  0  0
  158.3750  213.7420  149.4880 N   0  0  0  0  0  0  0  0  0  0  0  0
  159.0810  214.4530  148.5110 N   0  0  0  0  0  2  0  0  0  0  0  0
  158.4190  212.3420  151.5400 N   0  0  0  0  0  2  0  0  0  0  0  0
  158.9980  213.3710  150.7270 C   0  0  0  0  0  0  0  0  0  0  0  0
  155.7800  213.9810  149.9660 Cl  0  0  0  0  0  0  0  0  0  0  0  0
  156.8300  212.4210  146.8330 O   0  0  0  0  0  0  0  0  0  0  0  0
  157.1000  213.2060  149.0640 C   0  0  1  0  0  3  0  0  0  0  0  0
  157.0060  213.5840  147.6060 C   0  0  1  0  0  3  0  0  0  0  0  0
  157.8960  212.3770  145.9180 C   0  0  0  0  0  2  0  0  0  0  0  0
  158.3420  214.2350  147.2680 C   0  0  2  0  0  3  0  0  0  0  0  0
  159.0510  211.8640  152.7610 C   0  0  0  0  0  2  0  0  0  0  0  0
  160.4910  211.4740  152.4840 C   0  0  0  0  0  2  0  0  0  0  0  0
  162.0180  209.9170  151.2860 C   0  0  1  0  0  3  0  0  0  0  0  0
  160.5570  210.1750  151.6940 C   0  0  1  0  0  3  0  0  0  0  0  0
  161.3680  209.0890  152.3950 C   0  0  1  0  0  0  0  0  0  0  0  0
  162.1800  207.9170  149.9470 O   0  0  0  0  0  0  0  0  0  0  0  0
  162.0050  211.3480  148.6680 C   0  0  0  0  0  1  0  0  0  0  0  0
  162.1230  209.8910  148.7350 N   0  0  0  0  0  2  0  0  0  0  0  0
  162.1180  209.1760  149.9730 C   0  0  0  0  0  0  0  0  0  0  0  0
  161.0000  207.7240  152.0860 N   0  0  0  0  0  0  0  0  0  0  0  0
  161.7140  206.8170  152.4030 O   0  0  0  0  0  0  0  0  0  0  0  0
  161.8780  209.3450  153.7420 N   0  0  0  0  0  2  0  0  0  0  0  0
  160.0320  208.1160  154.7940 C   0  0  0  0  0  2  0  0  0  0  0  0
  161.2560  209.9980  156.0090 C   0  0  0  0  0  2  0  0  0  0  0  0
  160.6100  207.2760  155.9360 C   0  0  0  0  0  2  0  0  0  0  0  0
  160.7560  209.4670  154.6580 C   0  0  1  0  0  3  0  0  0  0  0  0
  160.6150  208.0600  157.2590 C   0  0  0  0  0  2  0  0  0  0  0  0
  160.3950  209.5060  157.0830 N   0  0  0  0  0  2  0  0  0  0  0  0
  159.7430  213.7670  145.3710 O   0  0  0  0  0  0  0  0  0  0  0  0
  159.8350  212.8280  144.4400 O   0  0  0  0  0  0  0  0  0  0  0  0
  159.9610  213.4970  143.2100 C   0  0  0  0  0  2  0  0  0  0  0  0
  160.7540  213.4430  138.8110 O   0  0  0  0  0  0  0  0  0  0  0  0
  158.7290  213.4420  140.1210 C   0  0  0  0  0  0  0  0  0  0  0  0
  157.7950  213.9040  139.1480 N   0  0  0  0  0  2  0  0  0  0  0  0
  160.1180  213.1790  139.8660 C   0  0  0  0  0  0  0  0  0  0  0  0
  159.5980  212.5920  142.0300 C   0  0  2  0  0  3  0  0  0  0  0  0
  160.6760  212.6100  141.0330 N   0  0  0  0  0  0  0  0  0  0  0  0
  158.4100  213.1150  141.3310 N   0  0  0  0  0  0  0  0  0  0  0  0
  162.0910  212.3440  141.2780 C   0  0  0  0  0  0  0  0  0  0  0  0
  162.9050  213.5880  141.5540 C   0  0  0  0  0  2  0  0  0  0  0  0
  162.5830  212.6070  142.6790 C   0  0  0  0  0  2  0  0  0  0  0  0
  162.8000  211.2980  140.4410 C   0  0  0  0  0  2  0  0  0  0  0  0
  163.4890  211.9420  139.2530 C   0  0  0  0  0  1  0  0  0  0  0  0
  156.3720  214.0340  139.4430 C   0  0  0  0  0  2  0  0  0  0  0  0
  155.6260  212.8770  138.8690 C   0  0  0  0  0  0  0  0  0  0  0  0
  154.5040  213.1020  138.0790 O   0  0  0  0  0  0  0  0  0  0  0  0
  155.9990  211.7010  139.1060 O   0  0  0  0  0  1  0  0  0  0  0  0
  1 31  1  6  0  0  0
  1 12  1  0  0  0  0
  3  6  1  0  0  0  0
  4  3  1  0  0  0  0
  5 13  1  0  0  0  0
  6  2  2  0  0  0  0
  6  5  1  0  0  0  0
  9  3  1  0  0  0  0
  9  7  1  1  0  0  0
 10  8  1  6  0  0  0
 10  9  1  0  0  0  0
 11  1  1  0  0  0  0
 11  8  1  0  0  0  0
 12 10  1  0  0  0  0
 12  4  1  1  0  0  0
 14 13  1  0  0  0  0
 15 21  1  6  0  0  0
 15 16  1  0  0  0  0
 15 17  1  0  0  0  0
 16 17  1  0  0  0  0
 16 14  1  1  0  0  0
 17 22  1  6  0  0  0
 17 24  1  0  0  0  0
 18 21  2  0  0  0  0
 19 20  1  0  0  0  0
 20 21  1  0  0  0  0
 22 23  2  0  0  0  0
 25 27  1  0  0  0  0
 26 30  1  0  0  0  0
 27 29  1  0  0  0  0
 28 24  1  6  0  0  0
 28 25  1  0  0  0  0
 28 26  1  0  0  0  0
 30 29  1  0  0  0  0
 32 31  1  0  0  0  0
 33 32  1  0  0  0  0
 34 37  2  0  0  0  0
 35 40  2  0  0  0  0
 36 46  1  0  0  0  0
 36 35  1  0  0  0  0
 37 35  1  0  0  0  0
 37 39  1  0  0  0  0
 38 33  1  1  0  0  0
 39 41  1  0  0  0  0
 39 38  1  0  0  0  0
 40 38  1  0  0  0  0
 41 42  1  0  0  0  0
 41 43  1  0  0  0  0
 42 43  1  0  0  0  0
 44 41  1  0  0  0  0
 45 44  1  0  0  0  0
 47 49  1  0  0  0  0
 47 46  1  0  0  0  0
 48 47  2  0  0  0  0
M  END
>  <MODEL>
1

>  <REMARK>
 VINA RESULT:      -5.5      0.000      0.000
  Name = 
  15 active torsions:
  status: ('A' for Active; 'I' for Inactive)
    1  A    between atoms: C_1  and  O_23
    2  A    between atoms: C_5  and  C_20
    3  A    between atoms: C_6  and  N_9
    4  A    between atoms: C_6  and  C_17
    5  A    between atoms: C_11  and  C_18
    6  A    between atoms: C_11  and  N_21
    7  A    between atoms: C_12  and  C_40
    8  A    between atoms: C_19  and  N_27
    9  A    between atoms: C_19  and  C_28
   10  A    between atoms: O_23  and  O_24
   11  A    between atoms: O_24  and  C_40
   12  A    between atoms: C_25  and  C_28
   13  A    between atoms: C_30  and  N_37
   14  A    between atoms: N_37  and  C_41
   15  A    between atoms: N_38  and  C_41
                            x       y       z     vdW  Elec       q    Type
                         _______ _______ _______ _____ _____    ______ ____

>  <TORSDO>
F 15

$$$$
=
 OpenBabel11072409473D

 49 54  0  0  1  0  0  0  0  0999 V2000
  160.5860  212.9100  144.0970 C   0  0  2  0  0  3  0  0  0  0  0  0
  163.4190  211.7180  147.7920 O   0  0  0  0  0  0  0  0  0  0  0  0
  161.4900  212.8580  147.1270 N   0  0  0  0  0  0  0  0  0  0  0  0
  162.0730  213.3510  145.9540 N   0  0  0  0  0  2  0  0  0  0  0  0
  161.4500  211.1290  148.9100 N   0  0  0  0  0  2  0  0  0  0  0  0
  162.1780  211.9010  147.9470 C   0  0  0  0  0  0  0  0  0  0  0  0
  159.8830  214.2320  148.7220 Cl  0  0  0  0  0  0  0  0  0  0  0  0
  158.6490  213.2820  145.4160 O   0  0  0  0  0  0  0  0  0  0  0  0
  160.0920  213.1790  147.3070 C   0  0  1  0  0  3  0  0  0  0  0  0
  159.7210  213.9340  146.0540 C   0  0  1  0  0  3  0  0  0  0  0  0
  159.0850  212.9580  144.1200 C   0  0  0  0  0  2  0  0  0  0  0  0
  160.9610  213.8850  145.1690 C   0  0  2  0  0  3  0  0  0  0  0  0
  162.0760  210.0840  149.7080 C   0  0  0  0  0  2  0  0  0  0  0  0
  162.7100  209.0460  148.8010 C   0  0  0  0  0  2  0  0  0  0  0  0
  162.2980  206.8050  147.8010 C   0  0  1  0  0  3  0  0  0  0  0  0
  161.6490  208.1460  148.1840 C   0  0  1  0  0  3  0  0  0  0  0  0
  161.3710  206.8950  149.0130 C   0  0  1  0  0  0  0  0  0  0  0  0
  160.5000  206.5640  146.2110 O   0  0  0  0  0  0  0  0  0  0  0  0
  163.6470  204.6830  146.1950 C   0  0  0  0  0  1  0  0  0  0  0  0
  162.3040  205.1550  145.8530 N   0  0  0  0  0  2  0  0  0  0  0  0
  161.6390  206.1810  146.5940 C   0  0  0  0  0  0  0  0  0  0  0  0
  160.0430  206.3330  148.8850 N   0  0  0  0  0  0  0  0  0  0  0  0
  159.6500  205.5210  149.6730 O   0  0  0  0  0  0  0  0  0  0  0  0
  162.0270  206.7450  150.3110 N   0  0  0  0  0  2  0  0  0  0  0  0
  161.2410  205.6080  152.3400 C   0  0  0  0  0  2  0  0  0  0  0  0
  161.0460  208.1380  152.0590 C   0  0  0  0  0  2  0  0  0  0  0  0
  162.1590  206.0110  153.4960 C   0  0  0  0  0  2  0  0  0  0  0  0
  161.0190  206.7720  151.3580 C   0  0  1  0  0  3  0  0  0  0  0  0
  161.6410  207.2710  154.2090 C   0  0  0  0  0  2  0  0  0  0  0  0
  160.6080  207.9920  153.4450 N   0  0  0  0  0  2  0  0  0  0  0  0
  161.0510  213.3140  142.8350 O   0  0  0  0  0  0  0  0  0  0  0  0
  161.5510  212.2330  142.2530 O   0  0  0  0  0  0  0  0  0  0  0  0
  160.9690  212.1610  140.9760 C   0  0  0  0  0  2  0  0  0  0  0  0
  159.5650  213.7780  137.0520 O   0  0  0  0  0  0  0  0  0  0  0  0
  161.6680  213.8960  138.2260 C   0  0  0  0  0  0  0  0  0  0  0  0
  162.5450  214.2140  137.1470 N   0  0  0  0  0  2  0  0  0  0  0  0
  160.2420  213.7710  138.1140 C   0  0  0  0  0  0  0  0  0  0  0  0
  160.8750  213.5400  140.3150 C   0  0  2  0  0  3  0  0  0  0  0  0
  159.7170  213.5860  139.4140 N   0  0  0  0  0  0  0  0  0  0  0  0
  162.0500  213.7750  139.4560 N   0  0  0  0  0  0  0  0  0  0  0  0
  158.3380  213.2460  139.7530 C   0  0  0  0  0  0  0  0  0  0  0  0
  157.7560  214.0950  140.8600 C   0  0  0  0  0  2  0  0  0  0  0  0
  157.2970  214.2830  139.4160 C   0  0  0  0  0  2  0  0  0  0  0  0
  157.9270  211.7870  139.7930 C   0  0  0  0  0  2  0  0  0  0  0  0
  157.6570  211.2700  138.3920 C   0  0  0  0  0  1  0  0  0  0  0  0
  163.9710  214.4470  137.3530 C   0  0  0  0  0  2  0  0  0  0  0  0
  164.5450  213.3630  138.2030 C   0  0  0  0  0  0  0  0  0  0  0  0
  164.0340  212.0740  138.1150 O   0  0  0  0  0  0  0  0  0  0  0  0
  165.4770  213.6140  139.0060 O   0  0  0  0  0  1  0  0  0  0  0  0
  1 31  1  6  0  0  0
  1 11  1  0  0  0  0
  1 12  1  0  0  0  0
  2  6  2  0  0  0  0
  3  9  1  0  0  0  0
  3  6  1  0  0  0  0
  4  3  1  0  0  0  0
  5 13  1  0  0  0  0
  6  5  1  0  0  0  0
  9  7  1  1  0  0  0
 10  8  1  6  0  0  0
 10  9  1  0  0  0  0
 11  8  1  0  0  0  0
 12  4  1  1  0  0  0
 12 10  1  0  0  0  0
 14 13  1  0  0  0  0
 15 21  1  6  0  0  0
 15 16  1  0  0  0  0
 15 17  1  0  0  0  0
 16 14  1  1  0  0  0
 16 17  1  0  0  0  0
 17 22  1  6  0  0  0
 17 24  1  0  0  0  0
 18 21  2  0  0  0  0
 20 19  1  0  0  0  0
 20 21  1  0  0  0  0
 22 23  2  0  0  0  0
 25 27  1  0  0  0  0
 26 30  1  0  0  0  0
 27 29  1  0  0  0  0
 28 24  1  6  0  0  0
 28 26  1  0  0  0  0
 28 25  1  0  0  0  0
 30 29  1  0  0  0  0
 32 31  1  0  0  0  0
 33 32  1  0  0  0  0
 34 37  2  0  0  0  0
 35 40  2  0  0  0  0
 36 46  1  0  0  0  0
 36 35  1  0  0  0  0
 37 35  1  0  0  0  0
 37 39  1  0  0  0  0
 38 33  1  6  0  0  0
 39 41  1  0  0  0  0
 39 38  1  0  0  0  0
 40 38  1  0  0  0  0
 41 44  1  0  0  0  0
 41 42  1  0  0  0  0
 43 41  1  0  0  0  0
 43 42  1  0  0  0  0
 45 44  1  0  0  0  0
 46 47  1  0  0  0  0
 47 49  1  0  0  0  0
 48 47  2  0  0  0  0
M  END
>  <MODEL>
2

>  <REMARK>
 VINA RESULT:      -5.0      2.862      4.733
  Name = 
  15 active torsions:
  status: ('A' for Active; 'I' for Inactive)
    1  A    between atoms: C_1  and  O_23
    2  A    between atoms: C_5  and  C_20
    3  A    between atoms: C_6  and  N_9
    4  A    between atoms: C_6  and  C_17
    5  A    between atoms: C_11  and  C_18
    6  A    between atoms: C_11  and  N_21
    7  A    between atoms: C_12  and  C_40
    8  A    between atoms: C_19  and  N_27
    9  A    between atoms: C_19  and  C_28
   10  A    between atoms: O_23  and  O_24
   11  A    between atoms: O_24  and  C_40
   12  A    between atoms: C_25  and  C_28
   13  A    between atoms: C_30  and  N_37
   14  A    between atoms: N_37  and  C_41
   15  A    between atoms: N_38  and  C_41
                            x       y       z     vdW  Elec       q    Type
                         _______ _______ _______ _____ _____    ______ ____

>  <TORSDO>
F 15

$$$$
=
 OpenBabel11072409473D

 49 54  0  0  1  0  0  0  0  0999 V2000
  161.1310  207.1160  150.6750 C   0  0  2  0  0  3  0  0  0  0  0  0
  161.2030  211.1400  153.3020 O   0  0  0  0  0  0  0  0  0  0  0  0
  161.6780  210.1820  151.2240 N   0  0  0  0  0  0  0  0  0  0  0  0
  162.1760  208.9970  151.7780 N   0  0  0  0  0  2  0  0  0  0  0  0
  160.2210  212.1810  151.4510 N   0  0  0  0  0  2  0  0  0  0  0  0
  161.0500  211.1760  152.0480 C   0  0  0  0  0  0  0  0  0  0  0  0
  162.7240  211.4470  149.1450 Cl  0  0  0  0  0  0  0  0  0  0  0  0
  161.0980  208.2240  148.5770 O   0  0  0  0  0  0  0  0  0  0  0  0
  161.6160  210.2120  149.7790 C   0  0  1  0  0  3  0  0  0  0  0  0
  162.0900  208.8420  149.3600 C   0  0  1  0  0  3  0  0  0  0  0  0
  160.7620  207.0220  149.2210 C   0  0  0  0  0  2  0  0  0  0  0  0
  162.2870  208.0660  150.6570 C   0  0  2  0  0  3  0  0  0  0  0  0
  159.4900  213.1610  152.2410 C   0  0  0  0  0  2  0  0  0  0  0  0
  158.6420  212.4590  153.2850 C   0  0  0  0  0  2  0  0  0  0  0  0
  157.9070  212.5440  155.6610 C   0  0  1  0  0  3  0  0  0  0  0  0
  158.3350  213.3900  154.4500 C   0  0  1  0  0  3  0  0  0  0  0  0
  159.2850  213.2050  155.6300 C   0  0  1  0  0  0  0  0  0  0  0  0
  157.1460  214.4530  156.9250 O   0  0  0  0  0  0  0  0  0  0  0  0
  155.3280  211.2980  156.4990 C   0  0  0  0  0  1  0  0  0  0  0  0
  155.6980  212.6440  156.9370 N   0  0  0  0  0  2  0  0  0  0  0  0
  156.9190  213.2740  156.5410 C   0  0  0  0  0  0  0  0  0  0  0  0
  159.4910  214.3680  156.4650 N   0  0  0  0  0  0  0  0  0  0  0  0
  160.4650  214.4530  157.1570 O   0  0  0  0  0  0  0  0  0  0  0  0
  160.4140  212.2840  155.4930 N   0  0  0  0  0  2  0  0  0  0  0  0
  159.2920  210.2220  156.2100 C   0  0  0  0  0  2  0  0  0  0  0  0
  161.7390  210.6830  156.7710 C   0  0  0  0  0  2  0  0  0  0  0  0
  159.9010  209.0540  155.4320 C   0  0  0  0  0  2  0  0  0  0  0  0
  160.3460  211.2900  156.5510 C   0  0  1  0  0  3  0  0  0  0  0  0
  161.1060  208.4540  156.1750 C   0  0  0  0  0  2  0  0  0  0  0  0
  161.6100  209.3130  157.2610 N   0  0  0  0  0  2  0  0  0  0  0  0
  161.5010  205.8480  151.1500 O   0  0  0  0  0  0  0  0  0  0  0  0
  162.3340  205.3370  150.2540 O   0  0  0  0  0  0  0  0  0  0  0  0
  161.9130  204.0170  150.0240 C   0  0  0  0  0  2  0  0  0  0  0  0
  161.0550  201.1980  146.6620 O   0  0  0  0  0  0  0  0  0  0  0  0
  161.5650  203.5530  146.7480 C   0  0  0  0  0  0  0  0  0  0  0  0
  162.0060  203.7680  145.4100 N   0  0  0  0  0  2  0  0  0  0  0  0
  161.0580  202.3090  147.2560 C   0  0  0  0  0  0  0  0  0  0  0  0
  160.9010  203.9340  148.8780 C   0  0  2  0  0  3  0  0  0  0  0  0
  160.6000  202.5300  148.5750 N   0  0  0  0  0  0  0  0  0  0  0  0
  161.4830  204.4860  147.6410 N   0  0  0  0  0  0  0  0  0  0  0  0
  160.1650  201.5090  149.5240 C   0  0  0  0  0  0  0  0  0  0  0  0
  160.9430  200.2170  149.4290 C   0  0  0  0  0  2  0  0  0  0  0  0
  161.1440  201.1570  150.6150 C   0  0  0  0  0  2  0  0  0  0  0  0
  158.6830  201.3360  149.7910 C   0  0  0  0  0  2  0  0  0  0  0  0
  157.9380  201.0450  148.5020 C   0  0  0  0  0  1  0  0  0  0  0  0
  162.3950  205.0890  144.9260 C   0  0  0  0  0  2  0  0  0  0  0  0
  161.2540  205.7200  144.2000 C   0  0  0  0  0  0  0  0  0  0  0  0
  160.1670  206.2100  144.9150 O   0  0  0  0  0  1  0  0  0  0  0  0
  161.2660  205.7980  142.9470 O   0  0  0  0  0  0  0  0  0  0  0  0
  1 31  1  6  0  0  0
  3  4  1  0  0  0  0
  3  6  1  0  0  0  0
  5  6  1  0  0  0  0
  5 13  1  0  0  0  0
  6  2  2  0  0  0  0
  8 11  1  0  0  0  0
  9  7  1  6  0  0  0
  9  3  1  0  0  0  0
 10  8  1  6  0  0  0
 10  9  1  0  0  0  0
 10 12  1  0  0  0  0
 11  1  1  0  0  0  0
 12  1  1  0  0  0  0
 12  4  1  1  0  0  0
 13 14  1  0  0  0  0
 15 21  1  1  0  0  0
 16 14  1  6  0  0  0
 16 17  1  0  0  0  0
 16 15  1  0  0  0  0
 17 24  1  6  0  0  0
 17 15  1  0  0  0  0
 17 22  1  0  0  0  0
 19 20  1  0  0  0  0
 21 18  2  0  0  0  0
 21 20  1  0  0  0  0
 22 23  2  0  0  0  0
 25 28  1  0  0  0  0
 26 30  1  0  0  0  0
 27 29  1  0  0  0  0
 27 25  1  0  0  0  0
 28 24  1  6  0  0  0
 28 26  1  0  0  0  0
 29 30  1  0  0  0  0
 32 31  1  0  0  0  0
 33 32  1  0  0  0  0
 34 37  2  0  0  0  0
 35 37  1  0  0  0  0
 35 40  2  0  0  0  0
 36 35  1  0  0  0  0
 37 39  1  0  0  0  0
 38 33  1  1  0  0  0
 39 38  1  0  0  0  0
 39 41  1  0  0  0  0
 40 38  1  0  0  0  0
 41 44  1  0  0  0  0
 41 43  1  0  0  0  0
 42 41  1  0  0  0  0
 42 43  1  0  0  0  0
 45 44  1  0  0  0  0
 46 36  1  0  0  0  0
 47 48  1  0  0  0  0
 47 46  1  0  0  0  0
 49 47  2  0  0  0  0
M  END
>  <MODEL>
3

>  <REMARK>
 VINA RESULT:      -4.3      6.101      9.184
  Name = 
  15 active torsions:
  status: ('A' for Active; 'I' for Inactive)
    1  A    between atoms: C_1  and  O_23
    2  A    between atoms: C_5  and  C_20
    3  A    between atoms: C_6  and  N_9
    4  A    between atoms: C_6  and  C_17
    5  A    between atoms: C_11  and  C_18
    6  A    between atoms: C_11  and  N_21
    7  A    between atoms: C_12  and  C_40
    8  A    between atoms: C_19  and  N_27
    9  A    between atoms: C_19  and  C_28
   10  A    between atoms: O_23  and  O_24
   11  A    between atoms: O_24  and  C_40
   12  A    between atoms: C_25  and  C_28
   13  A    between atoms: C_30  and  N_37
   14  A    between atoms: N_37  and  C_41
   15  A    between atoms: N_38  and  C_41
                            x       y       z     vdW  Elec       q    Type
                         _______ _______ _______ _____ _____    ______ ____

>  <TORSDO>
F 15

$$$$
=
 OpenBabel11072409473D

 49 54  0  0  1  0  0  0  0  0999 V2000
  160.2980  210.5720  154.2580 C   0  0  2  0  0  3  0  0  0  0  0  0
  162.4940  206.5250  152.8760 O   0  0  0  0  0  0  0  0  0  0  0  0
  161.2570  207.5730  154.5600 N   0  0  0  0  0  0  0  0  0  0  0  0
  161.9290  208.7930  154.4250 N   0  0  0  0  0  2  0  0  0  0  0  0
  160.5410  205.4220  153.5420 N   0  0  0  0  0  2  0  0  0  0  0  0
  161.4820  206.4990  153.6330 C   0  0  0  0  0  0  0  0  0  0  0  0
  160.5430  206.4730  156.8620 Cl  0  0  0  0  0  0  0  0  0  0  0  0
  158.8220  209.5100  155.7820 O   0  0  0  0  0  0  0  0  0  0  0  0
  160.1690  207.5660  155.5120 C   0  0  1  0  0  3  0  0  0  0  0  0
  160.1080  208.9880  156.0140 C   0  0  1  0  0  3  0  0  0  0  0  0
  158.9860  210.6550  154.9840 C   0  0  0  0  0  2  0  0  0  0  0  0
  161.1360  209.7540  155.1910 C   0  0  2  0  0  3  0  0  0  0  0  0
  160.6710  204.3520  152.5640 C   0  0  0  0  0  2  0  0  0  0  0  0
  161.4420  204.8450  151.3530 C   0  0  0  0  0  2  0  0  0  0  0  0
  160.1700  203.4020  149.7750 C   0  0  1  0  0  3  0  0  0  0  0  0
  161.5710  203.7450  150.3090 C   0  0  1  0  0  3  0  0  0  0  0  0
  161.1510  204.1950  148.9120 C   0  0  1  0  0  0  0  0  0  0  0  0
  159.4520  201.6240  148.3120 O   0  0  0  0  0  0  0  0  0  0  0  0
  161.4190  201.2170  151.3780 C   0  0  0  0  0  1  0  0  0  0  0  0
  160.6550  200.9260  150.1640 N   0  0  0  0  0  2  0  0  0  0  0  0
  160.0580  201.9520  149.3680 C   0  0  0  0  0  0  0  0  0  0  0  0
  161.7830  203.5050  147.8080 N   0  0  0  0  0  0  0  0  0  0  0  0
  161.8150  204.0040  146.7200 O   0  0  0  0  0  0  0  0  0  0  0  0
  160.7980  205.5980  148.6960 N   0  0  0  0  0  2  0  0  0  0  0  0
  162.7140  207.0800  148.3000 C   0  0  0  0  0  2  0  0  0  0  0  0
  161.0700  207.4930  150.2090 C   0  0  0  0  0  2  0  0  0  0  0  0
  162.1790  208.4300  147.8170 C   0  0  0  0  0  2  0  0  0  0  0  0
  161.7850  206.4410  149.3480 C   0  0  1  0  0  3  0  0  0  0  0  0
  161.9070  209.3780  148.9960 C   0  0  0  0  0  2  0  0  0  0  0  0
  161.8910  208.6970  150.3030 N   0  0  0  0  0  2  0  0  0  0  0  0
  160.8210  211.8620  154.0780 O   0  0  0  0  0  0  0  0  0  0  0  0
  160.2360  212.3590  152.9980 O   0  0  0  0  0  0  0  0  0  0  0  0
  159.2190  213.2150  153.4520 C   0  0  0  0  0  2  0  0  0  0  0  0
  156.6360  213.5640  149.8200 O   0  0  0  0  0  0  0  0  0  0  0  0
  158.9940  213.8920  150.2030 C   0  0  0  0  0  0  0  0  0  0  0  0
  159.4890  213.7700  148.8710 N   0  0  0  0  0  2  0  0  0  0  0  0
  157.6070  213.8510  150.5700 C   0  0  0  0  0  0  0  0  0  0  0  0
  158.8900  214.3040  152.4260 C   0  0  2  0  0  3  0  0  0  0  0  0
  157.5110  214.1440  151.9500 N   0  0  0  0  0  0  0  0  0  0  0  0
  159.7380  214.1510  151.2300 N   0  0  0  0  0  0  0  0  0  0  0  0
  156.3120  214.0440  152.7770 C   0  0  0  0  0  0  0  0  0  0  0  0
  156.2680  212.8030  153.6390 C   0  0  0  0  0  2  0  0  0  0  0  0
  156.5180  214.1730  154.2650 C   0  0  0  0  0  2  0  0  0  0  0  0
  154.9750  214.4520  152.1890 C   0  0  0  0  0  2  0  0  0  0  0  0
  153.8940  214.4280  153.2530 C   0  0  0  0  0  1  0  0  0  0  0  0
  160.9030  213.9430  148.5530 C   0  0  0  0  0  2  0  0  0  0  0  0
  161.3950  212.7720  147.7710 C   0  0  0  0  0  0  0  0  0  0  0  0
  160.4850  211.8700  147.2320 O   0  0  0  0  0  0  0  0  0  0  0  0
  162.6270  212.5900  147.6100 O   0  0  0  0  0  1  0  0  0  0  0  0
  1 31  1  1  0  0  0
  1 11  1  0  0  0  0
  1 12  1  0  0  0  0
  2  6  2  0  0  0  0
  3  9  1  0  0  0  0
  4  3  1  0  0  0  0
  5  6  1  0  0  0  0
  6  3  1  0  0  0  0
  9 10  1  0  0  0  0
  9  7  1  1  0  0  0
 10  8  1  6  0  0  0
 11  8  1  0  0  0  0
 12  4  1  6  0  0  0
 12 10  1  0  0  0  0
 13  5  1  0  0  0  0
 14 13  1  0  0  0  0
 15 21  1  6  0  0  0
 15 16  1  0  0  0  0
 16 14  1  1  0  0  0
 17 22  1  6  0  0  0
 17 15  1  0  0  0  0
 17 16  1  0  0  0  0
 18 21  2  0  0  0  0
 20 19  1  0  0  0  0
 21 20  1  0  0  0  0
 23 22  2  0  0  0  0
 24 17  1  0  0  0  0
 25 28  1  0  0  0  0
 26 30  1  0  0  0  0
 27 25  1  0  0  0  0
 27 29  1  0  0  0  0
 28 24  1  6  0  0  0
 28 26  1  0  0  0  0
 29 30  1  0  0  0  0
 32 33  1  0  0  0  0
 32 31  1  0  0  0  0
 34 37  2  0  0  0  0
 35 37  1  0  0  0  0
 35 40  2  0  0  0  0
 36 35  1  0  0  0  0
 37 39  1  0  0  0  0
 38 33  1  1  0  0  0
 39 38  1  0  0  0  0
 39 41  1  0  0  0  0
 40 38  1  0  0  0  0
 41 42  1  0  0  0  0
 41 43  1  0  0  0  0
 42 43  1  0  0  0  0
 44 41  1  0  0  0  0
 44 45  1  0  0  0  0
 46 36  1  0  0  0  0
 47 46  1  0  0  0  0
 48 47  2  0  0  0  0
 49 47  1  0  0  0  0
M  END
>  <MODEL>
4

>  <REMARK>
 VINA RESULT:      -4.2      5.390      9.587
  Name = 
  15 active torsions:
  status: ('A' for Active; 'I' for Inactive)
    1  A    between atoms: C_1  and  O_23
    2  A    between atoms: C_5  and  C_20
    3  A    between atoms: C_6  and  N_9
    4  A    between atoms: C_6  and  C_17
    5  A    between atoms: C_11  and  C_18
    6  A    between atoms: C_11  and  N_21
    7  A    between atoms: C_12  and  C_40
    8  A    between atoms: C_19  and  N_27
    9  A    between atoms: C_19  and  C_28
   10  A    between atoms: O_23  and  O_24
   11  A    between atoms: O_24  and  C_40
   12  A    between atoms: C_25  and  C_28
   13  A    between atoms: C_30  and  N_37
   14  A    between atoms: N_37  and  C_41
   15  A    between atoms: N_38  and  C_41
                            x       y       z     vdW  Elec       q    Type
                         _______ _______ _______ _____ _____    ______ ____

>  <TORSDO>
F 15

$$$$
=
 OpenBabel11072409473D

 49 54  0  0  1  0  0  0  0  0999 V2000
  161.2130  203.3870  150.3660 C   0  0  2  0  0  3  0  0  0  0  0  0
  160.7060  208.1620  150.1730 O   0  0  0  0  0  0  0  0  0  0  0  0
  160.7510  206.2800  151.5570 N   0  0  0  0  0  0  0  0  0  0  0  0
  160.0390  205.4820  150.6550 N   0  0  0  0  0  2  0  0  0  0  0  0
  162.2260  208.2400  151.9490 N   0  0  0  0  0  2  0  0  0  0  0  0
  161.1980  207.5940  151.1890 C   0  0  0  0  0  0  0  0  0  0  0  0
  160.4050  206.2870  154.1840 Cl  0  0  0  0  0  0  0  0  0  0  0  0
  161.8960  203.3310  152.6390 O   0  0  0  0  0  0  0  0  0  0  0  0
  161.2080  205.6060  152.7530 C   0  0  1  0  0  3  0  0  0  0  0  0
  160.7720  204.1750  152.5610 C   0  0  1  0  0  3  0  0  0  0  0  0
  161.9580  202.6240  151.4250 C   0  0  0  0  0  2  0  0  0  0  0  0
  160.1740  204.1170  151.1600 C   0  0  2  0  0  3  0  0  0  0  0  0
  162.7800  209.5330  151.5740 C   0  0  0  0  0  2  0  0  0  0  0  0
  162.1460  210.6320  152.4070 C   0  0  0  0  0  2  0  0  0  0  0  0
  161.4070  211.3170  154.6820 C   0  0  1  0  0  3  0  0  0  0  0  0
  161.7860  210.1190  153.7950 C   0  0  1  0  0  3  0  0  0  0  0  0
  160.3270  210.3670  154.1640 C   0  0  1  0  0  0  0  0  0  0  0  0
  162.6050  210.2050  156.4560 O   0  0  0  0  0  0  0  0  0  0  0  0
  160.1930  212.9340  156.8770 C   0  0  0  0  0  1  0  0  0  0  0  0
  161.1490  211.8630  157.1630 N   0  0  0  0  0  2  0  0  0  0  0  0
  161.7580  211.0810  156.1330 C   0  0  0  0  0  0  0  0  0  0  0  0
  159.7450  209.4350  155.1060 N   0  0  0  0  0  0  0  0  0  0  0  0
  158.8170  209.7630  155.7890 O   0  0  0  0  0  0  0  0  0  0  0  0
  159.4280  210.9360  153.1590 N   0  0  0  0  0  2  0  0  0  0  0  0
  159.5070  213.1720  152.1520 C   0  0  0  0  0  2  0  0  0  0  0  0
  157.8470  212.5920  154.0020 C   0  0  0  0  0  2  0  0  0  0  0  0
  158.2240  213.3740  151.3420 C   0  0  0  0  0  2  0  0  0  0  0  0
  159.2510  212.3530  153.4280 C   0  0  1  0  0  3  0  0  0  0  0  0
  157.1100  213.9900  152.2040 C   0  0  0  0  0  2  0  0  0  0  0  0
  157.3910  213.9350  153.6490 N   0  0  0  0  0  2  0  0  0  0  0  0
  160.6390  202.4880  149.4540 O   0  0  0  0  0  0  0  0  0  0  0  0
  161.5750  202.2120  148.5560 O   0  0  0  0  0  0  0  0  0  0  0  0
  161.5500  203.2600  147.6200 C   0  0  0  0  0  2  0  0  0  0  0  0
  159.1110  203.1810  143.8750 O   0  0  0  0  0  0  0  0  0  0  0  0
  160.1640  201.4580  145.1920 C   0  0  0  0  0  0  0  0  0  0  0  0
  159.4260  200.3170  144.7580 N   0  0  0  0  0  2  0  0  0  0  0  0
  160.0020  202.7860  144.6720 C   0  0  0  0  0  0  0  0  0  0  0  0
  161.7340  202.7480  146.1880 C   0  0  2  0  0  3  0  0  0  0  0  0
  160.9990  203.6050  145.2510 N   0  0  0  0  0  0  0  0  0  0  0  0
  161.1360  201.4080  146.0440 N   0  0  0  0  0  0  0  0  0  0  0  0
  161.1010  205.0580  145.1380 C   0  0  0  0  0  0  0  0  0  0  0  0
  162.5240  205.5690  145.1260 C   0  0  0  0  0  2  0  0  0  0  0  0
  161.6840  205.5840  143.8510 C   0  0  0  0  0  2  0  0  0  0  0  0
  160.1240  205.9270  145.9040 C   0  0  0  0  0  2  0  0  0  0  0  0
  160.7930  206.5370  147.1220 C   0  0  0  0  0  1  0  0  0  0  0  0
  159.7250  198.9730  145.2410 C   0  0  0  0  0  2  0  0  0  0  0  0
  161.1930  198.8300  145.4690 C   0  0  0  0  0  0  0  0  0  0  0  0
  161.7410  199.2020  146.6910 O   0  0  0  0  0  1  0  0  0  0  0  0
  161.9350  198.3890  144.5580 O   0  0  0  0  0  0  0  0  0  0  0  0
  1 31  1  6  0  0  0
  1 12  1  0  0  0  0
  1 11  1  0  0  0  0
  2  6  2  0  0  0  0
  3  9  1  0  0  0  0
  4  3  1  0  0  0  0
  6  3  1  0  0  0  0
  6  5  1  0  0  0  0
  9  7  1  1  0  0  0
 10  8  1  6  0  0  0
 10  9  1  0  0  0  0
 11  8  1  0  0  0  0
 12  4  1  6  0  0  0
 12 10  1  0  0  0  0
 13  5  1  0  0  0  0
 13 14  1  0  0  0  0
 15 21  1  1  0  0  0
 16 14  1  6  0  0  0
 16 17  1  0  0  0  0
 16 15  1  0  0  0  0
 17 24  1  6  0  0  0
 17 15  1  0  0  0  0
 17 22  1  0  0  0  0
 19 20  1  0  0  0  0
 21 18  2  0  0  0  0
 21 20  1  0  0  0  0
 22 23  2  0  0  0  0
 25 28  1  0  0  0  0
 27 25  1  0  0  0  0
 27 29  1  0  0  0  0
 28 24  1  6  0  0  0
 28 26  1  0  0  0  0
 29 30  1  0  0  0  0
 30 26  1  0  0  0  0
 32 31  1  0  0  0  0
 33 32  1  0  0  0  0
 34 37  2  0  0  0  0
 35 40  2  0  0  0  0
 36 35  1  0  0  0  0
 36 46  1  0  0  0  0
 37 35  1  0  0  0  0
 37 39  1  0  0  0  0
 38 33  1  1  0  0  0
 39 38  1  0  0  0  0
 40 38  1  0  0  0  0
 41 39  1  0  0  0  0
 41 44  1  0  0  0  0
 42 41  1  0  0  0  0
 43 42  1  0  0  0  0
 43 41  1  0  0  0  0
 44 45  1  0  0  0  0
 46 47  1  0  0  0  0
 47 48  1  0  0  0  0
 49 47  2  0  0  0  0
M  END
>  <MODEL>
5

>  <REMARK>
 VINA RESULT:      -4.2      6.527      9.674
  Name = 
  15 active torsions:
  status: ('A' for Active; 'I' for Inactive)
    1  A    between atoms: C_1  and  O_23
    2  A    between atoms: C_5  and  C_20
    3  A    between atoms: C_6  and  N_9
    4  A    between atoms: C_6  and  C_17
    5  A    between atoms: C_11  and  C_18
    6  A    between atoms: C_11  and  N_21
    7  A    between atoms: C_12  and  C_40
    8  A    between atoms: C_19  and  N_27
    9  A    between atoms: C_19  and  C_28
   10  A    between atoms: O_23  and  O_24
   11  A    between atoms: O_24  and  C_40
   12  A    between atoms: C_25  and  C_28
   13  A    between atoms: C_30  and  N_37
   14  A    between atoms: N_37  and  C_41
   15  A    between atoms: N_38  and  C_41
                            x       y       z     vdW  Elec       q    Type
                         _______ _______ _______ _____ _____    ______ ____

>  <TORSDO>
F 15

$$$$
=
 OpenBabel11072409473D

 49 54  0  0  1  0  0  0  0  0999 V2000
  160.2020  209.2170  152.2390 C   0  0  2  0  0  3  0  0  0  0  0  0
  162.1030  208.3240  147.9150 O   0  0  0  0  0  0  0  0  0  0  0  0
  162.2010  207.8530  150.2020 N   0  0  0  0  0  0  0  0  0  0  0  0
  161.9640  209.1790  150.5820 N   0  0  0  0  0  2  0  0  0  0  0  0
  161.9700  206.0620  148.4960 N   0  0  0  0  0  2  0  0  0  0  0  0
  162.1040  207.4500  148.8270 C   0  0  0  0  0  0  0  0  0  0  0  0
  163.9310  206.2200  151.3690 Cl  0  0  0  0  0  0  0  0  0  0  0  0
  160.9340  207.1850  153.2230 O   0  0  0  0  0  0  0  0  0  0  0  0
  162.2920  206.9040  151.2900 C   0  0  1  0  0  3  0  0  0  0  0  0
  162.0280  207.7290  152.5240 C   0  0  1  0  0  3  0  0  0  0  0  0
  159.9690  208.2020  153.3220 C   0  0  0  0  0  2  0  0  0  0  0  0
  161.6790  209.1220  152.0150 C   0  0  2  0  0  3  0  0  0  0  0  0
  161.7820  205.6010  147.1270 C   0  0  0  0  0  2  0  0  0  0  0  0
  162.0820  204.1160  147.0340 C   0  0  0  0  0  2  0  0  0  0  0  0
  161.2310  201.8940  146.3060 C   0  0  1  0  0  3  0  0  0  0  0  0
  160.8280  203.3320  146.6730 C   0  0  1  0  0  3  0  0  0  0  0  0
  160.5410  202.1860  147.6380 C   0  0  1  0  0  0  0  0  0  0  0  0
  159.5230  202.0190  144.6070 O   0  0  0  0  0  0  0  0  0  0  0  0
  161.2190  198.9670  145.7250 C   0  0  0  0  0  1  0  0  0  0  0  0
  160.3120  199.8820  145.0310 N   0  0  0  0  0  2  0  0  0  0  0  0
  160.3050  201.2900  145.2770 C   0  0  0  0  0  0  0  0  0  0  0  0
  159.1510  201.8040  147.7720 N   0  0  0  0  0  0  0  0  0  0  0  0
  158.8250  200.9730  148.5700 O   0  0  0  0  0  0  0  0  0  0  0  0
  161.3830  202.0300  148.8230 N   0  0  0  0  0  2  0  0  0  0  0  0
  161.2060  201.5310  151.2200 C   0  0  0  0  0  2  0  0  0  0  0  0
  160.4040  203.7510  150.2490 C   0  0  0  0  0  2  0  0  0  0  0  0
  162.1810  202.4420  151.9690 C   0  0  0  0  0  2  0  0  0  0  0  0
  160.5740  202.2440  150.0120 C   0  0  1  0  0  3  0  0  0  0  0  0
  161.5120  203.7670  152.3710 C   0  0  0  0  0  2  0  0  0  0  0  0
  160.2350  204.0110  151.6770 N   0  0  0  0  0  2  0  0  0  0  0  0
  159.8210  210.4890  152.6940 O   0  0  0  0  0  0  0  0  0  0  0  0
  160.6000  210.7680  153.7290 O   0  0  0  0  0  0  0  0  0  0  0  0
  159.7850  211.4000  154.6830 C   0  0  0  0  0  2  0  0  0  0  0  0
  156.7000  214.3620  153.3800 O   0  0  0  0  0  0  0  0  0  0  0  0
  158.8940  213.7960  152.5550 C   0  0  0  0  0  0  0  0  0  0  0  0
  158.8080  214.3090  151.2270 N   0  0  0  0  0  2  0  0  0  0  0  0
  157.8680  213.9210  153.5510 C   0  0  0  0  0  0  0  0  0  0  0  0
  159.7240  212.9150  154.4670 C   0  0  2  0  0  3  0  0  0  0  0  0
  158.3760  213.4120  154.7680 N   0  0  0  0  0  0  0  0  0  0  0  0
  159.9530  213.2380  153.0470 N   0  0  0  0  0  0  0  0  0  0  0  0
  157.6210  213.1850  155.9970 C   0  0  0  0  0  0  0  0  0  0  0  0
  158.4900  212.9960  157.2190 C   0  0  0  0  0  2  0  0  0  0  0  0
  157.6890  214.2820  157.0300 C   0  0  0  0  0  2  0  0  0  0  0  0
  156.3910  212.3010  155.9530 C   0  0  0  0  0  2  0  0  0  0  0  0
  156.5300  211.2430  154.8750 C   0  0  0  0  0  1  0  0  0  0  0  0
  159.9360  214.2560  150.3030 C   0  0  0  0  0  2  0  0  0  0  0  0
  159.4550  213.9080  148.9340 C   0  0  0  0  0  0  0  0  0  0  0  0
  160.2830  214.1180  147.8370 O   0  0  0  0  0  0  0  0  0  0  0  0
  158.3020  213.4390  148.7680 O   0  0  0  0  0  1  0  0  0  0  0  0
  1 31  1  1  0  0  0
  1 11  1  0  0  0  0
  2  6  2  0  0  0  0
  3  4  1  0  0  0  0
  3  9  1  0  0  0  0
  5  6  1  0  0  0  0
  6  3  1  0  0  0  0
  8 11  1  0  0  0  0
  9  7  1  1  0  0  0
  9 10  1  0  0  0  0
 10  8  1  6  0  0  0
 12  4  1  6  0  0  0
 12  1  1  0  0  0  0
 12 10  1  0  0  0  0
 13  5  1  0  0  0  0
 14 13  1  0  0  0  0
 15 21  1  6  0  0  0
 15 16  1  0  0  0  0
 15 17  1  0  0  0  0
 16 14  1  1  0  0  0
 16 17  1  0  0  0  0
 17 22  1  1  0  0  0
 17 24  1  0  0  0  0
 18 21  2  0  0  0  0
 20 21  1  0  0  0  0
 20 19  1  0  0  0  0
 22 23  2  0  0  0  0
 25 27  1  0  0  0  0
 26 30  1  0  0  0  0
 27 29  1  0  0  0  0
 28 24  1  6  0  0  0
 28 26  1  0  0  0  0
 28 25  1  0  0  0  0
 30 29  1  0  0  0  0
 31 32  1  0  0  0  0
 32 33  1  0  0  0  0
 34 37  2  0  0  0  0
 35 40  2  0  0  0  0
 35 37  1  0  0  0  0
 36 35  1  0  0  0  0
 37 39  1  0  0  0  0
 38 33  1  6  0  0  0
 38 39  1  0  0  0  0
 39 41  1  0  0  0  0
 40 38  1  0  0  0  0
 41 43  1  0  0  0  0
 41 42  1  0  0  0  0
 43 42  1  0  0  0  0
 44 41  1  0  0  0  0
 45 44  1  0  0  0  0
 46 36  1  0  0  0  0
 47 46  1  0  0  0  0
 48 47  2  0  0  0  0
 49 47  1  0  0  0  0
M  END
>  <MODEL>
6

>  <REMARK>
 VINA RESULT:      -3.7      6.098     10.568
  Name = 
  15 active torsions:
  status: ('A' for Active; 'I' for Inactive)
    1  A    between atoms: C_1  and  O_23
    2  A    between atoms: C_5  and  C_20
    3  A    between atoms: C_6  and  N_9
    4  A    between atoms: C_6  and  C_17
    5  A    between atoms: C_11  and  C_18
    6  A    between atoms: C_11  and  N_21
    7  A    between atoms: C_12  and  C_40
    8  A    between atoms: C_19  and  N_27
    9  A    between atoms: C_19  and  C_28
   10  A    between atoms: O_23  and  O_24
   11  A    between atoms: O_24  and  C_40
   12  A    between atoms: C_25  and  C_28
   13  A    between atoms: C_30  and  N_37
   14  A    between atoms: N_37  and  C_41
   15  A    between atoms: N_38  and  C_41
                            x       y       z     vdW  Elec       q    Type
                         _______ _______ _______ _____ _____    ______ ____

>  <TORSDO>
F 15

$$$$
=
 OpenBabel11072409473D

 49 54  0  0  1  0  0  0  0  0999 V2000
  160.1280  210.5970  154.3660 C   0  0  2  0  0  3  0  0  0  0  0  0
  162.6900  206.6410  153.4220 O   0  0  0  0  0  0  0  0  0  0  0  0
  161.2220  207.6800  154.9140 N   0  0  0  0  0  0  0  0  0  0  0  0
  161.8330  208.9330  154.7890 N   0  0  0  0  0  2  0  0  0  0  0  0
  160.7460  205.4470  153.9370 N   0  0  0  0  0  2  0  0  0  0  0  0
  161.6070  206.5840  154.0710 C   0  0  0  0  0  0  0  0  0  0  0  0
  160.3340  206.6390  157.1820 Cl  0  0  0  0  0  0  0  0  0  0  0  0
  158.5620  209.5110  155.7810 O   0  0  0  0  0  0  0  0  0  0  0  0
  160.0420  207.6470  155.7490 C   0  0  1  0  0  3  0  0  0  0  0  0
  159.8450  209.0820  156.1700 C   0  0  1  0  0  3  0  0  0  0  0  0
  158.7430  210.6280  154.9480 C   0  0  0  0  0  2  0  0  0  0  0  0
  160.9090  209.8750  155.4200 C   0  0  2  0  0  3  0  0  0  0  0  0
  161.0410  204.3450  153.0310 C   0  0  0  0  0  2  0  0  0  0  0  0
  161.8240  204.8520  151.8340 C   0  0  0  0  0  2  0  0  0  0  0  0
  162.1310  206.9140  150.4760 C   0  0  1  0  0  3  0  0  0  0  0  0
  161.0950  206.0060  151.1600 C   0  0  1  0  0  3  0  0  0  0  0  0
  161.2370  205.9970  149.6410 C   0  0  1  0  0  0  0  0  0  0  0  0
  160.9810  208.8320  151.3790 O   0  0  0  0  0  0  0  0  0  0  0  0
  162.9430  208.7670  148.2830 C   0  0  0  0  0  1  0  0  0  0  0  0
  162.0820  209.2180  149.3770 N   0  0  0  0  0  2  0  0  0  0  0  0
  161.6890  208.3580  150.4490 C   0  0  0  0  0  0  0  0  0  0  0  0
  160.1550  206.6070  148.9000 N   0  0  0  0  0  0  0  0  0  0  0  0
  160.2390  206.7540  147.7140 O   0  0  0  0  0  0  0  0  0  0  0  0
  161.9230  204.8740  149.0000 N   0  0  0  0  0  2  0  0  0  0  0  0
  160.7920  203.8710  147.0660 C   0  0  0  0  0  2  0  0  0  0  0  0
  161.3380  202.5110  149.1560 C   0  0  0  0  0  2  0  0  0  0  0  0
  161.7570  202.8780  146.4140 C   0  0  0  0  0  2  0  0  0  0  0  0
  160.9380  203.8840  148.5980 C   0  0  1  0  0  3  0  0  0  0  0  0
  161.6040  201.4720  147.0160 C   0  0  0  0  0  2  0  0  0  0  0  0
  160.8400  201.4560  148.2770 N   0  0  0  0  0  2  0  0  0  0  0  0
  160.5900  211.9080  154.1770 O   0  0  0  0  0  0  0  0  0  0  0  0
  159.9860  212.3700  153.0910 O   0  0  0  0  0  0  0  0  0  0  0  0
  159.3940  213.5920  153.4530 C   0  0  0  0  0  2  0  0  0  0  0  0
  157.0110  213.0790  149.7050 O   0  0  0  0  0  0  0  0  0  0  0  0
  159.3170  213.6420  150.1280 C   0  0  0  0  0  0  0  0  0  0  0  0
  159.8960  213.3120  148.8670 N   0  0  0  0  0  2  0  0  0  0  0  0
  157.9160  213.5690  150.4320 C   0  0  0  0  0  0  0  0  0  0  0  0
  159.0580  214.4460  152.2270 C   0  0  2  0  0  3  0  0  0  0  0  0
  157.7220  214.1030  151.7260 N   0  0  0  0  0  0  0  0  0  0  0  0
  159.9820  214.1370  151.1210 N   0  0  0  0  0  0  0  0  0  0  0  0
  156.4850  214.0710  152.5020 C   0  0  0  0  0  0  0  0  0  0  0  0
  156.4150  212.9300  153.4910 C   0  0  0  0  0  2  0  0  0  0  0  0
  156.6170  214.3640  153.9750 C   0  0  0  0  0  2  0  0  0  0  0  0
  155.1740  214.3880  151.8110 C   0  0  0  0  0  2  0  0  0  0  0  0
  154.2190  213.2130  151.9110 C   0  0  0  0  0  1  0  0  0  0  0  0
  161.3120  213.5250  148.5860 C   0  0  0  0  0  2  0  0  0  0  0  0
  161.8100  212.4710  147.6560 C   0  0  0  0  0  0  0  0  0  0  0  0
  162.9780  211.7800  147.9580 O   0  0  0  0  0  1  0  0  0  0  0  0
  161.1870  212.2150  146.5960 O   0  0  0  0  0  0  0  0  0  0  0  0
  1 31  1  1  0  0  0
  1 11  1  0  0  0  0
  1 12  1  0  0  0  0
  2  6  2  0  0  0  0
  3  9  1  0  0  0  0
  4  3  1  0  0  0  0
  5  6  1  0  0  0  0
  6  3  1  0  0  0  0
  9 10  1  0  0  0  0
  9  7  1  1  0  0  0
 10  8  1  6  0  0  0
 11  8  1  0  0  0  0
 12  4  1  6  0  0  0
 12 10  1  0  0  0  0
 13  5  1  0  0  0  0
 14 13  1  0  0  0  0
 15 21  1  6  0  0  0
 15 16  1  0  0  0  0
 16 14  1  1  0  0  0
 17 22  1  6  0  0  0
 17 15  1  0  0  0  0
 17 16  1  0  0  0  0
 19 20  1  0  0  0  0
 20 21  1  0  0  0  0
 21 18  2  0  0  0  0
 23 22  2  0  0  0  0
 24 17  1  0  0  0  0
 25 28  1  0  0  0  0
 27 29  1  0  0  0  0
 27 25  1  0  0  0  0
 28 24  1  6  0  0  0
 28 26  1  0  0  0  0
 29 30  1  0  0  0  0
 30 26  1  0  0  0  0
 32 33  1  0  0  0  0
 32 31  1  0  0  0  0
 34 37  2  0  0  0  0
 35 37  1  0  0  0  0
 35 40  2  0  0  0  0
 36 35  1  0  0  0  0
 37 39  1  0  0  0  0
 38 33  1  1  0  0  0
 39 38  1  0  0  0  0
 39 41  1  0  0  0  0
 40 38  1  0  0  0  0
 41 42  1  0  0  0  0
 41 43  1  0  0  0  0
 42 43  1  0  0  0  0
 44 45  1  0  0  0  0
 44 41  1  0  0  0  0
 46 36  1  0  0  0  0
 47 48  1  0  0  0  0
 47 46  1  0  0  0  0
 49 47  2  0  0  0  0
M  END
>  <MODEL>
7

>  <REMARK>
 VINA RESULT:      -3.6      5.333      9.441
  Name = 
  15 active torsions:
  status: ('A' for Active; 'I' for Inactive)
    1  A    between atoms: C_1  and  O_23
    2  A    between atoms: C_5  and  C_20
    3  A    between atoms: C_6  and  N_9
    4  A    between atoms: C_6  and  C_17
    5  A    between atoms: C_11  and  C_18
    6  A    between atoms: C_11  and  N_21
    7  A    between atoms: C_12  and  C_40
    8  A    between atoms: C_19  and  N_27
    9  A    between atoms: C_19  and  C_28
   10  A    between atoms: O_23  and  O_24
   11  A    between atoms: O_24  and  C_40
   12  A    between atoms: C_25  and  C_28
   13  A    between atoms: C_30  and  N_37
   14  A    between atoms: N_37  and  C_41
   15  A    between atoms: N_38  and  C_41
                            x       y       z     vdW  Elec       q    Type
                         _______ _______ _______ _____ _____    ______ ____

>  <TORSDO>
F 15

$$$$
=
 OpenBabel11072409473D

 49 54  0  0  1  0  0  0  0  0999 V2000
  160.8350  207.1020  151.3490 C   0  0  2  0  0  3  0  0  0  0  0  0
  158.4400  211.0910  152.5560 O   0  0  0  0  0  0  0  0  0  0  0  0
  160.4180  209.8730  152.8150 N   0  0  0  0  0  0  0  0  0  0  0  0
  159.7610  208.6390  152.8780 N   0  0  0  0  0  2  0  0  0  0  0  0
  160.4170  212.2410  152.0620 N   0  0  0  0  0  2  0  0  0  0  0  0
  159.7020  211.0750  152.4920 C   0  0  0  0  0  0  0  0  0  0  0  0
  162.4780  210.5790  154.3230 Cl  0  0  0  0  0  0  0  0  0  0  0  0
  162.9880  207.9980  151.7870 O   0  0  0  0  0  0  0  0  0  0  0  0
  161.8630  209.8090  152.8460 C   0  0  1  0  0  3  0  0  0  0  0  0
  162.1660  208.3320  152.8800 C   0  0  1  0  0  3  0  0  0  0  0  0
  162.3050  207.0170  151.0500 C   0  0  0  0  0  2  0  0  0  0  0  0
  160.8170  207.6360  152.7470 C   0  0  2  0  0  3  0  0  0  0  0  0
  159.7420  213.4600  151.6390 C   0  0  0  0  0  2  0  0  0  0  0  0
  159.7080  213.5370  150.1240 C   0  0  0  0  0  2  0  0  0  0  0  0
  161.0830  212.3570  148.4180 C   0  0  1  0  0  3  0  0  0  0  0  0
  161.1100  213.4040  149.5450 C   0  0  1  0  0  3  0  0  0  0  0  0
  161.1990  213.8450  148.0870 C   0  0  1  0  0  0  0  0  0  0  0  0
  163.4630  212.2390  148.0450 O   0  0  0  0  0  0  0  0  0  0  0  0
  161.2700  209.4080  148.8340 C   0  0  0  0  0  1  0  0  0  0  0  0
  162.4500  210.2030  148.4890 N   0  0  0  0  0  2  0  0  0  0  0  0
  162.3950  211.6180  148.2980 C   0  0  0  0  0  0  0  0  0  0  0  0
  162.4880  214.3380  147.6520 N   0  0  0  0  0  0  0  0  0  0  0  0
  162.7480  214.4070  146.4850 O   0  0  0  0  0  0  0  0  0  0  0  0
  160.0200  214.4360  147.4530 N   0  0  0  0  0  2  0  0  0  0  0  0
  157.8690  213.2610  147.3360 C   0  0  0  0  0  2  0  0  0  0  0  0
  159.2710  213.7050  145.2490 C   0  0  0  0  0  2  0  0  0  0  0  0
  156.8710  214.1670  146.6110 C   0  0  0  0  0  2  0  0  0  0  0  0
  159.2860  213.3950  146.7530 C   0  0  1  0  0  3  0  0  0  0  0  0
  156.8920  213.9230  145.0940 C   0  0  0  0  0  2  0  0  0  0  0  0
  158.0630  213.1500  144.6420 N   0  0  0  0  0  2  0  0  0  0  0  0
  160.2620  205.8240  151.2680 O   0  0  0  0  0  0  0  0  0  0  0  0
  161.2090  204.9630  151.6140 O   0  0  0  0  0  0  0  0  0  0  0  0
  161.8630  204.5910  150.4270 C   0  0  0  0  0  2  0  0  0  0  0  0
  161.4240  201.4440  147.2830 O   0  0  0  0  0  0  0  0  0  0  0  0
  161.5760  203.8480  147.1970 C   0  0  0  0  0  0  0  0  0  0  0  0
  161.9760  204.0310  145.8410 N   0  0  0  0  0  2  0  0  0  0  0  0
  161.2630  202.5820  147.7970 C   0  0  0  0  0  0  0  0  0  0  0  0
  160.8700  204.2770  149.3040 C   0  0  2  0  0  3  0  0  0  0  0  0
  160.7820  202.8260  149.1040 N   0  0  0  0  0  0  0  0  0  0  0  0
  161.3590  204.8200  148.0240 N   0  0  0  0  0  0  0  0  0  0  0  0
  160.5070  201.8220  150.1290 C   0  0  0  0  0  0  0  0  0  0  0  0
  161.7480  201.1520  150.6730 C   0  0  0  0  0  2  0  0  0  0  0  0
  160.9720  202.1540  151.5240 C   0  0  0  0  0  2  0  0  0  0  0  0
  159.3160  200.9000  149.9570 C   0  0  0  0  0  2  0  0  0  0  0  0
  158.2980  201.5130  149.0140 C   0  0  0  0  0  1  0  0  0  0  0  0
  162.1600  205.3580  145.2610 C   0  0  0  0  0  2  0  0  0  0  0  0
  161.0290  205.6710  144.3390 C   0  0  0  0  0  0  0  0  0  0  0  0
  159.7380  205.7770  144.8430 O   0  0  0  0  0  1  0  0  0  0  0  0
  161.2370  205.8260  143.1110 O   0  0  0  0  0  0  0  0  0  0  0  0
  1 31  1  1  0  0  0
  1 12  1  0  0  0  0
  3  9  1  0  0  0  0
  3  4  1  0  0  0  0
  5  6  1  0  0  0  0
  6  2  2  0  0  0  0
  6  3  1  0  0  0  0
  9 10  1  0  0  0  0
  9  7  1  1  0  0  0
 10  8  1  6  0  0  0
 11  1  1  0  0  0  0
 11  8  1  0  0  0  0
 12  4  1  6  0  0  0
 12 10  1  0  0  0  0
 13  5  1  0  0  0  0
 14 13  1  0  0  0  0
 15 21  1  1  0  0  0
 15 16  1  0  0  0  0
 16 14  1  6  0  0  0
 17 24  1  6  0  0  0
 17 15  1  0  0  0  0
 17 16  1  0  0  0  0
 18 21  2  0  0  0  0
 20 19  1  0  0  0  0
 21 20  1  0  0  0  0
 22 17  1  0  0  0  0
 23 22  2  0  0  0  0
 26 28  1  0  0  0  0
 27 25  1  0  0  0  0
 28 25  1  0  0  0  0
 28 24  1  1  0  0  0
 29 27  1  0  0  0  0
 30 29  1  0  0  0  0
 30 26  1  0  0  0  0
 31 32  1  0  0  0  0
 33 32  1  0  0  0  0
 34 37  2  0  0  0  0
 35 37  1  0  0  0  0
 35 40  2  0  0  0  0
 36 35  1  0  0  0  0
 37 39  1  0  0  0  0
 38 33  1  1  0  0  0
 39 38  1  0  0  0  0
 39 41  1  0  0  0  0
 40 38  1  0  0  0  0
 41 42  1  0  0  0  0
 41 43  1  0  0  0  0
 42 43  1  0  0  0  0
 44 41  1  0  0  0  0
 45 44  1  0  0  0  0
 46 36  1  0  0  0  0
 47 48  1  0  0  0  0
 47 46  1  0  0  0  0
 49 47  2  0  0  0  0
M  END
>  <MODEL>
8

>  <REMARK>
 VINA RESULT:      -3.3      4.488      9.862
  Name = 
  15 active torsions:
  status: ('A' for Active; 'I' for Inactive)
    1  A    between atoms: C_1  and  O_23
    2  A    between atoms: C_5  and  C_20
    3  A    between atoms: C_6  and  N_9
    4  A    between atoms: C_6  and  C_17
    5  A    between atoms: C_11  and  C_18
    6  A    between atoms: C_11  and  N_21
    7  A    between atoms: C_12  and  C_40
    8  A    between atoms: C_19  and  N_27
    9  A    between atoms: C_19  and  C_28
   10  A    between atoms: O_23  and  O_24
   11  A    between atoms: O_24  and  C_40
   12  A    between atoms: C_25  and  C_28
   13  A    between atoms: C_30  and  N_37
   14  A    between atoms: N_37  and  C_41
   15  A    between atoms: N_38  and  C_41
                            x       y       z     vdW  Elec       q    Type
                         _______ _______ _______ _____ _____    ______ ____

>  <TORSDO>
F 15

$$$$
=
 OpenBabel11072409473D

 49 54  0  0  1  0  0  0  0  0999 V2000
  160.4770  212.8110  145.2470 C   0  0  2  0  0  3  0  0  0  0  0  0
  162.8880  210.2920  148.5550 O   0  0  0  0  0  0  0  0  0  0  0  0
  161.8750  212.3350  148.0430 N   0  0  0  0  0  0  0  0  0  0  0  0
  162.3350  212.3410  146.7220 N   0  0  0  0  0  2  0  0  0  0  0  0
  161.2730  211.0380  150.0740 N   0  0  0  0  0  2  0  0  0  0  0  0
  162.0580  211.1860  148.8850 C   0  0  0  0  0  0  0  0  0  0  0  0
  161.7840  214.4530  149.6320 Cl  0  0  0  0  0  0  0  0  0  0  0  0
  159.4870  214.3140  146.7940 O   0  0  0  0  0  0  0  0  0  0  0  0
  161.0060  213.4350  148.4020 C   0  0  1  0  0  3  0  0  0  0  0  0
  160.8520  214.2170  147.1210 C   0  0  1  0  0  3  0  0  0  0  0  0
  159.3340  213.7480  145.5170 C   0  0  0  0  0  2  0  0  0  0  0  0
  161.5850  213.4060  146.0580 C   0  0  2  0  0  3  0  0  0  0  0  0
  161.3530  209.8550  150.9200 C   0  0  0  0  0  2  0  0  0  0  0  0
  161.5960  208.6220  150.0680 C   0  0  0  0  0  2  0  0  0  0  0  0
  160.8630  206.2990  150.5750 C   0  0  1  0  0  3  0  0  0  0  0  0
  161.8660  207.4060  150.9420 C   0  0  1  0  0  3  0  0  0  0  0  0
  162.3260  206.1880  150.1460 C   0  0  1  0  0  0  0  0  0  0  0  0
  160.0950  204.2510  151.5920 O   0  0  0  0  0  0  0  0  0  0  0  0
  161.2390  207.2400  153.3820 C   0  0  0  0  0  1  0  0  0  0  0  0
  160.7010  205.9090  153.0920 N   0  0  0  0  0  2  0  0  0  0  0  0
  160.5240  205.4250  151.7590 C   0  0  0  0  0  0  0  0  0  0  0  0
  163.1650  205.2470  150.8570 N   0  0  0  0  0  0  0  0  0  0  0  0
  163.8100  205.6030  151.8010 O   0  0  0  0  0  0  0  0  0  0  0  0
  162.5670  206.3300  148.7100 N   0  0  0  0  0  2  0  0  0  0  0  0
  160.9320  206.4200  146.8820 C   0  0  0  0  0  2  0  0  0  0  0  0
  162.2240  204.2860  147.4230 C   0  0  0  0  0  2  0  0  0  0  0  0
  161.6920  206.3040  145.5590 C   0  0  0  0  0  2  0  0  0  0  0  0
  161.5730  205.5590  147.9840 C   0  0  1  0  0  3  0  0  0  0  0  0
  161.8390  204.8360  145.1250 C   0  0  0  0  0  2  0  0  0  0  0  0
  161.5350  203.8760  146.2010 N   0  0  0  0  0  2  0  0  0  0  0  0
  160.7730  212.8120  143.8750 O   0  0  0  0  0  0  0  0  0  0  0  0
  160.0750  211.8220  143.3370 O   0  0  0  0  0  0  0  0  0  0  0  0
  159.4070  212.3620  142.2250 C   0  0  0  0  0  2  0  0  0  0  0  0
  158.9790  211.0280  137.9800 O   0  0  0  0  0  0  0  0  0  0  0  0
  160.5430  210.4770  139.7300 C   0  0  0  0  0  0  0  0  0  0  0  0
  161.0480  209.2360  139.2410 N   0  0  0  0  0  2  0  0  0  0  0  0
  159.6040  211.3120  139.0360 C   0  0  0  0  0  0  0  0  0  0  0  0
  160.2880  212.3520  140.9720 C   0  0  2  0  0  3  0  0  0  0  0  0
  159.4560  212.5100  139.7730 N   0  0  0  0  0  0  0  0  0  0  0  0
  160.9480  211.0420  140.8220 N   0  0  0  0  0  0  0  0  0  0  0  0
  158.4780  213.5650  139.5260 C   0  0  0  0  0  0  0  0  0  0  0  0
  158.8220  214.4520  138.3510 C   0  0  0  0  0  2  0  0  0  0  0  0
  157.6780  213.4450  138.2530 C   0  0  0  0  0  2  0  0  0  0  0  0
  157.8640  214.2910  140.7070 C   0  0  0  0  0  2  0  0  0  0  0  0
  156.3840  213.9740  140.8180 C   0  0  0  0  0  1  0  0  0  0  0  0
  162.0930  208.4970  139.9420 C   0  0  0  0  0  2  0  0  0  0  0  0
  162.1860  207.1110  139.3980 C   0  0  0  0  0  0  0  0  0  0  0  0
  162.1430  206.9040  138.0240 O   0  0  0  0  0  0  0  0  0  0  0  0
  162.2890  206.1300  140.1760 O   0  0  0  0  0  1  0  0  0  0  0  0
  1 31  1  6  0  0  0
  1 11  1  0  0  0  0
  1 12  1  0  0  0  0
  2  6  2  0  0  0  0
  3  9  1  0  0  0  0
  3  6  1  0  0  0  0
  4  3  1  0  0  0  0
  5 13  1  0  0  0  0
  6  5  1  0  0  0  0
  9  7  1  1  0  0  0
 10  8  1  6  0  0  0
 10  9  1  0  0  0  0
 11  8  1  0  0  0  0
 12  4  1  1  0  0  0
 12 10  1  0  0  0  0
 14 13  1  0  0  0  0
 15 16  1  0  0  0  0
 15 21  1  1  0  0  0
 16 14  1  6  0  0  0
 17 24  1  6  0  0  0
 17 15  1  0  0  0  0
 17 22  1  0  0  0  0
 17 16  1  0  0  0  0
 18 21  2  0  0  0  0
 20 19  1  0  0  0  0
 21 20  1  0  0  0  0
 22 23  2  0  0  0  0
 25 28  1  0  0  0  0
 26 28  1  0  0  0  0
 27 25  1  0  0  0  0
 28 24  1  6  0  0  0
 29 27  1  0  0  0  0
 29 30  1  0  0  0  0
 30 26  1  0  0  0  0
 32 31  1  0  0  0  0
 33 32  1  0  0  0  0
 34 37  2  0  0  0  0
 35 40  2  0  0  0  0
 36 35  1  0  0  0  0
 36 46  1  0  0  0  0
 37 35  1  0  0  0  0
 37 39  1  0  0  0  0
 38 33  1  1  0  0  0
 39 38  1  0  0  0  0
 40 38  1  0  0  0  0
 41 39  1  0  0  0  0
 41 44  1  0  0  0  0
 42 41  1  0  0  0  0
 43 42  1  0  0  0  0
 43 41  1  0  0  0  0
 44 45  1  0  0  0  0
 47 46  1  0  0  0  0
 47 49  1  0  0  0  0
 48 47  2  0  0  0  0
M  END
>  <MODEL>
9

>  <REMARK>
 VINA RESULT:      -2.9      3.338      5.811
  Name = 
  15 active torsions:
  status: ('A' for Active; 'I' for Inactive)
    1  A    between atoms: C_1  and  O_23
    2  A    between atoms: C_5  and  C_20
    3  A    between atoms: C_6  and  N_9
    4  A    between atoms: C_6  and  C_17
    5  A    between atoms: C_11  and  C_18
    6  A    between atoms: C_11  and  N_21
    7  A    between atoms: C_12  and  C_40
    8  A    between atoms: C_19  and  N_27
    9  A    between atoms: C_19  and  C_28
   10  A    between atoms: O_23  and  O_24
   11  A    between atoms: O_24  and  C_40
   12  A    between atoms: C_25  and  C_28
   13  A    between atoms: C_30  and  N_37
   14  A    between atoms: N_37  and  C_41
   15  A    between atoms: N_38  and  C_41
                            x       y       z     vdW  Elec       q    Type
                         _______ _______ _______ _____ _____    ______ ____

>  <TORSDO>
F 15

$$$$
