=
 OpenBabel11072413153D

 34 40  0  0  1  0  0  0  0  0999 V2000
  161.8020  209.4000  155.6610 C   0  0  1  0  0  3  0  0  0  0  0  0
  160.8140  211.0720  154.0870 C   0  0  1  0  0  3  0  0  0  0  0  0
  161.5590  208.8290  152.1050 C   0  0  0  0  0  0  0  0  0  0  0  0
  160.3640  208.8770  155.5750 C   0  0  2  0  0  0  0  0  0  0  0  0
  161.1870  208.5380  153.3220 C   0  0  0  0  0  0  0  0  0  0  0  0
  161.5560  206.2400  153.7050 O   0  0  0  0  0  1  0  0  0  0  0  0
  161.9350  209.1420  150.8940 C   0  0  0  0  0  0  0  0  0  0  0  0
  160.5740  207.2320  153.6880 C   0  0  1  0  0  3  0  0  0  0  0  0
  161.2360  211.8310  155.3370 C   0  0  0  0  0  2  0  0  0  0  0  0
  161.0010  209.5700  154.3820 C   0  0  2  0  0  0  0  0  0  0  0  0
  161.8660  210.7900  156.1930 C   0  0  0  0  0  0  0  0  0  0  0  0
  159.3110  209.6110  156.1330 O   0  0  0  0  0  1  0  0  0  0  0  0
  162.3970  211.0560  157.2590 O   0  0  0  0  0  0  0  0  0  0  0  0
  159.5380  206.6470  155.7590 O   0  0  0  0  0  0  0  0  0  0  0  0
  160.0980  207.4940  155.0800 C   0  0  0  0  0  0  0  0  0  0  0  0
  161.2820  211.9770  148.8670 C   0  0  2  0  0  0  0  0  0  0  0  0
  160.6650  212.3360  150.1270 N   0  0  0  0  0  2  0  0  0  0  0  0
  160.3280  211.0830  146.8740 C   0  0  0  0  0  2  0  0  0  0  0  0
  161.9490  214.4500  148.7160 C   0  0  0  0  0  2  0  0  0  0  0  0
  161.9940  210.5850  150.5180 C   0  0  1  0  0  3  0  0  0  0  0  0
  161.8310  213.0990  148.0800 C   0  0  0  0  0  0  0  0  0  0  0  0
  163.2630  213.0510  147.6120 C   0  0  0  0  0  2  0  0  0  0  0  0
  160.5170  212.4460  147.5730 C   0  0  0  0  0  0  0  0  0  0  0  0
  162.1240  210.7530  149.0260 C   0  0  0  0  0  2  0  0  0  0  0  0
  160.8310  211.2600  150.9550 O   0  0  0  0  0  0  0  0  0  0  0  0
  160.9470  212.1790  146.1180 C   0  0  0  0  0  2  0  0  0  0  0  0
  163.4190  214.4360  148.2620 C   0  0  0  0  0  2  0  0  0  0  0  0
  158.9870  212.9010  153.6140 C   0  0  0  0  0  1  0  0  0  0  0  0
  159.4470  211.4790  153.5960 C   0  0  0  0  0  0  0  0  0  0  0  0
  158.6730  210.6190  153.2060 O   0  0  0  0  0  0  0  0  0  0  0  0
  162.2870  208.0820  149.8860 C   0  0  1  0  0  3  0  0  0  0  0  0
  162.8660  206.8500  150.5630 C   0  0  0  0  0  1  0  0  0  0  0  0
  161.0820  207.7150  149.0320 C   0  0  0  0  0  2  0  0  0  0  0  0
  160.5710  206.4810  149.4350 O   0  0  0  0  0  1  0  0  0  0  0  0
  1 11  1  1  0  0  0
  2 29  1  1  0  0  0
  2 10  1  0  0  0  0
  2  9  1  0  0  0  0
  3  5  2  0  0  0  0
  4  1  1  0  0  0  0
  4 12  1  1  0  0  0
  5  8  1  0  0  0  0
  7  3  2  0  0  0  0
  8  6  1  1  0  0  0
  8 15  1  0  0  0  0
  9 11  1  0  0  0  0
 10  5  1  6  0  0  0
 10  4  1  0  0  0  0
 10  1  1  0  0  0  0
 11 13  2  0  0  0  0
 15  4  1  0  0  0  0
 15 14  2  0  0  0  0
 16 24  1  6  0  0  0
 16 17  1  0  0  0  0
 17 25  1  0  0  0  0
 18 23  1  0  0  0  0
 20  7  1  6  0  0  0
 20 25  1  0  0  0  0
 21 19  1  0  0  0  0
 21 16  1  0  0  0  0
 22 21  1  0  0  0  0
 22 27  1  0  0  0  0
 23 21  1  0  0  0  0
 23 16  1  0  0  0  0
 24 20  1  0  0  0  0
 26 18  1  0  0  0  0
 26 23  1  0  0  0  0
 27 19  1  0  0  0  0
 29 28  1  0  0  0  0
 30 29  2  0  0  0  0
 31 32  1  1  0  0  0
 31  7  1  0  0  0  0
 33 34  1  0  0  0  0
 33 31  1  0  0  0  0
M  END
>  <MODEL>
1

>  <REMARK>
 VINA RESULT:      -4.2      0.000      0.000
  Name = 
  4 active torsions:
  status: ('A' for Active; 'I' for Inactive)
    1  A    between atoms: C_3  and  C_9
    2  A    between atoms: C_8  and  C_13
    3  A    between atoms: C_8  and  C_18
    4  A    between atoms: C_17  and  C_18
                            x       y       z     vdW  Elec       q    Type
                         _______ _______ _______ _____ _____    ______ ____

>  <TORSDO>
F 4

$$$$
=
 OpenBabel11072413153D

 34 40  0  0  1  0  0  0  0  0999 V2000
  160.8650  206.4560  150.4380 C   0  0  1  0  0  3  0  0  0  0  0  0
  161.2050  208.9330  150.4220 C   0  0  1  0  0  3  0  0  0  0  0  0
  160.4690  208.5010  153.3860 C   0  0  0  0  0  0  0  0  0  0  0  0
  162.3230  206.5340  150.9030 C   0  0  2  0  0  0  0  0  0  0  0  0
  161.1270  207.5860  152.7290 C   0  0  0  0  0  0  0  0  0  0  0  0
  161.2470  205.6350  154.0510 O   0  0  0  0  0  1  0  0  0  0  0  0
  159.8040  209.4280  154.0230 C   0  0  0  0  0  0  0  0  0  0  0  0
  162.0180  206.5970  153.3960 C   0  0  1  0  0  3  0  0  0  0  0  0
  160.9240  208.5110  148.9860 C   0  0  0  0  0  2  0  0  0  0  0  0
  161.3460  207.6430  151.2550 C   0  0  2  0  0  0  0  0  0  0  0  0
  160.6730  207.0480  149.0850 C   0  0  0  0  0  0  0  0  0  0  0  0
  163.3250  206.9520  150.0200 O   0  0  0  0  0  1  0  0  0  0  0  0
  160.3330  206.3790  148.1220 O   0  0  0  0  0  0  0  0  0  0  0  0
  163.5420  205.0840  152.3520 O   0  0  0  0  0  0  0  0  0  0  0  0
  162.7170  205.9760  152.2310 C   0  0  0  0  0  0  0  0  0  0  0  0
  158.8490  212.8270  153.6950 C   0  0  2  0  0  0  0  0  0  0  0  0
  160.0880  212.7690  152.9470 N   0  0  0  0  0  2  0  0  0  0  0  0
  158.4170  213.5470  155.9250 C   0  0  0  0  0  2  0  0  0  0  0  0
  158.0580  214.4530  151.8750 C   0  0  0  0  0  2  0  0  0  0  0  0
  159.4210  210.6660  153.2820 C   0  0  1  0  0  3  0  0  0  0  0  0
  157.8510  213.7990  153.2070 C   0  0  0  0  0  0  0  0  0  0  0  0
  156.4470  213.3390  152.9080 C   0  0  0  0  0  2  0  0  0  0  0  0
  158.6070  214.1480  154.5170 C   0  0  0  0  0  0  0  0  0  0  0  0
  158.3800  211.4500  154.0370 C   0  0  0  0  0  2  0  0  0  0  0  0
  160.5510  211.4890  153.0720 O   0  0  0  0  0  0  0  0  0  0  0  0
  157.3850  214.4530  155.4050 C   0  0  0  0  0  2  0  0  0  0  0  0
  156.6300  213.9960  151.5300 C   0  0  0  0  0  2  0  0  0  0  0  0
  162.7010  210.8450  149.4140 C   0  0  0  0  0  1  0  0  0  0  0  0
  162.3520  209.9080  150.5250 C   0  0  0  0  0  0  0  0  0  0  0  0
  163.0420  209.9110  151.5310 O   0  0  0  0  0  0  0  0  0  0  0  0
  159.4410  209.2720  155.4750 C   0  0  1  0  0  3  0  0  0  0  0  0
  159.4590  207.8090  155.8920 C   0  0  0  0  0  1  0  0  0  0  0  0
  160.3610  210.0990  156.3610 C   0  0  0  0  0  2  0  0  0  0  0  0
  161.6020  209.4720  156.4770 O   0  0  0  0  0  1  0  0  0  0  0  0
  1 11  1  6  0  0  0
  1  4  1  0  0  0  0
  1 10  1  0  0  0  0
  2 29  1  6  0  0  0
  2 10  1  0  0  0  0
  3  7  2  0  0  0  0
  4 12  1  6  0  0  0
  4 10  1  0  0  0  0
  4 15  1  0  0  0  0
  5  3  2  0  0  0  0
  5  8  1  0  0  0  0
  7 31  1  0  0  0  0
  8  6  1  6  0  0  0
  9 11  1  0  0  0  0
  9  2  1  0  0  0  0
 10  5  1  1  0  0  0
 13 11  2  0  0  0  0
 15 14  2  0  0  0  0
 15  8  1  0  0  0  0
 16 24  1  1  0  0  0
 16 23  1  0  0  0  0
 17 25  1  0  0  0  0
 17 16  1  0  0  0  0
 19 21  1  0  0  0  0
 20  7  1  1  0  0  0
 20 24  1  0  0  0  0
 21 16  1  0  0  0  0
 21 23  1  0  0  0  0
 22 21  1  0  0  0  0
 23 26  1  0  0  0  0
 23 18  1  0  0  0  0
 25 20  1  0  0  0  0
 26 18  1  0  0  0  0
 27 19  1  0  0  0  0
 27 22  1  0  0  0  0
 28 29  1  0  0  0  0
 29 30  2  0  0  0  0
 31 32  1  1  0  0  0
 31 33  1  0  0  0  0
 33 34  1  0  0  0  0
M  END
>  <MODEL>
2

>  <REMARK>
 VINA RESULT:      -2.8      2.095      6.142
  Name = 
  4 active torsions:
  status: ('A' for Active; 'I' for Inactive)
    1  A    between atoms: C_3  and  C_9
    2  A    between atoms: C_8  and  C_13
    3  A    between atoms: C_8  and  C_18
    4  A    between atoms: C_17  and  C_18
                            x       y       z     vdW  Elec       q    Type
                         _______ _______ _______ _____ _____    ______ ____

>  <TORSDO>
F 4

$$$$
=
 OpenBabel11072413153D

 34 40  0  0  1  0  0  0  0  0999 V2000
  157.8300  211.1430  154.1460 C   0  0  1  0  0  3  0  0  0  0  0  0
  159.7260  209.5970  154.6600 C   0  0  1  0  0  3  0  0  0  0  0  0
  160.7290  210.8340  152.0190 C   0  0  0  0  0  0  0  0  0  0  0  0
  158.7840  212.1080  154.8580 C   0  0  2  0  0  0  0  0  0  0  0  0
  160.0080  211.5400  152.8460 C   0  0  0  0  0  0  0  0  0  0  0  0
  159.4070  213.5670  151.7990 O   0  0  0  0  0  1  0  0  0  0  0  0
  161.4440  210.1080  151.2000 C   0  0  0  0  0  0  0  0  0  0  0  0
  160.0680  213.0260  152.9040 C   0  0  1  0  0  3  0  0  0  0  0  0
  158.5110  209.0830  155.4220 C   0  0  0  0  0  2  0  0  0  0  0  0
  159.3320  210.9520  154.0390 C   0  0  2  0  0  0  0  0  0  0  0  0
  157.4180  210.0100  155.0210 C   0  0  0  0  0  0  0  0  0  0  0  0
  159.0340  211.9720  156.2280 O   0  0  0  0  0  1  0  0  0  0  0  0
  156.2640  209.8520  155.3840 O   0  0  0  0  0  0  0  0  0  0  0  0
  159.0910  214.4530  154.5510 O   0  0  0  0  0  0  0  0  0  0  0  0
  159.2930  213.3190  154.1480 C   0  0  0  0  0  0  0  0  0  0  0  0
  161.7940  206.6230  150.6470 C   0  0  2  0  0  0  0  0  0  0  0  0
  163.1220  207.0140  151.0760 N   0  0  0  0  0  2  0  0  0  0  0  0
  160.9120  206.2710  148.4620 C   0  0  0  0  0  2  0  0  0  0  0  0
  162.2090  204.4770  151.9910 C   0  0  0  0  0  2  0  0  0  0  0  0
  161.7440  208.6960  151.5800 C   0  0  1  0  0  3  0  0  0  0  0  0
  161.3790  205.2550  151.0170 C   0  0  0  0  0  0  0  0  0  0  0  0
  160.0820  205.0440  151.7530 C   0  0  0  0  0  2  0  0  0  0  0  0
  161.7350  205.5170  149.5290 C   0  0  0  0  0  0  0  0  0  0  0  0
  160.8230  207.7360  150.8720 C   0  0  0  0  0  2  0  0  0  0  0  0
  163.0810  208.3680  151.2600 O   0  0  0  0  0  0  0  0  0  0  0  0
  160.4570  204.9410  148.8890 C   0  0  0  0  0  2  0  0  0  0  0  0
  160.9060  204.2440  152.7760 C   0  0  0  0  0  2  0  0  0  0  0  0
  161.1660  208.6610  156.6490 C   0  0  0  0  0  1  0  0  0  0  0  0
  160.9780  209.5990  155.5000 C   0  0  0  0  0  0  0  0  0  0  0  0
  161.8540  210.4150  155.2620 O   0  0  0  0  0  0  0  0  0  0  0  0
  161.9730  210.6740  149.9120 C   0  0  1  0  0  3  0  0  0  0  0  0
  161.9190  209.6440  148.7950 C   0  0  0  0  0  1  0  0  0  0  0  0
  161.2230  211.9390  149.5190 C   0  0  0  0  0  2  0  0  0  0  0  0
  161.3670  212.1730  148.1510 O   0  0  0  0  0  1  0  0  0  0  0  0
  1  4  1  0  0  0  0
  1 11  1  1  0  0  0
  2  9  1  0  0  0  0
  2 29  1  1  0  0  0
  3  5  2  0  0  0  0
  4 12  1  1  0  0  0
  5  8  1  0  0  0  0
  7  3  2  0  0  0  0
  8  6  1  6  0  0  0
  8 15  1  0  0  0  0
 10  5  1  6  0  0  0
 10  1  1  0  0  0  0
 10  2  1  0  0  0  0
 10  4  1  0  0  0  0
 11 13  2  0  0  0  0
 11  9  1  0  0  0  0
 15 14  2  0  0  0  0
 15  4  1  0  0  0  0
 16 24  1  6  0  0  0
 16 21  1  0  0  0  0
 16 17  1  0  0  0  0
 17 25  1  0  0  0  0
 18 26  1  0  0  0  0
 18 23  1  0  0  0  0
 19 27  1  0  0  0  0
 20  7  1  6  0  0  0
 21 22  1  0  0  0  0
 21 19  1  0  0  0  0
 22 27  1  0  0  0  0
 23 16  1  0  0  0  0
 23 21  1  0  0  0  0
 24 20  1  0  0  0  0
 25 20  1  0  0  0  0
 26 23  1  0  0  0  0
 29 28  1  0  0  0  0
 30 29  2  0  0  0  0
 31 32  1  6  0  0  0
 31  7  1  0  0  0  0
 33 31  1  0  0  0  0
 34 33  1  0  0  0  0
M  END
>  <MODEL>
3

>  <REMARK>
 VINA RESULT:      -2.4      2.465      5.710
  Name = 
  4 active torsions:
  status: ('A' for Active; 'I' for Inactive)
    1  A    between atoms: C_3  and  C_9
    2  A    between atoms: C_8  and  C_13
    3  A    between atoms: C_8  and  C_18
    4  A    between atoms: C_17  and  C_18
                            x       y       z     vdW  Elec       q    Type
                         _______ _______ _______ _____ _____    ______ ____

>  <TORSDO>
F 4

$$$$
=
 OpenBabel11072413153D

 34 40  0  0  1  0  0  0  0  0999 V2000
  160.7100  206.4140  150.5740 C   0  0  1  0  0  3  0  0  0  0  0  0
  161.1830  208.8060  150.0220 C   0  0  1  0  0  3  0  0  0  0  0  0
  160.3740  209.0770  152.9860 C   0  0  0  0  0  0  0  0  0  0  0  0
  162.1620  206.5230  151.0510 C   0  0  2  0  0  0  0  0  0  0  0  0
  160.9940  208.0080  152.5660 C   0  0  0  0  0  0  0  0  0  0  0  0
  160.9870  206.3950  154.2880 O   0  0  0  0  0  1  0  0  0  0  0  0
  159.7490  210.1530  153.3850 C   0  0  0  0  0  0  0  0  0  0  0  0
  161.8190  207.1500  153.4590 C   0  0  1  0  0  3  0  0  0  0  0  0
  160.9030  208.0920  148.7070 C   0  0  0  0  0  2  0  0  0  0  0  0
  161.2390  207.7270  151.1220 C   0  0  2  0  0  0  0  0  0  0  0  0
  160.5720  206.7000  149.1180 C   0  0  0  0  0  0  0  0  0  0  0  0
  163.2000  206.6860  150.1260 O   0  0  0  0  0  1  0  0  0  0  0  0
  160.2140  205.8520  148.3180 O   0  0  0  0  0  0  0  0  0  0  0  0
  163.2770  205.3710  152.8170 O   0  0  0  0  0  0  0  0  0  0  0  0
  162.5040  206.2530  152.4800 C   0  0  0  0  0  0  0  0  0  0  0  0
  158.3040  213.1730  152.2160 C   0  0  2  0  0  0  0  0  0  0  0  0
  159.7210  213.3990  152.0170 N   0  0  0  0  0  2  0  0  0  0  0  0
  156.8560  213.8670  153.9760 C   0  0  0  0  0  2  0  0  0  0  0  0
  157.9950  214.4500  150.0120 C   0  0  0  0  0  2  0  0  0  0  0  0
  159.4450  211.2130  152.3790 C   0  0  1  0  0  3  0  0  0  0  0  0
  157.4080  213.8310  151.2440 C   0  0  0  0  0  0  0  0  0  0  0  0
  156.3840  213.0120  150.5010 C   0  0  0  0  0  2  0  0  0  0  0  0
  157.4700  214.4270  152.6760 C   0  0  0  0  0  0  0  0  0  0  0  0
  158.0440  211.7400  152.5520 C   0  0  0  0  0  2  0  0  0  0  0  0
  160.3560  212.2870  152.4980 O   0  0  0  0  0  0  0  0  0  0  0  0
  155.9580  214.4510  152.9720 C   0  0  0  0  0  2  0  0  0  0  0  0
  156.9670  213.6250  149.2170 C   0  0  0  0  0  2  0  0  0  0  0  0
  162.8230  210.3360  148.6510 C   0  0  0  0  0  1  0  0  0  0  0  0
  162.3770  209.7240  149.9400 C   0  0  0  0  0  0  0  0  0  0  0  0
  163.0270  209.9470  150.9490 O   0  0  0  0  0  0  0  0  0  0  0  0
  159.3540  210.3400  154.8240 C   0  0  1  0  0  3  0  0  0  0  0  0
  159.4640  209.0350  155.5980 C   0  0  0  0  0  1  0  0  0  0  0  0
  160.1840  211.4320  155.4830 C   0  0  0  0  0  2  0  0  0  0  0  0
  161.5400  211.1150  155.4020 O   0  0  0  0  0  1  0  0  0  0  0  0
  1 11  1  6  0  0  0
  1  4  1  0  0  0  0
  1 10  1  0  0  0  0
  2 29  1  6  0  0  0
  2 10  1  0  0  0  0
  3  7  2  0  0  0  0
  4 12  1  6  0  0  0
  4 10  1  0  0  0  0
  4 15  1  0  0  0  0
  5  3  2  0  0  0  0
  5  8  1  0  0  0  0
  7 31  1  0  0  0  0
  8  6  1  1  0  0  0
  9 11  1  0  0  0  0
  9  2  1  0  0  0  0
 10  5  1  1  0  0  0
 13 11  2  0  0  0  0
 15 14  2  0  0  0  0
 15  8  1  0  0  0  0
 16 24  1  1  0  0  0
 16 23  1  0  0  0  0
 17 16  1  0  0  0  0
 17 25  1  0  0  0  0
 19 21  1  0  0  0  0
 20 25  1  0  0  0  0
 20 24  1  0  0  0  0
 20  7  1  1  0  0  0
 21 16  1  0  0  0  0
 21 23  1  0  0  0  0
 22 21  1  0  0  0  0
 23 26  1  0  0  0  0
 23 18  1  0  0  0  0
 26 18  1  0  0  0  0
 27 19  1  0  0  0  0
 27 22  1  0  0  0  0
 28 29  1  0  0  0  0
 29 30  2  0  0  0  0
 31 33  1  0  0  0  0
 31 32  1  1  0  0  0
 34 33  1  0  0  0  0
M  END
>  <MODEL>
4

>  <REMARK>
 VINA RESULT:      -2.3      2.165      5.812
  Name = 
  4 active torsions:
  status: ('A' for Active; 'I' for Inactive)
    1  A    between atoms: C_3  and  C_9
    2  A    between atoms: C_8  and  C_13
    3  A    between atoms: C_8  and  C_18
    4  A    between atoms: C_17  and  C_18
                            x       y       z     vdW  Elec       q    Type
                         _______ _______ _______ _____ _____    ______ ____

>  <TORSDO>
F 4

$$$$
