=
 OpenBabel11072411353D

 25 27  0  0  1  0  0  0  0  0999 V2000
  160.6930  205.4280  152.5930 C   0  0  0  0  0  2  0  0  0  0  0  0
  161.4460  205.2590  151.2760 C   0  0  1  0  0  3  0  0  0  0  0  0
  161.1130  208.2720  151.8820 C   0  0  0  0  0  2  0  0  0  0  0  0
  159.9690  206.4990  148.2870 O   0  0  0  0  0  0  0  0  0  0  0  0
  160.9860  204.0230  150.5570 C   0  0  0  0  0  0  0  0  0  0  0  0
  161.0540  206.3310  150.3710 N   0  0  0  0  0  0  0  0  0  0  0  0
  161.5500  200.1680  148.8410 O   0  0  0  0  0  0  0  0  0  0  0  0
  161.2380  201.3630  149.0750 C   0  0  0  0  0  0  0  0  0  0  0  0
  162.0110  207.6330  152.9340 C   0  0  0  0  0  2  0  0  0  0  0  0
  160.4800  205.7870  149.1910 C   0  0  0  0  0  0  0  0  0  0  0  0
  160.4300  201.6470  150.3060 C   0  0  0  0  0  2  0  0  0  0  0  0
  160.9850  202.7970  151.0870 C   0  0  0  0  0  3  0  0  0  0  0  0
  161.4040  206.3730  153.5670 C   0  0  1  0  0  3  0  0  0  0  0  0
  161.6620  202.3790  148.1460 N   0  0  0  0  0  0  0  0  0  0  0  0
  160.4860  204.2980  149.1700 C   0  0  1  0  0  3  0  0  0  0  0  0
  161.4630  207.7260  150.5040 C   0  0  0  0  0  2  0  0  0  0  0  0
  161.4190  203.6630  148.1410 C   0  0  0  0  0  0  0  0  0  0  0  0
  163.0000  205.9070  144.7170 O   0  0  0  0  0  0  0  0  0  0  0  0
  162.0440  204.4420  147.0490 C   0  0  0  0  0  0  0  0  0  0  0  0
  163.1540  205.0050  147.2540 O   0  0  0  0  0  0  0  0  0  0  0  0
  161.3620  204.6270  145.8020 N   0  0  0  0  0  2  0  0  0  0  0  0
  161.0410  205.4700  143.4500 C   0  0  0  0  0  1  0  0  0  0  0  0
  161.8670  205.3590  144.6810 C   0  0  0  0  0  0  0  0  0  0  0  0
  160.5260  206.7330  154.5910 O   0  0  0  0  0  0  0  0  0  0  0  0
  161.2340  207.6570  155.3630 C   0  0  0  0  0  1  0  0  0  0  0  0
  1 13  1  0  0  0  0
  2  1  1  1  0  0  0
  3  9  1  0  0  0  0
  4 10  2  0  0  0  0
  5 12  2  0  0  0  0
  5  2  1  0  0  0  0
  6 16  1  0  0  0  0
  6  2  1  0  0  0  0
  7  8  2  0  0  0  0
  8 11  1  0  0  0  0
  9 13  1  0  0  0  0
 10  6  1  0  0  0  0
 11 12  1  0  0  0  0
 13 24  1  1  0  0  0
 14  8  1  0  0  0  0
 15 17  1  6  0  0  0
 15 10  1  0  0  0  0
 15  5  1  0  0  0  0
 16  3  1  0  0  0  0
 17 14  2  0  0  0  0
 19 20  2  0  0  0  0
 19 17  1  0  0  0  0
 21 19  1  0  0  0  0
 22 23  1  0  0  0  0
 23 18  2  0  0  0  0
 23 21  1  0  0  0  0
 24 25  1  0  0  0  0
M  END
>  <MODEL>
1

>  <REMARK>
 VINA RESULT:      -7.7      0.000      0.000
  Name = 
  2 active torsions:
  status: ('A' for Active; 'I' for Inactive)
    1  A    between atoms: C_6  and  C_23
    2  A    between atoms: C_16  and  O_18
                            x       y       z     vdW  Elec       q    Type
                         _______ _______ _______ _____ _____    ______ ____

>  <TORSDO>
F 2

$$$$
=
 OpenBabel11072411353D

 25 27  0  0  1  0  0  0  0  0999 V2000
  161.4090  208.2850  151.7980 C   0  0  0  0  0  2  0  0  0  0  0  0
  161.8730  207.2590  150.7680 C   0  0  1  0  0  3  0  0  0  0  0  0
  161.6170  210.0230  149.4100 C   0  0  0  0  0  2  0  0  0  0  0  0
  159.7810  206.5670  147.9760 O   0  0  0  0  0  0  0  0  0  0  0  0
  161.2960  205.9050  151.0720 C   0  0  0  0  0  0  0  0  0  0  0  0
  161.2810  207.5870  149.4780 N   0  0  0  0  0  0  0  0  0  0  0  0
  161.5630  201.7750  152.0690 O   0  0  0  0  0  0  0  0  0  0  0  0
  161.2840  202.8890  151.5570 C   0  0  0  0  0  0  0  0  0  0  0  0
  162.7270  210.0650  150.4530 C   0  0  0  0  0  2  0  0  0  0  0  0
  160.4830  206.5050  149.0200 C   0  0  0  0  0  0  0  0  0  0  0  0
  160.7450  203.9580  152.4590 C   0  0  0  0  0  2  0  0  0  0  0  0
  161.4300  205.2720  152.2400 C   0  0  0  0  0  3  0  0  0  0  0  0
  162.2900  209.5390  151.8270 C   0  0  1  0  0  3  0  0  0  0  0  0
  161.4850  203.0640  150.1410 N   0  0  0  0  0  0  0  0  0  0  0  0
  160.5130  205.3280  149.9310 C   0  0  1  0  0  3  0  0  0  0  0  0
  161.6810  208.7110  148.6390 C   0  0  0  0  0  2  0  0  0  0  0  0
  161.2220  204.0930  149.3800 C   0  0  0  0  0  0  0  0  0  0  0  0
  162.0650  203.4750  145.1170 O   0  0  0  0  0  0  0  0  0  0  0  0
  161.5900  203.9600  147.9530 C   0  0  0  0  0  0  0  0  0  0  0  0
  162.5130  204.6820  147.4870 O   0  0  0  0  0  0  0  0  0  0  0  0
  160.8540  203.0840  147.0880 N   0  0  0  0  0  2  0  0  0  0  0  0
  160.2650  201.9400  144.9230 C   0  0  0  0  0  1  0  0  0  0  0  0
  161.1190  202.8790  145.6960 C   0  0  0  0  0  0  0  0  0  0  0  0
  161.6380  210.5490  152.5360 O   0  0  0  0  0  0  0  0  0  0  0  0
  160.4320  209.9790  152.9470 C   0  0  0  0  0  1  0  0  0  0  0  0
  1 13  1  0  0  0  0
  2  5  1  0  0  0  0
  2  1  1  1  0  0  0
  3  9  1  0  0  0  0
  4 10  2  0  0  0  0
  5 12  2  0  0  0  0
  6  2  1  0  0  0  0
  8  7  2  0  0  0  0
  8 11  1  0  0  0  0
  9 13  1  0  0  0  0
 10  6  1  0  0  0  0
 12 11  1  0  0  0  0
 13 24  1  6  0  0  0
 14  8  1  0  0  0  0
 15 10  1  6  0  0  0
 15  5  1  0  0  0  0
 16  3  1  0  0  0  0
 16  6  1  0  0  0  0
 17 15  1  0  0  0  0
 17 14  2  0  0  0  0
 18 23  2  0  0  0  0
 19 17  1  0  0  0  0
 20 19  2  0  0  0  0
 21 19  1  0  0  0  0
 22 23  1  0  0  0  0
 23 21  1  0  0  0  0
 24 25  1  0  0  0  0
M  END
>  <MODEL>
2

>  <REMARK>
 VINA RESULT:      -7.1      2.035      2.654
  Name = 
  2 active torsions:
  status: ('A' for Active; 'I' for Inactive)
    1  A    between atoms: C_6  and  C_23
    2  A    between atoms: C_16  and  O_18
                            x       y       z     vdW  Elec       q    Type
                         _______ _______ _______ _____ _____    ______ ____

>  <TORSDO>
F 2

$$$$
=
 OpenBabel11072411353D

 25 27  0  0  1  0  0  0  0  0999 V2000
  161.2330  209.3980  154.0190 C   0  0  0  0  0  2  0  0  0  0  0  0
  160.8740  208.6860  152.7190 C   0  0  1  0  0  3  0  0  0  0  0  0
  160.9360  206.6280  155.0240 C   0  0  0  0  0  2  0  0  0  0  0  0
  163.0720  206.1830  151.4720 O   0  0  0  0  0  0  0  0  0  0  0  0
  161.5500  209.3440  151.5490 C   0  0  0  0  0  0  0  0  0  0  0  0
  161.4640  207.3540  152.7330 N   0  0  0  0  0  0  0  0  0  0  0  0
  161.5930  211.4250  147.8360 O   0  0  0  0  0  0  0  0  0  0  0  0
  161.7930  210.6290  148.7890 C   0  0  0  0  0  0  0  0  0  0  0  0
  159.8050  207.6220  155.2540 C   0  0  0  0  0  2  0  0  0  0  0  0
  162.3550  207.2050  151.6370 C   0  0  0  0  0  0  0  0  0  0  0  0
  162.2250  211.2060  150.1030 C   0  0  0  0  0  2  0  0  0  0  0  0
  161.4430  210.6410  151.2470 C   0  0  0  0  0  3  0  0  0  0  0  0
  160.2540  209.0870  155.1570 C   0  0  1  0  0  3  0  0  0  0  0  0
  161.6080  209.2200  148.5570 N   0  0  0  0  0  0  0  0  0  0  0  0
  162.4010  208.4010  150.7520 C   0  0  1  0  0  3  0  0  0  0  0  0
  160.9930  206.2420  153.5510 C   0  0  0  0  0  2  0  0  0  0  0  0
  161.8030  208.2070  149.3600 C   0  0  0  0  0  0  0  0  0  0  0  0
  161.0850  204.2850  147.5270 O   0  0  0  0  0  0  0  0  0  0  0  0
  161.4770  206.8710  148.8160 C   0  0  0  0  0  0  0  0  0  0  0  0
  160.5650  206.1910  149.3620 O   0  0  0  0  0  0  0  0  0  0  0  0
  162.2400  206.3150  147.7360 N   0  0  0  0  0  2  0  0  0  0  0  0
  162.8950  204.5910  146.0220 C   0  0  0  0  0  1  0  0  0  0  0  0
  162.0160  205.0370  147.1340 C   0  0  0  0  0  0  0  0  0  0  0  0
  160.8080  209.4940  156.3720 O   0  0  0  0  0  0  0  0  0  0  0  0
  162.0440  210.0490  156.0350 C   0  0  0  0  0  1  0  0  0  0  0  0
  1 13  1  0  0  0  0
  2  6  1  0  0  0  0
  2  1  1  1  0  0  0
  3  9  1  0  0  0  0
  4 10  2  0  0  0  0
  5  2  1  0  0  0  0
  6 16  1  0  0  0  0
  7  8  2  0  0  0  0
  8 11  1  0  0  0  0
 10  6  1  0  0  0  0
 11 12  1  0  0  0  0
 12  5  2  0  0  0  0
 13  9  1  0  0  0  0
 13 24  1  1  0  0  0
 14  8  1  0  0  0  0
 14 17  2  0  0  0  0
 15 17  1  6  0  0  0
 15  5  1  0  0  0  0
 15 10  1  0  0  0  0
 16  3  1  0  0  0  0
 19 17  1  0  0  0  0
 19 20  2  0  0  0  0
 21 19  1  0  0  0  0
 22 23  1  0  0  0  0
 23 18  2  0  0  0  0
 23 21  1  0  0  0  0
 25 24  1  0  0  0  0
M  END
>  <MODEL>
3

>  <REMARK>
 VINA RESULT:      -7.0      2.766      5.241
  Name = 
  2 active torsions:
  status: ('A' for Active; 'I' for Inactive)
    1  A    between atoms: C_6  and  C_23
    2  A    between atoms: C_16  and  O_18
                            x       y       z     vdW  Elec       q    Type
                         _______ _______ _______ _____ _____    ______ ____

>  <TORSDO>
F 2

$$$$
=
 OpenBabel11072411353D

 25 27  0  0  1  0  0  0  0  0999 V2000
  161.7610  205.9450  152.6140 C   0  0  0  0  0  2  0  0  0  0  0  0
  160.8360  207.1570  152.5580 C   0  0  1  0  0  3  0  0  0  0  0  0
  161.3640  206.1420  149.6870 C   0  0  0  0  0  2  0  0  0  0  0  0
  161.9550  210.0900  150.8860 O   0  0  0  0  0  0  0  0  0  0  0  0
  161.1490  208.1150  153.6730 C   0  0  0  0  0  0  0  0  0  0  0  0
  161.1470  207.9300  151.3630 N   0  0  0  0  0  0  0  0  0  0  0  0
  160.2130  210.3140  157.1960 O   0  0  0  0  0  0  0  0  0  0  0  0
  160.6000  209.9420  156.0580 C   0  0  0  0  0  0  0  0  0  0  0  0
  160.5870  205.0900  150.4680 C   0  0  0  0  0  2  0  0  0  0  0  0
  161.5400  209.2460  151.7240 C   0  0  0  0  0  0  0  0  0  0  0  0
  161.5730  208.8040  155.9880 C   0  0  0  0  0  2  0  0  0  0  0  0
  161.1710  207.7860  154.9670 C   0  0  0  0  0  3  0  0  0  0  0  0
  161.2220  204.7480  151.8230 C   0  0  1  0  0  3  0  0  0  0  0  0
  160.0980  210.6370  154.9000 N   0  0  0  0  0  0  0  0  0  0  0  0
  161.4730  209.4970  153.1900 C   0  0  1  0  0  3  0  0  0  0  0  0
  160.8150  207.5280  150.0010 C   0  0  0  0  0  2  0  0  0  0  0  0
  160.3880  210.4750  153.6370 C   0  0  0  0  0  0  0  0  0  0  0  0
  158.4990  213.2140  150.7740 O   0  0  0  0  0  0  0  0  0  0  0  0
  159.6570  211.3380  152.6830 C   0  0  0  0  0  0  0  0  0  0  0  0
  158.4650  211.0520  152.3860 O   0  0  0  0  0  0  0  0  0  0  0  0
  160.3150  212.4370  152.0390 N   0  0  0  0  0  2  0  0  0  0  0  0
  160.5220  214.4280  150.5110 C   0  0  0  0  0  1  0  0  0  0  0  0
  159.7100  213.3330  151.1020 C   0  0  0  0  0  0  0  0  0  0  0  0
  162.2400  203.8090  151.6460 O   0  0  0  0  0  0  0  0  0  0  0  0
  161.5800  202.5900  151.4860 C   0  0  0  0  0  1  0  0  0  0  0  0
  2  1  1  1  0  0  0
  2  5  1  0  0  0  0
  3 16  1  0  0  0  0
  3  9  1  0  0  0  0
  4 10  2  0  0  0  0
  5 12  2  0  0  0  0
  6 10  1  0  0  0  0
  6  2  1  0  0  0  0
  8  7  2  0  0  0  0
  9 13  1  0  0  0  0
 11  8  1  0  0  0  0
 12 11  1  0  0  0  0
 13 24  1  6  0  0  0
 13  1  1  0  0  0  0
 14  8  1  0  0  0  0
 15 10  1  6  0  0  0
 15 17  1  0  0  0  0
 15  5  1  0  0  0  0
 16  6  1  0  0  0  0
 17 14  2  0  0  0  0
 18 23  2  0  0  0  0
 19 17  1  0  0  0  0
 20 19  2  0  0  0  0
 21 19  1  0  0  0  0
 22 23  1  0  0  0  0
 23 21  1  0  0  0  0
 25 24  1  0  0  0  0
M  END
>  <MODEL>
4

>  <REMARK>
 VINA RESULT:      -6.8      3.683      7.623
  Name = 
  2 active torsions:
  status: ('A' for Active; 'I' for Inactive)
    1  A    between atoms: C_6  and  C_23
    2  A    between atoms: C_16  and  O_18
                            x       y       z     vdW  Elec       q    Type
                         _______ _______ _______ _____ _____    ______ ____

>  <TORSDO>
F 2

$$$$
=
 OpenBabel11072411353D

 25 27  0  0  1  0  0  0  0  0999 V2000
  161.5410  205.8700  150.3290 C   0  0  0  0  0  2  0  0  0  0  0  0
  160.9120  207.1150  150.9470 C   0  0  1  0  0  3  0  0  0  0  0  0
  161.9720  207.8000  148.1250 C   0  0  0  0  0  2  0  0  0  0  0  0
  162.9710  209.9520  151.5530 O   0  0  0  0  0  0  0  0  0  0  0  0
  161.0990  207.1190  152.4380 C   0  0  0  0  0  0  0  0  0  0  0  0
  161.6680  208.2840  150.5180 N   0  0  0  0  0  0  0  0  0  0  0  0
  159.7080  207.0980  156.4610 O   0  0  0  0  0  0  0  0  0  0  0  0
  160.3020  207.3370  155.3790 C   0  0  0  0  0  0  0  0  0  0  0  0
  160.8310  206.7970  148.0150 C   0  0  0  0  0  2  0  0  0  0  0  0
  162.1970  208.9630  151.6490 C   0  0  0  0  0  0  0  0  0  0  0  0
  161.0230  206.2040  154.7120 C   0  0  0  0  0  2  0  0  0  0  0  0
  160.7160  206.1290  153.2490 C   0  0  0  0  0  3  0  0  0  0  0  0
  161.0100  205.5710  148.9220 C   0  0  1  0  0  3  0  0  0  0  0  0
  160.2640  208.6780  154.8560 N   0  0  0  0  0  0  0  0  0  0  0  0
  161.7960  208.3460  152.9430 C   0  0  1  0  0  3  0  0  0  0  0  0
  161.6360  208.8520  149.1750 C   0  0  0  0  0  2  0  0  0  0  0  0
  160.8400  209.1790  153.7950 C   0  0  0  0  0  0  0  0  0  0  0  0
  159.7840  213.3080  152.7470 O   0  0  0  0  0  0  0  0  0  0  0  0
  160.5640  210.6050  153.5140 C   0  0  0  0  0  0  0  0  0  0  0  0
  161.1940  211.4900  154.1540 O   0  0  0  0  0  0  0  0  0  0  0  0
  159.5340  210.9810  152.5890 N   0  0  0  0  0  2  0  0  0  0  0  0
  158.0840  212.5600  151.2690 C   0  0  0  0  0  1  0  0  0  0  0  0
  159.1800  212.3240  152.2430 C   0  0  0  0  0  0  0  0  0  0  0  0
  161.8400  204.6370  148.2990 O   0  0  0  0  0  0  0  0  0  0  0  0
  161.2060  203.4090  148.4930 C   0  0  0  0  0  1  0  0  0  0  0  0
  2  1  1  6  0  0  0
  2  5  1  0  0  0  0
  3 16  1  0  0  0  0
  4 10  2  0  0  0  0
  5 15  1  0  0  0  0
  5 12  2  0  0  0  0
  6  2  1  0  0  0  0
  6 10  1  0  0  0  0
  8  7  2  0  0  0  0
  9  3  1  0  0  0  0
  9 13  1  0  0  0  0
 11  8  1  0  0  0  0
 12 11  1  0  0  0  0
 13 24  1  6  0  0  0
 13  1  1  0  0  0  0
 14  8  1  0  0  0  0
 15 10  1  6  0  0  0
 15 17  1  0  0  0  0
 16  6  1  0  0  0  0
 17 14  2  0  0  0  0
 19 17  1  0  0  0  0
 19 20  2  0  0  0  0
 21 19  1  0  0  0  0
 22 23  1  0  0  0  0
 23 21  1  0  0  0  0
 23 18  2  0  0  0  0
 24 25  1  0  0  0  0
M  END
>  <MODEL>
5

>  <REMARK>
 VINA RESULT:      -6.8      3.129      7.232
  Name = 
  2 active torsions:
  status: ('A' for Active; 'I' for Inactive)
    1  A    between atoms: C_6  and  C_23
    2  A    between atoms: C_16  and  O_18
                            x       y       z     vdW  Elec       q    Type
                         _______ _______ _______ _____ _____    ______ ____

>  <TORSDO>
F 2

$$$$
=
 OpenBabel11072411353D

 25 27  0  0  1  0  0  0  0  0999 V2000
  161.5670  209.3050  152.5910 C   0  0  0  0  0  2  0  0  0  0  0  0
  160.9740  208.0220  152.0170 C   0  0  1  0  0  3  0  0  0  0  0  0
  161.2240  207.7460  155.0850 C   0  0  0  0  0  2  0  0  0  0  0  0
  162.7850  204.9820  152.3830 O   0  0  0  0  0  0  0  0  0  0  0  0
  161.5190  207.7540  150.6420 C   0  0  0  0  0  0  0  0  0  0  0  0
  161.4640  206.8900  152.7920 N   0  0  0  0  0  0  0  0  0  0  0  0
  161.1710  207.2000  146.4360 O   0  0  0  0  0  0  0  0  0  0  0  0
  161.4500  207.1040  147.6580 C   0  0  0  0  0  0  0  0  0  0  0  0
  160.2110  208.8340  154.7480 C   0  0  0  0  0  2  0  0  0  0  0  0
  162.1740  205.9940  151.9480 C   0  0  0  0  0  0  0  0  0  0  0  0
  162.1080  208.2770  148.3200 C   0  0  0  0  0  2  0  0  0  0  0  0
  161.4620  208.6180  149.6260 C   0  0  0  0  0  3  0  0  0  0  0  0
  160.7440  209.8730  153.7530 C   0  0  1  0  0  3  0  0  0  0  0  0
  161.1340  205.8750  148.3410 N   0  0  0  0  0  0  0  0  0  0  0  0
  162.1760  206.4120  150.5190 C   0  0  1  0  0  3  0  0  0  0  0  0
  161.0390  206.5600  154.1470 C   0  0  0  0  0  2  0  0  0  0  0  0
  161.3710  205.5200  149.5760 C   0  0  0  0  0  0  0  0  0  0  0  0
  160.0610  201.4340  150.5010 O   0  0  0  0  0  0  0  0  0  0  0  0
  160.8750  204.1850  149.9780 C   0  0  0  0  0  0  0  0  0  0  0  0
  160.2020  204.0730  151.0390 O   0  0  0  0  0  0  0  0  0  0  0  0
  161.2230  203.0180  149.2200 N   0  0  0  0  0  2  0  0  0  0  0  0
  161.2500  200.5680  148.6390 C   0  0  0  0  0  1  0  0  0  0  0  0
  160.8040  201.6820  149.5150 C   0  0  0  0  0  0  0  0  0  0  0  0
  161.4960  210.8360  154.4290 O   0  0  0  0  0  0  0  0  0  0  0  0
  160.5890  211.4620  155.2850 C   0  0  0  0  0  1  0  0  0  0  0  0
  1 13  1  0  0  0  0
  2  1  1  1  0  0  0
  2  6  1  0  0  0  0
  5  2  1  0  0  0  0
  6 16  1  0  0  0  0
  7  8  2  0  0  0  0
  8 11  1  0  0  0  0
  8 14  1  0  0  0  0
  9  3  1  0  0  0  0
 10  4  2  0  0  0  0
 10  6  1  0  0  0  0
 11 12  1  0  0  0  0
 12  5  2  0  0  0  0
 13 24  1  1  0  0  0
 13  9  1  0  0  0  0
 14 17  2  0  0  0  0
 15 17  1  6  0  0  0
 15  5  1  0  0  0  0
 15 10  1  0  0  0  0
 16  3  1  0  0  0  0
 17 19  1  0  0  0  0
 19 20  2  0  0  0  0
 21 23  1  0  0  0  0
 21 19  1  0  0  0  0
 22 23  1  0  0  0  0
 23 18  2  0  0  0  0
 24 25  1  0  0  0  0
M  END
>  <MODEL>
6

>  <REMARK>
 VINA RESULT:      -6.7      2.142      4.753
  Name = 
  2 active torsions:
  status: ('A' for Active; 'I' for Inactive)
    1  A    between atoms: C_6  and  C_23
    2  A    between atoms: C_16  and  O_18
                            x       y       z     vdW  Elec       q    Type
                         _______ _______ _______ _____ _____    ______ ____

>  <TORSDO>
F 2

$$$$
=
 OpenBabel11072411353D

 25 27  0  0  1  0  0  0  0  0999 V2000
  161.5840  205.2930  149.9750 C   0  0  0  0  0  2  0  0  0  0  0  0
  160.8900  206.5530  150.4820 C   0  0  1  0  0  3  0  0  0  0  0  0
  161.6510  206.9330  147.5110 C   0  0  0  0  0  2  0  0  0  0  0  0
  162.7070  209.6110  150.5250 O   0  0  0  0  0  0  0  0  0  0  0  0
  161.1930  206.7770  151.9370 C   0  0  0  0  0  0  0  0  0  0  0  0
  161.4930  207.7130  149.8380 N   0  0  0  0  0  0  0  0  0  0  0  0
  160.1350  207.1890  156.0390 O   0  0  0  0  0  0  0  0  0  0  0  0
  160.6150  207.3270  154.8860 C   0  0  0  0  0  0  0  0  0  0  0  0
  160.6070  205.8300  147.6360 C   0  0  0  0  0  2  0  0  0  0  0  0
  162.0410  208.5830  150.8190 C   0  0  0  0  0  0  0  0  0  0  0  0
  161.3870  206.1790  154.3080 C   0  0  0  0  0  2  0  0  0  0  0  0
  160.9730  205.8790  152.9010 C   0  0  0  0  0  3  0  0  0  0  0  0
  160.9750  204.7610  148.6730 C   0  0  1  0  0  3  0  0  0  0  0  0
  160.4060  208.5760  154.1990 N   0  0  0  0  0  0  0  0  0  0  0  0
  161.8060  208.1170  152.2130 C   0  0  1  0  0  3  0  0  0  0  0  0
  161.2990  208.0860  148.4420 C   0  0  0  0  0  2  0  0  0  0  0  0
  160.8450  208.9740  153.0340 C   0  0  0  0  0  0  0  0  0  0  0  0
  159.2920  212.9310  151.9440 O   0  0  0  0  0  0  0  0  0  0  0  0
  160.4110  210.3190  152.5980 C   0  0  0  0  0  0  0  0  0  0  0  0
  161.1420  210.9730  151.8060 O   0  0  0  0  0  0  0  0  0  0  0  0
  159.2180  210.9110  153.1330 N   0  0  0  0  0  2  0  0  0  0  0  0
  157.4560  212.6850  153.4280 C   0  0  0  0  0  1  0  0  0  0  0  0
  158.7060  212.2010  152.7870 C   0  0  0  0  0  0  0  0  0  0  0  0
  161.8390  203.8240  148.1030 O   0  0  0  0  0  0  0  0  0  0  0  0
  161.1930  202.5970  148.2620 C   0  0  0  0  0  1  0  0  0  0  0  0
  2  1  1  6  0  0  0
  2  5  1  0  0  0  0
  3  9  1  0  0  0  0
  3 16  1  0  0  0  0
  4 10  2  0  0  0  0
  5 15  1  0  0  0  0
  5 12  2  0  0  0  0
  6  2  1  0  0  0  0
  6 10  1  0  0  0  0
  8  7  2  0  0  0  0
  9 13  1  0  0  0  0
 11  8  1  0  0  0  0
 12 11  1  0  0  0  0
 13 24  1  6  0  0  0
 13  1  1  0  0  0  0
 14  8  1  0  0  0  0
 15 10  1  6  0  0  0
 15 17  1  0  0  0  0
 16  6  1  0  0  0  0
 17 14  2  0  0  0  0
 18 23  2  0  0  0  0
 19 17  1  0  0  0  0
 19 21  1  0  0  0  0
 20 19  2  0  0  0  0
 23 21  1  0  0  0  0
 23 22  1  0  0  0  0
 24 25  1  0  0  0  0
M  END
>  <MODEL>
7

>  <REMARK>
 VINA RESULT:      -6.4      3.123      7.148
  Name = 
  2 active torsions:
  status: ('A' for Active; 'I' for Inactive)
    1  A    between atoms: C_6  and  C_23
    2  A    between atoms: C_16  and  O_18
                            x       y       z     vdW  Elec       q    Type
                         _______ _______ _______ _____ _____    ______ ____

>  <TORSDO>
F 2

$$$$
=
 OpenBabel11072411353D

 25 27  0  0  1  0  0  0  0  0999 V2000
  161.5690  206.0630  150.7930 C   0  0  0  0  0  2  0  0  0  0  0  0
  160.9060  207.3830  151.1730 C   0  0  1  0  0  3  0  0  0  0  0  0
  161.9440  207.5610  148.2670 C   0  0  0  0  0  2  0  0  0  0  0  0
  162.8840  210.3390  151.2300 O   0  0  0  0  0  0  0  0  0  0  0  0
  161.0930  207.6690  152.6370 C   0  0  0  0  0  0  0  0  0  0  0  0
  161.6290  208.4730  150.5300 N   0  0  0  0  0  0  0  0  0  0  0  0
  159.7070  208.3570  156.6020 O   0  0  0  0  0  0  0  0  0  0  0  0
  160.2930  208.4070  155.4910 C   0  0  0  0  0  0  0  0  0  0  0  0
  160.8320  206.5240  148.3520 C   0  0  0  0  0  2  0  0  0  0  0  0
  162.1380  209.3640  151.5120 C   0  0  0  0  0  0  0  0  0  0  0  0
  161.0450  207.1900  155.0420 C   0  0  0  0  0  2  0  0  0  0  0  0
  160.7400  206.8370  153.6200 C   0  0  0  0  0  3  0  0  0  0  0  0
  161.0460  205.4940  149.4700 C   0  0  1  0  0  3  0  0  0  0  0  0
  160.2170  209.6260  154.7280 N   0  0  0  0  0  0  0  0  0  0  0  0
  161.7560  208.9880  152.9010 C   0  0  1  0  0  3  0  0  0  0  0  0
  161.5790  208.7800  149.1050 C   0  0  0  0  0  2  0  0  0  0  0  0
  160.7770  209.9370  153.5890 C   0  0  0  0  0  0  0  0  0  0  0  0
  159.8870  213.7890  151.6840 O   0  0  0  0  0  0  0  0  0  0  0  0
  160.4600  211.2780  153.0500 C   0  0  0  0  0  0  0  0  0  0  0  0
  160.1200  212.1950  153.8470 O   0  0  0  0  0  0  0  0  0  0  0  0
  160.4570  211.5140  151.6360 N   0  0  0  0  0  2  0  0  0  0  0  0
  160.1950  212.8580  149.5220 C   0  0  0  0  0  1  0  0  0  0  0  0
  160.1650  212.7650  151.0050 C   0  0  0  0  0  0  0  0  0  0  0  0
  161.9020  204.4830  149.0270 O   0  0  0  0  0  0  0  0  0  0  0  0
  161.2910  203.9730  147.8800 C   0  0  0  0  0  1  0  0  0  0  0  0
  2  1  1  1  0  0  0
  2  5  1  0  0  0  0
  3  9  1  0  0  0  0
  3 16  1  0  0  0  0
  4 10  2  0  0  0  0
  5 15  1  0  0  0  0
  5 12  2  0  0  0  0
  6  2  1  0  0  0  0
  6 10  1  0  0  0  0
  8  7  2  0  0  0  0
  9 13  1  0  0  0  0
 11  8  1  0  0  0  0
 12 11  1  0  0  0  0
 13 24  1  6  0  0  0
 13  1  1  0  0  0  0
 14  8  1  0  0  0  0
 15 10  1  6  0  0  0
 15 17  1  0  0  0  0
 16  6  1  0  0  0  0
 17 14  2  0  0  0  0
 19 17  1  0  0  0  0
 19 20  2  0  0  0  0
 21 19  1  0  0  0  0
 22 23  1  0  0  0  0
 23 21  1  0  0  0  0
 23 18  2  0  0  0  0
 25 24  1  0  0  0  0
M  END
>  <MODEL>
8

>  <REMARK>
 VINA RESULT:      -5.8      3.355      7.312
  Name = 
  2 active torsions:
  status: ('A' for Active; 'I' for Inactive)
    1  A    between atoms: C_6  and  C_23
    2  A    between atoms: C_16  and  O_18
                            x       y       z     vdW  Elec       q    Type
                         _______ _______ _______ _____ _____    ______ ____

>  <TORSDO>
F 2

$$$$
=
 OpenBabel11072411353D

 25 27  0  0  1  0  0  0  0  0999 V2000
  161.3710  204.3210  150.6020 C   0  0  0  0  0  2  0  0  0  0  0  0
  161.0280  205.7270  150.1180 C   0  0  1  0  0  3  0  0  0  0  0  0
  161.7300  203.9540  147.6860 C   0  0  0  0  0  2  0  0  0  0  0  0
  163.5350  207.6310  148.4620 O   0  0  0  0  0  0  0  0  0  0  0  0
  161.4380  206.7540  151.1360 C   0  0  0  0  0  0  0  0  0  0  0  0
  161.8670  206.0480  148.9710 N   0  0  0  0  0  0  0  0  0  0  0  0
  160.6890  209.8960  153.9080 O   0  0  0  0  0  0  0  0  0  0  0  0
  161.1380  209.1610  152.9920 C   0  0  0  0  0  0  0  0  0  0  0  0
  160.4550  203.4420  148.3430 C   0  0  0  0  0  2  0  0  0  0  0  0
  162.6530  207.1980  149.2500 C   0  0  0  0  0  0  0  0  0  0  0  0
  161.5810  207.7770  153.3600 C   0  0  0  0  0  2  0  0  0  0  0  0
  161.0470  206.7480  152.4130 C   0  0  0  0  0  3  0  0  0  0  0  0
  160.5950  203.2300  149.8570 C   0  0  1  0  0  3  0  0  0  0  0  0
  161.2110  209.6950  151.6560 N   0  0  0  0  0  0  0  0  0  0  0  0
  162.3710  207.7900  150.5860 C   0  0  1  0  0  3  0  0  0  0  0  0
  161.7100  205.4770  147.6380 C   0  0  0  0  0  2  0  0  0  0  0  0
  161.6830  209.1540  150.5640 C   0  0  0  0  0  0  0  0  0  0  0  0
  161.4680  211.8260  147.0890 O   0  0  0  0  0  0  0  0  0  0  0  0
  161.5720  209.9670  149.3330 C   0  0  0  0  0  0  0  0  0  0  0  0
  161.2060  209.4120  148.2620 O   0  0  0  0  0  0  0  0  0  0  0  0
  161.9550  211.3490  149.3330 N   0  0  0  0  0  2  0  0  0  0  0  0
  162.3290  213.6400  148.3560 C   0  0  0  0  0  1  0  0  0  0  0  0
  161.8920  212.2280  148.2050 C   0  0  0  0  0  0  0  0  0  0  0  0
  161.1800  201.9870  150.1100 O   0  0  0  0  0  0  0  0  0  0  0  0
  160.3190  201.0590  149.5220 C   0  0  0  0  0  1  0  0  0  0  0  0
  2  1  1  1  0  0  0
  2  5  1  0  0  0  0
  3  9  1  0  0  0  0
  4 10  2  0  0  0  0
  5 12  2  0  0  0  0
  6 10  1  0  0  0  0
  6  2  1  0  0  0  0
  8 11  1  0  0  0  0
  8  7  2  0  0  0  0
  9 13  1  0  0  0  0
 12 11  1  0  0  0  0
 13 24  1  6  0  0  0
 13  1  1  0  0  0  0
 14  8  1  0  0  0  0
 15 10  1  6  0  0  0
 15  5  1  0  0  0  0
 16  3  1  0  0  0  0
 16  6  1  0  0  0  0
 17 15  1  0  0  0  0
 17 14  2  0  0  0  0
 18 23  2  0  0  0  0
 19 17  1  0  0  0  0
 20 19  2  0  0  0  0
 21 19  1  0  0  0  0
 23 22  1  0  0  0  0
 23 21  1  0  0  0  0
 25 24  1  0  0  0  0
M  END
>  <MODEL>
9

>  <REMARK>
 VINA RESULT:      -5.3      2.825      6.234
  Name = 
  2 active torsions:
  status: ('A' for Active; 'I' for Inactive)
    1  A    between atoms: C_6  and  C_23
    2  A    between atoms: C_16  and  O_18
                            x       y       z     vdW  Elec       q    Type
                         _______ _______ _______ _____ _____    ______ ____

>  <TORSDO>
F 2

$$$$
