=
 OpenBabel11072414383D

 26 29  0  0  1  0  0  0  0  0999 V2000
  160.8540  203.6260  151.5720 C   0  0  0  0  0  3  0  0  0  0  0  0
  160.8490  202.9960  149.2050 C   0  0  0  0  0  0  0  0  0  0  0  0
  160.8030  202.6420  150.5690 C   0  0  0  0  0  3  0  0  0  0  0  0
  161.0950  206.7630  149.7450 C   0  0  0  0  0  0  0  0  0  0  0  0
  161.1580  207.4510  148.6920 O   0  0  0  0  0  0  0  0  0  0  0  0
  161.1920  208.5640  151.5970 C   0  0  0  0  0  3  0  0  0  0  0  0
  161.1070  207.2590  151.1170 C   0  0  0  0  0  0  0  0  0  0  0  0
  161.0190  206.1760  151.9750 C   0  0  0  0  0  0  0  0  0  0  0  0
  161.0920  207.6470  153.8710 C   0  0  0  0  0  0  0  0  0  0  0  0
  161.1850  208.7510  152.9890 C   0  0  0  0  0  3  0  0  0  0  0  0
  160.9500  204.9570  151.1730 C   0  0  0  0  0  0  0  0  0  0  0  0
  160.9450  204.3510  148.8250 C   0  0  0  0  0  3  0  0  0  0  0  0
  161.0120  206.3400  153.3580 C   0  0  0  0  0  3  0  0  0  0  0  0
  160.9950  205.3100  149.8350 C   0  0  0  0  0  0  0  0  0  0  0  0
  160.1340  206.9030  156.0650 C   0  0  0  0  0  1  0  0  0  0  0  0
  161.1040  207.8390  155.3570 C   0  0  2  0  0  3  0  0  0  0  0  0
  161.7350  211.4160  156.5120 C   0  0  0  0  0  3  0  0  0  0  0  0
  160.4350  211.9310  156.5010 C   0  0  0  0  0  3  0  0  0  0  0  0
  160.8910  209.2710  155.7470 C   0  0  0  0  0  0  0  0  0  0  0  0
  159.3650  211.1190  156.1180 C   0  0  0  0  0  3  0  0  0  0  0  0
  159.5920  209.7920  155.7430 C   0  0  0  0  0  3  0  0  0  0  0  0
  161.9630  210.0890  156.1380 C   0  0  0  0  0  3  0  0  0  0  0  0
  160.7910  201.9200  148.1700 C   0  0  2  0  0  3  0  0  0  0  0  0
  161.5580  200.8260  148.5720 O   0  0  0  0  0  1  0  0  0  0  0  0
  160.6530  201.6250  146.0190 N   0  0  0  0  0  1  0  0  0  0  0  0
  161.2590  202.4010  146.9470 O   0  0  0  0  0  0  0  0  0  0  0  0
  2  3  1  0  0  0  0
  3  1  2  0  0  0  0
  4 14  1  0  0  0  0
  4  7  1  0  0  0  0
  5  4  2  0  0  0  0
  6 10  1  0  0  0  0
  7  6  2  0  0  0  0
  7  8  1  0  0  0  0
  8 13  2  0  0  0  0
  9 16  1  0  0  0  0
 10  9  2  0  0  0  0
 11  1  1  0  0  0  0
 11  8  1  0  0  0  0
 12  2  2  0  0  0  0
 12 14  1  0  0  0  0
 13  9  1  0  0  0  0
 14 11  2  0  0  0  0
 16 19  1  0  0  0  0
 16 15  1  1  0  0  0
 18 17  1  0  0  0  0
 19 22  1  0  0  0  0
 20 18  2  0  0  0  0
 21 19  2  0  0  0  0
 21 20  1  0  0  0  0
 22 17  2  0  0  0  0
 23 24  1  1  0  0  0
 23  2  1  0  0  0  0
 25 26  1  0  0  0  0
 26 23  1  0  0  0  0
M  END
>  <MODEL>
1

>  <REMARK>
 VINA RESULT:     -10.2      0.000      0.000
  Name = 
  4 active torsions:
  status: ('A' for Active; 'I' for Inactive)
    1  A    between atoms: C_4  and  C_20
    2  A    between atoms: C_8  and  C_17
    3  A    between atoms: C_15  and  C_17
    4  A    between atoms: C_20  and  O_22
                            x       y       z     vdW  Elec       q    Type
                         _______ _______ _______ _____ _____    ______ ____

>  <TORSDO>
F 4

$$$$
=
 OpenBabel11072414383D

 26 29  0  0  1  0  0  0  0  0999 V2000
  161.1790  206.0120  148.1890 C   0  0  0  0  0  3  0  0  0  0  0  0
  161.2710  203.7320  147.2970 C   0  0  0  0  0  0  0  0  0  0  0  0
  161.2160  205.1280  147.0970 C   0  0  0  0  0  3  0  0  0  0  0  0
  161.2630  203.8420  151.1080 C   0  0  0  0  0  0  0  0  0  0  0  0
  161.3070  202.7180  151.6760 O   0  0  0  0  0  0  0  0  0  0  0  0
  161.1910  205.4770  153.1090 C   0  0  0  0  0  3  0  0  0  0  0  0
  161.2100  205.1480  151.7570 C   0  0  0  0  0  0  0  0  0  0  0  0
  161.1730  206.1230  150.7740 C   0  0  0  0  0  0  0  0  0  0  0  0
  161.1000  207.8390  152.4510 C   0  0  0  0  0  0  0  0  0  0  0  0
  161.1340  206.8370  153.4530 C   0  0  0  0  0  3  0  0  0  0  0  0
  161.2000  205.4640  149.4700 C   0  0  0  0  0  0  0  0  0  0  0  0
  161.2910  203.2020  148.6030 C   0  0  0  0  0  3  0  0  0  0  0  0
  161.1150  207.4770  151.0930 C   0  0  0  0  0  3  0  0  0  0  0  0
  161.2540  204.0960  149.6710 C   0  0  0  0  0  0  0  0  0  0  0  0
  162.0440  210.1270  152.0570 C   0  0  0  0  0  1  0  0  0  0  0  0
  161.0190  209.2920  152.8110 C   0  0  2  0  0  3  0  0  0  0  0  0
  160.1460  209.3140  156.5210 C   0  0  0  0  0  3  0  0  0  0  0  0
  161.2490  209.9910  157.0480 C   0  0  0  0  0  3  0  0  0  0  0  0
  161.0880  209.5150  154.2910 C   0  0  0  0  0  0  0  0  0  0  0  0
  162.2680  210.4340  156.2010 C   0  0  0  0  0  3  0  0  0  0  0  0
  162.1870  210.1970  154.8260 C   0  0  0  0  0  3  0  0  0  0  0  0
  160.0640  209.0780  155.1460 C   0  0  0  0  0  3  0  0  0  0  0  0
  161.3100  202.8270  146.1090 C   0  0  2  0  0  3  0  0  0  0  0  0
  160.8180  203.4900  144.9840 O   0  0  0  0  0  1  0  0  0  0  0  0
  160.1300  201.2840  145.1270 N   0  0  0  0  0  1  0  0  0  0  0  0
  160.5510  201.6810  146.3510 O   0  0  0  0  0  0  0  0  0  0  0  0
  1 11  1  0  0  0  0
  2 12  2  0  0  0  0
  3  2  1  0  0  0  0
  3  1  2  0  0  0  0
  4  5  2  0  0  0  0
  4  7  1  0  0  0  0
  6 10  1  0  0  0  0
  7  6  2  0  0  0  0
  8 13  2  0  0  0  0
  8  7  1  0  0  0  0
  9 16  1  0  0  0  0
  9 10  2  0  0  0  0
 11 14  2  0  0  0  0
 11  8  1  0  0  0  0
 12 14  1  0  0  0  0
 13  9  1  0  0  0  0
 14  4  1  0  0  0  0
 16 15  1  6  0  0  0
 16 19  1  0  0  0  0
 17 18  1  0  0  0  0
 19 21  2  0  0  0  0
 19 22  1  0  0  0  0
 20 18  2  0  0  0  0
 21 20  1  0  0  0  0
 22 17  2  0  0  0  0
 23 24  1  6  0  0  0
 23 26  1  0  0  0  0
 23  2  1  0  0  0  0
 25 26  1  0  0  0  0
M  END
>  <MODEL>
2

>  <REMARK>
 VINA RESULT:     -10.0      1.658      2.921
  Name = 
  4 active torsions:
  status: ('A' for Active; 'I' for Inactive)
    1  A    between atoms: C_4  and  C_20
    2  A    between atoms: C_8  and  C_17
    3  A    between atoms: C_15  and  C_17
    4  A    between atoms: C_20  and  O_22
                            x       y       z     vdW  Elec       q    Type
                         _______ _______ _______ _____ _____    ______ ____

>  <TORSDO>
F 4

$$$$
=
 OpenBabel11072414383D

 26 29  0  0  1  0  0  0  0  0999 V2000
  161.3040  207.5810  149.1430 C   0  0  0  0  0  3  0  0  0  0  0  0
  161.2630  205.5230  147.8150 C   0  0  0  0  0  0  0  0  0  0  0  0
  161.3200  206.9300  147.8970 C   0  0  0  0  0  3  0  0  0  0  0  0
  161.1050  204.8770  151.5700 C   0  0  0  0  0  0  0  0  0  0  0  0
  161.0420  203.6640  151.9020 O   0  0  0  0  0  0  0  0  0  0  0  0
  161.0720  206.0850  153.8550 C   0  0  0  0  0  3  0  0  0  0  0  0
  161.1230  206.0300  152.4650 C   0  0  0  0  0  0  0  0  0  0  0  0
  161.1990  207.1790  151.6960 C   0  0  0  0  0  0  0  0  0  0  0  0
  161.1840  208.5310  153.6810 C   0  0  0  0  0  0  0  0  0  0  0  0
  161.1020  207.3510  154.4620 C   0  0  0  0  0  3  0  0  0  0  0  0
  161.2310  206.7910  150.2880 C   0  0  0  0  0  0  0  0  0  0  0  0
  161.1900  204.7450  148.9890 C   0  0  0  0  0  3  0  0  0  0  0  0
  161.2280  208.4440  152.2780 C   0  0  0  0  0  3  0  0  0  0  0  0
  161.1750  205.4100  150.2130 C   0  0  0  0  0  0  0  0  0  0  0  0
  161.8350  209.8610  155.7030 C   0  0  0  0  0  1  0  0  0  0  0  0
  161.1960  209.8850  154.3220 C   0  0  2  0  0  3  0  0  0  0  0  0
  158.1020  211.8630  153.3030 C   0  0  0  0  0  3  0  0  0  0  0  0
  157.3030  211.7100  154.4400 C   0  0  0  0  0  3  0  0  0  0  0  0
  159.8370  210.5170  154.3400 C   0  0  0  0  0  0  0  0  0  0  0  0
  157.7700  210.9650  155.5270 C   0  0  0  0  0  3  0  0  0  0  0  0
  159.0340  210.3720  155.4770 C   0  0  0  0  0  3  0  0  0  0  0  0
  159.3670  211.2710  153.2530 C   0  0  0  0  0  3  0  0  0  0  0  0
  161.2840  204.8700  146.4720 C   0  0  2  0  0  3  0  0  0  0  0  0
  161.4920  203.4970  146.6090 O   0  0  0  0  0  1  0  0  0  0  0  0
  163.3960  204.6950  145.9740 N   0  0  0  0  0  1  0  0  0  0  0  0
  162.2930  205.4230  145.6820 O   0  0  0  0  0  0  0  0  0  0  0  0
  1 11  1  0  0  0  0
  2  3  1  0  0  0  0
  2 12  2  0  0  0  0
  3  1  2  0  0  0  0
  4  5  2  0  0  0  0
  4  7  1  0  0  0  0
  6 10  1  0  0  0  0
  7  6  2  0  0  0  0
  8 13  2  0  0  0  0
  8  7  1  0  0  0  0
  9 16  1  0  0  0  0
  9 10  2  0  0  0  0
 11  8  1  0  0  0  0
 12 14  1  0  0  0  0
 13  9  1  0  0  0  0
 14 11  2  0  0  0  0
 14  4  1  0  0  0  0
 16 19  1  0  0  0  0
 16 15  1  1  0  0  0
 17 18  1  0  0  0  0
 18 20  2  0  0  0  0
 19 21  2  0  0  0  0
 21 20  1  0  0  0  0
 22 17  2  0  0  0  0
 22 19  1  0  0  0  0
 23 24  1  1  0  0  0
 23  2  1  0  0  0  0
 26 25  1  0  0  0  0
 26 23  1  0  0  0  0
M  END
>  <MODEL>
3

>  <REMARK>
 VINA RESULT:      -9.7      1.966      3.099
  Name = 
  4 active torsions:
  status: ('A' for Active; 'I' for Inactive)
    1  A    between atoms: C_4  and  C_20
    2  A    between atoms: C_8  and  C_17
    3  A    between atoms: C_15  and  C_17
    4  A    between atoms: C_20  and  O_22
                            x       y       z     vdW  Elec       q    Type
                         _______ _______ _______ _____ _____    ______ ____

>  <TORSDO>
F 4

$$$$
=
 OpenBabel11072414383D

 26 29  0  0  1  0  0  0  0  0999 V2000
  161.0200  207.0080  148.5500 C   0  0  0  0  0  3  0  0  0  0  0  0
  161.4430  204.8540  147.4650 C   0  0  0  0  0  0  0  0  0  0  0  0
  161.1730  206.2360  147.3860 C   0  0  0  0  0  3  0  0  0  0  0  0
  161.4820  204.6390  151.2720 C   0  0  0  0  0  0  0  0  0  0  0  0
  161.7060  203.4910  151.7410 O   0  0  0  0  0  0  0  0  0  0  0  0
  161.1950  206.0680  153.4070 C   0  0  0  0  0  3  0  0  0  0  0  0
  161.2420  205.8620  152.0310 C   0  0  0  0  0  0  0  0  0  0  0  0
  161.0400  206.8990  151.1350 C   0  0  0  0  0  0  0  0  0  0  0  0
  160.7340  208.4360  152.9540 C   0  0  0  0  0  0  0  0  0  0  0  0
  160.9380  207.3700  153.8660 C   0  0  0  0  0  3  0  0  0  0  0  0
  161.1460  206.3650  149.7800 C   0  0  0  0  0  0  0  0  0  0  0  0
  161.5660  204.2250  148.7210 C   0  0  0  0  0  3  0  0  0  0  0  0
  160.7820  208.1970  151.5690 C   0  0  0  0  0  3  0  0  0  0  0  0
  161.4110  205.0090  149.8620 C   0  0  0  0  0  0  0  0  0  0  0  0
  160.7670  210.8780  152.3900 C   0  0  0  0  0  1  0  0  0  0  0  0
  160.4400  209.8240  153.4380 C   0  0  2  0  0  3  0  0  0  0  0  0
  163.0410  210.6850  156.0860 C   0  0  0  0  0  3  0  0  0  0  0  0
  162.2670  210.6190  157.2490 C   0  0  0  0  0  3  0  0  0  0  0  0
  161.0910  210.1160  154.7560 C   0  0  0  0  0  0  0  0  0  0  0  0
  160.9090  210.2990  157.1670 C   0  0  0  0  0  3  0  0  0  0  0  0
  160.3230  210.0470  155.9240 C   0  0  0  0  0  3  0  0  0  0  0  0
  162.4560  210.4320  154.8430 C   0  0  0  0  0  3  0  0  0  0  0  0
  161.6000  204.0690  146.2050 C   0  0  2  0  0  3  0  0  0  0  0  0
  160.8660  204.6610  145.1760 O   0  0  0  0  0  1  0  0  0  0  0  0
  160.5780  202.4140  145.2270 N   0  0  0  0  0  1  0  0  0  0  0  0
  161.1680  202.7550  146.3960 O   0  0  0  0  0  0  0  0  0  0  0  0
  1 11  1  0  0  0  0
  2 12  2  0  0  0  0
  3  2  1  0  0  0  0
  3  1  2  0  0  0  0
  4  5  2  0  0  0  0
  4  7  1  0  0  0  0
  6 10  1  0  0  0  0
  7  6  2  0  0  0  0
  8 13  2  0  0  0  0
  8  7  1  0  0  0  0
  9 16  1  0  0  0  0
  9 10  2  0  0  0  0
 11 14  2  0  0  0  0
 11  8  1  0  0  0  0
 12 14  1  0  0  0  0
 13  9  1  0  0  0  0
 14  4  1  0  0  0  0
 16 15  1  6  0  0  0
 16 19  1  0  0  0  0
 17 18  1  0  0  0  0
 19 22  1  0  0  0  0
 19 21  2  0  0  0  0
 20 18  2  0  0  0  0
 21 20  1  0  0  0  0
 22 17  2  0  0  0  0
 23 24  1  6  0  0  0
 23 26  1  0  0  0  0
 23  2  1  0  0  0  0
 25 26  1  0  0  0  0
M  END
>  <MODEL>
4

>  <REMARK>
 VINA RESULT:      -9.5      1.593      2.801
  Name = 
  4 active torsions:
  status: ('A' for Active; 'I' for Inactive)
    1  A    between atoms: C_4  and  C_20
    2  A    between atoms: C_8  and  C_17
    3  A    between atoms: C_15  and  C_17
    4  A    between atoms: C_20  and  O_22
                            x       y       z     vdW  Elec       q    Type
                         _______ _______ _______ _____ _____    ______ ____

>  <TORSDO>
F 4

$$$$
=
 OpenBabel11072414383D

 26 29  0  0  1  0  0  0  0  0999 V2000
  161.2400  207.4030  148.9110 C   0  0  0  0  0  3  0  0  0  0  0  0
  161.1790  205.3930  147.5120 C   0  0  0  0  0  0  0  0  0  0  0  0
  161.2320  206.7970  147.6430 C   0  0  0  0  0  3  0  0  0  0  0  0
  161.1040  204.6140  151.2440 C   0  0  0  0  0  0  0  0  0  0  0  0
  161.0530  203.3900  151.5340 O   0  0  0  0  0  0  0  0  0  0  0  0
  161.1150  205.7400  153.5710 C   0  0  0  0  0  3  0  0  0  0  0  0
  161.1360  205.7340  152.1790 C   0  0  0  0  0  0  0  0  0  0  0  0
  161.1910  206.9110  151.4500 C   0  0  0  0  0  0  0  0  0  0  0  0
  161.2130  208.1910  153.4820 C   0  0  0  0  0  0  0  0  0  0  0  0
  161.1530  206.9840  154.2220 C   0  0  0  0  0  3  0  0  0  0  0  0
  161.1950  206.5730  150.0290 C   0  0  0  0  0  0  0  0  0  0  0  0
  161.1340  204.5740  148.6590 C   0  0  0  0  0  3  0  0  0  0  0  0
  161.2280  208.1540  152.0760 C   0  0  0  0  0  3  0  0  0  0  0  0
  161.1430  205.1950  149.9060 C   0  0  0  0  0  0  0  0  0  0  0  0
  160.9970  209.3980  155.6680 C   0  0  0  0  0  1  0  0  0  0  0  0
  161.2340  209.5220  154.1700 C   0  0  2  0  0  3  0  0  0  0  0  0
  159.8070  212.1820  151.8440 C   0  0  0  0  0  3  0  0  0  0  0  0
  158.5350  212.3610  152.3950 C   0  0  0  0  0  3  0  0  0  0  0  0
  160.3030  210.5060  153.5300 C   0  0  0  0  0  0  0  0  0  0  0  0
  158.1470  211.6180  153.5140 C   0  0  0  0  0  3  0  0  0  0  0  0
  159.0290  210.6940  154.0800 C   0  0  0  0  0  3  0  0  0  0  0  0
  160.6900  211.2590  152.4100 C   0  0  0  0  0  3  0  0  0  0  0  0
  161.1740  204.7880  146.1460 C   0  0  2  0  0  3  0  0  0  0  0  0
  161.5780  203.4540  146.2110 O   0  0  0  0  0  1  0  0  0  0  0  0
  161.3550  205.5820  144.1280 N   0  0  0  0  0  1  0  0  0  0  0  0
  162.0260  205.4990  145.3000 O   0  0  0  0  0  0  0  0  0  0  0  0
  1 11  1  0  0  0  0
  2  3  1  0  0  0  0
  2 12  2  0  0  0  0
  3  1  2  0  0  0  0
  4  5  2  0  0  0  0
  4  7  1  0  0  0  0
  6 10  1  0  0  0  0
  7  6  2  0  0  0  0
  8 13  2  0  0  0  0
  8  7  1  0  0  0  0
  9 16  1  0  0  0  0
  9 10  2  0  0  0  0
 11  8  1  0  0  0  0
 12 14  1  0  0  0  0
 13  9  1  0  0  0  0
 14 11  2  0  0  0  0
 14  4  1  0  0  0  0
 16 15  1  1  0  0  0
 17 18  2  0  0  0  0
 17 22  1  0  0  0  0
 18 20  1  0  0  0  0
 19 21  1  0  0  0  0
 19 16  1  0  0  0  0
 20 21  2  0  0  0  0
 22 19  2  0  0  0  0
 23 24  1  1  0  0  0
 23  2  1  0  0  0  0
 25 26  1  0  0  0  0
 26 23  1  0  0  0  0
M  END
>  <MODEL>
5

>  <REMARK>
 VINA RESULT:      -9.4      2.194      3.222
  Name = 
  4 active torsions:
  status: ('A' for Active; 'I' for Inactive)
    1  A    between atoms: C_4  and  C_20
    2  A    between atoms: C_8  and  C_17
    3  A    between atoms: C_15  and  C_17
    4  A    between atoms: C_20  and  O_22
                            x       y       z     vdW  Elec       q    Type
                         _______ _______ _______ _____ _____    ______ ____

>  <TORSDO>
F 4

$$$$
=
 OpenBabel11072414383D

 26 29  0  0  1  0  0  0  0  0999 V2000
  161.2650  207.6370  150.1160 C   0  0  0  0  0  3  0  0  0  0  0  0
  161.4490  209.1090  152.0650 C   0  0  0  0  0  0  0  0  0  0  0  0
  161.3860  208.9240  150.6680 C   0  0  0  0  0  3  0  0  0  0  0  0
  161.1840  205.4220  153.0010 C   0  0  0  0  0  0  0  0  0  0  0  0
  161.2060  205.1800  154.2370 O   0  0  0  0  0  0  0  0  0  0  0  0
  160.9640  203.0590  151.9740 C   0  0  0  0  0  3  0  0  0  0  0  0
  161.0690  204.4460  151.9210 C   0  0  0  0  0  0  0  0  0  0  0  0
  161.0820  205.1270  150.7150 C   0  0  0  0  0  0  0  0  0  0  0  0
  160.8780  203.0530  149.5210 C   0  0  0  0  0  0  0  0  0  0  0  0
  160.8690  202.3620  150.7590 C   0  0  0  0  0  3  0  0  0  0  0  0
  161.2070  206.5560  150.9920 C   0  0  0  0  0  0  0  0  0  0  0  0
  161.3880  207.9980  152.9320 C   0  0  0  0  0  3  0  0  0  0  0  0
  160.9900  204.4550  149.4980 C   0  0  0  0  0  3  0  0  0  0  0  0
  161.2680  206.7320  152.3640 C   0  0  0  0  0  0  0  0  0  0  0  0
  161.5400  200.9870  148.2670 C   0  0  0  0  0  1  0  0  0  0  0  0
  160.7970  202.3140  148.2210 C   0  0  2  0  0  3  0  0  0  0  0  0
  162.6940  204.8130  146.0570 C   0  0  0  0  0  3  0  0  0  0  0  0
  161.9590  204.7470  144.8700 C   0  0  0  0  0  3  0  0  0  0  0  0
  161.2240  203.1600  147.0590 C   0  0  0  0  0  0  0  0  0  0  0  0
  160.8560  203.8940  144.7770 C   0  0  0  0  0  3  0  0  0  0  0  0
  160.4890  203.1030  145.8700 C   0  0  0  0  0  3  0  0  0  0  0  0
  162.3270  204.0230  147.1500 C   0  0  0  0  0  3  0  0  0  0  0  0
  161.5770  210.4920  152.6120 C   0  0  2  0  0  3  0  0  0  0  0  0
  161.7140  210.4490  154.0000 O   0  0  0  0  0  1  0  0  0  0  0  0
  160.0800  211.8450  153.4280 N   0  0  0  0  0  1  0  0  0  0  0  0
  160.4570  211.2520  152.2710 O   0  0  0  0  0  0  0  0  0  0  0  0
  1  3  2  0  0  0  0
  1 11  1  0  0  0  0
  2 23  1  0  0  0  0
  2 12  2  0  0  0  0
  3  2  1  0  0  0  0
  4  5  2  0  0  0  0
  7  6  1  0  0  0  0
  7  4  1  0  0  0  0
  8 11  1  0  0  0  0
  8  7  2  0  0  0  0
  9 10  1  0  0  0  0
 10  6  2  0  0  0  0
 11 14  2  0  0  0  0
 13  9  2  0  0  0  0
 13  8  1  0  0  0  0
 14 12  1  0  0  0  0
 14  4  1  0  0  0  0
 16 15  1  1  0  0  0
 16  9  1  0  0  0  0
 17 22  1  0  0  0  0
 18 17  2  0  0  0  0
 19 22  2  0  0  0  0
 19 16  1  0  0  0  0
 20 18  1  0  0  0  0
 20 21  2  0  0  0  0
 21 19  1  0  0  0  0
 23 24  1  1  0  0  0
 26 23  1  0  0  0  0
 26 25  1  0  0  0  0
M  END
>  <MODEL>
6

>  <REMARK>
 VINA RESULT:      -9.4      3.993      8.553
  Name = 
  4 active torsions:
  status: ('A' for Active; 'I' for Inactive)
    1  A    between atoms: C_4  and  C_20
    2  A    between atoms: C_8  and  C_17
    3  A    between atoms: C_15  and  C_17
    4  A    between atoms: C_20  and  O_22
                            x       y       z     vdW  Elec       q    Type
                         _______ _______ _______ _____ _____    ______ ____

>  <TORSDO>
F 4

$$$$
=
 OpenBabel11072414383D

 26 29  0  0  1  0  0  0  0  0999 V2000
  161.6050  206.3990  148.3620 C   0  0  0  0  0  3  0  0  0  0  0  0
  161.4750  204.7050  146.5980 C   0  0  0  0  0  0  0  0  0  0  0  0
  161.6620  206.0430  147.0040 C   0  0  0  0  0  3  0  0  0  0  0  0
  160.9410  203.2660  150.0890 C   0  0  0  0  0  0  0  0  0  0  0  0
  160.7320  202.0250  150.1300 O   0  0  0  0  0  0  0  0  0  0  0  0
  160.8350  203.9330  152.5840 C   0  0  0  0  0  3  0  0  0  0  0  0
  160.9960  204.1820  151.2240 C   0  0  0  0  0  0  0  0  0  0  0  0
  161.2480  205.4560  150.7450 C   0  0  0  0  0  0  0  0  0  0  0  0
  161.2000  206.3270  152.9820 C   0  0  0  0  0  0  0  0  0  0  0  0
  160.9380  205.0210  153.4660 C   0  0  0  0  0  3  0  0  0  0  0  0
  161.3600  205.3890  149.2900 C   0  0  0  0  0  0  0  0  0  0  0  0
  161.2280  203.7000  147.5560 C   0  0  0  0  0  3  0  0  0  0  0  0
  161.3530  206.5490  151.6020 C   0  0  0  0  0  3  0  0  0  0  0  0
  161.1760  204.0740  148.8970 C   0  0  0  0  0  0  0  0  0  0  0  0
  160.3630  207.3480  155.1130 C   0  0  0  0  0  1  0  0  0  0  0  0
  161.2910  207.4950  153.9160 C   0  0  2  0  0  3  0  0  0  0  0  0
  159.8940  210.8870  152.8810 C   0  0  0  0  0  3  0  0  0  0  0  0
  160.7570  211.2200  151.8330 C   0  0  0  0  0  3  0  0  0  0  0  0
  161.0980  208.8030  153.2100 C   0  0  0  0  0  0  0  0  0  0  0  0
  161.7860  210.3470  151.4700 C   0  0  0  0  0  3  0  0  0  0  0  0
  161.9550  209.1410  152.1560 C   0  0  0  0  0  3  0  0  0  0  0  0
  160.0620  209.6810  153.5670 C   0  0  0  0  0  3  0  0  0  0  0  0
  161.5440  204.3670  145.1450 C   0  0  2  0  0  3  0  0  0  0  0  0
  161.0180  205.4130  144.3840 O   0  0  0  0  0  1  0  0  0  0  0  0
  159.7050  203.6040  144.2670 N   0  0  0  0  0  1  0  0  0  0  0  0
  160.8350  203.1930  144.8870 O   0  0  0  0  0  0  0  0  0  0  0  0
  1 11  1  0  0  0  0
  2  3  1  0  0  0  0
  2 12  2  0  0  0  0
  3  1  2  0  0  0  0
  4  5  2  0  0  0  0
  4  7  1  0  0  0  0
  6 10  1  0  0  0  0
  7  6  2  0  0  0  0
  8  7  1  0  0  0  0
  8 13  2  0  0  0  0
  9 10  2  0  0  0  0
  9 16  1  0  0  0  0
 11  8  1  0  0  0  0
 12 14  1  0  0  0  0
 13  9  1  0  0  0  0
 14 11  2  0  0  0  0
 14  4  1  0  0  0  0
 16 15  1  1  0  0  0
 17 22  1  0  0  0  0
 18 17  2  0  0  0  0
 19 22  2  0  0  0  0
 19 16  1  0  0  0  0
 20 18  1  0  0  0  0
 20 21  2  0  0  0  0
 21 19  1  0  0  0  0
 23 24  1  6  0  0  0
 23  2  1  0  0  0  0
 25 26  1  0  0  0  0
 26 23  1  0  0  0  0
M  END
>  <MODEL>
7

>  <REMARK>
 VINA RESULT:      -9.2      2.066      3.587
  Name = 
  4 active torsions:
  status: ('A' for Active; 'I' for Inactive)
    1  A    between atoms: C_4  and  C_20
    2  A    between atoms: C_8  and  C_17
    3  A    between atoms: C_15  and  C_17
    4  A    between atoms: C_20  and  O_22
                            x       y       z     vdW  Elec       q    Type
                         _______ _______ _______ _____ _____    ______ ____

>  <TORSDO>
F 4

$$$$
=
 OpenBabel11072414383D

 26 29  0  0  1  0  0  0  0  0999 V2000
  160.5070  210.2500  152.3580 C   0  0  0  0  0  3  0  0  0  0  0  0
  160.2870  211.2360  154.5890 C   0  0  0  0  0  0  0  0  0  0  0  0
  160.3130  211.3700  153.1850 C   0  0  0  0  0  3  0  0  0  0  0  0
  160.8450  207.4650  154.6750 C   0  0  0  0  0  0  0  0  0  0  0  0
  160.8830  206.9560  155.8260 O   0  0  0  0  0  0  0  0  0  0  0  0
  161.2050  205.4130  153.1440 C   0  0  0  0  0  3  0  0  0  0  0  0
  160.9910  206.7640  153.4030 C   0  0  0  0  0  0  0  0  0  0  0  0
  160.8860  207.6910  152.3790 C   0  0  0  0  0  0  0  0  0  0  0  0
  161.2010  205.9550  150.7500 C   0  0  0  0  0  0  0  0  0  0  0  0
  161.3110  205.0120  151.8020 C   0  0  0  0  0  3  0  0  0  0  0  0
  160.6710  209.0090  152.9700 C   0  0  0  0  0  0  0  0  0  0  0  0
  160.4550  209.9690  155.1850 C   0  0  0  0  0  3  0  0  0  0  0  0
  160.9900  207.3140  151.0420 C   0  0  0  0  0  3  0  0  0  0  0  0
  160.6460  208.8730  154.3470 C   0  0  0  0  0  0  0  0  0  0  0  0
  160.4600  206.3720  148.3920 C   0  0  0  0  0  1  0  0  0  0  0  0
  161.3320  205.5360  149.3170 C   0  0  2  0  0  3  0  0  0  0  0  0
  160.4380  201.8910  149.9830 C   0  0  0  0  0  3  0  0  0  0  0  0
  160.7300  201.3160  148.7430 C   0  0  0  0  0  3  0  0  0  0  0  0
  161.1040  204.0660  149.1320 C   0  0  0  0  0  0  0  0  0  0  0  0
  161.2120  202.1120  147.7000 C   0  0  0  0  0  3  0  0  0  0  0  0
  161.4000  203.4830  147.8940 C   0  0  0  0  0  3  0  0  0  0  0  0
  160.6260  203.2620  150.1790 C   0  0  0  0  0  3  0  0  0  0  0  0
  160.0770  212.4510  155.4320 C   0  0  2  0  0  3  0  0  0  0  0  0
  160.0660  212.1000  156.7830 O   0  0  0  0  0  1  0  0  0  0  0  0
  157.9590  212.5180  155.9250 N   0  0  0  0  0  1  0  0  0  0  0  0
  158.8730  213.0710  155.0950 O   0  0  0  0  0  0  0  0  0  0  0  0
  1 11  2  0  0  0  0
  1  3  1  0  0  0  0
  2 12  1  0  0  0  0
  2 23  1  0  0  0  0
  3  2  2  0  0  0  0
  4  5  2  0  0  0  0
  6  7  1  0  0  0  0
  7  4  1  0  0  0  0
  8 11  1  0  0  0  0
  8  7  2  0  0  0  0
  9 13  2  0  0  0  0
  9 10  1  0  0  0  0
 10  6  2  0  0  0  0
 11 14  1  0  0  0  0
 13  8  1  0  0  0  0
 14  4  1  0  0  0  0
 14 12  2  0  0  0  0
 16 15  1  6  0  0  0
 16  9  1  0  0  0  0
 17 22  1  0  0  0  0
 18 17  2  0  0  0  0
 19 16  1  0  0  0  0
 19 22  2  0  0  0  0
 20 21  2  0  0  0  0
 20 18  1  0  0  0  0
 21 19  1  0  0  0  0
 23 24  1  1  0  0  0
 26 23  1  0  0  0  0
 26 25  1  0  0  0  0
M  END
>  <MODEL>
8

>  <REMARK>
 VINA RESULT:      -9.2      4.363      8.935
  Name = 
  4 active torsions:
  status: ('A' for Active; 'I' for Inactive)
    1  A    between atoms: C_4  and  C_20
    2  A    between atoms: C_8  and  C_17
    3  A    between atoms: C_15  and  C_17
    4  A    between atoms: C_20  and  O_22
                            x       y       z     vdW  Elec       q    Type
                         _______ _______ _______ _____ _____    ______ ____

>  <TORSDO>
F 4

$$$$
=
 OpenBabel11072414383D

 26 29  0  0  1  0  0  0  0  0999 V2000
  160.9270  203.1960  149.6200 C   0  0  0  0  0  3  0  0  0  0  0  0
  161.0890  202.4380  147.2970 C   0  0  0  0  0  0  0  0  0  0  0  0
  160.8310  202.1750  148.6590 C   0  0  0  0  0  3  0  0  0  0  0  0
  161.8830  206.1440  147.7130 C   0  0  0  0  0  0  0  0  0  0  0  0
  162.1770  206.7510  146.6500 O   0  0  0  0  0  0  0  0  0  0  0  0
  162.0610  208.0120  149.4910 C   0  0  0  0  0  3  0  0  0  0  0  0
  161.8200  206.7120  149.0560 C   0  0  0  0  0  0  0  0  0  0  0  0
  161.4590  205.7080  149.9390 C   0  0  0  0  0  0  0  0  0  0  0  0
  161.5550  207.2580  151.7710 C   0  0  0  0  0  0  0  0  0  0  0  0
  161.9270  208.2800  150.8630 C   0  0  0  0  0  3  0  0  0  0  0  0
  161.2840  204.4700  149.1830 C   0  0  0  0  0  0  0  0  0  0  0  0
  161.4480  203.7360  146.8790 C   0  0  0  0  0  3  0  0  0  0  0  0
  161.3220  205.9520  151.3040 C   0  0  0  0  0  3  0  0  0  0  0  0
  161.5380  204.7330  147.8480 C   0  0  0  0  0  0  0  0  0  0  0  0
  160.6600  206.4380  153.9640 C   0  0  0  0  0  1  0  0  0  0  0  0
  161.4290  207.5330  153.2380 C   0  0  2  0  0  3  0  0  0  0  0  0
  159.6060  210.8550  152.8350 C   0  0  0  0  0  3  0  0  0  0  0  0
  159.8710  211.4550  154.0690 C   0  0  0  0  0  3  0  0  0  0  0  0
  160.8670  208.8950  153.5150 C   0  0  0  0  0  0  0  0  0  0  0  0
  160.6360  210.7790  155.0240 C   0  0  0  0  0  3  0  0  0  0  0  0
  161.1340  209.5030  154.7470 C   0  0  0  0  0  3  0  0  0  0  0  0
  160.1040  209.5800  152.5560 C   0  0  0  0  0  3  0  0  0  0  0  0
  160.9740  201.3260  146.3070 C   0  0  2  0  0  3  0  0  0  0  0  0
  159.7050  201.3300  145.7250 O   0  0  0  0  0  1  0  0  0  0  0  0
  161.2180  199.1980  145.9200 N   0  0  0  0  0  1  0  0  0  0  0  0
  161.2030  200.0980  146.9300 O   0  0  0  0  0  0  0  0  0  0  0  0
  2  3  1  0  0  0  0
  3  1  2  0  0  0  0
  4 14  1  0  0  0  0
  4  7  1  0  0  0  0
  5  4  2  0  0  0  0
  6 10  1  0  0  0  0
  7  6  2  0  0  0  0
  7  8  1  0  0  0  0
  8 13  2  0  0  0  0
  9 16  1  0  0  0  0
 10  9  2  0  0  0  0
 11  1  1  0  0  0  0
 11  8  1  0  0  0  0
 12  2  2  0  0  0  0
 12 14  1  0  0  0  0
 13  9  1  0  0  0  0
 14 11  2  0  0  0  0
 16 19  1  0  0  0  0
 16 15  1  6  0  0  0
 17 18  1  0  0  0  0
 18 20  2  0  0  0  0
 19 21  2  0  0  0  0
 21 20  1  0  0  0  0
 22 17  2  0  0  0  0
 22 19  1  0  0  0  0
 23 24  1  1  0  0  0
 23 26  1  0  0  0  0
 23  2  1  0  0  0  0
 25 26  1  0  0  0  0
M  END
>  <MODEL>
9

>  <REMARK>
 VINA RESULT:      -9.1      1.545      2.444
  Name = 
  4 active torsions:
  status: ('A' for Active; 'I' for Inactive)
    1  A    between atoms: C_4  and  C_20
    2  A    between atoms: C_8  and  C_17
    3  A    between atoms: C_15  and  C_17
    4  A    between atoms: C_20  and  O_22
                            x       y       z     vdW  Elec       q    Type
                         _______ _______ _______ _____ _____    ______ ____

>  <TORSDO>
F 4

$$$$
