=
 OpenBabel11072415203D

 63 69  0  0  1  0  0  0  0  0999 V2000
  161.5660  200.9550  148.9860 O   0  0  0  0  0  0  0  0  0  0  0  0
  162.1010  200.7180  147.8010 C   0  0  0  0  0  0  0  0  0  0  0  0
  161.8990  207.6590  151.4640 C   0  0  2  0  0  3  0  0  0  0  0  0
  163.3350  206.4710  149.5130 C   0  0  2  0  0  3  0  0  0  0  0  0
  160.2960  205.9600  153.3420 C   0  0  0  0  0  1  0  0  0  0  0  0
  161.8840  201.7100  146.9000 N   0  0  0  0  0  0  0  0  0  0  0  0
  160.1840  202.3710  151.2160 C   0  0  0  0  0  0  0  0  0  0  0  0
  162.4910  206.3930  147.1110 C   0  0  0  0  0  2  0  0  0  0  0  0
  160.9660  208.8030  151.3220 C   0  0  2  0  0  3  0  0  0  0  0  0
  159.9050  204.4910  148.1350 O   0  0  0  0  0  0  0  0  0  0  0  0
  163.3860  205.7510  148.1620 C   0  0  0  0  0  2  0  0  0  0  0  0
  161.5930  208.2200  150.0590 C   0  0  1  0  0  0  0  0  0  0  0  0
  162.5690  203.3270  152.4620 O   0  0  0  0  0  0  0  0  0  0  0  0
  161.7080  206.1660  151.2650 C   0  0  2  0  0  3  0  0  0  0  0  0
  161.1520  202.5830  147.6130 C   0  0  0  0  0  0  0  0  0  0  0  0
  161.5450  205.4710  152.6210 C   0  0  2  0  0  3  0  0  0  0  0  0
  160.6540  203.7530  147.2030 C   0  0  0  0  0  0  0  0  0  0  0  0
  160.2830  203.3380  152.2130 O   0  0  0  0  0  0  0  0  0  0  0  0
  162.8550  205.6470  150.5890 O   0  0  0  0  0  0  0  0  0  0  0  0
  160.9030  204.2730  145.8930 N   0  0  0  0  0  0  0  0  0  0  0  0
  160.2980  202.7990  149.8130 C   0  0  0  0  0  0  0  0  0  0  0  0
  162.8210  205.8610  145.7220 C   0  0  2  0  0  3  0  0  0  0  0  0
  162.3160  206.7320  144.7570 O   0  0  0  0  0  1  0  0  0  0  0  0
  162.9960  208.0000  149.5130 C   0  0  0  0  0  2  0  0  0  0  0  0
  159.9790  201.1010  151.5460 C   0  0  0  0  0  2  0  0  0  0  0  0
  160.9700  202.1180  148.8800 C   0  0  0  0  0  0  0  0  0  0  0  0
  160.4810  207.5760  149.2230 C   0  0  0  0  0  1  0  0  0  0  0  0
  159.7470  204.0300  149.4210 O   0  0  0  0  0  0  0  0  0  0  0  0
  162.2960  204.4410  145.4700 C   0  0  0  0  0  2  0  0  0  0  0  0
  161.4950  203.9870  152.4550 C   0  0  0  0  0  0  0  0  0  0  0  0
  159.8470  205.0240  145.2260 C   0  0  0  0  0  2  0  0  0  0  0  0
  159.7030  206.2750  145.8290 O   0  0  0  0  0  1  0  0  0  0  0  0
  161.6710  210.1090  151.6790 C   0  0  2  0  0  3  0  0  0  0  0  0
  162.4280  210.6430  153.9620 O   0  0  0  0  0  1  0  0  0  0  0  0
  161.3380  210.6430  153.0780 C   0  0  1  0  0  3  0  0  0  0  0  0
  160.6220  211.8680  153.0140 O   0  0  0  0  0  0  0  0  0  0  0  0
  158.3660  211.0690  156.8860 O   0  0  0  0  0  1  0  0  0  0  0  0
  159.1570  213.4340  154.1520 C   0  0  1  0  0  3  0  0  0  0  0  0
  157.9870  213.2850  155.5070 P   0  0  2  0  0  0  0  0  0  0  0  0
  158.5600  213.9010  156.7630 O   0  0  0  0  0  0  0  0  0  0  0  0
  156.6350  210.9110  155.2600 C   0  0  0  0  0  1  0  0  0  0  0  0
  157.9960  211.4780  155.6060 C   0  0  2  0  0  0  0  0  0  0  0  0
  156.3810  214.0300  155.1130 C   0  0  0  0  0  1  0  0  0  0  0  0
  159.9690  212.1450  154.2310 C   0  0  1  0  0  3  0  0  0  0  0  0
  159.0240  210.9950  154.5880 C   0  0  0  0  0  2  0  0  0  0  0  0
  158.4620  213.5060  152.9410 O   0  0  0  0  0  1  0  0  0  0  0  0
  161.3680  211.0910  150.7280 O   0  0  0  0  0  0  0  0  0  0  0  0
  162.5130  211.2010  149.9310 C   0  0  0  0  0  2  0  0  0  0  0  0
  162.1250  211.5290  148.4990 C   0  0  0  0  0  2  0  0  0  0  0  0
  161.4470  212.8860  148.4760 C   0  0  0  0  0  2  0  0  0  0  0  0
  160.1730  212.7720  147.9210 O   0  0  0  0  0  0  0  0  0  0  0  0
  160.2700  213.5910  146.4400 P   0  0  0  0  0  0  0  0  0  0  0  0
  161.5160  213.4760  145.5920 O   0  0  0  0  0  0  0  0  0  0  0  0
  159.1110  214.4380  145.9610 O   0  0  0  0  0  0  0  0  0  0  0  0
  162.8420  199.4720  147.4690 C   0  0  0  0  0  2  0  0  0  0  0  0
  161.8760  198.4400  146.9150 C   0  0  0  0  0  2  0  0  0  0  0  0
  161.4220  198.2510  144.5840 O   0  0  0  0  0  0  0  0  0  0  0  0
  160.6000  200.1750  145.6140 N   0  0  0  0  0  2  0  0  0  0  0  0
  161.2870  198.9260  145.6370 C   0  0  0  0  0  0  0  0  0  0  0  0
  159.0370  202.6120  143.6810 O   0  0  0  0  0  1  0  0  0  0  0  0
  159.2420  201.8010  144.7980 C   0  0  2  0  0  3  0  0  0  0  0  0
  160.0290  200.6710  144.4330 N   0  0  0  0  0  0  0  0  0  0  0  0
  158.6030  200.5500  144.5910 N   0  0  0  0  0  2  0  0  0  0  0  0
  2  1  1  0  0  0  0
  4 19  1  0  0  0  0
  6 15  1  0  0  0  0
  6  2  2  0  0  0  0
  7 25  2  0  0  0  0
  7 18  1  0  0  0  0
  8 11  1  0  0  0  0
  9  3  1  0  0  0  0
  9 33  1  0  0  0  0
 10 28  1  0  0  0  0
 11  4  1  0  0  0  0
 12  9  1  0  0  0  0
 12  3  1  0  0  0  0
 14  3  1  0  0  0  0
 14 16  1  0  0  0  0
 15 26  1  0  0  0  0
 16  5  1  0  0  0  0
 17 15  2  0  0  0  0
 17 10  1  0  0  0  0
 18 30  1  0  0  0  0
 19 14  1  0  0  0  0
 20 17  1  0  0  0  0
 21  7  1  0  0  0  0
 22  8  1  0  0  0  0
 23 22  1  0  0  0  0
 24  4  1  0  0  0  0
 24 12  1  0  0  0  0
 26  1  1  0  0  0  0
 26 21  2  0  0  0  0
 27 12  1  0  0  0  0
 28 21  1  0  0  0  0
 29 22  1  0  0  0  0
 29 20  1  0  0  0  0
 30 13  2  0  0  0  0
 30 16  1  0  0  0  0
 31 32  1  0  0  0  0
 31 20  1  0  0  0  0
 33 35  1  0  0  0  0
 35 34  1  0  0  0  0
 36 35  1  0  0  0  0
 36 44  1  0  0  0  0
 38 44  1  0  0  0  0
 38 39  1  0  0  0  0
 39 42  1  0  0  0  0
 39 40  2  0  0  0  0
 41 42  1  0  0  0  0
 42 37  1  0  0  0  0
 43 39  1  0  0  0  0
 44 45  1  0  0  0  0
 45 42  1  0  0  0  0
 46 38  1  0  0  0  0
 47 33  1  0  0  0  0
 48 47  1  0  0  0  0
 49 48  1  0  0  0  0
 50 49  1  0  0  0  0
 51 50  1  0  0  0  0
 52 51  1  0  0  0  0
 53 52  2  0  0  0  0
 54 52  2  0  0  0  0
 55  2  1  0  0  0  0
 56 55  1  0  0  0  0
 57 59  2  0  0  0  0
 58 59  1  0  0  0  0
 59 56  1  0  0  0  0
 60 61  1  0  0  0  0
 62 63  1  0  0  0  0
 62 61  1  0  0  0  0
 62 58  1  0  0  0  0
 63 61  1  0  0  0  0
M  END
>  <MODEL>
1

>  <REMARK>
 VINA RESULT:       8.2      0.000      0.000
  Name = 
  15 active torsions:
  status: ('A' for Active; 'I' for Inactive)
    1  A    between atoms: C_3  and  C_41
    2  A    between atoms: C_10  and  C_11
    3  A    between atoms: C_10  and  C_21
    4  A    between atoms: C_10  and  O_62
    5  A    between atoms: C_11  and  O_63
    6  A    between atoms: C_13  and  C_41
    7  A    between atoms: C_13  and  C_44
    8  A    between atoms: N_14  and  N_28
    9  A    between atoms: O_18  and  C_22
   10  A    between atoms: O_18  and  P_30
   11  A    between atoms: C_22  and  C_39
   12  A    between atoms: C_39  and  C_52
   13  A    between atoms: C_43  and  O_63
   14  A    between atoms: N_46  and  C_53
   15  A    between atoms: C_52  and  O_62
                            x       y       z     vdW  Elec       q    Type
                         _______ _______ _______ _____ _____    ______ ____

>  <TORSDO>
F 15

$$$$
=
 OpenBabel11072415203D

 63 69  0  0  1  0  0  0  0  0999 V2000
  161.8960  211.5150  154.0550 O   0  0  0  0  0  0  0  0  0  0  0  0
  162.2830  210.8590  155.1350 C   0  0  0  0  0  0  0  0  0  0  0  0
  161.6280  207.8640  147.9080 C   0  0  2  0  0  3  0  0  0  0  0  0
  162.9220  207.2800  150.2030 C   0  0  2  0  0  3  0  0  0  0  0  0
  160.5690  210.6360  147.4910 C   0  0  0  0  0  1  0  0  0  0  0  0
  161.8000  209.5930  155.2020 N   0  0  0  0  0  0  0  0  0  0  0  0
  160.6620  212.0860  151.4020 C   0  0  0  0  0  0  0  0  0  0  0  0
  161.7620  206.0310  152.0950 C   0  0  0  0  0  2  0  0  0  0  0  0
  160.5310  207.0910  147.2750 C   0  0  2  0  0  3  0  0  0  0  0  0
  159.6450  208.6300  152.4450 O   0  0  0  0  0  0  0  0  0  0  0  0
  162.8800  206.9880  151.7050 C   0  0  0  0  0  2  0  0  0  0  0  0
  161.0460  206.6330  148.6360 C   0  0  1  0  0  0  0  0  0  0  0  0
  163.0420  211.6460  149.8860 O   0  0  0  0  0  0  0  0  0  0  0  0
  161.6240  208.9180  149.0010 C   0  0  2  0  0  3  0  0  0  0  0  0
  161.0620  209.5130  154.0820 C   0  0  0  0  0  0  0  0  0  0  0  0
  161.7580  210.3140  148.3860 C   0  0  2  0  0  3  0  0  0  0  0  0
  160.3500  208.4690  153.6490 C   0  0  0  0  0  0  0  0  0  0  0  0
  160.7660  211.9430  150.0210 O   0  0  0  0  0  0  0  0  0  0  0  0
  162.7240  208.6660  149.8790 O   0  0  0  0  0  0  0  0  0  0  0  0
  160.3310  207.2160  154.3420 N   0  0  0  0  0  0  0  0  0  0  0  0
  160.5120  210.8740  152.2210 C   0  0  0  0  0  0  0  0  0  0  0  0
  161.9600  205.5160  153.5140 C   0  0  2  0  0  3  0  0  0  0  0  0
  161.2030  204.3590  153.7010 O   0  0  0  0  0  1  0  0  0  0  0  0
  162.3730  206.1840  149.2300 C   0  0  0  0  0  2  0  0  0  0  0  0
  160.6890  213.2990  151.9440 C   0  0  0  0  0  2  0  0  0  0  0  0
  161.1330  210.6840  153.3900 C   0  0  0  0  0  0  0  0  0  0  0  0
  159.9290  206.8330  149.6660 C   0  0  0  0  0  1  0  0  0  0  0  0
  159.7410  209.8050  151.7350 O   0  0  0  0  0  0  0  0  0  0  0  0
  161.6110  206.5480  154.5950 C   0  0  0  0  0  2  0  0  0  0  0  0
  161.8960  211.3530  149.4510 C   0  0  0  0  0  0  0  0  0  0  0  0
  159.0940  206.4450  154.3610 C   0  0  0  0  0  2  0  0  0  0  0  0
  158.6020  206.3750  155.6650 O   0  0  0  0  0  1  0  0  0  0  0  0
  161.0880  206.1740  146.1890 C   0  0  2  0  0  3  0  0  0  0  0  0
  160.0730  204.3190  144.9250 O   0  0  0  0  0  1  0  0  0  0  0  0
  160.4910  204.7620  146.1900 C   0  0  1  0  0  3  0  0  0  0  0  0
  161.3130  203.8470  146.9010 O   0  0  0  0  0  0  0  0  0  0  0  0
  159.8190  203.3760  151.1750 O   0  0  0  0  0  1  0  0  0  0  0  0
  160.6670  201.7580  147.9560 C   0  0  1  0  0  3  0  0  0  0  0  0
  160.3010  201.2800  149.6490 P   0  0  2  0  0  0  0  0  0  0  0  0
  158.8120  201.0860  149.8270 O   0  0  0  0  0  0  0  0  0  0  0  0
  162.0480  202.5570  151.3340 C   0  0  0  0  0  1  0  0  0  0  0  0
  160.8560  202.8120  150.4340 C   0  0  2  0  0  0  0  0  0  0  0  0
  161.1970  199.7850  150.1500 C   0  0  0  0  0  1  0  0  0  0  0  0
  160.6270  203.2830  147.9940 C   0  0  1  0  0  3  0  0  0  0  0  0
  161.2610  203.7540  149.3050 C   0  0  0  0  0  2  0  0  0  0  0  0
  161.9440  201.3060  147.6090 O   0  0  0  0  0  1  0  0  0  0  0  0
  162.4800  206.0860  146.3080 O   0  0  0  0  0  0  0  0  0  0  0  0
  162.9470  205.8040  145.0200 C   0  0  0  0  0  2  0  0  0  0  0  0
  161.7840  205.7430  144.0440 C   0  0  0  0  0  2  0  0  0  0  0  0
  162.3290  205.8010  142.6300 C   0  0  0  0  0  2  0  0  0  0  0  0
  161.3170  206.1740  141.7460 O   0  0  0  0  0  0  0  0  0  0  0  0
  162.1120  207.0140  140.5070 P   0  0  0  0  0  0  0  0  0  0  0  0
  161.3270  207.9020  139.5690 O   0  0  0  0  0  0  0  0  0  0  0  0
  163.6110  206.8820  140.3360 O   0  0  0  0  0  0  0  0  0  0  0  0
  163.1380  211.4560  156.1960 C   0  0  0  0  0  2  0  0  0  0  0  0
  164.6010  211.2360  155.8530 C   0  0  0  0  0  2  0  0  0  0  0  0
  165.0200  213.1120  157.2610 O   0  0  0  0  0  0  0  0  0  0  0  0
  166.6160  212.7240  155.6040 N   0  0  0  0  0  2  0  0  0  0  0  0
  165.4110  212.4020  156.2990 C   0  0  0  0  0  0  0  0  0  0  0  0
  169.6230  214.4530  155.8840 O   0  0  0  0  0  1  0  0  0  0  0  0
  168.7620  213.3600  155.9810 C   0  0  2  0  0  3  0  0  0  0  0  0
  167.4100  213.8120  155.9900 N   0  0  0  0  0  0  0  0  0  0  0  0
  168.0610  213.4240  157.2140 N   0  0  0  0  0  2  0  0  0  0  0  0
  1  2  1  0  0  0  0
  2  6  2  0  0  0  0
  2 55  1  0  0  0  0
  3 12  1  0  0  0  0
  3 14  1  0  0  0  0
  4 11  1  0  0  0  0
  5 16  1  0  0  0  0
  7 25  2  0  0  0  0
  7 21  1  0  0  0  0
  8 22  1  0  0  0  0
  9  3  1  0  0  0  0
  9 12  1  0  0  0  0
 10 17  1  0  0  0  0
 11  8  1  0  0  0  0
 12 24  1  0  0  0  0
 12 27  1  0  0  0  0
 14 19  1  0  0  0  0
 15  6  1  0  0  0  0
 16 14  1  0  0  0  0
 16 30  1  0  0  0  0
 17 15  2  0  0  0  0
 17 20  1  0  0  0  0
 18  7  1  0  0  0  0
 19  4  1  0  0  0  0
 20 31  1  0  0  0  0
 20 29  1  0  0  0  0
 21 26  2  0  0  0  0
 22 23  1  0  0  0  0
 22 29  1  0  0  0  0
 24  4  1  0  0  0  0
 26  1  1  0  0  0  0
 26 15  1  0  0  0  0
 28 21  1  0  0  0  0
 28 10  1  0  0  0  0
 30 13  2  0  0  0  0
 30 18  1  0  0  0  0
 31 32  1  0  0  0  0
 33 35  1  0  0  0  0
 33 47  1  0  0  0  0
 33  9  1  0  0  0  0
 34 35  1  0  0  0  0
 35 36  1  0  0  0  0
 36 44  1  0  0  0  0
 38 44  1  0  0  0  0
 38 39  1  0  0  0  0
 39 40  2  0  0  0  0
 39 43  1  0  0  0  0
 39 42  1  0  0  0  0
 42 37  1  0  0  0  0
 42 41  1  0  0  0  0
 44 45  1  0  0  0  0
 45 42  1  0  0  0  0
 46 38  1  0  0  0  0
 48 47  1  0  0  0  0
 49 48  1  0  0  0  0
 50 49  1  0  0  0  0
 51 50  1  0  0  0  0
 52 51  1  0  0  0  0
 53 52  2  0  0  0  0
 54 52  2  0  0  0  0
 56 55  1  0  0  0  0
 56 59  1  0  0  0  0
 58 62  1  0  0  0  0
 58 59  1  0  0  0  0
 59 57  2  0  0  0  0
 60 61  1  0  0  0  0
 61 62  1  0  0  0  0
 61 63  1  0  0  0  0
 62 63  1  0  0  0  0
M  END
>  <MODEL>
2

>  <REMARK>
 VINA RESULT:       8.4      5.033     10.877
  Name = 
  15 active torsions:
  status: ('A' for Active; 'I' for Inactive)
    1  A    between atoms: C_3  and  C_41
    2  A    between atoms: C_10  and  C_11
    3  A    between atoms: C_10  and  C_21
    4  A    between atoms: C_10  and  O_62
    5  A    between atoms: C_11  and  O_63
    6  A    between atoms: C_13  and  C_41
    7  A    between atoms: C_13  and  C_44
    8  A    between atoms: N_14  and  N_28
    9  A    between atoms: O_18  and  C_22
   10  A    between atoms: O_18  and  P_30
   11  A    between atoms: C_22  and  C_39
   12  A    between atoms: C_39  and  C_52
   13  A    between atoms: C_43  and  O_63
   14  A    between atoms: N_46  and  C_53
   15  A    between atoms: C_52  and  O_62
                            x       y       z     vdW  Elec       q    Type
                         _______ _______ _______ _____ _____    ______ ____

>  <TORSDO>
F 15

$$$$
=
 OpenBabel11072415203D

 63 69  0  0  1  0  0  0  0  0999 V2000
  162.1010  211.3510  153.8080 O   0  0  0  0  0  0  0  0  0  0  0  0
  162.4980  210.7210  154.9000 C   0  0  0  0  0  0  0  0  0  0  0  0
  161.5770  207.5080  147.7960 C   0  0  2  0  0  3  0  0  0  0  0  0
  162.9150  206.9650  150.0760 C   0  0  2  0  0  3  0  0  0  0  0  0
  160.5810  210.2930  147.3120 C   0  0  0  0  0  1  0  0  0  0  0  0
  161.9840  209.4700  155.0210 N   0  0  0  0  0  0  0  0  0  0  0  0
  160.8140  211.8680  151.1690 C   0  0  0  0  0  0  0  0  0  0  0  0
  161.7710  205.8110  152.0370 C   0  0  0  0  0  2  0  0  0  0  0  0
  160.4440  206.7450  147.2170 C   0  0  2  0  0  3  0  0  0  0  0  0
  159.7340  208.4770  152.3520 O   0  0  0  0  0  0  0  0  0  0  0  0
  162.9040  206.7230  151.5880 C   0  0  0  0  0  2  0  0  0  0  0  0
  160.9830  206.3180  148.5800 C   0  0  1  0  0  0  0  0  0  0  0  0
  163.1410  211.3130  149.6090 O   0  0  0  0  0  0  0  0  0  0  0  0
  161.6290  208.5970  148.8530 C   0  0  2  0  0  3  0  0  0  0  0  0
  161.2150  209.3740  153.9230 C   0  0  0  0  0  0  0  0  0  0  0  0
  161.7850  209.9680  148.1870 C   0  0  2  0  0  3  0  0  0  0  0  0
  160.4650  208.3360  153.5440 C   0  0  0  0  0  0  0  0  0  0  0  0
  160.8780  211.6760  149.7910 O   0  0  0  0  0  0  0  0  0  0  0  0
  162.7450  208.3450  149.7110 O   0  0  0  0  0  0  0  0  0  0  0  0
  160.4310  207.1080  154.2780 N   0  0  0  0  0  0  0  0  0  0  0  0
  160.6530  210.6870  152.0320 C   0  0  0  0  0  0  0  0  0  0  0  0
  161.9920  205.3370  153.4680 C   0  0  2  0  0  3  0  0  0  0  0  0
  161.2100  204.2080  153.7120 O   0  0  0  0  0  1  0  0  0  0  0  0
  162.3120  205.8520  149.1540 C   0  0  0  0  0  2  0  0  0  0  0  0
  160.8870  213.0960  151.6690 C   0  0  0  0  0  2  0  0  0  0  0  0
  161.2990  210.5190  153.1900 C   0  0  0  0  0  0  0  0  0  0  0  0
  159.8970  206.5810  149.6290 C   0  0  0  0  0  1  0  0  0  0  0  0
  159.8420  209.6240  151.6020 O   0  0  0  0  0  0  0  0  0  0  0  0
  161.6990  206.4140  154.5220 C   0  0  0  0  0  2  0  0  0  0  0  0
  161.9770  211.0380  149.2130 C   0  0  0  0  0  0  0  0  0  0  0  0
  159.1750  206.3720  154.3540 C   0  0  0  0  0  2  0  0  0  0  0  0
  158.6290  206.5000  155.6330 O   0  0  0  0  0  1  0  0  0  0  0  0
  160.9490  205.7780  146.1490 C   0  0  2  0  0  3  0  0  0  0  0  0
  163.3700  206.2350  146.2010 O   0  0  0  0  0  1  0  0  0  0  0  0
  162.3740  205.2630  146.3880 C   0  0  1  0  0  3  0  0  0  0  0  0
  162.4710  204.5370  147.6050 O   0  0  0  0  0  0  0  0  0  0  0  0
  161.1690  200.7530  145.4340 O   0  0  0  0  0  1  0  0  0  0  0  0
  161.4670  202.5820  148.6380 C   0  0  1  0  0  3  0  0  0  0  0  0
  160.6550  201.1140  147.9960 P   0  0  2  0  0  0  0  0  0  0  0  0
  161.5670  199.9140  148.1210 O   0  0  0  0  0  0  0  0  0  0  0  0
  159.0870  201.8230  145.8600 C   0  0  0  0  0  1  0  0  0  0  0  0
  160.5350  201.6640  146.2760 C   0  0  2  0  0  0  0  0  0  0  0  0
  159.0700  200.7900  148.8170 C   0  0  0  0  0  1  0  0  0  0  0  0
  162.1610  203.1760  147.4160 C   0  0  1  0  0  3  0  0  0  0  0  0
  161.2380  203.0160  146.2050 C   0  0  0  0  0  2  0  0  0  0  0  0
  160.5060  203.4670  149.1370 O   0  0  0  0  0  1  0  0  0  0  0  0
  160.8840  206.3840  144.8880 O   0  0  0  0  0  0  0  0  0  0  0  0
  161.2140  205.3770  143.9750 C   0  0  0  0  0  2  0  0  0  0  0  0
  162.1610  205.9180  142.9180 C   0  0  0  0  0  2  0  0  0  0  0  0
  161.3450  206.4500  141.7560 C   0  0  0  0  0  2  0  0  0  0  0  0
  161.8190  205.9180  140.5580 O   0  0  0  0  0  0  0  0  0  0  0  0
  162.1970  207.2670  139.6030 P   0  0  0  0  0  0  0  0  0  0  0  0
  162.7780  207.0770  138.2220 O   0  0  0  0  0  0  0  0  0  0  0  0
  161.9520  208.6650  140.1290 O   0  0  0  0  0  0  0  0  0  0  0  0
  163.3960  211.3290  155.9180 C   0  0  0  0  0  2  0  0  0  0  0  0
  162.6880  211.3660  157.2610 C   0  0  0  0  0  2  0  0  0  0  0  0
  161.3700  213.3510  157.2480 O   0  0  0  0  0  0  0  0  0  0  0  0
  160.1930  211.3630  156.9270 N   0  0  0  0  0  2  0  0  0  0  0  0
  161.3970  212.0980  157.1380 C   0  0  0  0  0  0  0  0  0  0  0  0
  156.7880  211.4900  156.2140 O   0  0  0  0  0  1  0  0  0  0  0  0
  158.1310  211.1760  155.9980 C   0  0  2  0  0  3  0  0  0  0  0  0
  158.9560  212.0110  156.8050 N   0  0  0  0  0  0  0  0  0  0  0  0
  158.7820  212.2890  155.4030 N   0  0  0  0  0  2  0  0  0  0  0  0
  1  2  1  0  0  0  0
  2  6  2  0  0  0  0
  2 55  1  0  0  0  0
  3 12  1  0  0  0  0
  3 14  1  0  0  0  0
  4 11  1  0  0  0  0
  5 16  1  0  0  0  0
  7 25  2  0  0  0  0
  7 21  1  0  0  0  0
  8 22  1  0  0  0  0
  9  3  1  0  0  0  0
  9 12  1  0  0  0  0
 10 17  1  0  0  0  0
 11  8  1  0  0  0  0
 12 24  1  0  0  0  0
 12 27  1  0  0  0  0
 14 19  1  0  0  0  0
 15  6  1  0  0  0  0
 16 14  1  0  0  0  0
 16 30  1  0  0  0  0
 17 15  2  0  0  0  0
 17 20  1  0  0  0  0
 18  7  1  0  0  0  0
 19  4  1  0  0  0  0
 20 31  1  0  0  0  0
 20 29  1  0  0  0  0
 21 26  2  0  0  0  0
 22 23  1  0  0  0  0
 22 29  1  0  0  0  0
 24  4  1  0  0  0  0
 26  1  1  0  0  0  0
 26 15  1  0  0  0  0
 28 21  1  0  0  0  0
 28 10  1  0  0  0  0
 30 13  2  0  0  0  0
 30 18  1  0  0  0  0
 31 32  1  0  0  0  0
 33 35  1  0  0  0  0
 33  9  1  0  0  0  0
 34 35  1  0  0  0  0
 35 36  1  0  0  0  0
 37 42  1  0  0  0  0
 38 46  1  0  0  0  0
 39 40  2  0  0  0  0
 39 38  1  0  0  0  0
 39 43  1  0  0  0  0
 41 42  1  0  0  0  0
 42 39  1  0  0  0  0
 44 36  1  0  0  0  0
 44 38  1  0  0  0  0
 45 42  1  0  0  0  0
 45 44  1  0  0  0  0
 47 33  1  0  0  0  0
 48 47  1  0  0  0  0
 49 48  1  0  0  0  0
 50 49  1  0  0  0  0
 51 50  1  0  0  0  0
 52 54  2  0  0  0  0
 52 51  1  0  0  0  0
 53 52  2  0  0  0  0
 55 56  1  0  0  0  0
 58 59  1  0  0  0  0
 59 57  2  0  0  0  0
 59 56  1  0  0  0  0
 61 60  1  0  0  0  0
 61 62  1  0  0  0  0
 62 58  1  0  0  0  0
 63 61  1  0  0  0  0
 63 62  1  0  0  0  0
M  END
>  <MODEL>
3

>  <REMARK>
 VINA RESULT:       8.5      4.502     10.657
  Name = 
  15 active torsions:
  status: ('A' for Active; 'I' for Inactive)
    1  A    between atoms: C_3  and  C_41
    2  A    between atoms: C_10  and  C_11
    3  A    between atoms: C_10  and  C_21
    4  A    between atoms: C_10  and  O_62
    5  A    between atoms: C_11  and  O_63
    6  A    between atoms: C_13  and  C_41
    7  A    between atoms: C_13  and  C_44
    8  A    between atoms: N_14  and  N_28
    9  A    between atoms: O_18  and  C_22
   10  A    between atoms: O_18  and  P_30
   11  A    between atoms: C_22  and  C_39
   12  A    between atoms: C_39  and  C_52
   13  A    between atoms: C_43  and  O_63
   14  A    between atoms: N_46  and  C_53
   15  A    between atoms: C_52  and  O_62
                            x       y       z     vdW  Elec       q    Type
                         _______ _______ _______ _____ _____    ______ ____

>  <TORSDO>
F 15

$$$$
=
 OpenBabel11072415203D

 63 69  0  0  1  0  0  0  0  0999 V2000
  161.7440  211.6290  154.2630 O   0  0  0  0  0  0  0  0  0  0  0  0
  162.1550  210.9900  155.3440 C   0  0  0  0  0  0  0  0  0  0  0  0
  161.6340  207.9680  148.1170 C   0  0  2  0  0  3  0  0  0  0  0  0
  162.9470  207.4370  150.4140 C   0  0  2  0  0  3  0  0  0  0  0  0
  160.4660  210.6960  147.6960 C   0  0  0  0  0  1  0  0  0  0  0  0
  161.7230  209.7040  155.4110 N   0  0  0  0  0  0  0  0  0  0  0  0
  160.4930  212.1500  151.6070 C   0  0  0  0  0  0  0  0  0  0  0  0
  161.8330  206.1440  152.3040 C   0  0  0  0  0  2  0  0  0  0  0  0
  160.5700  207.1520  147.4820 C   0  0  2  0  0  3  0  0  0  0  0  0
  159.6140  208.6560  152.6490 O   0  0  0  0  0  0  0  0  0  0  0  0
  162.9130  207.1440  151.9170 C   0  0  0  0  0  2  0  0  0  0  0  0
  161.1010  206.7150  148.8440 C   0  0  1  0  0  0  0  0  0  0  0  0
  162.8920  211.8040  150.0950 O   0  0  0  0  0  0  0  0  0  0  0  0
  161.5850  209.0210  149.2100 C   0  0  2  0  0  3  0  0  0  0  0  0
  160.9910  209.5950  154.2890 C   0  0  0  0  0  0  0  0  0  0  0  0
  161.6650  210.4220  148.5940 C   0  0  2  0  0  3  0  0  0  0  0  0
  160.3220  208.5230  153.8550 C   0  0  0  0  0  0  0  0  0  0  0  0
  160.6050  212.0100  150.2260 O   0  0  0  0  0  0  0  0  0  0  0  0
  162.6930  208.8140  150.0890 O   0  0  0  0  0  0  0  0  0  0  0  0
  160.3520  207.2710  154.5480 N   0  0  0  0  0  0  0  0  0  0  0  0
  160.3900  210.9320  152.4270 C   0  0  0  0  0  0  0  0  0  0  0  0
  162.0490  205.6370  153.7240 C   0  0  2  0  0  3  0  0  0  0  0  0
  161.3390  204.4510  153.9110 O   0  0  0  0  0  1  0  0  0  0  0  0
  162.4440  206.3190  149.4400 C   0  0  0  0  0  2  0  0  0  0  0  0
  160.4710  213.3620  152.1480 C   0  0  0  0  0  2  0  0  0  0  0  0
  161.0160  210.7670  153.5960 C   0  0  0  0  0  0  0  0  0  0  0  0
  159.9740  206.8700  149.8720 C   0  0  0  0  0  1  0  0  0  0  0  0
  159.6630  209.8330  151.9400 O   0  0  0  0  0  0  0  0  0  0  0  0
  161.6570  206.6550  154.8040 C   0  0  0  0  0  2  0  0  0  0  0  0
  161.7590  211.4660  149.6590 C   0  0  0  0  0  0  0  0  0  0  0  0
  159.1470  206.4510  154.5650 C   0  0  0  0  0  2  0  0  0  0  0  0
  158.2500  206.9510  155.5110 O   0  0  0  0  0  1  0  0  0  0  0  0
  161.1660  206.2580  146.3970 C   0  0  2  0  0  3  0  0  0  0  0  0
  160.7120  203.9770  145.5820 O   0  0  0  0  0  1  0  0  0  0  0  0
  161.0680  204.7560  146.6950 C   0  0  1  0  0  3  0  0  0  0  0  0
  162.2010  204.2890  147.4120 O   0  0  0  0  0  0  0  0  0  0  0  0
  161.5440  199.8030  147.0150 O   0  0  0  0  0  1  0  0  0  0  0  0
  161.2350  202.8410  149.1040 C   0  0  1  0  0  3  0  0  0  0  0  0
  160.6490  201.1440  149.1020 P   0  0  2  0  0  0  0  0  0  0  0  0
  161.6340  200.2490  149.8200 O   0  0  0  0  0  0  0  0  0  0  0  0
  159.3390  200.6550  146.7430 C   0  0  0  0  0  1  0  0  0  0  0  0
  160.7220  200.8890  147.3130 C   0  0  2  0  0  0  0  0  0  0  0  0
  158.9990  200.9850  149.8390 C   0  0  0  0  0  1  0  0  0  0  0  0
  162.0390  202.9490  147.8120 C   0  0  1  0  0  3  0  0  0  0  0  0
  161.3110  202.1640  146.7180 C   0  0  0  0  0  2  0  0  0  0  0  0
  160.1410  203.7130  149.0780 O   0  0  0  0  0  1  0  0  0  0  0  0
  162.5070  206.5980  146.1830 O   0  0  0  0  0  0  0  0  0  0  0  0
  162.8540  205.9930  144.9700 C   0  0  0  0  0  2  0  0  0  0  0  0
  161.7010  206.0920  143.9860 C   0  0  0  0  0  2  0  0  0  0  0  0
  162.2360  205.8860  142.5830 C   0  0  0  0  0  2  0  0  0  0  0  0
  161.2890  206.3010  141.6470 O   0  0  0  0  0  0  0  0  0  0  0  0
  162.1910  207.0380  140.4150 P   0  0  0  0  0  0  0  0  0  0  0  0
  163.1940  206.2300  139.6250 O   0  0  0  0  0  0  0  0  0  0  0  0
  161.9950  208.5060  140.1010 O   0  0  0  0  0  0  0  0  0  0  0  0
  162.9830  211.6210  156.4060 C   0  0  0  0  0  2  0  0  0  0  0  0
  164.3380  210.9390  156.4650 C   0  0  0  0  0  2  0  0  0  0  0  0
  165.6400  212.7690  157.2610 O   0  0  0  0  0  0  0  0  0  0  0  0
  166.1940  211.9930  155.1320 N   0  0  0  0  0  2  0  0  0  0  0  0
  165.4250  211.9480  156.3320 C   0  0  0  0  0  0  0  0  0  0  0  0
  168.8650  213.9320  156.2390 O   0  0  0  0  0  1  0  0  0  0  0  0
  167.5790  213.3910  156.2640 C   0  0  2  0  0  3  0  0  0  0  0  0
  167.2270  212.9260  154.9640 N   0  0  0  0  0  0  0  0  0  0  0  0
  166.7220  214.1820  155.4540 N   0  0  0  0  0  2  0  0  0  0  0  0
  1  2  1  0  0  0  0
  2  6  2  0  0  0  0
  2 55  1  0  0  0  0
  3 12  1  0  0  0  0
  3 14  1  0  0  0  0
  4 11  1  0  0  0  0
  5 16  1  0  0  0  0
  7 25  2  0  0  0  0
  7 21  1  0  0  0  0
  8 22  1  0  0  0  0
  9  3  1  0  0  0  0
  9 12  1  0  0  0  0
 10 17  1  0  0  0  0
 11  8  1  0  0  0  0
 12 24  1  0  0  0  0
 12 27  1  0  0  0  0
 14 19  1  0  0  0  0
 15  6  1  0  0  0  0
 16 14  1  0  0  0  0
 16 30  1  0  0  0  0
 17 15  2  0  0  0  0
 17 20  1  0  0  0  0
 18  7  1  0  0  0  0
 19  4  1  0  0  0  0
 20 31  1  0  0  0  0
 20 29  1  0  0  0  0
 21 26  2  0  0  0  0
 22 23  1  0  0  0  0
 22 29  1  0  0  0  0
 24  4  1  0  0  0  0
 26  1  1  0  0  0  0
 26 15  1  0  0  0  0
 28 21  1  0  0  0  0
 28 10  1  0  0  0  0
 30 13  2  0  0  0  0
 30 18  1  0  0  0  0
 31 32  1  0  0  0  0
 33 35  1  0  0  0  0
 33  9  1  0  0  0  0
 34 35  1  0  0  0  0
 35 36  1  0  0  0  0
 36 44  1  0  0  0  0
 37 42  1  0  0  0  0
 39 38  1  0  0  0  0
 39 40  2  0  0  0  0
 39 43  1  0  0  0  0
 41 42  1  0  0  0  0
 42 39  1  0  0  0  0
 44 38  1  0  0  0  0
 45 42  1  0  0  0  0
 45 44  1  0  0  0  0
 46 38  1  0  0  0  0
 47 33  1  0  0  0  0
 48 47  1  0  0  0  0
 49 48  1  0  0  0  0
 50 49  1  0  0  0  0
 51 50  1  0  0  0  0
 52 51  1  0  0  0  0
 53 52  2  0  0  0  0
 54 52  2  0  0  0  0
 55 56  1  0  0  0  0
 58 59  1  0  0  0  0
 59 56  1  0  0  0  0
 59 57  2  0  0  0  0
 60 61  1  0  0  0  0
 62 58  1  0  0  0  0
 62 63  1  0  0  0  0
 62 61  1  0  0  0  0
 63 61  1  0  0  0  0
M  END
>  <MODEL>
4

>  <REMARK>
 VINA RESULT:       9.3      4.839     10.941
  Name = 
  15 active torsions:
  status: ('A' for Active; 'I' for Inactive)
    1  A    between atoms: C_3  and  C_41
    2  A    between atoms: C_10  and  C_11
    3  A    between atoms: C_10  and  C_21
    4  A    between atoms: C_10  and  O_62
    5  A    between atoms: C_11  and  O_63
    6  A    between atoms: C_13  and  C_41
    7  A    between atoms: C_13  and  C_44
    8  A    between atoms: N_14  and  N_28
    9  A    between atoms: O_18  and  C_22
   10  A    between atoms: O_18  and  P_30
   11  A    between atoms: C_22  and  C_39
   12  A    between atoms: C_39  and  C_52
   13  A    between atoms: C_43  and  O_63
   14  A    between atoms: N_46  and  C_53
   15  A    between atoms: C_52  and  O_62
                            x       y       z     vdW  Elec       q    Type
                         _______ _______ _______ _____ _____    ______ ____

>  <TORSDO>
F 15

$$$$
