=
 OpenBabel11072411143D

 28 31  0  0  1  0  0  0  0  0999 V2000
  161.0500  204.2490  150.4570 C   0  0  0  0  0  0  0  0  0  0  0  0
  160.9040  201.8290  150.4680 N   0  0  0  0  0  0  0  0  0  0  0  0
  160.9690  200.6510  148.4740 O   0  0  0  0  0  0  0  0  0  0  0  0
  161.4800  206.7160  146.0910 C   0  0  0  0  0  1  0  0  0  0  0  0
  160.8230  202.8700  152.6270 C   0  0  0  0  0  1  0  0  0  0  0  0
  161.1490  204.2570  148.9600 C   0  0  0  0  0  0  0  0  0  0  0  0
  161.3570  205.4370  146.8380 C   0  0  0  0  0  0  0  0  0  0  0  0
  160.9970  201.7750  149.0420 C   0  0  0  0  0  0  0  0  0  0  0  0
  161.1930  201.8370  146.1250 O   0  0  0  0  0  1  0  0  0  0  0  0
  161.1230  203.0280  148.2590 C   0  0  0  0  0  0  0  0  0  0  0  0
  161.0690  205.3240  151.1990 N   0  0  0  0  0  0  0  0  0  0  0  0
  161.2160  203.0240  146.8490 C   0  0  0  0  0  0  0  0  0  0  0  0
  161.3310  204.2270  146.1510 C   0  0  0  0  0  3  0  0  0  0  0  0
  161.2650  205.4490  148.2280 C   0  0  0  0  0  3  0  0  0  0  0  0
  160.9260  202.9400  151.1410 C   0  0  0  0  0  0  0  0  0  0  0  0
  160.9550  207.1070  153.1910 O   0  0  0  0  0  1  0  0  0  0  0  0
  162.5090  207.2930  151.2580 C   0  0  0  0  0  2  0  0  0  0  0  0
  161.1870  206.7080  150.7540 C   0  0  2  0  0  3  0  0  0  0  0  0
  161.2110  207.6590  151.9330 C   0  0  1  0  0  0  0  0  0  0  0  0
  160.6690  208.9800  151.6520 N   0  0  0  0  0  2  0  0  0  0  0  0
  160.5380  210.0830  152.5650 C   0  0  0  0  0  0  0  0  0  0  0  0
  160.1310  211.1820  152.1000 O   0  0  0  0  0  0  0  0  0  0  0  0
  160.2770  209.5220  156.3230 C   0  0  0  0  0  3  0  0  0  0  0  0
  159.9410  209.5680  154.9680 C   0  0  0  0  0  3  0  0  0  0  0  0
  160.8700  210.0050  154.0110 C   0  0  0  0  0  0  0  0  0  0  0  0
  162.4820  210.3650  155.8010 C   0  0  0  0  0  3  0  0  0  0  0  0
  162.1420  210.4090  154.4460 C   0  0  0  0  0  3  0  0  0  0  0  0
  161.5500  209.9210  156.7400 C   0  0  0  0  0  3  0  0  0  0  0  0
  1 15  1  0  0  0  0
  1 11  2  0  0  0  0
  2 15  2  0  0  0  0
  3  8  2  0  0  0  0
  4  7  1  0  0  0  0
  6  1  1  0  0  0  0
  7 14  1  0  0  0  0
  8  2  1  0  0  0  0
  9 12  1  0  0  0  0
 10  6  1  0  0  0  0
 10  8  1  0  0  0  0
 12 10  2  0  0  0  0
 13  7  2  0  0  0  0
 13 12  1  0  0  0  0
 14  6  2  0  0  0  0
 15  5  1  0  0  0  0
 17 19  1  0  0  0  0
 18 11  1  1  0  0  0
 18 17  1  0  0  0  0
 18 19  1  0  0  0  0
 19 16  1  1  0  0  0
 20 19  1  0  0  0  0
 20 21  1  0  0  0  0
 21 25  1  0  0  0  0
 22 21  2  0  0  0  0
 23 28  1  0  0  0  0
 24 23  2  0  0  0  0
 25 27  2  0  0  0  0
 25 24  1  0  0  0  0
 26 28  2  0  0  0  0
 27 26  1  0  0  0  0
M  END
>  <MODEL>
1

>  <REMARK>
 VINA RESULT:      -8.7      0.000      0.000
  Name = 
  3 active torsions:
  status: ('A' for Active; 'I' for Inactive)
    1  A    between atoms: N_2  and  C_28
    2  A    between atoms: C_6  and  C_19
    3  A    between atoms: N_17  and  C_27
                            x       y       z     vdW  Elec       q    Type
                         _______ _______ _______ _____ _____    ______ ____

>  <TORSDO>
F 3

$$$$
=
 OpenBabel11072411143D

 28 31  0  0  1  0  0  0  0  0999 V2000
  161.6010  207.7140  149.9880 C   0  0  0  0  0  0  0  0  0  0  0  0
  161.9950  207.7000  147.5960 N   0  0  0  0  0  0  0  0  0  0  0  0
  161.8870  205.7110  146.4110 O   0  0  0  0  0  0  0  0  0  0  0  0
  160.5630  203.4110  152.3840 C   0  0  0  0  0  1  0  0  0  0  0  0
  162.1470  209.8510  148.6460 C   0  0  0  0  0  1  0  0  0  0  0  0
  161.3800  206.2300  149.9810 C   0  0  0  0  0  0  0  0  0  0  0  0
  160.8780  204.1390  151.1270 C   0  0  0  0  0  0  0  0  0  0  0  0
  161.7910  206.2860  147.5280 C   0  0  0  0  0  0  0  0  0  0  0  0
  161.3500  203.3950  147.5610 O   0  0  0  0  0  1  0  0  0  0  0  0
  161.4730  205.5230  148.7590 C   0  0  0  0  0  0  0  0  0  0  0  0
  161.5340  208.4610  151.0580 N   0  0  0  0  0  0  0  0  0  0  0  0
  161.2650  204.1250  148.7420 C   0  0  0  0  0  0  0  0  0  0  0  0
  160.9700  203.4460  149.9240 C   0  0  0  0  0  3  0  0  0  0  0  0
  161.0810  205.5170  151.1530 C   0  0  0  0  0  3  0  0  0  0  0  0
  161.9150  208.3780  148.7000 C   0  0  0  0  0  0  0  0  0  0  0  0
  162.0350  210.3340  152.9020 O   0  0  0  0  0  1  0  0  0  0  0  0
  160.0490  208.8360  152.9570 C   0  0  0  0  0  2  0  0  0  0  0  0
  161.2390  208.0350  152.4210 C   0  0  2  0  0  3  0  0  0  0  0  0
  161.4510  209.1680  153.4040 C   0  0  1  0  0  0  0  0  0  0  0  0
  161.8390  208.7400  154.7400 N   0  0  0  0  0  2  0  0  0  0  0  0
  161.3690  209.2610  155.9940 C   0  0  0  0  0  0  0  0  0  0  0  0
  161.7550  208.6870  157.0480 O   0  0  0  0  0  0  0  0  0  0  0  0
  158.2090  211.3740  156.2410 C   0  0  0  0  0  3  0  0  0  0  0  0
  159.0520  210.2640  156.1430 C   0  0  0  0  0  3  0  0  0  0  0  0
  160.4460  210.4190  156.1170 C   0  0  0  0  0  0  0  0  0  0  0  0
  160.1380  212.8310  156.2730 C   0  0  0  0  0  3  0  0  0  0  0  0
  160.9780  211.7170  156.1760 C   0  0  0  0  0  3  0  0  0  0  0  0
  158.7530  212.6590  156.3070 C   0  0  0  0  0  3  0  0  0  0  0  0
  1 11  2  0  0  0  0
  2 15  2  0  0  0  0
  3  8  2  0  0  0  0
  5 15  1  0  0  0  0
  6  1  1  0  0  0  0
  6 14  1  0  0  0  0
  7 14  2  0  0  0  0
  7  4  1  0  0  0  0
  8  2  1  0  0  0  0
  8 10  1  0  0  0  0
  9 12  1  0  0  0  0
 10  6  2  0  0  0  0
 12 10  1  0  0  0  0
 12 13  2  0  0  0  0
 13  7  1  0  0  0  0
 15  1  1  0  0  0  0
 17 19  1  0  0  0  0
 18 11  1  6  0  0  0
 18 17  1  0  0  0  0
 18 19  1  0  0  0  0
 19 16  1  6  0  0  0
 19 20  1  0  0  0  0
 20 21  1  0  0  0  0
 21 25  1  0  0  0  0
 21 22  2  0  0  0  0
 23 28  1  0  0  0  0
 24 23  2  0  0  0  0
 25 24  1  0  0  0  0
 25 27  2  0  0  0  0
 26 28  2  0  0  0  0
 27 26  1  0  0  0  0
M  END
>  <MODEL>
2

>  <REMARK>
 VINA RESULT:      -8.6      2.283      4.129
  Name = 
  3 active torsions:
  status: ('A' for Active; 'I' for Inactive)
    1  A    between atoms: N_2  and  C_28
    2  A    between atoms: C_6  and  C_19
    3  A    between atoms: N_17  and  C_27
                            x       y       z     vdW  Elec       q    Type
                         _______ _______ _______ _____ _____    ______ ____

>  <TORSDO>
F 3

$$$$
=
 OpenBabel11072411143D

 28 31  0  0  1  0  0  0  0  0999 V2000
  161.2450  206.4390  151.8030 C   0  0  0  0  0  0  0  0  0  0  0  0
  160.9280  206.1750  154.1930 N   0  0  0  0  0  0  0  0  0  0  0  0
  160.9040  208.0350  155.5750 O   0  0  0  0  0  0  0  0  0  0  0  0
  161.8660  211.0360  149.8490 C   0  0  0  0  0  1  0  0  0  0  0  0
  160.9210  204.1380  152.9270 C   0  0  0  0  0  1  0  0  0  0  0  0
  161.3470  207.9280  151.9610 C   0  0  0  0  0  0  0  0  0  0  0  0
  161.6460  210.1600  151.0290 C   0  0  0  0  0  0  0  0  0  0  0  0
  161.0150  207.5870  154.4030 C   0  0  0  0  0  0  0  0  0  0  0  0
  161.2190  210.4930  154.6620 O   0  0  0  0  0  1  0  0  0  0  0  0
  161.2320  208.4960  153.2510 C   0  0  0  0  0  0  0  0  0  0  0  0
  161.3320  205.8150  150.6600 N   0  0  0  0  0  0  0  0  0  0  0  0
  161.3260  209.8980  153.4100 C   0  0  0  0  0  0  0  0  0  0  0  0
  161.5320  210.7160  152.2990 C   0  0  0  0  0  3  0  0  0  0  0  0
  161.5540  208.7790  150.8640 C   0  0  0  0  0  3  0  0  0  0  0  0
  161.0290  205.6230  153.0220 C   0  0  0  0  0  0  0  0  0  0  0  0
  161.4440  204.0120  148.6850 O   0  0  0  0  0  1  0  0  0  0  0  0
  160.2780  206.2010  148.4930 C   0  0  0  0  0  2  0  0  0  0  0  0
  161.5380  206.4020  149.3410 C   0  0  2  0  0  3  0  0  0  0  0  0
  161.4950  205.3420  148.2590 C   0  0  1  0  0  0  0  0  0  0  0  0
  162.3040  205.6450  147.0870 N   0  0  0  0  0  2  0  0  0  0  0  0
  162.2120  205.0470  145.7840 C   0  0  0  0  0  0  0  0  0  0  0  0
  162.9410  205.5180  144.8710 O   0  0  0  0  0  0  0  0  0  0  0  0
  160.6050  201.5960  145.6420 C   0  0  0  0  0  3  0  0  0  0  0  0
  161.4700  202.6370  145.9870 C   0  0  0  0  0  3  0  0  0  0  0  0
  161.2980  203.9230  145.4520 C   0  0  0  0  0  0  0  0  0  0  0  0
  159.3780  203.0990  144.1990 C   0  0  0  0  0  3  0  0  0  0  0  0
  160.2460  204.1380  144.5480 C   0  0  0  0  0  3  0  0  0  0  0  0
  159.5570  201.8270  144.7480 C   0  0  0  0  0  3  0  0  0  0  0  0
  1  6  1  0  0  0  0
  1 15  1  0  0  0  0
  2  8  1  0  0  0  0
  4  7  1  0  0  0  0
  5 15  1  0  0  0  0
  6 10  1  0  0  0  0
  7 13  2  0  0  0  0
  8  3  2  0  0  0  0
 10 12  2  0  0  0  0
 10  8  1  0  0  0  0
 11  1  2  0  0  0  0
 12  9  1  0  0  0  0
 13 12  1  0  0  0  0
 14  7  1  0  0  0  0
 14  6  2  0  0  0  0
 15  2  2  0  0  0  0
 17 18  1  0  0  0  0
 18 11  1  1  0  0  0
 19 17  1  0  0  0  0
 19 16  1  1  0  0  0
 19 18  1  0  0  0  0
 20 19  1  0  0  0  0
 21 20  1  0  0  0  0
 22 21  2  0  0  0  0
 23 24  1  0  0  0  0
 25 21  1  0  0  0  0
 25 24  2  0  0  0  0
 26 27  2  0  0  0  0
 26 28  1  0  0  0  0
 27 25  1  0  0  0  0
 28 23  2  0  0  0  0
M  END
>  <MODEL>
3

>  <REMARK>
 VINA RESULT:      -8.2      2.245      8.329
  Name = 
  3 active torsions:
  status: ('A' for Active; 'I' for Inactive)
    1  A    between atoms: N_2  and  C_28
    2  A    between atoms: C_6  and  C_19
    3  A    between atoms: N_17  and  C_27
                            x       y       z     vdW  Elec       q    Type
                         _______ _______ _______ _____ _____    ______ ____

>  <TORSDO>
F 3

$$$$
=
 OpenBabel11072411143D

 28 31  0  0  1  0  0  0  0  0999 V2000
  161.0930  204.5340  149.7270 C   0  0  0  0  0  0  0  0  0  0  0  0
  160.8600  202.2330  150.4540 N   0  0  0  0  0  0  0  0  0  0  0  0
  160.8370  200.5180  148.8960 O   0  0  0  0  0  0  0  0  0  0  0  0
  161.5120  205.5840  144.8220 C   0  0  0  0  0  1  0  0  0  0  0  0
  160.8650  203.8660  152.2100 C   0  0  0  0  0  1  0  0  0  0  0  0
  161.1570  204.0960  148.2940 C   0  0  0  0  0  0  0  0  0  0  0  0
  161.3600  204.5880  145.9150 C   0  0  0  0  0  0  0  0  0  0  0  0
  160.9180  201.7560  149.1070 C   0  0  0  0  0  0  0  0  0  0  0  0
  161.0500  200.9480  146.2990 O   0  0  0  0  0  1  0  0  0  0  0  0
  161.0720  202.7170  147.9870 C   0  0  0  0  0  0  0  0  0  0  0  0
  161.1670  205.7780  150.1180 N   0  0  0  0  0  0  0  0  0  0  0  0
  161.1320  202.2940  146.6400 C   0  0  0  0  0  0  0  0  0  0  0  0
  161.2750  203.2320  145.6170 C   0  0  0  0  0  3  0  0  0  0  0  0
  161.3010  205.0130  147.2410 C   0  0  0  0  0  3  0  0  0  0  0  0
  160.9370  203.4900  150.7680 C   0  0  0  0  0  0  0  0  0  0  0  0
  162.6870  207.6810  151.2270 O   0  0  0  0  0  1  0  0  0  0  0  0
  162.7800  207.0670  148.8180 C   0  0  0  0  0  2  0  0  0  0  0  0
  161.3240  206.9630  149.2830 C   0  0  2  0  0  3  0  0  0  0  0  0
  162.2700  207.9590  149.9230 C   0  0  1  0  0  0  0  0  0  0  0  0
  162.0020  209.3490  149.5810 N   0  0  0  0  0  2  0  0  0  0  0  0
  161.6470  210.4150  150.4770 C   0  0  0  0  0  0  0  0  0  0  0  0
  161.5510  211.5760  149.9960 O   0  0  0  0  0  0  0  0  0  0  0  0
  159.9380  209.7630  153.8190 C   0  0  0  0  0  3  0  0  0  0  0  0
  160.1370  209.9150  152.4440 C   0  0  0  0  0  3  0  0  0  0  0  0
  161.4060  210.2280  151.9320 C   0  0  0  0  0  0  0  0  0  0  0  0
  162.2740  210.2520  154.2080 C   0  0  0  0  0  3  0  0  0  0  0  0
  162.4690  210.4020  152.8310 C   0  0  0  0  0  3  0  0  0  0  0  0
  161.0080  209.9310  154.7020 C   0  0  0  0  0  3  0  0  0  0  0  0
  1 11  2  0  0  0  0
  1 15  1  0  0  0  0
  2 15  2  0  0  0  0
  3  8  2  0  0  0  0
  4  7  1  0  0  0  0
  6  1  1  0  0  0  0
  7 14  1  0  0  0  0
  8  2  1  0  0  0  0
  9 12  1  0  0  0  0
 10  6  1  0  0  0  0
 10  8  1  0  0  0  0
 12 10  2  0  0  0  0
 13  7  2  0  0  0  0
 13 12  1  0  0  0  0
 14  6  2  0  0  0  0
 15  5  1  0  0  0  0
 17 18  1  0  0  0  0
 17 19  1  0  0  0  0
 18 19  1  0  0  0  0
 18 11  1  1  0  0  0
 19 16  1  1  0  0  0
 20 19  1  0  0  0  0
 20 21  1  0  0  0  0
 21 25  1  0  0  0  0
 22 21  2  0  0  0  0
 23 28  1  0  0  0  0
 24 23  2  0  0  0  0
 25 24  1  0  0  0  0
 25 27  2  0  0  0  0
 26 28  2  0  0  0  0
 27 26  1  0  0  0  0
M  END
>  <MODEL>
4

>  <REMARK>
 VINA RESULT:      -8.2      1.375      1.687
  Name = 
  3 active torsions:
  status: ('A' for Active; 'I' for Inactive)
    1  A    between atoms: N_2  and  C_28
    2  A    between atoms: C_6  and  C_19
    3  A    between atoms: N_17  and  C_27
                            x       y       z     vdW  Elec       q    Type
                         _______ _______ _______ _____ _____    ______ ____

>  <TORSDO>
F 3

$$$$
=
 OpenBabel11072411143D

 28 31  0  0  1  0  0  0  0  0999 V2000
  161.3270  209.4280  152.2330 C   0  0  0  0  0  0  0  0  0  0  0  0
  160.6650  211.7410  151.9300 N   0  0  0  0  0  0  0  0  0  0  0  0
  159.5110  212.8490  153.6060 O   0  0  0  0  0  0  0  0  0  0  0  0
  160.1760  207.0300  156.5070 C   0  0  0  0  0  1  0  0  0  0  0  0
  161.8520  210.7650  150.0880 C   0  0  0  0  0  1  0  0  0  0  0  0
  160.7030  209.4070  153.5970 C   0  0  0  0  0  0  0  0  0  0  0  0
  160.1390  208.2590  155.6720 C   0  0  0  0  0  0  0  0  0  0  0  0
  160.0560  211.7800  153.2230 C   0  0  0  0  0  0  0  0  0  0  0  0
  158.8540  211.6940  155.8880 O   0  0  0  0  0  1  0  0  0  0  0  0
  160.0730  210.5750  154.0880 C   0  0  0  0  0  0  0  0  0  0  0  0
  161.9350  208.4080  151.6890 N   0  0  0  0  0  0  0  0  0  0  0  0
  159.4830  210.5660  155.3720 C   0  0  0  0  0  0  0  0  0  0  0  0
  159.5210  209.4100  156.1520 C   0  0  0  0  0  3  0  0  0  0  0  0
  160.7230  208.2610  154.4070 C   0  0  0  0  0  3  0  0  0  0  0  0
  161.2510  210.6850  151.4510 C   0  0  0  0  0  0  0  0  0  0  0  0
  160.6200  206.4670  150.3990 O   0  0  0  0  0  1  0  0  0  0  0  0
  162.9320  206.2190  151.2830 C   0  0  0  0  0  2  0  0  0  0  0  0
  162.1350  207.0830  152.2640 C   0  0  2  0  0  3  0  0  0  0  0  0
  161.4450  206.0190  151.4350 C   0  0  1  0  0  0  0  0  0  0  0  0
  161.0060  204.8560  152.1920 N   0  0  0  0  0  2  0  0  0  0  0  0
  160.8130  203.5190  151.7040 C   0  0  0  0  0  0  0  0  0  0  0  0
  160.5220  202.6250  152.5440 O   0  0  0  0  0  0  0  0  0  0  0  0
  161.3040  203.6780  147.9300 C   0  0  0  0  0  3  0  0  0  0  0  0
  161.1950  204.0720  149.2660 C   0  0  0  0  0  3  0  0  0  0  0  0
  160.9530  203.1290  150.2770 C   0  0  0  0  0  0  0  0  0  0  0  0
  160.9180  201.3810  148.5800 C   0  0  0  0  0  3  0  0  0  0  0  0
  160.8100  201.7800  149.9160 C   0  0  0  0  0  3  0  0  0  0  0  0
  161.1670  202.3300  147.5870 C   0  0  0  0  0  3  0  0  0  0  0  0
  1  6  1  0  0  0  0
  2  8  1  0  0  0  0
  5 15  1  0  0  0  0
  6 10  2  0  0  0  0
  6 14  1  0  0  0  0
  7 13  1  0  0  0  0
  7  4  1  0  0  0  0
  8  3  2  0  0  0  0
  8 10  1  0  0  0  0
 10 12  1  0  0  0  0
 11  1  2  0  0  0  0
 12  9  1  0  0  0  0
 12 13  2  0  0  0  0
 14  7  2  0  0  0  0
 15  2  2  0  0  0  0
 15  1  1  0  0  0  0
 17 19  1  0  0  0  0
 17 18  1  0  0  0  0
 18 11  1  6  0  0  0
 19 16  1  6  0  0  0
 19 20  1  0  0  0  0
 19 18  1  0  0  0  0
 21 20  1  0  0  0  0
 21 22  2  0  0  0  0
 23 24  1  0  0  0  0
 24 25  2  0  0  0  0
 25 21  1  0  0  0  0
 26 27  2  0  0  0  0
 27 25  1  0  0  0  0
 28 23  2  0  0  0  0
 28 26  1  0  0  0  0
M  END
>  <MODEL>
5

>  <REMARK>
 VINA RESULT:      -7.9      2.259      8.798
  Name = 
  3 active torsions:
  status: ('A' for Active; 'I' for Inactive)
    1  A    between atoms: N_2  and  C_28
    2  A    between atoms: C_6  and  C_19
    3  A    between atoms: N_17  and  C_27
                            x       y       z     vdW  Elec       q    Type
                         _______ _______ _______ _____ _____    ______ ____

>  <TORSDO>
F 3

$$$$
=
 OpenBabel11072411143D

 28 31  0  0  1  0  0  0  0  0999 V2000
  161.0490  206.8790  152.3150 C   0  0  0  0  0  0  0  0  0  0  0  0
  161.0750  204.6870  153.3530 N   0  0  0  0  0  0  0  0  0  0  0  0
  161.0980  202.7790  152.0380 O   0  0  0  0  0  0  0  0  0  0  0  0
  161.0320  207.2780  147.2980 C   0  0  0  0  0  1  0  0  0  0  0  0
  161.0540  206.5410  154.8750 C   0  0  0  0  0  1  0  0  0  0  0  0
  161.0530  206.2550  150.9510 C   0  0  0  0  0  0  0  0  0  0  0  0
  161.0450  206.4320  148.5200 C   0  0  0  0  0  0  0  0  0  0  0  0
  161.0820  204.0370  152.0790 C   0  0  0  0  0  0  0  0  0  0  0  0
  161.0920  202.8660  149.3990 O   0  0  0  0  0  1  0  0  0  0  0  0
  161.0710  204.8450  150.8350 C   0  0  0  0  0  0  0  0  0  0  0  0
  161.0380  208.1660  152.5340 N   0  0  0  0  0  0  0  0  0  0  0  0
  161.0760  204.2480  149.5540 C   0  0  0  0  0  0  0  0  0  0  0  0
  161.0630  205.0460  148.4090 C   0  0  0  0  0  3  0  0  0  0  0  0
  161.0400  207.0280  149.7800 C   0  0  0  0  0  3  0  0  0  0  0  0
  161.0590  205.9780  153.4930 C   0  0  0  0  0  0  0  0  0  0  0  0
  161.2520  210.6160  153.5900 O   0  0  0  0  0  1  0  0  0  0  0  0
  162.4070  209.9040  151.5040 C   0  0  0  0  0  2  0  0  0  0  0  0
  161.0300  209.2350  151.5410 C   0  0  2  0  0  3  0  0  0  0  0  0
  161.2510  210.5850  152.1930 C   0  0  1  0  0  0  0  0  0  0  0  0
  160.6270  211.6990  151.4930 N   0  0  0  0  0  2  0  0  0  0  0  0
  159.6070  212.5810  151.9910 C   0  0  0  0  0  0  0  0  0  0  0  0
  159.2660  213.5510  151.2620 O   0  0  0  0  0  0  0  0  0  0  0  0
  157.3510  211.3420  154.7980 C   0  0  0  0  0  3  0  0  0  0  0  0
  157.9640  211.4530  153.5480 C   0  0  0  0  0  3  0  0  0  0  0  0
  158.9500  212.4240  153.3140 C   0  0  0  0  0  0  0  0  0  0  0  0
  158.6870  213.1840  155.6140 C   0  0  0  0  0  3  0  0  0  0  0  0
  159.2980  213.2920  154.3610 C   0  0  0  0  0  3  0  0  0  0  0  0
  157.7140  212.2080  155.8330 C   0  0  0  0  0  3  0  0  0  0  0  0
  1 11  2  0  0  0  0
  1 15  1  0  0  0  0
  2 15  2  0  0  0  0
  3  8  2  0  0  0  0
  4  7  1  0  0  0  0
  6  1  1  0  0  0  0
  7 14  1  0  0  0  0
  8  2  1  0  0  0  0
  9 12  1  0  0  0  0
 10  6  1  0  0  0  0
 10  8  1  0  0  0  0
 12 10  2  0  0  0  0
 13  7  2  0  0  0  0
 13 12  1  0  0  0  0
 14  6  2  0  0  0  0
 15  5  1  0  0  0  0
 17 18  1  0  0  0  0
 17 19  1  0  0  0  0
 18 19  1  0  0  0  0
 18 11  1  1  0  0  0
 19 16  1  1  0  0  0
 20 21  1  0  0  0  0
 20 19  1  0  0  0  0
 21 25  1  0  0  0  0
 22 21  2  0  0  0  0
 23 28  1  0  0  0  0
 24 23  2  0  0  0  0
 25 24  1  0  0  0  0
 25 27  2  0  0  0  0
 26 28  2  0  0  0  0
 27 26  1  0  0  0  0
M  END
>  <MODEL>
6

>  <REMARK>
 VINA RESULT:      -7.9      2.354      3.312
  Name = 
  3 active torsions:
  status: ('A' for Active; 'I' for Inactive)
    1  A    between atoms: N_2  and  C_28
    2  A    between atoms: C_6  and  C_19
    3  A    between atoms: N_17  and  C_27
                            x       y       z     vdW  Elec       q    Type
                         _______ _______ _______ _____ _____    ______ ____

>  <TORSDO>
F 3

$$$$
=
 OpenBabel11072411143D

 28 31  0  0  1  0  0  0  0  0999 V2000
  160.7370  210.0480  152.4330 C   0  0  0  0  0  0  0  0  0  0  0  0
  160.2240  212.3770  152.8680 N   0  0  0  0  0  0  0  0  0  0  0  0
  159.6080  213.0540  154.9970 O   0  0  0  0  0  0  0  0  0  0  0  0
  160.4470  206.6780  156.1610 C   0  0  0  0  0  1  0  0  0  0  0  0
  160.8440  211.8690  150.6080 C   0  0  0  0  0  1  0  0  0  0  0  0
  160.4610  209.6980  153.8660 C   0  0  0  0  0  0  0  0  0  0  0  0
  160.3160  208.0780  155.6810 C   0  0  0  0  0  0  0  0  0  0  0  0
  159.9500  212.1040  154.2450 C   0  0  0  0  0  0  0  0  0  0  0  0
  159.4230  211.3770  157.0280 O   0  0  0  0  0  1  0  0  0  0  0  0
  160.0710  210.7200  154.7640 C   0  0  0  0  0  0  0  0  0  0  0  0
  161.1070  209.1840  151.5260 N   0  0  0  0  0  0  0  0  0  0  0  0
  159.8090  210.4010  156.1160 C   0  0  0  0  0  0  0  0  0  0  0  0
  159.9340  209.0840  156.5620 C   0  0  0  0  0  3  0  0  0  0  0  0
  160.5760  208.3840  154.3470 C   0  0  0  0  0  3  0  0  0  0  0  0
  160.5840  211.4630  152.0190 C   0  0  0  0  0  0  0  0  0  0  0  0
  161.0170  207.7990  149.2370 O   0  0  0  0  0  1  0  0  0  0  0  0
  162.6570  207.3600  151.0560 C   0  0  0  0  0  2  0  0  0  0  0  0
  161.3240  207.7520  151.6980 C   0  0  2  0  0  3  0  0  0  0  0  0
  161.3570  207.0410  150.3610 C   0  0  1  0  0  0  0  0  0  0  0  0
  160.9050  205.6580  150.4040 N   0  0  0  0  0  2  0  0  0  0  0  0
  160.9080  204.7050  149.3280 C   0  0  0  0  0  0  0  0  0  0  0  0
  160.5640  203.5210  149.5940 O   0  0  0  0  0  0  0  0  0  0  0  0
  160.9180  206.1210  145.7920 C   0  0  0  0  0  3  0  0  0  0  0  0
  160.5250  205.8470  147.1050 C   0  0  0  0  0  3  0  0  0  0  0  0
  161.3080  205.0300  147.9350 C   0  0  0  0  0  0  0  0  0  0  0  0
  162.8860  204.7500  146.1000 C   0  0  0  0  0  3  0  0  0  0  0  0
  162.4890  204.4790  147.4130 C   0  0  0  0  0  3  0  0  0  0  0  0
  162.1010  205.5720  145.2900 C   0  0  0  0  0  3  0  0  0  0  0  0
  1  6  1  0  0  0  0
  2  8  1  0  0  0  0
  5 15  1  0  0  0  0
  6 14  2  0  0  0  0
  6 10  1  0  0  0  0
  7  4  1  0  0  0  0
  7 13  2  0  0  0  0
  8 10  1  0  0  0  0
  8  3  2  0  0  0  0
 10 12  2  0  0  0  0
 11  1  2  0  0  0  0
 12 13  1  0  0  0  0
 12  9  1  0  0  0  0
 14  7  1  0  0  0  0
 15  1  1  0  0  0  0
 15  2  2  0  0  0  0
 17 18  1  0  0  0  0
 18 11  1  6  0  0  0
 19 16  1  6  0  0  0
 19 20  1  0  0  0  0
 19 17  1  0  0  0  0
 19 18  1  0  0  0  0
 21 22  2  0  0  0  0
 21 20  1  0  0  0  0
 23 24  1  0  0  0  0
 24 25  2  0  0  0  0
 25 21  1  0  0  0  0
 26 27  2  0  0  0  0
 27 25  1  0  0  0  0
 28 23  2  0  0  0  0
 28 26  1  0  0  0  0
M  END
>  <MODEL>
7

>  <REMARK>
 VINA RESULT:      -7.6      2.150      9.069
  Name = 
  3 active torsions:
  status: ('A' for Active; 'I' for Inactive)
    1  A    between atoms: N_2  and  C_28
    2  A    between atoms: C_6  and  C_19
    3  A    between atoms: N_17  and  C_27
                            x       y       z     vdW  Elec       q    Type
                         _______ _______ _______ _____ _____    ______ ____

>  <TORSDO>
F 3

$$$$
=
 OpenBabel11072411143D

 28 31  0  0  1  0  0  0  0  0999 V2000
  161.0670  204.9400  147.7770 C   0  0  0  0  0  0  0  0  0  0  0  0
  161.2310  202.8170  146.6170 N   0  0  0  0  0  0  0  0  0  0  0  0
  161.2780  200.8360  147.8180 O   0  0  0  0  0  0  0  0  0  0  0  0
  160.8410  205.0380  152.8050 C   0  0  0  0  0  1  0  0  0  0  0  0
  161.1950  204.7560  145.2060 C   0  0  0  0  0  1  0  0  0  0  0  0
  161.0450  204.2370  149.1020 C   0  0  0  0  0  0  0  0  0  0  0  0
  160.9360  204.2690  151.5370 C   0  0  0  0  0  0  0  0  0  0  0  0
  161.2120  202.0930  147.8500 C   0  0  0  0  0  0  0  0  0  0  0  0
  161.1640  200.7650  150.4550 O   0  0  0  0  0  1  0  0  0  0  0  0
  161.1160  202.8240  149.1370 C   0  0  0  0  0  0  0  0  0  0  0  0
  161.0020  206.2360  147.6330 N   0  0  0  0  0  0  0  0  0  0  0  0
  161.0950  202.1520  150.3810 C   0  0  0  0  0  0  0  0  0  0  0  0
  161.0060  202.8790  151.5680 C   0  0  0  0  0  3  0  0  0  0  0  0
  160.9560  204.9380  150.3150 C   0  0  0  0  0  3  0  0  0  0  0  0
  161.1670  204.1130  146.5510 C   0  0  0  0  0  0  0  0  0  0  0  0
  163.3400  207.3680  148.2770 O   0  0  0  0  0  1  0  0  0  0  0  0
  161.2000  208.6230  148.0970 C   0  0  0  0  0  2  0  0  0  0  0  0
  160.8970  207.2420  148.6840 C   0  0  2  0  0  3  0  0  0  0  0  0
  162.2330  207.9110  148.9340 C   0  0  1  0  0  0  0  0  0  0  0  0
  162.4220  208.3860  150.2970 N   0  0  0  0  0  2  0  0  0  0  0  0
  162.3200  209.7380  150.7730 C   0  0  0  0  0  0  0  0  0  0  0  0
  162.4240  209.9310  152.0140 O   0  0  0  0  0  0  0  0  0  0  0  0
  162.6560  212.3050  147.9790 C   0  0  0  0  0  3  0  0  0  0  0  0
  162.8930  211.1850  148.7790 C   0  0  0  0  0  3  0  0  0  0  0  0
  162.0830  210.9110  149.8920 C   0  0  0  0  0  0  0  0  0  0  0  0
  160.7950  212.9180  149.3960 C   0  0  0  0  0  3  0  0  0  0  0  0
  161.0360  211.7950  150.1940 C   0  0  0  0  0  3  0  0  0  0  0  0
  161.6040  213.1730  148.2880 C   0  0  0  0  0  3  0  0  0  0  0  0
  1  6  1  0  0  0  0
  2  8  1  0  0  0  0
  3  8  2  0  0  0  0
  5 15  1  0  0  0  0
  6 10  2  0  0  0  0
  6 14  1  0  0  0  0
  7 13  1  0  0  0  0
  7  4  1  0  0  0  0
  8 10  1  0  0  0  0
 10 12  1  0  0  0  0
 11  1  2  0  0  0  0
 12  9  1  0  0  0  0
 12 13  2  0  0  0  0
 14  7  2  0  0  0  0
 15  2  2  0  0  0  0
 15  1  1  0  0  0  0
 17 18  1  0  0  0  0
 17 19  1  0  0  0  0
 18 11  1  6  0  0  0
 18 19  1  0  0  0  0
 19 16  1  6  0  0  0
 19 20  1  0  0  0  0
 20 21  1  0  0  0  0
 21 22  2  0  0  0  0
 23 28  2  0  0  0  0
 23 24  1  0  0  0  0
 24 25  2  0  0  0  0
 25 27  1  0  0  0  0
 25 21  1  0  0  0  0
 26 27  2  0  0  0  0
 28 26  1  0  0  0  0
M  END
>  <MODEL>
8

>  <REMARK>
 VINA RESULT:      -7.6      2.897      4.799
  Name = 
  3 active torsions:
  status: ('A' for Active; 'I' for Inactive)
    1  A    between atoms: N_2  and  C_28
    2  A    between atoms: C_6  and  C_19
    3  A    between atoms: N_17  and  C_27
                            x       y       z     vdW  Elec       q    Type
                         _______ _______ _______ _____ _____    ______ ____

>  <TORSDO>
F 3

$$$$
=
 OpenBabel11072411143D

 28 31  0  0  1  0  0  0  0  0999 V2000
  161.5900  205.4540  148.1750 C   0  0  0  0  0  0  0  0  0  0  0  0
  161.4810  204.2350  146.0810 N   0  0  0  0  0  0  0  0  0  0  0  0
  161.0370  201.9600  146.0830 O   0  0  0  0  0  0  0  0  0  0  0  0
  160.8630  203.0340  152.5280 C   0  0  0  0  0  1  0  0  0  0  0  0
  161.9500  206.5780  145.8790 C   0  0  0  0  0  1  0  0  0  0  0  0
  161.3010  204.1990  148.9440 C   0  0  0  0  0  0  0  0  0  0  0  0
  160.9470  203.0140  151.0440 C   0  0  0  0  0  0  0  0  0  0  0  0
  161.2010  203.0080  146.7620 C   0  0  0  0  0  0  0  0  0  0  0  0
  160.6380  200.5880  148.3030 O   0  0  0  0  0  1  0  0  0  0  0  0
  161.1070  202.9860  148.2420 C   0  0  0  0  0  0  0  0  0  0  0  0
  161.7800  206.6240  148.7230 N   0  0  0  0  0  0  0  0  0  0  0  0
  160.8340  201.7990  148.9580 C   0  0  0  0  0  0  0  0  0  0  0  0
  160.7560  201.8230  150.3510 C   0  0  0  0  0  3  0  0  0  0  0  0
  161.2170  204.1880  150.3450 C   0  0  0  0  0  3  0  0  0  0  0  0
  161.6640  205.3640  146.6970 C   0  0  0  0  0  0  0  0  0  0  0  0
  161.9560  209.2470  149.2220 O   0  0  0  0  0  1  0  0  0  0  0  0
  160.4560  207.7010  150.4660 C   0  0  0  0  0  2  0  0  0  0  0  0
  161.7530  206.9530  150.1440 C   0  0  2  0  0  3  0  0  0  0  0  0
  161.7580  208.4540  150.3550 C   0  0  1  0  0  0  0  0  0  0  0  0
  162.3830  208.8840  151.5980 N   0  0  0  0  0  2  0  0  0  0  0  0
  161.9550  209.9440  152.4690 C   0  0  0  0  0  0  0  0  0  0  0  0
  162.5780  210.0970  153.5540 O   0  0  0  0  0  0  0  0  0  0  0  0
  158.5120  211.5730  152.4850 C   0  0  0  0  0  3  0  0  0  0  0  0
  159.5690  210.7150  152.7990 C   0  0  0  0  0  3  0  0  0  0  0  0
  160.8170  210.8510  152.1710 C   0  0  0  0  0  0  0  0  0  0  0  0
  159.9220  212.7220  150.8920 C   0  0  0  0  0  3  0  0  0  0  0  0
  160.9770  211.8610  151.2090 C   0  0  0  0  0  3  0  0  0  0  0  0
  158.6890  212.5790  151.5310 C   0  0  0  0  0  3  0  0  0  0  0  0
  1 11  2  0  0  0  0
  1  6  1  0  0  0  0
  2 15  2  0  0  0  0
  2  8  1  0  0  0  0
  3  8  2  0  0  0  0
  5 15  1  0  0  0  0
  6 14  1  0  0  0  0
  7  4  1  0  0  0  0
  8 10  1  0  0  0  0
  9 12  1  0  0  0  0
 10  6  2  0  0  0  0
 10 12  1  0  0  0  0
 12 13  2  0  0  0  0
 13  7  1  0  0  0  0
 14  7  2  0  0  0  0
 15  1  1  0  0  0  0
 18 11  1  6  0  0  0
 18 19  1  0  0  0  0
 18 17  1  0  0  0  0
 19 16  1  6  0  0  0
 19 17  1  0  0  0  0
 19 20  1  0  0  0  0
 20 21  1  0  0  0  0
 21 22  2  0  0  0  0
 23 24  1  0  0  0  0
 25 21  1  0  0  0  0
 25 24  2  0  0  0  0
 26 27  2  0  0  0  0
 26 28  1  0  0  0  0
 27 25  1  0  0  0  0
 28 23  2  0  0  0  0
M  END
>  <MODEL>
9

>  <REMARK>
 VINA RESULT:      -7.5      2.110      3.932
  Name = 
  3 active torsions:
  status: ('A' for Active; 'I' for Inactive)
    1  A    between atoms: N_2  and  C_28
    2  A    between atoms: C_6  and  C_19
    3  A    between atoms: N_17  and  C_27
                            x       y       z     vdW  Elec       q    Type
                         _______ _______ _______ _____ _____    ______ ____

>  <TORSDO>
F 3

$$$$
