=
 OpenBabel11072410373D

 54 57  0  0  1  0  0  0  0  0999 V2000
  161.7360  208.7450  151.9130 C   0  0  1  0  0  3  0  0  0  0  0  0
  161.8880  209.7760  150.8150 C   0  0  0  0  0  2  0  0  0  0  0  0
  162.9640  210.6230  151.1030 O   0  0  0  0  0  1  0  0  0  0  0  0
  161.6500  209.4400  153.2590 C   0  0  0  0  0  2  0  0  0  0  0  0
  160.3420  210.0460  153.4240 N   0  0  0  0  0  2  0  0  0  0  0  0
  160.5450  211.4150  153.8770 C   0  0  2  0  0  3  0  0  0  0  0  0
  161.3560  211.4150  155.0170 O   0  0  0  0  0  1  0  0  0  0  0  0
  159.2010  212.0960  154.1560 C   0  0  1  0  0  3  0  0  0  0  0  0
  159.1040  212.6370  155.5820 C   0  0  0  0  0  2  0  0  0  0  0  0
  158.5260  211.5820  156.5100 C   0  0  0  0  0  1  0  0  0  0  0  0
  158.8220  213.1480  153.1070 C   0  0  2  0  0  3  0  0  0  0  0  0
  156.8060  213.8080  153.7760 C   0  0  0  0  0  1  0  0  0  0  0  0
  157.4620  213.0560  152.7940 O   0  0  0  0  0  0  0  0  0  0  0  0
  159.6640  213.0240  151.8380 C   0  0  0  0  0  2  0  0  0  0  0  0
  159.1740  213.9720  150.7530 C   0  0  0  0  0  2  0  0  0  0  0  0
  157.8490  213.2940  148.8780 O   0  0  0  0  0  1  0  0  0  0  0  0
  159.1500  213.2860  149.3870 C   0  0  1  0  0  3  0  0  0  0  0  0
  160.0230  213.9890  148.4620 N   0  0  0  0  0  2  0  0  0  0  0  0
  161.5050  212.2070  148.1690 O   0  0  0  0  0  0  0  0  0  0  0  0
  161.2000  213.3980  147.9070 C   0  0  0  0  0  0  0  0  0  0  0  0
  162.0510  214.1680  146.9560 C   0  0  0  0  0  2  0  0  0  0  0  0
  163.1950  213.4870  144.8390 C   0  0  0  0  0  3  0  0  0  0  0  0
  160.8020  213.1980  145.0220 C   0  0  0  0  0  3  0  0  0  0  0  0
  161.9330  212.0380  141.5800 C   0  0  0  0  0  1  0  0  0  0  0  0
  162.0180  213.5960  145.5820 C   0  0  0  0  0  0  0  0  0  0  0  0
  163.1570  212.9800  143.5390 C   0  0  0  0  0  3  0  0  0  0  0  0
  161.9410  212.5840  142.9670 C   0  0  0  0  0  0  0  0  0  0  0  0
  159.5050  212.3040  143.1610 N   0  0  0  0  0  1  0  0  0  0  0  0
  160.7530  212.7000  143.7120 C   0  0  0  0  0  0  0  0  0  0  0  0
  160.4830  207.9240  151.6780 C   0  0  0  0  0  2  0  0  0  0  0  0
  161.0400  204.0080  146.6850 N   0  0  0  0  0  2  0  0  0  0  0  0
  162.6450  206.4560  147.4910 C   0  0  0  0  0  3  0  0  0  0  0  0
  162.8760  205.7270  146.3980 C   0  0  0  0  0  3  0  0  0  0  0  0
  160.3290  202.7920  146.2950 C   0  0  0  0  0  2  0  0  0  0  0  0
  159.2190  201.4370  151.2680 O   0  0  0  0  0  1  0  0  0  0  0  0
  161.1770  201.5500  146.5440 C   0  0  1  0  0  3  0  0  0  0  0  0
  162.6970  200.9720  151.9650 O   0  0  0  0  0  1  0  0  0  0  0  0
  161.6440  202.0000  148.8450 O   0  0  0  0  0  0  0  0  0  0  0  0
  161.6930  207.1630  149.6290 C   0  0  0  0  0  2  0  0  0  0  0  0
  162.4210  202.0150  151.0760 C   0  0  2  0  0  3  0  0  0  0  0  0
  160.8090  206.7300  150.7910 C   0  0  1  0  0  3  0  0  0  0  0  0
  161.5430  206.2000  148.4680 C   0  0  0  0  0  2  0  0  0  0  0  0
  161.9540  203.2370  151.8620 C   0  0  2  0  0  3  0  0  0  0  0  0
  161.5170  205.6780  151.6350 C   0  0  0  0  0  2  0  0  0  0  0  0
  162.1340  204.5400  145.9450 C   0  0  0  0  0  0  0  0  0  0  0  0
  162.4880  203.9880  144.8750 O   0  0  0  0  0  0  0  0  0  0  0  0
  160.4810  203.4270  151.5670 C   0  0  1  0  0  3  0  0  0  0  0  0
  161.0520  201.0760  147.9850 C   0  0  0  0  0  2  0  0  0  0  0  0
  161.5050  204.3430  150.9230 C   0  0  2  0  0  3  0  0  0  0  0  0
  161.3080  201.5890  150.1370 C   0  0  1  0  0  3  0  0  0  0  0  0
  160.0610  202.3260  150.6030 C   0  0  1  0  0  3  0  0  0  0  0  0
  160.0550  200.7340  144.6140 O   0  0  0  0  0  0  0  0  0  0  0  0
  160.7700  200.4650  145.6150 C   0  0  0  0  0  0  0  0  0  0  0  0
  161.1890  199.1580  145.8230 O   0  0  0  0  0  1  0  0  0  0  0  0
  1  2  1  6  0  0  0
  1  4  1  0  0  0  0
  2  3  1  0  0  0  0
  4  5  1  0  0  0  0
  5  6  1  0  0  0  0
  6  8  1  0  0  0  0
  6  7  1  1  0  0  0
  8  9  1  1  0  0  0
  9 10  1  0  0  0  0
 11 14  1  6  0  0  0
 11  8  1  0  0  0  0
 13 11  1  0  0  0  0
 13 12  1  0  0  0  0
 15 14  1  0  0  0  0
 17 16  1  6  0  0  0
 17 15  1  0  0  0  0
 18 17  1  0  0  0  0
 20 19  2  0  0  0  0
 20 18  1  0  0  0  0
 21 20  1  0  0  0  0
 22 25  1  0  0  0  0
 23 25  2  0  0  0  0
 24 27  1  0  0  0  0
 25 21  1  0  0  0  0
 26 22  2  0  0  0  0
 27 26  1  0  0  0  0
 27 29  2  0  0  0  0
 28 29  1  0  0  0  0
 29 23  1  0  0  0  0
 30  1  1  0  0  0  0
 32 42  1  0  0  0  0
 33 32  2  0  0  0  0
 34 36  1  0  0  0  0
 34 31  1  0  0  0  0
 36 53  1  6  0  0  0
 36 48  1  0  0  0  0
 38 50  1  0  0  0  0
 39 41  1  0  0  0  0
 40 43  1  0  0  0  0
 40 37  1  1  0  0  0
 41 44  1  0  0  0  0
 41 30  1  1  0  0  0
 42 39  1  0  0  0  0
 45 33  1  0  0  0  0
 45 31  1  0  0  0  0
 46 45  2  0  0  0  0
 47 43  1  0  0  0  0
 48 38  1  0  0  0  0
 49 47  1  0  0  0  0
 49 44  1  0  0  0  0
 49 43  1  0  0  0  0
 50 51  1  0  0  0  0
 50 40  1  0  0  0  0
 51 35  1  0  0  0  0
 51 47  1  0  0  0  0
 52 53  2  0  0  0  0
 53 54  1  0  0  0  0
M  END
>  <MODEL>
1

>  <REMARK>
 VINA RESULT:      -4.2      0.000      0.000
  Name = 
  17 active torsions:
  status: ('A' for Active; 'I' for Inactive)
    1  A    between atoms: C_3  and  C_5
    2  A    between atoms: C_3  and  C_33
    3  A    between atoms: C_3  and  C_49
    4  A    between atoms: O_10  and  C_49
    5  A    between atoms: C_13  and  C_18
    6  A    between atoms: N_14  and  C_46
    7  A    between atoms: C_15  and  C_21
    8  A    between atoms: C_15  and  C_23
    9  A    between atoms: C_15  and  C_24
   10  A    between atoms: C_21  and  N_51
   11  A    between atoms: C_24  and  C_26
   12  A    between atoms: C_31  and  C_37
   13  A    between atoms: C_31  and  C_46
   14  A    between atoms: C_33  and  N_51
   15  A    between atoms: C_35  and  C_39
   16  A    between atoms: C_36  and  C_39
   17  A    between atoms: C_37  and  C_49
                            x       y       z     vdW  Elec       q    Type
                         _______ _______ _______ _____ _____    ______ ____

>  <TORSDO>
F 17

$$$$
=
 OpenBabel11072410373D

 54 57  0  0  1  0  0  0  0  0999 V2000
  161.1730  208.9070  153.6930 C   0  0  1  0  0  3  0  0  0  0  0  0
  160.5650  209.8170  152.6460 C   0  0  0  0  0  2  0  0  0  0  0  0
  161.3240  210.9870  152.5350 O   0  0  0  0  0  1  0  0  0  0  0  0
  161.0810  209.5640  155.0580 C   0  0  0  0  0  2  0  0  0  0  0  0
  159.7350  210.0570  155.2830 N   0  0  0  0  0  2  0  0  0  0  0  0
  159.8330  211.4790  155.5850 C   0  0  2  0  0  3  0  0  0  0  0  0
  160.6660  211.6660  156.6930 O   0  0  0  0  0  1  0  0  0  0  0  0
  158.4440  212.0750  155.8330 C   0  0  1  0  0  3  0  0  0  0  0  0
  158.4090  212.9860  157.0590 C   0  0  0  0  0  2  0  0  0  0  0  0
  158.5680  214.4390  156.6440 C   0  0  0  0  0  1  0  0  0  0  0  0
  157.8370  212.7430  154.5920 C   0  0  2  0  0  3  0  0  0  0  0  0
  155.6220  212.8320  154.4160 C   0  0  0  0  0  1  0  0  0  0  0  0
  156.7280  212.0180  154.1440 O   0  0  0  0  0  0  0  0  0  0  0  0
  158.8570  212.8960  153.4660 C   0  0  0  0  0  2  0  0  0  0  0  0
  158.4320  213.9720  152.4770 C   0  0  0  0  0  2  0  0  0  0  0  0
  156.8760  213.4640  150.7310 O   0  0  0  0  0  1  0  0  0  0  0  0
  158.2270  213.3910  151.0790 C   0  0  1  0  0  3  0  0  0  0  0  0
  159.0050  214.1420  150.1080 N   0  0  0  0  0  2  0  0  0  0  0  0
  160.6020  212.4700  149.7720 O   0  0  0  0  0  0  0  0  0  0  0  0
  160.1990  213.6310  149.5090 C   0  0  0  0  0  0  0  0  0  0  0  0
  160.9490  214.4470  148.5130 C   0  0  0  0  0  2  0  0  0  0  0  0
  159.5430  213.5760  146.6370 C   0  0  0  0  0  3  0  0  0  0  0  0
  161.9350  213.7320  146.3320 C   0  0  0  0  0  3  0  0  0  0  0  0
  160.3710  212.3010  143.1730 C   0  0  0  0  0  1  0  0  0  0  0  0
  160.8040  213.9180  147.1290 C   0  0  0  0  0  0  0  0  0  0  0  0
  159.4130  213.0510  145.3510 C   0  0  0  0  0  3  0  0  0  0  0  0
  160.5430  212.8560  144.5460 C   0  0  0  0  0  0  0  0  0  0  0  0
  162.9800  213.0100  144.2500 N   0  0  0  0  0  1  0  0  0  0  0  0
  161.8150  213.1930  145.0430 C   0  0  0  0  0  0  0  0  0  0  0  0
  160.4380  207.5810  153.7110 C   0  0  0  0  0  2  0  0  0  0  0  0
  161.1620  205.7380  147.6560 N   0  0  0  0  0  2  0  0  0  0  0  0
  162.7650  207.6740  149.3590 C   0  0  0  0  0  3  0  0  0  0  0  0
  163.0360  207.3860  148.0850 C   0  0  0  0  0  3  0  0  0  0  0  0
  160.4510  204.7700  146.8230 C   0  0  0  0  0  2  0  0  0  0  0  0
  159.0970  201.7310  150.9130 O   0  0  0  0  0  1  0  0  0  0  0  0
  161.2690  203.4980  146.6320 C   0  0  1  0  0  3  0  0  0  0  0  0
  162.5320  200.9380  151.5190 O   0  0  0  0  0  1  0  0  0  0  0  0
  161.6380  203.0640  148.9540 O   0  0  0  0  0  0  0  0  0  0  0  0
  161.7280  207.5820  151.5710 C   0  0  0  0  0  2  0  0  0  0  0  0
  162.3130  202.2410  151.0630 C   0  0  2  0  0  3  0  0  0  0  0  0
  160.7860  206.7830  152.4610 C   0  0  1  0  0  3  0  0  0  0  0  0
  161.6170  207.1140  150.1340 C   0  0  0  0  0  2  0  0  0  0  0  0
  161.8290  203.1060  152.2240 C   0  0  2  0  0  3  0  0  0  0  0  0
  161.4390  205.4750  152.8880 C   0  0  0  0  0  2  0  0  0  0  0  0
  162.2970  206.4690  147.2020 C   0  0  0  0  0  0  0  0  0  0  0  0
  162.6910  206.3340  146.0190 O   0  0  0  0  0  0  0  0  0  0  0  0
  160.3730  203.4360  151.9650 C   0  0  1  0  0  3  0  0  0  0  0  0
  161.0710  202.5350  147.7950 C   0  0  0  0  0  2  0  0  0  0  0  0
  161.4390  204.4910  151.7380 C   0  0  2  0  0  3  0  0  0  0  0  0
  161.2370  202.2210  149.9940 C   0  0  1  0  0  3  0  0  0  0  0  0
  159.9820  202.7750  150.6500 C   0  0  1  0  0  3  0  0  0  0  0  0
  160.7240  201.5900  145.3250 O   0  0  0  0  0  1  0  0  0  0  0  0
  160.8880  202.8380  145.3570 C   0  0  0  0  0  0  0  0  0  0  0  0
  160.6860  203.5830  144.2030 O   0  0  0  0  0  0  0  0  0  0  0  0
  1  2  1  6  0  0  0
  1 30  1  0  0  0  0
  1  4  1  0  0  0  0
  3  2  1  0  0  0  0
  4  5  1  0  0  0  0
  5  6  1  0  0  0  0
  6  8  1  0  0  0  0
  6  7  1  1  0  0  0
  8  9  1  1  0  0  0
 10  9  1  0  0  0  0
 11 14  1  6  0  0  0
 11  8  1  0  0  0  0
 13 12  1  0  0  0  0
 13 11  1  0  0  0  0
 15 14  1  0  0  0  0
 17 16  1  6  0  0  0
 17 15  1  0  0  0  0
 18 17  1  0  0  0  0
 20 19  2  0  0  0  0
 20 18  1  0  0  0  0
 21 20  1  0  0  0  0
 22 25  1  0  0  0  0
 23 25  2  0  0  0  0
 24 27  1  0  0  0  0
 25 21  1  0  0  0  0
 26 22  2  0  0  0  0
 27 29  2  0  0  0  0
 27 26  1  0  0  0  0
 28 29  1  0  0  0  0
 29 23  1  0  0  0  0
 32 42  1  0  0  0  0
 33 32  2  0  0  0  0
 34 31  1  0  0  0  0
 36 53  1  6  0  0  0
 36 34  1  0  0  0  0
 36 48  1  0  0  0  0
 38 50  1  0  0  0  0
 39 41  1  0  0  0  0
 40 37  1  1  0  0  0
 40 43  1  0  0  0  0
 41 44  1  0  0  0  0
 41 30  1  1  0  0  0
 42 39  1  0  0  0  0
 45 31  1  0  0  0  0
 45 33  1  0  0  0  0
 46 45  2  0  0  0  0
 47 43  1  0  0  0  0
 48 38  1  0  0  0  0
 49 47  1  0  0  0  0
 49 43  1  0  0  0  0
 49 44  1  0  0  0  0
 50 51  1  0  0  0  0
 50 40  1  0  0  0  0
 51 35  1  0  0  0  0
 51 47  1  0  0  0  0
 52 53  1  0  0  0  0
 54 53  2  0  0  0  0
M  END
>  <MODEL>
2

>  <REMARK>
 VINA RESULT:      -3.7      1.498      2.086
  Name = 
  17 active torsions:
  status: ('A' for Active; 'I' for Inactive)
    1  A    between atoms: C_3  and  C_5
    2  A    between atoms: C_3  and  C_33
    3  A    between atoms: C_3  and  C_49
    4  A    between atoms: O_10  and  C_49
    5  A    between atoms: C_13  and  C_18
    6  A    between atoms: N_14  and  C_46
    7  A    between atoms: C_15  and  C_21
    8  A    between atoms: C_15  and  C_23
    9  A    between atoms: C_15  and  C_24
   10  A    between atoms: C_21  and  N_51
   11  A    between atoms: C_24  and  C_26
   12  A    between atoms: C_31  and  C_37
   13  A    between atoms: C_31  and  C_46
   14  A    between atoms: C_33  and  N_51
   15  A    between atoms: C_35  and  C_39
   16  A    between atoms: C_36  and  C_39
   17  A    between atoms: C_37  and  C_49
                            x       y       z     vdW  Elec       q    Type
                         _______ _______ _______ _____ _____    ______ ____

>  <TORSDO>
F 17

$$$$
=
 OpenBabel11072410373D

 54 57  0  0  1  0  0  0  0  0999 V2000
  160.9950  208.4230  152.2540 C   0  0  1  0  0  3  0  0  0  0  0  0
  161.1600  208.5170  153.7560 C   0  0  0  0  0  2  0  0  0  0  0  0
  160.4860  207.4590  154.3760 O   0  0  0  0  0  1  0  0  0  0  0  0
  160.7870  209.8100  151.6750 C   0  0  0  0  0  2  0  0  0  0  0  0
  159.8970  210.5770  152.5270 N   0  0  0  0  0  2  0  0  0  0  0  0
  160.1730  211.9880  152.2940 C   0  0  2  0  0  3  0  0  0  0  0  0
  160.1110  212.6840  153.5060 O   0  0  0  0  0  1  0  0  0  0  0  0
  159.1890  212.5690  151.2730 C   0  0  1  0  0  3  0  0  0  0  0  0
  158.5820  213.8930  151.7350 C   0  0  0  0  0  2  0  0  0  0  0  0
  157.6220  213.6610  152.8880 C   0  0  0  0  0  1  0  0  0  0  0  0
  159.7640  212.6550  149.8540 C   0  0  2  0  0  3  0  0  0  0  0  0
  161.6090  212.1480  148.7200 C   0  0  0  0  0  1  0  0  0  0  0  0
  161.1580  212.7540  149.8990 O   0  0  0  0  0  0  0  0  0  0  0  0
  159.1780  213.8240  149.0660 C   0  0  0  0  0  2  0  0  0  0  0  0
  158.8790  213.4290  147.6260 C   0  0  0  0  0  2  0  0  0  0  0  0
  161.0880  213.9230  146.8500 O   0  0  0  0  0  1  0  0  0  0  0  0
  159.7390  214.2220  146.6440 C   0  0  1  0  0  3  0  0  0  0  0  0
  159.3830  213.8750  145.2780 N   0  0  0  0  0  2  0  0  0  0  0  0
  161.1450  212.3730  144.9700 O   0  0  0  0  0  0  0  0  0  0  0  0
  160.1450  212.9600  144.4870 C   0  0  0  0  0  0  0  0  0  0  0  0
  159.7230  212.6390  143.0940 C   0  0  0  0  0  2  0  0  0  0  0  0
  161.5260  213.8880  141.8930 C   0  0  0  0  0  3  0  0  0  0  0  0
  161.2470  211.5280  141.4560 C   0  0  0  0  0  3  0  0  0  0  0  0
  164.0900  212.8620  139.3080 C   0  0  0  0  0  1  0  0  0  0  0  0
  160.8620  212.6850  142.1360 C   0  0  0  0  0  0  0  0  0  0  0  0
  162.5730  213.9360  140.9720 C   0  0  0  0  0  3  0  0  0  0  0  0
  162.9630  212.7820  140.2800 C   0  0  0  0  0  0  0  0  0  0  0  0
  162.6630  210.3810  139.8340 N   0  0  0  0  0  1  0  0  0  0  0  0
  162.2890  211.5700  140.5190 C   0  0  0  0  0  0  0  0  0  0  0  0
  162.2280  207.7900  151.6400 C   0  0  0  0  0  2  0  0  0  0  0  0
  161.2230  201.9400  149.3270 N   0  0  0  0  0  2  0  0  0  0  0  0
  159.7140  203.5490  151.4140 C   0  0  0  0  0  3  0  0  0  0  0  0
  159.3850  202.3140  151.0280 C   0  0  0  0  0  3  0  0  0  0  0  0
  161.8880  201.1570  148.2870 C   0  0  0  0  0  2  0  0  0  0  0  0
  163.3930  205.4170  145.5680 O   0  0  0  0  0  1  0  0  0  0  0  0
  161.0520  201.1050  147.0140 C   0  0  1  0  0  3  0  0  0  0  0  0
  159.9800  206.2320  144.8690 O   0  0  0  0  0  1  0  0  0  0  0  0
  160.7810  203.4680  146.7720 O   0  0  0  0  0  0  0  0  0  0  0  0
  160.8460  205.7150  151.4860 C   0  0  0  0  0  2  0  0  0  0  0  0
  160.1920  205.6640  146.1280 C   0  0  2  0  0  3  0  0  0  0  0  0
  161.8190  206.6250  150.7480 C   0  0  1  0  0  3  0  0  0  0  0  0
  160.8900  204.3160  150.9020 C   0  0  0  0  0  2  0  0  0  0  0  0
  160.7340  206.7290  147.0780 C   0  0  2  0  0  3  0  0  0  0  0  0
  161.1730  207.1840  149.4870 C   0  0  0  0  0  2  0  0  0  0  0  0
  160.0760  201.4780  150.0340 C   0  0  0  0  0  0  0  0  0  0  0  0
  159.6300  200.3270  149.8100 O   0  0  0  0  0  0  0  0  0  0  0  0
  162.1790  206.3820  147.3670 C   0  0  1  0  0  3  0  0  0  0  0  0
  161.2910  202.3320  146.1450 C   0  0  0  0  0  2  0  0  0  0  0  0
  161.1140  206.1170  148.4150 C   0  0  2  0  0  3  0  0  0  0  0  0
  161.2190  204.5540  146.0100 C   0  0  1  0  0  3  0  0  0  0  0  0
  162.5070  205.1090  146.5990 C   0  0  1  0  0  3  0  0  0  0  0  0
  161.9950  198.9340  146.8100 O   0  0  0  0  0  1  0  0  0  0  0  0
  161.3700  199.8720  146.2500 C   0  0  0  0  0  0  0  0  0  0  0  0
  160.9650  199.7290  144.9300 O   0  0  0  0  0  0  0  0  0  0  0  0
  1 30  1  6  0  0  0
  1  2  1  0  0  0  0
  2  3  1  0  0  0  0
  4  1  1  0  0  0  0
  4  5  1  0  0  0  0
  6  5  1  0  0  0  0
  6  7  1  1  0  0  0
  8  9  1  1  0  0  0
  8  6  1  0  0  0  0
  9 10  1  0  0  0  0
 11 14  1  1  0  0  0
 11 13  1  0  0  0  0
 11  8  1  0  0  0  0
 12 13  1  0  0  0  0
 15 14  1  0  0  0  0
 17 16  1  1  0  0  0
 17 15  1  0  0  0  0
 18 17  1  0  0  0  0
 20 19  2  0  0  0  0
 20 18  1  0  0  0  0
 21 20  1  0  0  0  0
 22 25  1  0  0  0  0
 23 25  2  0  0  0  0
 24 27  1  0  0  0  0
 25 21  1  0  0  0  0
 26 22  2  0  0  0  0
 27 29  2  0  0  0  0
 27 26  1  0  0  0  0
 28 29  1  0  0  0  0
 29 23  1  0  0  0  0
 31 45  1  0  0  0  0
 33 32  2  0  0  0  0
 34 31  1  0  0  0  0
 35 51  1  0  0  0  0
 36 53  1  6  0  0  0
 36 34  1  0  0  0  0
 40 37  1  6  0  0  0
 40 43  1  0  0  0  0
 41 39  1  0  0  0  0
 41 30  1  1  0  0  0
 42 32  1  0  0  0  0
 42 39  1  0  0  0  0
 43 47  1  0  0  0  0
 43 49  1  0  0  0  0
 44 41  1  0  0  0  0
 45 33  1  0  0  0  0
 46 45  2  0  0  0  0
 47 49  1  0  0  0  0
 48 38  1  0  0  0  0
 48 36  1  0  0  0  0
 49 44  1  0  0  0  0
 50 40  1  0  0  0  0
 50 51  1  0  0  0  0
 50 38  1  0  0  0  0
 51 47  1  0  0  0  0
 53 52  1  0  0  0  0
 54 53  2  0  0  0  0
M  END
>  <MODEL>
3

>  <REMARK>
 VINA RESULT:      -3.2      1.926      4.170
  Name = 
  17 active torsions:
  status: ('A' for Active; 'I' for Inactive)
    1  A    between atoms: C_3  and  C_5
    2  A    between atoms: C_3  and  C_33
    3  A    between atoms: C_3  and  C_49
    4  A    between atoms: O_10  and  C_49
    5  A    between atoms: C_13  and  C_18
    6  A    between atoms: N_14  and  C_46
    7  A    between atoms: C_15  and  C_21
    8  A    between atoms: C_15  and  C_23
    9  A    between atoms: C_15  and  C_24
   10  A    between atoms: C_21  and  N_51
   11  A    between atoms: C_24  and  C_26
   12  A    between atoms: C_31  and  C_37
   13  A    between atoms: C_31  and  C_46
   14  A    between atoms: C_33  and  N_51
   15  A    between atoms: C_35  and  C_39
   16  A    between atoms: C_36  and  C_39
   17  A    between atoms: C_37  and  C_49
                            x       y       z     vdW  Elec       q    Type
                         _______ _______ _______ _____ _____    ______ ____

>  <TORSDO>
F 17

$$$$
=
 OpenBabel11072410373D

 54 57  0  0  1  0  0  0  0  0999 V2000
  160.2460  209.5560  154.1560 C   0  0  1  0  0  3  0  0  0  0  0  0
  161.7010  209.8520  154.4550 C   0  0  0  0  0  2  0  0  0  0  0  0
  162.0050  209.4630  155.7640 O   0  0  0  0  0  1  0  0  0  0  0  0
  159.9120  210.0090  152.7460 C   0  0  0  0  0  2  0  0  0  0  0  0
  158.8020  210.9430  152.7740 N   0  0  0  0  0  2  0  0  0  0  0  0
  159.2700  212.1990  152.2040 C   0  0  2  0  0  3  0  0  0  0  0  0
  160.0940  212.8540  153.1260 O   0  0  0  0  0  1  0  0  0  0  0  0
  158.0860  213.0830  151.7980 C   0  0  1  0  0  3  0  0  0  0  0  0
  157.5440  213.9070  152.9650 C   0  0  0  0  0  2  0  0  0  0  0  0
  156.0520  214.1380  152.8030 C   0  0  0  0  0  1  0  0  0  0  0  0
  158.3630  213.9400  150.5570 C   0  0  2  0  0  3  0  0  0  0  0  0
  157.5650  214.3850  148.5290 C   0  0  0  0  0  1  0  0  0  0  0  0
  157.1760  214.1820  149.8590 O   0  0  0  0  0  0  0  0  0  0  0  0
  159.3960  213.2980  149.6340 C   0  0  0  0  0  2  0  0  0  0  0  0
  160.6250  214.1830  149.4770 C   0  0  0  0  0  2  0  0  0  0  0  0
  162.4270  213.1430  148.2940 O   0  0  0  0  0  1  0  0  0  0  0  0
  161.3030  213.9550  148.1270 C   0  0  1  0  0  3  0  0  0  0  0  0
  160.3820  213.3030  147.2100 N   0  0  0  0  0  2  0  0  0  0  0  0
  161.9490  213.0090  145.5030 O   0  0  0  0  0  0  0  0  0  0  0  0
  160.7650  212.8760  145.9010 C   0  0  0  0  0  0  0  0  0  0  0  0
  159.7760  212.2050  145.0100 C   0  0  0  0  0  2  0  0  0  0  0  0
  159.1250  213.4950  142.9690 C   0  0  0  0  0  3  0  0  0  0  0  0
  160.9820  211.9550  142.8370 C   0  0  0  0  0  3  0  0  0  0  0  0
  160.4550  213.5580  139.4280 C   0  0  0  0  0  1  0  0  0  0  0  0
  159.9710  212.5680  143.5790 C   0  0  0  0  0  0  0  0  0  0  0  0
  159.2900  213.8100  141.6190 C   0  0  0  0  0  3  0  0  0  0  0  0
  160.2980  213.1950  140.8650 C   0  0  0  0  0  0  0  0  0  0  0  0
  162.1810  211.6170  140.7400 N   0  0  0  0  0  1  0  0  0  0  0  0
  161.1470  212.2560  141.4780 C   0  0  0  0  0  0  0  0  0  0  0  0
  159.9840  208.0690  154.2930 C   0  0  0  0  0  2  0  0  0  0  0  0
  161.1560  206.4980  148.2320 N   0  0  0  0  0  2  0  0  0  0  0  0
  162.5070  208.4990  150.0730 C   0  0  0  0  0  3  0  0  0  0  0  0
  162.8630  208.2780  148.8060 C   0  0  0  0  0  3  0  0  0  0  0  0
  160.5700  205.5050  147.3340 C   0  0  0  0  0  2  0  0  0  0  0  0
  159.2720  202.2290  151.2560 O   0  0  0  0  0  1  0  0  0  0  0  0
  161.4980  204.3100  147.1480 C   0  0  1  0  0  3  0  0  0  0  0  0
  162.7270  201.6970  152.0160 O   0  0  0  0  0  1  0  0  0  0  0  0
  161.7870  203.8290  149.4730 O   0  0  0  0  0  0  0  0  0  0  0  0
  161.3730  208.2480  152.2240 C   0  0  0  0  0  2  0  0  0  0  0  0
  162.4230  202.9920  151.5880 C   0  0  2  0  0  3  0  0  0  0  0  0
  160.4580  207.3450  153.0400 C   0  0  1  0  0  3  0  0  0  0  0  0
  161.3730  207.8210  150.7700 C   0  0  0  0  0  2  0  0  0  0  0  0
  161.8120  203.7760  152.7470 C   0  0  2  0  0  3  0  0  0  0  0  0
  161.1950  206.0810  153.4610 C   0  0  0  0  0  2  0  0  0  0  0  0
  162.2480  207.3340  147.8600 C   0  0  0  0  0  0  0  0  0  0  0  0
  162.7090  207.2720  146.6950 O   0  0  0  0  0  0  0  0  0  0  0  0
  160.3490  203.9940  152.4230 C   0  0  1  0  0  3  0  0  0  0  0  0
  161.3240  203.2960  148.2700 C   0  0  0  0  0  2  0  0  0  0  0  0
  161.3340  205.1400  152.2840 C   0  0  2  0  0  3  0  0  0  0  0  0
  161.4070  202.9210  150.4640 C   0  0  1  0  0  3  0  0  0  0  0  0
  160.0790  203.3490  151.0710 C   0  0  1  0  0  3  0  0  0  0  0  0
  161.4490  204.3050  144.7730 O   0  0  0  0  0  0  0  0  0  0  0  0
  161.2370  203.6650  145.8360 C   0  0  0  0  0  0  0  0  0  0  0  0
  160.7850  202.3550  145.7650 O   0  0  0  0  0  1  0  0  0  0  0  0
  1  4  1  6  0  0  0
  1 30  1  0  0  0  0
  1  2  1  0  0  0  0
  2  3  1  0  0  0  0
  4  5  1  0  0  0  0
  6  5  1  0  0  0  0
  6  7  1  1  0  0  0
  8  6  1  0  0  0  0
  8  9  1  1  0  0  0
 10  9  1  0  0  0  0
 11 14  1  6  0  0  0
 11  8  1  0  0  0  0
 12 13  1  0  0  0  0
 13 11  1  0  0  0  0
 15 14  1  0  0  0  0
 17 16  1  1  0  0  0
 17 15  1  0  0  0  0
 18 17  1  0  0  0  0
 19 20  2  0  0  0  0
 20 18  1  0  0  0  0
 21 20  1  0  0  0  0
 22 25  1  0  0  0  0
 23 25  2  0  0  0  0
 24 27  1  0  0  0  0
 25 21  1  0  0  0  0
 26 22  2  0  0  0  0
 27 29  2  0  0  0  0
 27 26  1  0  0  0  0
 28 29  1  0  0  0  0
 29 23  1  0  0  0  0
 32 42  1  0  0  0  0
 33 32  2  0  0  0  0
 34 31  1  0  0  0  0
 36 53  1  6  0  0  0
 36 34  1  0  0  0  0
 36 48  1  0  0  0  0
 38 50  1  0  0  0  0
 39 41  1  0  0  0  0
 40 37  1  1  0  0  0
 40 43  1  0  0  0  0
 41 44  1  0  0  0  0
 41 30  1  1  0  0  0
 42 39  1  0  0  0  0
 45 31  1  0  0  0  0
 45 33  1  0  0  0  0
 46 45  2  0  0  0  0
 47 43  1  0  0  0  0
 48 38  1  0  0  0  0
 49 47  1  0  0  0  0
 49 43  1  0  0  0  0
 49 44  1  0  0  0  0
 50 51  1  0  0  0  0
 50 40  1  0  0  0  0
 51 35  1  0  0  0  0
 51 47  1  0  0  0  0
 52 53  2  0  0  0  0
 54 53  1  0  0  0  0
M  END
>  <MODEL>
4

>  <REMARK>
 VINA RESULT:      -2.2      1.855      2.953
  Name = 
  17 active torsions:
  status: ('A' for Active; 'I' for Inactive)
    1  A    between atoms: C_3  and  C_5
    2  A    between atoms: C_3  and  C_33
    3  A    between atoms: C_3  and  C_49
    4  A    between atoms: O_10  and  C_49
    5  A    between atoms: C_13  and  C_18
    6  A    between atoms: N_14  and  C_46
    7  A    between atoms: C_15  and  C_21
    8  A    between atoms: C_15  and  C_23
    9  A    between atoms: C_15  and  C_24
   10  A    between atoms: C_21  and  N_51
   11  A    between atoms: C_24  and  C_26
   12  A    between atoms: C_31  and  C_37
   13  A    between atoms: C_31  and  C_46
   14  A    between atoms: C_33  and  N_51
   15  A    between atoms: C_35  and  C_39
   16  A    between atoms: C_36  and  C_39
   17  A    between atoms: C_37  and  C_49
                            x       y       z     vdW  Elec       q    Type
                         _______ _______ _______ _____ _____    ______ ____

>  <TORSDO>
F 17

$$$$
=
 OpenBabel11072410373D

 54 58  0  0  1  0  0  0  0  0999 V2000
  160.7080  209.8370  152.1770 C   0  0  1  0  0  3  0  0  0  0  0  0
  161.3290  210.7660  153.1980 C   0  0  0  0  0  2  0  0  0  0  0  0
  162.6610  210.4030  153.4230 O   0  0  0  0  0  1  0  0  0  0  0  0
  161.5890  209.7690  150.9440 C   0  0  2  0  0  3  0  0  0  0  0  0
  161.9560  211.1070  150.5190 N   0  0  0  0  0  2  0  0  0  0  0  0
  161.3270  211.3460  149.2270 C   0  0  2  0  0  3  0  0  0  0  0  0
  162.1360  210.8300  148.2100 O   0  0  0  0  0  1  0  0  0  0  0  0
  161.0680  212.8420  149.0220 C   0  0  1  0  0  3  0  0  0  0  0  0
  161.6360  213.3570  147.7000 C   0  0  0  0  0  2  0  0  0  0  0  0
  163.1320  213.5910  147.8220 C   0  0  0  0  0  1  0  0  0  0  0  0
  159.6000  213.2390  149.2200 C   0  0  2  0  0  3  0  0  0  0  0  0
  157.6770  213.8190  148.2630 C   0  0  0  0  0  1  0  0  0  0  0  0
  159.0470  213.6750  148.0110 O   0  0  0  0  0  0  0  0  0  0  0  0
  159.4350  214.3130  150.2920 C   0  0  0  0  0  2  0  0  0  0  0  0
  159.2370  213.6950  151.6700 C   0  0  0  0  0  2  0  0  0  0  0  0
  156.9090  214.2370  151.7970 O   0  0  0  0  0  1  0  0  0  0  0  0
  158.1330  214.4130  152.4460 C   0  0  1  0  0  3  0  0  0  0  0  0
  158.0370  213.8700  153.7910 N   0  0  0  0  0  2  0  0  0  0  0  0
  157.7150  211.6590  153.1090 O   0  0  0  0  0  0  0  0  0  0  0  0
  157.8030  212.4850  154.0520 C   0  0  0  0  0  0  0  0  0  0  0  0
  157.7220  211.9880  155.4550 C   0  0  0  0  0  2  0  0  0  0  0  0
  160.0880  211.9700  156.2660 C   0  0  0  0  0  3  0  0  0  0  0  0
  158.9880  209.8650  155.8210 C   0  0  0  0  0  3  0  0  0  0  0  0
  162.5520  209.1860  156.9650 C   0  0  0  0  0  1  0  0  0  0  0  0
  158.9550  211.2600  155.8660 C   0  0  0  0  0  0  0  0  0  0  0  0
  161.2520  211.2880  156.6200 C   0  0  0  0  0  3  0  0  0  0  0  0
  161.2970  209.8880  156.5720 C   0  0  0  0  0  0  0  0  0  0  0  0
  160.1700  207.7520  156.1060 N   0  0  0  0  0  1  0  0  0  0  0  0
  160.1570  209.1720  156.1630 C   0  0  0  0  0  0  0  0  0  0  0  0
  160.5490  208.4510  152.7710 C   0  0  0  0  0  2  0  0  0  0  0  0
  161.0010  205.3220  147.2420 N   0  0  0  0  0  2  0  0  0  0  0  0
  162.6560  207.5920  148.3920 C   0  0  0  0  0  3  0  0  0  0  0  0
  162.8680  207.0310  147.2000 C   0  0  0  0  0  3  0  0  0  0  0  0
  160.2640  204.1910  146.6790 C   0  0  0  0  0  2  0  0  0  0  0  0
  159.1590  202.1240  151.4010 O   0  0  0  0  0  1  0  0  0  0  0  0
  161.0900  202.9120  146.7310 C   0  0  1  0  0  3  0  0  0  0  0  0
  162.6320  201.4970  151.9900 O   0  0  0  0  0  1  0  0  0  0  0  0
  161.5800  203.0020  149.0700 O   0  0  0  0  0  0  0  0  0  0  0  0
  161.7310  207.9860  150.6210 C   0  0  1  0  0  3  0  0  0  0  0  0
  162.3700  202.6660  151.2710 C   0  0  2  0  0  3  0  0  0  0  0  0
  160.8460  207.3980  151.7120 C   0  0  1  0  0  3  0  0  0  0  0  0
  161.5570  207.2120  149.3290 C   0  0  0  0  0  2  0  0  0  0  0  0
  161.9310  203.7640  152.2350 C   0  0  2  0  0  3  0  0  0  0  0  0
  161.5390  206.2190  152.3820 C   0  0  0  0  0  2  0  0  0  0  0  0
  162.1010  205.9400  146.5800 C   0  0  0  0  0  0  0  0  0  0  0  0
  162.4370  205.5480  145.4370 O   0  0  0  0  0  0  0  0  0  0  0  0
  160.4600  204.0230  151.9860 C   0  0  1  0  0  3  0  0  0  0  0  0
  160.9650  202.2280  148.0860 C   0  0  0  0  0  2  0  0  0  0  0  0
  161.4970  205.0070  151.4780 C   0  0  2  0  0  3  0  0  0  0  0  0
  161.2440  202.4070  150.2880 C   0  0  1  0  0  3  0  0  0  0  0  0
  160.0140  203.0880  150.8700 C   0  0  1  0  0  3  0  0  0  0  0  0
  160.8120  200.7440  145.7980 O   0  0  0  0  0  1  0  0  0  0  0  0
  160.6570  201.9850  145.6540 C   0  0  0  0  0  0  0  0  0  0  0  0
  160.0590  202.4690  144.4980 O   0  0  0  0  0  0  0  0  0  0  0  0
  1 30  1  0  0  0  0
  1  2  1  1  0  0  0
  2  3  1  0  0  0  0
  4  5  1  6  0  0  0
  4  1  1  0  0  0  0
  6  7  1  6  0  0  0
  6  5  1  0  0  0  0
  8  9  1  6  0  0  0
  8 11  1  0  0  0  0
  8  6  1  0  0  0  0
  9 10  1  0  0  0  0
 11 14  1  1  0  0  0
 13 12  1  0  0  0  0
 13 11  1  0  0  0  0
 14 15  1  0  0  0  0
 15 17  1  0  0  0  0
 17 16  1  6  0  0  0
 17 18  1  0  0  0  0
 18 20  1  0  0  0  0
 19 20  2  0  0  0  0
 20 21  1  0  0  0  0
 21 25  1  0  0  0  0
 22 26  1  0  0  0  0
 23 25  1  0  0  0  0
 23 29  2  0  0  0  0
 25 22  2  0  0  0  0
 27 26  2  0  0  0  0
 27 24  1  0  0  0  0
 28 29  1  0  0  0  0
 29 27  1  0  0  0  0
 32 42  1  0  0  0  0
 33 32  2  0  0  0  0
 34 36  1  0  0  0  0
 34 31  1  0  0  0  0
 36 53  1  6  0  0  0
 36 48  1  0  0  0  0
 38 50  1  0  0  0  0
 39 42  1  6  0  0  0
 39  4  1  0  0  0  0
 39 41  1  0  0  0  0
 40 37  1  1  0  0  0
 40 43  1  0  0  0  0
 41 44  1  1  0  0  0
 41 30  1  0  0  0  0
 45 33  1  0  0  0  0
 45 31  1  0  0  0  0
 46 45  2  0  0  0  0
 47 43  1  0  0  0  0
 48 38  1  0  0  0  0
 49 47  1  0  0  0  0
 49 43  1  0  0  0  0
 49 44  1  0  0  0  0
 50 51  1  0  0  0  0
 50 40  1  0  0  0  0
 51 35  1  0  0  0  0
 51 47  1  0  0  0  0
 53 52  1  0  0  0  0
 54 53  2  0  0  0  0
M  END
>  <MODEL>
5

>  <REMARK>
 VINA RESULT:      -2.0      2.251      6.136
  Name = 
  17 active torsions:
  status: ('A' for Active; 'I' for Inactive)
    1  A    between atoms: C_3  and  C_5
    2  A    between atoms: C_3  and  C_33
    3  A    between atoms: C_3  and  C_49
    4  A    between atoms: O_10  and  C_49
    5  A    between atoms: C_13  and  C_18
    6  A    between atoms: N_14  and  C_46
    7  A    between atoms: C_15  and  C_21
    8  A    between atoms: C_15  and  C_23
    9  A    between atoms: C_15  and  C_24
   10  A    between atoms: C_21  and  N_51
   11  A    between atoms: C_24  and  C_26
   12  A    between atoms: C_31  and  C_37
   13  A    between atoms: C_31  and  C_46
   14  A    between atoms: C_33  and  N_51
   15  A    between atoms: C_35  and  C_39
   16  A    between atoms: C_36  and  C_39
   17  A    between atoms: C_37  and  C_49
                            x       y       z     vdW  Elec       q    Type
                         _______ _______ _______ _____ _____    ______ ____

>  <TORSDO>
F 17

$$$$
=
 OpenBabel11072410373D

 54 57  0  0  1  0  0  0  0  0999 V2000
  161.1560  208.4210  153.4210 C   0  0  1  0  0  3  0  0  0  0  0  0
  160.0610  209.0560  152.5900 C   0  0  0  0  0  2  0  0  0  0  0  0
  160.4760  210.3120  152.1360 O   0  0  0  0  0  1  0  0  0  0  0  0
  161.2120  209.0820  154.7850 C   0  0  0  0  0  2  0  0  0  0  0  0
  159.9030  209.5930  155.1450 N   0  0  0  0  0  2  0  0  0  0  0  0
  159.9770  211.0470  155.1240 C   0  0  2  0  0  3  0  0  0  0  0  0
  161.3130  211.4460  155.0190 O   0  0  0  0  0  1  0  0  0  0  0  0
  159.3220  211.6390  156.3770 C   0  0  1  0  0  3  0  0  0  0  0  0
  160.3190  212.3900  157.2580 C   0  0  0  0  0  2  0  0  0  0  0  0
  160.0840  213.8880  157.1650 C   0  0  0  0  0  1  0  0  0  0  0  0
  158.0690  212.4690  156.0750 C   0  0  2  0  0  3  0  0  0  0  0  0
  156.6770  210.7410  156.2280 C   0  0  0  0  0  1  0  0  0  0  0  0
  156.9760  211.9830  156.8000 O   0  0  0  0  0  0  0  0  0  0  0  0
  157.7420  212.4940  154.5830 C   0  0  0  0  0  2  0  0  0  0  0  0
  157.1700  213.8410  154.1630 C   0  0  0  0  0  2  0  0  0  0  0  0
  154.8220  214.3060  154.1750 O   0  0  0  0  0  1  0  0  0  0  0  0
  155.8320  213.6750  153.4440 C   0  0  1  0  0  3  0  0  0  0  0  0
  155.9000  214.2730  152.1210 N   0  0  0  0  0  2  0  0  0  0  0  0
  157.3990  212.7050  151.2540 O   0  0  0  0  0  0  0  0  0  0  0  0
  156.7250  213.7500  151.0770 C   0  0  0  0  0  0  0  0  0  0  0  0
  156.7450  214.4030  149.7370 C   0  0  0  0  0  2  0  0  0  0  0  0
  159.2130  214.2710  149.3540 C   0  0  0  0  0  3  0  0  0  0  0  0
  157.7210  213.3200  147.7090 C   0  0  0  0  0  3  0  0  0  0  0  0
  161.3130  212.8540  146.5450 C   0  0  0  0  0  1  0  0  0  0  0  0
  157.9180  213.9800  148.9230 C   0  0  0  0  0  0  0  0  0  0  0  0
  160.3100  213.9020  148.5750 C   0  0  0  0  0  3  0  0  0  0  0  0
  160.1220  213.2440  147.3520 C   0  0  0  0  0  0  0  0  0  0  0  0
  158.5940  212.2870  145.6790 N   0  0  0  0  0  1  0  0  0  0  0  0
  158.8170  212.9560  146.9130 C   0  0  0  0  0  0  0  0  0  0  0  0
  160.8870  206.9370  153.5800 C   0  0  0  0  0  2  0  0  0  0  0  0
  160.8810  205.5680  147.3580 N   0  0  0  0  0  2  0  0  0  0  0  0
  162.7200  207.3290  149.0140 C   0  0  0  0  0  3  0  0  0  0  0  0
  162.8380  207.1380  147.6980 C   0  0  0  0  0  3  0  0  0  0  0  0
  160.0540  204.6850  146.5380 C   0  0  0  0  0  2  0  0  0  0  0  0
  159.0720  201.3580  150.5090 O   0  0  0  0  0  1  0  0  0  0  0  0
  160.8080  203.4150  146.1590 C   0  0  1  0  0  3  0  0  0  0  0  0
  162.5290  200.4490  150.6620 O   0  0  0  0  0  1  0  0  0  0  0  0
  161.4180  202.7900  148.3850 O   0  0  0  0  0  0  0  0  0  0  0  0
  161.9320  207.0830  151.3150 C   0  0  0  0  0  2  0  0  0  0  0  0
  162.2990  201.7880  150.3350 C   0  0  2  0  0  3  0  0  0  0  0  0
  161.0710  206.2340  152.2410 C   0  0  1  0  0  3  0  0  0  0  0  0
  161.6480  206.7320  149.8670 C   0  0  0  0  0  2  0  0  0  0  0  0
  161.9720  202.5680  151.6050 C   0  0  2  0  0  3  0  0  0  0  0  0
  161.7290  204.8830  152.4900 C   0  0  0  0  0  2  0  0  0  0  0  0
  161.9800  206.3100  146.8370 C   0  0  0  0  0  0  0  0  0  0  0  0
  162.2360  206.2620  145.6100 O   0  0  0  0  0  0  0  0  0  0  0  0
  160.5070  202.9470  151.5380 C   0  0  1  0  0  3  0  0  0  0  0  0
  160.7120  202.3670  147.2600 C   0  0  0  0  0  2  0  0  0  0  0  0
  161.5720  203.9950  151.2750 C   0  0  2  0  0  3  0  0  0  0  0  0
  161.1110  201.8750  149.3950 C   0  0  1  0  0  3  0  0  0  0  0  0
  159.9530  202.4020  150.2290 C   0  0  1  0  0  3  0  0  0  0  0  0
  160.3850  201.6380  144.6400 O   0  0  0  0  0  1  0  0  0  0  0  0
  160.2690  202.8670  144.8880 C   0  0  0  0  0  0  0  0  0  0  0  0
  159.6150  203.6890  143.9810 O   0  0  0  0  0  0  0  0  0  0  0  0
  1  2  1  6  0  0  0
  1 30  1  0  0  0  0
  1  4  1  0  0  0  0
  3  2  1  0  0  0  0
  4  5  1  0  0  0  0
  6  7  1  1  0  0  0
  6  5  1  0  0  0  0
  6  8  1  0  0  0  0
  8  9  1  6  0  0  0
 10  9  1  0  0  0  0
 11 14  1  6  0  0  0
 11  8  1  0  0  0  0
 11 13  1  0  0  0  0
 12 13  1  0  0  0  0
 15 14  1  0  0  0  0
 17 15  1  0  0  0  0
 17 16  1  1  0  0  0
 18 17  1  0  0  0  0
 20 19  2  0  0  0  0
 20 18  1  0  0  0  0
 21 20  1  0  0  0  0
 23 25  2  0  0  0  0
 24 27  1  0  0  0  0
 25 22  1  0  0  0  0
 25 21  1  0  0  0  0
 26 22  2  0  0  0  0
 27 26  1  0  0  0  0
 28 29  1  0  0  0  0
 29 27  2  0  0  0  0
 29 23  1  0  0  0  0
 32 42  1  0  0  0  0
 33 32  2  0  0  0  0
 34 31  1  0  0  0  0
 36 53  1  6  0  0  0
 36 34  1  0  0  0  0
 36 48  1  0  0  0  0
 38 50  1  0  0  0  0
 39 41  1  0  0  0  0
 40 37  1  1  0  0  0
 40 43  1  0  0  0  0
 41 44  1  0  0  0  0
 41 30  1  1  0  0  0
 42 39  1  0  0  0  0
 45 31  1  0  0  0  0
 45 33  1  0  0  0  0
 46 45  2  0  0  0  0
 47 43  1  0  0  0  0
 48 38  1  0  0  0  0
 49 47  1  0  0  0  0
 49 43  1  0  0  0  0
 49 44  1  0  0  0  0
 50 51  1  0  0  0  0
 50 40  1  0  0  0  0
 51 35  1  0  0  0  0
 51 47  1  0  0  0  0
 52 53  1  0  0  0  0
 54 53  2  0  0  0  0
M  END
>  <MODEL>
6

>  <REMARK>
 VINA RESULT:      -2.0      1.991      3.250
  Name = 
  17 active torsions:
  status: ('A' for Active; 'I' for Inactive)
    1  A    between atoms: C_3  and  C_5
    2  A    between atoms: C_3  and  C_33
    3  A    between atoms: C_3  and  C_49
    4  A    between atoms: O_10  and  C_49
    5  A    between atoms: C_13  and  C_18
    6  A    between atoms: N_14  and  C_46
    7  A    between atoms: C_15  and  C_21
    8  A    between atoms: C_15  and  C_23
    9  A    between atoms: C_15  and  C_24
   10  A    between atoms: C_21  and  N_51
   11  A    between atoms: C_24  and  C_26
   12  A    between atoms: C_31  and  C_37
   13  A    between atoms: C_31  and  C_46
   14  A    between atoms: C_33  and  N_51
   15  A    between atoms: C_35  and  C_39
   16  A    between atoms: C_36  and  C_39
   17  A    between atoms: C_37  and  C_49
                            x       y       z     vdW  Elec       q    Type
                         _______ _______ _______ _____ _____    ______ ____

>  <TORSDO>
F 17

$$$$
=
 OpenBabel11072410373D

 54 57  0  0  1  0  0  0  0  0999 V2000
  161.5530  207.6860  152.5720 C   0  0  1  0  0  3  0  0  0  0  0  0
  161.7810  206.8160  153.7890 C   0  0  0  0  0  2  0  0  0  0  0  0
  160.5570  206.3350  154.2660 O   0  0  0  0  0  1  0  0  0  0  0  0
  161.6470  209.1490  152.9640 C   0  0  0  0  0  2  0  0  0  0  0  0
  161.2700  209.3170  154.3540 N   0  0  0  0  0  2  0  0  0  0  0  0
  160.9010  210.7130  154.5450 C   0  0  2  0  0  3  0  0  0  0  0  0
  162.0090  211.5290  154.2910 O   0  0  0  0  0  1  0  0  0  0  0  0
  160.3620  210.9410  155.9600 C   0  0  1  0  0  3  0  0  0  0  0  0
  160.7920  212.2880  156.5400 C   0  0  0  0  0  2  0  0  0  0  0  0
  162.1630  212.1740  157.1830 C   0  0  0  0  0  1  0  0  0  0  0  0
  158.8500  210.7110  156.0800 C   0  0  2  0  0  3  0  0  0  0  0  0
  158.6420  208.5280  155.7030 C   0  0  0  0  0  1  0  0  0  0  0  0
  158.4220  209.7840  155.1240 O   0  0  0  0  0  0  0  0  0  0  0  0
  158.0580  212.0100  155.9470 C   0  0  0  0  0  2  0  0  0  0  0  0
  156.6460  211.7480  155.4430 C   0  0  0  0  0  2  0  0  0  0  0  0
  156.2170  213.5220  156.9920 O   0  0  0  0  0  1  0  0  0  0  0  0
  155.6850  212.8490  155.8890 C   0  0  1  0  0  3  0  0  0  0  0  0
  155.4820  213.8010  154.8090 N   0  0  0  0  0  2  0  0  0  0  0  0
  155.0110  212.1890  153.1860 O   0  0  0  0  0  0  0  0  0  0  0  0
  155.1710  213.4020  153.4730 C   0  0  0  0  0  0  0  0  0  0  0  0
  154.9660  214.4270  152.4110 C   0  0  0  0  0  2  0  0  0  0  0  0
  155.5270  214.0820  149.9980 C   0  0  0  0  0  3  0  0  0  0  0  0
  157.3240  214.3640  151.5880 C   0  0  0  0  0  3  0  0  0  0  0  0
  158.8030  213.8330  148.1230 C   0  0  0  0  0  1  0  0  0  0  0  0
  155.9580  214.2990  151.3070 C   0  0  0  0  0  0  0  0  0  0  0  0
  156.4590  213.9320  148.9700 C   0  0  0  0  0  3  0  0  0  0  0  0
  157.8320  213.9890  149.2430 C   0  0  0  0  0  0  0  0  0  0  0  0
  159.6540  214.2670  150.8720 N   0  0  0  0  0  1  0  0  0  0  0  0
  158.2680  214.2010  150.5640 C   0  0  0  0  0  0  0  0  0  0  0  0
  162.5900  207.3710  151.5120 C   0  0  0  0  0  2  0  0  0  0  0  0
  161.0180  201.8010  148.8510 N   0  0  0  0  0  2  0  0  0  0  0  0
  159.7340  203.3660  151.1140 C   0  0  0  0  0  3  0  0  0  0  0  0
  159.2910  202.1920  150.6600 C   0  0  0  0  0  3  0  0  0  0  0  0
  161.5730  201.0470  147.7280 C   0  0  0  0  0  2  0  0  0  0  0  0
  163.3000  205.3640  145.2420 O   0  0  0  0  0  1  0  0  0  0  0  0
  160.6820  201.1530  146.4960 C   0  0  1  0  0  3  0  0  0  0  0  0
  159.9380  206.4900  144.7660 O   0  0  0  0  0  1  0  0  0  0  0  0
  160.5930  203.5410  146.4320 O   0  0  0  0  0  0  0  0  0  0  0  0
  161.0400  205.4260  151.2810 C   0  0  0  0  0  2  0  0  0  0  0  0
  160.1560  205.8170  145.9710 C   0  0  2  0  0  3  0  0  0  0  0  0
  162.0510  206.3090  150.5630 C   0  0  1  0  0  3  0  0  0  0  0  0
  160.9450  204.0750  150.6010 C   0  0  0  0  0  2  0  0  0  0  0  0
  160.8220  206.7640  146.9650 C   0  0  2  0  0  3  0  0  0  0  0  0
  161.3990  207.0070  149.3760 C   0  0  0  0  0  2  0  0  0  0  0  0
  159.8690  201.3790  149.5780 C   0  0  0  0  0  0  0  0  0  0  0  0
  159.3220  200.2850  149.2960 O   0  0  0  0  0  0  0  0  0  0  0  0
  162.2460  206.2860  147.1600 C   0  0  1  0  0  3  0  0  0  0  0  0
  160.9830  202.4170  145.7030 C   0  0  0  0  0  2  0  0  0  0  0  0
  161.2080  206.0290  148.2360 C   0  0  2  0  0  3  0  0  0  0  0  0
  161.0840  204.6420  145.7260 C   0  0  1  0  0  3  0  0  0  0  0  0
  162.4370  205.0510  146.2900 C   0  0  1  0  0  3  0  0  0  0  0  0
  161.7690  199.1230  145.9080 O   0  0  0  0  0  1  0  0  0  0  0  0
  160.8670  199.9580  145.6340 C   0  0  0  0  0  0  0  0  0  0  0  0
  160.0410  199.7350  144.5410 O   0  0  0  0  0  0  0  0  0  0  0  0
  1 30  1  6  0  0  0
  1  4  1  0  0  0  0
  1  2  1  0  0  0  0
  2  3  1  0  0  0  0
  4  5  1  0  0  0  0
  5  6  1  0  0  0  0
  6  7  1  1  0  0  0
  6  8  1  0  0  0  0
  8 11  1  0  0  0  0
  8  9  1  6  0  0  0
  9 10  1  0  0  0  0
 11 14  1  6  0  0  0
 13 12  1  0  0  0  0
 13 11  1  0  0  0  0
 15 17  1  0  0  0  0
 15 14  1  0  0  0  0
 17 16  1  1  0  0  0
 18 17  1  0  0  0  0
 19 20  2  0  0  0  0
 20 18  1  0  0  0  0
 21 20  1  0  0  0  0
 22 25  1  0  0  0  0
 24 27  1  0  0  0  0
 25 23  2  0  0  0  0
 25 21  1  0  0  0  0
 26 27  1  0  0  0  0
 26 22  2  0  0  0  0
 27 29  2  0  0  0  0
 29 28  1  0  0  0  0
 29 23  1  0  0  0  0
 31 45  1  0  0  0  0
 33 32  2  0  0  0  0
 34 31  1  0  0  0  0
 35 51  1  0  0  0  0
 36 53  1  6  0  0  0
 36 34  1  0  0  0  0
 40 37  1  6  0  0  0
 40 43  1  0  0  0  0
 41 39  1  0  0  0  0
 41 30  1  1  0  0  0
 42 32  1  0  0  0  0
 42 39  1  0  0  0  0
 43 47  1  0  0  0  0
 43 49  1  0  0  0  0
 44 41  1  0  0  0  0
 45 33  1  0  0  0  0
 46 45  2  0  0  0  0
 47 49  1  0  0  0  0
 48 38  1  0  0  0  0
 48 36  1  0  0  0  0
 49 44  1  0  0  0  0
 50 40  1  0  0  0  0
 50 51  1  0  0  0  0
 50 38  1  0  0  0  0
 51 47  1  0  0  0  0
 53 52  1  0  0  0  0
 54 53  2  0  0  0  0
M  END
>  <MODEL>
7

>  <REMARK>
 VINA RESULT:      -1.5      3.029      5.583
  Name = 
  17 active torsions:
  status: ('A' for Active; 'I' for Inactive)
    1  A    between atoms: C_3  and  C_5
    2  A    between atoms: C_3  and  C_33
    3  A    between atoms: C_3  and  C_49
    4  A    between atoms: O_10  and  C_49
    5  A    between atoms: C_13  and  C_18
    6  A    between atoms: N_14  and  C_46
    7  A    between atoms: C_15  and  C_21
    8  A    between atoms: C_15  and  C_23
    9  A    between atoms: C_15  and  C_24
   10  A    between atoms: C_21  and  N_51
   11  A    between atoms: C_24  and  C_26
   12  A    between atoms: C_31  and  C_37
   13  A    between atoms: C_31  and  C_46
   14  A    between atoms: C_33  and  N_51
   15  A    between atoms: C_35  and  C_39
   16  A    between atoms: C_36  and  C_39
   17  A    between atoms: C_37  and  C_49
                            x       y       z     vdW  Elec       q    Type
                         _______ _______ _______ _____ _____    ______ ____

>  <TORSDO>
F 17

$$$$
=
 OpenBabel11072410373D

 54 57  0  0  1  0  0  0  0  0999 V2000
  161.6180  206.1330  148.6600 C   0  0  1  0  0  3  0  0  0  0  0  0
  160.2970  206.6120  149.2250 C   0  0  0  0  0  2  0  0  0  0  0  0
  159.9750  205.8750  150.3700 O   0  0  0  0  0  1  0  0  0  0  0  0
  161.4190  205.6440  147.2370 C   0  0  0  0  0  2  0  0  0  0  0  0
  160.1830  206.1770  146.6960 N   0  0  0  0  0  2  0  0  0  0  0  0
  160.1700  205.8940  145.2680 C   0  0  2  0  0  3  0  0  0  0  0  0
  158.8530  205.6890  144.8420 O   0  0  0  0  0  1  0  0  0  0  0  0
  161.0480  204.6780  144.9510 C   0  0  1  0  0  3  0  0  0  0  0  0
  160.2430  203.3830  144.8630 C   0  0  0  0  0  2  0  0  0  0  0  0
  160.5870  202.4650  146.0230 C   0  0  0  0  0  1  0  0  0  0  0  0
  161.9560  204.8840  143.7320 C   0  0  2  0  0  3  0  0  0  0  0  0
  163.2740  204.3690  145.4480 C   0  0  0  0  0  1  0  0  0  0  0  0
  163.2930  204.6690  144.0810 O   0  0  0  0  0  0  0  0  0  0  0  0
  161.7880  206.2730  143.1190 C   0  0  0  0  0  2  0  0  0  0  0  0
  161.5530  206.1900  141.6170 C   0  0  0  0  0  2  0  0  0  0  0  0
  163.1440  206.0510  139.8340 O   0  0  0  0  0  1  0  0  0  0  0  0
  162.6660  206.8930  140.8410 C   0  0  1  0  0  3  0  0  0  0  0  0
  162.1570  208.1120  140.2350 N   0  0  0  0  0  2  0  0  0  0  0  0
  161.9980  207.2300  138.0770 O   0  0  0  0  0  0  0  0  0  0  0  0
  161.8660  208.2200  138.8390 C   0  0  0  0  0  0  0  0  0  0  0  0
  161.3380  209.4960  138.2780 C   0  0  0  0  0  2  0  0  0  0  0  0
  159.5960  210.6860  139.6210 C   0  0  0  0  0  3  0  0  0  0  0  0
  161.9270  211.1600  140.0460 C   0  0  0  0  0  3  0  0  0  0  0  0
  159.7850  213.3010  142.3480 C   0  0  0  0  0  1  0  0  0  0  0  0
  160.9450  210.4590  139.3440 C   0  0  0  0  0  0  0  0  0  0  0  0
  159.2290  211.6120  140.5980 C   0  0  0  0  0  3  0  0  0  0  0  0
  160.2070  212.3250  141.3040 C   0  0  0  0  0  0  0  0  0  0  0  0
  162.5830  212.8070  141.7200 N   0  0  0  0  0  1  0  0  0  0  0  0
  161.5670  212.1020  141.0200 C   0  0  0  0  0  0  0  0  0  0  0  0
  162.6260  207.2650  148.6770 C   0  0  0  0  0  2  0  0  0  0  0  0
  159.3140  211.0680  152.5690 N   0  0  0  0  0  2  0  0  0  0  0  0
  161.9530  209.6190  152.9630 C   0  0  0  0  0  3  0  0  0  0  0  0
  161.3680  210.3890  153.8830 C   0  0  0  0  0  3  0  0  0  0  0  0
  158.0760  211.8270  152.3970 C   0  0  0  0  0  2  0  0  0  0  0  0
  158.7810  212.4530  147.2100 O   0  0  0  0  0  1  0  0  0  0  0  0
  158.3590  213.3160  152.2340 C   0  0  1  0  0  3  0  0  0  0  0  0
  161.6880  214.4530  147.8000 O   0  0  0  0  0  1  0  0  0  0  0  0
  159.9130  213.0990  150.4300 O   0  0  0  0  0  0  0  0  0  0  0  0
  162.4010  208.5250  150.8230 C   0  0  0  0  0  2  0  0  0  0  0  0
  161.5080  213.4130  148.7150 C   0  0  2  0  0  3  0  0  0  0  0  0
  162.0160  208.4880  149.3500 C   0  0  1  0  0  3  0  0  0  0  0  0
  161.3850  209.3280  151.6120 C   0  0  0  0  0  2  0  0  0  0  0  0
  161.9720  212.1020  148.0860 C   0  0  2  0  0  3  0  0  0  0  0  0
  162.5200  209.7360  148.6370 C   0  0  0  0  0  2  0  0  0  0  0  0
  160.0910  211.1080  153.7620 C   0  0  0  0  0  0  0  0  0  0  0  0
  159.6870  211.7760  154.7450 O   0  0  0  0  0  0  0  0  0  0  0  0
  160.7380  211.2600  147.8340 C   0  0  1  0  0  3  0  0  0  0  0  0
  158.6870  213.6600  150.7870 C   0  0  0  0  0  2  0  0  0  0  0  0
  161.6570  210.9260  148.9940 C   0  0  2  0  0  3  0  0  0  0  0  0
  160.0330  213.2920  149.0510 C   0  0  1  0  0  3  0  0  0  0  0  0
  159.5340  212.0590  148.3140 C   0  0  1  0  0  3  0  0  0  0  0  0
  156.3060  214.4520  151.8580 O   0  0  0  0  0  0  0  0  0  0  0  0
  157.1860  214.1060  152.6890 C   0  0  0  0  0  0  0  0  0  0  0  0
  157.0350  214.4480  154.0260 O   0  0  0  0  0  1  0  0  0  0  0  0
  1  4  1  6  0  0  0
  1 30  1  0  0  0  0
  1  2  1  0  0  0  0
  2  3  1  0  0  0  0
  5  4  1  0  0  0  0
  6  7  1  1  0  0  0
  6  5  1  0  0  0  0
  8  9  1  6  0  0  0
  8  6  1  0  0  0  0
  9 10  1  0  0  0  0
 11 14  1  1  0  0  0
 11 13  1  0  0  0  0
 11  8  1  0  0  0  0
 13 12  1  0  0  0  0
 15 14  1  0  0  0  0
 17 16  1  6  0  0  0
 17 15  1  0  0  0  0
 18 17  1  0  0  0  0
 19 20  2  0  0  0  0
 20 18  1  0  0  0  0
 21 20  1  0  0  0  0
 21 25  1  0  0  0  0
 22 26  1  0  0  0  0
 23 29  2  0  0  0  0
 25 22  2  0  0  0  0
 25 23  1  0  0  0  0
 26 27  2  0  0  0  0
 27 24  1  0  0  0  0
 29 27  1  0  0  0  0
 29 28  1  0  0  0  0
 31 45  1  0  0  0  0
 32 33  2  0  0  0  0
 34 31  1  0  0  0  0
 35 51  1  0  0  0  0
 36 34  1  0  0  0  0
 36 53  1  6  0  0  0
 38 48  1  0  0  0  0
 39 42  1  0  0  0  0
 40 37  1  6  0  0  0
 40 50  1  0  0  0  0
 41 30  1  6  0  0  0
 41 39  1  0  0  0  0
 42 32  1  0  0  0  0
 43 40  1  0  0  0  0
 43 49  1  0  0  0  0
 44 49  1  0  0  0  0
 44 41  1  0  0  0  0
 45 33  1  0  0  0  0
 45 46  2  0  0  0  0
 47 43  1  0  0  0  0
 47 51  1  0  0  0  0
 47 49  1  0  0  0  0
 48 36  1  0  0  0  0
 50 38  1  0  0  0  0
 51 50  1  0  0  0  0
 52 53  2  0  0  0  0
 53 54  1  0  0  0  0
M  END
>  <MODEL>
8

>  <REMARK>
 VINA RESULT:      -1.2      2.844     10.194
  Name = 
  17 active torsions:
  status: ('A' for Active; 'I' for Inactive)
    1  A    between atoms: C_3  and  C_5
    2  A    between atoms: C_3  and  C_33
    3  A    between atoms: C_3  and  C_49
    4  A    between atoms: O_10  and  C_49
    5  A    between atoms: C_13  and  C_18
    6  A    between atoms: N_14  and  C_46
    7  A    between atoms: C_15  and  C_21
    8  A    between atoms: C_15  and  C_23
    9  A    between atoms: C_15  and  C_24
   10  A    between atoms: C_21  and  N_51
   11  A    between atoms: C_24  and  C_26
   12  A    between atoms: C_31  and  C_37
   13  A    between atoms: C_31  and  C_46
   14  A    between atoms: C_33  and  N_51
   15  A    between atoms: C_35  and  C_39
   16  A    between atoms: C_36  and  C_39
   17  A    between atoms: C_37  and  C_49
                            x       y       z     vdW  Elec       q    Type
                         _______ _______ _______ _____ _____    ______ ____

>  <TORSDO>
F 17

$$$$
