=
 OpenBabel11072414123D

 28 29  0  0  1  0  0  0  0  0999 V2000
  161.1340  205.9280  150.4700 C   0  0  2  0  0  3  0  0  0  0  0  0
  161.2730  203.2460  147.9100 N   0  0  0  0  0  0  0  0  0  0  0  0
  161.1920  204.5940  149.8730 N   0  0  0  0  0  0  0  0  0  0  0  0
  161.2660  204.4230  148.4510 C   0  0  0  0  0  3  0  0  0  0  0  0
  161.1070  203.4830  150.7280 C   0  0  0  0  0  0  0  0  0  0  0  0
  161.0360  202.5660  151.4310 N   0  0  0  0  0  0  0  0  0  0  0  0
  161.3490  203.0510  146.4950 C   0  0  0  0  0  0  0  0  0  0  0  0
  160.8820  201.9950  145.9930 O   0  0  0  0  0  0  0  0  0  0  0  0
  161.9560  204.0830  145.5900 C   0  0  0  0  0  2  0  0  0  0  0  0
  161.5100  205.4750  143.7300 F   0  0  0  0  0  0  0  0  0  0  0  0
  160.8980  204.8280  144.7850 C   0  0  0  0  0  0  0  0  0  0  0  0
  159.9640  203.9380  144.2870 F   0  0  0  0  0  0  0  0  0  0  0  0
  160.2630  205.7660  145.5800 F   0  0  0  0  0  0  0  0  0  0  0  0
  161.0190  207.0260  149.4170 C   0  0  0  0  0  2  0  0  0  0  0  0
  162.3410  207.5200  149.0700 N   0  0  0  0  0  1  0  0  0  0  0  0
  162.2740  206.1720  151.4670 C   0  0  0  0  0  2  0  0  0  0  0  0
  161.8320  206.2120  152.9300 C   0  0  0  0  0  2  0  0  0  0  0  0
  160.6980  207.2040  153.1530 C   0  0  0  0  0  2  0  0  0  0  0  0
  160.3360  210.3730  154.7360 C   0  0  2  0  0  3  0  0  0  0  0  0
  158.3460  211.5520  154.0210 C   0  0  0  0  0  2  0  0  0  0  0  0
  160.5800  208.9480  154.8380 N   0  0  0  0  0  2  0  0  0  0  0  0
  161.2230  208.5660  153.5880 C   0  0  2  0  0  3  0  0  0  0  0  0
  158.8980  210.6720  155.1200 C   0  0  0  0  0  2  0  0  0  0  0  0
  160.4960  210.7520  153.2820 C   0  0  2  0  0  3  0  0  0  0  0  0
  159.1280  211.1760  152.7840 C   0  0  0  0  0  2  0  0  0  0  0  0
  160.9380  209.5690  152.5660 N   0  0  0  0  0  0  0  0  0  0  0  0
  162.2050  209.9050  151.9340 C   0  0  0  0  0  2  0  0  0  0  0  0
  161.9500  210.5240  150.5740 C   0  0  0  0  0  1  0  0  0  0  0  0
  1 14  1  6  0  0  0
  1 16  1  0  0  0  0
  2  4  2  0  0  0  0
  3  1  1  0  0  0  0
  3  5  1  0  0  0  0
  4  3  1  0  0  0  0
  5  6  3  0  0  0  0
  7  2  1  0  0  0  0
  8  7  2  0  0  0  0
  9  7  1  0  0  0  0
 10 11  1  0  0  0  0
 11 13  1  0  0  0  0
 11  9  1  0  0  0  0
 12 11  1  0  0  0  0
 15 14  1  0  0  0  0
 16 17  1  0  0  0  0
 17 18  1  0  0  0  0
 19 21  1  0  0  0  0
 19 23  1  6  0  0  0
 20 23  1  0  0  0  0
 22 18  1  6  0  0  0
 22 21  1  0  0  0  0
 24 25  1  6  0  0  0
 24 19  1  0  0  0  0
 25 20  1  0  0  0  0
 26 24  1  0  0  0  0
 26 22  1  0  0  0  0
 27 26  1  0  0  0  0
 28 27  1  0  0  0  0
M  END
>  <MODEL>
1

>  <REMARK>
 VINA RESULT:      -7.2      0.000      0.000
  Name = 
  11 active torsions:
  status: ('A' for Active; 'I' for Inactive)
    1  A    between atoms: C_1  and  C_6
    2  A    between atoms: C_2  and  C_6
    3  A    between atoms: C_2  and  C_7
    4  A    between atoms: C_3  and  N_10
    5  A    between atoms: C_6  and  N_10
    6  A    between atoms: C_7  and  C_25
    7  A    between atoms: N_8  and  C_9
    8  A    between atoms: C_9  and  C_12
    9  A    between atoms: C_12  and  C_13
   10  A    between atoms: C_15  and  C_25
   11  A    between atoms: C_17  and  N_28
                            x       y       z     vdW  Elec       q    Type
                         _______ _______ _______ _____ _____    ______ ____

>  <TORSDO>
F 11

$$$$
=
 OpenBabel11072414123D

 28 29  0  0  1  0  0  0  0  0999 V2000
  161.4430  207.7080  149.9700 C   0  0  2  0  0  3  0  0  0  0  0  0
  161.4270  204.4730  148.1520 N   0  0  0  0  0  0  0  0  0  0  0  0
  161.3960  206.2680  149.7200 N   0  0  0  0  0  0  0  0  0  0  0  0
  161.5110  205.7440  148.3900 C   0  0  0  0  0  3  0  0  0  0  0  0
  161.1690  205.4140  150.8120 C   0  0  0  0  0  0  0  0  0  0  0  0
  160.9820  204.7100  151.7110 N   0  0  0  0  0  0  0  0  0  0  0  0
  161.5410  203.9290  146.8340 C   0  0  0  0  0  0  0  0  0  0  0  0
  161.1960  202.7350  146.6300 O   0  0  0  0  0  0  0  0  0  0  0  0
  162.0480  204.7500  145.6850 C   0  0  0  0  0  2  0  0  0  0  0  0
  161.4720  205.7890  143.6390 F   0  0  0  0  0  0  0  0  0  0  0  0
  160.9240  205.1590  144.7410 C   0  0  0  0  0  0  0  0  0  0  0  0
  160.2240  204.0440  144.3200 F   0  0  0  0  0  0  0  0  0  0  0  0
  160.0610  206.0350  145.3740 F   0  0  0  0  0  0  0  0  0  0  0  0
  162.0390  208.4770  148.7950 C   0  0  0  0  0  2  0  0  0  0  0  0
  162.0220  209.9030  149.0760 N   0  0  0  0  0  1  0  0  0  0  0  0
  162.1120  208.0480  151.3080 C   0  0  0  0  0  2  0  0  0  0  0  0
  161.2140  208.8070  152.2850 C   0  0  0  0  0  2  0  0  0  0  0  0
  161.8060  210.1550  152.6690 C   0  0  0  0  0  2  0  0  0  0  0  0
  161.4710  209.7150  156.1870 C   0  0  2  0  0  3  0  0  0  0  0  0
  160.6030  207.5340  156.7770 C   0  0  0  0  0  2  0  0  0  0  0  0
  162.2780  210.1130  155.0500 N   0  0  0  0  0  2  0  0  0  0  0  0
  161.3390  210.6000  154.0490 C   0  0  2  0  0  3  0  0  0  0  0  0
  161.8830  208.3280  156.6430 C   0  0  0  0  0  2  0  0  0  0  0  0
  160.0410  209.6200  155.7100 C   0  0  2  0  0  3  0  0  0  0  0  0
  159.6470  208.1580  155.7880 C   0  0  0  0  0  2  0  0  0  0  0  0
  160.0090  210.0670  154.3280 N   0  0  0  0  0  0  0  0  0  0  0  0
  159.0810  211.1870  154.2680 C   0  0  0  0  0  2  0  0  0  0  0  0
  158.6400  211.4090  152.8350 C   0  0  0  0  0  1  0  0  0  0  0  0
  1 14  1  6  0  0  0
  1 16  1  0  0  0  0
  2  4  2  0  0  0  0
  3  1  1  0  0  0  0
  3  5  1  0  0  0  0
  4  3  1  0  0  0  0
  5  6  3  0  0  0  0
  7  2  1  0  0  0  0
  8  7  2  0  0  0  0
  9  7  1  0  0  0  0
 10 11  1  0  0  0  0
 11 13  1  0  0  0  0
 11  9  1  0  0  0  0
 12 11  1  0  0  0  0
 14 15  1  0  0  0  0
 16 17  1  0  0  0  0
 17 18  1  0  0  0  0
 19 23  1  6  0  0  0
 21 19  1  0  0  0  0
 22 18  1  6  0  0  0
 22 26  1  0  0  0  0
 22 21  1  0  0  0  0
 23 20  1  0  0  0  0
 24 25  1  6  0  0  0
 24 19  1  0  0  0  0
 25 20  1  0  0  0  0
 26 24  1  0  0  0  0
 27 26  1  0  0  0  0
 28 27  1  0  0  0  0
M  END
>  <MODEL>
2

>  <REMARK>
 VINA RESULT:      -6.9      1.594      2.489
  Name = 
  11 active torsions:
  status: ('A' for Active; 'I' for Inactive)
    1  A    between atoms: C_1  and  C_6
    2  A    between atoms: C_2  and  C_6
    3  A    between atoms: C_2  and  C_7
    4  A    between atoms: C_3  and  N_10
    5  A    between atoms: C_6  and  N_10
    6  A    between atoms: C_7  and  C_25
    7  A    between atoms: N_8  and  C_9
    8  A    between atoms: C_9  and  C_12
    9  A    between atoms: C_12  and  C_13
   10  A    between atoms: C_15  and  C_25
   11  A    between atoms: C_17  and  N_28
                            x       y       z     vdW  Elec       q    Type
                         _______ _______ _______ _____ _____    ______ ____

>  <TORSDO>
F 11

$$$$
=
 OpenBabel11072414123D

 28 29  0  0  1  0  0  0  0  0999 V2000
  161.3910  207.9370  149.9130 C   0  0  2  0  0  3  0  0  0  0  0  0
  160.8480  204.2700  150.0620 N   0  0  0  0  0  0  0  0  0  0  0  0
  161.0530  206.5760  149.4980 N   0  0  0  0  0  0  0  0  0  0  0  0
  161.1030  205.4860  150.4290 C   0  0  0  0  0  3  0  0  0  0  0  0
  160.7410  206.3540  148.1470 C   0  0  0  0  0  0  0  0  0  0  0  0
  160.4840  206.1720  147.0330 N   0  0  0  0  0  0  0  0  0  0  0  0
  160.8890  203.1670  150.9730 C   0  0  0  0  0  0  0  0  0  0  0  0
  160.7010  203.3770  152.2000 O   0  0  0  0  0  0  0  0  0  0  0  0
  161.1350  201.7650  150.5000 C   0  0  0  0  0  2  0  0  0  0  0  0
  161.2080  200.3430  148.6100 F   0  0  0  0  0  0  0  0  0  0  0  0
  160.7910  201.5930  149.0250 C   0  0  0  0  0  0  0  0  0  0  0  0
  159.4240  201.6970  148.8390 F   0  0  0  0  0  0  0  0  0  0  0  0
  161.4340  202.5550  148.2680 F   0  0  0  0  0  0  0  0  0  0  0  0
  162.2590  208.6550  148.8850 C   0  0  0  0  0  2  0  0  0  0  0  0
  161.9100  210.0650  148.8390 N   0  0  0  0  0  1  0  0  0  0  0  0
  161.9760  207.9880  151.3310 C   0  0  0  0  0  2  0  0  0  0  0  0
  161.1370  208.7830  152.3300 C   0  0  0  0  0  2  0  0  0  0  0  0
  161.7590  210.1370  152.6420 C   0  0  0  0  0  2  0  0  0  0  0  0
  161.5400  209.8420  156.1840 C   0  0  2  0  0  3  0  0  0  0  0  0
  160.6770  207.6950  156.8910 C   0  0  0  0  0  2  0  0  0  0  0  0
  162.3110  210.1870  155.0060 N   0  0  0  0  0  2  0  0  0  0  0  0
  161.3420  210.6410  154.0170 C   0  0  2  0  0  3  0  0  0  0  0  0
  161.9570  208.4710  156.6820 C   0  0  0  0  0  2  0  0  0  0  0  0
  160.0940  209.7410  155.7600 C   0  0  2  0  0  3  0  0  0  0  0  0
  159.6920  208.2870  155.9110 C   0  0  0  0  0  2  0  0  0  0  0  0
  160.0180  210.1320  154.3630 N   0  0  0  0  0  0  0  0  0  0  0  0
  159.0980  211.2570  154.2890 C   0  0  0  0  0  2  0  0  0  0  0  0
  158.6110  211.4260  152.8630 C   0  0  0  0  0  1  0  0  0  0  0  0
  1 14  1  6  0  0  0
  1 16  1  0  0  0  0
  2  4  2  0  0  0  0
  2  7  1  0  0  0  0
  3  1  1  0  0  0  0
  3  4  1  0  0  0  0
  5  3  1  0  0  0  0
  6  5  3  0  0  0  0
  7  8  2  0  0  0  0
  9  7  1  0  0  0  0
 10 11  1  0  0  0  0
 11  9  1  0  0  0  0
 12 11  1  0  0  0  0
 13 11  1  0  0  0  0
 15 14  1  0  0  0  0
 16 17  1  0  0  0  0
 17 18  1  0  0  0  0
 19 23  1  6  0  0  0
 21 19  1  0  0  0  0
 22 18  1  6  0  0  0
 22 26  1  0  0  0  0
 22 21  1  0  0  0  0
 23 20  1  0  0  0  0
 24 25  1  6  0  0  0
 24 19  1  0  0  0  0
 25 20  1  0  0  0  0
 26 24  1  0  0  0  0
 27 26  1  0  0  0  0
 28 27  1  0  0  0  0
M  END
>  <MODEL>
3

>  <REMARK>
 VINA RESULT:      -6.9      2.696      3.947
  Name = 
  11 active torsions:
  status: ('A' for Active; 'I' for Inactive)
    1  A    between atoms: C_1  and  C_6
    2  A    between atoms: C_2  and  C_6
    3  A    between atoms: C_2  and  C_7
    4  A    between atoms: C_3  and  N_10
    5  A    between atoms: C_6  and  N_10
    6  A    between atoms: C_7  and  C_25
    7  A    between atoms: N_8  and  C_9
    8  A    between atoms: C_9  and  C_12
    9  A    between atoms: C_12  and  C_13
   10  A    between atoms: C_15  and  C_25
   11  A    between atoms: C_17  and  N_28
                            x       y       z     vdW  Elec       q    Type
                         _______ _______ _______ _____ _____    ______ ____

>  <TORSDO>
F 11

$$$$
=
 OpenBabel11072414123D

 28 29  0  0  1  0  0  0  0  0999 V2000
  162.0810  207.9170  151.2840 C   0  0  2  0  0  3  0  0  0  0  0  0
  161.9190  206.7550  147.7640 N   0  0  0  0  0  0  0  0  0  0  0  0
  161.9970  207.9500  149.8240 N   0  0  0  0  0  0  0  0  0  0  0  0
  161.9500  206.7380  149.0590 C   0  0  0  0  0  3  0  0  0  0  0  0
  162.0290  209.2010  149.1870 C   0  0  0  0  0  0  0  0  0  0  0  0
  162.0560  210.2330  148.6630 N   0  0  0  0  0  0  0  0  0  0  0  0
  161.8700  205.5590  146.9810 C   0  0  0  0  0  0  0  0  0  0  0  0
  161.4520  204.4950  147.5080 O   0  0  0  0  0  0  0  0  0  0  0  0
  162.2880  205.5440  145.5390 C   0  0  0  0  0  2  0  0  0  0  0  0
  160.0880  206.2850  145.0790 F   0  0  0  0  0  0  0  0  0  0  0  0
  161.0900  205.4620  144.6010 C   0  0  0  0  0  0  0  0  0  0  0  0
  161.4490  205.8800  143.3320 F   0  0  0  0  0  0  0  0  0  0  0  0
  160.6150  204.1640  144.5420 F   0  0  0  0  0  0  0  0  0  0  0  0
  161.9790  206.4990  151.8350 C   0  0  0  0  0  2  0  0  0  0  0  0
  161.2330  206.5040  153.0820 N   0  0  0  0  0  1  0  0  0  0  0  0
  161.0970  208.8900  151.9480 C   0  0  0  0  0  2  0  0  0  0  0  0
  161.7630  210.0530  152.6820 C   0  0  0  0  0  2  0  0  0  0  0  0
  160.7540  211.1190  153.0870 C   0  0  0  0  0  2  0  0  0  0  0  0
  161.3570  209.9590  156.4000 C   0  0  2  0  0  3  0  0  0  0  0  0
  160.7830  207.6260  156.6900 C   0  0  0  0  0  2  0  0  0  0  0  0
  161.8230  210.6570  155.2170 N   0  0  0  0  0  2  0  0  0  0  0  0
  160.6350  211.2310  154.6010 C   0  0  2  0  0  3  0  0  0  0  0  0
  161.9430  208.5600  156.4300 C   0  0  0  0  0  2  0  0  0  0  0  0
  159.8590  209.8110  156.2710 C   0  0  2  0  0  3  0  0  0  0  0  0
  159.5740  208.3300  156.1210 C   0  0  0  0  0  2  0  0  0  0  0  0
  159.4500  210.5170  155.0690 N   0  0  0  0  0  0  0  0  0  0  0  0
  158.4820  211.5240  155.4790 C   0  0  0  0  0  2  0  0  0  0  0  0
  157.0780  211.0290  155.1910 C   0  0  0  0  0  1  0  0  0  0  0  0
  1 14  1  1  0  0  0
  1 16  1  0  0  0  0
  2  4  2  0  0  0  0
  3  1  1  0  0  0  0
  4  3  1  0  0  0  0
  5  3  1  0  0  0  0
  6  5  3  0  0  0  0
  7  8  2  0  0  0  0
  7  2  1  0  0  0  0
  9  7  1  0  0  0  0
 11 10  1  0  0  0  0
 11  9  1  0  0  0  0
 12 11  1  0  0  0  0
 13 11  1  0  0  0  0
 14 15  1  0  0  0  0
 16 17  1  0  0  0  0
 17 18  1  0  0  0  0
 19 23  1  6  0  0  0
 21 19  1  0  0  0  0
 22 18  1  6  0  0  0
 22 26  1  0  0  0  0
 22 21  1  0  0  0  0
 23 20  1  0  0  0  0
 24 25  1  6  0  0  0
 24 19  1  0  0  0  0
 25 20  1  0  0  0  0
 26 27  1  0  0  0  0
 26 24  1  0  0  0  0
 28 27  1  0  0  0  0
M  END
>  <MODEL>
4

>  <REMARK>
 VINA RESULT:      -6.9      2.007      3.837
  Name = 
  11 active torsions:
  status: ('A' for Active; 'I' for Inactive)
    1  A    between atoms: C_1  and  C_6
    2  A    between atoms: C_2  and  C_6
    3  A    between atoms: C_2  and  C_7
    4  A    between atoms: C_3  and  N_10
    5  A    between atoms: C_6  and  N_10
    6  A    between atoms: C_7  and  C_25
    7  A    between atoms: N_8  and  C_9
    8  A    between atoms: C_9  and  C_12
    9  A    between atoms: C_12  and  C_13
   10  A    between atoms: C_15  and  C_25
   11  A    between atoms: C_17  and  N_28
                            x       y       z     vdW  Elec       q    Type
                         _______ _______ _______ _____ _____    ______ ____

>  <TORSDO>
F 11

$$$$
=
 OpenBabel11072414123D

 28 29  0  0  1  0  0  0  0  0999 V2000
  161.3510  206.6800  151.3160 C   0  0  2  0  0  3  0  0  0  0  0  0
  161.1700  203.9160  148.8470 N   0  0  0  0  0  0  0  0  0  0  0  0
  161.2450  205.3300  150.7640 N   0  0  0  0  0  0  0  0  0  0  0  0
  161.3050  205.1030  149.3490 C   0  0  0  0  0  3  0  0  0  0  0  0
  161.0180  204.2670  151.6530 C   0  0  0  0  0  0  0  0  0  0  0  0
  160.8310  203.3910  152.3860 N   0  0  0  0  0  0  0  0  0  0  0  0
  161.2280  203.6660  147.4390 C   0  0  0  0  0  0  0  0  0  0  0  0
  161.2050  202.4780  147.0250 O   0  0  0  0  0  0  0  0  0  0  0  0
  161.3000  204.7860  146.4430 C   0  0  0  0  0  2  0  0  0  0  0  0
  162.8300  203.8510  144.9000 F   0  0  0  0  0  0  0  0  0  0  0  0
  162.6770  204.8880  145.8000 C   0  0  0  0  0  0  0  0  0  0  0  0
  162.8020  206.0900  145.1270 F   0  0  0  0  0  0  0  0  0  0  0  0
  163.6650  204.7950  146.7640 F   0  0  0  0  0  0  0  0  0  0  0  0
  162.4820  207.4780  150.6750 C   0  0  0  0  0  2  0  0  0  0  0  0
  161.9400  208.6260  149.9670 N   0  0  0  0  0  1  0  0  0  0  0  0
  161.4100  206.6830  152.8480 C   0  0  0  0  0  2  0  0  0  0  0  0
  160.9250  207.9800  153.4950 C   0  0  0  0  0  2  0  0  0  0  0  0
  160.8810  207.8760  155.0130 C   0  0  0  0  0  2  0  0  0  0  0  0
  159.3090  211.0300  155.5200 C   0  0  2  0  0  3  0  0  0  0  0  0
  158.7990  212.1640  153.4440 C   0  0  0  0  0  2  0  0  0  0  0  0
  159.3800  209.6110  155.8060 N   0  0  0  0  0  2  0  0  0  0  0  0
  160.7840  209.2480  155.6660 C   0  0  2  0  0  3  0  0  0  0  0  0
  158.1960  211.2940  154.5230 C   0  0  0  0  0  2  0  0  0  0  0  0
  160.6070  211.4180  154.8510 C   0  0  2  0  0  3  0  0  0  0  0  0
  160.2680  211.8110  153.4270 C   0  0  0  0  0  2  0  0  0  0  0  0
  161.4660  210.2470  154.8500 N   0  0  0  0  0  0  0  0  0  0  0  0
  162.6840  210.6150  155.5570 C   0  0  0  0  0  2  0  0  0  0  0  0
  162.4160  210.6530  157.0490 C   0  0  0  0  0  1  0  0  0  0  0  0
  1 14  1  6  0  0  0
  1 16  1  0  0  0  0
  2  4  2  0  0  0  0
  3  1  1  0  0  0  0
  3  5  1  0  0  0  0
  4  3  1  0  0  0  0
  5  6  3  0  0  0  0
  7  2  1  0  0  0  0
  8  7  2  0  0  0  0
  9  7  1  0  0  0  0
 10 11  1  0  0  0  0
 11  9  1  0  0  0  0
 11 13  1  0  0  0  0
 12 11  1  0  0  0  0
 15 14  1  0  0  0  0
 16 17  1  0  0  0  0
 17 18  1  0  0  0  0
 19 23  1  6  0  0  0
 19 21  1  0  0  0  0
 20 23  1  0  0  0  0
 22 18  1  6  0  0  0
 22 21  1  0  0  0  0
 24 25  1  6  0  0  0
 24 19  1  0  0  0  0
 25 20  1  0  0  0  0
 26 24  1  0  0  0  0
 26 27  1  0  0  0  0
 26 22  1  0  0  0  0
 27 28  1  0  0  0  0
M  END
>  <MODEL>
5

>  <REMARK>
 VINA RESULT:      -6.8      1.620      2.286
  Name = 
  11 active torsions:
  status: ('A' for Active; 'I' for Inactive)
    1  A    between atoms: C_1  and  C_6
    2  A    between atoms: C_2  and  C_6
    3  A    between atoms: C_2  and  C_7
    4  A    between atoms: C_3  and  N_10
    5  A    between atoms: C_6  and  N_10
    6  A    between atoms: C_7  and  C_25
    7  A    between atoms: N_8  and  C_9
    8  A    between atoms: C_9  and  C_12
    9  A    between atoms: C_12  and  C_13
   10  A    between atoms: C_15  and  C_25
   11  A    between atoms: C_17  and  N_28
                            x       y       z     vdW  Elec       q    Type
                         _______ _______ _______ _____ _____    ______ ____

>  <TORSDO>
F 11

$$$$
=
 OpenBabel11072414123D

 28 29  0  0  1  0  0  0  0  0999 V2000
  161.6270  206.8840  150.5690 C   0  0  2  0  0  3  0  0  0  0  0  0
  160.9450  209.3190  153.2840 N   0  0  0  0  0  0  0  0  0  0  0  0
  161.3260  207.4200  151.8960 N   0  0  0  0  0  0  0  0  0  0  0  0
  161.1680  208.8300  152.1050 C   0  0  0  0  0  3  0  0  0  0  0  0
  161.2600  206.5220  152.9730 C   0  0  0  0  0  0  0  0  0  0  0  0
  161.2050  205.7810  153.8610 N   0  0  0  0  0  0  0  0  0  0  0  0
  160.7810  210.7220  153.5150 C   0  0  0  0  0  0  0  0  0  0  0  0
  161.0860  211.1980  154.6400 O   0  0  0  0  0  0  0  0  0  0  0  0
  160.2720  211.6420  152.4450 C   0  0  0  0  0  2  0  0  0  0  0  0
  158.8460  213.1970  153.5160 F   0  0  0  0  0  0  0  0  0  0  0  0
  158.8350  212.0770  152.7060 C   0  0  0  0  0  0  0  0  0  0  0  0
  158.2070  212.3890  151.5140 F   0  0  0  0  0  0  0  0  0  0  0  0
  158.1370  211.0680  153.3460 F   0  0  0  0  0  0  0  0  0  0  0  0
  161.7790  207.9840  149.5230 C   0  0  0  0  0  2  0  0  0  0  0  0
  162.6820  207.5490  148.4720 N   0  0  0  0  0  1  0  0  0  0  0  0
  160.6430  205.7870  150.1440 C   0  0  0  0  0  2  0  0  0  0  0  0
  161.2600  204.3930  150.0430 C   0  0  0  0  0  2  0  0  0  0  0  0
  160.5670  203.5400  148.9900 C   0  0  0  0  0  2  0  0  0  0  0  0
  162.4920  204.2770  146.0860 C   0  0  2  0  0  3  0  0  0  0  0  0
  161.2130  205.4320  144.3870 C   0  0  0  0  0  2  0  0  0  0  0  0
  162.3490  204.3030  147.5290 N   0  0  0  0  0  2  0  0  0  0  0  0
  161.5190  203.1550  147.8650 C   0  0  2  0  0  3  0  0  0  0  0  0
  162.1900  205.6520  145.5200 C   0  0  0  0  0  2  0  0  0  0  0  0
  161.4420  203.3330  145.5490 C   0  0  2  0  0  3  0  0  0  0  0  0
  160.4630  204.1730  144.7510 C   0  0  0  0  0  2  0  0  0  0  0  0
  160.7660  202.7350  146.6870 N   0  0  0  0  0  0  0  0  0  0  0  0
  160.9330  201.2940  146.5670 C   0  0  0  0  0  2  0  0  0  0  0  0
  161.3460  200.7140  147.9050 C   0  0  0  0  0  1  0  0  0  0  0  0
  1 14  1  6  0  0  0
  1  3  1  0  0  0  0
  2  7  1  0  0  0  0
  3  4  1  0  0  0  0
  3  5  1  0  0  0  0
  4  2  2  0  0  0  0
  5  6  3  0  0  0  0
  7  8  2  0  0  0  0
  9 11  1  0  0  0  0
  9  7  1  0  0  0  0
 11 13  1  0  0  0  0
 11 10  1  0  0  0  0
 12 11  1  0  0  0  0
 15 14  1  0  0  0  0
 16  1  1  0  0  0  0
 17 16  1  0  0  0  0
 18 17  1  0  0  0  0
 19 23  1  6  0  0  0
 19 21  1  0  0  0  0
 20 25  1  0  0  0  0
 20 23  1  0  0  0  0
 21 22  1  0  0  0  0
 22 18  1  1  0  0  0
 24 25  1  6  0  0  0
 24 19  1  0  0  0  0
 24 26  1  0  0  0  0
 26 22  1  0  0  0  0
 27 26  1  0  0  0  0
 27 28  1  0  0  0  0
M  END
>  <MODEL>
6

>  <REMARK>
 VINA RESULT:      -6.8      4.429      8.686
  Name = 
  11 active torsions:
  status: ('A' for Active; 'I' for Inactive)
    1  A    between atoms: C_1  and  C_6
    2  A    between atoms: C_2  and  C_6
    3  A    between atoms: C_2  and  C_7
    4  A    between atoms: C_3  and  N_10
    5  A    between atoms: C_6  and  N_10
    6  A    between atoms: C_7  and  C_25
    7  A    between atoms: N_8  and  C_9
    8  A    between atoms: C_9  and  C_12
    9  A    between atoms: C_12  and  C_13
   10  A    between atoms: C_15  and  C_25
   11  A    between atoms: C_17  and  N_28
                            x       y       z     vdW  Elec       q    Type
                         _______ _______ _______ _____ _____    ______ ____

>  <TORSDO>
F 11

$$$$
=
 OpenBabel11072414123D

 28 29  0  0  1  0  0  0  0  0999 V2000
  161.6160  206.7910  150.6700 C   0  0  2  0  0  3  0  0  0  0  0  0
  160.8320  206.8780  154.2950 N   0  0  0  0  0  0  0  0  0  0  0  0
  161.2660  206.3370  152.0150 N   0  0  0  0  0  0  0  0  0  0  0  0
  161.0990  207.2720  153.0910 C   0  0  0  0  0  3  0  0  0  0  0  0
  161.1600  204.9550  152.2410 C   0  0  0  0  0  0  0  0  0  0  0  0
  161.0730  203.8160  152.4270 N   0  0  0  0  0  0  0  0  0  0  0  0
  160.6600  207.7920  155.3820 C   0  0  0  0  0  0  0  0  0  0  0  0
  159.7170  207.6070  156.1970 O   0  0  0  0  0  0  0  0  0  0  0  0
  161.5850  208.9550  155.5870 C   0  0  0  0  0  2  0  0  0  0  0  0
  161.8220  210.6540  153.9580 F   0  0  0  0  0  0  0  0  0  0  0  0
  161.0170  210.2430  155.0020 C   0  0  0  0  0  0  0  0  0  0  0  0
  159.7370  210.0260  154.5260 F   0  0  0  0  0  0  0  0  0  0  0  0
  160.9890  211.2350  155.9660 F   0  0  0  0  0  0  0  0  0  0  0  0
  162.1810  208.2080  150.6680 C   0  0  0  0  0  2  0  0  0  0  0  0
  161.9560  208.8310  149.3750 N   0  0  0  0  0  1  0  0  0  0  0  0
  160.4660  206.6050  149.6720 C   0  0  0  0  0  2  0  0  0  0  0  0
  160.8420  205.8120  148.4200 C   0  0  0  0  0  2  0  0  0  0  0  0
  161.2100  204.3720  148.7500 C   0  0  0  0  0  2  0  0  0  0  0  0
  162.6610  204.3710  145.4980 C   0  0  2  0  0  3  0  0  0  0  0  0
  161.2500  205.4360  143.8450 C   0  0  0  0  0  2  0  0  0  0  0  0
  162.7820  204.6340  146.9180 N   0  0  0  0  0  2  0  0  0  0  0  0
  161.8920  203.6860  147.5740 C   0  0  2  0  0  3  0  0  0  0  0  0
  162.4320  205.6750  144.7560 C   0  0  0  0  0  2  0  0  0  0  0  0
  161.4250  203.5250  145.3020 C   0  0  2  0  0  3  0  0  0  0  0  0
  160.4290  204.3710  144.5340 C   0  0  0  0  0  2  0  0  0  0  0  0
  160.8960  203.2110  146.6180 N   0  0  0  0  0  0  0  0  0  0  0  0
  160.8630  201.7600  146.7250 C   0  0  0  0  0  2  0  0  0  0  0  0
  161.1360  201.3460  148.1570 C   0  0  0  0  0  1  0  0  0  0  0  0
  1 16  1  6  0  0  0
  1  3  1  0  0  0  0
  2  7  1  0  0  0  0
  3  5  1  0  0  0  0
  3  4  1  0  0  0  0
  4  2  2  0  0  0  0
  5  6  3  0  0  0  0
  7  9  1  0  0  0  0
  7  8  2  0  0  0  0
 10 11  1  0  0  0  0
 11  9  1  0  0  0  0
 11 13  1  0  0  0  0
 12 11  1  0  0  0  0
 14  1  1  0  0  0  0
 15 14  1  0  0  0  0
 17 18  1  0  0  0  0
 17 16  1  0  0  0  0
 19 23  1  6  0  0  0
 19 21  1  0  0  0  0
 20 25  1  0  0  0  0
 20 23  1  0  0  0  0
 21 22  1  0  0  0  0
 22 18  1  1  0  0  0
 24 25  1  6  0  0  0
 24 19  1  0  0  0  0
 24 26  1  0  0  0  0
 26 27  1  0  0  0  0
 26 22  1  0  0  0  0
 27 28  1  0  0  0  0
M  END
>  <MODEL>
7

>  <REMARK>
 VINA RESULT:      -6.7      4.580      8.726
  Name = 
  11 active torsions:
  status: ('A' for Active; 'I' for Inactive)
    1  A    between atoms: C_1  and  C_6
    2  A    between atoms: C_2  and  C_6
    3  A    between atoms: C_2  and  C_7
    4  A    between atoms: C_3  and  N_10
    5  A    between atoms: C_6  and  N_10
    6  A    between atoms: C_7  and  C_25
    7  A    between atoms: N_8  and  C_9
    8  A    between atoms: C_9  and  C_12
    9  A    between atoms: C_12  and  C_13
   10  A    between atoms: C_15  and  C_25
   11  A    between atoms: C_17  and  N_28
                            x       y       z     vdW  Elec       q    Type
                         _______ _______ _______ _____ _____    ______ ____

>  <TORSDO>
F 11

$$$$
=
 OpenBabel11072414123D

 28 29  0  0  1  0  0  0  0  0999 V2000
  161.1020  206.8590  150.2670 C   0  0  2  0  0  3  0  0  0  0  0  0
  160.8910  203.1880  150.7630 N   0  0  0  0  0  0  0  0  0  0  0  0
  161.1120  205.5550  150.9300 N   0  0  0  0  0  0  0  0  0  0  0  0
  160.9280  204.3450  150.1820 C   0  0  0  0  0  3  0  0  0  0  0  0
  161.2400  205.5240  152.3280 C   0  0  0  0  0  0  0  0  0  0  0  0
  161.3450  205.4970  153.4800 N   0  0  0  0  0  0  0  0  0  0  0  0
  160.7120  201.9680  150.0380 C   0  0  0  0  0  0  0  0  0  0  0  0
  161.2040  200.9030  150.4950 O   0  0  0  0  0  0  0  0  0  0  0  0
  159.9380  201.9230  148.7530 C   0  0  0  0  0  2  0  0  0  0  0  0
  161.5090  200.5220  147.6740 F   0  0  0  0  0  0  0  0  0  0  0  0
  160.8480  201.7290  147.5470 C   0  0  0  0  0  0  0  0  0  0  0  0
  160.1010  201.7120  146.3830 F   0  0  0  0  0  0  0  0  0  0  0  0
  161.7810  202.7480  147.4810 F   0  0  0  0  0  0  0  0  0  0  0  0
  160.8830  206.7400  148.7630 C   0  0  0  0  0  2  0  0  0  0  0  0
  162.1440  206.9110  148.0620 N   0  0  0  0  0  1  0  0  0  0  0  0
  162.3290  207.7070  150.6280 C   0  0  0  0  0  2  0  0  0  0  0  0
  162.0000  209.1330  151.0690 C   0  0  0  0  0  2  0  0  0  0  0  0
  160.7900  209.1770  151.9910 C   0  0  0  0  0  2  0  0  0  0  0  0
  161.5500  210.7940  155.0710 C   0  0  2  0  0  3  0  0  0  0  0  0
  160.7200  209.5790  156.9930 C   0  0  0  0  0  2  0  0  0  0  0  0
  161.9870  210.2980  153.7810 N   0  0  0  0  0  2  0  0  0  0  0  0
  160.8270  210.3940  152.9060 C   0  0  2  0  0  3  0  0  0  0  0  0
  161.9580  209.8160  156.1580 C   0  0  0  0  0  2  0  0  0  0  0  0
  160.0400  210.8300  155.0490 C   0  0  2  0  0  3  0  0  0  0  0  0
  159.5600  209.7980  156.0510 C   0  0  0  0  0  2  0  0  0  0  0  0
  159.6120  210.4590  153.7120 N   0  0  0  0  0  0  0  0  0  0  0  0
  158.8190  211.5660  153.1990 C   0  0  0  0  0  2  0  0  0  0  0  0
  159.7170  212.5410  152.4660 C   0  0  0  0  0  1  0  0  0  0  0  0
  1 14  1  6  0  0  0
  1 16  1  0  0  0  0
  1  3  1  0  0  0  0
  3  5  1  0  0  0  0
  4  2  2  0  0  0  0
  4  3  1  0  0  0  0
  5  6  3  0  0  0  0
  7  8  2  0  0  0  0
  7  2  1  0  0  0  0
  9  7  1  0  0  0  0
 11 10  1  0  0  0  0
 11  9  1  0  0  0  0
 12 11  1  0  0  0  0
 13 11  1  0  0  0  0
 15 14  1  0  0  0  0
 16 17  1  0  0  0  0
 17 18  1  0  0  0  0
 19 23  1  1  0  0  0
 21 19  1  0  0  0  0
 22 18  1  6  0  0  0
 22 26  1  0  0  0  0
 22 21  1  0  0  0  0
 23 20  1  0  0  0  0
 24 19  1  0  0  0  0
 24 25  1  1  0  0  0
 25 20  1  0  0  0  0
 26 24  1  0  0  0  0
 27 26  1  0  0  0  0
 28 27  1  0  0  0  0
M  END
>  <MODEL>
8

>  <REMARK>
 VINA RESULT:      -6.7      2.249      3.168
  Name = 
  11 active torsions:
  status: ('A' for Active; 'I' for Inactive)
    1  A    between atoms: C_1  and  C_6
    2  A    between atoms: C_2  and  C_6
    3  A    between atoms: C_2  and  C_7
    4  A    between atoms: C_3  and  N_10
    5  A    between atoms: C_6  and  N_10
    6  A    between atoms: C_7  and  C_25
    7  A    between atoms: N_8  and  C_9
    8  A    between atoms: C_9  and  C_12
    9  A    between atoms: C_12  and  C_13
   10  A    between atoms: C_15  and  C_25
   11  A    between atoms: C_17  and  N_28
                            x       y       z     vdW  Elec       q    Type
                         _______ _______ _______ _____ _____    ______ ____

>  <TORSDO>
F 11

$$$$
=
 OpenBabel11072414123D

 28 29  0  0  1  0  0  0  0  0999 V2000
  161.0070  206.5050  151.2580 C   0  0  2  0  0  3  0  0  0  0  0  0
  161.1710  210.1100  152.1210 N   0  0  0  0  0  0  0  0  0  0  0  0
  161.2550  207.9410  151.1360 N   0  0  0  0  0  0  0  0  0  0  0  0
  160.9960  208.8310  152.2320 C   0  0  0  0  0  3  0  0  0  0  0  0
  161.6920  208.4350  149.8970 C   0  0  0  0  0  0  0  0  0  0  0  0
  162.0510  208.8440  148.8750 N   0  0  0  0  0  0  0  0  0  0  0  0
  160.9210  211.0150  153.2010 C   0  0  0  0  0  0  0  0  0  0  0  0
  160.1870  212.0180  153.0040 O   0  0  0  0  0  0  0  0  0  0  0  0
  161.5010  210.7890  154.5670 C   0  0  0  0  0  2  0  0  0  0  0  0
  160.9830  209.8660  156.6820 F   0  0  0  0  0  0  0  0  0  0  0  0
  160.4190  210.5240  155.6060 C   0  0  0  0  0  0  0  0  0  0  0  0
  159.8750  211.7180  156.0440 F   0  0  0  0  0  0  0  0  0  0  0  0
  159.4210  209.7320  155.0680 F   0  0  0  0  0  0  0  0  0  0  0  0
  162.0110  205.8220  152.1810 C   0  0  0  0  0  2  0  0  0  0  0  0
  161.3510  205.3940  153.4020 N   0  0  0  0  0  1  0  0  0  0  0  0
  160.8840  205.8160  149.8930 C   0  0  0  0  0  2  0  0  0  0  0  0
  161.3630  204.3640  149.8750 C   0  0  0  0  0  2  0  0  0  0  0  0
  160.6300  203.5380  148.8280 C   0  0  0  0  0  2  0  0  0  0  0  0
  162.5620  204.3250  145.9410 C   0  0  2  0  0  3  0  0  0  0  0  0
  161.3320  205.6430  144.3260 C   0  0  0  0  0  2  0  0  0  0  0  0
  162.4370  204.2790  147.3850 N   0  0  0  0  0  2  0  0  0  0  0  0
  161.5460  203.1620  147.6700 C   0  0  2  0  0  3  0  0  0  0  0  0
  162.3320  205.7440  145.4550 C   0  0  0  0  0  2  0  0  0  0  0  0
  161.4520  203.4740  145.3680 C   0  0  2  0  0  3  0  0  0  0  0  0
  160.5150  204.4100  144.6320 C   0  0  0  0  0  2  0  0  0  0  0  0
  160.7570  202.8520  146.4810 N   0  0  0  0  0  0  0  0  0  0  0  0
  160.8390  201.4130  146.2800 C   0  0  0  0  0  2  0  0  0  0  0  0
  160.0310  201.0200  145.0590 C   0  0  0  0  0  1  0  0  0  0  0  0
  1 16  1  6  0  0  0
  1 14  1  0  0  0  0
  2  4  2  0  0  0  0
  2  7  1  0  0  0  0
  3  1  1  0  0  0  0
  3  4  1  0  0  0  0
  5  3  1  0  0  0  0
  6  5  3  0  0  0  0
  7  9  1  0  0  0  0
  8  7  2  0  0  0  0
  9 11  1  0  0  0  0
 11 12  1  0  0  0  0
 11 10  1  0  0  0  0
 13 11  1  0  0  0  0
 14 15  1  0  0  0  0
 17 16  1  0  0  0  0
 18 17  1  0  0  0  0
 19 23  1  6  0  0  0
 19 21  1  0  0  0  0
 20 25  1  0  0  0  0
 20 23  1  0  0  0  0
 21 22  1  0  0  0  0
 22 18  1  1  0  0  0
 24 25  1  1  0  0  0
 24 19  1  0  0  0  0
 24 26  1  0  0  0  0
 26 22  1  0  0  0  0
 27 26  1  0  0  0  0
 28 27  1  0  0  0  0
M  END
>  <MODEL>
9

>  <REMARK>
 VINA RESULT:      -6.7      4.736      9.201
  Name = 
  11 active torsions:
  status: ('A' for Active; 'I' for Inactive)
    1  A    between atoms: C_1  and  C_6
    2  A    between atoms: C_2  and  C_6
    3  A    between atoms: C_2  and  C_7
    4  A    between atoms: C_3  and  N_10
    5  A    between atoms: C_6  and  N_10
    6  A    between atoms: C_7  and  C_25
    7  A    between atoms: N_8  and  C_9
    8  A    between atoms: C_9  and  C_12
    9  A    between atoms: C_12  and  C_13
   10  A    between atoms: C_15  and  C_25
   11  A    between atoms: C_17  and  N_28
                            x       y       z     vdW  Elec       q    Type
                         _______ _______ _______ _____ _____    ______ ____

>  <TORSDO>
F 11

$$$$
