=
 OpenBabel11072411583D

 60 69  0  0  1  0  0  0  0  0999 V2000
  160.3030  207.5790  155.1800 C   0  0  0  0  0  2  0  0  0  0  0  0
  160.8800  208.9980  155.1520 C   0  0  2  0  0  3  0  0  0  0  0  0
  161.9910  208.6080  157.2560 F   0  0  0  0  0  0  0  0  0  0  0  0
  160.0570  209.7710  157.2510 F   0  0  0  0  0  0  0  0  0  0  0  0
  161.9320  210.7260  156.4640 F   0  0  0  0  0  0  0  0  0  0  0  0
  161.2310  209.5330  156.5510 C   0  0  0  0  0  0  0  0  0  0  0  0
  159.9190  209.8820  154.4890 N   0  0  0  0  0  2  0  0  0  0  0  0
  160.5660  210.7350  153.4810 C   0  0  2  0  0  0  0  0  0  0  0  0
  160.5500  210.0970  152.2350 O   0  0  0  0  0  1  0  0  0  0  0  0
  161.9440  210.9980  153.8750 N   0  0  0  0  0  1  0  0  0  0  0  0
  159.7700  212.0550  153.3680 C   0  0  2  0  0  3  0  0  0  0  0  0
  157.9570  212.6040  154.9670 N   0  0  0  0  0  0  0  0  0  0  0  0
  156.1700  212.8510  156.4720 F   0  0  0  0  0  0  0  0  0  0  0  0
  159.2900  212.6450  154.6750 C   0  0  0  0  0  0  0  0  0  0  0  0
  157.4930  212.9240  156.2050 C   0  0  0  0  0  0  0  0  0  0  0  0
  160.2050  213.0050  155.6740 C   0  0  0  0  0  3  0  0  0  0  0  0
  159.7450  213.3510  156.9420 C   0  0  0  0  0  3  0  0  0  0  0  0
  158.3810  213.3020  157.2160 C   0  0  0  0  0  3  0  0  0  0  0  0
  158.6380  211.9030  152.4670 N   0  0  0  0  0  2  0  0  0  0  0  0
  159.1690  211.6840  151.1870 N   0  0  0  0  0  2  0  0  0  0  0  0
  156.5530  214.2610  148.3250 O   0  0  0  0  0  0  0  0  0  0  0  0
  159.3310  214.3170  147.2950 C   0  0  0  0  0  2  0  0  0  0  0  0
  160.8590  213.5170  148.9620 C   0  0  0  0  0  2  0  0  0  0  0  0
  160.8010  214.3020  147.6560 C   0  0  0  0  0  2  0  0  0  0  0  0
  159.6290  212.7380  149.0740 N   0  0  2  0  0  0  0  0  0  0  0  0
  158.7270  213.3800  148.2120 N   0  0  0  0  0  0  0  0  0  0  0  0
  159.0710  212.9240  150.4290 C   0  0  1  0  0  3  0  0  0  0  0  0
  157.5280  213.6880  148.8780 C   0  0  0  0  0  0  0  0  0  0  0  0
  157.5860  213.2830  150.2840 C   0  0  2  0  0  3  0  0  0  0  0  0
  157.2260  214.4270  151.2190 C   0  0  0  0  0  2  0  0  0  0  0  0
  156.4360  213.9240  152.2590 O   0  0  0  0  0  1  0  0  0  0  0  0
  160.3740  206.9500  153.8030 C   0  0  0  0  0  2  0  0  0  0  0  0
  161.9370  206.7120  151.6150 S   0  0  1  0  0  3  0  0  0  0  0  0
  161.8050  206.6350  153.4070 C   0  0  2  0  0  3  0  0  0  0  0  0
  162.1550  205.2170  153.7910 C   0  0  0  0  0  2  0  0  0  0  0  0
  161.5510  204.3160  152.8240 N   0  0  0  0  0  2  0  0  0  0  0  0
  161.7410  204.9060  151.4980 C   0  0  1  0  0  3  0  0  0  0  0  0
  160.3680  203.1570  150.4310 N   0  0  0  0  0  0  0  0  0  0  0  0
  160.7850  205.0490  149.1660 C   0  0  0  0  0  0  0  0  0  0  0  0
  160.5620  204.5940  150.5680 C   0  0  2  0  0  3  0  0  0  0  0  0
  160.6790  203.9120  148.2240 C   0  0  2  0  0  3  0  0  0  0  0  0
  161.8650  204.8570  144.3830 C   0  0  2  0  0  0  0  0  0  0  0  0
  163.4340  205.3410  145.2110 S   0  0  0  0  0  0  0  0  0  0  0  0
  161.6630  204.8770  142.9220 C   0  0  0  0  0  2  0  0  0  0  0  0
  160.3920  202.8060  149.1820 C   0  0  0  0  0  0  0  0  0  0  0  0
  161.0440  206.2810  148.7330 C   0  0  0  0  0  0  0  0  0  0  0  0
  161.9800  203.6990  146.1030 C   0  0  1  0  0  3  0  0  0  0  0  0
  162.5090  205.0310  146.7410 C   0  0  1  0  0  0  0  0  0  0  0  0
  162.0520  203.7730  147.5630 C   0  0  1  0  0  3  0  0  0  0  0  0
  161.2150  205.9350  143.7490 O   0  0  0  0  0  0  0  0  0  0  0  0
  161.0010  204.1460  145.2220 O   0  0  0  0  0  0  0  0  0  0  0  0
  161.3180  206.4640  146.9560 S   0  0  0  0  0  0  0  0  0  0  0  0
  160.0410  201.5160  148.7840 O   0  0  0  0  0  0  0  0  0  0  0  0
  160.8380  200.4180  149.2120 C   0  0  0  0  0  1  0  0  0  0  0  0
  159.9540  208.1710  149.7190 O   0  0  0  0  0  1  0  0  0  0  0  0
  161.1440  207.4350  149.7020 C   0  0  1  0  0  0  0  0  0  0  0  0
  162.3640  208.3500  149.5250 C   0  0  2  0  0  3  0  0  0  0  0  0
  162.3300  209.3650  150.4840 O   0  0  0  0  0  1  0  0  0  0  0  0
  162.5060  208.9550  148.1250 C   0  0  0  0  0  2  0  0  0  0  0  0
  161.8710  210.1990  148.0470 O   0  0  0  0  0  1  0  0  0  0  0  0
  2  1  1  1  0  0  0
  2  6  1  0  0  0  0
  5  6  1  0  0  0  0
  6  4  1  0  0  0  0
  6  3  1  0  0  0  0
  7  2  1  0  0  0  0
  8  9  1  6  0  0  0
  8 10  1  0  0  0  0
  8  7  1  0  0  0  0
 11 19  1  6  0  0  0
 11  8  1  0  0  0  0
 11 14  1  0  0  0  0
 12 15  1  0  0  0  0
 14 12  2  0  0  0  0
 14 16  1  0  0  0  0
 15 13  1  0  0  0  0
 15 18  2  0  0  0  0
 16 17  2  0  0  0  0
 17 18  1  0  0  0  0
 20 19  1  0  0  0  0
 21 28  2  0  0  0  0
 22 24  1  0  0  0  0
 22 26  1  0  0  0  0
 24 23  1  0  0  0  0
 25 23  1  1  0  0  0
 25 27  1  0  0  0  0
 26 28  1  0  0  0  0
 26 25  1  0  0  0  0
 27 20  1  1  0  0  0
 28 29  1  0  0  0  0
 29 27  1  0  0  0  0
 29 30  1  1  0  0  0
 30 31  1  0  0  0  0
 32  1  1  0  0  0  0
 33 34  1  0  0  0  0
 34 35  1  0  0  0  0
 34 32  1  0  0  0  0
 36 35  1  0  0  0  0
 37 33  1  0  0  0  0
 37 36  1  0  0  0  0
 38 40  1  0  0  0  0
 39 40  1  0  0  0  0
 40 37  1  0  0  0  0
 41 39  1  0  0  0  0
 41 45  1  0  0  0  0
 42 43  1  0  0  0  0
 42 51  1  0  0  0  0
 43 48  1  0  0  0  0
 44 50  1  0  0  0  0
 44 42  1  0  0  0  0
 45 38  2  0  0  0  0
 46 39  2  0  0  0  0
 46 56  1  0  0  0  0
 47 48  1  0  0  0  0
 47 49  1  0  0  0  0
 48 52  1  0  0  0  0
 48 49  1  0  0  0  0
 49 41  1  0  0  0  0
 50 42  1  0  0  0  0
 51 47  1  0  0  0  0
 52 46  1  0  0  0  0
 53 45  1  0  0  0  0
 53 54  1  0  0  0  0
 56 55  1  0  0  0  0
 56 33  1  0  0  0  0
 57 56  1  0  0  0  0
 57 58  1  0  0  0  0
 59 57  1  0  0  0  0
 60 59  1  0  0  0  0
M  END
>  <MODEL>
1

>  <REMARK>
 VINA RESULT:       1.8      0.000      0.000
  Name = 
  17 active torsions:
  status: ('A' for Active; 'I' for Inactive)
    1  A    between atoms: N_2  and  N_36
    2  A    between atoms: N_2  and  C_43
    3  A    between atoms: C_5  and  C_45
    4  A    between atoms: C_5  and  C_59
    5  A    between atoms: C_8  and  C_28
    6  A    between atoms: C_8  and  N_55
    7  A    between atoms: O_14  and  C_32
    8  A    between atoms: C_15  and  C_28
    9  A    between atoms: C_16  and  C_50
   10  A    between atoms: C_22  and  C_45
   11  A    between atoms: C_25  and  C_27
   12  A    between atoms: C_25  and  C_31
   13  A    between atoms: C_28  and  N_36
   14  A    between atoms: C_31  and  C_34
   15  A    between atoms: C_38  and  C_51
   16  A    between atoms: C_44  and  C_59
   17  A    between atoms: N_55  and  C_59
                            x       y       z     vdW  Elec       q    Type
                         _______ _______ _______ _____ _____    ______ ____

>  <TORSDO>
F 17

$$$$
=
 OpenBabel11072411583D

 60 68  0  0  1  0  0  0  0  0999 V2000
  160.1120  207.6980  153.7820 C   0  0  0  0  0  2  0  0  0  0  0  0
  160.5300  208.7510  154.8130 C   0  0  2  0  0  3  0  0  0  0  0  0
  160.8960  209.0700  157.1750 F   0  0  0  0  0  0  0  0  0  0  0  0
  160.3160  207.0190  156.4360 F   0  0  0  0  0  0  0  0  0  0  0  0
  158.7850  208.6610  156.4750 F   0  0  0  0  0  0  0  0  0  0  0  0
  160.1230  208.3790  156.2500 C   0  0  0  0  0  0  0  0  0  0  0  0
  159.9490  210.0390  154.4310 N   0  0  0  0  0  2  0  0  0  0  0  0
  160.7830  210.7460  153.4490 C   0  0  2  0  0  0  0  0  0  0  0  0
  160.8100  210.0350  152.2440 O   0  0  0  0  0  1  0  0  0  0  0  0
  162.1400  210.8770  153.9660 N   0  0  0  0  0  1  0  0  0  0  0  0
  160.1630  212.1380  153.1870 C   0  0  2  0  0  3  0  0  0  0  0  0
  157.7840  211.9740  153.8600 N   0  0  0  0  0  0  0  0  0  0  0  0
  155.5690  211.5380  154.5130 F   0  0  0  0  0  0  0  0  0  0  0  0
  159.0120  212.5240  154.0880 C   0  0  0  0  0  0  0  0  0  0  0  0
  156.7680  212.1140  154.7540 C   0  0  0  0  0  0  0  0  0  0  0  0
  159.2420  213.2330  155.2750 C   0  0  0  0  0  3  0  0  0  0  0  0
  158.2080  213.4000  156.1920 C   0  0  0  0  0  3  0  0  0  0  0  0
  156.9640  212.8310  155.9370 C   0  0  0  0  0  3  0  0  0  0  0  0
  159.7500  212.2680  151.7980 N   0  0  0  0  0  2  0  0  0  0  0  0
  158.8500  213.3420  151.7460 N   0  0  0  0  0  2  0  0  0  0  0  0
  157.3380  212.6300  147.4000 O   0  0  0  0  0  0  0  0  0  0  0  0
  160.1640  213.5100  147.2340 C   0  0  0  0  0  2  0  0  0  0  0  0
  160.8740  214.4450  149.3260 C   0  0  0  0  0  2  0  0  0  0  0  0
  161.2440  214.3750  147.8490 C   0  0  0  0  0  2  0  0  0  0  0  0
  159.9720  213.3340  149.6170 N   0  0  2  0  0  0  0  0  0  0  0  0
  159.4520  212.9670  148.3660 N   0  0  0  0  0  0  0  0  0  0  0  0
  158.8160  213.8490  150.3810 C   0  0  1  0  0  3  0  0  0  0  0  0
  158.0480  212.9360  148.3940 C   0  0  0  0  0  0  0  0  0  0  0  0
  157.5370  213.3350  149.7080 C   0  0  2  0  0  3  0  0  0  0  0  0
  156.5100  214.4510  149.6020 C   0  0  0  0  0  2  0  0  0  0  0  0
  155.2630  213.9530  149.9980 O   0  0  0  0  0  1  0  0  0  0  0  0
  161.1320  206.5780  153.7240 C   0  0  0  0  0  2  0  0  0  0  0  0
  161.6950  204.1270  152.7420 S   0  0  0  0  0  0  0  0  0  0  0  0
  160.4730  205.2380  153.4550 C   0  0  2  0  0  3  0  0  0  0  0  0
  159.3880  205.3870  152.4150 C   0  0  0  0  0  2  0  0  0  0  0  0
  160.0130  205.4890  151.1080 N   0  0  0  0  0  2  0  0  0  0  0  0
  161.0990  204.5080  151.0640 C   0  0  1  0  0  3  0  0  0  0  0  0
  162.4200  206.4550  150.3230 N   0  0  0  0  0  0  0  0  0  0  0  0
  162.0910  204.7820  148.7590 C   0  0  0  0  0  0  0  0  0  0  0  0
  162.2780  205.0080  150.2210 C   0  0  2  0  0  3  0  0  0  0  0  0
  162.1660  206.0610  148.0170 C   0  0  2  0  0  3  0  0  0  0  0  0
  161.0680  205.7170  144.0510 C   0  0  2  0  0  0  0  0  0  0  0  0
  159.5070  205.0500  144.7590 S   0  0  0  0  0  0  0  0  0  0  0  0
  161.2900  205.9430  142.6110 C   0  0  0  0  0  2  0  0  0  0  0  0
  162.3990  207.0050  149.1480 C   0  0  0  0  0  0  0  0  0  0  0  0
  161.8830  203.6290  148.1270 C   0  0  0  0  0  0  0  0  0  0  0  0
  160.8870  206.5730  145.9340 C   0  0  1  0  0  3  0  0  0  0  0  0
  160.4000  205.1360  146.3370 C   0  0  1  0  0  0  0  0  0  0  0  0
  160.7980  206.2580  147.3620 C   0  0  1  0  0  3  0  0  0  0  0  0
  161.7660  204.7800  143.2630 O   0  0  0  0  0  0  0  0  0  0  0  0
  161.8930  206.3100  145.0110 O   0  0  0  0  0  0  0  0  0  0  0  0
  161.6400  203.7300  146.3380 S   0  0  0  0  0  0  0  0  0  0  0  0
  162.7070  208.3540  148.9730 O   0  0  0  0  0  0  0  0  0  0  0  0
  161.7020  209.2370  148.4880 C   0  0  0  0  0  1  0  0  0  0  0  0
  162.4970  201.3170  148.2090 O   0  0  0  0  0  1  0  0  0  0  0  0
  161.8130  202.3290  148.8920 C   0  0  2  0  0  3  0  0  0  0  0  0
  160.4070  201.8730  149.3040 C   0  0  2  0  0  3  0  0  0  0  0  0
  160.4560  201.2990  150.5770 O   0  0  0  0  0  1  0  0  0  0  0  0
  159.7380  200.9090  148.3200 C   0  0  0  0  0  2  0  0  0  0  0  0
  160.4570  200.8310  147.1240 O   0  0  0  0  0  1  0  0  0  0  0  0
  2  1  1  6  0  0  0
  2  6  1  0  0  0  0
  6  4  1  0  0  0  0
  6  5  1  0  0  0  0
  6  3  1  0  0  0  0
  7  2  1  0  0  0  0
  8  9  1  6  0  0  0
  8 10  1  0  0  0  0
  8  7  1  0  0  0  0
 11 19  1  6  0  0  0
 11  8  1  0  0  0  0
 11 14  1  0  0  0  0
 12 14  2  0  0  0  0
 12 15  1  0  0  0  0
 13 15  1  0  0  0  0
 14 16  1  0  0  0  0
 15 18  2  0  0  0  0
 16 17  2  0  0  0  0
 18 17  1  0  0  0  0
 20 19  1  0  0  0  0
 21 28  2  0  0  0  0
 22 24  1  0  0  0  0
 22 26  1  0  0  0  0
 24 23  1  0  0  0  0
 25 23  1  6  0  0  0
 25 27  1  0  0  0  0
 26 28  1  0  0  0  0
 26 25  1  0  0  0  0
 27 20  1  1  0  0  0
 28 29  1  0  0  0  0
 29 30  1  6  0  0  0
 29 27  1  0  0  0  0
 30 31  1  0  0  0  0
 32  1  1  0  0  0  0
 33 34  1  0  0  0  0
 34 32  1  6  0  0  0
 35 34  1  0  0  0  0
 36 35  1  0  0  0  0
 37 36  1  1  0  0  0
 37 33  1  0  0  0  0
 40 39  1  6  0  0  0
 40 38  1  0  0  0  0
 40 37  1  0  0  0  0
 41 39  1  1  0  0  0
 41 45  1  0  0  0  0
 42 44  1  6  0  0  0
 42 43  1  0  0  0  0
 42 51  1  0  0  0  0
 44 50  1  0  0  0  0
 45 38  2  0  0  0  0
 46 39  2  0  0  0  0
 46 56  1  0  0  0  0
 47 51  1  6  0  0  0
 47 48  1  0  0  0  0
 47 49  1  0  0  0  0
 48 43  1  6  0  0  0
 48 52  1  0  0  0  0
 48 49  1  0  0  0  0
 49 41  1  0  0  0  0
 50 42  1  0  0  0  0
 52 46  1  0  0  0  0
 53 45  1  0  0  0  0
 54 53  1  0  0  0  0
 55 56  1  0  0  0  0
 56 57  1  0  0  0  0
 57 58  1  0  0  0  0
 59 57  1  0  0  0  0
 60 59  1  0  0  0  0
M  END
>  <MODEL>
2

>  <REMARK>
 VINA RESULT:       1.9      1.581      3.438
  Name = 
  17 active torsions:
  status: ('A' for Active; 'I' for Inactive)
    1  A    between atoms: N_2  and  N_36
    2  A    between atoms: N_2  and  C_43
    3  A    between atoms: C_5  and  C_45
    4  A    between atoms: C_5  and  C_59
    5  A    between atoms: C_8  and  C_28
    6  A    between atoms: C_8  and  N_55
    7  A    between atoms: O_14  and  C_32
    8  A    between atoms: C_15  and  C_28
    9  A    between atoms: C_16  and  C_50
   10  A    between atoms: C_22  and  C_45
   11  A    between atoms: C_25  and  C_27
   12  A    between atoms: C_25  and  C_31
   13  A    between atoms: C_28  and  N_36
   14  A    between atoms: C_31  and  C_34
   15  A    between atoms: C_38  and  C_51
   16  A    between atoms: C_44  and  C_59
   17  A    between atoms: N_55  and  C_59
                            x       y       z     vdW  Elec       q    Type
                         _______ _______ _______ _____ _____    ______ ____

>  <TORSDO>
F 17

$$$$
=
 OpenBabel11072411583D

 60 69  0  0  1  0  0  0  0  0999 V2000
  160.7480  213.4990  148.9620 C   0  0  0  0  0  2  0  0  0  0  0  0
  161.7180  212.7810  149.9050 C   0  0  2  0  0  3  0  0  0  0  0  0
  163.5690  211.8250  148.6920 F   0  0  0  0  0  0  0  0  0  0  0  0
  161.4940  211.0320  148.3010 F   0  0  0  0  0  0  0  0  0  0  0  0
  162.5300  210.5340  150.2300 F   0  0  0  0  0  0  0  0  0  0  0  0
  162.3460  211.5240  149.2780 C   0  0  0  0  0  0  0  0  0  0  0  0
  161.0070  212.4390  151.1380 N   0  0  0  0  0  2  0  0  0  0  0  0
  159.6050  212.8820  151.1020 C   0  0  2  0  0  0  0  0  0  0  0  0
  159.0250  212.5330  149.8770 O   0  0  0  0  0  1  0  0  0  0  0  0
  159.5450  214.3280  151.2740 N   0  0  0  0  0  1  0  0  0  0  0  0
  158.8330  212.1660  152.2340 C   0  0  2  0  0  3  0  0  0  0  0  0
  156.7420  213.3810  152.7780 N   0  0  0  0  0  0  0  0  0  0  0  0
  154.6280  214.2850  153.2630 F   0  0  0  0  0  0  0  0  0  0  0  0
  158.0190  213.0620  153.1410 C   0  0  0  0  0  0  0  0  0  0  0  0
  155.8940  214.0020  153.6410 C   0  0  0  0  0  0  0  0  0  0  0  0
  158.4630  213.3590  154.4370 C   0  0  0  0  0  3  0  0  0  0  0  0
  157.6130  214.0090  155.3270 C   0  0  0  0  0  3  0  0  0  0  0  0
  156.3160  214.3260  154.9340 C   0  0  0  0  0  3  0  0  0  0  0  0
  159.7300  211.3550  153.0420 N   0  0  0  0  0  2  0  0  0  0  0  0
  159.6340  210.0430  152.5540 N   0  0  0  0  0  2  0  0  0  0  0  0
  161.3180  205.7630  153.2780 O   0  0  0  0  0  0  0  0  0  0  0  0
  161.5320  207.2550  155.8310 C   0  0  0  0  0  2  0  0  0  0  0  0
  161.2370  209.6050  155.4540 C   0  0  0  0  0  2  0  0  0  0  0  0
  161.7640  208.6040  156.4770 C   0  0  0  0  0  2  0  0  0  0  0  0
  160.3440  208.8920  154.5450 N   0  0  2  0  0  0  0  0  0  0  0  0
  160.7070  207.5440  154.6830 N   0  0  0  0  0  0  0  0  0  0  0  0
  160.6980  209.2490  153.1560 C   0  0  1  0  0  3  0  0  0  0  0  0
  160.9770  206.9650  153.4310 C   0  0  0  0  0  0  0  0  0  0  0  0
  160.8390  207.9490  152.3540 C   0  0  2  0  0  3  0  0  0  0  0  0
  162.0770  208.0030  151.4730 C   0  0  0  0  0  2  0  0  0  0  0  0
  162.3020  206.7310  150.9350 O   0  0  0  0  0  1  0  0  0  0  0  0
  161.0290  213.1190  147.5210 C   0  0  0  0  0  2  0  0  0  0  0  0
  160.4900  214.2570  145.1330 S   0  0  1  0  0  3  0  0  0  0  0  0
  161.3950  214.3320  146.6860 C   0  0  2  0  0  3  0  0  0  0  0  0
  162.8590  214.2920  146.3180 C   0  0  0  0  0  2  0  0  0  0  0  0
  163.0370  213.3340  145.2400 N   0  0  0  0  0  2  0  0  0  0  0  0
  161.9320  213.5230  144.2990 C   0  0  1  0  0  3  0  0  0  0  0  0
  162.5070  211.7400  142.6950 N   0  0  0  0  0  0  0  0  0  0  0  0
  160.2700  212.3170  142.8310 C   0  0  0  0  0  0  0  0  0  0  0  0
  161.5090  212.1980  143.6520 C   0  0  2  0  0  3  0  0  0  0  0  0
  160.5250  211.8940  141.4350 C   0  0  2  0  0  3  0  0  0  0  0  0
  157.3920  212.7260  138.8770 C   0  0  2  0  0  0  0  0  0  0  0  0
  157.6380  214.4490  139.4730 S   0  0  0  0  0  0  0  0  0  0  0  0
  156.4250  212.3460  137.8310 C   0  0  0  0  0  2  0  0  0  0  0  0
  161.9710  211.5430  141.5290 C   0  0  0  0  0  0  0  0  0  0  0  0
  159.0650  212.7300  143.2160 C   0  0  0  0  0  0  0  0  0  0  0  0
  159.3890  212.8560  139.4300 C   0  0  1  0  0  3  0  0  0  0  0  0
  158.8120  213.6870  140.6290 C   0  0  1  0  0  0  0  0  0  0  0  0
  160.2770  213.1260  140.5620 C   0  0  1  0  0  3  0  0  0  0  0  0
  156.1270  212.2000  139.2070 O   0  0  0  0  0  0  0  0  0  0  0  0
  158.4290  211.8660  139.2490 O   0  0  0  0  0  0  0  0  0  0  0  0
  157.7950  212.8030  141.9330 S   0  0  0  0  0  0  0  0  0  0  0  0
  162.6810  210.9230  140.5010 O   0  0  0  0  0  0  0  0  0  0  0  0
  163.4720  211.7210  139.6270 C   0  0  0  0  0  1  0  0  0  0  0  0
  158.5340  212.0420  145.4470 O   0  0  0  0  0  1  0  0  0  0  0  0
  158.8130  213.1540  144.6440 C   0  0  1  0  0  0  0  0  0  0  0  0
  157.7670  214.2600  144.8370 C   0  0  2  0  0  3  0  0  0  0  0  0
  157.4400  214.3640  146.1910 O   0  0  0  0  0  1  0  0  0  0  0  0
  156.4950  214.0820  144.0030 C   0  0  0  0  0  2  0  0  0  0  0  0
  155.3500  214.2890  144.7790 O   0  0  0  0  0  1  0  0  0  0  0  0
  2  1  1  6  0  0  0
  2  7  1  0  0  0  0
  3  6  1  0  0  0  0
  4  6  1  0  0  0  0
  6  2  1  0  0  0  0
  6  5  1  0  0  0  0
  8  9  1  6  0  0  0
  8  7  1  0  0  0  0
  8 10  1  0  0  0  0
  8 11  1  0  0  0  0
 11 19  1  1  0  0  0
 11 14  1  0  0  0  0
 12 14  2  0  0  0  0
 12 15  1  0  0  0  0
 13 15  1  0  0  0  0
 14 16  1  0  0  0  0
 15 18  2  0  0  0  0
 16 17  2  0  0  0  0
 18 17  1  0  0  0  0
 20 19  1  0  0  0  0
 21 28  2  0  0  0  0
 22 24  1  0  0  0  0
 23 24  1  0  0  0  0
 25 26  1  0  0  0  0
 25 23  1  1  0  0  0
 26 22  1  0  0  0  0
 27 20  1  6  0  0  0
 27 25  1  0  0  0  0
 28 26  1  0  0  0  0
 29 30  1  6  0  0  0
 29 27  1  0  0  0  0
 29 28  1  0  0  0  0
 31 30  1  0  0  0  0
 32  1  1  0  0  0  0
 33 34  1  0  0  0  0
 34 32  1  0  0  0  0
 35 34  1  0  0  0  0
 36 35  1  0  0  0  0
 37 33  1  0  0  0  0
 37 36  1  0  0  0  0
 38 40  1  0  0  0  0
 39 46  2  0  0  0  0
 39 40  1  0  0  0  0
 40 37  1  0  0  0  0
 41 45  1  0  0  0  0
 41 39  1  0  0  0  0
 42 50  1  0  0  0  0
 42 51  1  0  0  0  0
 42 43  1  0  0  0  0
 43 48  1  0  0  0  0
 44 42  1  0  0  0  0
 44 50  1  0  0  0  0
 45 38  2  0  0  0  0
 46 56  1  0  0  0  0
 47 49  1  0  0  0  0
 47 48  1  0  0  0  0
 48 52  1  0  0  0  0
 49 48  1  0  0  0  0
 49 41  1  0  0  0  0
 51 47  1  0  0  0  0
 52 46  1  0  0  0  0
 53 45  1  0  0  0  0
 54 53  1  0  0  0  0
 56 57  1  0  0  0  0
 56 33  1  0  0  0  0
 56 55  1  0  0  0  0
 57 58  1  0  0  0  0
 59 60  1  0  0  0  0
 59 57  1  0  0  0  0
M  END
>  <MODEL>
3

>  <REMARK>
 VINA RESULT:       2.3      4.967      8.688
  Name = 
  17 active torsions:
  status: ('A' for Active; 'I' for Inactive)
    1  A    between atoms: N_2  and  N_36
    2  A    between atoms: N_2  and  C_43
    3  A    between atoms: C_5  and  C_45
    4  A    between atoms: C_5  and  C_59
    5  A    between atoms: C_8  and  C_28
    6  A    between atoms: C_8  and  N_55
    7  A    between atoms: O_14  and  C_32
    8  A    between atoms: C_15  and  C_28
    9  A    between atoms: C_16  and  C_50
   10  A    between atoms: C_22  and  C_45
   11  A    between atoms: C_25  and  C_27
   12  A    between atoms: C_25  and  C_31
   13  A    between atoms: C_28  and  N_36
   14  A    between atoms: C_31  and  C_34
   15  A    between atoms: C_38  and  C_51
   16  A    between atoms: C_44  and  C_59
   17  A    between atoms: N_55  and  C_59
                            x       y       z     vdW  Elec       q    Type
                         _______ _______ _______ _____ _____    ______ ____

>  <TORSDO>
F 17

$$$$
=
 OpenBabel11072411583D

 60 68  0  0  1  0  0  0  0  0999 V2000
  160.4130  208.0660  152.4850 C   0  0  0  0  0  2  0  0  0  0  0  0
  161.5220  208.1050  151.4300 C   0  0  2  0  0  3  0  0  0  0  0  0
  162.3230  209.9800  152.7170 F   0  0  0  0  0  0  0  0  0  0  0  0
  161.7350  210.3160  150.5650 F   0  0  0  0  0  0  0  0  0  0  0  0
  163.6310  209.2090  151.0410 F   0  0  0  0  0  0  0  0  0  0  0  0
  162.3210  209.4200  151.4460 C   0  0  0  0  0  0  0  0  0  0  0  0
  160.9240  207.8830  150.1120 N   0  0  0  0  0  2  0  0  0  0  0  0
  161.6130  206.8160  149.3710 C   0  0  2  0  0  0  0  0  0  0  0  0
  162.7180  206.3640  150.1010 O   0  0  0  0  0  1  0  0  0  0  0  0
  162.0570  207.3260  148.0800 N   0  0  0  0  0  1  0  0  0  0  0  0
  160.6320  205.6360  149.1820 C   0  0  2  0  0  3  0  0  0  0  0  0
  160.7900  203.2280  149.7470 N   0  0  0  0  0  0  0  0  0  0  0  0
  161.1600  200.9350  150.1050 F   0  0  0  0  0  0  0  0  0  0  0  0
  160.7490  204.5170  150.1930 C   0  0  0  0  0  0  0  0  0  0  0  0
  161.1040  202.1990  150.5800 C   0  0  0  0  0  0  0  0  0  0  0  0
  161.0560  204.7940  151.5320 C   0  0  0  0  0  3  0  0  0  0  0  0
  161.3630  203.7510  152.4020 C   0  0  0  0  0  3  0  0  0  0  0  0
  161.3970  202.4450  151.9240 C   0  0  0  0  0  3  0  0  0  0  0  0
  160.7380  205.0830  147.8410 N   0  0  0  0  0  2  0  0  0  0  0  0
  161.6360  204.0080  147.9180 N   0  0  0  0  0  2  0  0  0  0  0  0
  159.4470  203.4950  143.8410 O   0  0  0  0  0  0  0  0  0  0  0  0
  159.8730  200.7900  144.9770 C   0  0  0  0  0  2  0  0  0  0  0  0
  161.4690  200.8760  146.7660 C   0  0  0  0  0  2  0  0  0  0  0  0
  160.7840  199.9100  145.8050 C   0  0  0  0  0  2  0  0  0  0  0  0
  160.6690  202.0960  146.8230 N   0  0  2  0  0  0  0  0  0  0  0  0
  159.9000  202.0670  145.6500 N   0  0  0  0  0  0  0  0  0  0  0  0
  161.5670  203.2590  146.6700 C   0  0  1  0  0  3  0  0  0  0  0  0
  160.0380  203.2650  144.9280 C   0  0  0  0  0  0  0  0  0  0  0  0
  160.9740  204.1760  145.5920 C   0  0  2  0  0  3  0  0  0  0  0  0
  162.0660  204.6540  144.6480 C   0  0  0  0  0  2  0  0  0  0  0  0
  161.7540  205.9500  144.2200 O   0  0  0  0  0  1  0  0  0  0  0  0
  160.9180  208.6110  153.8060 C   0  0  0  0  0  2  0  0  0  0  0  0
  159.1510  208.1210  155.7870 S   0  0  0  0  0  0  0  0  0  0  0  0
  160.6650  207.6390  154.9440 C   0  0  2  0  0  3  0  0  0  0  0  0
  161.7650  207.7380  155.9730 C   0  0  0  0  0  2  0  0  0  0  0  0
  161.5440  208.9320  156.7700 N   0  0  0  0  0  2  0  0  0  0  0  0
  160.1100  209.0100  157.0540 C   0  0  1  0  0  3  0  0  0  0  0  0
  158.1740  210.5280  157.2330 N   0  0  0  0  0  0  0  0  0  0  0  0
  159.9040  211.2270  155.8640 C   0  0  0  0  0  0  0  0  0  0  0  0
  159.6250  210.4630  157.1140 C   0  0  2  0  0  3  0  0  0  0  0  0
  158.6500  211.7650  155.2880 C   0  0  2  0  0  3  0  0  0  0  0  0
  159.1440  213.3780  151.5190 C   0  0  2  0  0  0  0  0  0  0  0  0
  159.8050  211.7090  151.1200 S   0  0  0  0  0  0  0  0  0  0  0  0
  158.9640  214.4530  150.5260 C   0  0  0  0  0  2  0  0  0  0  0  0
  157.6650  211.2520  156.2840 C   0  0  0  0  0  0  0  0  0  0  0  0
  161.0800  211.4460  155.2800 C   0  0  0  0  0  0  0  0  0  0  0  0
  158.2260  212.0720  152.8460 C   0  0  1  0  0  3  0  0  0  0  0  0
  159.6530  211.4230  152.9060 C   0  0  1  0  0  0  0  0  0  0  0  0
  158.4920  211.1080  153.9160 C   0  0  1  0  0  3  0  0  0  0  0  0
  160.0990  214.4040  151.3720 O   0  0  0  0  0  0  0  0  0  0  0  0
  158.5080  213.4310  152.7630 O   0  0  0  0  0  0  0  0  0  0  0  0
  161.0430  212.3730  153.7290 S   0  0  0  0  0  0  0  0  0  0  0  0
  156.3200  211.6190  156.2930 O   0  0  0  0  0  0  0  0  0  0  0  0
  155.9630  212.9570  155.9660 C   0  0  0  0  0  1  0  0  0  0  0  0
  162.3820  211.1120  157.2610 O   0  0  0  0  0  1  0  0  0  0  0  0
  162.3540  210.8980  155.8790 C   0  0  2  0  0  3  0  0  0  0  0  0
  163.6560  211.3630  155.2140 C   0  0  2  0  0  3  0  0  0  0  0  0
  164.0580  210.4230  154.2620 O   0  0  0  0  0  1  0  0  0  0  0  0
  164.8030  211.6430  156.1900 C   0  0  0  0  0  2  0  0  0  0  0  0
  165.8000  212.4160  155.5890 O   0  0  0  0  0  1  0  0  0  0  0  0
  1 32  1  0  0  0  0
  2  6  1  0  0  0  0
  2  1  1  1  0  0  0
  4  6  1  0  0  0  0
  5  6  1  0  0  0  0
  6  3  1  0  0  0  0
  7  2  1  0  0  0  0
  8 10  1  6  0  0  0
  8  9  1  0  0  0  0
  8  7  1  0  0  0  0
 11 19  1  6  0  0  0
 11  8  1  0  0  0  0
 11 14  1  0  0  0  0
 12 14  2  0  0  0  0
 12 15  1  0  0  0  0
 13 15  1  0  0  0  0
 14 16  1  0  0  0  0
 15 18  2  0  0  0  0
 16 17  2  0  0  0  0
 18 17  1  0  0  0  0
 19 20  1  0  0  0  0
 21 28  2  0  0  0  0
 22 26  1  0  0  0  0
 22 24  1  0  0  0  0
 24 23  1  0  0  0  0
 25 23  1  6  0  0  0
 26 25  1  0  0  0  0
 27 25  1  0  0  0  0
 27 20  1  1  0  0  0
 28 29  1  0  0  0  0
 28 26  1  0  0  0  0
 29 30  1  6  0  0  0
 29 27  1  0  0  0  0
 31 30  1  0  0  0  0
 34 32  1  6  0  0  0
 34 33  1  0  0  0  0
 34 35  1  0  0  0  0
 35 36  1  0  0  0  0
 36 37  1  0  0  0  0
 37 33  1  6  0  0  0
 37 40  1  0  0  0  0
 40 39  1  6  0  0  0
 40 38  1  0  0  0  0
 41 39  1  1  0  0  0
 41 45  1  0  0  0  0
 42 44  1  6  0  0  0
 42 51  1  0  0  0  0
 43 42  1  0  0  0  0
 44 50  1  0  0  0  0
 45 53  1  0  0  0  0
 45 38  2  0  0  0  0
 46 39  2  0  0  0  0
 46 56  1  0  0  0  0
 47 51  1  1  0  0  0
 47 48  1  0  0  0  0
 47 49  1  0  0  0  0
 48 43  1  6  0  0  0
 48 52  1  0  0  0  0
 48 49  1  0  0  0  0
 49 41  1  0  0  0  0
 50 42  1  0  0  0  0
 52 46  1  0  0  0  0
 54 53  1  0  0  0  0
 56 55  1  0  0  0  0
 57 56  1  0  0  0  0
 57 59  1  0  0  0  0
 58 57  1  0  0  0  0
 60 59  1  0  0  0  0
M  END
>  <MODEL>
4

>  <REMARK>
 VINA RESULT:       2.4      3.383      9.646
  Name = 
  17 active torsions:
  status: ('A' for Active; 'I' for Inactive)
    1  A    between atoms: N_2  and  N_36
    2  A    between atoms: N_2  and  C_43
    3  A    between atoms: C_5  and  C_45
    4  A    between atoms: C_5  and  C_59
    5  A    between atoms: C_8  and  C_28
    6  A    between atoms: C_8  and  N_55
    7  A    between atoms: O_14  and  C_32
    8  A    between atoms: C_15  and  C_28
    9  A    between atoms: C_16  and  C_50
   10  A    between atoms: C_22  and  C_45
   11  A    between atoms: C_25  and  C_27
   12  A    between atoms: C_25  and  C_31
   13  A    between atoms: C_28  and  N_36
   14  A    between atoms: C_31  and  C_34
   15  A    between atoms: C_38  and  C_51
   16  A    between atoms: C_44  and  C_59
   17  A    between atoms: N_55  and  C_59
                            x       y       z     vdW  Elec       q    Type
                         _______ _______ _______ _____ _____    ______ ____

>  <TORSDO>
F 17

$$$$
=
 OpenBabel11072411583D

 60 68  0  0  1  0  0  0  0  0999 V2000
  162.7700  209.6270  151.3540 C   0  0  0  0  0  2  0  0  0  0  0  0
  161.7130  210.7350  151.3240 C   0  0  2  0  0  3  0  0  0  0  0  0
  160.9060  211.5360  153.4500 F   0  0  0  0  0  0  0  0  0  0  0  0
  160.7560  209.3320  152.9960 F   0  0  0  0  0  0  0  0  0  0  0  0
  159.3860  210.7770  151.9570 F   0  0  0  0  0  0  0  0  0  0  0  0
  160.6710  210.6030  152.4480 C   0  0  0  0  0  0  0  0  0  0  0  0
  161.0590  210.7250  150.0140 N   0  0  0  0  0  2  0  0  0  0  0  0
  161.7550  211.5900  149.0490 C   0  0  2  0  0  0  0  0  0  0  0  0
  162.2980  210.8150  148.0180 O   0  0  0  0  0  1  0  0  0  0  0  0
  162.8220  212.3170  149.7260 N   0  0  0  0  0  1  0  0  0  0  0  0
  160.7290  212.5720  148.4390 C   0  0  2  0  0  3  0  0  0  0  0  0
  160.0210  212.4710  146.0660 N   0  0  0  0  0  0  0  0  0  0  0  0
  159.1020  212.4810  143.9030 F   0  0  0  0  0  0  0  0  0  0  0  0
  160.9340  212.9120  146.9800 C   0  0  0  0  0  0  0  0  0  0  0  0
  160.0330  212.9170  144.7800 C   0  0  0  0  0  0  0  0  0  0  0  0
  161.8940  213.8590  146.5950 C   0  0  0  0  0  3  0  0  0  0  0  0
  161.9310  214.3120  145.2790 C   0  0  0  0  0  3  0  0  0  0  0  0
  160.9900  213.8470  144.3650 C   0  0  0  0  0  3  0  0  0  0  0  0
  160.6630  213.8020  149.2130 N   0  0  0  0  0  2  0  0  0  0  0  0
  159.4260  214.3950  148.9220 N   0  0  0  0  0  2  0  0  0  0  0  0
  154.8700  214.0460  149.8160 O   0  0  0  0  0  0  0  0  0  0  0  0
  156.3020  213.9800  152.4110 C   0  0  0  0  0  2  0  0  0  0  0  0
  158.6410  213.5810  152.0660 C   0  0  0  0  0  2  0  0  0  0  0  0
  157.5570  213.5470  153.1380 C   0  0  0  0  0  2  0  0  0  0  0  0
  158.1670  214.4230  150.9720 N   0  0  2  0  0  0  0  0  0  0  0  0
  156.7730  214.4530  151.1310 N   0  0  0  0  0  0  0  0  0  0  0  0
  158.3960  213.7150  149.6950 C   0  0  1  0  0  3  0  0  0  0  0  0
  156.1220  214.0920  149.9390 C   0  0  0  0  0  0  0  0  0  0  0  0
  157.0890  213.7520  148.8920 C   0  0  2  0  0  3  0  0  0  0  0  0
  156.8070  212.3880  148.2810 C   0  0  0  0  0  2  0  0  0  0  0  0
  157.3830  212.3410  147.0060 O   0  0  0  0  0  1  0  0  0  0  0  0
  162.4140  208.5280  150.3720 C   0  0  0  0  0  2  0  0  0  0  0  0
  161.7620  205.9890  151.0160 S   0  0  0  0  0  0  0  0  0  0  0  0
  161.2380  207.7030  150.8610 C   0  0  2  0  0  3  0  0  0  0  0  0
  160.1310  207.7100  149.8340 C   0  0  0  0  0  2  0  0  0  0  0  0
  160.4920  206.7990  148.7610 N   0  0  0  0  0  2  0  0  0  0  0  0
  161.0680  205.6030  149.3780 C   0  0  1  0  0  3  0  0  0  0  0  0
  162.2760  205.6910  147.2290 N   0  0  0  0  0  0  0  0  0  0  0  0
  161.8900  203.5840  148.1040 C   0  0  0  0  0  0  0  0  0  0  0  0
  162.1710  204.9930  148.5030 C   0  0  2  0  0  3  0  0  0  0  0  0
  161.8760  203.4510  146.6290 C   0  0  2  0  0  3  0  0  0  0  0  0
  160.5190  199.7720  145.3340 C   0  0  2  0  0  0  0  0  0  0  0  0
  159.0310  200.2080  146.3240 S   0  0  0  0  0  0  0  0  0  0  0  0
  160.6340  198.5550  144.5110 C   0  0  0  0  0  2  0  0  0  0  0  0
  162.1580  204.8620  146.2370 C   0  0  0  0  0  0  0  0  0  0  0  0
  161.6750  202.5340  148.8930 C   0  0  0  0  0  0  0  0  0  0  0  0
  160.4420  201.8470  145.3620 C   0  0  1  0  0  3  0  0  0  0  0  0
  160.0270  201.6270  146.8590 C   0  0  1  0  0  0  0  0  0  0  0  0
  160.4610  203.0090  146.2520 C   0  0  1  0  0  3  0  0  0  0  0  0
  161.1880  198.6280  145.8120 O   0  0  0  0  0  0  0  0  0  0  0  0
  161.3900  200.8510  145.1540 O   0  0  0  0  0  0  0  0  0  0  0  0
  161.3060  200.9720  148.0630 S   0  0  0  0  0  0  0  0  0  0  0  0
  162.4130  205.2590  144.9250 O   0  0  0  0  0  0  0  0  0  0  0  0
  161.3460  205.7760  144.1380 C   0  0  0  0  0  1  0  0  0  0  0  0
  162.8350  202.0690  150.9340 O   0  0  0  0  0  1  0  0  0  0  0  0
  161.6970  202.6790  150.3960 C   0  0  2  0  0  3  0  0  0  0  0  0
  160.4240  202.2320  151.1280 C   0  0  2  0  0  3  0  0  0  0  0  0
  159.3570  202.1920  150.2270 O   0  0  0  0  0  1  0  0  0  0  0  0
  160.0540  203.0900  152.3410 C   0  0  0  0  0  2  0  0  0  0  0  0
  161.1760  203.3560  153.1310 O   0  0  0  0  0  1  0  0  0  0  0  0
  2  1  1  6  0  0  0
  2  6  1  0  0  0  0
  5  6  1  0  0  0  0
  6  4  1  0  0  0  0
  6  3  1  0  0  0  0
  7  2  1  0  0  0  0
  8  9  1  6  0  0  0
  8 10  1  0  0  0  0
  8  7  1  0  0  0  0
 11  8  1  0  0  0  0
 11 19  1  1  0  0  0
 12 14  1  0  0  0  0
 13 15  1  0  0  0  0
 14 11  1  0  0  0  0
 15 12  2  0  0  0  0
 16 14  2  0  0  0  0
 17 16  1  0  0  0  0
 18 15  1  0  0  0  0
 18 17  2  0  0  0  0
 20 19  1  0  0  0  0
 21 28  2  0  0  0  0
 22 24  1  0  0  0  0
 23 24  1  0  0  0  0
 25 26  1  0  0  0  0
 25 23  1  1  0  0  0
 26 22  1  0  0  0  0
 27 20  1  6  0  0  0
 27 25  1  0  0  0  0
 28 26  1  0  0  0  0
 29 30  1  1  0  0  0
 29 27  1  0  0  0  0
 29 28  1  0  0  0  0
 31 30  1  0  0  0  0
 32  1  1  0  0  0  0
 34 32  1  6  0  0  0
 34 33  1  0  0  0  0
 35 34  1  0  0  0  0
 36 35  1  0  0  0  0
 37 36  1  6  0  0  0
 37 33  1  0  0  0  0
 39 40  1  0  0  0  0
 39 46  2  0  0  0  0
 40 38  1  6  0  0  0
 40 37  1  0  0  0  0
 41 45  1  6  0  0  0
 41 39  1  0  0  0  0
 42 44  1  6  0  0  0
 42 50  1  0  0  0  0
 42 43  1  0  0  0  0
 44 50  1  0  0  0  0
 45 38  2  0  0  0  0
 46 56  1  0  0  0  0
 47 51  1  1  0  0  0
 47 49  1  0  0  0  0
 47 48  1  0  0  0  0
 48 43  1  1  0  0  0
 48 52  1  0  0  0  0
 49 41  1  0  0  0  0
 49 48  1  0  0  0  0
 51 42  1  0  0  0  0
 52 46  1  0  0  0  0
 53 45  1  0  0  0  0
 54 53  1  0  0  0  0
 56 55  1  0  0  0  0
 56 57  1  0  0  0  0
 57 59  1  0  0  0  0
 58 57  1  0  0  0  0
 59 60  1  0  0  0  0
M  END
>  <MODEL>
5

>  <REMARK>
 VINA RESULT:       2.9      3.195      5.893
  Name = 
  17 active torsions:
  status: ('A' for Active; 'I' for Inactive)
    1  A    between atoms: N_2  and  N_36
    2  A    between atoms: N_2  and  C_43
    3  A    between atoms: C_5  and  C_45
    4  A    between atoms: C_5  and  C_59
    5  A    between atoms: C_8  and  C_28
    6  A    between atoms: C_8  and  N_55
    7  A    between atoms: O_14  and  C_32
    8  A    between atoms: C_15  and  C_28
    9  A    between atoms: C_16  and  C_50
   10  A    between atoms: C_22  and  C_45
   11  A    between atoms: C_25  and  C_27
   12  A    between atoms: C_25  and  C_31
   13  A    between atoms: C_28  and  N_36
   14  A    between atoms: C_31  and  C_34
   15  A    between atoms: C_38  and  C_51
   16  A    between atoms: C_44  and  C_59
   17  A    between atoms: N_55  and  C_59
                            x       y       z     vdW  Elec       q    Type
                         _______ _______ _______ _____ _____    ______ ____

>  <TORSDO>
F 17

$$$$
=
 OpenBabel11072411583D

 60 68  0  0  1  0  0  0  0  0999 V2000
  162.0670  211.0190  150.6900 C   0  0  0  0  0  2  0  0  0  0  0  0
  161.0340  211.5390  149.6860 C   0  0  2  0  0  3  0  0  0  0  0  0
  162.4050  212.6310  148.0300 F   0  0  0  0  0  0  0  0  0  0  0  0
  160.4790  211.6580  147.3710 F   0  0  0  0  0  0  0  0  0  0  0  0
  162.2330  210.3780  147.9450 F   0  0  0  0  0  0  0  0  0  0  0  0
  161.5560  211.5520  148.2380 C   0  0  0  0  0  0  0  0  0  0  0  0
  160.6180  212.8820  150.0940 N   0  0  0  0  0  2  0  0  0  0  0  0
  160.0100  212.8840  151.4320 C   0  0  2  0  0  0  0  0  0  0  0  0
  160.1250  214.1540  152.0080 O   0  0  0  0  0  1  0  0  0  0  0  0
  160.6840  211.9050  152.2760 N   0  0  0  0  0  1  0  0  0  0  0  0
  158.5090  212.5410  151.2930 C   0  0  2  0  0  3  0  0  0  0  0  0
  158.3200  213.3380  148.9540 N   0  0  0  0  0  0  0  0  0  0  0  0
  158.1800  213.8230  146.6590 F   0  0  0  0  0  0  0  0  0  0  0  0
  157.7670  213.2760  150.2000 C   0  0  0  0  0  0  0  0  0  0  0  0
  157.6140  213.7960  147.8860 C   0  0  0  0  0  0  0  0  0  0  0  0
  156.4350  213.6750  150.3840 C   0  0  0  0  0  3  0  0  0  0  0  0
  155.7030  214.1620  149.3050 C   0  0  0  0  0  3  0  0  0  0  0  0
  156.2900  214.2160  148.0440 C   0  0  0  0  0  3  0  0  0  0  0  0
  157.8130  212.7310  152.5560 N   0  0  0  0  0  2  0  0  0  0  0  0
  157.6960  211.4630  153.1450 N   0  0  0  0  0  2  0  0  0  0  0  0
  156.1170  213.8720  156.8040 O   0  0  0  0  0  0  0  0  0  0  0  0
  159.0340  213.4910  157.1720 C   0  0  0  0  0  2  0  0  0  0  0  0
  159.8530  211.8050  155.6750 C   0  0  0  0  0  2  0  0  0  0  0  0
  160.2150  212.5730  156.9420 C   0  0  0  0  0  2  0  0  0  0  0  0
  158.8140  212.5550  154.9760 N   0  0  2  0  0  0  0  0  0  0  0  0
  158.2540  213.3830  155.9620 N   0  0  0  0  0  0  0  0  0  0  0  0
  157.7330  211.6230  154.5930 C   0  0  1  0  0  3  0  0  0  0  0  0
  156.8580  213.2360  156.0090 C   0  0  0  0  0  0  0  0  0  0  0  0
  156.3990  212.2350  155.0430 C   0  0  2  0  0  3  0  0  0  0  0  0
  155.5260  211.1740  155.6960 C   0  0  0  0  0  2  0  0  0  0  0  0
  155.0350  210.3220  154.7000 O   0  0  0  0  0  1  0  0  0  0  0  0
  162.3380  209.5460  150.4570 C   0  0  0  0  0  2  0  0  0  0  0  0
  161.9600  207.0380  151.3810 S   0  0  0  0  0  0  0  0  0  0  0  0
  161.2720  208.6760  151.0980 C   0  0  2  0  0  3  0  0  0  0  0  0
  160.1140  208.4830  150.1480 C   0  0  0  0  0  2  0  0  0  0  0  0
  160.4970  207.5030  149.1460 N   0  0  0  0  0  2  0  0  0  0  0  0
  161.2160  206.4300  149.8350 C   0  0  1  0  0  3  0  0  0  0  0  0
  162.3670  206.4910  147.6550 N   0  0  0  0  0  0  0  0  0  0  0  0
  162.0840  204.4010  148.6090 C   0  0  0  0  0  0  0  0  0  0  0  0
  162.3200  205.8330  148.9540 C   0  0  2  0  0  3  0  0  0  0  0  0
  162.0400  204.2180  147.1400 C   0  0  2  0  0  3  0  0  0  0  0  0
  160.7940  200.4500  146.0010 C   0  0  2  0  0  0  0  0  0  0  0  0
  159.3150  200.8620  147.0120 S   0  0  0  0  0  0  0  0  0  0  0  0
  160.9360  199.2100  145.2150 C   0  0  0  0  0  2  0  0  0  0  0  0
  162.2580  205.6250  146.6950 C   0  0  0  0  0  0  0  0  0  0  0  0
  161.9270  203.3720  149.4370 C   0  0  0  0  0  0  0  0  0  0  0  0
  160.6380  202.5200  145.9620 C   0  0  1  0  0  3  0  0  0  0  0  0
  160.2680  202.3350  147.4760 C   0  0  1  0  0  0  0  0  0  0  0  0
  160.6340  203.7110  146.8130 C   0  0  1  0  0  3  0  0  0  0  0  0
  161.5190  199.3480  146.4990 O   0  0  0  0  0  0  0  0  0  0  0  0
  161.6190  201.5540  145.7640 O   0  0  0  0  0  0  0  0  0  0  0  0
  161.5990  201.7690  148.6680 S   0  0  0  0  0  0  0  0  0  0  0  0
  162.4660  205.9870  145.3640 O   0  0  0  0  0  0  0  0  0  0  0  0
  161.3500  206.0650  144.4850 C   0  0  0  0  0  1  0  0  0  0  0  0
  162.8480  202.6430  151.5230 O   0  0  0  0  0  1  0  0  0  0  0  0
  161.9800  203.5680  150.9340 C   0  0  2  0  0  3  0  0  0  0  0  0
  160.6230  203.5960  151.6500 C   0  0  2  0  0  3  0  0  0  0  0  0
  159.6220  203.9500  150.7420 O   0  0  0  0  0  1  0  0  0  0  0  0
  160.5690  204.5150  152.8740 C   0  0  0  0  0  2  0  0  0  0  0  0
  161.8230  205.0720  153.1410 O   0  0  0  0  0  1  0  0  0  0  0  0
  2  7  1  0  0  0  0
  2  1  1  1  0  0  0
  3  6  1  0  0  0  0
  4  6  1  0  0  0  0
  5  6  1  0  0  0  0
  6  2  1  0  0  0  0
  7  8  1  0  0  0  0
  8  9  1  1  0  0  0
  8 10  1  0  0  0  0
 11  8  1  0  0  0  0
 11 19  1  1  0  0  0
 12 14  1  0  0  0  0
 13 15  1  0  0  0  0
 14 16  2  0  0  0  0
 14 11  1  0  0  0  0
 15 18  1  0  0  0  0
 15 12  2  0  0  0  0
 17 16  1  0  0  0  0
 18 17  2  0  0  0  0
 19 20  1  0  0  0  0
 23 24  1  0  0  0  0
 24 22  1  0  0  0  0
 25 23  1  1  0  0  0
 25 26  1  0  0  0  0
 26 28  1  0  0  0  0
 26 22  1  0  0  0  0
 27 20  1  6  0  0  0
 27 25  1  0  0  0  0
 27 29  1  0  0  0  0
 28 21  2  0  0  0  0
 29 30  1  1  0  0  0
 29 28  1  0  0  0  0
 31 30  1  0  0  0  0
 32  1  1  0  0  0  0
 34 32  1  6  0  0  0
 34 33  1  0  0  0  0
 35 34  1  0  0  0  0
 36 35  1  0  0  0  0
 37 36  1  6  0  0  0
 37 33  1  0  0  0  0
 39 40  1  0  0  0  0
 39 46  2  0  0  0  0
 40 38  1  6  0  0  0
 40 37  1  0  0  0  0
 41 45  1  6  0  0  0
 41 39  1  0  0  0  0
 42 44  1  6  0  0  0
 42 50  1  0  0  0  0
 42 43  1  0  0  0  0
 44 50  1  0  0  0  0
 45 38  2  0  0  0  0
 46 56  1  0  0  0  0
 47 51  1  1  0  0  0
 47 49  1  0  0  0  0
 47 48  1  0  0  0  0
 48 43  1  1  0  0  0
 48 52  1  0  0  0  0
 49 41  1  0  0  0  0
 49 48  1  0  0  0  0
 51 42  1  0  0  0  0
 52 46  1  0  0  0  0
 53 45  1  0  0  0  0
 54 53  1  0  0  0  0
 56 55  1  0  0  0  0
 56 57  1  0  0  0  0
 57 59  1  0  0  0  0
 58 57  1  0  0  0  0
 59 60  1  0  0  0  0
M  END
>  <MODEL>
6

>  <REMARK>
 VINA RESULT:       3.0      3.513      6.002
  Name = 
  17 active torsions:
  status: ('A' for Active; 'I' for Inactive)
    1  A    between atoms: N_2  and  N_36
    2  A    between atoms: N_2  and  C_43
    3  A    between atoms: C_5  and  C_45
    4  A    between atoms: C_5  and  C_59
    5  A    between atoms: C_8  and  C_28
    6  A    between atoms: C_8  and  N_55
    7  A    between atoms: O_14  and  C_32
    8  A    between atoms: C_15  and  C_28
    9  A    between atoms: C_16  and  C_50
   10  A    between atoms: C_22  and  C_45
   11  A    between atoms: C_25  and  C_27
   12  A    between atoms: C_25  and  C_31
   13  A    between atoms: C_28  and  N_36
   14  A    between atoms: C_31  and  C_34
   15  A    between atoms: C_38  and  C_51
   16  A    between atoms: C_44  and  C_59
   17  A    between atoms: N_55  and  C_59
                            x       y       z     vdW  Elec       q    Type
                         _______ _______ _______ _____ _____    ______ ____

>  <TORSDO>
F 17

$$$$
=
 OpenBabel11072411583D

 60 68  0  0  1  0  0  0  0  0999 V2000
  161.2000  207.2220  155.0780 C   0  0  0  0  0  2  0  0  0  0  0  0
  161.1870  208.7540  155.0840 C   0  0  2  0  0  3  0  0  0  0  0  0
  159.8830  210.4050  156.2610 F   0  0  0  0  0  0  0  0  0  0  0  0
  161.8900  209.8120  157.1000 F   0  0  0  0  0  0  0  0  0  0  0  0
  160.1620  208.3830  157.2350 F   0  0  0  0  0  0  0  0  0  0  0  0
  160.7640  209.3460  156.4390 C   0  0  0  0  0  0  0  0  0  0  0  0
  160.2970  209.2200  154.0190 N   0  0  0  0  0  2  0  0  0  0  0  0
  160.8240  210.4190  153.3510 C   0  0  2  0  0  0  0  0  0  0  0  0
  161.9360  210.0830  152.5710 O   0  0  0  0  0  1  0  0  0  0  0  0
  161.2130  211.4050  154.3530 N   0  0  0  0  0  1  0  0  0  0  0  0
  159.7260  210.9890  152.4240 C   0  0  2  0  0  3  0  0  0  0  0  0
  160.8010  211.7530  150.3250 N   0  0  0  0  0  0  0  0  0  0  0  0
  161.6400  212.3050  148.2010 F   0  0  0  0  0  0  0  0  0  0  0  0
  160.1670  212.0900  151.4860 C   0  0  0  0  0  0  0  0  0  0  0  0
  161.0310  212.6730  149.3500 C   0  0  0  0  0  0  0  0  0  0  0  0
  159.7240  213.4070  151.6730 C   0  0  0  0  0  3  0  0  0  0  0  0
  159.9660  214.3650  150.6910 C   0  0  0  0  0  3  0  0  0  0  0  0
  160.6160  213.9970  149.5170 C   0  0  0  0  0  3  0  0  0  0  0  0
  158.5810  211.4460  153.1950 N   0  0  0  0  0  2  0  0  0  0  0  0
  159.0890  212.2120  154.2540 N   0  0  0  0  0  2  0  0  0  0  0  0
  155.5730  212.8090  157.2480 O   0  0  0  0  0  0  0  0  0  0  0  0
  154.6660  213.7710  154.5960 C   0  0  0  0  0  2  0  0  0  0  0  0
  156.5360  214.0470  153.1200 C   0  0  0  0  0  2  0  0  0  0  0  0
  155.0730  214.4370  153.2990 C   0  0  0  0  0  2  0  0  0  0  0  0
  156.7960  212.8780  153.9550 N   0  0  2  0  0  0  0  0  0  0  0  0
  155.7670  212.8920  154.9090 N   0  0  0  0  0  0  0  0  0  0  0  0
  158.0380  213.1080  154.7210 C   0  0  1  0  0  3  0  0  0  0  0  0
  156.2880  212.8190  156.2120 C   0  0  0  0  0  0  0  0  0  0  0  0
  157.7530  212.7880  156.1940 C   0  0  2  0  0  3  0  0  0  0  0  0
  158.3540  213.8570  157.0920 C   0  0  0  0  0  2  0  0  0  0  0  0
  159.7260  213.6120  157.2250 O   0  0  0  0  0  1  0  0  0  0  0  0
  161.5200  206.7000  153.6910 C   0  0  0  0  0  2  0  0  0  0  0  0
  161.7130  204.3150  152.4390 S   0  0  0  0  0  0  0  0  0  0  0  0
  160.6860  205.4790  153.3500 C   0  0  2  0  0  3  0  0  0  0  0  0
  159.5590  205.8580  152.4180 C   0  0  0  0  0  2  0  0  0  0  0  0
  160.1030  206.0230  151.0810 N   0  0  0  0  0  2  0  0  0  0  0  0
  161.0560  204.9340  150.8590 C   0  0  1  0  0  3  0  0  0  0  0  0
  162.3540  206.8320  149.9670 N   0  0  0  0  0  0  0  0  0  0  0  0
  162.0380  205.0420  148.5350 C   0  0  0  0  0  0  0  0  0  0  0  0
  162.2270  205.3810  149.9750 C   0  0  2  0  0  3  0  0  0  0  0  0
  162.0980  206.2610  147.6980 C   0  0  2  0  0  3  0  0  0  0  0  0
  160.9930  205.6060  143.7740 C   0  0  2  0  0  0  0  0  0  0  0  0
  159.4410  204.9790  144.5360 S   0  0  0  0  0  0  0  0  0  0  0  0
  161.2080  205.7250  142.3200 C   0  0  0  0  0  2  0  0  0  0  0  0
  162.3240  207.2910  148.7530 C   0  0  0  0  0  0  0  0  0  0  0  0
  161.8410  203.8430  147.9930 C   0  0  0  0  0  0  0  0  0  0  0  0
  160.8070  206.6010  145.5880 C   0  0  1  0  0  3  0  0  0  0  0  0
  160.3370  205.1940  146.1000 C   0  0  1  0  0  0  0  0  0  0  0  0
  160.7260  206.3940  147.0350 C   0  0  1  0  0  3  0  0  0  0  0  0
  161.6980  204.6190  143.0570 O   0  0  0  0  0  0  0  0  0  0  0  0
  161.8140  206.2790  144.6830 O   0  0  0  0  0  0  0  0  0  0  0  0
  161.5920  203.8050  146.2030 S   0  0  0  0  0  0  0  0  0  0  0  0
  162.6180  208.6260  148.4760 O   0  0  0  0  0  0  0  0  0  0  0  0
  162.1580  209.6360  149.3660 C   0  0  0  0  0  1  0  0  0  0  0  0
  162.2310  201.4860  148.1410 O   0  0  0  0  0  1  0  0  0  0  0  0
  161.7870  202.6030  148.8550 C   0  0  2  0  0  3  0  0  0  0  0  0
  160.4430  202.3290  149.5440 C   0  0  2  0  0  3  0  0  0  0  0  0
  160.6690  201.7930  150.8140 O   0  0  0  0  0  1  0  0  0  0  0  0
  159.4980  201.4200  148.7520 C   0  0  0  0  0  2  0  0  0  0  0  0
  160.1780  200.3120  148.2380 O   0  0  0  0  0  1  0  0  0  0  0  0
  2  1  1  1  0  0  0
  2  6  1  0  0  0  0
  3  6  1  0  0  0  0
  6  4  1  0  0  0  0
  6  5  1  0  0  0  0
  7  2  1  0  0  0  0
  8  9  1  6  0  0  0
  8  7  1  0  0  0  0
  8 10  1  0  0  0  0
 11 19  1  1  0  0  0
 11  8  1  0  0  0  0
 12 14  1  0  0  0  0
 13 15  1  0  0  0  0
 14 16  2  0  0  0  0
 14 11  1  0  0  0  0
 15 18  1  0  0  0  0
 15 12  2  0  0  0  0
 17 16  1  0  0  0  0
 18 17  2  0  0  0  0
 19 20  1  0  0  0  0
 22 26  1  0  0  0  0
 23 24  1  0  0  0  0
 24 22  1  0  0  0  0
 25 23  1  6  0  0  0
 25 27  1  0  0  0  0
 25 26  1  0  0  0  0
 26 28  1  0  0  0  0
 27 20  1  6  0  0  0
 27 29  1  0  0  0  0
 28 21  2  0  0  0  0
 29 28  1  0  0  0  0
 29 30  1  1  0  0  0
 30 31  1  0  0  0  0
 32  1  1  0  0  0  0
 33 34  1  0  0  0  0
 34 32  1  6  0  0  0
 35 34  1  0  0  0  0
 36 35  1  0  0  0  0
 37 36  1  1  0  0  0
 37 33  1  0  0  0  0
 38 40  1  0  0  0  0
 40 39  1  6  0  0  0
 40 37  1  0  0  0  0
 41 39  1  1  0  0  0
 41 45  1  0  0  0  0
 42 44  1  6  0  0  0
 42 43  1  0  0  0  0
 42 51  1  0  0  0  0
 44 50  1  0  0  0  0
 45 38  2  0  0  0  0
 46 39  2  0  0  0  0
 46 56  1  0  0  0  0
 47 51  1  1  0  0  0
 47 48  1  0  0  0  0
 47 49  1  0  0  0  0
 48 43  1  6  0  0  0
 48 52  1  0  0  0  0
 48 49  1  0  0  0  0
 49 41  1  0  0  0  0
 50 42  1  0  0  0  0
 52 46  1  0  0  0  0
 53 45  1  0  0  0  0
 53 54  1  0  0  0  0
 55 56  1  0  0  0  0
 56 57  1  0  0  0  0
 57 58  1  0  0  0  0
 59 57  1  0  0  0  0
 60 59  1  0  0  0  0
M  END
>  <MODEL>
7

>  <REMARK>
 VINA RESULT:       3.2      2.244      5.042
  Name = 
  17 active torsions:
  status: ('A' for Active; 'I' for Inactive)
    1  A    between atoms: N_2  and  N_36
    2  A    between atoms: N_2  and  C_43
    3  A    between atoms: C_5  and  C_45
    4  A    between atoms: C_5  and  C_59
    5  A    between atoms: C_8  and  C_28
    6  A    between atoms: C_8  and  N_55
    7  A    between atoms: O_14  and  C_32
    8  A    between atoms: C_15  and  C_28
    9  A    between atoms: C_16  and  C_50
   10  A    between atoms: C_22  and  C_45
   11  A    between atoms: C_25  and  C_27
   12  A    between atoms: C_25  and  C_31
   13  A    between atoms: C_28  and  N_36
   14  A    between atoms: C_31  and  C_34
   15  A    between atoms: C_38  and  C_51
   16  A    between atoms: C_44  and  C_59
   17  A    between atoms: N_55  and  C_59
                            x       y       z     vdW  Elec       q    Type
                         _______ _______ _______ _____ _____    ______ ____

>  <TORSDO>
F 17

$$$$
=
 OpenBabel11072411583D

 60 68  0  0  1  0  0  0  0  0999 V2000
  160.8100  207.3880  153.2480 C   0  0  0  0  0  2  0  0  0  0  0  0
  161.1880  208.5260  154.2000 C   0  0  2  0  0  3  0  0  0  0  0  0
  160.0840  207.1780  155.8670 F   0  0  0  0  0  0  0  0  0  0  0  0
  160.7620  209.2550  156.4290 F   0  0  0  0  0  0  0  0  0  0  0  0
  162.2820  207.6250  156.1510 F   0  0  0  0  0  0  0  0  0  0  0  0
  161.0790  208.1300  155.6830 C   0  0  0  0  0  0  0  0  0  0  0  0
  160.3370  209.6820  153.9130 N   0  0  0  0  0  2  0  0  0  0  0  0
  160.7770  210.4000  152.7080 C   0  0  2  0  0  0  0  0  0  0  0  0
  160.1330  209.8800  151.5790 O   0  0  0  0  0  1  0  0  0  0  0  0
  162.2200  210.2560  152.5540 N   0  0  0  0  0  1  0  0  0  0  0  0
  160.3900  211.8890  152.8530 C   0  0  2  0  0  3  0  0  0  0  0  0
  158.2150  211.2120  153.8290 N   0  0  0  0  0  0  0  0  0  0  0  0
  156.2940  210.5260  154.9960 F   0  0  0  0  0  0  0  0  0  0  0  0
  158.9360  212.1620  153.1650 C   0  0  0  0  0  0  0  0  0  0  0  0
  156.9750  211.4790  154.3220 C   0  0  0  0  0  0  0  0  0  0  0  0
  158.4000  213.4470  153.0020 C   0  0  0  0  0  3  0  0  0  0  0  0
  157.1250  213.7320  153.4850 C   0  0  0  0  0  3  0  0  0  0  0  0
  156.4090  212.7460  154.1580 C   0  0  0  0  0  3  0  0  0  0  0  0
  160.7760  212.6430  151.6700 N   0  0  0  0  0  2  0  0  0  0  0  0
  159.5980  213.1840  151.1350 N   0  0  0  0  0  2  0  0  0  0  0  0
  161.5400  214.3060  147.0550 O   0  0  0  0  0  0  0  0  0  0  0  0
  158.6030  214.2320  146.6610 C   0  0  0  0  0  2  0  0  0  0  0  0
  157.5380  213.1270  148.5040 C   0  0  0  0  0  2  0  0  0  0  0  0
  157.3020  213.5740  147.0650 C   0  0  0  0  0  2  0  0  0  0  0  0
  158.6650  213.8900  149.0320 N   0  0  2  0  0  0  0  0  0  0  0  0
  159.3460  214.3460  147.8930 N   0  0  0  0  0  0  0  0  0  0  0  0
  159.6000  212.9580  149.6960 C   0  0  1  0  0  3  0  0  0  0  0  0
  160.7090  214.0070  147.9520 C   0  0  0  0  0  0  0  0  0  0  0  0
  161.0110  213.2450  149.1660 C   0  0  2  0  0  3  0  0  0  0  0  0
  161.7330  211.9430  148.8540 C   0  0  0  0  0  2  0  0  0  0  0  0
  162.0530  211.9230  147.4920 O   0  0  0  0  0  1  0  0  0  0  0  0
  161.6150  206.1430  153.5620 C   0  0  0  0  0  2  0  0  0  0  0  0
  161.9730  203.8370  152.2040 S   0  0  0  0  0  0  0  0  0  0  0  0
  160.8690  204.8820  153.1660 C   0  0  2  0  0  3  0  0  0  0  0  0
  159.7150  205.2220  152.2520 C   0  0  0  0  0  2  0  0  0  0  0  0
  160.2410  205.4850  150.9240 N   0  0  0  0  0  2  0  0  0  0  0  0
  161.2680  204.4770  150.6530 C   0  0  1  0  0  3  0  0  0  0  0  0
  162.4420  206.5000  149.8690 N   0  0  0  0  0  0  0  0  0  0  0  0
  162.2190  204.7830  148.3340 C   0  0  0  0  0  0  0  0  0  0  0  0
  162.4020  205.0460  149.7900 C   0  0  2  0  0  3  0  0  0  0  0  0
  162.1970  206.0520  147.5710 C   0  0  2  0  0  3  0  0  0  0  0  0
  161.0930  205.5670  143.6220 C   0  0  2  0  0  0  0  0  0  0  0  0
  159.5890  204.8040  144.3550 S   0  0  0  0  0  0  0  0  0  0  0  0
  161.2860  205.7850  142.1770 C   0  0  0  0  0  2  0  0  0  0  0  0
  162.3730  207.0280  148.6850 C   0  0  0  0  0  0  0  0  0  0  0  0
  162.0880  203.6090  147.7210 C   0  0  0  0  0  0  0  0  0  0  0  0
  160.8670  206.4390  145.4930 C   0  0  1  0  0  3  0  0  0  0  0  0
  160.4870  204.9780  145.9230 C   0  0  1  0  0  0  0  0  0  0  0  0
  160.8130  206.1420  146.9260 C   0  0  1  0  0  3  0  0  0  0  0  0
  161.8490  204.6690  142.8420 O   0  0  0  0  0  0  0  0  0  0  0  0
  161.8820  206.2330  144.5650 O   0  0  0  0  0  0  0  0  0  0  0  0
  161.8230  203.6630  145.9340 S   0  0  0  0  0  0  0  0  0  0  0  0
  162.5830  208.3920  148.4860 O   0  0  0  0  0  0  0  0  0  0  0  0
  161.9400  209.3250  149.3470 C   0  0  0  0  0  1  0  0  0  0  0  0
  163.2460  201.5640  148.1760 O   0  0  0  0  0  1  0  0  0  0  0  0
  162.1160  202.3190  148.5080 C   0  0  2  0  0  3  0  0  0  0  0  0
  160.8390  201.4710  148.4430 C   0  0  2  0  0  3  0  0  0  0  0  0
  160.4190  201.1580  149.7380 O   0  0  0  0  0  1  0  0  0  0  0  0
  160.9670  200.1920  147.6100 C   0  0  0  0  0  2  0  0  0  0  0  0
  160.6710  200.4340  146.2650 O   0  0  0  0  0  1  0  0  0  0  0  0
  1 32  1  0  0  0  0
  2  1  1  6  0  0  0
  2  6  1  0  0  0  0
  6  3  1  0  0  0  0
  6  5  1  0  0  0  0
  6  4  1  0  0  0  0
  7  2  1  0  0  0  0
  8  9  1  6  0  0  0
  8 11  1  0  0  0  0
  8  7  1  0  0  0  0
 10  8  1  0  0  0  0
 11 19  1  6  0  0  0
 11 14  1  0  0  0  0
 12 15  1  0  0  0  0
 14 12  2  0  0  0  0
 15 13  1  0  0  0  0
 16 14  1  0  0  0  0
 16 17  2  0  0  0  0
 17 18  1  0  0  0  0
 18 15  2  0  0  0  0
 20 19  1  0  0  0  0
 21 28  2  0  0  0  0
 22 24  1  0  0  0  0
 22 26  1  0  0  0  0
 24 23  1  0  0  0  0
 25 23  1  6  0  0  0
 25 27  1  0  0  0  0
 26 28  1  0  0  0  0
 26 25  1  0  0  0  0
 27 20  1  1  0  0  0
 28 29  1  0  0  0  0
 29 30  1  6  0  0  0
 29 27  1  0  0  0  0
 31 30  1  0  0  0  0
 33 34  1  0  0  0  0
 34 32  1  6  0  0  0
 35 34  1  0  0  0  0
 36 35  1  0  0  0  0
 37 36  1  1  0  0  0
 37 33  1  0  0  0  0
 40 39  1  6  0  0  0
 40 38  1  0  0  0  0
 40 37  1  0  0  0  0
 41 39  1  1  0  0  0
 41 45  1  0  0  0  0
 42 44  1  6  0  0  0
 42 43  1  0  0  0  0
 42 51  1  0  0  0  0
 44 50  1  0  0  0  0
 45 38  2  0  0  0  0
 46 39  2  0  0  0  0
 46 56  1  0  0  0  0
 47 51  1  6  0  0  0
 47 48  1  0  0  0  0
 47 49  1  0  0  0  0
 48 43  1  6  0  0  0
 48 52  1  0  0  0  0
 48 49  1  0  0  0  0
 49 41  1  0  0  0  0
 50 42  1  0  0  0  0
 52 46  1  0  0  0  0
 53 45  1  0  0  0  0
 53 54  1  0  0  0  0
 55 56  1  0  0  0  0
 57 56  1  0  0  0  0
 57 58  1  0  0  0  0
 59 57  1  0  0  0  0
 60 59  1  0  0  0  0
M  END
>  <MODEL>
8

>  <REMARK>
 VINA RESULT:       3.5      1.994      3.969
  Name = 
  17 active torsions:
  status: ('A' for Active; 'I' for Inactive)
    1  A    between atoms: N_2  and  N_36
    2  A    between atoms: N_2  and  C_43
    3  A    between atoms: C_5  and  C_45
    4  A    between atoms: C_5  and  C_59
    5  A    between atoms: C_8  and  C_28
    6  A    between atoms: C_8  and  N_55
    7  A    between atoms: O_14  and  C_32
    8  A    between atoms: C_15  and  C_28
    9  A    between atoms: C_16  and  C_50
   10  A    between atoms: C_22  and  C_45
   11  A    between atoms: C_25  and  C_27
   12  A    between atoms: C_25  and  C_31
   13  A    between atoms: C_28  and  N_36
   14  A    between atoms: C_31  and  C_34
   15  A    between atoms: C_38  and  C_51
   16  A    between atoms: C_44  and  C_59
   17  A    between atoms: N_55  and  C_59
                            x       y       z     vdW  Elec       q    Type
                         _______ _______ _______ _____ _____    ______ ____

>  <TORSDO>
F 17

$$$$
=
 OpenBabel11072411583D

 60 68  0  0  1  0  0  0  0  0999 V2000
  159.7810  208.3090  155.2000 C   0  0  0  0  0  2  0  0  0  0  0  0
  160.5750  209.5040  154.6640 C   0  0  2  0  0  3  0  0  0  0  0  0
  162.9440  209.9440  154.7690 F   0  0  0  0  0  0  0  0  0  0  0  0
  161.9640  208.8700  156.4940 F   0  0  0  0  0  0  0  0  0  0  0  0
  161.5930  211.0650  156.1950 F   0  0  0  0  0  0  0  0  0  0  0  0
  161.7900  209.8600  155.5390 C   0  0  0  0  0  0  0  0  0  0  0  0
  159.6740  210.6510  154.5450 N   0  0  0  0  0  2  0  0  0  0  0  0
  160.1840  211.6530  153.5970 C   0  0  2  0  0  0  0  0  0  0  0  0
  160.6040  211.0250  152.4190 O   0  0  0  0  0  1  0  0  0  0  0  0
  161.3080  212.3630  154.1950 N   0  0  0  0  0  1  0  0  0  0  0  0
  159.0410  212.6330  153.2520 C   0  0  2  0  0  3  0  0  0  0  0  0
  160.2110  213.4170  151.2130 N   0  0  0  0  0  0  0  0  0  0  0  0
  161.4650  213.9180  149.2900 F   0  0  0  0  0  0  0  0  0  0  0  0
  159.0240  213.1480  151.8310 C   0  0  0  0  0  0  0  0  0  0  0  0
  160.2730  213.6780  149.8790 C   0  0  0  0  0  0  0  0  0  0  0  0
  157.8430  213.1180  151.0750 C   0  0  0  0  0  3  0  0  0  0  0  0
  157.8870  213.3990  149.7120 C   0  0  0  0  0  3  0  0  0  0  0  0
  159.1090  213.6720  149.1050 C   0  0  0  0  0  3  0  0  0  0  0  0
  159.0300  213.7620  154.1710 N   0  0  0  0  0  2  0  0  0  0  0  0
  157.7280  214.2820  154.1540 N   0  0  0  0  0  2  0  0  0  0  0  0
  156.8890  210.9160  157.2600 O   0  0  0  0  0  0  0  0  0  0  0  0
  154.3470  212.3720  156.8060 C   0  0  0  0  0  2  0  0  0  0  0  0
  154.7620  214.4510  155.6850 C   0  0  0  0  0  2  0  0  0  0  0  0
  153.7080  213.7090  156.4990 C   0  0  0  0  0  2  0  0  0  0  0  0
  155.6970  213.4630  155.1540 N   0  0  2  0  0  0  0  0  0  0  0  0
  155.5300  212.3420  155.9800 N   0  0  0  0  0  0  0  0  0  0  0  0
  157.0760  213.9310  155.4090 C   0  0  1  0  0  3  0  0  0  0  0  0
  156.7640  211.9080  156.4960 C   0  0  0  0  0  0  0  0  0  0  0  0
  157.8560  212.7770  156.0510 C   0  0  2  0  0  3  0  0  0  0  0  0
  158.6880  213.2860  157.2180 C   0  0  0  0  0  2  0  0  0  0  0  0
  159.8840  213.8150  156.7190 O   0  0  0  0  0  1  0  0  0  0  0  0
  160.2630  207.0220  154.5600 C   0  0  0  0  0  2  0  0  0  0  0  0
  161.5400  207.5140  152.2330 S   0  0  0  0  0  0  0  0  0  0  0  0
  161.6630  207.1710  153.9950 C   0  0  2  0  0  3  0  0  0  0  0  0
  162.4170  205.8680  154.1140 C   0  0  0  0  0  2  0  0  0  0  0  0
  161.9510  204.9690  153.0720 N   0  0  0  0  0  2  0  0  0  0  0  0
  161.8080  205.7560  151.8460 C   0  0  1  0  0  3  0  0  0  0  0  0
  160.5450  203.8010  151.0320 N   0  0  0  0  0  0  0  0  0  0  0  0
  160.8180  205.5430  149.5340 C   0  0  0  0  0  0  0  0  0  0  0  0
  160.6420  205.2540  150.9860 C   0  0  2  0  0  3  0  0  0  0  0  0
  160.7790  204.2930  148.7420 C   0  0  2  0  0  3  0  0  0  0  0  0
  161.8530  204.8260  144.7910 C   0  0  2  0  0  0  0  0  0  0  0  0
  163.3950  205.5120  145.5210 S   0  0  0  0  0  0  0  0  0  0  0  0
  161.6330  204.6500  143.3440 C   0  0  0  0  0  2  0  0  0  0  0  0
  160.5780  203.2980  149.8350 C   0  0  0  0  0  0  0  0  0  0  0  0
  160.9880  206.7250  148.9470 C   0  0  0  0  0  0  0  0  0  0  0  0
  162.0670  203.9020  146.6380 C   0  0  1  0  0  3  0  0  0  0  0  0
  162.5110  205.3360  147.0960 C   0  0  1  0  0  0  0  0  0  0  0  0
  162.1500  204.1630  148.0770 C   0  0  1  0  0  3  0  0  0  0  0  0
  161.1240  205.7720  144.0420 O   0  0  0  0  0  0  0  0  0  0  0  0
  161.0490  204.1700  145.7290 O   0  0  0  0  0  0  0  0  0  0  0  0
  161.2280  206.7020  147.1560 S   0  0  0  0  0  0  0  0  0  0  0  0
  160.3110  201.9490  149.6080 O   0  0  0  0  0  0  0  0  0  0  0  0
  160.5390  201.4060  148.3130 C   0  0  0  0  0  1  0  0  0  0  0  0
  159.8280  208.7120  149.6100 O   0  0  0  0  0  1  0  0  0  0  0  0
  161.0210  207.9960  149.7630 C   0  0  2  0  0  3  0  0  0  0  0  0
  162.2450  208.8960  149.5460 C   0  0  2  0  0  3  0  0  0  0  0  0
  162.4980  209.6290  150.7080 O   0  0  0  0  0  1  0  0  0  0  0  0
  162.1330  209.8400  148.3450 C   0  0  0  0  0  2  0  0  0  0  0  0
  162.4830  211.1470  148.6960 O   0  0  0  0  0  1  0  0  0  0  0  0
  2  1  1  1  0  0  0
  2  6  1  0  0  0  0
  3  6  1  0  0  0  0
  6  5  1  0  0  0  0
  6  4  1  0  0  0  0
  7  2  1  0  0  0  0
  8  9  1  6  0  0  0
  8 10  1  0  0  0  0
  8  7  1  0  0  0  0
 11  8  1  0  0  0  0
 11 19  1  1  0  0  0
 12 14  1  0  0  0  0
 13 15  1  0  0  0  0
 14 11  1  0  0  0  0
 15 12  2  0  0  0  0
 16 14  2  0  0  0  0
 17 16  1  0  0  0  0
 18 17  2  0  0  0  0
 18 15  1  0  0  0  0
 20 19  1  0  0  0  0
 23 24  1  0  0  0  0
 24 22  1  0  0  0  0
 25 27  1  0  0  0  0
 25 23  1  1  0  0  0
 25 26  1  0  0  0  0
 26 28  1  0  0  0  0
 26 22  1  0  0  0  0
 27 20  1  6  0  0  0
 27 29  1  0  0  0  0
 28 21  2  0  0  0  0
 29 28  1  0  0  0  0
 29 30  1  1  0  0  0
 31 30  1  0  0  0  0
 32  1  1  0  0  0  0
 33 34  1  0  0  0  0
 34 35  1  0  0  0  0
 34 32  1  6  0  0  0
 36 35  1  0  0  0  0
 37 33  1  1  0  0  0
 37 36  1  0  0  0  0
 40 39  1  6  0  0  0
 40 38  1  0  0  0  0
 40 37  1  0  0  0  0
 41 39  1  1  0  0  0
 41 45  1  0  0  0  0
 42 44  1  6  0  0  0
 42 43  1  0  0  0  0
 42 51  1  0  0  0  0
 44 50  1  0  0  0  0
 45 38  2  0  0  0  0
 46 39  2  0  0  0  0
 46 56  1  0  0  0  0
 47 51  1  1  0  0  0
 47 48  1  0  0  0  0
 47 49  1  0  0  0  0
 48 43  1  6  0  0  0
 48 52  1  0  0  0  0
 48 49  1  0  0  0  0
 49 41  1  0  0  0  0
 50 42  1  0  0  0  0
 52 46  1  0  0  0  0
 53 45  1  0  0  0  0
 54 53  1  0  0  0  0
 55 56  1  0  0  0  0
 57 56  1  0  0  0  0
 57 58  1  0  0  0  0
 59 60  1  0  0  0  0
 59 57  1  0  0  0  0
M  END
>  <MODEL>
9

>  <REMARK>
 VINA RESULT:       3.8      1.947      4.307
  Name = 
  17 active torsions:
  status: ('A' for Active; 'I' for Inactive)
    1  A    between atoms: N_2  and  N_36
    2  A    between atoms: N_2  and  C_43
    3  A    between atoms: C_5  and  C_45
    4  A    between atoms: C_5  and  C_59
    5  A    between atoms: C_8  and  C_28
    6  A    between atoms: C_8  and  N_55
    7  A    between atoms: O_14  and  C_32
    8  A    between atoms: C_15  and  C_28
    9  A    between atoms: C_16  and  C_50
   10  A    between atoms: C_22  and  C_45
   11  A    between atoms: C_25  and  C_27
   12  A    between atoms: C_25  and  C_31
   13  A    between atoms: C_28  and  N_36
   14  A    between atoms: C_31  and  C_34
   15  A    between atoms: C_38  and  C_51
   16  A    between atoms: C_44  and  C_59
   17  A    between atoms: N_55  and  C_59
                            x       y       z     vdW  Elec       q    Type
                         _______ _______ _______ _____ _____    ______ ____

>  <TORSDO>
F 17

$$$$
