=
 OpenBabel11072412053D

 45 49  0  0  1  0  0  0  0  0999 V2000
  161.8070  209.7800  150.4470 O   0  0  0  0  0  0  0  0  0  0  0  0
  159.9030  212.6840  151.7270 C   0  0  0  0  0  3  0  0  0  0  0  0
  160.8400  208.4240  153.6470 O   0  0  0  0  0  0  0  0  0  0  0  0
  161.3590  211.9490  149.4370 C   0  0  0  0  0  0  0  0  0  0  0  0
  161.2300  211.0540  150.5150 C   0  0  0  0  0  0  0  0  0  0  0  0
  160.3410  210.4980  152.7270 N   0  0  0  0  0  2  0  0  0  0  0  0
  160.0430  213.5820  150.6670 C   0  0  0  0  0  3  0  0  0  0  0  0
  161.0070  209.2350  152.6970 C   0  0  0  0  0  0  0  0  0  0  0  0
  160.7720  213.2290  149.5260 C   0  0  0  0  0  0  0  0  0  0  0  0
  161.9830  208.9270  151.5870 C   0  0  1  0  0  3  0  0  0  0  0  0
  160.5000  211.4260  151.6550 C   0  0  0  0  0  0  0  0  0  0  0  0
  160.9200  206.5760  151.8310 C   0  0  0  0  0  2  0  0  0  0  0  0
  163.2060  206.8070  151.0320 O   0  0  0  0  0  1  0  0  0  0  0  0
  161.9730  207.4470  151.1840 C   0  0  2  0  0  0  0  0  0  0  0  0
  160.8100  206.9240  150.3490 C   0  0  1  0  0  3  0  0  0  0  0  0
  161.2050  205.7230  149.4930 C   0  0  2  0  0  3  0  0  0  0  0  0
  160.5950  205.7540  148.2040 O   0  0  0  0  0  0  0  0  0  0  0  0
  162.3020  207.4210  147.5600 C   0  0  0  0  0  1  0  0  0  0  0  0
  161.4320  206.2340  147.1550 C   0  0  2  0  0  0  0  0  0  0  0  0
  160.6670  206.5770  146.0370 O   0  0  0  0  0  1  0  0  0  0  0  0
  163.0550  205.4270  145.5910 F   0  0  0  0  0  0  0  0  0  0  0  0
  162.3620  205.1020  146.7460 C   0  0  0  0  0  2  0  0  0  0  0  0
  161.0170  204.5110  150.1750 O   0  0  0  0  0  0  0  0  0  0  0  0
  160.5250  203.6840  149.2650 O   0  0  0  0  0  0  0  0  0  0  0  0
  161.1700  202.4390  149.4300 C   0  0  1  0  0  3  0  0  0  0  0  0
  160.7940  201.7850  150.7560 C   0  0  0  0  0  2  0  0  0  0  0  0
  161.6920  202.2920  151.8700 C   0  0  0  0  0  1  0  0  0  0  0  0
  160.9290  201.5030  148.2460 C   0  0  0  0  0  2  0  0  0  0  0  0
  160.6960  202.2580  147.0670 O   0  0  0  0  0  0  0  0  0  0  0  0
  160.5150  201.6410  145.8280 C   0  0  0  0  0  3  0  0  0  0  0  0
  160.8530  200.4410  145.6420 O   0  0  0  0  0  0  0  0  0  0  0  0
  163.4860  212.2310  148.1960 C   0  0  0  0  0  1  0  0  0  0  0  0
  162.1350  211.5390  148.2180 C   0  0  0  0  0  2  0  0  0  0  0  0
  160.9050  214.2370  148.4270 C   0  0  0  0  0  2  0  0  0  0  0  0
  159.7930  214.1150  147.4840 N   0  0  0  0  0  2  0  0  0  0  0  0
  158.7850  213.5100  142.6100 C   0  0  0  0  0  2  0  0  0  0  0  0
  160.9720  213.9640  143.3980 C   0  0  2  0  0  3  0  0  0  0  0  0
  159.8780  213.8540  141.1880 S   0  0  0  0  0  0  0  0  0  0  0  0
  160.2500  213.6040  146.1860 C   0  0  2  0  0  3  0  0  0  0  0  0
  159.7030  213.2270  143.7610 C   0  0  2  0  0  0  0  0  0  0  0  0
  161.6080  214.2090  145.7800 C   0  0  0  0  0  2  0  0  0  0  0  0
  159.9280  211.8490  143.8400 O   0  0  0  0  0  1  0  0  0  0  0  0
  161.3260  213.5950  142.1020 O   0  0  0  0  0  0  0  0  0  0  0  0
  162.0700  213.6890  144.4170 C   0  0  0  0  0  2  0  0  0  0  0  0
  159.1720  213.7530  145.0920 C   0  0  0  0  0  2  0  0  0  0  0  0
  1  5  1  0  0  0  0
  4  9  2  0  0  0  0
  4  5  1  0  0  0  0
  5 11  2  0  0  0  0
  7  2  2  0  0  0  0
  8  6  1  0  0  0  0
  8  3  2  0  0  0  0
  9  7  1  0  0  0  0
 10  1  1  6  0  0  0
 10  8  1  0  0  0  0
 11  2  1  0  0  0  0
 11  6  1  0  0  0  0
 14 13  1  6  0  0  0
 14 10  1  0  0  0  0
 14 12  1  0  0  0  0
 15 16  1  6  0  0  0
 15 14  1  0  0  0  0
 15 12  1  0  0  0  0
 16 17  1  6  0  0  0
 16 23  1  0  0  0  0
 19 18  1  1  0  0  0
 19 17  1  0  0  0  0
 20 19  1  0  0  0  0
 21 22  1  0  0  0  0
 22 19  1  0  0  0  0
 24 25  1  0  0  0  0
 24 23  1  0  0  0  0
 25 28  1  6  0  0  0
 25 26  1  0  0  0  0
 26 27  1  0  0  0  0
 29 28  1  0  0  0  0
 30 29  1  0  0  0  0
 31 30  2  0  0  0  0
 32 33  1  0  0  0  0
 33  4  1  0  0  0  0
 34  9  1  0  0  0  0
 35 34  1  0  0  0  0
 36 40  1  0  0  0  0
 37 40  1  0  0  0  0
 37 44  1  1  0  0  0
 38 43  1  0  0  0  0
 38 36  1  0  0  0  0
 39 35  1  1  0  0  0
 40 42  1  1  0  0  0
 40 45  1  0  0  0  0
 41 39  1  0  0  0  0
 43 37  1  0  0  0  0
 44 41  1  0  0  0  0
 45 39  1  0  0  0  0
M  END
>  <MODEL>
1

>  <REMARK>
 VINA RESULT:      -6.5      0.000      0.000
  Name = 
  16 active torsions:
  status: ('A' for Active; 'I' for Inactive)
    1  A    between atoms: C_2  and  C_3
    2  A    between atoms: C_3  and  O_18
    3  A    between atoms: C_3  and  C_39
    4  A    between atoms: C_8  and  C_35
    5  A    between atoms: O_11  and  C_29
    6  A    between atoms: O_11  and  C_39
    7  A    between atoms: O_13  and  O_18
    8  A    between atoms: O_13  and  C_40
    9  A    between atoms: O_16  and  C_25
   10  A    between atoms: O_16  and  C_40
   11  A    between atoms: C_19  and  C_23
   12  A    between atoms: C_20  and  N_38
   13  A    between atoms: C_21  and  C_40
   14  A    between atoms: C_22  and  C_25
   15  A    between atoms: C_28  and  C_32
   16  A    between atoms: C_28  and  N_38
                            x       y       z     vdW  Elec       q    Type
                         _______ _______ _______ _____ _____    ______ ____

>  <TORSDO>
F 16

$$$$
=
 OpenBabel11072412053D

 45 49  0  0  1  0  0  0  0  0999 V2000
  161.1050  207.9350  151.5240 O   0  0  0  0  0  0  0  0  0  0  0  0
  161.3410  211.2610  153.1280 C   0  0  0  0  0  3  0  0  0  0  0  0
  162.1860  209.8400  148.6580 O   0  0  0  0  0  0  0  0  0  0  0  0
  160.6520  208.6240  153.8140 C   0  0  0  0  0  0  0  0  0  0  0  0
  161.0390  208.9380  152.4980 C   0  0  0  0  0  0  0  0  0  0  0  0
  161.8120  210.5590  150.8340 N   0  0  0  0  0  2  0  0  0  0  0  0
  160.9420  210.9580  154.4310 C   0  0  0  0  0  3  0  0  0  0  0  0
  161.7900  209.5550  149.8200 C   0  0  0  0  0  0  0  0  0  0  0  0
  160.5900  209.6500  154.7810 C   0  0  0  0  0  0  0  0  0  0  0  0
  161.1930  208.2000  150.1160 C   0  0  1  0  0  3  0  0  0  0  0  0
  161.3840  210.2570  152.1610 C   0  0  0  0  0  0  0  0  0  0  0  0
  162.2890  205.8530  150.2020 C   0  0  0  0  0  2  0  0  0  0  0  0
  162.8800  207.4140  148.4330 O   0  0  0  0  0  1  0  0  0  0  0  0
  161.9120  207.0640  149.3790 C   0  0  2  0  0  0  0  0  0  0  0  0
  161.1740  205.7470  149.1640 C   0  0  1  0  0  3  0  0  0  0  0  0
  161.6700  204.9980  147.9300 C   0  0  2  0  0  3  0  0  0  0  0  0
  160.8060  205.1710  146.8090 O   0  0  0  0  0  0  0  0  0  0  0  0
  161.1200  203.4980  145.0170 C   0  0  0  0  0  1  0  0  0  0  0  0
  161.4030  204.9030  145.5430 C   0  0  2  0  0  0  0  0  0  0  0  0
  162.7840  205.1100  145.5990 O   0  0  0  0  0  1  0  0  0  0  0  0
  161.5100  205.8190  143.3340 F   0  0  0  0  0  0  0  0  0  0  0  0
  160.8310  205.8930  144.5380 C   0  0  0  0  0  2  0  0  0  0  0  0
  161.9590  203.6560  148.2150 O   0  0  0  0  0  0  0  0  0  0  0  0
  160.8090  203.1420  148.6240 O   0  0  0  0  0  0  0  0  0  0  0  0
  161.1060  202.0080  149.4100 C   0  0  1  0  0  3  0  0  0  0  0  0
  160.3680  202.0440  150.7460 C   0  0  0  0  0  2  0  0  0  0  0  0
  161.1180  202.9100  151.7420 C   0  0  0  0  0  1  0  0  0  0  0  0
  160.8540  200.7010  148.6590 C   0  0  0  0  0  2  0  0  0  0  0  0
  161.4740  200.7480  147.3820 O   0  0  0  0  0  0  0  0  0  0  0  0
  160.9450  200.0610  146.2870 C   0  0  0  0  0  3  0  0  0  0  0  0
  161.4140  198.9470  145.9280 O   0  0  0  0  0  0  0  0  0  0  0  0
  161.5160  206.3150  154.0740 C   0  0  0  0  0  1  0  0  0  0  0  0
  160.2930  207.2090  154.1670 C   0  0  0  0  0  2  0  0  0  0  0  0
  160.1530  209.3850  156.1880 C   0  0  0  0  0  2  0  0  0  0  0  0
  159.9160  210.6430  156.8960 N   0  0  0  0  0  2  0  0  0  0  0  0
  157.3190  214.4480  154.9190 C   0  0  0  0  0  2  0  0  0  0  0  0
  156.6240  212.1950  154.6910 C   0  0  2  0  0  3  0  0  0  0  0  0
  155.9310  214.3630  153.7350 S   0  0  0  0  0  0  0  0  0  0  0  0
  158.5950  211.1960  156.5730 C   0  0  2  0  0  3  0  0  0  0  0  0
  157.2960  213.1440  155.6570 C   0  0  2  0  0  0  0  0  0  0  0  0
  157.7780  210.2400  155.6820 C   0  0  0  0  0  2  0  0  0  0  0  0
  156.5380  213.2920  156.8240 O   0  0  0  0  0  1  0  0  0  0  0  0
  155.4380  212.7890  154.2630 O   0  0  0  0  0  0  0  0  0  0  0  0
  156.4110  210.8290  155.3310 C   0  0  0  0  0  2  0  0  0  0  0  0
  158.6900  212.6240  155.9950 C   0  0  0  0  0  2  0  0  0  0  0  0
  1  5  1  0  0  0  0
  2  7  1  0  0  0  0
  3  8  2  0  0  0  0
  4 33  1  0  0  0  0
  4  9  1  0  0  0  0
  5  4  2  0  0  0  0
  6 11  1  0  0  0  0
  7  9  2  0  0  0  0
  8  6  1  0  0  0  0
  9 34  1  0  0  0  0
 10  8  1  1  0  0  0
 10  1  1  0  0  0  0
 11  5  1  0  0  0  0
 11  2  2  0  0  0  0
 14 13  1  6  0  0  0
 14 10  1  0  0  0  0
 14 12  1  0  0  0  0
 15 16  1  6  0  0  0
 15 14  1  0  0  0  0
 15 12  1  0  0  0  0
 16 17  1  6  0  0  0
 16 23  1  0  0  0  0
 19 18  1  6  0  0  0
 19 20  1  0  0  0  0
 19 17  1  0  0  0  0
 21 22  1  0  0  0  0
 22 19  1  0  0  0  0
 23 24  1  0  0  0  0
 24 25  1  0  0  0  0
 25 28  1  6  0  0  0
 25 26  1  0  0  0  0
 26 27  1  0  0  0  0
 29 28  1  0  0  0  0
 30 29  1  0  0  0  0
 31 30  2  0  0  0  0
 32 33  1  0  0  0  0
 34 35  1  0  0  0  0
 36 40  1  0  0  0  0
 37 44  1  1  0  0  0
 37 40  1  0  0  0  0
 38 43  1  0  0  0  0
 38 36  1  0  0  0  0
 39 35  1  6  0  0  0
 40 45  1  0  0  0  0
 40 42  1  1  0  0  0
 41 39  1  0  0  0  0
 43 37  1  0  0  0  0
 44 41  1  0  0  0  0
 45 39  1  0  0  0  0
M  END
>  <MODEL>
2

>  <REMARK>
 VINA RESULT:      -6.5      4.196      6.804
  Name = 
  16 active torsions:
  status: ('A' for Active; 'I' for Inactive)
    1  A    between atoms: C_2  and  C_3
    2  A    between atoms: C_3  and  O_18
    3  A    between atoms: C_3  and  C_39
    4  A    between atoms: C_8  and  C_35
    5  A    between atoms: O_11  and  C_29
    6  A    between atoms: O_11  and  C_39
    7  A    between atoms: O_13  and  O_18
    8  A    between atoms: O_13  and  C_40
    9  A    between atoms: O_16  and  C_25
   10  A    between atoms: O_16  and  C_40
   11  A    between atoms: C_19  and  C_23
   12  A    between atoms: C_20  and  N_38
   13  A    between atoms: C_21  and  C_40
   14  A    between atoms: C_22  and  C_25
   15  A    between atoms: C_28  and  C_32
   16  A    between atoms: C_28  and  N_38
                            x       y       z     vdW  Elec       q    Type
                         _______ _______ _______ _____ _____    ______ ____

>  <TORSDO>
F 16

$$$$
=
 OpenBabel11072412053D

 45 49  0  0  1  0  0  0  0  0999 V2000
  160.1200  212.9890  150.7330 O   0  0  0  0  0  0  0  0  0  0  0  0
  158.1790  214.4410  147.9370 C   0  0  0  0  0  3  0  0  0  0  0  0
  157.1250  213.8550  152.5470 O   0  0  0  0  0  0  0  0  0  0  0  0
  160.7000  213.2820  148.3870 C   0  0  0  0  0  0  0  0  0  0  0  0
  159.7880  213.4340  149.4480 C   0  0  0  0  0  0  0  0  0  0  0  0
  157.5960  214.1280  150.2890 N   0  0  0  0  0  2  0  0  0  0  0  0
  159.0860  214.3080  146.8840 C   0  0  0  0  0  3  0  0  0  0  0  0
  157.9700  213.7590  151.6170 C   0  0  0  0  0  0  0  0  0  0  0  0
  160.3470  213.7390  147.0990 C   0  0  0  0  0  0  0  0  0  0  0  0
  159.3970  213.3640  151.9140 C   0  0  1  0  0  3  0  0  0  0  0  0
  158.5300  214.0120  149.2170 C   0  0  0  0  0  0  0  0  0  0  0  0
  158.5810  211.0890  152.8490 C   0  0  0  0  0  2  0  0  0  0  0  0
  159.6540  212.7010  154.3200 O   0  0  0  0  0  1  0  0  0  0  0  0
  159.4970  212.2820  152.9960 C   0  0  2  0  0  0  0  0  0  0  0  0
  160.0820  210.9250  152.6230 C   0  0  1  0  0  3  0  0  0  0  0  0
  160.7230  210.2200  153.8170 C   0  0  2  0  0  3  0  0  0  0  0  0
  161.4340  211.1240  154.6590 O   0  0  0  0  0  0  0  0  0  0  0  0
  161.4680  211.9000  157.0060 C   0  0  0  0  0  1  0  0  0  0  0  0
  161.5180  210.7310  156.0270 C   0  0  2  0  0  0  0  0  0  0  0  0
  162.6780  209.9850  156.2520 O   0  0  0  0  0  1  0  0  0  0  0  0
  160.7430  208.5310  156.5680 F   0  0  0  0  0  0  0  0  0  0  0  0
  160.3280  209.8310  156.3270 C   0  0  0  0  0  2  0  0  0  0  0  0
  161.4790  209.1070  153.4210 O   0  0  0  0  0  0  0  0  0  0  0  0
  160.7970  208.5730  152.4190 O   0  0  0  0  0  0  0  0  0  0  0  0
  161.6810  207.7450  151.6960 C   0  0  1  0  0  3  0  0  0  0  0  0
  161.9190  206.4190  152.4140 C   0  0  0  0  0  2  0  0  0  0  0  0
  161.3240  205.2710  151.6170 C   0  0  0  0  0  1  0  0  0  0  0  0
  161.2270  207.5360  150.2520 C   0  0  0  0  0  2  0  0  0  0  0  0
  162.3420  207.2200  149.4320 O   0  0  0  0  0  0  0  0  0  0  0  0
  162.2700  207.2990  148.0390 C   0  0  0  0  0  3  0  0  0  0  0  0
  161.3150  206.7740  147.4050 O   0  0  0  0  0  0  0  0  0  0  0  0
  161.9450  211.1430  148.5350 C   0  0  0  0  0  1  0  0  0  0  0  0
  162.0400  212.6550  148.6420 C   0  0  0  0  0  2  0  0  0  0  0  0
  161.2870  213.6360  145.9390 C   0  0  0  0  0  2  0  0  0  0  0  0
  160.9640  212.4670  145.1210 N   0  0  0  0  0  2  0  0  0  0  0  0
  160.1780  211.4590  140.2740 C   0  0  0  0  0  2  0  0  0  0  0  0
  161.0380  213.5420  141.0050 C   0  0  2  0  0  3  0  0  0  0  0  0
  160.2160  212.6220  138.8660 S   0  0  0  0  0  0  0  0  0  0  0  0
  161.4210  212.6420  143.7380 C   0  0  2  0  0  3  0  0  0  0  0  0
  161.0700  212.0630  141.3160 C   0  0  2  0  0  0  0  0  0  0  0  0
  161.5370  214.1320  143.3590 C   0  0  0  0  0  2  0  0  0  0  0  0
  162.3620  211.5470  141.1670 O   0  0  0  0  0  1  0  0  0  0  0  0
  161.3220  213.7010  139.6500 O   0  0  0  0  0  0  0  0  0  0  0  0
  161.9940  214.3090  141.9090 C   0  0  0  0  0  2  0  0  0  0  0  0
  160.5680  211.8310  142.7380 C   0  0  0  0  0  2  0  0  0  0  0  0
  2 11  1  0  0  0  0
  4 33  1  0  0  0  0
  4  5  1  0  0  0  0
  5  1  1  0  0  0  0
  6  8  1  0  0  0  0
  7  9  1  0  0  0  0
  7  2  2  0  0  0  0
  8 10  1  0  0  0  0
  8  3  2  0  0  0  0
  9  4  2  0  0  0  0
 10  1  1  6  0  0  0
 10 14  1  0  0  0  0
 11  5  2  0  0  0  0
 11  6  1  0  0  0  0
 12 14  1  0  0  0  0
 14 13  1  1  0  0  0
 15 12  1  0  0  0  0
 15 14  1  0  0  0  0
 15 16  1  1  0  0  0
 16 23  1  6  0  0  0
 16 17  1  0  0  0  0
 17 19  1  0  0  0  0
 19 20  1  0  0  0  0
 19 22  1  0  0  0  0
 19 18  1  1  0  0  0
 22 21  1  0  0  0  0
 24 23  1  0  0  0  0
 25 28  1  6  0  0  0
 25 26  1  0  0  0  0
 25 24  1  0  0  0  0
 27 26  1  0  0  0  0
 29 28  1  0  0  0  0
 30 29  1  0  0  0  0
 31 30  2  0  0  0  0
 32 33  1  0  0  0  0
 34  9  1  0  0  0  0
 35 34  1  0  0  0  0
 36 40  1  0  0  0  0
 37 40  1  0  0  0  0
 37 44  1  1  0  0  0
 38 43  1  0  0  0  0
 38 36  1  0  0  0  0
 39 35  1  1  0  0  0
 40 42  1  6  0  0  0
 40 45  1  0  0  0  0
 41 39  1  0  0  0  0
 43 37  1  0  0  0  0
 44 41  1  0  0  0  0
 45 39  1  0  0  0  0
M  END
>  <MODEL>
3

>  <REMARK>
 VINA RESULT:      -6.5      3.168      5.662
  Name = 
  16 active torsions:
  status: ('A' for Active; 'I' for Inactive)
    1  A    between atoms: C_2  and  C_3
    2  A    between atoms: C_3  and  O_18
    3  A    between atoms: C_3  and  C_39
    4  A    between atoms: C_8  and  C_35
    5  A    between atoms: O_11  and  C_29
    6  A    between atoms: O_11  and  C_39
    7  A    between atoms: O_13  and  O_18
    8  A    between atoms: O_13  and  C_40
    9  A    between atoms: O_16  and  C_25
   10  A    between atoms: O_16  and  C_40
   11  A    between atoms: C_19  and  C_23
   12  A    between atoms: C_20  and  N_38
   13  A    between atoms: C_21  and  C_40
   14  A    between atoms: C_22  and  C_25
   15  A    between atoms: C_28  and  C_32
   16  A    between atoms: C_28  and  N_38
                            x       y       z     vdW  Elec       q    Type
                         _______ _______ _______ _____ _____    ______ ____

>  <TORSDO>
F 16

$$$$
=
 OpenBabel11072412053D

 45 49  0  0  1  0  0  0  0  0999 V2000
  159.7580  210.5320  152.3450 O   0  0  0  0  0  0  0  0  0  0  0  0
  160.5990  208.2590  155.1420 C   0  0  0  0  0  3  0  0  0  0  0  0
  158.2640  212.4120  155.0370 O   0  0  0  0  0  0  0  0  0  0  0  0
  160.9450  208.4070  152.3560 C   0  0  0  0  0  0  0  0  0  0  0  0
  160.2570  209.4250  153.0420 C   0  0  0  0  0  0  0  0  0  0  0  0
  159.4230  210.4020  155.1260 N   0  0  0  0  0  2  0  0  0  0  0  0
  161.2670  207.2380  154.4640 C   0  0  0  0  0  3  0  0  0  0  0  0
  158.8340  211.4830  154.4040 C   0  0  0  0  0  0  0  0  0  0  0  0
  161.4390  207.2980  153.0770 C   0  0  0  0  0  0  0  0  0  0  0  0
  158.8020  211.4510  152.8950 C   0  0  1  0  0  3  0  0  0  0  0  0
  160.0880  209.3460  154.4340 C   0  0  0  0  0  0  0  0  0  0  0  0
  160.3460  213.2840  151.9110 C   0  0  0  0  0  2  0  0  0  0  0  0
  158.1570  213.8730  152.7920 O   0  0  0  0  0  1  0  0  0  0  0  0
  158.9450  212.8440  152.2710 C   0  0  2  0  0  0  0  0  0  0  0  0
  159.3480  212.9520  150.8050 C   0  0  1  0  0  3  0  0  0  0  0  0
  158.8330  214.2330  150.1540 C   0  0  2  0  0  3  0  0  0  0  0  0
  157.4440  214.4450  150.4010 O   0  0  0  0  0  0  0  0  0  0  0  0
  155.0910  214.1470  149.7040 C   0  0  0  0  0  1  0  0  0  0  0  0
  156.5680  213.8630  149.4390 C   0  0  2  0  0  0  0  0  0  0  0  0
  156.7700  212.4830  149.3630 O   0  0  0  0  0  1  0  0  0  0  0  0
  156.6690  213.5360  147.0700 F   0  0  0  0  0  0  0  0  0  0  0  0
  156.9110  214.4530  148.0790 C   0  0  0  0  0  2  0  0  0  0  0  0
  159.1790  214.3050  148.7960 O   0  0  0  0  0  0  0  0  0  0  0  0
  159.9110  213.2230  148.5770 O   0  0  0  0  0  0  0  0  0  0  0  0
  160.5140  213.3680  147.3080 C   0  0  1  0  0  3  0  0  0  0  0  0
  162.0040  213.6780  147.4290 C   0  0  0  0  0  2  0  0  0  0  0  0
  162.7420  212.5010  148.0420 C   0  0  0  0  0  1  0  0  0  0  0  0
  160.2560  212.1630  146.4050 C   0  0  0  0  0  2  0  0  0  0  0  0
  160.2570  212.5660  145.0440 O   0  0  0  0  0  0  0  0  0  0  0  0
  159.0760  212.9140  144.3840 C   0  0  0  0  0  3  0  0  0  0  0  0
  158.5530  214.0500  144.5400 O   0  0  0  0  0  0  0  0  0  0  0  0
  162.1110  209.6090  150.5280 C   0  0  0  0  0  1  0  0  0  0  0  0
  161.1270  208.5030  150.8690 C   0  0  0  0  0  2  0  0  0  0  0  0
  162.1480  206.1680  152.3990 C   0  0  0  0  0  2  0  0  0  0  0  0
  161.2390  205.0390  152.1980 N   0  0  0  0  0  2  0  0  0  0  0  0
  162.3080  206.2770  147.4600 C   0  0  0  0  0  2  0  0  0  0  0  0
  161.6290  204.0900  148.0690 C   0  0  2  0  0  3  0  0  0  0  0  0
  162.5170  205.1600  146.0290 S   0  0  0  0  0  0  0  0  0  0  0  0
  160.9210  204.8570  150.7770 C   0  0  2  0  0  3  0  0  0  0  0  0
  161.4050  205.5460  148.4080 C   0  0  2  0  0  0  0  0  0  0  0  0
  161.0050  203.3760  150.3580 C   0  0  0  0  0  2  0  0  0  0  0  0
  160.0800  205.9210  148.1600 O   0  0  0  0  0  1  0  0  0  0  0  0
  161.4780  203.9430  146.6910 O   0  0  0  0  0  0  0  0  0  0  0  0
  160.6930  203.1950  148.8710 C   0  0  0  0  0  2  0  0  0  0  0  0
  161.7580  205.7880  149.8730 C   0  0  0  0  0  2  0  0  0  0  0  0
  1  5  1  0  0  0  0
  4  5  2  0  0  0  0
  4  9  1  0  0  0  0
  5 11  1  0  0  0  0
  7  2  1  0  0  0  0
  8  3  2  0  0  0  0
  8  6  1  0  0  0  0
  9  7  2  0  0  0  0
 10  1  1  6  0  0  0
 10  8  1  0  0  0  0
 11  6  1  0  0  0  0
 11  2  2  0  0  0  0
 12 14  1  0  0  0  0
 14 13  1  1  0  0  0
 14 10  1  0  0  0  0
 15 16  1  6  0  0  0
 15 12  1  0  0  0  0
 15 14  1  0  0  0  0
 16 23  1  6  0  0  0
 16 17  1  0  0  0  0
 19 18  1  1  0  0  0
 19 17  1  0  0  0  0
 20 19  1  0  0  0  0
 21 22  1  0  0  0  0
 22 19  1  0  0  0  0
 24 23  1  0  0  0  0
 25 28  1  6  0  0  0
 25 26  1  0  0  0  0
 25 24  1  0  0  0  0
 26 27  1  0  0  0  0
 29 28  1  0  0  0  0
 30 31  2  0  0  0  0
 30 29  1  0  0  0  0
 32 33  1  0  0  0  0
 33  4  1  0  0  0  0
 34  9  1  0  0  0  0
 35 34  1  0  0  0  0
 36 40  1  0  0  0  0
 37 40  1  0  0  0  0
 37 44  1  1  0  0  0
 38 43  1  0  0  0  0
 38 36  1  0  0  0  0
 39 35  1  1  0  0  0
 40 42  1  6  0  0  0
 40 45  1  0  0  0  0
 41 39  1  0  0  0  0
 43 37  1  0  0  0  0
 44 41  1  0  0  0  0
 45 39  1  0  0  0  0
M  END
>  <MODEL>
4

>  <REMARK>
 VINA RESULT:      -6.5      3.574      8.804
  Name = 
  16 active torsions:
  status: ('A' for Active; 'I' for Inactive)
    1  A    between atoms: C_2  and  C_3
    2  A    between atoms: C_3  and  O_18
    3  A    between atoms: C_3  and  C_39
    4  A    between atoms: C_8  and  C_35
    5  A    between atoms: O_11  and  C_29
    6  A    between atoms: O_11  and  C_39
    7  A    between atoms: O_13  and  O_18
    8  A    between atoms: O_13  and  C_40
    9  A    between atoms: O_16  and  C_25
   10  A    between atoms: O_16  and  C_40
   11  A    between atoms: C_19  and  C_23
   12  A    between atoms: C_20  and  N_38
   13  A    between atoms: C_21  and  C_40
   14  A    between atoms: C_22  and  C_25
   15  A    between atoms: C_28  and  C_32
   16  A    between atoms: C_28  and  N_38
                            x       y       z     vdW  Elec       q    Type
                         _______ _______ _______ _____ _____    ______ ____

>  <TORSDO>
F 16

$$$$
=
 OpenBabel11072412053D

 45 49  0  0  1  0  0  0  0  0999 V2000
  161.0770  207.2190  151.4440 O   0  0  0  0  0  0  0  0  0  0  0  0
  160.8090  206.7870  155.1100 C   0  0  0  0  0  3  0  0  0  0  0  0
  161.9250  203.7180  151.6390 O   0  0  0  0  0  0  0  0  0  0  0  0
  160.5140  208.8190  153.1890 C   0  0  0  0  0  0  0  0  0  0  0  0
  160.8790  207.5180  152.7970 C   0  0  0  0  0  0  0  0  0  0  0  0
  161.3560  205.1810  153.3500 N   0  0  0  0  0  2  0  0  0  0  0  0
  160.4630  208.0810  155.5060 C   0  0  0  0  0  3  0  0  0  0  0  0
  161.6480  204.8990  151.9820 C   0  0  0  0  0  0  0  0  0  0  0  0
  160.3210  209.1010  154.5590 C   0  0  0  0  0  0  0  0  0  0  0  0
  161.7300  206.0270  150.9820 C   0  0  1  0  0  3  0  0  0  0  0  0
  161.0230  206.5070  153.7600 C   0  0  0  0  0  0  0  0  0  0  0  0
  161.0740  206.7310  148.5760 C   0  0  0  0  0  2  0  0  0  0  0  0
  160.2200  204.6580  149.5190 O   0  0  0  0  0  1  0  0  0  0  0  0
  161.2300  205.6210  149.5900 C   0  0  2  0  0  0  0  0  0  0  0  0
  162.1940  205.7060  148.4120 C   0  0  1  0  0  3  0  0  0  0  0  0
  161.8460  204.7150  147.3050 C   0  0  2  0  0  3  0  0  0  0  0  0
  160.7180  205.1330  146.5390 O   0  0  0  0  0  0  0  0  0  0  0  0
  162.5090  205.8690  145.0030 C   0  0  0  0  0  1  0  0  0  0  0  0
  161.0220  205.6060  145.2300 C   0  0  2  0  0  0  0  0  0  0  0  0
  160.2960  206.7660  144.9470 O   0  0  0  0  0  1  0  0  0  0  0  0
  159.3550  204.0130  144.5850 F   0  0  0  0  0  0  0  0  0  0  0  0
  160.5890  204.5390  144.2360 C   0  0  0  0  0  2  0  0  0  0  0  0
  161.7400  203.4040  147.7920 O   0  0  0  0  0  0  0  0  0  0  0  0
  161.1060  202.7380  146.8380 O   0  0  0  0  0  0  0  0  0  0  0  0
  160.7850  201.4630  147.3510 C   0  0  1  0  0  3  0  0  0  0  0  0
  160.7400  200.4100  146.2470 C   0  0  0  0  0  2  0  0  0  0  0  0
  160.0300  200.9580  145.0210 C   0  0  0  0  0  1  0  0  0  0  0  0
  161.7120  201.0490  148.4930 C   0  0  0  0  0  2  0  0  0  0  0  0
  161.2120  201.5410  149.7280 O   0  0  0  0  0  0  0  0  0  0  0  0
  159.8840  201.3440  150.1100 C   0  0  0  0  0  3  0  0  0  0  0  0
  158.9660  201.2530  149.2500 O   0  0  0  0  0  0  0  0  0  0  0  0
  161.6980  210.2250  151.5260 C   0  0  0  0  0  1  0  0  0  0  0  0
  160.3550  209.8920  152.1510 C   0  0  0  0  0  2  0  0  0  0  0  0
  159.9660  210.4730  155.0410 C   0  0  0  0  0  2  0  0  0  0  0  0
  158.7040  210.4450  155.7810 N   0  0  0  0  0  2  0  0  0  0  0  0
  157.0830  213.8060  152.4340 C   0  0  0  0  0  2  0  0  0  0  0  0
  155.7460  213.0960  154.2560 C   0  0  2  0  0  3  0  0  0  0  0  0
  155.3880  214.4530  152.2240 S   0  0  0  0  0  0  0  0  0  0  0  0
  157.9180  211.6600  155.5380 C   0  0  2  0  0  3  0  0  0  0  0  0
  157.1780  213.3900  153.8710 C   0  0  2  0  0  0  0  0  0  0  0  0
  156.4600  211.5010  156.0120 C   0  0  0  0  0  2  0  0  0  0  0  0
  157.6910  214.4520  154.6220 O   0  0  0  0  0  1  0  0  0  0  0  0
  154.9690  214.1920  153.8850 O   0  0  0  0  0  0  0  0  0  0  0  0
  155.6390  212.7630  155.7380 C   0  0  0  0  0  2  0  0  0  0  0  0
  158.0280  212.1390  154.0750 C   0  0  0  0  0  2  0  0  0  0  0  0
  1  5  1  0  0  0  0
  2  7  1  0  0  0  0
  3  8  2  0  0  0  0
  4  9  1  0  0  0  0
  5  4  2  0  0  0  0
  5 11  1  0  0  0  0
  6 11  1  0  0  0  0
  8  6  1  0  0  0  0
  9 34  1  0  0  0  0
  9  7  2  0  0  0  0
 10  1  1  1  0  0  0
 10  8  1  0  0  0  0
 11  2  2  0  0  0  0
 12 14  1  0  0  0  0
 14 13  1  6  0  0  0
 14 10  1  0  0  0  0
 15 16  1  6  0  0  0
 15 12  1  0  0  0  0
 15 14  1  0  0  0  0
 16 17  1  1  0  0  0
 16 23  1  0  0  0  0
 19 18  1  6  0  0  0
 19 17  1  0  0  0  0
 20 19  1  0  0  0  0
 22 21  1  0  0  0  0
 22 19  1  0  0  0  0
 24 25  1  0  0  0  0
 24 23  1  0  0  0  0
 25 26  1  6  0  0  0
 25 28  1  0  0  0  0
 27 26  1  0  0  0  0
 28 29  1  0  0  0  0
 29 30  1  0  0  0  0
 31 30  2  0  0  0  0
 32 33  1  0  0  0  0
 33  4  1  0  0  0  0
 34 35  1  0  0  0  0
 36 40  1  0  0  0  0
 37 44  1  1  0  0  0
 38 36  1  0  0  0  0
 38 43  1  0  0  0  0
 39 35  1  6  0  0  0
 39 41  1  0  0  0  0
 40 45  1  0  0  0  0
 40 37  1  0  0  0  0
 40 42  1  1  0  0  0
 43 37  1  0  0  0  0
 44 41  1  0  0  0  0
 45 39  1  0  0  0  0
M  END
>  <MODEL>
5

>  <REMARK>
 VINA RESULT:      -6.3      4.521      6.689
  Name = 
  16 active torsions:
  status: ('A' for Active; 'I' for Inactive)
    1  A    between atoms: C_2  and  C_3
    2  A    between atoms: C_3  and  O_18
    3  A    between atoms: C_3  and  C_39
    4  A    between atoms: C_8  and  C_35
    5  A    between atoms: O_11  and  C_29
    6  A    between atoms: O_11  and  C_39
    7  A    between atoms: O_13  and  O_18
    8  A    between atoms: O_13  and  C_40
    9  A    between atoms: O_16  and  C_25
   10  A    between atoms: O_16  and  C_40
   11  A    between atoms: C_19  and  C_23
   12  A    between atoms: C_20  and  N_38
   13  A    between atoms: C_21  and  C_40
   14  A    between atoms: C_22  and  C_25
   15  A    between atoms: C_28  and  C_32
   16  A    between atoms: C_28  and  N_38
                            x       y       z     vdW  Elec       q    Type
                         _______ _______ _______ _____ _____    ______ ____

>  <TORSDO>
F 16

$$$$
=
 OpenBabel11072412053D

 45 49  0  0  1  0  0  0  0  0999 V2000
  161.1840  207.3160  151.6630 O   0  0  0  0  0  0  0  0  0  0  0  0
  161.1770  207.3420  155.3630 C   0  0  0  0  0  3  0  0  0  0  0  0
  161.2750  203.7540  152.2280 O   0  0  0  0  0  0  0  0  0  0  0  0
  161.1450  209.1750  153.2330 C   0  0  0  0  0  0  0  0  0  0  0  0
  161.1840  207.7920  152.9790 C   0  0  0  0  0  0  0  0  0  0  0  0
  161.1970  205.4790  153.7820 N   0  0  0  0  0  2  0  0  0  0  0  0
  161.1560  208.7150  155.6200 C   0  0  0  0  0  3  0  0  0  0  0  0
  161.2920  204.9960  152.4410 C   0  0  0  0  0  0  0  0  0  0  0  0
  161.1480  209.6360  154.5670 C   0  0  0  0  0  0  0  0  0  0  0  0
  161.5190  205.9670  151.3070 C   0  0  1  0  0  3  0  0  0  0  0  0
  161.1970  206.8810  154.0470 C   0  0  0  0  0  0  0  0  0  0  0  0
  160.8160  206.5390  148.8800 C   0  0  0  0  0  2  0  0  0  0  0  0
  159.6140  204.8350  150.1310 O   0  0  0  0  0  1  0  0  0  0  0  0
  160.8150  205.5400  150.0140 C   0  0  2  0  0  0  0  0  0  0  0  0
  161.6600  205.2720  148.7740 C   0  0  1  0  0  3  0  0  0  0  0  0
  160.9990  204.2740  147.8250 C   0  0  2  0  0  3  0  0  0  0  0  0
  161.7600  203.0750  147.6870 O   0  0  0  0  0  0  0  0  0  0  0  0
  160.6450  201.1970  146.5300 C   0  0  0  0  0  1  0  0  0  0  0  0
  161.0160  201.8700  147.8480 C   0  0  2  0  0  0  0  0  0  0  0  0
  159.8570  202.1060  148.5920 O   0  0  0  0  0  1  0  0  0  0  0  0
  161.3820  200.7260  149.9190 F   0  0  0  0  0  0  0  0  0  0  0  0
  161.8760  200.8930  148.6360 C   0  0  0  0  0  2  0  0  0  0  0  0
  160.6550  204.8660  146.6010 O   0  0  0  0  0  0  0  0  0  0  0  0
  161.7520  204.7810  145.8640 O   0  0  0  0  0  0  0  0  0  0  0  0
  161.3530  204.7500  144.5100 C   0  0  1  0  0  3  0  0  0  0  0  0
  159.8330  204.7450  144.3740 C   0  0  0  0  0  2  0  0  0  0  0  0
  159.3310  203.3400  144.0950 C   0  0  0  0  0  1  0  0  0  0  0  0
  161.9920  205.8730  143.6940 C   0  0  0  0  0  2  0  0  0  0  0  0
  161.6050  205.7660  142.3320 O   0  0  0  0  0  0  0  0  0  0  0  0
  162.2340  206.5120  141.3330 C   0  0  0  0  0  3  0  0  0  0  0  0
  161.5800  207.3080  140.6050 O   0  0  0  0  0  0  0  0  0  0  0  0
  162.5160  210.3050  151.5040 C   0  0  0  0  0  1  0  0  0  0  0  0
  161.1230  210.1420  152.0840 C   0  0  0  0  0  2  0  0  0  0  0  0
  161.1420  211.0950  154.9000 C   0  0  0  0  0  2  0  0  0  0  0  0
  160.4270  211.3310  156.1550 N   0  0  0  0  0  2  0  0  0  0  0  0
  157.7930  214.4530  153.2500 C   0  0  0  0  0  2  0  0  0  0  0  0
  156.8060  212.5720  154.2980 C   0  0  2  0  0  3  0  0  0  0  0  0
  156.0980  214.2260  152.6070 S   0  0  0  0  0  0  0  0  0  0  0  0
  159.1460  212.0060  155.9190 C   0  0  2  0  0  3  0  0  0  0  0  0
  157.8560  213.6390  154.5060 C   0  0  2  0  0  0  0  0  0  0  0  0
  157.9820  211.0020  155.8110 C   0  0  0  0  0  2  0  0  0  0  0  0
  157.5340  214.4530  155.5970 O   0  0  0  0  0  1  0  0  0  0  0  0
  155.6220  213.2040  153.9220 O   0  0  0  0  0  0  0  0  0  0  0  0
  156.6520  211.7090  155.5440 C   0  0  0  0  0  2  0  0  0  0  0  0
  159.2160  212.9790  154.7220 C   0  0  0  0  0  2  0  0  0  0  0  0
  1  5  1  0  0  0  0
  2  7  1  0  0  0  0
  3  8  2  0  0  0  0
  4  9  1  0  0  0  0
  5  4  2  0  0  0  0
  5 11  1  0  0  0  0
  6 11  1  0  0  0  0
  8  6  1  0  0  0  0
  9 34  1  0  0  0  0
  9  7  2  0  0  0  0
 10  1  1  1  0  0  0
 10  8  1  0  0  0  0
 11  2  2  0  0  0  0
 12 14  1  0  0  0  0
 14 13  1  1  0  0  0
 14 10  1  0  0  0  0
 15 16  1  6  0  0  0
 15 12  1  0  0  0  0
 15 14  1  0  0  0  0
 16 23  1  6  0  0  0
 17 16  1  0  0  0  0
 17 19  1  0  0  0  0
 19 18  1  6  0  0  0
 19 20  1  0  0  0  0
 19 22  1  0  0  0  0
 22 21  1  0  0  0  0
 24 23  1  0  0  0  0
 25 28  1  6  0  0  0
 25 24  1  0  0  0  0
 26 25  1  0  0  0  0
 27 26  1  0  0  0  0
 29 28  1  0  0  0  0
 30 29  1  0  0  0  0
 31 30  2  0  0  0  0
 32 33  1  0  0  0  0
 33  4  1  0  0  0  0
 34 35  1  0  0  0  0
 36 40  1  0  0  0  0
 37 40  1  0  0  0  0
 37 44  1  1  0  0  0
 38 36  1  0  0  0  0
 38 43  1  0  0  0  0
 39 35  1  6  0  0  0
 40 45  1  0  0  0  0
 40 42  1  1  0  0  0
 41 39  1  0  0  0  0
 43 37  1  0  0  0  0
 44 41  1  0  0  0  0
 45 39  1  0  0  0  0
M  END
>  <MODEL>
6

>  <REMARK>
 VINA RESULT:      -6.1      4.587      7.215
  Name = 
  16 active torsions:
  status: ('A' for Active; 'I' for Inactive)
    1  A    between atoms: C_2  and  C_3
    2  A    between atoms: C_3  and  O_18
    3  A    between atoms: C_3  and  C_39
    4  A    between atoms: C_8  and  C_35
    5  A    between atoms: O_11  and  C_29
    6  A    between atoms: O_11  and  C_39
    7  A    between atoms: O_13  and  O_18
    8  A    between atoms: O_13  and  C_40
    9  A    between atoms: O_16  and  C_25
   10  A    between atoms: O_16  and  C_40
   11  A    between atoms: C_19  and  C_23
   12  A    between atoms: C_20  and  N_38
   13  A    between atoms: C_21  and  C_40
   14  A    between atoms: C_22  and  C_25
   15  A    between atoms: C_28  and  C_32
   16  A    between atoms: C_28  and  N_38
                            x       y       z     vdW  Elec       q    Type
                         _______ _______ _______ _____ _____    ______ ____

>  <TORSDO>
F 16

$$$$
=
 OpenBabel11072412053D

 45 49  0  0  1  0  0  0  0  0999 V2000
  159.4760  213.3660  150.4950 O   0  0  0  0  0  0  0  0  0  0  0  0
  157.7450  214.4530  147.4100 C   0  0  0  0  0  3  0  0  0  0  0  0
  156.2480  214.1110  151.9210 O   0  0  0  0  0  0  0  0  0  0  0  0
  160.2810  213.5380  148.2040 C   0  0  0  0  0  0  0  0  0  0  0  0
  159.2530  213.6900  149.1510 C   0  0  0  0  0  0  0  0  0  0  0  0
  156.9380  214.2600  149.7090 N   0  0  0  0  0  2  0  0  0  0  0  0
  158.7680  214.3200  146.4690 C   0  0  0  0  0  3  0  0  0  0  0  0
  157.1930  214.0190  151.0920 C   0  0  0  0  0  0  0  0  0  0  0  0
  160.0360  213.8720  146.8550 C   0  0  0  0  0  0  0  0  0  0  0  0
  158.6050  213.7630  151.5630 C   0  0  1  0  0  3  0  0  0  0  0  0
  157.9870  214.1460  148.7490 C   0  0  0  0  0  0  0  0  0  0  0  0
  158.5330  211.3070  152.3860 C   0  0  0  0  0  2  0  0  0  0  0  0
  158.0170  213.1250  153.9180 O   0  0  0  0  0  1  0  0  0  0  0  0
  158.6680  212.7730  152.7320 C   0  0  2  0  0  0  0  0  0  0  0  0
  159.8800  211.8560  152.8510 C   0  0  1  0  0  3  0  0  0  0  0  0
  160.1530  211.4380  154.2940 C   0  0  2  0  0  3  0  0  0  0  0  0
  160.5100  212.5450  155.1190 O   0  0  0  0  0  0  0  0  0  0  0  0
  159.5760  213.6450  157.1250 C   0  0  0  0  0  1  0  0  0  0  0  0
  160.1850  212.3940  156.4980 C   0  0  2  0  0  0  0  0  0  0  0  0
  161.3140  212.0100  157.2280 O   0  0  0  0  0  1  0  0  0  0  0  0
  158.0160  211.7240  157.2560 F   0  0  0  0  0  0  0  0  0  0  0  0
  159.1600  211.2760  156.6170 C   0  0  0  0  0  2  0  0  0  0  0  0
  161.0580  210.3690  154.3650 O   0  0  0  0  0  0  0  0  0  0  0  0
  160.3160  209.2850  154.1940 O   0  0  0  0  0  0  0  0  0  0  0  0
  161.1550  208.1630  154.3650 C   0  0  1  0  0  3  0  0  0  0  0  0
  160.7760  207.3650  155.6090 C   0  0  0  0  0  2  0  0  0  0  0  0
  161.2650  208.0720  156.8610 C   0  0  0  0  0  1  0  0  0  0  0  0
  161.2030  207.2810  153.1180 C   0  0  0  0  0  2  0  0  0  0  0  0
  160.6370  207.9710  152.0120 O   0  0  0  0  0  0  0  0  0  0  0  0
  161.4320  208.6780  151.1080 C   0  0  0  0  0  3  0  0  0  0  0  0
  161.9710  208.1010  150.1250 O   0  0  0  0  0  0  0  0  0  0  0  0
  161.5690  211.5580  148.9590 C   0  0  0  0  0  1  0  0  0  0  0  0
  161.6290  213.0420  148.6430 C   0  0  0  0  0  2  0  0  0  0  0  0
  161.1010  213.7650  145.8080 C   0  0  0  0  0  2  0  0  0  0  0  0
  160.7910  212.6830  144.8730 N   0  0  0  0  0  2  0  0  0  0  0  0
  162.5460  211.7140  140.2780 C   0  0  0  0  0  2  0  0  0  0  0  0
  160.4700  212.7980  140.6320 C   0  0  2  0  0  3  0  0  0  0  0  0
  161.6590  211.8500  138.6870 S   0  0  0  0  0  0  0  0  0  0  0  0
  160.9100  213.1320  143.4810 C   0  0  2  0  0  3  0  0  0  0  0  0
  161.8660  212.6820  141.1990 C   0  0  2  0  0  0  0  0  0  0  0  0
  159.5320  213.3960  142.8450 C   0  0  0  0  0  2  0  0  0  0  0  0
  162.5330  213.9100  141.1460 O   0  0  0  0  0  1  0  0  0  0  0  0
  160.5820  213.0750  139.2700 O   0  0  0  0  0  0  0  0  0  0  0  0
  159.6610  213.8450  141.3880 C   0  0  0  0  0  2  0  0  0  0  0  0
  161.7900  212.1820  142.6390 C   0  0  0  0  0  2  0  0  0  0  0  0
  2 11  1  0  0  0  0
  4 33  1  0  0  0  0
  4  5  1  0  0  0  0
  5  1  1  0  0  0  0
  6  8  1  0  0  0  0
  7  9  1  0  0  0  0
  7  2  2  0  0  0  0
  8 10  1  0  0  0  0
  8  3  2  0  0  0  0
  9  4  2  0  0  0  0
 10  1  1  6  0  0  0
 10 14  1  0  0  0  0
 11  5  2  0  0  0  0
 11  6  1  0  0  0  0
 12 14  1  0  0  0  0
 12 15  1  0  0  0  0
 14 15  1  0  0  0  0
 14 13  1  1  0  0  0
 15 16  1  1  0  0  0
 16 23  1  6  0  0  0
 16 17  1  0  0  0  0
 17 19  1  0  0  0  0
 19 22  1  0  0  0  0
 19 18  1  1  0  0  0
 19 20  1  0  0  0  0
 22 21  1  0  0  0  0
 24 23  1  0  0  0  0
 24 25  1  0  0  0  0
 25 28  1  6  0  0  0
 25 26  1  0  0  0  0
 26 27  1  0  0  0  0
 29 28  1  0  0  0  0
 30 29  1  0  0  0  0
 31 30  2  0  0  0  0
 33 32  1  0  0  0  0
 34  9  1  0  0  0  0
 35 34  1  0  0  0  0
 36 40  1  0  0  0  0
 37 40  1  0  0  0  0
 37 44  1  1  0  0  0
 38 43  1  0  0  0  0
 38 36  1  0  0  0  0
 39 35  1  1  0  0  0
 40 42  1  6  0  0  0
 40 45  1  0  0  0  0
 41 39  1  0  0  0  0
 43 37  1  0  0  0  0
 44 41  1  0  0  0  0
 45 39  1  0  0  0  0
M  END
>  <MODEL>
7

>  <REMARK>
 VINA RESULT:      -5.6      4.307      6.805
  Name = 
  16 active torsions:
  status: ('A' for Active; 'I' for Inactive)
    1  A    between atoms: C_2  and  C_3
    2  A    between atoms: C_3  and  O_18
    3  A    between atoms: C_3  and  C_39
    4  A    between atoms: C_8  and  C_35
    5  A    between atoms: O_11  and  C_29
    6  A    between atoms: O_11  and  C_39
    7  A    between atoms: O_13  and  O_18
    8  A    between atoms: O_13  and  C_40
    9  A    between atoms: O_16  and  C_25
   10  A    between atoms: O_16  and  C_40
   11  A    between atoms: C_19  and  C_23
   12  A    between atoms: C_20  and  N_38
   13  A    between atoms: C_21  and  C_40
   14  A    between atoms: C_22  and  C_25
   15  A    between atoms: C_28  and  C_32
   16  A    between atoms: C_28  and  N_38
                            x       y       z     vdW  Elec       q    Type
                         _______ _______ _______ _____ _____    ______ ____

>  <TORSDO>
F 16

$$$$
=
 OpenBabel11072412053D

 45 49  0  0  1  0  0  0  0  0999 V2000
  159.8250  213.8110  148.4050 O   0  0  0  0  0  0  0  0  0  0  0  0
  158.5510  212.4750  145.1970 C   0  0  0  0  0  3  0  0  0  0  0  0
  156.3720  213.3550  149.3430 O   0  0  0  0  0  0  0  0  0  0  0  0
  160.9710  213.3850  146.3000 C   0  0  0  0  0  0  0  0  0  0  0  0
  159.7950  213.3820  147.0720 C   0  0  0  0  0  0  0  0  0  0  0  0
  157.4100  212.8870  147.3180 N   0  0  0  0  0  2  0  0  0  0  0  0
  159.7110  212.4930  144.4210 C   0  0  0  0  0  3  0  0  0  0  0  0
  157.4210  213.4110  148.6460 C   0  0  0  0  0  0  0  0  0  0  0  0
  160.9200  212.9510  144.9580 C   0  0  0  0  0  0  0  0  0  0  0  0
  158.6480  214.1220  149.1640 C   0  0  1  0  0  3  0  0  0  0  0  0
  158.5900  212.9240  146.5170 C   0  0  0  0  0  0  0  0  0  0  0  0
  157.7810  214.3620  151.5940 C   0  0  0  0  0  2  0  0  0  0  0  0
  160.1610  214.1100  151.1660 O   0  0  0  0  0  1  0  0  0  0  0  0
  158.8750  213.8930  150.6630 C   0  0  2  0  0  0  0  0  0  0  0  0
  158.0110  212.8680  151.3870 C   0  0  1  0  0  3  0  0  0  0  0  0
  158.7160  212.2670  152.6010 C   0  0  2  0  0  3  0  0  0  0  0  0
  158.9170  213.2250  153.6380 O   0  0  0  0  0  0  0  0  0  0  0  0
  157.8530  214.0140  155.7250 C   0  0  0  0  0  1  0  0  0  0  0  0
  158.4060  212.8460  154.9130 C   0  0  2  0  0  0  0  0  0  0  0  0
  159.3870  212.1850  155.6580 O   0  0  0  0  0  1  0  0  0  0  0  0
  156.0390  212.4900  154.8480 F   0  0  0  0  0  0  0  0  0  0  0  0
  157.2650  211.8650  154.6860 C   0  0  0  0  0  2  0  0  0  0  0  0
  159.8820  211.5770  152.2390 O   0  0  0  0  0  0  0  0  0  0  0  0
  159.6660  210.3260  152.6180 O   0  0  0  0  0  0  0  0  0  0  0  0
  160.9220  209.6860  152.7060 C   0  0  1  0  0  3  0  0  0  0  0  0
  161.5870  209.9400  154.0560 C   0  0  0  0  0  2  0  0  0  0  0  0
  161.0040  209.0210  155.1150 C   0  0  0  0  0  1  0  0  0  0  0  0
  160.8320  208.1940  152.3880 C   0  0  0  0  0  2  0  0  0  0  0  0
  161.6460  207.8860  151.2650 O   0  0  0  0  0  0  0  0  0  0  0  0
  162.3250  208.8820  150.5600 C   0  0  0  0  0  3  0  0  0  0  0  0
  161.9580  209.2280  149.4050 O   0  0  0  0  0  0  0  0  0  0  0  0
  162.9500  212.7390  147.6450 C   0  0  0  0  0  1  0  0  0  0  0  0
  162.2570  213.8690  146.9050 C   0  0  0  0  0  2  0  0  0  0  0  0
  162.1290  212.9650  144.0760 C   0  0  0  0  0  2  0  0  0  0  0  0
  161.8160  213.5830  142.7870 N   0  0  0  0  0  2  0  0  0  0  0  0
  161.0240  210.1060  139.2640 C   0  0  0  0  0  2  0  0  0  0  0  0
  162.4260  211.9790  138.8940 C   0  0  2  0  0  3  0  0  0  0  0  0
  161.4830  210.1740  137.4970 S   0  0  0  0  0  0  0  0  0  0  0  0
  162.3770  212.8080  141.6750 C   0  0  2  0  0  3  0  0  0  0  0  0
  161.9990  211.0020  139.9660 C   0  0  2  0  0  0  0  0  0  0  0  0
  162.9530  213.7210  140.5750 C   0  0  0  0  0  2  0  0  0  0  0  0
  163.0840  210.2400  140.4110 O   0  0  0  0  0  1  0  0  0  0  0  0
  162.8170  211.2440  137.7760 O   0  0  0  0  0  0  0  0  0  0  0  0
  163.5180  212.9080  139.4080 C   0  0  0  0  0  2  0  0  0  0  0  0
  161.3760  211.7660  141.1310 C   0  0  0  0  0  2  0  0  0  0  0  0
  2 11  1  0  0  0  0
  4 33  1  0  0  0  0
  4  5  1  0  0  0  0
  5  1  1  0  0  0  0
  6  8  1  0  0  0  0
  7  9  1  0  0  0  0
  7  2  2  0  0  0  0
  8 10  1  0  0  0  0
  8  3  2  0  0  0  0
  9  4  2  0  0  0  0
 10  1  1  6  0  0  0
 10 14  1  0  0  0  0
 11  5  2  0  0  0  0
 11  6  1  0  0  0  0
 14 13  1  1  0  0  0
 14 15  1  0  0  0  0
 14 12  1  0  0  0  0
 15 12  1  0  0  0  0
 15 16  1  1  0  0  0
 16 23  1  6  0  0  0
 16 17  1  0  0  0  0
 17 19  1  0  0  0  0
 19 20  1  0  0  0  0
 19 18  1  1  0  0  0
 22 21  1  0  0  0  0
 22 19  1  0  0  0  0
 23 24  1  0  0  0  0
 24 25  1  0  0  0  0
 25 28  1  1  0  0  0
 25 26  1  0  0  0  0
 26 27  1  0  0  0  0
 29 28  1  0  0  0  0
 30 29  1  0  0  0  0
 31 30  2  0  0  0  0
 33 32  1  0  0  0  0
 34  9  1  0  0  0  0
 35 34  1  0  0  0  0
 36 40  1  0  0  0  0
 37 44  1  1  0  0  0
 37 40  1  0  0  0  0
 38 43  1  0  0  0  0
 38 36  1  0  0  0  0
 39 35  1  1  0  0  0
 40 42  1  1  0  0  0
 40 45  1  0  0  0  0
 41 39  1  0  0  0  0
 43 37  1  0  0  0  0
 44 41  1  0  0  0  0
 45 39  1  0  0  0  0
M  END
>  <MODEL>
8

>  <REMARK>
 VINA RESULT:      -5.6      4.519      7.256
  Name = 
  16 active torsions:
  status: ('A' for Active; 'I' for Inactive)
    1  A    between atoms: C_2  and  C_3
    2  A    between atoms: C_3  and  O_18
    3  A    between atoms: C_3  and  C_39
    4  A    between atoms: C_8  and  C_35
    5  A    between atoms: O_11  and  C_29
    6  A    between atoms: O_11  and  C_39
    7  A    between atoms: O_13  and  O_18
    8  A    between atoms: O_13  and  C_40
    9  A    between atoms: O_16  and  C_25
   10  A    between atoms: O_16  and  C_40
   11  A    between atoms: C_19  and  C_23
   12  A    between atoms: C_20  and  N_38
   13  A    between atoms: C_21  and  C_40
   14  A    between atoms: C_22  and  C_25
   15  A    between atoms: C_28  and  C_32
   16  A    between atoms: C_28  and  N_38
                            x       y       z     vdW  Elec       q    Type
                         _______ _______ _______ _____ _____    ______ ____

>  <TORSDO>
F 16

$$$$
=
 OpenBabel11072412053D

 45 49  0  0  1  0  0  0  0  0999 V2000
  161.6490  208.1020  152.8940 O   0  0  0  0  0  0  0  0  0  0  0  0
  159.9300  207.2760  156.0650 C   0  0  0  0  0  3  0  0  0  0  0  0
  161.5760  204.5120  152.5490 O   0  0  0  0  0  0  0  0  0  0  0  0
  160.8320  209.5460  154.6750 C   0  0  0  0  0  0  0  0  0  0  0  0
  161.0250  208.2610  154.1370 C   0  0  0  0  0  0  0  0  0  0  0  0
  160.7360  205.8330  154.2650 N   0  0  0  0  0  2  0  0  0  0  0  0
  159.7510  208.5490  156.6110 C   0  0  0  0  0  3  0  0  0  0  0  0
  161.4550  205.6650  153.0430 C   0  0  0  0  0  0  0  0  0  0  0  0
  160.2030  209.6850  155.9310 C   0  0  0  0  0  0  0  0  0  0  0  0
  162.1520  206.8470  152.4120 C   0  0  1  0  0  3  0  0  0  0  0  0
  160.5710  207.1300  154.8350 C   0  0  0  0  0  0  0  0  0  0  0  0
  160.9030  206.2110  150.2330 C   0  0  0  0  0  2  0  0  0  0  0  0
  163.3250  206.4330  150.2340 O   0  0  0  0  0  1  0  0  0  0  0  0
  162.1390  206.7920  150.8800 C   0  0  2  0  0  0  0  0  0  0  0  0
  161.1840  207.7070  150.1220 C   0  0  1  0  0  3  0  0  0  0  0  0
  161.6930  208.0480  148.7240 C   0  0  2  0  0  3  0  0  0  0  0  0
  162.3830  206.9570  148.1190 O   0  0  0  0  0  0  0  0  0  0  0  0
  162.2490  206.1180  145.7970 C   0  0  0  0  0  1  0  0  0  0  0  0
  161.6140  206.2060  147.1820 C   0  0  2  0  0  0  0  0  0  0  0  0
  160.3250  206.7350  147.0700 O   0  0  0  0  0  1  0  0  0  0  0  0
  161.3600  203.8790  146.6790 F   0  0  0  0  0  0  0  0  0  0  0  0
  161.4820  204.7880  147.7170 C   0  0  0  0  0  2  0  0  0  0  0  0
  162.4190  209.2480  148.7110 O   0  0  0  0  0  0  0  0  0  0  0  0
  161.6340  210.1120  148.0860 O   0  0  0  0  0  0  0  0  0  0  0  0
  161.9720  211.4040  148.5440 C   0  0  1  0  0  3  0  0  0  0  0  0
  163.2070  211.9450  147.8280 C   0  0  0  0  0  2  0  0  0  0  0  0
  162.8730  213.2340  147.0980 C   0  0  0  0  0  1  0  0  0  0  0  0
  160.7950  212.3740  148.4580 C   0  0  0  0  0  2  0  0  0  0  0  0
  160.7250  213.1590  149.6390 O   0  0  0  0  0  0  0  0  0  0  0  0
  159.6340  213.9910  149.9000 C   0  0  0  0  0  3  0  0  0  0  0  0
  159.1250  214.0580  151.0510 O   0  0  0  0  0  0  0  0  0  0  0  0
  160.5210  210.9180  152.6340 C   0  0  0  0  0  1  0  0  0  0  0  0
  161.3140  210.7500  153.9170 C   0  0  0  0  0  2  0  0  0  0  0  0
  160.0000  211.0230  156.5700 C   0  0  0  0  0  2  0  0  0  0  0  0
  158.6460  211.1310  157.1130 N   0  0  0  0  0  2  0  0  0  0  0  0
  156.5740  213.0850  152.9880 C   0  0  0  0  0  2  0  0  0  0  0  0
  155.6320  213.3950  155.1390 C   0  0  2  0  0  3  0  0  0  0  0  0
  154.9300  213.8620  152.8190 S   0  0  0  0  0  0  0  0  0  0  0  0
  157.9210  212.2580  156.5160 C   0  0  2  0  0  3  0  0  0  0  0  0
  156.9590  213.2710  154.4250 C   0  0  2  0  0  0  0  0  0  0  0  0
  156.5990  212.5440  157.2560 C   0  0  0  0  0  2  0  0  0  0  0  0
  157.7080  214.4450  154.5510 O   0  0  0  0  0  1  0  0  0  0  0  0
  154.8780  214.3620  154.4770 O   0  0  0  0  0  0  0  0  0  0  0  0
  155.8380  213.7070  156.6160 C   0  0  0  0  0  2  0  0  0  0  0  0
  157.7340  212.0850  154.9930 C   0  0  0  0  0  2  0  0  0  0  0  0
  1  5  1  0  0  0  0
  2  7  1  0  0  0  0
  3  8  2  0  0  0  0
  4  9  1  0  0  0  0
  5  4  2  0  0  0  0
  5 11  1  0  0  0  0
  6 11  1  0  0  0  0
  8  6  1  0  0  0  0
  9 34  1  0  0  0  0
  9  7  2  0  0  0  0
 10  1  1  6  0  0  0
 10  8  1  0  0  0  0
 11  2  2  0  0  0  0
 12 14  1  0  0  0  0
 14 13  1  6  0  0  0
 14 10  1  0  0  0  0
 15 16  1  6  0  0  0
 15 12  1  0  0  0  0
 15 14  1  0  0  0  0
 16 17  1  1  0  0  0
 19 18  1  6  0  0  0
 19 22  1  0  0  0  0
 19 17  1  0  0  0  0
 20 19  1  0  0  0  0
 21 22  1  0  0  0  0
 23 16  1  0  0  0  0
 24 25  1  0  0  0  0
 24 23  1  0  0  0  0
 25 26  1  6  0  0  0
 27 26  1  0  0  0  0
 28 25  1  0  0  0  0
 28 29  1  0  0  0  0
 29 30  1  0  0  0  0
 30 31  2  0  0  0  0
 32 33  1  0  0  0  0
 33  4  1  0  0  0  0
 34 35  1  0  0  0  0
 36 40  1  0  0  0  0
 37 44  1  1  0  0  0
 38 36  1  0  0  0  0
 38 43  1  0  0  0  0
 39 35  1  1  0  0  0
 39 41  1  0  0  0  0
 40 42  1  1  0  0  0
 40 45  1  0  0  0  0
 40 37  1  0  0  0  0
 43 37  1  0  0  0  0
 44 41  1  0  0  0  0
 45 39  1  0  0  0  0
M  END
>  <MODEL>
9

>  <REMARK>
 VINA RESULT:      -5.4      3.894      8.273
  Name = 
  16 active torsions:
  status: ('A' for Active; 'I' for Inactive)
    1  A    between atoms: C_2  and  C_3
    2  A    between atoms: C_3  and  O_18
    3  A    between atoms: C_3  and  C_39
    4  A    between atoms: C_8  and  C_35
    5  A    between atoms: O_11  and  C_29
    6  A    between atoms: O_11  and  C_39
    7  A    between atoms: O_13  and  O_18
    8  A    between atoms: O_13  and  C_40
    9  A    between atoms: O_16  and  C_25
   10  A    between atoms: O_16  and  C_40
   11  A    between atoms: C_19  and  C_23
   12  A    between atoms: C_20  and  N_38
   13  A    between atoms: C_21  and  C_40
   14  A    between atoms: C_22  and  C_25
   15  A    between atoms: C_28  and  C_32
   16  A    between atoms: C_28  and  N_38
                            x       y       z     vdW  Elec       q    Type
                         _______ _______ _______ _____ _____    ______ ____

>  <TORSDO>
F 16

$$$$
