=
 OpenBabel11072415263D

 70 75  0  0  1  0  0  0  0  0999 V2000
  162.1880  210.8850  151.0380 C   0  0  1  0  0  3  0  0  0  0  0  0
  161.0030  210.7290  152.0000 C   0  0  1  0  0  3  0  0  0  0  0  0
  159.6630  214.1020  150.9670 O   0  0  0  0  0  1  0  0  0  0  0  0
  161.7700  211.3110  149.7550 O   0  0  0  0  0  0  0  0  0  0  0  0
  163.1670  211.7370  151.5630 O   0  0  0  0  0  1  0  0  0  0  0  0
  160.0390  211.9340  151.9610 C   0  0  2  0  0  3  0  0  0  0  0  0
  161.1750  212.6050  149.7620 C   0  0  2  0  0  3  0  0  0  0  0  0
  160.6050  213.0790  151.1220 C   0  0  1  0  0  3  0  0  0  0  0  0
  160.9210  212.0650  154.5190 S   0  0  0  0  0  0  0  0  0  0  0  0
  159.8610  212.4280  153.3610 C   0  0  0  0  0  2  0  0  0  0  0  0
  160.2690  212.9320  155.9700 C   0  0  1  0  0  3  0  0  0  0  0  0
  157.8430  214.3910  154.4060 O   0  0  0  0  0  0  0  0  0  0  0  0
  158.2800  214.3070  155.6970 O   0  0  0  0  0  0  0  0  0  0  0  0
  156.6500  212.2550  154.7920 C   0  0  2  0  0  0  0  0  0  0  0  0
  156.0070  212.7730  155.9180 O   0  0  0  0  0  1  0  0  0  0  0  0
  158.2860  212.6120  157.2600 O   0  0  0  0  0  1  0  0  0  0  0  0
  158.1620  211.9930  154.9180 C   0  0  1  0  0  3  0  0  0  0  0  0
  156.9920  213.3890  153.8810 C   0  0  0  0  0  0  0  0  0  0  0  0
  158.7260  212.9720  155.9820 C   0  0  2  0  0  0  0  0  0  0  0  0
  156.5010  213.4860  152.7240 O   0  0  0  0  0  0  0  0  0  0  0  0
  157.2590  211.0160  155.1830 O   0  0  0  0  0  0  0  0  0  0  0  0
  160.8660  212.2940  157.2270 C   0  0  0  0  0  2  0  0  0  0  0  0
  161.9290  211.2600  156.8920 C   0  0  0  0  0  2  0  0  0  0  0  0
  161.4630  209.9900  157.2370 O   0  0  0  0  0  0  0  0  0  0  0  0
  161.6080  209.0820  155.1520 O   0  0  0  0  0  1  0  0  0  0  0  0
  162.1810  209.1110  156.4260 C   0  0  0  0  0  2  0  0  0  0  0  0
  159.2390  209.1830  152.6370 O   0  0  0  0  0  1  0  0  0  0  0  0
  160.3000  209.3850  151.7480 C   0  0  2  0  0  3  0  0  0  0  0  0
  160.9500  207.1420  152.8170 C   0  0  0  0  0  0  0  0  0  0  0  0
  159.8380  207.3400  153.6380 O   0  0  0  0  0  1  0  0  0  0  0  0
  160.6140  206.8320  151.3630 C   0  0  1  0  0  3  0  0  0  0  0  0
  161.2430  208.1810  151.7510 C   0  0  1  0  0  0  0  0  0  0  0  0
  162.0210  206.4330  153.3670 O   0  0  0  0  0  1  0  0  0  0  0  0
  162.7280  208.4010  151.4660 C   0  0  0  0  0  1  0  0  0  0  0  0
  161.5670  205.9750  150.7990 O   0  0  0  0  0  0  0  0  0  0  0  0
  162.4790  206.8150  150.1560 C   0  0  0  0  0  2  0  0  0  0  0  0
  162.3310  206.7000  148.6700 C   0  0  0  0  0  3  0  0  0  0  0  0
  161.5370  205.8140  148.0530 C   0  0  0  0  0  0  0  0  0  0  0  0
  161.5260  205.6580  143.7660 C   0  0  0  0  0  0  0  0  0  0  0  0
  160.4020  206.1600  145.8510 C   0  0  0  0  0  3  0  0  0  0  0  0
  161.5330  205.7510  146.5750 C   0  0  0  0  0  0  0  0  0  0  0  0
  160.3960  206.1150  144.4560 C   0  0  0  0  0  3  0  0  0  0  0  0
  162.6520  205.2360  144.4780 C   0  0  0  0  0  3  0  0  0  0  0  0
  162.6540  205.2780  145.8740 C   0  0  0  0  0  3  0  0  0  0  0  0
  161.5450  205.6340  142.2770 C   0  0  0  0  0  2  0  0  0  0  0  0
  161.9810  206.9870  141.7400 C   0  0  0  0  0  2  0  0  0  0  0  0
  161.9890  206.9680  140.2230 C   0  0  0  0  0  2  0  0  0  0  0  0
  161.1390  207.9630  139.7330 O   0  0  0  0  0  0  0  0  0  0  0  0
  161.9320  209.1080  139.6590 C   0  0  0  0  0  2  0  0  0  0  0  0
  161.4820  211.4530  139.7100 O   0  0  0  0  0  1  0  0  0  0  0  0
  161.2540  210.2550  140.3900 C   0  0  0  0  0  2  0  0  0  0  0  0
  160.7160  204.8330  148.8550 C   0  0  0  0  0  2  0  0  0  0  0  0
  160.3010  201.2370  149.0040 C   0  0  0  0  0  2  0  0  0  0  0  0
  161.5880  202.7660  147.6430 C   0  0  0  0  0  2  0  0  0  0  0  0
  161.3190  201.2960  147.8850 C   0  0  2  0  0  3  0  0  0  0  0  0
  160.5320  202.4830  149.8380 C   0  0  0  0  0  2  0  0  0  0  0  0
  161.3460  203.4390  148.9790 C   0  0  2  0  0  3  0  0  0  0  0  0
  160.8210  200.6350  146.6760 N   0  0  0  0  0  0  0  0  0  0  0  0
  161.4270  199.3990  146.2020 C   0  0  0  0  0  1  0  0  0  0  0  0
  159.9910  201.7550  144.6980 C   0  0  0  0  0  2  0  0  0  0  0  0
  159.7690  201.2080  145.8880 C   0  0  0  0  0  3  0  0  0  0  0  0
  160.1670  212.7280  148.6120 C   0  0  1  0  0  3  0  0  0  0  0  0
  158.8840  213.3940  149.0880 C   0  0  0  0  0  2  0  0  0  0  0  0
  157.6980  212.8330  148.3800 C   0  0  0  0  0  0  0  0  0  0  0  0
  156.6560  212.5470  149.0300 O   0  0  0  0  0  0  0  0  0  0  0  0
  157.7630  212.6260  146.9630 N   0  0  0  0  0  0  0  0  0  0  0  0
  157.4400  213.5470  146.1160 C   0  0  0  0  0  2  0  0  0  0  0  0
  160.7350  213.5010  147.5200 N   0  0  0  0  0  2  0  0  0  0  0  0
  161.8650  213.0360  146.8350 C   0  0  0  0  0  0  0  0  0  0  0  0
  162.8020  212.6510  146.2730 N   0  0  0  0  0  0  0  0  0  0  0  0
  1  5  1  1  0  0  0
  1  2  1  0  0  0  0
  2 28  1  6  0  0  0
  4  7  1  0  0  0  0
  4  1  1  0  0  0  0
  6  2  1  0  0  0  0
  6 10  1  1  0  0  0
  7 62  1  6  0  0  0
  7  8  1  0  0  0  0
  8  3  1  6  0  0  0
  8  6  1  0  0  0  0
  9 11  1  0  0  0  0
 10  9  1  0  0  0  0
 11 19  1  0  0  0  0
 11 22  1  1  0  0  0
 12 13  1  0  0  0  0
 13 19  1  0  0  0  0
 14 17  1  0  0  0  0
 14 21  1  0  0  0  0
 14 15  1  1  0  0  0
 17 21  1  1  0  0  0
 17 19  1  0  0  0  0
 18 12  1  0  0  0  0
 18 14  1  0  0  0  0
 19 16  1  1  0  0  0
 20 18  2  0  0  0  0
 23 22  1  0  0  0  0
 23 24  1  0  0  0  0
 25 26  1  0  0  0  0
 26 24  1  0  0  0  0
 28 32  1  0  0  0  0
 28 27  1  1  0  0  0
 29 33  1  0  0  0  0
 29 30  1  0  0  0  0
 31 35  1  6  0  0  0
 31 32  1  0  0  0  0
 31 29  1  0  0  0  0
 32 34  1  6  0  0  0
 32 29  1  0  0  0  0
 36 35  1  0  0  0  0
 37 36  1  0  0  0  0
 38 37  2  0  0  0  0
 38 52  1  0  0  0  0
 39 42  2  0  0  0  0
 39 43  1  0  0  0  0
 40 41  2  0  0  0  0
 41 38  1  0  0  0  0
 42 40  1  0  0  0  0
 43 44  2  0  0  0  0
 44 41  1  0  0  0  0
 45 39  1  0  0  0  0
 46 45  1  0  0  0  0
 47 46  1  0  0  0  0
 48 47  1  0  0  0  0
 49 48  1  0  0  0  0
 49 51  1  0  0  0  0
 50 51  1  0  0  0  0
 53 56  1  0  0  0  0
 54 55  1  0  0  0  0
 54 57  1  0  0  0  0
 55 58  1  6  0  0  0
 55 53  1  0  0  0  0
 57 52  1  6  0  0  0
 57 56  1  0  0  0  0
 59 58  1  0  0  0  0
 60 61  2  0  0  0  0
 61 58  1  0  0  0  0
 62 63  1  1  0  0  0
 64 65  2  0  0  0  0
 64 63  1  0  0  0  0
 66 64  1  0  0  0  0
 67 66  2  0  0  0  0
 68 62  1  0  0  0  0
 69 68  1  0  0  0  0
 70 69  3  0  0  0  0
M  END
>  <MODEL>
1

>  <REMARK>
 VINA RESULT:      -1.0      0.000      0.000
  Name = 
  29 active torsions:
  status: ('A' for Active; 'I' for Inactive)
    1  A    between atoms: C_1  and  C_19
    2  A    between atoms: C_1  and  O_23
    3  A    between atoms: C_2  and  C_42
    4  A    between atoms: C_2  and  O_46
    5  A    between atoms: C_3  and  C_7
    6  A    between atoms: C_3  and  C_19
    7  A    between atoms: C_4  and  N_8
    8  A    between atoms: N_8  and  C_44
    9  A    between atoms: C_13  and  C_24
   10  A    between atoms: C_13  and  C_61
   11  A    between atoms: C_21  and  C_32
   12  A    between atoms: O_23  and  C_65
   13  A    between atoms: C_24  and  O_30
   14  A    between atoms: N_25  and  C_41
   15  A    between atoms: C_26  and  C_52
   16  A    between atoms: N_27  and  C_29
   17  A    between atoms: N_27  and  C_70
   18  A    between atoms: O_30  and  C_60
   19  A    between atoms: C_32  and  C_37
   20  A    between atoms: C_33  and  O_46
   21  A    between atoms: S_34  and  C_61
   22  A    between atoms: C_40  and  C_61
   23  A    between atoms: C_41  and  C_48
   24  A    between atoms: C_44  and  C_48
   25  A    between atoms: C_44  and  C_54
   26  A    between atoms: C_45  and  C_65
   27  A    between atoms: C_52  and  C_58
   28  A    between atoms: C_53  and  C_57
   29  A    between atoms: C_58  and  C_62
                            x       y       z     vdW  Elec       q    Type
                         _______ _______ _______ _____ _____    ______ ____

>  <TORSDO>
F 29

$$$$
=
 OpenBabel11072415263D

 70 75  0  0  1  0  0  0  0  0999 V2000
  162.2320  210.9040  151.2150 C   0  0  1  0  0  3  0  0  0  0  0  0
  160.9440  210.6900  152.0210 C   0  0  1  0  0  3  0  0  0  0  0  0
  159.6860  214.0970  150.9990 O   0  0  0  0  0  1  0  0  0  0  0  0
  161.9630  211.3880  149.9140 O   0  0  0  0  0  0  0  0  0  0  0  0
  163.1300  211.7370  151.8920 O   0  0  0  0  0  1  0  0  0  0  0  0
  159.9740  211.8860  151.9260 C   0  0  2  0  0  3  0  0  0  0  0  0
  161.3520  212.6750  149.9120 C   0  0  2  0  0  3  0  0  0  0  0  0
  160.6180  213.0760  151.2160 C   0  0  1  0  0  3  0  0  0  0  0  0
  160.5100  211.8460  154.5810 S   0  0  0  0  0  0  0  0  0  0  0  0
  159.6250  212.3090  153.3170 C   0  0  0  0  0  2  0  0  0  0  0  0
  159.6950  212.6540  155.9830 C   0  0  1  0  0  3  0  0  0  0  0  0
  156.7520  211.3810  155.5570 O   0  0  0  0  0  0  0  0  0  0  0  0
  157.6280  212.1190  154.8150 O   0  0  0  0  0  0  0  0  0  0  0  0
  155.9680  213.5130  156.5440 C   0  0  2  0  0  0  0  0  0  0  0  0
  155.7280  214.0550  155.2790 O   0  0  0  0  0  1  0  0  0  0  0  0
  158.3420  214.3090  154.9230 O   0  0  0  0  0  1  0  0  0  0  0  0
  157.4410  213.3100  156.9410 C   0  0  1  0  0  3  0  0  0  0  0  0
  155.8610  212.0260  156.4480 C   0  0  0  0  0  0  0  0  0  0  0  0
  158.2610  213.1110  155.6390 C   0  0  2  0  0  0  0  0  0  0  0  0
  154.9810  211.3790  157.0780 O   0  0  0  0  0  0  0  0  0  0  0  0
  156.7820  214.4520  157.2600 O   0  0  0  0  0  0  0  0  0  0  0  0
  159.7570  211.7150  157.1890 C   0  0  0  0  0  2  0  0  0  0  0  0
  159.7970  210.2530  156.7740 C   0  0  0  0  0  2  0  0  0  0  0  0
  160.9720  210.0070  156.0620 O   0  0  0  0  0  0  0  0  0  0  0  0
  162.8920  210.9240  156.8800 O   0  0  0  0  0  1  0  0  0  0  0  0
  161.9640  209.8900  157.0350 C   0  0  0  0  0  2  0  0  0  0  0  0
  159.3700  208.9240  152.5800 O   0  0  0  0  0  1  0  0  0  0  0  0
  160.2960  209.3530  151.6240 C   0  0  2  0  0  3  0  0  0  0  0  0
  161.3360  207.1100  152.3180 C   0  0  0  0  0  0  0  0  0  0  0  0
  160.4300  207.1480  153.3790 O   0  0  0  0  0  1  0  0  0  0  0  0
  160.7020  206.8730  150.9530 C   0  0  1  0  0  3  0  0  0  0  0  0
  161.3010  208.2440  151.3110 C   0  0  1  0  0  0  0  0  0  0  0  0
  162.5540  206.4660  152.5530 O   0  0  0  0  0  1  0  0  0  0  0  0
  162.6610  208.6190  150.7250 C   0  0  0  0  0  1  0  0  0  0  0  0
  161.5620  206.1500  150.1180 O   0  0  0  0  0  0  0  0  0  0  0  0
  162.3470  207.1120  149.4800 C   0  0  0  0  0  2  0  0  0  0  0  0
  162.2410  206.9640  147.9920 C   0  0  0  0  0  3  0  0  0  0  0  0
  161.4750  206.0540  147.3740 C   0  0  0  0  0  0  0  0  0  0  0  0
  161.5760  205.8090  143.0920 C   0  0  0  0  0  0  0  0  0  0  0  0
  160.3320  206.0930  145.1500 C   0  0  0  0  0  3  0  0  0  0  0  0
  161.5130  205.9610  145.8970 C   0  0  0  0  0  0  0  0  0  0  0  0
  160.3610  206.0170  143.7560 C   0  0  0  0  0  3  0  0  0  0  0  0
  162.7550  205.6630  143.8280 C   0  0  0  0  0  3  0  0  0  0  0  0
  162.7220  205.7340  145.2230 C   0  0  0  0  0  3  0  0  0  0  0  0
  161.6270  205.7580  141.6050 C   0  0  0  0  0  2  0  0  0  0  0  0
  162.7900  206.5920  141.0940 C   0  0  0  0  0  2  0  0  0  0  0  0
  162.4830  207.1230  139.7060 C   0  0  0  0  0  2  0  0  0  0  0  0
  161.1260  207.4410  139.6110 O   0  0  0  0  0  0  0  0  0  0  0  0
  161.0600  208.8110  139.8670 C   0  0  0  0  0  2  0  0  0  0  0  0
  159.6940  210.4980  138.8740 O   0  0  0  0  0  1  0  0  0  0  0  0
  160.6860  209.5570  138.5970 C   0  0  0  0  0  2  0  0  0  0  0  0
  160.6470  205.0790  148.1740 C   0  0  0  0  0  2  0  0  0  0  0  0
  160.2230  201.4840  148.3320 C   0  0  0  0  0  2  0  0  0  0  0  0
  161.5260  203.0060  146.9770 C   0  0  0  0  0  2  0  0  0  0  0  0
  161.2520  201.5370  147.2220 C   0  0  2  0  0  3  0  0  0  0  0  0
  160.4490  202.7320  149.1630 C   0  0  0  0  0  2  0  0  0  0  0  0
  161.2730  203.6840  148.3090 C   0  0  2  0  0  3  0  0  0  0  0  0
  160.7650  200.8730  146.0110 N   0  0  0  0  0  0  0  0  0  0  0  0
  159.8330  201.5470  145.1190 C   0  0  0  0  0  1  0  0  0  0  0  0
  161.8620  198.7760  146.5180 C   0  0  0  0  0  2  0  0  0  0  0  0
  161.1360  199.5230  145.6940 C   0  0  0  0  0  3  0  0  0  0  0  0
  160.4850  212.8450  148.6570 C   0  0  1  0  0  3  0  0  0  0  0  0
  161.1950  212.2890  147.4310 C   0  0  0  0  0  2  0  0  0  0  0  0
  161.8130  213.3840  146.6310 C   0  0  0  0  0  0  0  0  0  0  0  0
  162.6520  214.1590  147.1690 O   0  0  0  0  0  0  0  0  0  0  0  0
  161.4420  213.5420  145.2560 N   0  0  0  0  0  0  0  0  0  0  0  0
  160.4910  212.8520  144.7150 C   0  0  0  0  0  2  0  0  0  0  0  0
  159.2100  212.1660  148.8250 N   0  0  0  0  0  2  0  0  0  0  0  0
  158.0250  212.9030  148.9440 C   0  0  0  0  0  0  0  0  0  0  0  0
  157.0430  213.5090  149.0400 N   0  0  0  0  0  0  0  0  0  0  0  0
  1  5  1  1  0  0  0
  1  2  1  0  0  0  0
  2 28  1  6  0  0  0
  4  1  1  0  0  0  0
  6  2  1  0  0  0  0
  6 10  1  1  0  0  0
  7 62  1  6  0  0  0
  7  4  1  0  0  0  0
  7  8  1  0  0  0  0
  8  3  1  6  0  0  0
  8  6  1  0  0  0  0
  9 11  1  0  0  0  0
 10  9  1  0  0  0  0
 11 22  1  1  0  0  0
 12 18  1  0  0  0  0
 13 12  1  0  0  0  0
 13 19  1  0  0  0  0
 14 15  1  6  0  0  0
 14 17  1  0  0  0  0
 14 21  1  0  0  0  0
 17 21  1  6  0  0  0
 18 14  1  0  0  0  0
 18 20  2  0  0  0  0
 19 16  1  6  0  0  0
 19 11  1  0  0  0  0
 19 17  1  0  0  0  0
 23 22  1  0  0  0  0
 24 23  1  0  0  0  0
 24 26  1  0  0  0  0
 25 26  1  0  0  0  0
 28 27  1  1  0  0  0
 29 33  1  0  0  0  0
 29 30  1  0  0  0  0
 31 35  1  6  0  0  0
 31 32  1  0  0  0  0
 31 29  1  0  0  0  0
 32 34  1  6  0  0  0
 32 28  1  0  0  0  0
 32 29  1  0  0  0  0
 36 35  1  0  0  0  0
 37 36  1  0  0  0  0
 38 37  2  0  0  0  0
 38 52  1  0  0  0  0
 39 42  2  0  0  0  0
 39 43  1  0  0  0  0
 40 41  2  0  0  0  0
 41 38  1  0  0  0  0
 42 40  1  0  0  0  0
 43 44  2  0  0  0  0
 44 41  1  0  0  0  0
 45 39  1  0  0  0  0
 46 45  1  0  0  0  0
 47 46  1  0  0  0  0
 48 47  1  0  0  0  0
 48 49  1  0  0  0  0
 51 50  1  0  0  0  0
 51 49  1  0  0  0  0
 53 56  1  0  0  0  0
 54 55  1  0  0  0  0
 54 57  1  0  0  0  0
 55 58  1  6  0  0  0
 55 53  1  0  0  0  0
 57 52  1  6  0  0  0
 57 56  1  0  0  0  0
 59 58  1  0  0  0  0
 61 58  1  0  0  0  0
 61 60  2  0  0  0  0
 62 63  1  6  0  0  0
 62 68  1  0  0  0  0
 64 65  2  0  0  0  0
 64 63  1  0  0  0  0
 66 64  1  0  0  0  0
 67 66  2  0  0  0  0
 68 69  1  0  0  0  0
 69 70  3  0  0  0  0
M  END
>  <MODEL>
2

>  <REMARK>
 VINA RESULT:       0.7      1.209      2.173
  Name = 
  29 active torsions:
  status: ('A' for Active; 'I' for Inactive)
    1  A    between atoms: C_1  and  C_19
    2  A    between atoms: C_1  and  O_23
    3  A    between atoms: C_2  and  C_42
    4  A    between atoms: C_2  and  O_46
    5  A    between atoms: C_3  and  C_7
    6  A    between atoms: C_3  and  C_19
    7  A    between atoms: C_4  and  N_8
    8  A    between atoms: N_8  and  C_44
    9  A    between atoms: C_13  and  C_24
   10  A    between atoms: C_13  and  C_61
   11  A    between atoms: C_21  and  C_32
   12  A    between atoms: O_23  and  C_65
   13  A    between atoms: C_24  and  O_30
   14  A    between atoms: N_25  and  C_41
   15  A    between atoms: C_26  and  C_52
   16  A    between atoms: N_27  and  C_29
   17  A    between atoms: N_27  and  C_70
   18  A    between atoms: O_30  and  C_60
   19  A    between atoms: C_32  and  C_37
   20  A    between atoms: C_33  and  O_46
   21  A    between atoms: S_34  and  C_61
   22  A    between atoms: C_40  and  C_61
   23  A    between atoms: C_41  and  C_48
   24  A    between atoms: C_44  and  C_48
   25  A    between atoms: C_44  and  C_54
   26  A    between atoms: C_45  and  C_65
   27  A    between atoms: C_52  and  C_58
   28  A    between atoms: C_53  and  C_57
   29  A    between atoms: C_58  and  C_62
                            x       y       z     vdW  Elec       q    Type
                         _______ _______ _______ _____ _____    ______ ____

>  <TORSDO>
F 29

$$$$
