=
 OpenBabel11072412303D

 33 35  0  0  1  0  0  0  0  0999 V2000
  161.3750  204.4620  152.4950 O   0  0  0  0  0  0  0  0  0  0  0  0
  161.2690  207.8870  151.4180 C   0  0  0  0  0  0  0  0  0  0  0  0
  160.9700  206.4070  149.4550 C   0  0  0  0  0  0  0  0  0  0  0  0
  161.1600  207.6270  149.9640 C   0  0  0  0  0  3  0  0  0  0  0  0
  161.2850  206.8460  152.2880 C   0  0  0  0  0  0  0  0  0  0  0  0
  160.7460  205.2150  150.3370 C   0  0  0  0  0  2  0  0  0  0  0  0
  161.1620  205.4590  151.7560 C   0  0  0  0  0  0  0  0  0  0  0  0
  162.4040  209.9720  151.4910 O   0  0  0  0  0  0  0  0  0  0  0  0
  160.3540  209.9610  152.5860 N   0  0  0  0  0  2  0  0  0  0  0  0
  161.3830  209.3130  151.8290 C   0  0  0  0  0  0  0  0  0  0  0  0
  160.4370  211.3530  153.0100 C   0  0  2  0  0  3  0  0  0  0  0  0
  160.7150  212.0300  156.4900 C   0  0  0  0  0  3  0  0  0  0  0  0
  160.7710  211.4370  154.4660 C   0  0  0  0  0  0  0  0  0  0  0  0
  161.6920  211.1000  156.4270 N   0  0  0  0  0  0  0  0  0  0  0  0
  161.7340  210.7140  155.1360 C   0  0  0  0  0  3  0  0  0  0  0  0
  160.1660  212.2270  155.3140 O   0  0  0  0  0  0  0  0  0  0  0  0
  159.1180  212.0600  152.7400 C   0  0  0  0  0  2  0  0  0  0  0  0
  159.2050  212.8670  151.4600 C   0  0  0  0  0  1  0  0  0  0  0  0
  160.4780  207.0180  154.5220 N   0  0  0  0  0  2  0  0  0  0  0  0
  161.4420  207.0820  153.6970 N   0  0  0  0  0  0  0  0  0  0  0  0
  160.8480  206.2380  147.9800 C   0  0  0  0  0  2  0  0  0  0  0  0
  161.7350  205.1010  147.5000 C   0  0  0  0  0  2  0  0  0  0  0  0
  161.4190  204.7560  146.0540 C   0  0  0  0  0  2  0  0  0  0  0  0
  161.5060  203.2550  145.8220 C   0  0  1  0  0  3  0  0  0  0  0  0
  160.1250  201.4030  145.4780 C   0  0  0  0  0  2  0  0  0  0  0  0
  161.4910  202.5690  147.0510 O   0  0  0  0  0  0  0  0  0  0  0  0
  161.6590  200.1940  147.0050 C   0  0  0  0  0  1  0  0  0  0  0  0
  160.3340  202.8000  144.9990 C   0  0  0  0  0  2  0  0  0  0  0  0
  160.7360  201.3930  146.8680 C   0  0  2  0  0  0  0  0  0  0  0  0
  159.6390  201.3550  147.9400 C   0  0  0  0  0  2  0  0  0  0  0  0
  160.0630  201.9360  149.2860 C   0  0  0  0  0  2  0  0  0  0  0  0
  160.7960  200.9940  150.0090 O   0  0  0  0  0  0  0  0  0  0  0  0
  161.3980  201.6940  150.9450 O   0  0  0  0  0  1  0  0  0  0  0  0
  2 10  1  0  0  0  0
  2  5  2  0  0  0  0
  3  4  2  0  0  0  0
  3  6  1  0  0  0  0
  4  2  1  0  0  0  0
  5 20  1  0  0  0  0
  6  7  1  0  0  0  0
  7  5  1  0  0  0  0
  7  1  2  0  0  0  0
  8 10  2  0  0  0  0
  9 11  1  0  0  0  0
 10  9  1  0  0  0  0
 11 17  1  1  0  0  0
 11 13  1  0  0  0  0
 13 15  2  0  0  0  0
 13 16  1  0  0  0  0
 14 12  2  0  0  0  0
 15 14  1  0  0  0  0
 16 12  1  0  0  0  0
 18 17  1  0  0  0  0
 20 19  2  0  0  0  0
 21  3  1  0  0  0  0
 22 21  1  0  0  0  0
 23 22  1  0  0  0  0
 24 23  1  1  0  0  0
 24 26  1  0  0  0  0
 25 29  1  0  0  0  0
 28 25  1  0  0  0  0
 28 24  1  0  0  0  0
 29 27  1  1  0  0  0
 29 26  1  0  0  0  0
 29 30  1  0  0  0  0
 30 31  1  0  0  0  0
 31 32  1  0  0  0  0
 32 33  1  0  0  0  0
M  END
>  <MODEL>
1

>  <REMARK>
 VINA RESULT:      -7.4      0.000      0.000
  Name = 
  12 active torsions:
  status: ('A' for Active; 'I' for Inactive)
    1  A    between atoms: C_1  and  C_9
    2  A    between atoms: C_1  and  C_10
    3  A    between atoms: C_5  and  C_14
    4  A    between atoms: N_6  and  C_14
    5  A    between atoms: C_7  and  C_10
    6  A    between atoms: C_7  and  C_13
    7  A    between atoms: C_8  and  C_16
    8  A    between atoms: C_8  and  C_26
    9  A    between atoms: N_11  and  C_17
   10  A    between atoms: C_12  and  C_19
   11  A    between atoms: C_14  and  C_28
   12  A    between atoms: C_16  and  O_27
                            x       y       z     vdW  Elec       q    Type
                         _______ _______ _______ _____ _____    ______ ____

>  <TORSDO>
F 12

$$$$
=
 OpenBabel11072412303D

 33 35  0  0  1  0  0  0  0  0999 V2000
  161.4290  207.3190  147.1450 O   0  0  0  0  0  0  0  0  0  0  0  0
  161.6480  208.0990  150.6430 C   0  0  0  0  0  0  0  0  0  0  0  0
  160.9460  205.7390  150.3780 C   0  0  0  0  0  0  0  0  0  0  0  0
  161.1550  206.8020  151.1600 C   0  0  0  0  0  3  0  0  0  0  0  0
  161.8020  208.2760  149.3070 C   0  0  0  0  0  0  0  0  0  0  0  0
  161.3000  205.7550  148.9210 C   0  0  0  0  0  2  0  0  0  0  0  0
  161.4970  207.1430  148.3890 C   0  0  0  0  0  0  0  0  0  0  0  0
  162.9710  209.8470  151.5570 O   0  0  0  0  0  0  0  0  0  0  0  0
  161.0150  209.4140  152.7350 N   0  0  0  0  0  2  0  0  0  0  0  0
  161.9210  209.1540  151.6570 C   0  0  0  0  0  0  0  0  0  0  0  0
  161.2560  210.4350  153.7470 C   0  0  2  0  0  3  0  0  0  0  0  0
  160.2740  208.8590  156.7800 C   0  0  0  0  0  3  0  0  0  0  0  0
  161.1100  209.8550  155.1190 C   0  0  0  0  0  0  0  0  0  0  0  0
  161.5050  209.2400  157.1850 N   0  0  0  0  0  0  0  0  0  0  0  0
  162.0470  209.8770  156.1290 C   0  0  0  0  0  3  0  0  0  0  0  0
  160.0430  209.2290  155.5410 O   0  0  0  0  0  0  0  0  0  0  0  0
  160.2820  211.5880  153.5660 C   0  0  0  0  0  2  0  0  0  0  0  0
  159.0500  211.1250  152.8130 C   0  0  0  0  0  1  0  0  0  0  0  0
  161.4200  210.4640  148.4490 N   0  0  0  0  0  2  0  0  0  0  0  0
  162.2300  209.5470  148.7900 N   0  0  0  0  0  0  0  0  0  0  0  0
  160.4700  204.4640  150.9840 C   0  0  0  0  0  2  0  0  0  0  0  0
  161.1300  203.2750  150.3060 C   0  0  0  0  0  2  0  0  0  0  0  0
  160.1900  202.0800  150.2980 C   0  0  0  0  0  2  0  0  0  0  0  0
  160.1760  201.4090  148.9330 C   0  0  1  0  0  3  0  0  0  0  0  0
  161.6430  200.7110  147.2550 C   0  0  0  0  0  2  0  0  0  0  0  0
  160.0620  202.3740  147.9160 O   0  0  0  0  0  0  0  0  0  0  0  0
  159.9710  201.6120  145.6610 C   0  0  0  0  0  1  0  0  0  0  0  0
  161.4530  200.6410  148.7330 C   0  0  0  0  0  2  0  0  0  0  0  0
  160.8690  201.9490  146.8400 C   0  0  2  0  0  0  0  0  0  0  0  0
  161.8280  203.0910  146.4790 C   0  0  0  0  0  2  0  0  0  0  0  0
  161.3160  204.0070  145.3700 C   0  0  0  0  0  2  0  0  0  0  0  0
  162.2760  204.9700  145.0580 O   0  0  0  0  0  0  0  0  0  0  0  0
  163.2450  204.7600  145.9220 O   0  0  0  0  0  1  0  0  0  0  0  0
  1  7  2  0  0  0  0
  2  4  1  0  0  0  0
  2 10  1  0  0  0  0
  3 21  1  0  0  0  0
  3  4  2  0  0  0  0
  5  2  2  0  0  0  0
  6  3  1  0  0  0  0
  7  6  1  0  0  0  0
  7  5  1  0  0  0  0
  8 10  2  0  0  0  0
  9 11  1  0  0  0  0
 10  9  1  0  0  0  0
 11 17  1  6  0  0  0
 11 13  1  0  0  0  0
 12 14  2  0  0  0  0
 13 16  1  0  0  0  0
 13 15  2  0  0  0  0
 15 14  1  0  0  0  0
 16 12  1  0  0  0  0
 18 17  1  0  0  0  0
 19 20  2  0  0  0  0
 20  5  1  0  0  0  0
 22 21  1  0  0  0  0
 23 22  1  0  0  0  0
 24 23  1  1  0  0  0
 25 28  1  0  0  0  0
 26 24  1  0  0  0  0
 28 24  1  0  0  0  0
 29 27  1  6  0  0  0
 29 25  1  0  0  0  0
 29 26  1  0  0  0  0
 30 29  1  0  0  0  0
 31 30  1  0  0  0  0
 32 31  1  0  0  0  0
 32 33  1  0  0  0  0
M  END
>  <MODEL>
2

>  <REMARK>
 VINA RESULT:      -7.3      1.969      3.487
  Name = 
  12 active torsions:
  status: ('A' for Active; 'I' for Inactive)
    1  A    between atoms: C_1  and  C_9
    2  A    between atoms: C_1  and  C_10
    3  A    between atoms: C_5  and  C_14
    4  A    between atoms: N_6  and  C_14
    5  A    between atoms: C_7  and  C_10
    6  A    between atoms: C_7  and  C_13
    7  A    between atoms: C_8  and  C_16
    8  A    between atoms: C_8  and  C_26
    9  A    between atoms: N_11  and  C_17
   10  A    between atoms: C_12  and  C_19
   11  A    between atoms: C_14  and  C_28
   12  A    between atoms: C_16  and  O_27
                            x       y       z     vdW  Elec       q    Type
                         _______ _______ _______ _____ _____    ______ ____

>  <TORSDO>
F 12

$$$$
=
 OpenBabel11072412303D

 33 35  0  0  1  0  0  0  0  0999 V2000
  161.9910  209.7750  151.1220 O   0  0  0  0  0  0  0  0  0  0  0  0
  161.5350  206.2440  151.5920 C   0  0  0  0  0  0  0  0  0  0  0  0
  160.9010  207.4300  153.6710 C   0  0  0  0  0  0  0  0  0  0  0  0
  161.1430  206.2900  153.0190 C   0  0  0  0  0  3  0  0  0  0  0  0
  161.7680  207.4000  150.9210 C   0  0  0  0  0  0  0  0  0  0  0  0
  160.9070  208.7540  152.9660 C   0  0  0  0  0  2  0  0  0  0  0  0
  161.5940  208.6970  151.6350 C   0  0  0  0  0  0  0  0  0  0  0  0
  162.1820  203.9600  151.6690 O   0  0  0  0  0  0  0  0  0  0  0  0
  161.2320  204.6160  149.6530 N   0  0  0  0  0  2  0  0  0  0  0  0
  161.6740  204.8920  150.9860 C   0  0  0  0  0  0  0  0  0  0  0  0
  161.3590  203.3050  149.0270 C   0  0  2  0  0  3  0  0  0  0  0  0
  161.1970  203.0060  145.4880 C   0  0  0  0  0  3  0  0  0  0  0  0
  161.4290  203.4410  147.5390 C   0  0  0  0  0  0  0  0  0  0  0  0
  161.8160  204.2050  145.5210 N   0  0  0  0  0  0  0  0  0  0  0  0
  161.9680  204.4920  146.8290 C   0  0  0  0  0  3  0  0  0  0  0  0
  160.9660  202.5530  146.6990 O   0  0  0  0  0  0  0  0  0  0  0  0
  160.1800  202.4270  149.4130 C   0  0  0  0  0  2  0  0  0  0  0  0
  160.6670  201.1000  149.9620 C   0  0  0  0  0  1  0  0  0  0  0  0
  161.5120  207.8470  148.5960 N   0  0  0  0  0  2  0  0  0  0  0  0
  162.2000  207.3670  149.5500 N   0  0  0  0  0  0  0  0  0  0  0  0
  160.4880  207.3840  155.1020 C   0  0  0  0  0  2  0  0  0  0  0  0
  161.3050  208.3670  155.9220 C   0  0  0  0  0  2  0  0  0  0  0  0
  160.3950  209.3880  156.5860 C   0  0  0  0  0  2  0  0  0  0  0  0
  160.4640  210.7270  155.8680 C   0  0  1  0  0  3  0  0  0  0  0  0
  159.9920  212.9870  156.2220 C   0  0  0  0  0  2  0  0  0  0  0  0
  159.2650  210.9700  155.1720 O   0  0  0  0  0  0  0  0  0  0  0  0
  159.0950  212.9820  153.9100 C   0  0  0  0  0  1  0  0  0  0  0  0
  160.6760  211.8290  156.8680 C   0  0  0  0  0  2  0  0  0  0  0  0
  158.9830  212.3460  155.2860 C   0  0  2  0  0  0  0  0  0  0  0  0
  157.5600  212.5010  155.8380 C   0  0  0  0  0  2  0  0  0  0  0  0
  156.7300  211.2210  155.7890 C   0  0  0  0  0  2  0  0  0  0  0  0
  155.8220  211.2740  154.7310 O   0  0  0  0  0  0  0  0  0  0  0  0
  155.1350  210.1570  154.8310 O   0  0  0  0  0  1  0  0  0  0  0  0
  1  7  2  0  0  0  0
  2  4  1  0  0  0  0
  3 21  1  0  0  0  0
  4  3  2  0  0  0  0
  5  2  2  0  0  0  0
  5  7  1  0  0  0  0
  6  3  1  0  0  0  0
  7  6  1  0  0  0  0
  9 10  1  0  0  0  0
 10  2  1  0  0  0  0
 10  8  2  0  0  0  0
 11 17  1  6  0  0  0
 11  9  1  0  0  0  0
 12 14  2  0  0  0  0
 12 16  1  0  0  0  0
 13 11  1  0  0  0  0
 14 15  1  0  0  0  0
 15 13  2  0  0  0  0
 16 13  1  0  0  0  0
 17 18  1  0  0  0  0
 19 20  2  0  0  0  0
 20  5  1  0  0  0  0
 21 22  1  0  0  0  0
 22 23  1  0  0  0  0
 24 23  1  1  0  0  0
 24 28  1  0  0  0  0
 25 28  1  0  0  0  0
 26 29  1  0  0  0  0
 26 24  1  0  0  0  0
 29 27  1  6  0  0  0
 29 30  1  0  0  0  0
 29 25  1  0  0  0  0
 31 30  1  0  0  0  0
 32 33  1  0  0  0  0
 32 31  1  0  0  0  0
M  END
>  <MODEL>
3

>  <REMARK>
 VINA RESULT:      -7.2      2.847     10.138
  Name = 
  12 active torsions:
  status: ('A' for Active; 'I' for Inactive)
    1  A    between atoms: C_1  and  C_9
    2  A    between atoms: C_1  and  C_10
    3  A    between atoms: C_5  and  C_14
    4  A    between atoms: N_6  and  C_14
    5  A    between atoms: C_7  and  C_10
    6  A    between atoms: C_7  and  C_13
    7  A    between atoms: C_8  and  C_16
    8  A    between atoms: C_8  and  C_26
    9  A    between atoms: N_11  and  C_17
   10  A    between atoms: C_12  and  C_19
   11  A    between atoms: C_14  and  C_28
   12  A    between atoms: C_16  and  O_27
                            x       y       z     vdW  Elec       q    Type
                         _______ _______ _______ _____ _____    ______ ____

>  <TORSDO>
F 12

$$$$
=
 OpenBabel11072412303D

 33 35  0  0  1  0  0  0  0  0999 V2000
  161.3560  209.8150  151.1320 O   0  0  0  0  0  0  0  0  0  0  0  0
  161.3940  206.2630  151.6570 C   0  0  0  0  0  0  0  0  0  0  0  0
  161.0260  207.4020  153.8250 C   0  0  0  0  0  0  0  0  0  0  0  0
  161.2700  206.2870  153.1320 C   0  0  0  0  0  3  0  0  0  0  0  0
  161.3680  207.4270  150.9620 C   0  0  0  0  0  0  0  0  0  0  0  0
  160.7530  208.7080  153.1390 C   0  0  0  0  0  2  0  0  0  0  0  0
  161.1840  208.7070  151.7030 C   0  0  0  0  0  0  0  0  0  0  0  0
  162.0640  203.9850  151.7090 O   0  0  0  0  0  0  0  0  0  0  0  0
  161.1790  204.6740  149.6740 N   0  0  0  0  0  2  0  0  0  0  0  0
  161.5700  204.9260  151.0280 C   0  0  0  0  0  0  0  0  0  0  0  0
  161.3440  203.3790  149.0260 C   0  0  2  0  0  3  0  0  0  0  0  0
  161.2350  203.1100  145.4820 C   0  0  0  0  0  3  0  0  0  0  0  0
  161.4040  203.5420  147.5400 C   0  0  0  0  0  0  0  0  0  0  0  0
  161.7070  204.3740  145.5350 N   0  0  0  0  0  0  0  0  0  0  0  0
  161.8180  204.6590  146.8470 C   0  0  0  0  0  3  0  0  0  0  0  0
  161.0540  202.6160  146.6860 O   0  0  0  0  0  0  0  0  0  0  0  0
  160.1920  202.4590  149.4000 C   0  0  0  0  0  2  0  0  0  0  0  0
  160.7210  201.1470  149.9460 C   0  0  0  0  0  1  0  0  0  0  0  0
  162.6360  207.7240  148.9680 N   0  0  0  0  0  2  0  0  0  0  0  0
  161.5400  207.4230  149.5340 N   0  0  0  0  0  0  0  0  0  0  0  0
  160.8930  207.3320  155.3070 C   0  0  0  0  0  2  0  0  0  0  0  0
  159.8010  208.2740  155.7870 C   0  0  0  0  0  2  0  0  0  0  0  0
  160.4020  209.4160  156.5900 C   0  0  0  0  0  2  0  0  0  0  0  0
  159.5910  210.6910  156.4120 C   0  0  1  0  0  3  0  0  0  0  0  0
  158.0480  211.6530  154.9460 C   0  0  0  0  0  2  0  0  0  0  0  0
  160.3230  211.6360  155.6690 O   0  0  0  0  0  0  0  0  0  0  0  0
  159.3190  213.7570  155.2660 C   0  0  0  0  0  1  0  0  0  0  0  0
  158.3150  210.3820  155.6790 C   0  0  0  0  0  2  0  0  0  0  0  0
  159.4130  212.3060  154.8260 C   0  0  2  0  0  0  0  0  0  0  0  0
  159.9330  212.2100  153.3860 C   0  0  0  0  0  2  0  0  0  0  0  0
  158.8330  212.1020  152.3330 C   0  0  0  0  0  2  0  0  0  0  0  0
  158.6030  213.3470  151.7460 O   0  0  0  0  0  0  0  0  0  0  0  0
  159.8040  213.8270  151.5120 O   0  0  0  0  0  1  0  0  0  0  0  0
  1  7  2  0  0  0  0
  2  4  1  0  0  0  0
  3 21  1  0  0  0  0
  4  3  2  0  0  0  0
  5  2  2  0  0  0  0
  5  7  1  0  0  0  0
  6  3  1  0  0  0  0
  7  6  1  0  0  0  0
  9 10  1  0  0  0  0
 10  2  1  0  0  0  0
 10  8  2  0  0  0  0
 11 17  1  6  0  0  0
 11  9  1  0  0  0  0
 12 14  2  0  0  0  0
 12 16  1  0  0  0  0
 13 11  1  0  0  0  0
 14 15  1  0  0  0  0
 15 13  2  0  0  0  0
 16 13  1  0  0  0  0
 17 18  1  0  0  0  0
 19 20  2  0  0  0  0
 20  5  1  0  0  0  0
 21 22  1  0  0  0  0
 22 23  1  0  0  0  0
 24 23  1  6  0  0  0
 25 28  1  0  0  0  0
 26 24  1  0  0  0  0
 28 24  1  0  0  0  0
 29 25  1  0  0  0  0
 29 27  1  1  0  0  0
 29 26  1  0  0  0  0
 30 29  1  0  0  0  0
 31 30  1  0  0  0  0
 32 31  1  0  0  0  0
 33 32  1  0  0  0  0
M  END
>  <MODEL>
4

>  <REMARK>
 VINA RESULT:      -7.1      2.724     10.013
  Name = 
  12 active torsions:
  status: ('A' for Active; 'I' for Inactive)
    1  A    between atoms: C_1  and  C_9
    2  A    between atoms: C_1  and  C_10
    3  A    between atoms: C_5  and  C_14
    4  A    between atoms: N_6  and  C_14
    5  A    between atoms: C_7  and  C_10
    6  A    between atoms: C_7  and  C_13
    7  A    between atoms: C_8  and  C_16
    8  A    between atoms: C_8  and  C_26
    9  A    between atoms: N_11  and  C_17
   10  A    between atoms: C_12  and  C_19
   11  A    between atoms: C_14  and  C_28
   12  A    between atoms: C_16  and  O_27
                            x       y       z     vdW  Elec       q    Type
                         _______ _______ _______ _____ _____    ______ ____

>  <TORSDO>
F 12

$$$$
=
 OpenBabel11072412303D

 33 35  0  0  1  0  0  0  0  0999 V2000
  161.4250  205.3820  153.8120 O   0  0  0  0  0  0  0  0  0  0  0  0
  161.0920  208.8740  153.0460 C   0  0  0  0  0  0  0  0  0  0  0  0
  162.0010  207.6920  151.0700 C   0  0  0  0  0  0  0  0  0  0  0  0
  161.6890  208.8320  151.6920 C   0  0  0  0  0  3  0  0  0  0  0  0
  160.9410  207.7250  153.7510 C   0  0  0  0  0  0  0  0  0  0  0  0
  161.6660  206.3560  151.6640 C   0  0  0  0  0  2  0  0  0  0  0  0
  161.3560  206.4370  153.1290 C   0  0  0  0  0  0  0  0  0  0  0  0
  161.5000  210.8240  154.3400 O   0  0  0  0  0  0  0  0  0  0  0  0
  159.4860  210.8510  153.1820 N   0  0  0  0  0  2  0  0  0  0  0  0
  160.7140  210.2190  153.5610 C   0  0  0  0  0  0  0  0  0  0  0  0
  159.0820  212.1630  153.6730 C   0  0  2  0  0  3  0  0  0  0  0  0
  156.0040  211.9770  155.4420 C   0  0  0  0  0  3  0  0  0  0  0  0
  157.9590  212.0320  154.6520 C   0  0  0  0  0  0  0  0  0  0  0  0
  156.8110  211.7240  156.4940 N   0  0  0  0  0  0  0  0  0  0  0  0
  158.0640  211.7560  155.9980 C   0  0  0  0  0  3  0  0  0  0  0  0
  156.6960  212.1600  154.3410 O   0  0  0  0  0  0  0  0  0  0  0  0
  158.6560  213.0450  152.5110 C   0  0  0  0  0  2  0  0  0  0  0  0
  159.7180  213.0440  151.4290 C   0  0  0  0  0  1  0  0  0  0  0  0
  161.1440  207.8500  156.1210 N   0  0  0  0  0  2  0  0  0  0  0  0
  160.4110  207.7600  155.0870 N   0  0  0  0  0  0  0  0  0  0  0  0
  162.5770  207.7390  149.6970 C   0  0  0  0  0  2  0  0  0  0  0  0
  161.5190  208.1580  148.6910 C   0  0  0  0  0  2  0  0  0  0  0  0
  160.8030  206.9380  148.1340 C   0  0  0  0  0  2  0  0  0  0  0  0
  161.5220  206.3990  146.9060 C   0  0  1  0  0  3  0  0  0  0  0  0
  161.1350  205.0440  145.0440 C   0  0  0  0  0  2  0  0  0  0  0  0
  162.1450  205.1730  147.2030 O   0  0  0  0  0  0  0  0  0  0  0  0
  163.3890  204.1060  145.4760 C   0  0  0  0  0  1  0  0  0  0  0  0
  160.5340  206.1840  145.7940 C   0  0  0  0  0  2  0  0  0  0  0  0
  162.0110  204.3470  146.0690 C   0  0  2  0  0  0  0  0  0  0  0  0
  161.3760  203.0220  146.5120 C   0  0  0  0  0  2  0  0  0  0  0  0
  161.2240  202.8790  148.0240 C   0  0  0  0  0  2  0  0  0  0  0  0
  160.4850  201.7360  148.3290 O   0  0  0  0  0  0  0  0  0  0  0  0
  161.0500  201.2600  149.4180 O   0  0  0  0  0  1  0  0  0  0  0  0
  2 10  1  0  0  0  0
  2  5  2  0  0  0  0
  3  6  1  0  0  0  0
  3  4  2  0  0  0  0
  4  2  1  0  0  0  0
  5 20  1  0  0  0  0
  6  7  1  0  0  0  0
  7  5  1  0  0  0  0
  7  1  2  0  0  0  0
  9 10  1  0  0  0  0
  9 11  1  0  0  0  0
 10  8  2  0  0  0  0
 11 17  1  6  0  0  0
 11 13  1  0  0  0  0
 12 14  2  0  0  0  0
 13 15  2  0  0  0  0
 15 14  1  0  0  0  0
 16 13  1  0  0  0  0
 16 12  1  0  0  0  0
 18 17  1  0  0  0  0
 20 19  2  0  0  0  0
 21  3  1  0  0  0  0
 22 21  1  0  0  0  0
 23 22  1  0  0  0  0
 24 26  1  0  0  0  0
 24 23  1  1  0  0  0
 25 28  1  0  0  0  0
 25 29  1  0  0  0  0
 28 24  1  0  0  0  0
 29 27  1  6  0  0  0
 29 30  1  0  0  0  0
 29 26  1  0  0  0  0
 30 31  1  0  0  0  0
 31 32  1  0  0  0  0
 32 33  1  0  0  0  0
M  END
>  <MODEL>
5

>  <REMARK>
 VINA RESULT:      -7.1      1.927      2.809
  Name = 
  12 active torsions:
  status: ('A' for Active; 'I' for Inactive)
    1  A    between atoms: C_1  and  C_9
    2  A    between atoms: C_1  and  C_10
    3  A    between atoms: C_5  and  C_14
    4  A    between atoms: N_6  and  C_14
    5  A    between atoms: C_7  and  C_10
    6  A    between atoms: C_7  and  C_13
    7  A    between atoms: C_8  and  C_16
    8  A    between atoms: C_8  and  C_26
    9  A    between atoms: N_11  and  C_17
   10  A    between atoms: C_12  and  C_19
   11  A    between atoms: C_14  and  C_28
   12  A    between atoms: C_16  and  O_27
                            x       y       z     vdW  Elec       q    Type
                         _______ _______ _______ _____ _____    ______ ____

>  <TORSDO>
F 12

$$$$
=
 OpenBabel11072412303D

 33 35  0  0  1  0  0  0  0  0999 V2000
  162.6970  210.0880  151.2500 O   0  0  0  0  0  0  0  0  0  0  0  0
  161.2860  206.9620  150.1880 C   0  0  0  0  0  0  0  0  0  0  0  0
  161.3780  207.0140  152.6610 C   0  0  0  0  0  0  0  0  0  0  0  0
  161.1600  206.3440  151.5270 C   0  0  0  0  0  3  0  0  0  0  0  0
  161.7440  208.2340  150.0750 C   0  0  0  0  0  0  0  0  0  0  0  0
  161.6670  208.4850  152.6610 C   0  0  0  0  0  2  0  0  0  0  0  0
  162.0830  208.9920  151.3120 C   0  0  0  0  0  0  0  0  0  0  0  0
  159.8670  206.3730  148.3760 O   0  0  0  0  0  0  0  0  0  0  0  0
  161.7260  205.0000  148.6190 N   0  0  0  0  0  2  0  0  0  0  0  0
  160.9150  206.1070  149.0270 C   0  0  0  0  0  0  0  0  0  0  0  0
  161.3890  204.1400  147.4910 C   0  0  2  0  0  3  0  0  0  0  0  0
  161.2040  200.6150  147.9170 C   0  0  0  0  0  3  0  0  0  0  0  0
  161.2230  202.7240  147.9450 C   0  0  0  0  0  0  0  0  0  0  0  0
  160.8180  200.9500  149.1670 N   0  0  0  0  0  0  0  0  0  0  0  0
  160.8290  202.2980  149.1940 C   0  0  0  0  0  3  0  0  0  0  0  0
  161.4460  201.6810  147.1890 O   0  0  0  0  0  0  0  0  0  0  0  0
  162.4760  204.2200  146.4310 C   0  0  0  0  0  2  0  0  0  0  0  0
  162.3260  205.4910  145.6170 C   0  0  0  0  0  1  0  0  0  0  0  0
  161.9600  210.0830  148.5900 N   0  0  0  0  0  2  0  0  0  0  0  0
  161.9200  208.8270  148.7770 N   0  0  0  0  0  0  0  0  0  0  0  0
  161.2050  206.3200  153.9690 C   0  0  0  0  0  2  0  0  0  0  0  0
  160.4650  207.2140  154.9500 C   0  0  0  0  0  2  0  0  0  0  0  0
  161.4510  208.0250  155.7750 C   0  0  0  0  0  2  0  0  0  0  0  0
  160.8080  209.3050  156.2870 C   0  0  1  0  0  3  0  0  0  0  0  0
  158.9190  210.6340  155.9390 C   0  0  0  0  0  2  0  0  0  0  0  0
  161.2620  210.4100  155.5440 O   0  0  0  0  0  0  0  0  0  0  0  0
  160.4560  212.5680  156.1470 C   0  0  0  0  0  1  0  0  0  0  0  0
  159.3140  209.2110  156.1510 C   0  0  0  0  0  2  0  0  0  0  0  0
  160.1700  211.2870  155.3810 C   0  0  2  0  0  0  0  0  0  0  0  0
  160.0070  211.5780  153.8840 C   0  0  0  0  0  2  0  0  0  0  0  0
  159.0780  212.7510  153.5760 C   0  0  0  0  0  2  0  0  0  0  0  0
  159.1760  213.1030  152.2290 O   0  0  0  0  0  0  0  0  0  0  0  0
  160.0930  212.2940  151.7440 O   0  0  0  0  0  1  0  0  0  0  0  0
  1  7  2  0  0  0  0
  2  4  1  0  0  0  0
  3 21  1  0  0  0  0
  4  3  2  0  0  0  0
  5  2  2  0  0  0  0
  5  7  1  0  0  0  0
  6  3  1  0  0  0  0
  7  6  1  0  0  0  0
  8 10  2  0  0  0  0
  9 10  1  0  0  0  0
 10  2  1  0  0  0  0
 11 17  1  6  0  0  0
 11 13  1  0  0  0  0
 11  9  1  0  0  0  0
 12 14  2  0  0  0  0
 13 15  2  0  0  0  0
 14 15  1  0  0  0  0
 16 12  1  0  0  0  0
 16 13  1  0  0  0  0
 18 17  1  0  0  0  0
 19 20  2  0  0  0  0
 20  5  1  0  0  0  0
 21 22  1  0  0  0  0
 22 23  1  0  0  0  0
 24 23  1  6  0  0  0
 25 28  1  0  0  0  0
 26 24  1  0  0  0  0
 28 24  1  0  0  0  0
 29 26  1  0  0  0  0
 29 25  1  0  0  0  0
 29 27  1  1  0  0  0
 30 29  1  0  0  0  0
 31 30  1  0  0  0  0
 32 31  1  0  0  0  0
 33 32  1  0  0  0  0
M  END
>  <MODEL>
6

>  <REMARK>
 VINA RESULT:      -7.0      2.726      9.712
  Name = 
  12 active torsions:
  status: ('A' for Active; 'I' for Inactive)
    1  A    between atoms: C_1  and  C_9
    2  A    between atoms: C_1  and  C_10
    3  A    between atoms: C_5  and  C_14
    4  A    between atoms: N_6  and  C_14
    5  A    between atoms: C_7  and  C_10
    6  A    between atoms: C_7  and  C_13
    7  A    between atoms: C_8  and  C_16
    8  A    between atoms: C_8  and  C_26
    9  A    between atoms: N_11  and  C_17
   10  A    between atoms: C_12  and  C_19
   11  A    between atoms: C_14  and  C_28
   12  A    between atoms: C_16  and  O_27
                            x       y       z     vdW  Elec       q    Type
                         _______ _______ _______ _____ _____    ______ ____

>  <TORSDO>
F 12

$$$$
=
 OpenBabel11072412303D

 33 35  0  0  1  0  0  0  0  0999 V2000
  161.4250  208.0370  149.1790 O   0  0  0  0  0  0  0  0  0  0  0  0
  161.2150  207.3860  152.7040 C   0  0  0  0  0  0  0  0  0  0  0  0
  161.1860  205.2360  151.4770 C   0  0  0  0  0  0  0  0  0  0  0  0
  161.0560  205.9160  152.6180 C   0  0  0  0  0  3  0  0  0  0  0  0
  161.3970  208.1100  151.5720 C   0  0  0  0  0  0  0  0  0  0  0  0
  161.6120  205.9090  150.2060 C   0  0  0  0  0  2  0  0  0  0  0  0
  161.4620  207.4000  150.2630 C   0  0  0  0  0  0  0  0  0  0  0  0
  161.5800  207.3310  155.0510 O   0  0  0  0  0  0  0  0  0  0  0  0
  160.5800  209.2840  154.2840 N   0  0  0  0  0  2  0  0  0  0  0  0
  161.1350  207.9820  154.0660 C   0  0  0  0  0  0  0  0  0  0  0  0
  160.4800  209.8950  155.6050 C   0  0  2  0  0  3  0  0  0  0  0  0
  157.2950  211.4400  155.2690 C   0  0  0  0  0  3  0  0  0  0  0  0
  159.1900  210.6410  155.7390 C   0  0  0  0  0  0  0  0  0  0  0  0
  157.5450  211.8550  156.5300 N   0  0  0  0  0  0  0  0  0  0  0  0
  158.7550  211.3480  156.8380 C   0  0  0  0  0  3  0  0  0  0  0  0
  158.2830  210.7130  154.8000 O   0  0  0  0  0  0  0  0  0  0  0  0
  161.6510  210.8380  155.8330 C   0  0  0  0  0  2  0  0  0  0  0  0
  162.6590  210.2090  156.7750 C   0  0  0  0  0  1  0  0  0  0  0  0
  162.6070  210.1620  151.5530 N   0  0  0  0  0  2  0  0  0  0  0  0
  161.5000  209.5430  151.6370 N   0  0  0  0  0  0  0  0  0  0  0  0
  161.0340  203.7540  151.4840 C   0  0  0  0  0  2  0  0  0  0  0  0
  160.5800  203.2600  150.1210 C   0  0  0  0  0  2  0  0  0  0  0  0
  160.4740  201.7440  150.1140 C   0  0  0  0  0  2  0  0  0  0  0  0
  160.3130  201.2160  148.6970 C   0  0  1  0  0  3  0  0  0  0  0  0
  161.5920  200.6940  146.8130 C   0  0  0  0  0  2  0  0  0  0  0  0
  160.1060  202.2800  147.8000 O   0  0  0  0  0  0  0  0  0  0  0  0
  159.7750  201.7550  145.5010 C   0  0  0  0  0  1  0  0  0  0  0  0
  161.5540  200.4730  148.2880 C   0  0  0  0  0  2  0  0  0  0  0  0
  160.7930  201.9680  146.6090 C   0  0  2  0  0  0  0  0  0  0  0  0
  161.7220  203.1410  146.2700 C   0  0  0  0  0  2  0  0  0  0  0  0
  161.2060  204.0400  145.1490 C   0  0  0  0  0  2  0  0  0  0  0  0
  160.8610  205.2930  145.6560 O   0  0  0  0  0  0  0  0  0  0  0  0
  161.6760  205.4720  146.6730 O   0  0  0  0  0  1  0  0  0  0  0  0
  1  7  2  0  0  0  0
  2 10  1  0  0  0  0
  3 21  1  0  0  0  0
  3  4  2  0  0  0  0
  4  2  1  0  0  0  0
  5 20  1  0  0  0  0
  5  2  2  0  0  0  0
  6  7  1  0  0  0  0
  6  3  1  0  0  0  0
  7  5  1  0  0  0  0
  9 11  1  0  0  0  0
 10  9  1  0  0  0  0
 10  8  2  0  0  0  0
 11 13  1  0  0  0  0
 11 17  1  6  0  0  0
 12 14  2  0  0  0  0
 13 15  2  0  0  0  0
 14 15  1  0  0  0  0
 16 12  1  0  0  0  0
 16 13  1  0  0  0  0
 17 18  1  0  0  0  0
 19 20  2  0  0  0  0
 22 21  1  0  0  0  0
 23 22  1  0  0  0  0
 24 23  1  1  0  0  0
 25 28  1  0  0  0  0
 26 24  1  0  0  0  0
 28 24  1  0  0  0  0
 29 27  1  6  0  0  0
 29 25  1  0  0  0  0
 29 26  1  0  0  0  0
 30 29  1  0  0  0  0
 31 32  1  0  0  0  0
 31 30  1  0  0  0  0
 32 33  1  0  0  0  0
M  END
>  <MODEL>
7

>  <REMARK>
 VINA RESULT:      -6.9      2.078      3.691
  Name = 
  12 active torsions:
  status: ('A' for Active; 'I' for Inactive)
    1  A    between atoms: C_1  and  C_9
    2  A    between atoms: C_1  and  C_10
    3  A    between atoms: C_5  and  C_14
    4  A    between atoms: N_6  and  C_14
    5  A    between atoms: C_7  and  C_10
    6  A    between atoms: C_7  and  C_13
    7  A    between atoms: C_8  and  C_16
    8  A    between atoms: C_8  and  C_26
    9  A    between atoms: N_11  and  C_17
   10  A    between atoms: C_12  and  C_19
   11  A    between atoms: C_14  and  C_28
   12  A    between atoms: C_16  and  O_27
                            x       y       z     vdW  Elec       q    Type
                         _______ _______ _______ _____ _____    ______ ____

>  <TORSDO>
F 12

$$$$
=
 OpenBabel11072412303D

 33 35  0  0  1  0  0  0  0  0999 V2000
  161.0500  205.2060  153.7100 O   0  0  0  0  0  0  0  0  0  0  0  0
  161.0960  206.0990  150.2320 C   0  0  0  0  0  0  0  0  0  0  0  0
  161.7270  208.0730  151.5870 C   0  0  0  0  0  0  0  0  0  0  0  0
  161.4040  207.5370  150.4080 C   0  0  0  0  0  3  0  0  0  0  0  0
  161.0280  205.2880  151.3180 C   0  0  0  0  0  0  0  0  0  0  0  0
  161.9050  207.2260  152.8120 C   0  0  0  0  0  2  0  0  0  0  0  0
  161.2970  205.8640  152.6660 C   0  0  0  0  0  0  0  0  0  0  0  0
  159.9860  206.2360  148.1370 O   0  0  0  0  0  0  0  0  0  0  0  0
  161.5780  204.5480  148.2660 N   0  0  0  0  0  2  0  0  0  0  0  0
  160.8490  205.6400  148.8380 C   0  0  0  0  0  0  0  0  0  0  0  0
  161.3560  204.0700  146.9070 C   0  0  2  0  0  3  0  0  0  0  0  0
  161.2050  200.5760  147.5530 C   0  0  0  0  0  3  0  0  0  0  0  0
  161.2120  202.5810  146.8950 C   0  0  0  0  0  0  0  0  0  0  0  0
  160.8280  200.5190  146.2580 N   0  0  0  0  0  0  0  0  0  0  0  0
  160.8290  201.7960  145.8290 C   0  0  0  0  0  3  0  0  0  0  0  0
  161.4330  201.8140  147.9300 O   0  0  0  0  0  0  0  0  0  0  0  0
  162.5130  204.4850  146.0130 C   0  0  0  0  0  2  0  0  0  0  0  0
  162.0300  205.4290  144.9290 C   0  0  0  0  0  1  0  0  0  0  0  0
  161.5150  202.9570  151.3150 N   0  0  0  0  0  2  0  0  0  0  0  0
  160.6790  203.9020  151.1660 N   0  0  0  0  0  0  0  0  0  0  0  0
  162.0460  209.5260  151.6710 C   0  0  0  0  0  2  0  0  0  0  0  0
  161.4680  210.1250  152.9420 C   0  0  0  0  0  2  0  0  0  0  0  0
  159.9950  210.4480  152.7540 C   0  0  0  0  0  2  0  0  0  0  0  0
  159.6170  211.7180  153.5010 C   0  0  1  0  0  3  0  0  0  0  0  0
  159.5660  212.5830  155.6700 C   0  0  0  0  0  2  0  0  0  0  0  0
  158.2650  211.6740  153.8870 O   0  0  0  0  0  0  0  0  0  0  0  0
  157.3730  213.5550  155.0440 C   0  0  0  0  0  1  0  0  0  0  0  0
  160.4680  211.8540  154.7330 C   0  0  0  0  0  2  0  0  0  0  0  0
  158.1710  212.2670  155.1620 C   0  0  2  0  0  0  0  0  0  0  0  0
  157.4650  211.2790  156.1000 C   0  0  0  0  0  2  0  0  0  0  0  0
  155.9560  211.4860  156.2010 C   0  0  0  0  0  2  0  0  0  0  0  0
  155.2810  210.3550  155.7390 O   0  0  0  0  0  0  0  0  0  0  0  0
  155.2150  210.5220  154.4360 O   0  0  0  0  0  1  0  0  0  0  0  0
  2  4  1  0  0  0  0
  2  5  2  0  0  0  0
  3 21  1  0  0  0  0
  3  6  1  0  0  0  0
  4  3  2  0  0  0  0
  5  7  1  0  0  0  0
  7  6  1  0  0  0  0
  7  1  2  0  0  0  0
  8 10  2  0  0  0  0
  9 10  1  0  0  0  0
 10  2  1  0  0  0  0
 11 17  1  6  0  0  0
 11  9  1  0  0  0  0
 12 16  1  0  0  0  0
 13 11  1  0  0  0  0
 13 16  1  0  0  0  0
 14 12  2  0  0  0  0
 15 14  1  0  0  0  0
 15 13  2  0  0  0  0
 18 17  1  0  0  0  0
 20 19  2  0  0  0  0
 20  5  1  0  0  0  0
 21 22  1  0  0  0  0
 23 22  1  0  0  0  0
 24 23  1  1  0  0  0
 24 26  1  0  0  0  0
 24 28  1  0  0  0  0
 26 29  1  0  0  0  0
 28 25  1  0  0  0  0
 29 27  1  6  0  0  0
 29 25  1  0  0  0  0
 29 30  1  0  0  0  0
 30 31  1  0  0  0  0
 32 31  1  0  0  0  0
 33 32  1  0  0  0  0
M  END
>  <MODEL>
8

>  <REMARK>
 VINA RESULT:      -6.7      3.146      9.978
  Name = 
  12 active torsions:
  status: ('A' for Active; 'I' for Inactive)
    1  A    between atoms: C_1  and  C_9
    2  A    between atoms: C_1  and  C_10
    3  A    between atoms: C_5  and  C_14
    4  A    between atoms: N_6  and  C_14
    5  A    between atoms: C_7  and  C_10
    6  A    between atoms: C_7  and  C_13
    7  A    between atoms: C_8  and  C_16
    8  A    between atoms: C_8  and  C_26
    9  A    between atoms: N_11  and  C_17
   10  A    between atoms: C_12  and  C_19
   11  A    between atoms: C_14  and  C_28
   12  A    between atoms: C_16  and  O_27
                            x       y       z     vdW  Elec       q    Type
                         _______ _______ _______ _____ _____    ______ ____

>  <TORSDO>
F 12

$$$$
=
 OpenBabel11072412303D

 33 35  0  0  1  0  0  0  0  0999 V2000
  162.1460  209.0030  150.0330 O   0  0  0  0  0  0  0  0  0  0  0  0
  161.0880  208.3790  153.4070 C   0  0  0  0  0  0  0  0  0  0  0  0
  161.3220  206.2210  152.2160 C   0  0  0  0  0  0  0  0  0  0  0  0
  160.9330  206.9110  153.2900 C   0  0  0  0  0  3  0  0  0  0  0  0
  161.5460  209.0930  152.3490 C   0  0  0  0  0  0  0  0  0  0  0  0
  162.0490  206.8800  151.0810 C   0  0  0  0  0  2  0  0  0  0  0  0
  161.9120  208.3720  151.0960 C   0  0  0  0  0  0  0  0  0  0  0  0
  161.3410  208.6890  155.7480 O   0  0  0  0  0  0  0  0  0  0  0  0
  159.6030  209.9090  154.8060 N   0  0  0  0  0  2  0  0  0  0  0  0
  160.6920  208.9850  154.7080 C   0  0  0  0  0  0  0  0  0  0  0  0
  159.1860  210.5160  156.0640 C   0  0  2  0  0  3  0  0  0  0  0  0
  155.8390  211.3560  155.2040 C   0  0  0  0  0  3  0  0  0  0  0  0
  157.7750  211.0040  155.9660 C   0  0  0  0  0  0  0  0  0  0  0  0
  155.8490  211.9490  156.4170 N   0  0  0  0  0  0  0  0  0  0  0  0
  157.0830  211.7280  156.9120 C   0  0  0  0  0  3  0  0  0  0  0  0
  156.9940  210.7900  154.9390 O   0  0  0  0  0  0  0  0  0  0  0  0
  160.1090  211.6710  156.4170 C   0  0  0  0  0  2  0  0  0  0  0  0
  160.0820  212.7220  155.3250 C   0  0  0  0  0  1  0  0  0  0  0  0
  160.7730  211.3120  151.9620 N   0  0  0  0  0  2  0  0  0  0  0  0
  161.6520  210.5240  152.4320 N   0  0  0  0  0  0  0  0  0  0  0  0
  161.1500  204.7410  152.1910 C   0  0  0  0  0  2  0  0  0  0  0  0
  161.4180  204.1990  150.7970 C   0  0  0  0  0  2  0  0  0  0  0  0
  160.5310  204.8950  149.7780 C   0  0  0  0  0  2  0  0  0  0  0  0
  161.3430  205.3640  148.5800 C   0  0  1  0  0  3  0  0  0  0  0  0
  161.0830  205.8710  146.3150 C   0  0  0  0  0  2  0  0  0  0  0  0
  161.8750  204.2590  147.8880 O   0  0  0  0  0  0  0  0  0  0  0  0
  163.2360  204.6870  145.9820 C   0  0  0  0  0  1  0  0  0  0  0  0
  160.4630  206.1440  147.6440 C   0  0  0  0  0  2  0  0  0  0  0  0
  161.8180  204.5570  146.5120 C   0  0  2  0  0  0  0  0  0  0  0  0
  161.0800  203.4140  145.8030 C   0  0  0  0  0  2  0  0  0  0  0  0
  161.2050  202.0630  146.5040 C   0  0  0  0  0  2  0  0  0  0  0  0
  160.4730  201.0940  145.8170 O   0  0  0  0  0  0  0  0  0  0  0  0
  159.9730  201.7320  144.7820 O   0  0  0  0  0  1  0  0  0  0  0  0
  1  7  2  0  0  0  0
  2 10  1  0  0  0  0
  3  4  2  0  0  0  0
  4  2  1  0  0  0  0
  5 20  1  0  0  0  0
  5  2  2  0  0  0  0
  6  7  1  0  0  0  0
  6  3  1  0  0  0  0
  7  5  1  0  0  0  0
  9 11  1  0  0  0  0
 10  9  1  0  0  0  0
 10  8  2  0  0  0  0
 11 17  1  6  0  0  0
 12 14  2  0  0  0  0
 13 11  1  0  0  0  0
 13 15  2  0  0  0  0
 14 15  1  0  0  0  0
 16 12  1  0  0  0  0
 16 13  1  0  0  0  0
 18 17  1  0  0  0  0
 19 20  2  0  0  0  0
 21  3  1  0  0  0  0
 22 21  1  0  0  0  0
 23 22  1  0  0  0  0
 24 23  1  1  0  0  0
 25 29  1  0  0  0  0
 25 28  1  0  0  0  0
 26 24  1  0  0  0  0
 28 24  1  0  0  0  0
 29 27  1  6  0  0  0
 29 26  1  0  0  0  0
 30 31  1  0  0  0  0
 30 29  1  0  0  0  0
 32 31  1  0  0  0  0
 33 32  1  0  0  0  0
M  END
>  <MODEL>
9

>  <REMARK>
 VINA RESULT:      -6.7      2.308      3.936
  Name = 
  12 active torsions:
  status: ('A' for Active; 'I' for Inactive)
    1  A    between atoms: C_1  and  C_9
    2  A    between atoms: C_1  and  C_10
    3  A    between atoms: C_5  and  C_14
    4  A    between atoms: N_6  and  C_14
    5  A    between atoms: C_7  and  C_10
    6  A    between atoms: C_7  and  C_13
    7  A    between atoms: C_8  and  C_16
    8  A    between atoms: C_8  and  C_26
    9  A    between atoms: N_11  and  C_17
   10  A    between atoms: C_12  and  C_19
   11  A    between atoms: C_14  and  C_28
   12  A    between atoms: C_16  and  O_27
                            x       y       z     vdW  Elec       q    Type
                         _______ _______ _______ _____ _____    ______ ____

>  <TORSDO>
F 12

$$$$
