=
 OpenBabel11072412133D

 31 34  0  0  1  0  0  0  0  0999 V2000
  162.1320  209.2070  151.3490 C   0  0  1  0  0  3  0  0  0  0  0  0
  161.4310  206.7730  152.5490 N   0  0  0  0  0  0  0  0  0  0  0  0
  160.9460  209.1580  152.3160 C   0  0  1  0  0  3  0  0  0  0  0  0
  162.0700  209.3880  149.0080 N   0  0  0  0  0  0  0  0  0  0  0  0
  162.2820  207.8930  150.6760 C   0  0  2  0  0  3  0  0  0  0  0  0
  160.9720  207.8620  153.1090 C   0  0  0  0  0  0  0  0  0  0  0  0
  161.8960  210.0900  150.2110 N   0  0  0  0  0  2  0  0  0  0  0  0
  162.2970  208.1410  149.2540 C   0  0  0  0  0  0  0  0  0  0  0  0
  161.9340  206.7750  151.2330 N   0  0  0  0  0  2  0  0  0  0  0  0
  162.0000  210.6620  153.8470 O   0  0  0  0  0  0  0  0  0  0  0  0
  160.9500  210.3680  153.2100 C   0  0  0  0  0  0  0  0  0  0  0  0
  159.4160  212.0630  152.4050 C   0  0  0  0  0  0  0  0  0  0  0  0
  159.0960  212.8610  151.5140 O   0  0  0  0  0  0  0  0  0  0  0  0
  159.7510  211.2180  153.3460 C   0  0  0  0  0  0  0  0  0  0  0  0
  158.8770  211.0930  154.5550 C   0  0  0  0  0  2  0  0  0  0  0  0
  158.2470  212.4240  154.9480 C   0  0  0  0  0  2  0  0  0  0  0  0
  155.6480  213.0820  153.9080 O   0  0  0  0  0  0  0  0  0  0  0  0
  156.4470  212.2650  155.1550 P   0  0  0  0  0  0  0  0  0  0  0  0
  155.9870  212.9160  156.6460 O   0  0  0  0  0  1  0  0  0  0  0  0
  156.0710  210.8020  155.1100 O   0  0  0  0  0  1  0  0  0  0  0  0
  160.4530  207.8280  154.4070 O   0  0  0  0  0  0  0  0  0  0  0  0
  161.2760  207.6420  155.5490 C   0  0  0  0  0  1  0  0  0  0  0  0
  162.4680  207.1670  148.2720 O   0  0  0  0  0  0  0  0  0  0  0  0
  161.3670  206.5990  147.5790 C   0  0  0  0  0  2  0  0  0  0  0  0
  161.3970  205.0880  147.7220 C   0  0  0  0  0  2  0  0  0  0  0  0
  160.6150  204.7010  148.8120 O   0  0  0  0  0  0  0  0  0  0  0  0
  161.3640  203.7150  149.4560 C   0  0  0  0  0  2  0  0  0  0  0  0
  161.0820  201.2830  149.9560 C   0  0  2  0  0  3  0  0  0  0  0  0
  160.4320  202.6530  150.0140 C   0  0  2  0  0  3  0  0  0  0  0  0
  161.2410  200.8450  148.5110 C   0  0  0  0  0  2  0  0  0  0  0  0
  160.0370  201.6660  148.9320 C   0  0  1  0  0  3  0  0  0  0  0  0
  1  7  1  6  0  0  0
  1  3  1  0  0  0  0
  2  6  2  0  0  0  0
  3  6  1  0  0  0  0
  3 11  1  1  0  0  0
  4  8  2  0  0  0  0
  4  7  1  0  0  0  0
  5  8  1  6  0  0  0
  5  9  1  0  0  0  0
  5  1  1  0  0  0  0
  6 21  1  0  0  0  0
  9  2  1  0  0  0  0
 11 14  1  0  0  0  0
 11 10  2  0  0  0  0
 12 14  2  0  0  0  0
 13 12  2  0  0  0  0
 14 15  1  0  0  0  0
 15 16  1  0  0  0  0
 16 18  1  0  0  0  0
 17 18  2  0  0  0  0
 18 19  1  0  0  0  0
 20 18  1  0  0  0  0
 21 22  1  0  0  0  0
 23  8  1  0  0  0  0
 24 25  1  0  0  0  0
 24 23  1  0  0  0  0
 25 26  1  0  0  0  0
 26 27  1  0  0  0  0
 28 30  1  6  0  0  0
 28 29  1  0  0  0  0
 29 27  1  6  0  0  0
 31 30  1  6  0  0  0
 31 28  1  0  0  0  0
 31 29  1  0  0  0  0
M  END
>  <MODEL>
1

>  <REMARK>
 VINA RESULT:      -7.0      0.000      0.000
  Name = 
  12 active torsions:
  status: ('A' for Active; 'I' for Inactive)
    1  A    between atoms: O_1  and  C_5
    2  A    between atoms: O_1  and  C_12
    3  A    between atoms: P_3  and  C_13
    4  A    between atoms: C_5  and  C_18
    5  A    between atoms: C_7  and  C_26
    6  A    between atoms: C_12  and  C_20
    7  A    between atoms: C_13  and  C_16
    8  A    between atoms: O_14  and  C_18
    9  A    between atoms: O_14  and  C_27
   10  A    between atoms: C_16  and  C_30
   11  A    between atoms: O_21  and  C_23
   12  A    between atoms: C_26  and  C_30
                            x       y       z     vdW  Elec       q    Type
                         _______ _______ _______ _____ _____    ______ ____

>  <TORSDO>
F 12

$$$$
=
 OpenBabel11072412133D

 31 34  0  0  1  0  0  0  0  0999 V2000
  161.7750  208.0890  152.0920 C   0  0  1  0  0  3  0  0  0  0  0  0
  161.2020  206.5670  154.3760 N   0  0  0  0  0  0  0  0  0  0  0  0
  160.8160  208.6460  153.1470 C   0  0  1  0  0  3  0  0  0  0  0  0
  161.2370  207.2220  149.9760 N   0  0  0  0  0  0  0  0  0  0  0  0
  161.7070  206.6060  152.0880 C   0  0  2  0  0  3  0  0  0  0  0  0
  160.9330  207.8460  154.4340 C   0  0  0  0  0  0  0  0  0  0  0  0
  161.3580  208.4010  150.7290 N   0  0  0  0  0  2  0  0  0  0  0  0
  161.4390  206.1940  150.7310 C   0  0  0  0  0  0  0  0  0  0  0  0
  161.4190  205.9140  153.1460 N   0  0  0  0  0  2  0  0  0  0  0  0
  162.2460  210.4970  153.6370 O   0  0  0  0  0  0  0  0  0  0  0  0
  161.0750  210.1110  153.3670 C   0  0  0  0  0  0  0  0  0  0  0  0
  159.9760  211.9930  152.3070 C   0  0  0  0  0  0  0  0  0  0  0  0
  159.9650  212.8360  151.4000 O   0  0  0  0  0  0  0  0  0  0  0  0
  159.9850  211.1010  153.2640 C   0  0  0  0  0  0  0  0  0  0  0  0
  158.8490  211.0700  154.2380 C   0  0  0  0  0  2  0  0  0  0  0  0
  157.7900  212.1180  153.9200 C   0  0  0  0  0  2  0  0  0  0  0  0
  155.4440  210.6390  154.6810 O   0  0  0  0  0  0  0  0  0  0  0  0
  156.3790  211.9960  155.0620 P   0  0  0  0  0  0  0  0  0  0  0  0
  155.4300  213.3910  154.9410 O   0  0  0  0  0  1  0  0  0  0  0  0
  156.8960  211.8620  156.4750 O   0  0  0  0  0  1  0  0  0  0  0  0
  160.6950  208.4650  155.6650 O   0  0  0  0  0  0  0  0  0  0  0  0
  161.6990  208.5830  156.6620 C   0  0  0  0  0  1  0  0  0  0  0  0
  161.3460  204.8730  150.2970 O   0  0  0  0  0  0  0  0  0  0  0  0
  160.7830  204.5350  149.0380 C   0  0  0  0  0  2  0  0  0  0  0  0
  161.0590  203.0740  148.7310 C   0  0  0  0  0  2  0  0  0  0  0  0
  161.3970  202.9300  147.3840 O   0  0  0  0  0  0  0  0  0  0  0  0
  161.9430  204.1610  147.0200 C   0  0  0  0  0  2  0  0  0  0  0  0
  161.8870  205.5830  144.9660 C   0  0  2  0  0  3  0  0  0  0  0  0
  162.1620  204.1960  145.5170 C   0  0  2  0  0  3  0  0  0  0  0  0
  160.4090  205.9060  145.0840 C   0  0  0  0  0  2  0  0  0  0  0  0
  160.8600  204.4860  144.7940 C   0  0  1  0  0  3  0  0  0  0  0  0
  1  7  1  6  0  0  0
  1  3  1  0  0  0  0
  2  6  2  0  0  0  0
  3 11  1  1  0  0  0
  3  6  1  0  0  0  0
  4  7  1  0  0  0  0
  4  8  2  0  0  0  0
  5  8  1  6  0  0  0
  5  1  1  0  0  0  0
  5  9  1  0  0  0  0
  6 21  1  0  0  0  0
  9  2  1  0  0  0  0
 11 10  2  0  0  0  0
 12 14  2  0  0  0  0
 13 12  2  0  0  0  0
 14 11  1  0  0  0  0
 14 15  1  0  0  0  0
 16 15  1  0  0  0  0
 16 18  1  0  0  0  0
 17 18  2  0  0  0  0
 18 20  1  0  0  0  0
 19 18  1  0  0  0  0
 21 22  1  0  0  0  0
 23  8  1  0  0  0  0
 24 23  1  0  0  0  0
 25 24  1  0  0  0  0
 26 25  1  0  0  0  0
 27 26  1  0  0  0  0
 28 30  1  1  0  0  0
 28 29  1  0  0  0  0
 29 27  1  1  0  0  0
 31 28  1  0  0  0  0
 31 30  1  1  0  0  0
 31 29  1  0  0  0  0
M  END
>  <MODEL>
2

>  <REMARK>
 VINA RESULT:      -6.7      1.558      2.679
  Name = 
  12 active torsions:
  status: ('A' for Active; 'I' for Inactive)
    1  A    between atoms: O_1  and  C_5
    2  A    between atoms: O_1  and  C_12
    3  A    between atoms: P_3  and  C_13
    4  A    between atoms: C_5  and  C_18
    5  A    between atoms: C_7  and  C_26
    6  A    between atoms: C_12  and  C_20
    7  A    between atoms: C_13  and  C_16
    8  A    between atoms: O_14  and  C_18
    9  A    between atoms: O_14  and  C_27
   10  A    between atoms: C_16  and  C_30
   11  A    between atoms: O_21  and  C_23
   12  A    between atoms: C_26  and  C_30
                            x       y       z     vdW  Elec       q    Type
                         _______ _______ _______ _____ _____    ______ ____

>  <TORSDO>
F 12

$$$$
=
 OpenBabel11072412133D

 31 34  0  0  1  0  0  0  0  0999 V2000
  160.7560  207.5420  152.3500 C   0  0  1  0  0  3  0  0  0  0  0  0
  162.2080  208.2890  150.0720 N   0  0  0  0  0  0  0  0  0  0  0  0
  161.6030  208.8170  152.3820 C   0  0  1  0  0  3  0  0  0  0  0  0
  161.2220  205.4830  153.3790 N   0  0  0  0  0  0  0  0  0  0  0  0
  161.3590  206.5640  151.4110 C   0  0  2  0  0  3  0  0  0  0  0  0
  161.9970  209.2170  150.9700 C   0  0  0  0  0  0  0  0  0  0  0  0
  160.8020  206.8020  153.6080 N   0  0  0  0  0  2  0  0  0  0  0  0
  161.5350  205.3280  152.1360 C   0  0  0  0  0  0  0  0  0  0  0  0
  162.0480  206.9220  150.3720 N   0  0  0  0  0  2  0  0  0  0  0  0
  160.1170  210.6890  152.4340 O   0  0  0  0  0  0  0  0  0  0  0  0
  160.8650  209.9160  153.0950 C   0  0  0  0  0  0  0  0  0  0  0  0
  162.1270  210.4990  155.0820 C   0  0  0  0  0  0  0  0  0  0  0  0
  163.1940  210.8780  155.5820 O   0  0  0  0  0  0  0  0  0  0  0  0
  160.9970  210.1000  154.5540 C   0  0  0  0  0  0  0  0  0  0  0  0
  159.8200  209.8670  155.4480 C   0  0  0  0  0  2  0  0  0  0  0  0
  159.4940  211.0880  156.2990 C   0  0  0  0  0  2  0  0  0  0  0  0
  157.3350  211.3720  154.4200 O   0  0  0  0  0  0  0  0  0  0  0  0
  158.4010  212.2380  155.4080 P   0  0  0  0  0  0  0  0  0  0  0  0
  159.3300  213.2850  154.4590 O   0  0  0  0  0  1  0  0  0  0  0  0
  157.6060  213.0420  156.4100 O   0  0  0  0  0  1  0  0  0  0  0  0
  162.1880  210.5660  150.6540 O   0  0  0  0  0  0  0  0  0  0  0  0
  161.9940  211.0740  149.3430 C   0  0  0  0  0  1  0  0  0  0  0  0
  162.0320  204.1450  151.5940 O   0  0  0  0  0  0  0  0  0  0  0  0
  161.1760  203.1490  151.0540 C   0  0  0  0  0  2  0  0  0  0  0  0
  160.8390  203.4900  149.6140 C   0  0  0  0  0  2  0  0  0  0  0  0
  161.0410  202.3720  148.8030 O   0  0  0  0  0  0  0  0  0  0  0  0
  161.3170  202.8940  147.5380 C   0  0  0  0  0  2  0  0  0  0  0  0
  161.2430  205.1250  146.4170 C   0  0  2  0  0  3  0  0  0  0  0  0
  161.6660  204.3670  147.6610 C   0  0  2  0  0  3  0  0  0  0  0  0
  162.0860  204.6910  145.2320 C   0  0  0  0  0  2  0  0  0  0  0  0
  162.6960  204.7600  146.6190 C   0  0  1  0  0  3  0  0  0  0  0  0
  1  3  1  0  0  0  0
  1  7  1  1  0  0  0
  2  9  1  0  0  0  0
  2  6  2  0  0  0  0
  3 11  1  6  0  0  0
  4  7  1  0  0  0  0
  5  9  1  1  0  0  0
  5  8  1  0  0  0  0
  5  1  1  0  0  0  0
  6  3  1  0  0  0  0
  8  4  2  0  0  0  0
 10 11  2  0  0  0  0
 11 14  1  0  0  0  0
 12 13  2  0  0  0  0
 14 12  2  0  0  0  0
 14 15  1  0  0  0  0
 15 16  1  0  0  0  0
 17 18  2  0  0  0  0
 18 16  1  0  0  0  0
 18 20  1  0  0  0  0
 19 18  1  0  0  0  0
 21  6  1  0  0  0  0
 22 21  1  0  0  0  0
 23  8  1  0  0  0  0
 24 23  1  0  0  0  0
 25 24  1  0  0  0  0
 26 25  1  0  0  0  0
 27 26  1  0  0  0  0
 28 30  1  6  0  0  0
 28 31  1  0  0  0  0
 28 29  1  0  0  0  0
 29 27  1  6  0  0  0
 31 30  1  6  0  0  0
 31 29  1  0  0  0  0
M  END
>  <MODEL>
3

>  <REMARK>
 VINA RESULT:      -6.6      1.987      3.731
  Name = 
  12 active torsions:
  status: ('A' for Active; 'I' for Inactive)
    1  A    between atoms: O_1  and  C_5
    2  A    between atoms: O_1  and  C_12
    3  A    between atoms: P_3  and  C_13
    4  A    between atoms: C_5  and  C_18
    5  A    between atoms: C_7  and  C_26
    6  A    between atoms: C_12  and  C_20
    7  A    between atoms: C_13  and  C_16
    8  A    between atoms: O_14  and  C_18
    9  A    between atoms: O_14  and  C_27
   10  A    between atoms: C_16  and  C_30
   11  A    between atoms: O_21  and  C_23
   12  A    between atoms: C_26  and  C_30
                            x       y       z     vdW  Elec       q    Type
                         _______ _______ _______ _____ _____    ______ ____

>  <TORSDO>
F 12

$$$$
=
 OpenBabel11072412133D

 31 34  0  0  1  0  0  0  0  0999 V2000
  160.6600  207.8380  152.0950 C   0  0  1  0  0  3  0  0  0  0  0  0
  161.5950  205.4600  153.2490 N   0  0  0  0  0  0  0  0  0  0  0  0
  161.5380  206.8940  151.2680 C   0  0  1  0  0  3  0  0  0  0  0  0
  161.2700  209.8920  153.0570 N   0  0  0  0  0  0  0  0  0  0  0  0
  161.0050  207.7100  153.5330 C   0  0  2  0  0  3  0  0  0  0  0  0
  161.6220  205.5350  151.9430 C   0  0  0  0  0  0  0  0  0  0  0  0
  160.9590  209.2460  151.8500 N   0  0  0  0  0  2  0  0  0  0  0  0
  161.2930  209.0370  154.0230 C   0  0  0  0  0  0  0  0  0  0  0  0
  161.4580  206.6110  154.0510 N   0  0  0  0  0  2  0  0  0  0  0  0
  159.9270  206.1960  149.6460 O   0  0  0  0  0  0  0  0  0  0  0  0
  161.0170  206.7950  149.8610 C   0  0  0  0  0  0  0  0  0  0  0  0
  161.9780  208.6820  148.6810 C   0  0  0  0  0  0  0  0  0  0  0  0
  162.1890  209.9010  148.6330 O   0  0  0  0  0  0  0  0  0  0  0  0
  161.7560  207.3930  148.7320 C   0  0  0  0  0  0  0  0  0  0  0  0
  162.2990  206.5200  147.6450 C   0  0  0  0  0  2  0  0  0  0  0  0
  161.1940  205.9310  146.7760 C   0  0  0  0  0  2  0  0  0  0  0  0
  161.5320  205.4730  143.9570 O   0  0  0  0  0  0  0  0  0  0  0  0
  161.8790  204.8440  145.4880 P   0  0  0  0  0  0  0  0  0  0  0  0
  161.2040  203.2990  145.6320 O   0  0  0  0  0  1  0  0  0  0  0  0
  163.3760  204.7540  145.6600 O   0  0  0  0  0  1  0  0  0  0  0  0
  161.7870  204.3820  151.1700 O   0  0  0  0  0  0  0  0  0  0  0  0
  161.2190  203.1330  151.5380 C   0  0  0  0  0  1  0  0  0  0  0  0
  161.6160  209.3520  155.3410 O   0  0  0  0  0  0  0  0  0  0  0  0
  162.2100  210.5930  155.6920 C   0  0  0  0  0  2  0  0  0  0  0  0
  161.2040  211.4490  156.4380 C   0  0  0  0  0  2  0  0  0  0  0  0
  160.4640  212.2090  155.5310 O   0  0  0  0  0  0  0  0  0  0  0  0
  159.1450  212.1160  155.9790 C   0  0  0  0  0  2  0  0  0  0  0  0
  157.5010  211.6390  154.1600 C   0  0  2  0  0  3  0  0  0  0  0  0
  158.4190  211.0300  155.2030 C   0  0  2  0  0  3  0  0  0  0  0  0
  156.3570  212.3710  154.8380 C   0  0  0  0  0  2  0  0  0  0  0  0
  156.9250  211.1050  155.4520 C   0  0  1  0  0  3  0  0  0  0  0  0
  1  7  1  6  0  0  0
  1  5  1  0  0  0  0
  2  9  1  0  0  0  0
  3 11  1  6  0  0  0
  3  6  1  0  0  0  0
  3  1  1  0  0  0  0
  4  8  2  0  0  0  0
  5  8  1  6  0  0  0
  5  9  1  0  0  0  0
  6  2  2  0  0  0  0
  7  4  1  0  0  0  0
  8 23  1  0  0  0  0
 10 11  2  0  0  0  0
 12 14  2  0  0  0  0
 13 12  2  0  0  0  0
 14 11  1  0  0  0  0
 15 14  1  0  0  0  0
 16 15  1  0  0  0  0
 17 18  2  0  0  0  0
 18 19  1  0  0  0  0
 18 20  1  0  0  0  0
 18 16  1  0  0  0  0
 21 22  1  0  0  0  0
 21  6  1  0  0  0  0
 23 24  1  0  0  0  0
 24 25  1  0  0  0  0
 26 27  1  0  0  0  0
 26 25  1  0  0  0  0
 28 30  1  1  0  0  0
 28 29  1  0  0  0  0
 28 31  1  0  0  0  0
 29 31  1  0  0  0  0
 29 27  1  1  0  0  0
 31 30  1  1  0  0  0
M  END
>  <MODEL>
4

>  <REMARK>
 VINA RESULT:      -6.5      3.499      8.704
  Name = 
  12 active torsions:
  status: ('A' for Active; 'I' for Inactive)
    1  A    between atoms: O_1  and  C_5
    2  A    between atoms: O_1  and  C_12
    3  A    between atoms: P_3  and  C_13
    4  A    between atoms: C_5  and  C_18
    5  A    between atoms: C_7  and  C_26
    6  A    between atoms: C_12  and  C_20
    7  A    between atoms: C_13  and  C_16
    8  A    between atoms: O_14  and  C_18
    9  A    between atoms: O_14  and  C_27
   10  A    between atoms: C_16  and  C_30
   11  A    between atoms: O_21  and  C_23
   12  A    between atoms: C_26  and  C_30
                            x       y       z     vdW  Elec       q    Type
                         _______ _______ _______ _____ _____    ______ ____

>  <TORSDO>
F 12

$$$$
=
 OpenBabel11072412133D

 31 34  0  0  1  0  0  0  0  0999 V2000
  161.4100  207.6120  153.7960 C   0  0  1  0  0  3  0  0  0  0  0  0
  161.1830  209.9020  152.1950 N   0  0  0  0  0  0  0  0  0  0  0  0
  161.0760  207.4610  152.3090 C   0  0  1  0  0  3  0  0  0  0  0  0
  159.9630  207.3490  155.6270 N   0  0  0  0  0  0  0  0  0  0  0  0
  160.8890  208.9080  154.2960 C   0  0  2  0  0  3  0  0  0  0  0  0
  161.3580  208.7620  151.5770 C   0  0  0  0  0  0  0  0  0  0  0  0
  160.6850  206.6640  154.6370 N   0  0  0  0  0  2  0  0  0  0  0  0
  160.0730  208.6230  155.4530 C   0  0  0  0  0  0  0  0  0  0  0  0
  160.7670  209.9550  153.5400 N   0  0  0  0  0  2  0  0  0  0  0  0
  163.0870  206.2470  151.8660 O   0  0  0  0  0  0  0  0  0  0  0  0
  161.8340  206.3050  151.7190 C   0  0  0  0  0  0  0  0  0  0  0  0
  160.9930  204.0420  151.4970 C   0  0  0  0  0  0  0  0  0  0  0  0
  160.8560  202.9130  151.9870 O   0  0  0  0  0  0  0  0  0  0  0  0
  161.1360  205.2350  150.9780 C   0  0  0  0  0  0  0  0  0  0  0  0
  160.5450  205.5180  149.6330 C   0  0  0  0  0  2  0  0  0  0  0  0
  161.1560  204.6460  148.5430 C   0  0  0  0  0  2  0  0  0  0  0  0
  162.6280  206.9740  147.7140 O   0  0  0  0  0  1  0  0  0  0  0  0
  161.7390  205.6530  147.1440 P   0  0  0  0  0  0  0  0  0  0  0  0
  160.4130  206.2050  146.2500 O   0  0  0  0  0  0  0  0  0  0  0  0
  162.6210  204.8060  146.2580 O   0  0  0  0  0  1  0  0  0  0  0  0
  161.7450  208.7370  150.2330 O   0  0  0  0  0  0  0  0  0  0  0  0
  162.0860  209.9150  149.5180 C   0  0  0  0  0  1  0  0  0  0  0  0
  159.4380  209.5800  156.2420 O   0  0  0  0  0  0  0  0  0  0  0  0
  160.1320  210.3080  157.2440 C   0  0  0  0  0  2  0  0  0  0  0  0
  159.7790  211.7810  157.1430 C   0  0  0  0  0  2  0  0  0  0  0  0
  160.1450  212.2700  155.8870 O   0  0  0  0  0  0  0  0  0  0  0  0
  159.1250  213.1560  155.5390 C   0  0  0  0  0  2  0  0  0  0  0  0
  157.1900  213.1160  153.9580 C   0  0  2  0  0  3  0  0  0  0  0  0
  158.6820  212.8860  154.1110 C   0  0  2  0  0  3  0  0  0  0  0  0
  156.4200  212.0670  154.7390 C   0  0  0  0  0  2  0  0  0  0  0  0
  157.7290  211.7070  154.0620 C   0  0  1  0  0  3  0  0  0  0  0  0
  1  5  1  0  0  0  0
  1  7  1  1  0  0  0
  2  9  1  0  0  0  0
  3 11  1  6  0  0  0
  3  1  1  0  0  0  0
  5  9  1  6  0  0  0
  5  8  1  0  0  0  0
  6  2  2  0  0  0  0
  6  3  1  0  0  0  0
  7  4  1  0  0  0  0
  8  4  2  0  0  0  0
  8 23  1  0  0  0  0
 11 10  2  0  0  0  0
 12 13  2  0  0  0  0
 14 12  2  0  0  0  0
 14 11  1  0  0  0  0
 15 14  1  0  0  0  0
 16 15  1  0  0  0  0
 18 17  1  0  0  0  0
 18 16  1  0  0  0  0
 19 18  2  0  0  0  0
 20 18  1  0  0  0  0
 21  6  1  0  0  0  0
 22 21  1  0  0  0  0
 23 24  1  0  0  0  0
 25 24  1  0  0  0  0
 26 25  1  0  0  0  0
 27 26  1  0  0  0  0
 28 31  1  0  0  0  0
 28 29  1  0  0  0  0
 28 30  1  1  0  0  0
 29 27  1  1  0  0  0
 31 29  1  0  0  0  0
 31 30  1  1  0  0  0
M  END
>  <MODEL>
5

>  <REMARK>
 VINA RESULT:      -6.4      3.334      8.877
  Name = 
  12 active torsions:
  status: ('A' for Active; 'I' for Inactive)
    1  A    between atoms: O_1  and  C_5
    2  A    between atoms: O_1  and  C_12
    3  A    between atoms: P_3  and  C_13
    4  A    between atoms: C_5  and  C_18
    5  A    between atoms: C_7  and  C_26
    6  A    between atoms: C_12  and  C_20
    7  A    between atoms: C_13  and  C_16
    8  A    between atoms: O_14  and  C_18
    9  A    between atoms: O_14  and  C_27
   10  A    between atoms: C_16  and  C_30
   11  A    between atoms: O_21  and  C_23
   12  A    between atoms: C_26  and  C_30
                            x       y       z     vdW  Elec       q    Type
                         _______ _______ _______ _____ _____    ______ ____

>  <TORSDO>
F 12

$$$$
=
 OpenBabel11072412133D

 31 34  0  0  1  0  0  0  0  0999 V2000
  160.9840  207.7260  152.6270 C   0  0  1  0  0  3  0  0  0  0  0  0
  161.7650  208.4370  150.0300 N   0  0  0  0  0  0  0  0  0  0  0  0
  161.9460  208.9010  152.4250 C   0  0  1  0  0  3  0  0  0  0  0  0
  161.4890  205.5760  153.4250 N   0  0  0  0  0  0  0  0  0  0  0  0
  161.1580  206.7430  151.5300 C   0  0  2  0  0  3  0  0  0  0  0  0
  161.9440  209.3320  150.9680 C   0  0  0  0  0  0  0  0  0  0  0  0
  161.3170  206.9190  153.7970 N   0  0  0  0  0  2  0  0  0  0  0  0
  161.3960  205.4570  152.1430 C   0  0  0  0  0  0  0  0  0  0  0  0
  161.5420  207.0800  150.3390 N   0  0  0  0  0  2  0  0  0  0  0  0
  162.5160  210.6980  153.8940 O   0  0  0  0  0  0  0  0  0  0  0  0
  161.5920  210.0320  153.3500 C   0  0  0  0  0  0  0  0  0  0  0  0
  159.6440  210.1290  154.7900 C   0  0  0  0  0  0  0  0  0  0  0  0
  159.1340  209.8960  155.8940 O   0  0  0  0  0  0  0  0  0  0  0  0
  160.1830  210.3790  153.6240 C   0  0  0  0  0  0  0  0  0  0  0  0
  159.3610  211.0600  152.5750 C   0  0  0  0  0  2  0  0  0  0  0  0
  159.4800  212.5780  152.6480 C   0  0  0  0  0  2  0  0  0  0  0  0
  158.4570  214.4180  154.6070 O   0  0  0  0  0  1  0  0  0  0  0  0
  158.0010  213.3190  153.4050 P   0  0  0  0  0  0  0  0  0  0  0  0
  157.0410  212.1030  154.0840 O   0  0  0  0  0  1  0  0  0  0  0  0
  157.2120  214.0450  152.3420 O   0  0  0  0  0  0  0  0  0  0  0  0
  162.1900  210.6680  150.6350 O   0  0  0  0  0  0  0  0  0  0  0  0
  161.9560  211.1820  149.3330 C   0  0  0  0  0  1  0  0  0  0  0  0
  161.5640  204.2590  151.4530 O   0  0  0  0  0  0  0  0  0  0  0  0
  160.4730  203.5810  150.8480 C   0  0  0  0  0  2  0  0  0  0  0  0
  160.8550  203.1490  149.4440 C   0  0  0  0  0  2  0  0  0  0  0  0
  161.5740  204.1680  148.8150 O   0  0  0  0  0  0  0  0  0  0  0  0
  161.5630  203.8280  147.4620 C   0  0  0  0  0  2  0  0  0  0  0  0
  161.3210  205.5910  145.7070 C   0  0  2  0  0  3  0  0  0  0  0  0
  162.2790  204.9030  146.6620 C   0  0  2  0  0  3  0  0  0  0  0  0
  160.8820  204.6220  144.6250 C   0  0  0  0  0  2  0  0  0  0  0  0
  162.2900  204.5530  145.1860 C   0  0  1  0  0  3  0  0  0  0  0  0
  1  7  1  1  0  0  0
  2  9  1  0  0  0  0
  2  6  2  0  0  0  0
  3  1  1  0  0  0  0
  3 11  1  1  0  0  0
  4  7  1  0  0  0  0
  5  9  1  6  0  0  0
  5  8  1  0  0  0  0
  5  1  1  0  0  0  0
  6  3  1  0  0  0  0
  8  4  2  0  0  0  0
 11 14  1  0  0  0  0
 11 10  2  0  0  0  0
 12 13  2  0  0  0  0
 14 12  2  0  0  0  0
 15 16  1  0  0  0  0
 15 14  1  0  0  0  0
 16 18  1  0  0  0  0
 18 19  1  0  0  0  0
 18 17  1  0  0  0  0
 20 18  2  0  0  0  0
 21  6  1  0  0  0  0
 22 21  1  0  0  0  0
 23  8  1  0  0  0  0
 24 23  1  0  0  0  0
 25 24  1  0  0  0  0
 26 25  1  0  0  0  0
 27 26  1  0  0  0  0
 28 30  1  1  0  0  0
 28 29  1  0  0  0  0
 29 27  1  1  0  0  0
 31 30  1  1  0  0  0
 31 28  1  0  0  0  0
 31 29  1  0  0  0  0
M  END
>  <MODEL>
6

>  <REMARK>
 VINA RESULT:      -6.4      1.898      3.762
  Name = 
  12 active torsions:
  status: ('A' for Active; 'I' for Inactive)
    1  A    between atoms: O_1  and  C_5
    2  A    between atoms: O_1  and  C_12
    3  A    between atoms: P_3  and  C_13
    4  A    between atoms: C_5  and  C_18
    5  A    between atoms: C_7  and  C_26
    6  A    between atoms: C_12  and  C_20
    7  A    between atoms: C_13  and  C_16
    8  A    between atoms: O_14  and  C_18
    9  A    between atoms: O_14  and  C_27
   10  A    between atoms: C_16  and  C_30
   11  A    between atoms: O_21  and  C_23
   12  A    between atoms: C_26  and  C_30
                            x       y       z     vdW  Elec       q    Type
                         _______ _______ _______ _____ _____    ______ ____

>  <TORSDO>
F 12

$$$$
=
 OpenBabel11072412133D

 31 34  0  0  1  0  0  0  0  0999 V2000
  160.9130  207.6320  150.5320 C   0  0  1  0  0  3  0  0  0  0  0  0
  160.8880  205.6690  152.5330 N   0  0  0  0  0  0  0  0  0  0  0  0
  161.3690  206.2090  150.1970 C   0  0  1  0  0  3  0  0  0  0  0  0
  162.2530  209.5390  150.8180 N   0  0  0  0  0  0  0  0  0  0  0  0
  161.1880  207.9210  151.9620 C   0  0  2  0  0  3  0  0  0  0  0  0
  160.9380  205.2510  151.2950 C   0  0  0  0  0  0  0  0  0  0  0  0
  161.7180  208.6530  149.8700 N   0  0  0  0  0  2  0  0  0  0  0  0
  161.9560  209.1430  152.0100 C   0  0  0  0  0  0  0  0  0  0  0  0
  161.1960  207.0010  152.8750 N   0  0  0  0  0  2  0  0  0  0  0  0
  159.7100  206.2030  148.4770 O   0  0  0  0  0  0  0  0  0  0  0  0
  160.8450  205.7970  148.8500 C   0  0  0  0  0  0  0  0  0  0  0  0
  161.5380  203.6290  148.0130 C   0  0  0  0  0  0  0  0  0  0  0  0
  161.4400  202.3960  148.0660 O   0  0  0  0  0  0  0  0  0  0  0  0
  161.6410  204.9320  147.9550 C   0  0  0  0  0  0  0  0  0  0  0  0
  162.5520  205.5440  146.9380 C   0  0  0  0  0  2  0  0  0  0  0  0
  162.5760  204.7510  145.6370 C   0  0  0  0  0  2  0  0  0  0  0  0
  160.1410  203.7140  144.5100 O   0  0  0  0  0  1  0  0  0  0  0  0
  161.1040  205.1000  144.6260 P   0  0  0  0  0  0  0  0  0  0  0  0
  161.5810  205.5900  143.0790 O   0  0  0  0  0  0  0  0  0  0  0  0
  160.3070  206.2050  145.2780 O   0  0  0  0  0  1  0  0  0  0  0  0
  160.6540  203.9170  150.9850 O   0  0  0  0  0  0  0  0  0  0  0  0
  161.2500  202.8320  151.6810 C   0  0  0  0  0  1  0  0  0  0  0  0
  162.3770  209.7800  153.1760 O   0  0  0  0  0  0  0  0  0  0  0  0
  161.5370  210.6790  153.8840 C   0  0  0  0  0  2  0  0  0  0  0  0
  160.8080  209.9360  154.9890 C   0  0  0  0  0  2  0  0  0  0  0  0
  160.2770  210.8480  155.9020 O   0  0  0  0  0  0  0  0  0  0  0  0
  158.8980  210.6380  155.8560 C   0  0  0  0  0  2  0  0  0  0  0  0
  156.7120  211.8280  156.0720 C   0  0  2  0  0  3  0  0  0  0  0  0
  158.1850  211.9740  155.7360 C   0  0  2  0  0  3  0  0  0  0  0  0
  156.0170  210.9940  155.0120 C   0  0  0  0  0  2  0  0  0  0  0  0
  157.1490  211.9290  154.6280 C   0  0  1  0  0  3  0  0  0  0  0  0
  1  7  1  6  0  0  0
  1  5  1  0  0  0  0
  2  9  1  0  0  0  0
  3 11  1  6  0  0  0
  3  1  1  0  0  0  0
  3  6  1  0  0  0  0
  4  8  2  0  0  0  0
  5  8  1  6  0  0  0
  5  9  1  0  0  0  0
  6  2  2  0  0  0  0
  7  4  1  0  0  0  0
  8 23  1  0  0  0  0
 10 11  2  0  0  0  0
 12 13  2  0  0  0  0
 14 12  2  0  0  0  0
 14 11  1  0  0  0  0
 15 14  1  0  0  0  0
 16 15  1  0  0  0  0
 17 18  1  0  0  0  0
 18 20  1  0  0  0  0
 18 16  1  0  0  0  0
 19 18  2  0  0  0  0
 21  6  1  0  0  0  0
 21 22  1  0  0  0  0
 23 24  1  0  0  0  0
 24 25  1  0  0  0  0
 25 26  1  0  0  0  0
 27 26  1  0  0  0  0
 28 30  1  6  0  0  0
 29 27  1  6  0  0  0
 29 28  1  0  0  0  0
 31 30  1  6  0  0  0
 31 29  1  0  0  0  0
 31 28  1  0  0  0  0
M  END
>  <MODEL>
7

>  <REMARK>
 VINA RESULT:      -6.4      3.436      9.003
  Name = 
  12 active torsions:
  status: ('A' for Active; 'I' for Inactive)
    1  A    between atoms: O_1  and  C_5
    2  A    between atoms: O_1  and  C_12
    3  A    between atoms: P_3  and  C_13
    4  A    between atoms: C_5  and  C_18
    5  A    between atoms: C_7  and  C_26
    6  A    between atoms: C_12  and  C_20
    7  A    between atoms: C_13  and  C_16
    8  A    between atoms: O_14  and  C_18
    9  A    between atoms: O_14  and  C_27
   10  A    between atoms: C_16  and  C_30
   11  A    between atoms: O_21  and  C_23
   12  A    between atoms: C_26  and  C_30
                            x       y       z     vdW  Elec       q    Type
                         _______ _______ _______ _____ _____    ______ ____

>  <TORSDO>
F 12

$$$$
=
 OpenBabel11072412133D

 31 34  0  0  1  0  0  0  0  0999 V2000
  161.7110  207.5520  151.3170 C   0  0  1  0  0  3  0  0  0  0  0  0
  161.1960  206.5620  153.8890 N   0  0  0  0  0  0  0  0  0  0  0  0
  160.9720  208.4320  152.3300 C   0  0  1  0  0  3  0  0  0  0  0  0
  160.8090  206.4330  149.4600 N   0  0  0  0  0  0  0  0  0  0  0  0
  161.4300  206.1220  151.5990 C   0  0  2  0  0  3  0  0  0  0  0  0
  161.1230  207.8570  153.7280 C   0  0  0  0  0  0  0  0  0  0  0  0
  161.1860  207.6880  149.9620 N   0  0  0  0  0  2  0  0  0  0  0  0
  160.9480  205.5310  150.3740 C   0  0  0  0  0  0  0  0  0  0  0  0
  161.1710  205.6790  152.7900 N   0  0  0  0  0  2  0  0  0  0  0  0
  162.6980  210.0850  152.3700 O   0  0  0  0  0  0  0  0  0  0  0  0
  161.4640  209.8500  152.2450 C   0  0  0  0  0  0  0  0  0  0  0  0
  159.4570  211.1140  152.7500 C   0  0  0  0  0  0  0  0  0  0  0  0
  158.4460  211.2540  153.4500 O   0  0  0  0  0  0  0  0  0  0  0  0
  160.5280  210.9680  152.0110 C   0  0  0  0  0  0  0  0  0  0  0  0
  160.8160  211.9760  150.9440 C   0  0  0  0  0  2  0  0  0  0  0  0
  161.5740  211.3690  149.7690 C   0  0  0  0  0  2  0  0  0  0  0  0
  161.5550  214.1150  148.9130 O   0  0  0  0  0  1  0  0  0  0  0  0
  161.6360  212.5180  148.3610 P   0  0  0  0  0  0  0  0  0  0  0  0
  160.3390  212.2120  147.3200 O   0  0  0  0  0  0  0  0  0  0  0  0
  162.9340  212.3170  147.6150 O   0  0  0  0  0  1  0  0  0  0  0  0
  161.1220  208.7110  154.8360 O   0  0  0  0  0  0  0  0  0  0  0  0
  160.0840  208.6970  155.8050 C   0  0  0  0  0  1  0  0  0  0  0  0
  160.6150  204.1890  150.2070 O   0  0  0  0  0  0  0  0  0  0  0  0
  161.4390  203.2980  149.4690 C   0  0  0  0  0  2  0  0  0  0  0  0
  160.5840  202.4830  148.5160 C   0  0  0  0  0  2  0  0  0  0  0  0
  161.1550  202.4940  147.2420 O   0  0  0  0  0  0  0  0  0  0  0  0
  161.6740  203.7810  147.0950 C   0  0  0  0  0  2  0  0  0  0  0  0
  161.9160  205.4670  145.2670 C   0  0  2  0  0  3  0  0  0  0  0  0
  162.0750  204.0060  145.6470 C   0  0  2  0  0  3  0  0  0  0  0  0
  160.4460  205.8440  145.2580 C   0  0  0  0  0  2  0  0  0  0  0  0
  160.8810  204.4560  144.8270 C   0  0  1  0  0  3  0  0  0  0  0  0
  1  7  1  6  0  0  0
  1  5  1  0  0  0  0
  1  3  1  0  0  0  0
  3 11  1  1  0  0  0
  3  6  1  0  0  0  0
  4  7  1  0  0  0  0
  4  8  2  0  0  0  0
  5  8  1  6  0  0  0
  5  9  1  0  0  0  0
  6  2  2  0  0  0  0
  6 21  1  0  0  0  0
  9  2  1  0  0  0  0
 11 10  2  0  0  0  0
 12 13  2  0  0  0  0
 14 11  1  0  0  0  0
 14 12  2  0  0  0  0
 15 14  1  0  0  0  0
 16 15  1  0  0  0  0
 18 17  1  0  0  0  0
 18 16  1  0  0  0  0
 19 18  2  0  0  0  0
 20 18  1  0  0  0  0
 21 22  1  0  0  0  0
 23  8  1  0  0  0  0
 24 23  1  0  0  0  0
 25 24  1  0  0  0  0
 26 25  1  0  0  0  0
 27 26  1  0  0  0  0
 28 30  1  1  0  0  0
 28 29  1  0  0  0  0
 29 27  1  1  0  0  0
 31 30  1  1  0  0  0
 31 28  1  0  0  0  0
 31 29  1  0  0  0  0
M  END
>  <MODEL>
8

>  <REMARK>
 VINA RESULT:      -6.3      2.700      4.544
  Name = 
  12 active torsions:
  status: ('A' for Active; 'I' for Inactive)
    1  A    between atoms: O_1  and  C_5
    2  A    between atoms: O_1  and  C_12
    3  A    between atoms: P_3  and  C_13
    4  A    between atoms: C_5  and  C_18
    5  A    between atoms: C_7  and  C_26
    6  A    between atoms: C_12  and  C_20
    7  A    between atoms: C_13  and  C_16
    8  A    between atoms: O_14  and  C_18
    9  A    between atoms: O_14  and  C_27
   10  A    between atoms: C_16  and  C_30
   11  A    between atoms: O_21  and  C_23
   12  A    between atoms: C_26  and  C_30
                            x       y       z     vdW  Elec       q    Type
                         _______ _______ _______ _____ _____    ______ ____

>  <TORSDO>
F 12

$$$$
=
 OpenBabel11072412133D

 31 34  0  0  1  0  0  0  0  0999 V2000
  162.0040  207.1250  151.3480 C   0  0  1  0  0  3  0  0  0  0  0  0
  161.8120  209.9080  151.0700 N   0  0  0  0  0  0  0  0  0  0  0  0
  161.4470  207.7160  150.0490 C   0  0  1  0  0  3  0  0  0  0  0  0
  160.8130  206.0630  153.0700 N   0  0  0  0  0  0  0  0  0  0  0  0
  161.7110  208.0390  152.4790 C   0  0  2  0  0  3  0  0  0  0  0  0
  161.7670  209.1990  149.9720 C   0  0  0  0  0  0  0  0  0  0  0  0
  161.3040  205.9140  151.7630 N   0  0  0  0  0  2  0  0  0  0  0  0
  161.0420  207.2600  153.4940 C   0  0  0  0  0  0  0  0  0  0  0  0
  161.6020  209.3230  152.3340 N   0  0  0  0  0  2  0  0  0  0  0  0
  163.1380  207.2110  148.4380 O   0  0  0  0  0  0  0  0  0  0  0  0
  161.9760  206.9600  148.8620 C   0  0  0  0  0  0  0  0  0  0  0  0
  160.7900  206.0680  146.9460 C   0  0  0  0  0  0  0  0  0  0  0  0
  160.4380  206.1990  145.7660 O   0  0  0  0  0  0  0  0  0  0  0  0
  161.1620  205.9260  148.1930 C   0  0  0  0  0  0  0  0  0  0  0  0
  160.7840  204.6780  148.9260 C   0  0  0  0  0  2  0  0  0  0  0  0
  161.3320  203.4270  148.2510 C   0  0  0  0  0  2  0  0  0  0  0  0
  161.2110  202.0690  150.7840 O   0  0  0  0  0  1  0  0  0  0  0  0
  160.8280  201.9230  149.1430 P   0  0  0  0  0  0  0  0  0  0  0  0
  161.6270  200.5820  148.4910 O   0  0  0  0  0  0  0  0  0  0  0  0
  159.3360  201.7370  148.9960 O   0  0  0  0  0  1  0  0  0  0  0  0
  161.9520  209.8080  148.7260 O   0  0  0  0  0  0  0  0  0  0  0  0
  162.0190  211.2180  148.5730 C   0  0  0  0  0  1  0  0  0  0  0  0
  160.6380  207.7420  154.7380 O   0  0  0  0  0  0  0  0  0  0  0  0
  161.5740  208.1230  155.7350 C   0  0  0  0  0  2  0  0  0  0  0  0
  161.2420  209.5140  156.2430 C   0  0  0  0  0  2  0  0  0  0  0  0
  161.8410  210.4720  155.4230 O   0  0  0  0  0  0  0  0  0  0  0  0
  160.8660  211.4570  155.2550 C   0  0  0  0  0  2  0  0  0  0  0  0
  158.6300  211.0910  154.2020 C   0  0  2  0  0  3  0  0  0  0  0  0
  159.4870  210.8430  155.4280 C   0  0  2  0  0  3  0  0  0  0  0  0
  158.3120  212.5700  154.0810 C   0  0  0  0  0  2  0  0  0  0  0  0
  158.4210  211.9220  155.4480 C   0  0  1  0  0  3  0  0  0  0  0  0
  1  7  1  1  0  0  0
  1  5  1  0  0  0  0
  2  9  1  0  0  0  0
  3 11  1  6  0  0  0
  3  1  1  0  0  0  0
  4  8  2  0  0  0  0
  5  9  1  6  0  0  0
  5  8  1  0  0  0  0
  6  3  1  0  0  0  0
  6  2  2  0  0  0  0
  7  4  1  0  0  0  0
  8 23  1  0  0  0  0
 10 11  2  0  0  0  0
 12 14  2  0  0  0  0
 13 12  2  0  0  0  0
 14 11  1  0  0  0  0
 14 15  1  0  0  0  0
 16 15  1  0  0  0  0
 16 18  1  0  0  0  0
 18 17  1  0  0  0  0
 19 18  2  0  0  0  0
 20 18  1  0  0  0  0
 21  6  1  0  0  0  0
 22 21  1  0  0  0  0
 23 24  1  0  0  0  0
 24 25  1  0  0  0  0
 26 25  1  0  0  0  0
 27 26  1  0  0  0  0
 28 30  1  6  0  0  0
 28 29  1  0  0  0  0
 28 31  1  0  0  0  0
 29 27  1  6  0  0  0
 29 31  1  0  0  0  0
 31 30  1  6  0  0  0
M  END
>  <MODEL>
9

>  <REMARK>
 VINA RESULT:      -6.2      3.482      8.680
  Name = 
  12 active torsions:
  status: ('A' for Active; 'I' for Inactive)
    1  A    between atoms: O_1  and  C_5
    2  A    between atoms: O_1  and  C_12
    3  A    between atoms: P_3  and  C_13
    4  A    between atoms: C_5  and  C_18
    5  A    between atoms: C_7  and  C_26
    6  A    between atoms: C_12  and  C_20
    7  A    between atoms: C_13  and  C_16
    8  A    between atoms: O_14  and  C_18
    9  A    between atoms: O_14  and  C_27
   10  A    between atoms: C_16  and  C_30
   11  A    between atoms: O_21  and  C_23
   12  A    between atoms: C_26  and  C_30
                            x       y       z     vdW  Elec       q    Type
                         _______ _______ _______ _____ _____    ______ ____

>  <TORSDO>
F 12

$$$$
