=
 OpenBabel11072415093D

 39 42  0  0  1  0  0  0  0  0999 V2000
  161.9320  209.4790  150.5010 C   0  0  0  0  0  0  0  0  0  0  0  0
  161.7900  210.1900  151.6970 C   0  0  0  0  0  3  0  0  0  0  0  0
  161.1120  208.1680  152.8290 C   0  0  0  0  0  3  0  0  0  0  0  0
  161.2540  207.4520  151.6370 C   0  0  0  0  0  3  0  0  0  0  0  0
  161.3690  209.5470  152.8730 C   0  0  0  0  0  0  0  0  0  0  0  0
  162.3380  210.1300  149.3830 F   0  0  0  0  0  0  0  0  0  0  0  0
  161.6580  208.1040  150.4690 C   0  0  0  0  0  0  0  0  0  0  0  0
  163.2920  210.8770  157.2030 N   0  0  0  0  0  1  0  0  0  0  0  0
  160.0870  211.7900  155.6830 C   0  0  0  0  0  3  0  0  0  0  0  0
  161.1230  211.6940  156.5550 N   0  0  0  0  0  0  0  0  0  0  0  0
  160.1170  211.1140  154.4540 C   0  0  0  0  0  0  0  0  0  0  0  0
  162.2220  210.9510  156.2700 C   0  0  0  0  0  0  0  0  0  0  0  0
  161.2460  210.3190  154.1400 C   0  0  0  0  0  0  0  0  0  0  0  0
  162.3000  210.2560  155.0650 C   0  0  0  0  0  3  0  0  0  0  0  0
  159.0300  211.2510  153.5240 N   0  0  0  0  0  2  0  0  0  0  0  0
  158.3380  212.4890  153.1690 C   0  0  1  0  0  3  0  0  0  0  0  0
  159.0000  213.4510  150.9190 C   0  0  0  0  0  0  0  0  0  0  0  0
  159.9300  214.1210  151.4450 O   0  0  0  0  0  0  0  0  0  0  0  0
  158.1810  212.5990  151.7230 N   0  0  0  0  0  2  0  0  0  0  0  0
  158.7600  213.5440  149.4740 C   0  0  0  0  0  0  0  0  0  0  0  0
  157.1620  213.3910  147.5310 C   0  0  0  0  0  1  0  0  0  0  0  0
  157.4490  213.3180  148.9530 N   0  0  0  0  0  2  0  0  0  0  0  0
  159.7130  213.8240  148.6980 O   0  0  0  0  0  0  0  0  0  0  0  0
  156.5040  211.5060  154.7600 C   0  0  0  0  0  1  0  0  0  0  0  0
  157.0280  212.6110  153.9000 C   0  0  0  0  0  0  0  0  0  0  0  0
  156.3900  213.6460  153.8110 O   0  0  0  0  0  0  0  0  0  0  0  0
  161.8190  207.3210  149.2080 C   0  0  0  0  0  2  0  0  0  0  0  0
  160.8490  206.1460  149.1720 C   0  0  1  0  0  3  0  0  0  0  0  0
  159.6540  206.5640  148.5780 O   0  0  0  0  0  1  0  0  0  0  0  0
  162.5540  205.5700  146.4550 C   0  0  0  0  0  2  0  0  0  0  0  0
  161.2980  203.9310  146.1060 C   0  0  2  0  0  3  0  0  0  0  0  0
  161.4660  204.9630  148.4070 C   0  0  1  0  0  3  0  0  0  0  0  0
  160.9460  203.6290  148.9640 C   0  0  2  0  0  3  0  0  0  0  0  0
  161.3180  203.4940  150.3050 O   0  0  0  0  0  1  0  0  0  0  0  0
  161.2550  205.1340  146.9530 N   0  0  1  0  0  0  0  0  0  0  0  0
  161.5490  202.4940  148.1660 C   0  0  2  0  0  3  0  0  0  0  0  0
  161.0000  202.5860  146.7670 C   0  0  0  0  0  2  0  0  0  0  0  0
  161.0770  200.9170  148.8500 Cl  0  0  0  0  0  0  0  0  0  0  0  0
  162.9860  204.0950  145.4780 S   0  0  0  0  0  0  0  0  0  0  0  0
  1  2  1  0  0  0  0
  2  5  2  0  0  0  0
  3  5  1  0  0  0  0
  4  3  2  0  0  0  0
  5 13  1  0  0  0  0
  6  1  1  0  0  0  0
  7  1  2  0  0  0  0
  7  4  1  0  0  0  0
  9 10  1  0  0  0  0
 11  9  2  0  0  0  0
 12 10  2  0  0  0  0
 12  8  1  0  0  0  0
 13 11  1  0  0  0  0
 13 14  2  0  0  0  0
 14 12  1  0  0  0  0
 15 11  1  0  0  0  0
 16 19  1  6  0  0  0
 16 15  1  0  0  0  0
 16 25  1  0  0  0  0
 17 18  2  0  0  0  0
 17 19  1  0  0  0  0
 20 17  1  0  0  0  0
 21 22  1  0  0  0  0
 22 20  1  0  0  0  0
 23 20  2  0  0  0  0
 25 24  1  0  0  0  0
 26 25  2  0  0  0  0
 27  7  1  0  0  0  0
 28 29  1  6  0  0  0
 28 27  1  0  0  0  0
 31 37  1  1  0  0  0
 31 35  1  0  0  0  0
 32 33  1  0  0  0  0
 32 28  1  1  0  0  0
 33 34  1  1  0  0  0
 35 30  1  6  0  0  0
 35 32  1  0  0  0  0
 36 38  1  1  0  0  0
 36 33  1  0  0  0  0
 37 36  1  0  0  0  0
 39 31  1  0  0  0  0
 39 30  1  0  0  0  0
M  END
>  <MODEL>
1

>  <REMARK>
 VINA RESULT:      -7.5      0.000      0.000
  Name = 
  9 active torsions:
  status: ('A' for Active; 'I' for Inactive)
    1  A    between atoms: C_5  and  C_6
    2  A    between atoms: C_7  and  C_8
    3  A    between atoms: C_7  and  C_38
    4  A    between atoms: C_8  and  C_16
    5  A    between atoms: N_14  and  C_20
    6  A    between atoms: N_14  and  C_23
    7  A    between atoms: C_19  and  C_20
    8  A    between atoms: C_20  and  N_26
    9  A    between atoms: C_28  and  C_31
                            x       y       z     vdW  Elec       q    Type
                         _______ _______ _______ _____ _____    ______ ____

>  <TORSDO>
F 9

$$$$
=
 OpenBabel11072415093D

 39 42  0  0  1  0  0  0  0  0999 V2000
  160.9750  207.7840  152.2710 C   0  0  0  0  0  0  0  0  0  0  0  0
  160.5110  208.8380  153.0630 C   0  0  0  0  0  3  0  0  0  0  0  0
  161.4930  210.4300  151.5360 C   0  0  0  0  0  3  0  0  0  0  0  0
  161.9590  209.3800  150.7400 C   0  0  0  0  0  3  0  0  0  0  0  0
  160.7720  210.1740  152.7130 C   0  0  0  0  0  0  0  0  0  0  0  0
  160.7090  206.5060  152.6380 F   0  0  0  0  0  0  0  0  0  0  0  0
  161.7070  208.0550  151.1060 C   0  0  0  0  0  0  0  0  0  0  0  0
  160.6920  212.4840  157.0570 N   0  0  0  0  0  1  0  0  0  0  0  0
  158.8680  213.2340  153.9700 C   0  0  0  0  0  3  0  0  0  0  0  0
  159.3250  213.2890  155.2480 N   0  0  0  0  0  0  0  0  0  0  0  0
  159.3160  212.2380  153.0900 C   0  0  0  0  0  0  0  0  0  0  0  0
  160.2300  212.3930  155.7160 C   0  0  0  0  0  0  0  0  0  0  0  0
  160.2490  211.2810  153.5590 C   0  0  0  0  0  0  0  0  0  0  0  0
  160.7040  211.3810  154.8830 C   0  0  0  0  0  3  0  0  0  0  0  0
  158.8540  212.2110  151.7300 N   0  0  0  0  0  2  0  0  0  0  0  0
  158.7430  213.3530  150.8230 C   0  0  1  0  0  3  0  0  0  0  0  0
  160.6810  213.6830  149.2220 C   0  0  0  0  0  0  0  0  0  0  0  0
  161.2600  214.4530  150.0350 O   0  0  0  0  0  0  0  0  0  0  0  0
  159.4300  213.0830  149.5650 N   0  0  0  0  0  2  0  0  0  0  0  0
  161.2950  213.4000  147.9200 C   0  0  0  0  0  0  0  0  0  0  0  0
  161.1090  213.3310  145.4070 C   0  0  0  0  0  1  0  0  0  0  0  0
  160.5480  213.6050  146.7190 N   0  0  0  0  0  2  0  0  0  0  0  0
  162.4820  212.9750  147.8660 O   0  0  0  0  0  0  0  0  0  0  0  0
  156.6120  213.5480  149.3140 C   0  0  0  0  0  1  0  0  0  0  0  0
  157.3060  213.7520  150.6210 C   0  0  0  0  0  0  0  0  0  0  0  0
  156.6840  214.2300  151.5540 O   0  0  0  0  0  0  0  0  0  0  0  0
  162.1980  206.9470  150.2350 C   0  0  0  0  0  2  0  0  0  0  0  0
  161.0490  206.3220  149.4510 C   0  0  1  0  0  3  0  0  0  0  0  0
  160.4870  207.2960  148.6200 O   0  0  0  0  0  1  0  0  0  0  0  0
  162.6630  205.6930  146.6900 C   0  0  0  0  0  2  0  0  0  0  0  0
  161.2600  204.1880  146.3040 C   0  0  2  0  0  3  0  0  0  0  0  0
  161.5470  205.1160  148.6360 C   0  0  1  0  0  3  0  0  0  0  0  0
  160.9150  203.8160  149.1550 C   0  0  2  0  0  3  0  0  0  0  0  0
  161.2890  203.6000  150.4840 O   0  0  0  0  0  1  0  0  0  0  0  0
  161.3350  205.3580  147.1920 N   0  0  1  0  0  0  0  0  0  0  0  0
  161.4030  202.6610  148.3090 C   0  0  2  0  0  3  0  0  0  0  0  0
  160.8480  202.8510  146.9220 C   0  0  0  0  0  2  0  0  0  0  0  0
  160.7980  201.1090  148.9450 Cl  0  0  0  0  0  0  0  0  0  0  0  0
  162.9470  204.2210  145.6570 S   0  0  0  0  0  0  0  0  0  0  0  0
  1  6  1  0  0  0  0
  1  2  1  0  0  0  0
  3  5  1  0  0  0  0
  4  7  1  0  0  0  0
  4  3  2  0  0  0  0
  5  2  2  0  0  0  0
  5 13  1  0  0  0  0
  7  1  2  0  0  0  0
  9 10  1  0  0  0  0
 10 12  2  0  0  0  0
 11 13  1  0  0  0  0
 11  9  2  0  0  0  0
 12  8  1  0  0  0  0
 13 14  2  0  0  0  0
 14 12  1  0  0  0  0
 15 11  1  0  0  0  0
 16 19  1  6  0  0  0
 16 15  1  0  0  0  0
 17 19  1  0  0  0  0
 17 18  2  0  0  0  0
 20 17  1  0  0  0  0
 21 22  1  0  0  0  0
 22 20  1  0  0  0  0
 23 20  2  0  0  0  0
 24 25  1  0  0  0  0
 25 16  1  0  0  0  0
 25 26  2  0  0  0  0
 27  7  1  0  0  0  0
 28 29  1  6  0  0  0
 28 27  1  0  0  0  0
 31 37  1  1  0  0  0
 31 35  1  0  0  0  0
 32 33  1  0  0  0  0
 32 28  1  1  0  0  0
 33 34  1  1  0  0  0
 35 30  1  6  0  0  0
 35 32  1  0  0  0  0
 36 38  1  1  0  0  0
 36 33  1  0  0  0  0
 37 36  1  0  0  0  0
 39 31  1  0  0  0  0
 39 30  1  0  0  0  0
M  END
>  <MODEL>
2

>  <REMARK>
 VINA RESULT:      -7.4      1.774      2.406
  Name = 
  9 active torsions:
  status: ('A' for Active; 'I' for Inactive)
    1  A    between atoms: C_5  and  C_6
    2  A    between atoms: C_7  and  C_8
    3  A    between atoms: C_7  and  C_38
    4  A    between atoms: C_8  and  C_16
    5  A    between atoms: N_14  and  C_20
    6  A    between atoms: N_14  and  C_23
    7  A    between atoms: C_19  and  C_20
    8  A    between atoms: C_20  and  N_26
    9  A    between atoms: C_28  and  C_31
                            x       y       z     vdW  Elec       q    Type
                         _______ _______ _______ _____ _____    ______ ____

>  <TORSDO>
F 9

$$$$
=
 OpenBabel11072415093D

 39 42  0  0  1  0  0  0  0  0999 V2000
  160.8910  207.4610  151.9730 C   0  0  0  0  0  0  0  0  0  0  0  0
  160.8210  206.4330  151.0290 C   0  0  0  0  0  3  0  0  0  0  0  0
  161.4790  204.8310  152.7120 C   0  0  0  0  0  3  0  0  0  0  0  0
  161.5490  205.8550  153.6600 C   0  0  0  0  0  3  0  0  0  0  0  0
  161.1240  205.1070  151.3830 C   0  0  0  0  0  0  0  0  0  0  0  0
  160.5960  208.7310  151.6000 F   0  0  0  0  0  0  0  0  0  0  0  0
  161.2610  207.1720  153.2950 C   0  0  0  0  0  0  0  0  0  0  0  0
  160.1920  200.3920  150.3240 N   0  0  0  0  0  1  0  0  0  0  0  0
  161.1710  203.1420  148.1100 C   0  0  0  0  0  3  0  0  0  0  0  0
  160.8230  201.9120  148.5670 N   0  0  0  0  0  0  0  0  0  0  0  0
  161.2760  204.2310  148.9880 C   0  0  0  0  0  0  0  0  0  0  0  0
  160.5600  201.6920  149.8800 C   0  0  0  0  0  0  0  0  0  0  0  0
  161.0220  204.0240  150.3660 C   0  0  0  0  0  0  0  0  0  0  0  0
  160.6550  202.7390  150.7950 C   0  0  0  0  0  3  0  0  0  0  0  0
  161.6090  205.5360  148.4880 N   0  0  0  0  0  2  0  0  0  0  0  0
  160.7950  206.3630  147.5980 C   0  0  1  0  0  3  0  0  0  0  0  0
  162.0540  208.4050  148.4200 C   0  0  0  0  0  0  0  0  0  0  0  0
  163.1440  207.7700  148.4170 O   0  0  0  0  0  0  0  0  0  0  0  0
  160.8470  207.7640  148.0010 N   0  0  0  0  0  2  0  0  0  0  0  0
  162.0260  209.8070  148.8520 C   0  0  0  0  0  0  0  0  0  0  0  0
  161.6230  212.2330  148.3040 C   0  0  0  0  0  1  0  0  0  0  0  0
  161.6590  210.8300  147.9260 N   0  0  0  0  0  2  0  0  0  0  0  0
  162.3270  210.1020  150.0410 O   0  0  0  0  0  0  0  0  0  0  0  0
  162.4770  205.5140  145.7790 C   0  0  0  0  0  1  0  0  0  0  0  0
  161.1860  206.1640  146.1580 C   0  0  0  0  0  0  0  0  0  0  0  0
  160.4190  206.5170  145.2790 O   0  0  0  0  0  0  0  0  0  0  0  0
  161.3260  208.2510  154.3250 C   0  0  0  0  0  2  0  0  0  0  0  0
  159.9270  208.7160  154.7120 C   0  0  1  0  0  3  0  0  0  0  0  0
  159.5040  207.9930  155.8320 O   0  0  0  0  0  1  0  0  0  0  0  0
  161.1870  210.8470  156.8330 C   0  0  0  0  0  2  0  0  0  0  0  0
  159.3120  211.7760  156.8970 C   0  0  2  0  0  3  0  0  0  0  0  0
  159.9230  210.2290  154.9940 C   0  0  1  0  0  3  0  0  0  0  0  0
  158.8310  210.9280  154.1690 C   0  0  2  0  0  3  0  0  0  0  0  0
  159.0830  210.7620  152.8040 O   0  0  0  0  0  1  0  0  0  0  0  0
  159.8310  210.4730  156.4500 N   0  0  1  0  0  0  0  0  0  0  0  0
  158.8370  212.4040  154.4990 C   0  0  2  0  0  3  0  0  0  0  0  0
  158.4090  212.5490  155.9350 C   0  0  0  0  0  2  0  0  0  0  0  0
  157.6720  213.2860  153.4760 Cl  0  0  0  0  0  0  0  0  0  0  0  0
  160.8840  212.5910  157.2610 S   0  0  0  0  0  0  0  0  0  0  0  0
  1  7  1  0  0  0  0
  2  5  1  0  0  0  0
  2  1  2  0  0  0  0
  3  4  1  0  0  0  0
  5  3  2  0  0  0  0
  6  1  1  0  0  0  0
  7  4  2  0  0  0  0
  7 27  1  0  0  0  0
  9 10  2  0  0  0  0
  9 11  1  0  0  0  0
 10 12  1  0  0  0  0
 11 13  2  0  0  0  0
 12  8  1  0  0  0  0
 12 14  2  0  0  0  0
 13 14  1  0  0  0  0
 13  5  1  0  0  0  0
 15 11  1  0  0  0  0
 16 25  1  6  0  0  0
 16 19  1  0  0  0  0
 16 15  1  0  0  0  0
 17 20  1  0  0  0  0
 18 17  2  0  0  0  0
 19 17  1  0  0  0  0
 20 23  2  0  0  0  0
 22 21  1  0  0  0  0
 22 20  1  0  0  0  0
 24 25  1  0  0  0  0
 26 25  2  0  0  0  0
 27 28  1  0  0  0  0
 28 29  1  1  0  0  0
 30 39  1  0  0  0  0
 31 37  1  6  0  0  0
 31 39  1  0  0  0  0
 32 28  1  1  0  0  0
 32 35  1  0  0  0  0
 33 34  1  6  0  0  0
 33 36  1  0  0  0  0
 33 32  1  0  0  0  0
 35 30  1  6  0  0  0
 35 31  1  0  0  0  0
 36 38  1  6  0  0  0
 36 37  1  0  0  0  0
M  END
>  <MODEL>
3

>  <REMARK>
 VINA RESULT:      -7.4      4.197      9.044
  Name = 
  9 active torsions:
  status: ('A' for Active; 'I' for Inactive)
    1  A    between atoms: C_5  and  C_6
    2  A    between atoms: C_7  and  C_8
    3  A    between atoms: C_7  and  C_38
    4  A    between atoms: C_8  and  C_16
    5  A    between atoms: N_14  and  C_20
    6  A    between atoms: N_14  and  C_23
    7  A    between atoms: C_19  and  C_20
    8  A    between atoms: C_20  and  N_26
    9  A    between atoms: C_28  and  C_31
                            x       y       z     vdW  Elec       q    Type
                         _______ _______ _______ _____ _____    ______ ____

>  <TORSDO>
F 9

$$$$
=
 OpenBabel11072415093D

 39 42  0  0  1  0  0  0  0  0999 V2000
  162.2180  209.2390  149.2160 C   0  0  0  0  0  0  0  0  0  0  0  0
  161.9660  208.4620  150.3500 C   0  0  0  0  0  3  0  0  0  0  0  0
  161.3170  210.4410  151.5720 C   0  0  0  0  0  3  0  0  0  0  0  0
  161.5670  211.2220  150.4410 C   0  0  0  0  0  3  0  0  0  0  0  0
  161.5220  209.0520  151.5460 C   0  0  0  0  0  0  0  0  0  0  0  0
  162.6480  208.6390  148.0780 F   0  0  0  0  0  0  0  0  0  0  0  0
  162.0220  210.6270  149.2620 C   0  0  0  0  0  0  0  0  0  0  0  0
  160.0330  208.7080  156.2230 N   0  0  0  0  0  1  0  0  0  0  0  0
  161.1420  206.0860  153.9180 C   0  0  0  0  0  3  0  0  0  0  0  0
  160.6990  206.7270  155.0300 N   0  0  0  0  0  0  0  0  0  0  0  0
  161.4200  206.7980  152.7420 C   0  0  0  0  0  0  0  0  0  0  0  0
  160.5040  208.0690  155.0440 C   0  0  0  0  0  0  0  0  0  0  0  0
  161.2390  208.2030  152.7350 C   0  0  0  0  0  0  0  0  0  0  0  0
  160.7690  208.8240  153.9020 C   0  0  0  0  0  3  0  0  0  0  0  0
  161.8530  206.1050  151.5600 N   0  0  0  0  0  2  0  0  0  0  0  0
  161.0320  205.2600  150.6940 C   0  0  1  0  0  3  0  0  0  0  0  0
  160.9460  205.7810  148.2140 C   0  0  0  0  0  0  0  0  0  0  0  0
  159.8640  206.4130  148.3540 O   0  0  0  0  0  0  0  0  0  0  0  0
  161.5920  205.1980  149.3490 N   0  0  0  0  0  2  0  0  0  0  0  0
  161.5460  205.6450  146.8820 C   0  0  0  0  0  0  0  0  0  0  0  0
  161.2670  205.6030  144.3770 C   0  0  0  0  0  1  0  0  0  0  0  0
  160.7230  205.7380  145.7170 N   0  0  0  0  0  2  0  0  0  0  0  0
  162.7860  205.4450  146.7700 O   0  0  0  0  0  0  0  0  0  0  0  0
  160.8600  202.6570  150.4600 C   0  0  0  0  0  1  0  0  0  0  0  0
  160.8290  203.8950  151.2950 C   0  0  0  0  0  0  0  0  0  0  0  0
  160.6620  203.7940  152.4990 O   0  0  0  0  0  0  0  0  0  0  0  0
  162.2680  211.4750  148.0590 C   0  0  0  0  0  2  0  0  0  0  0  0
  161.8710  212.9220  148.3250 C   0  0  1  0  0  3  0  0  0  0  0  0
  162.9900  213.7400  148.1370 O   0  0  0  0  0  1  0  0  0  0  0  0
  158.9070  214.2660  148.5140 C   0  0  0  0  0  2  0  0  0  0  0  0
  158.2540  212.8330  147.1340 C   0  0  2  0  0  3  0  0  0  0  0  0
  160.7150  213.3410  147.4000 C   0  0  1  0  0  3  0  0  0  0  0  0
  160.9140  212.7620  145.9910 C   0  0  2  0  0  3  0  0  0  0  0  0
  162.0930  213.2610  145.4310 O   0  0  0  0  0  1  0  0  0  0  0  0
  159.4180  212.9930  148.0200 N   0  0  1  0  0  0  0  0  0  0  0  0
  159.7430  213.1680  145.1240 C   0  0  2  0  0  3  0  0  0  0  0  0
  158.5180  212.4830  145.6700 C   0  0  0  0  0  2  0  0  0  0  0  0
  159.9830  212.6270  143.4410 Cl  0  0  0  0  0  0  0  0  0  0  0  0
  157.4890  214.4520  147.3870 S   0  0  0  0  0  0  0  0  0  0  0  0
  1  7  2  0  0  0  0
  1  2  1  0  0  0  0
  2  5  2  0  0  0  0
  4  3  2  0  0  0  0
  5  3  1  0  0  0  0
  5 13  1  0  0  0  0
  6  1  1  0  0  0  0
  7  4  1  0  0  0  0
  9 10  1  0  0  0  0
 10 12  2  0  0  0  0
 11  9  2  0  0  0  0
 12  8  1  0  0  0  0
 13 11  1  0  0  0  0
 13 14  2  0  0  0  0
 14 12  1  0  0  0  0
 15 11  1  0  0  0  0
 16 19  1  6  0  0  0
 16 25  1  0  0  0  0
 16 15  1  0  0  0  0
 17 18  2  0  0  0  0
 17 19  1  0  0  0  0
 20 17  1  0  0  0  0
 21 22  1  0  0  0  0
 22 20  1  0  0  0  0
 23 20  2  0  0  0  0
 24 25  1  0  0  0  0
 25 26  2  0  0  0  0
 27 28  1  0  0  0  0
 27  7  1  0  0  0  0
 28 29  1  6  0  0  0
 31 37  1  6  0  0  0
 31 39  1  0  0  0  0
 31 35  1  0  0  0  0
 32 35  1  0  0  0  0
 32 28  1  1  0  0  0
 33 34  1  6  0  0  0
 33 32  1  0  0  0  0
 35 30  1  1  0  0  0
 36 38  1  6  0  0  0
 36 37  1  0  0  0  0
 36 33  1  0  0  0  0
 39 30  1  0  0  0  0
M  END
>  <MODEL>
4

>  <REMARK>
 VINA RESULT:      -7.2      4.054      7.755
  Name = 
  9 active torsions:
  status: ('A' for Active; 'I' for Inactive)
    1  A    between atoms: C_5  and  C_6
    2  A    between atoms: C_7  and  C_8
    3  A    between atoms: C_7  and  C_38
    4  A    between atoms: C_8  and  C_16
    5  A    between atoms: N_14  and  C_20
    6  A    between atoms: N_14  and  C_23
    7  A    between atoms: C_19  and  C_20
    8  A    between atoms: C_20  and  N_26
    9  A    between atoms: C_28  and  C_31
                            x       y       z     vdW  Elec       q    Type
                         _______ _______ _______ _____ _____    ______ ____

>  <TORSDO>
F 9

$$$$
=
 OpenBabel11072415093D

 39 42  0  0  1  0  0  0  0  0999 V2000
  160.9830  206.6370  153.0640 C   0  0  0  0  0  0  0  0  0  0  0  0
  161.0850  207.6560  154.0160 C   0  0  0  0  0  3  0  0  0  0  0  0
  161.0830  209.3100  152.2560 C   0  0  0  0  0  3  0  0  0  0  0  0
  160.9810  208.2950  151.3010 C   0  0  0  0  0  3  0  0  0  0  0  0
  161.1460  209.0040  153.6250 C   0  0  0  0  0  0  0  0  0  0  0  0
  160.9290  205.3450  153.4740 F   0  0  0  0  0  0  0  0  0  0  0  0
  160.9350  206.9560  151.7000 C   0  0  0  0  0  0  0  0  0  0  0  0
  163.6620  211.1670  157.2600 N   0  0  0  0  0  1  0  0  0  0  0  0
  160.3740  211.9920  155.8710 C   0  0  0  0  0  3  0  0  0  0  0  0
  161.4970  212.0120  156.6350 N   0  0  0  0  0  0  0  0  0  0  0  0
  160.2090  211.0330  154.8620 C   0  0  0  0  0  0  0  0  0  0  0  0
  162.4960  211.1140  156.4470 C   0  0  0  0  0  0  0  0  0  0  0  0
  161.2320  210.0750  154.6560 C   0  0  0  0  0  0  0  0  0  0  0  0
  162.3800  210.1370  155.4600 C   0  0  0  0  0  3  0  0  0  0  0  0
  159.0330  211.0440  154.0360 N   0  0  0  0  0  2  0  0  0  0  0  0
  158.2250  212.2120  153.6850 C   0  0  1  0  0  3  0  0  0  0  0  0
  158.6740  213.3990  151.4900 C   0  0  0  0  0  0  0  0  0  0  0  0
  159.3750  214.2720  152.0720 O   0  0  0  0  0  0  0  0  0  0  0  0
  158.0890  212.3310  152.2370 N   0  0  0  0  0  2  0  0  0  0  0  0
  158.4620  213.4810  150.0410 C   0  0  0  0  0  0  0  0  0  0  0  0
  159.4180  213.7430  147.7240 C   0  0  0  0  0  1  0  0  0  0  0  0
  159.5780  213.6500  149.1650 N   0  0  0  0  0  2  0  0  0  0  0  0
  157.2930  213.4020  149.5740 O   0  0  0  0  0  0  0  0  0  0  0  0
  156.4850  211.0380  155.2520 C   0  0  0  0  0  1  0  0  0  0  0  0
  156.8950  212.1870  154.3880 C   0  0  0  0  0  0  0  0  0  0  0  0
  156.1420  213.1390  154.2710 O   0  0  0  0  0  0  0  0  0  0  0  0
  160.8100  205.8860  150.6670 C   0  0  0  0  0  2  0  0  0  0  0  0
  161.1830  206.4170  149.2870 C   0  0  1  0  0  3  0  0  0  0  0  0
  162.5200  206.8250  149.3060 O   0  0  0  0  0  1  0  0  0  0  0  0
  160.7450  203.1950  149.0640 C   0  0  0  0  0  2  0  0  0  0  0  0
  162.0510  203.2090  147.4270 C   0  0  2  0  0  3  0  0  0  0  0  0
  160.9450  205.3410  148.2150 C   0  0  1  0  0  3  0  0  0  0  0  0
  161.2060  205.9100  146.8120 C   0  0  2  0  0  3  0  0  0  0  0  0
  160.3200  206.9580  146.5490 O   0  0  0  0  0  1  0  0  0  0  0  0
  161.7310  204.1280  148.5310 N   0  0  1  0  0  0  0  0  0  0  0  0
  160.9950  204.8140  145.7900 C   0  0  2  0  0  3  0  0  0  0  0  0
  162.0670  203.7800  146.0090 C   0  0  0  0  0  2  0  0  0  0  0  0
  161.1620  205.4510  144.1330 Cl  0  0  0  0  0  0  0  0  0  0  0  0
  160.7660  201.9700  147.7170 S   0  0  0  0  0  0  0  0  0  0  0  0
  1  6  1  0  0  0  0
  1  2  1  0  0  0  0
  3  5  1  0  0  0  0
  4  7  1  0  0  0  0
  4  3  2  0  0  0  0
  5  2  2  0  0  0  0
  5 13  1  0  0  0  0
  7  1  2  0  0  0  0
  9 10  1  0  0  0  0
 11  9  2  0  0  0  0
 12 10  2  0  0  0  0
 12  8  1  0  0  0  0
 13 11  1  0  0  0  0
 13 14  2  0  0  0  0
 14 12  1  0  0  0  0
 15 11  1  0  0  0  0
 16 19  1  6  0  0  0
 16 15  1  0  0  0  0
 16 25  1  0  0  0  0
 17 18  2  0  0  0  0
 17 19  1  0  0  0  0
 20 17  1  0  0  0  0
 21 22  1  0  0  0  0
 22 20  1  0  0  0  0
 23 20  2  0  0  0  0
 25 24  1  0  0  0  0
 26 25  2  0  0  0  0
 27  7  1  0  0  0  0
 28 29  1  1  0  0  0
 28 27  1  0  0  0  0
 31 37  1  6  0  0  0
 31 39  1  0  0  0  0
 31 35  1  0  0  0  0
 32 35  1  0  0  0  0
 32 28  1  1  0  0  0
 33 34  1  6  0  0  0
 33 32  1  0  0  0  0
 35 30  1  1  0  0  0
 36 38  1  6  0  0  0
 36 37  1  0  0  0  0
 36 33  1  0  0  0  0
 39 30  1  0  0  0  0
M  END
>  <MODEL>
5

>  <REMARK>
 VINA RESULT:      -6.9      2.019      2.502
  Name = 
  9 active torsions:
  status: ('A' for Active; 'I' for Inactive)
    1  A    between atoms: C_5  and  C_6
    2  A    between atoms: C_7  and  C_8
    3  A    between atoms: C_7  and  C_38
    4  A    between atoms: C_8  and  C_16
    5  A    between atoms: N_14  and  C_20
    6  A    between atoms: N_14  and  C_23
    7  A    between atoms: C_19  and  C_20
    8  A    between atoms: C_20  and  N_26
    9  A    between atoms: C_28  and  C_31
                            x       y       z     vdW  Elec       q    Type
                         _______ _______ _______ _____ _____    ______ ____

>  <TORSDO>
F 9

$$$$
=
 OpenBabel11072415093D

 39 42  0  0  1  0  0  0  0  0999 V2000
  160.9530  207.9420  152.2940 C   0  0  0  0  0  0  0  0  0  0  0  0
  160.4800  208.9650  153.1210 C   0  0  0  0  0  3  0  0  0  0  0  0
  161.4440  210.6150  151.6450 C   0  0  0  0  0  3  0  0  0  0  0  0
  161.9190  209.5960  150.8150 C   0  0  0  0  0  3  0  0  0  0  0  0
  160.7270  210.3140  152.8130 C   0  0  0  0  0  0  0  0  0  0  0  0
  160.7000  206.6510  152.6210 F   0  0  0  0  0  0  0  0  0  0  0  0
  161.6800  208.2580  151.1380 C   0  0  0  0  0  0  0  0  0  0  0  0
  160.6390  212.4890  157.2270 N   0  0  0  0  0  1  0  0  0  0  0  0
  158.7910  213.3100  154.1720 C   0  0  0  0  0  3  0  0  0  0  0  0
  159.2530  213.3330  155.4490 N   0  0  0  0  0  0  0  0  0  0  0  0
  159.2470  212.3470  153.2600 C   0  0  0  0  0  0  0  0  0  0  0  0
  160.1710  212.4340  155.8850 C   0  0  0  0  0  0  0  0  0  0  0  0
  160.1940  211.3880  153.6960 C   0  0  0  0  0  0  0  0  0  0  0  0
  160.6540  211.4530  155.0200 C   0  0  0  0  0  3  0  0  0  0  0  0
  158.7780  212.3560  151.9010 N   0  0  0  0  0  2  0  0  0  0  0  0
  158.5600  213.5330  151.0620 C   0  0  1  0  0  3  0  0  0  0  0  0
  160.4150  213.7990  149.3550 C   0  0  0  0  0  0  0  0  0  0  0  0
  161.1480  214.3840  150.1990 O   0  0  0  0  0  0  0  0  0  0  0  0
  159.1180  213.3300  149.7300 N   0  0  0  0  0  2  0  0  0  0  0  0
  160.8980  213.5970  147.9840 C   0  0  0  0  0  0  0  0  0  0  0  0
  160.5640  212.5910  145.6980 C   0  0  0  0  0  1  0  0  0  0  0  0
  160.1260  212.8260  147.0630 N   0  0  0  0  0  2  0  0  0  0  0  0
  161.9950  214.1060  147.6250 O   0  0  0  0  0  0  0  0  0  0  0  0
  156.4090  214.2270  149.7380 C   0  0  0  0  0  1  0  0  0  0  0  0
  157.1040  213.9130  151.0230 C   0  0  0  0  0  0  0  0  0  0  0  0
  156.4680  213.9390  152.0630 O   0  0  0  0  0  0  0  0  0  0  0  0
  162.1810  207.1830  150.2310 C   0  0  0  0  0  2  0  0  0  0  0  0
  161.6000  207.3400  148.8310 C   0  0  1  0  0  3  0  0  0  0  0  0
  162.5790  207.8840  147.9930 O   0  0  0  0  0  1  0  0  0  0  0  0
  160.7510  204.3990  149.9490 C   0  0  0  0  0  2  0  0  0  0  0  0
  161.8400  203.5670  148.3660 C   0  0  2  0  0  3  0  0  0  0  0  0
  161.1060  205.9850  148.2980 C   0  0  1  0  0  3  0  0  0  0  0  0
  161.2600  205.9140  146.7720 C   0  0  2  0  0  3  0  0  0  0  0  0
  160.4820  206.9050  146.1660 O   0  0  0  0  0  1  0  0  0  0  0  0
  161.7710  204.8810  149.0260 N   0  0  1  0  0  0  0  0  0  0  0  0
  160.7950  204.5570  146.2930 C   0  0  2  0  0  3  0  0  0  0  0  0
  161.7530  203.5320  146.8410 C   0  0  0  0  0  2  0  0  0  0  0  0
  160.8360  204.4660  144.5120 Cl  0  0  0  0  0  0  0  0  0  0  0  0
  160.4600  202.7610  149.2100 S   0  0  0  0  0  0  0  0  0  0  0  0
  1  6  1  0  0  0  0
  1  2  1  0  0  0  0
  3  5  1  0  0  0  0
  4  7  1  0  0  0  0
  4  3  2  0  0  0  0
  5  2  2  0  0  0  0
  5 13  1  0  0  0  0
  7  1  2  0  0  0  0
  9 10  1  0  0  0  0
 10 12  2  0  0  0  0
 11 13  1  0  0  0  0
 11  9  2  0  0  0  0
 12  8  1  0  0  0  0
 13 14  2  0  0  0  0
 14 12  1  0  0  0  0
 15 11  1  0  0  0  0
 16 19  1  6  0  0  0
 16 15  1  0  0  0  0
 17 19  1  0  0  0  0
 17 18  2  0  0  0  0
 20 17  1  0  0  0  0
 21 22  1  0  0  0  0
 22 20  1  0  0  0  0
 23 20  2  0  0  0  0
 24 25  1  0  0  0  0
 25 16  1  0  0  0  0
 25 26  2  0  0  0  0
 27  7  1  0  0  0  0
 28 29  1  6  0  0  0
 28 27  1  0  0  0  0
 31 37  1  6  0  0  0
 31 35  1  0  0  0  0
 31 39  1  0  0  0  0
 32 28  1  1  0  0  0
 32 35  1  0  0  0  0
 33 34  1  6  0  0  0
 33 32  1  0  0  0  0
 35 30  1  1  0  0  0
 36 38  1  6  0  0  0
 36 33  1  0  0  0  0
 36 37  1  0  0  0  0
 39 30  1  0  0  0  0
M  END
>  <MODEL>
6

>  <REMARK>
 VINA RESULT:      -6.8      2.216      2.975
  Name = 
  9 active torsions:
  status: ('A' for Active; 'I' for Inactive)
    1  A    between atoms: C_5  and  C_6
    2  A    between atoms: C_7  and  C_8
    3  A    between atoms: C_7  and  C_38
    4  A    between atoms: C_8  and  C_16
    5  A    between atoms: N_14  and  C_20
    6  A    between atoms: N_14  and  C_23
    7  A    between atoms: C_19  and  C_20
    8  A    between atoms: C_20  and  N_26
    9  A    between atoms: C_28  and  C_31
                            x       y       z     vdW  Elec       q    Type
                         _______ _______ _______ _____ _____    ______ ____

>  <TORSDO>
F 9

$$$$
=
 OpenBabel11072415093D

 39 42  0  0  1  0  0  0  0  0999 V2000
  161.9510  208.3670  150.4170 C   0  0  0  0  0  0  0  0  0  0  0  0
  161.5470  209.6180  150.8890 C   0  0  0  0  0  3  0  0  0  0  0  0
  160.4320  208.5640  152.7540 C   0  0  0  0  0  3  0  0  0  0  0  0
  160.8350  207.3100  152.2870 C   0  0  0  0  0  3  0  0  0  0  0  0
  160.7740  209.7340  152.0580 C   0  0  0  0  0  0  0  0  0  0  0  0
  162.6940  208.2890  149.2850 F   0  0  0  0  0  0  0  0  0  0  0  0
  161.5900  207.2060  151.1160 C   0  0  0  0  0  0  0  0  0  0  0  0
  158.9870  214.2200  151.1110 N   0  0  0  0  0  1  0  0  0  0  0  0
  160.0910  212.7590  154.2830 C   0  0  0  0  0  3  0  0  0  0  0  0
  159.6170  213.6320  153.3580 N   0  0  0  0  0  0  0  0  0  0  0  0
  160.4780  211.4620  153.9150 C   0  0  0  0  0  0  0  0  0  0  0  0
  159.4940  213.2830  152.0530 C   0  0  0  0  0  0  0  0  0  0  0  0
  160.3730  211.0780  152.5550 C   0  0  0  0  0  0  0  0  0  0  0  0
  159.8680  212.0080  151.6330 C   0  0  0  0  0  3  0  0  0  0  0  0
  160.9440  210.5340  154.9090 N   0  0  0  0  0  2  0  0  0  0  0  0
  160.1860  210.0260  156.0510 C   0  0  1  0  0  3  0  0  0  0  0  0
  158.1970  211.5080  156.5790 C   0  0  0  0  0  0  0  0  0  0  0  0
  158.9200  212.2840  157.2610 O   0  0  0  0  0  0  0  0  0  0  0  0
  158.7740  210.3720  155.9300 N   0  0  0  0  0  2  0  0  0  0  0  0
  156.7600  211.7730  156.4480 C   0  0  0  0  0  0  0  0  0  0  0  0
  154.7230  213.0660  157.1750 C   0  0  0  0  0  1  0  0  0  0  0  0
  156.1430  212.7730  157.2610 N   0  0  0  0  0  2  0  0  0  0  0  0
  156.0750  211.1150  155.6190 O   0  0  0  0  0  0  0  0  0  0  0  0
  161.7210  207.9960  156.6710 C   0  0  0  0  0  1  0  0  0  0  0  0
  160.4030  208.5480  156.2350 C   0  0  0  0  0  0  0  0  0  0  0  0
  159.4710  207.7830  156.0510 O   0  0  0  0  0  0  0  0  0  0  0  0
  162.0250  205.8590  150.6400 C   0  0  0  0  0  2  0  0  0  0  0  0
  160.9250  205.1910  149.8230 C   0  0  1  0  0  3  0  0  0  0  0  0
  160.0530  206.1760  149.3470 O   0  0  0  0  0  1  0  0  0  0  0  0
  162.6520  205.6720  147.1010 C   0  0  0  0  0  2  0  0  0  0  0  0
  161.3750  204.3170  146.1430 C   0  0  2  0  0  3  0  0  0  0  0  0
  161.5320  204.3810  148.6640 C   0  0  1  0  0  3  0  0  0  0  0  0
  160.9850  202.9460  148.6640 C   0  0  2  0  0  3  0  0  0  0  0  0
  161.3400  202.2990  149.8520 O   0  0  0  0  0  1  0  0  0  0  0  0
  161.3410  205.1020  147.3870 N   0  0  1  0  0  0  0  0  0  0  0  0
  161.5790  202.1940  147.4940 C   0  0  2  0  0  3  0  0  0  0  0  0
  161.0480  202.8260  146.2340 C   0  0  0  0  0  2  0  0  0  0  0  0
  161.0750  200.4840  147.5170 Cl  0  0  0  0  0  0  0  0  0  0  0  0
  163.0720  204.6770  145.6340 S   0  0  0  0  0  0  0  0  0  0  0  0
  1  2  2  0  0  0  0
  1  7  1  0  0  0  0
  2  5  1  0  0  0  0
  4  3  1  0  0  0  0
  5 13  1  0  0  0  0
  5  3  2  0  0  0  0
  6  1  1  0  0  0  0
  7  4  2  0  0  0  0
  8 12  1  0  0  0  0
 10  9  2  0  0  0  0
 11  9  1  0  0  0  0
 11 15  1  0  0  0  0
 12 10  1  0  0  0  0
 13 11  2  0  0  0  0
 14 12  2  0  0  0  0
 14 13  1  0  0  0  0
 16 15  1  6  0  0  0
 16 25  1  0  0  0  0
 17 18  2  0  0  0  0
 19 16  1  0  0  0  0
 19 17  1  0  0  0  0
 20 17  1  0  0  0  0
 20 22  1  0  0  0  0
 21 22  1  0  0  0  0
 23 20  2  0  0  0  0
 25 24  1  0  0  0  0
 26 25  2  0  0  0  0
 27  7  1  0  0  0  0
 28 29  1  6  0  0  0
 28 27  1  0  0  0  0
 31 37  1  1  0  0  0
 31 35  1  0  0  0  0
 32 28  1  1  0  0  0
 33 32  1  0  0  0  0
 33 34  1  1  0  0  0
 35 30  1  6  0  0  0
 35 32  1  0  0  0  0
 36 38  1  1  0  0  0
 36 33  1  0  0  0  0
 37 36  1  0  0  0  0
 39 31  1  0  0  0  0
 39 30  1  0  0  0  0
M  END
>  <MODEL>
7

>  <REMARK>
 VINA RESULT:      -5.9      2.387      4.253
  Name = 
  9 active torsions:
  status: ('A' for Active; 'I' for Inactive)
    1  A    between atoms: C_5  and  C_6
    2  A    between atoms: C_7  and  C_8
    3  A    between atoms: C_7  and  C_38
    4  A    between atoms: C_8  and  C_16
    5  A    between atoms: N_14  and  C_20
    6  A    between atoms: N_14  and  C_23
    7  A    between atoms: C_19  and  C_20
    8  A    between atoms: C_20  and  N_26
    9  A    between atoms: C_28  and  C_31
                            x       y       z     vdW  Elec       q    Type
                         _______ _______ _______ _____ _____    ______ ____

>  <TORSDO>
F 9

$$$$
=
 OpenBabel11072415093D

 39 42  0  0  1  0  0  0  0  0999 V2000
  161.1830  206.7730  152.2960 C   0  0  0  0  0  0  0  0  0  0  0  0
  160.8890  208.1260  152.4910 C   0  0  0  0  0  3  0  0  0  0  0  0
  161.6050  208.6150  150.2370 C   0  0  0  0  0  3  0  0  0  0  0  0
  161.9000  207.2640  150.0370 C   0  0  0  0  0  3  0  0  0  0  0  0
  161.1060  209.0660  151.4690 C   0  0  0  0  0  0  0  0  0  0  0  0
  160.9660  205.8920  153.3030 F   0  0  0  0  0  0  0  0  0  0  0  0
  161.6960  206.3400  151.0650 C   0  0  0  0  0  0  0  0  0  0  0  0
  158.9730  212.5090  154.2650 N   0  0  0  0  0  1  0  0  0  0  0  0
  160.7410  212.8450  151.0740 C   0  0  0  0  0  3  0  0  0  0  0  0
  160.0440  213.1350  152.2020 N   0  0  0  0  0  0  0  0  0  0  0  0
  161.1250  211.5270  150.7860 C   0  0  0  0  0  0  0  0  0  0  0  0
  159.6990  212.1690  153.0900 C   0  0  0  0  0  0  0  0  0  0  0  0
  160.7640  210.4980  151.6900 C   0  0  0  0  0  0  0  0  0  0  0  0
  160.0520  210.8420  152.8490 C   0  0  0  0  0  3  0  0  0  0  0  0
  161.8950  211.2370  149.6080 N   0  0  0  0  0  2  0  0  0  0  0  0
  161.6940  211.8020  148.2750 C   0  0  1  0  0  3  0  0  0  0  0  0
  159.6660  212.5790  146.9660 C   0  0  0  0  0  0  0  0  0  0  0  0
  160.1070  212.0460  145.9110 O   0  0  0  0  0  0  0  0  0  0  0  0
  160.4030  212.4750  148.1860 N   0  0  0  0  0  2  0  0  0  0  0  0
  158.3930  213.3070  146.9400 C   0  0  0  0  0  0  0  0  0  0  0  0
  156.3680  214.0830  145.6540 C   0  0  0  0  0  1  0  0  0  0  0  0
  157.6320  213.3680  145.7320 N   0  0  0  0  0  2  0  0  0  0  0  0
  157.9750  213.8760  147.9850 O   0  0  0  0  0  0  0  0  0  0  0  0
  162.7050  214.1880  147.8900 C   0  0  0  0  0  1  0  0  0  0  0  0
  162.8380  212.7000  147.8850 C   0  0  0  0  0  0  0  0  0  0  0  0
  163.9090  212.2010  147.5820 O   0  0  0  0  0  0  0  0  0  0  0  0
  162.0010  204.8980  150.8280 C   0  0  0  0  0  2  0  0  0  0  0  0
  160.9120  204.2430  149.9860 C   0  0  1  0  0  3  0  0  0  0  0  0
  159.9010  205.1800  149.7480 O   0  0  0  0  0  1  0  0  0  0  0  0
  162.4520  205.3470  147.3340 C   0  0  0  0  0  2  0  0  0  0  0  0
  161.2020  204.1150  146.1900 C   0  0  2  0  0  3  0  0  0  0  0  0
  161.4980  203.7110  148.6670 C   0  0  1  0  0  3  0  0  0  0  0  0
  161.0360  202.2680  148.4150 C   0  0  2  0  0  3  0  0  0  0  0  0
  161.4930  201.4330  149.4380 O   0  0  0  0  0  1  0  0  0  0  0  0
  161.1930  204.6470  147.5630 N   0  0  1  0  0  0  0  0  0  0  0  0
  161.6050  201.7940  147.0960 C   0  0  2  0  0  3  0  0  0  0  0  0
  160.9680  202.6160  146.0070 C   0  0  0  0  0  2  0  0  0  0  0  0
  161.2020  200.0800  146.8110 Cl  0  0  0  0  0  0  0  0  0  0  0  0
  162.8440  204.6790  145.6860 S   0  0  0  0  0  0  0  0  0  0  0  0
  1  2  1  0  0  0  0
  1  6  1  0  0  0  0
  3  5  1  0  0  0  0
  4  3  2  0  0  0  0
  4  7  1  0  0  0  0
  5 13  1  0  0  0  0
  5  2  2  0  0  0  0
  7  1  2  0  0  0  0
  9 10  1  0  0  0  0
 10 12  2  0  0  0  0
 11  9  2  0  0  0  0
 11 13  1  0  0  0  0
 12  8  1  0  0  0  0
 13 14  2  0  0  0  0
 14 12  1  0  0  0  0
 15 11  1  0  0  0  0
 16 25  1  1  0  0  0
 16 15  1  0  0  0  0
 17 19  1  0  0  0  0
 18 17  2  0  0  0  0
 19 16  1  0  0  0  0
 20 17  1  0  0  0  0
 20 23  2  0  0  0  0
 21 22  1  0  0  0  0
 22 20  1  0  0  0  0
 25 24  1  0  0  0  0
 26 25  2  0  0  0  0
 27  7  1  0  0  0  0
 28 29  1  6  0  0  0
 28 27  1  0  0  0  0
 31 37  1  1  0  0  0
 31 35  1  0  0  0  0
 32 28  1  1  0  0  0
 33 32  1  0  0  0  0
 33 34  1  1  0  0  0
 35 30  1  6  0  0  0
 35 32  1  0  0  0  0
 36 38  1  6  0  0  0
 36 33  1  0  0  0  0
 37 36  1  0  0  0  0
 39 31  1  0  0  0  0
 39 30  1  0  0  0  0
M  END
>  <MODEL>
8

>  <REMARK>
 VINA RESULT:      -5.6      2.534      4.051
  Name = 
  9 active torsions:
  status: ('A' for Active; 'I' for Inactive)
    1  A    between atoms: C_5  and  C_6
    2  A    between atoms: C_7  and  C_8
    3  A    between atoms: C_7  and  C_38
    4  A    between atoms: C_8  and  C_16
    5  A    between atoms: N_14  and  C_20
    6  A    between atoms: N_14  and  C_23
    7  A    between atoms: C_19  and  C_20
    8  A    between atoms: C_20  and  N_26
    9  A    between atoms: C_28  and  C_31
                            x       y       z     vdW  Elec       q    Type
                         _______ _______ _______ _____ _____    ______ ____

>  <TORSDO>
F 9

$$$$
=
 OpenBabel11072415093D

 39 42  0  0  1  0  0  0  0  0999 V2000
  160.8180  207.2580  150.1670 C   0  0  0  0  0  0  0  0  0  0  0  0
  161.0800  208.1640  151.1990 C   0  0  0  0  0  3  0  0  0  0  0  0
  160.8150  206.4010  152.8270 C   0  0  0  0  0  3  0  0  0  0  0  0
  160.5530  205.4910  151.7990 C   0  0  0  0  0  3  0  0  0  0  0  0
  161.0720  207.7510  152.5420 C   0  0  0  0  0  0  0  0  0  0  0  0
  160.8300  207.6900  148.8820 F   0  0  0  0  0  0  0  0  0  0  0  0
  160.5480  205.9150  150.4680 C   0  0  0  0  0  0  0  0  0  0  0  0
  162.1770  208.6110  157.2600 N   0  0  0  0  0  1  0  0  0  0  0  0
  161.6900  210.9690  154.4990 C   0  0  0  0  0  3  0  0  0  0  0  0
  161.9300  210.4550  155.7330 N   0  0  0  0  0  0  0  0  0  0  0  0
  161.4120  210.1280  153.4120 C   0  0  0  0  0  0  0  0  0  0  0  0
  161.9160  209.1170  155.9570 C   0  0  0  0  0  0  0  0  0  0  0  0
  161.3760  208.7280  153.6230 C   0  0  0  0  0  0  0  0  0  0  0  0
  161.6400  208.2370  154.9110 C   0  0  0  0  0  3  0  0  0  0  0  0
  161.1950  210.6820  152.1030 N   0  0  0  0  0  2  0  0  0  0  0  0
  160.4650  211.9080  151.7860 C   0  0  1  0  0  3  0  0  0  0  0  0
  160.6140  213.4540  149.7810 C   0  0  0  0  0  0  0  0  0  0  0  0
  160.7990  214.4530  150.5280 O   0  0  0  0  0  0  0  0  0  0  0  0
  160.4600  212.1500  150.3470 N   0  0  0  0  0  2  0  0  0  0  0  0
  160.5570  213.6310  148.3260 C   0  0  0  0  0  0  0  0  0  0  0  0
  161.6750  214.3630  146.1890 C   0  0  0  0  0  1  0  0  0  0  0  0
  161.6850  214.1610  147.6280 N   0  0  0  0  0  2  0  0  0  0  0  0
  159.5110  213.3140  147.6970 O   0  0  0  0  0  0  0  0  0  0  0  0
  158.2520  213.1250  152.4780 C   0  0  0  0  0  1  0  0  0  0  0  0
  159.0780  211.8850  152.3700 C   0  0  0  0  0  0  0  0  0  0  0  0
  158.6060  210.8230  152.7390 O   0  0  0  0  0  0  0  0  0  0  0  0
  160.2820  204.9260  149.3830 C   0  0  0  0  0  2  0  0  0  0  0  0
  161.4970  204.0360  149.1500 C   0  0  1  0  0  3  0  0  0  0  0  0
  161.3250  202.8410  149.8560 O   0  0  0  0  0  1  0  0  0  0  0  0
  162.8000  205.4660  146.5270 C   0  0  0  0  0  2  0  0  0  0  0  0
  161.0950  204.8870  145.4590 C   0  0  2  0  0  3  0  0  0  0  0  0
  161.6890  203.7700  147.6470 C   0  0  1  0  0  3  0  0  0  0  0  0
  160.8260  202.5830  147.1930 C   0  0  2  0  0  3  0  0  0  0  0  0
  161.2140  201.4240  147.8710 O   0  0  0  0  0  1  0  0  0  0  0  0
  161.4590  205.0140  146.8790 N   0  0  1  0  0  0  0  0  0  0  0  0
  161.0170  202.3770  145.7070 C   0  0  2  0  0  3  0  0  0  0  0  0
  160.4450  203.5800  145.0060 C   0  0  0  0  0  2  0  0  0  0  0  0
  160.1340  200.9310  145.1500 Cl  0  0  0  0  0  0  0  0  0  0  0  0
  162.7170  205.2050  144.7270 S   0  0  0  0  0  0  0  0  0  0  0  0
  1  7  2  0  0  0  0
  1  2  1  0  0  0  0
  2  5  2  0  0  0  0
  4  3  2  0  0  0  0
  5  3  1  0  0  0  0
  5 13  1  0  0  0  0
  6  1  1  0  0  0  0
  7  4  1  0  0  0  0
  9 10  1  0  0  0  0
 10 12  2  0  0  0  0
 11 13  1  0  0  0  0
 11  9  2  0  0  0  0
 12  8  1  0  0  0  0
 13 14  2  0  0  0  0
 14 12  1  0  0  0  0
 15 11  1  0  0  0  0
 16 19  1  6  0  0  0
 16 15  1  0  0  0  0
 16 25  1  0  0  0  0
 17 19  1  0  0  0  0
 17 18  2  0  0  0  0
 20 17  1  0  0  0  0
 21 22  1  0  0  0  0
 22 20  1  0  0  0  0
 23 20  2  0  0  0  0
 25 24  1  0  0  0  0
 25 26  2  0  0  0  0
 27  7  1  0  0  0  0
 28 27  1  0  0  0  0
 28 29  1  1  0  0  0
 31 37  1  1  0  0  0
 31 35  1  0  0  0  0
 32 28  1  1  0  0  0
 33 32  1  0  0  0  0
 33 34  1  1  0  0  0
 35 30  1  6  0  0  0
 35 32  1  0  0  0  0
 36 38  1  6  0  0  0
 36 33  1  0  0  0  0
 37 36  1  0  0  0  0
 39 31  1  0  0  0  0
 39 30  1  0  0  0  0
M  END
>  <MODEL>
9

>  <REMARK>
 VINA RESULT:      -5.4      2.037      2.530
  Name = 
  9 active torsions:
  status: ('A' for Active; 'I' for Inactive)
    1  A    between atoms: C_5  and  C_6
    2  A    between atoms: C_7  and  C_8
    3  A    between atoms: C_7  and  C_38
    4  A    between atoms: C_8  and  C_16
    5  A    between atoms: N_14  and  C_20
    6  A    between atoms: N_14  and  C_23
    7  A    between atoms: C_19  and  C_20
    8  A    between atoms: C_20  and  N_26
    9  A    between atoms: C_28  and  C_31
                            x       y       z     vdW  Elec       q    Type
                         _______ _______ _______ _____ _____    ______ ____

>  <TORSDO>
F 9

$$$$
