=
 OpenBabel11072411553D

 32 36  0  0  1  0  0  0  0  0999 V2000
  160.4750  204.4040  151.0960 N   0  0  2  0  0  0  0  0  0  0  0  0
  161.8700  205.3740  152.8430 C   0  0  0  0  0  2  0  0  0  0  0  0
  161.8460  206.2980  151.6580 C   0  0  1  0  0  3  0  0  0  0  0  0
  160.6790  205.8260  150.8230 C   0  0  0  0  0  2  0  0  0  0  0  0
  161.0770  204.1550  152.4110 C   0  0  0  0  0  2  0  0  0  0  0  0
  161.4910  210.4260  152.7600 C   0  0  0  0  0  3  0  0  0  0  0  0
  160.3980  209.8870  154.9510 C   0  0  1  0  0  3  0  0  0  0  0  0
  162.0390  210.0640  151.5730 N   0  0  0  0  0  0  0  0  0  0  0  0
  162.1520  208.7600  151.2060 C   0  0  0  0  0  3  0  0  0  0  0  0
  160.2740  208.7590  155.9380 C   0  0  0  0  0  0  0  0  0  0  0  0
  160.7350  207.0500  154.2630 C   0  0  0  0  0  3  0  0  0  0  0  0
  160.0600  209.0160  157.1510 O   0  0  0  0  0  0  0  0  0  0  0  0
  161.0340  209.4530  153.6530 C   0  0  0  0  0  0  0  0  0  0  0  0
  161.1470  208.0920  153.3000 C   0  0  0  0  0  0  0  0  0  0  0  0
  160.3410  207.3590  155.4970 C   0  0  0  0  0  3  0  0  0  0  0  0
  161.7010  207.7400  152.0570 C   0  0  0  0  0  0  0  0  0  0  0  0
  159.0800  210.4450  154.6890 N   0  0  0  0  0  2  0  0  0  0  0  0
  159.0880  211.8110  155.1850 C   0  0  0  0  0  2  0  0  0  0  0  0
  158.8040  212.7770  154.0520 C   0  0  0  0  0  2  0  0  0  0  0  0
  158.3530  212.0760  152.9330 O   0  0  0  0  0  1  0  0  0  0  0  0
  161.5050  203.2400  147.7500 C   0  0  1  0  0  3  0  0  0  0  0  0
  161.1330  203.1830  145.2940 C   0  0  0  0  0  3  0  0  0  0  0  0
  159.8840  201.5590  146.6520 C   0  0  0  0  0  2  0  0  0  0  0  0
  160.7470  201.8790  147.8700 C   0  0  2  0  0  3  0  0  0  0  0  0
  159.9360  201.8370  149.0250 O   0  0  0  0  0  0  0  0  0  0  0  0
  161.5190  203.8700  146.3760 C   0  0  0  0  0  0  0  0  0  0  0  0
  160.7560  202.1360  150.1280 C   0  0  0  0  0  2  0  0  0  0  0  0
  161.2040  203.6150  150.0930 C   0  0  1  0  0  3  0  0  0  0  0  0
  160.6950  201.7560  145.3840 C   0  0  0  0  0  2  0  0  0  0  0  0
  161.0070  204.1830  148.7490 N   0  0  0  0  0  2  0  0  0  0  0  0
  161.1230  206.1810  145.9180 O   0  0  0  0  0  1  0  0  0  0  0  0
  161.9610  205.1890  146.2510 O   0  0  0  0  0  0  0  0  0  0  0  0
  1  4  1  6  0  0  0
  1  5  1  0  0  0  0
  3 16  1  1  0  0  0
  3  2  1  0  0  0  0
  4  3  1  0  0  0  0
  5  2  1  0  0  0  0
  6 13  1  0  0  0  0
  7 17  1  6  0  0  0
  7 10  1  0  0  0  0
  8  6  2  0  0  0  0
  9  8  1  0  0  0  0
  9 16  2  0  0  0  0
 10 12  2  0  0  0  0
 11 15  2  0  0  0  0
 13  7  1  0  0  0  0
 14 13  2  0  0  0  0
 14 11  1  0  0  0  0
 15 10  1  0  0  0  0
 16 14  1  0  0  0  0
 17 18  1  0  0  0  0
 19 18  1  0  0  0  0
 20 19  1  0  0  0  0
 21 26  1  6  0  0  0
 21 24  1  0  0  0  0
 21 30  1  0  0  0  0
 22 29  1  0  0  0  0
 22 26  2  0  0  0  0
 24 23  1  6  0  0  0
 24 25  1  0  0  0  0
 25 27  1  0  0  0  0
 28 27  1  6  0  0  0
 28  1  1  0  0  0  0
 29 23  1  0  0  0  0
 30 28  1  0  0  0  0
 31 32  1  0  0  0  0
 32 26  1  0  0  0  0
M  END
>  <MODEL>
1

>  <REMARK>
 VINA RESULT:      -8.8      0.000      0.000
  Name = 
  6 active torsions:
  status: ('A' for Active; 'I' for Inactive)
    1  A    between atoms: C_3  and  C_6
    2  A    between atoms: C_3  and  N_19
    3  A    between atoms: C_4  and  N_19
    4  A    between atoms: N_11  and  C_24
    5  A    between atoms: C_16  and  O_26
    6  A    between atoms: C_20  and  C_32
                            x       y       z     vdW  Elec       q    Type
                         _______ _______ _______ _____ _____    ______ ____

>  <TORSDO>
F 6

$$$$
=
 OpenBabel11072411553D

 32 36  0  0  1  0  0  0  0  0999 V2000
  161.0740  208.5930  149.8930 N   0  0  2  0  0  0  0  0  0  0  0  0
  162.7060  207.9320  148.2080 C   0  0  0  0  0  2  0  0  0  0  0  0
  162.1950  206.7060  148.9110 C   0  0  1  0  0  3  0  0  0  0  0  0
  160.9430  207.1620  149.6230 C   0  0  0  0  0  2  0  0  0  0  0  0
  162.0500  209.0990  148.9210 C   0  0  0  0  0  2  0  0  0  0  0  0
  161.3800  203.5220  146.1580 C   0  0  0  0  0  3  0  0  0  0  0  0
  160.7840  201.9130  147.9860 C   0  0  1  0  0  3  0  0  0  0  0  0
  161.7910  204.7380  145.7190 N   0  0  0  0  0  0  0  0  0  0  0  0
  162.0610  205.7550  146.5800 C   0  0  0  0  0  3  0  0  0  0  0  0
  160.3170  201.9040  149.4160 C   0  0  0  0  0  0  0  0  0  0  0  0
  161.2290  204.1160  149.8800 C   0  0  0  0  0  3  0  0  0  0  0  0
  159.6490  200.9270  149.8450 O   0  0  0  0  0  0  0  0  0  0  0  0
  161.2090  203.2860  147.5250 C   0  0  0  0  0  0  0  0  0  0  0  0
  161.4740  204.3270  148.4390 C   0  0  0  0  0  0  0  0  0  0  0  0
  160.6770  202.9920  150.3350 C   0  0  0  0  0  3  0  0  0  0  0  0
  161.9170  205.5740  147.9620 C   0  0  0  0  0  0  0  0  0  0  0  0
  161.8910  200.9800  147.8360 N   0  0  0  0  0  2  0  0  0  0  0  0
  161.3290  199.7220  147.3740 C   0  0  0  0  0  2  0  0  0  0  0  0
  161.2120  199.7300  145.8630 C   0  0  0  0  0  2  0  0  0  0  0  0
  161.2280  198.4210  145.3780 O   0  0  0  0  0  1  0  0  0  0  0  0
  161.2310  208.4150  153.5750 C   0  0  1  0  0  3  0  0  0  0  0  0
  160.1050  207.9870  155.7480 C   0  0  0  0  0  3  0  0  0  0  0  0
  159.8800  210.2420  154.7970 C   0  0  0  0  0  2  0  0  0  0  0  0
  160.9690  209.9430  153.7690 C   0  0  2  0  0  3  0  0  0  0  0  0
  160.6290  210.5700  152.5510 O   0  0  0  0  0  0  0  0  0  0  0  0
  160.6150  207.5020  154.6090 C   0  0  0  0  0  0  0  0  0  0  0  0
  161.6460  210.2750  151.6260 C   0  0  0  0  0  2  0  0  0  0  0  0
  161.6230  208.7780  151.2430 C   0  0  1  0  0  3  0  0  0  0  0  0
  160.1400  209.4480  156.0640 C   0  0  0  0  0  2  0  0  0  0  0  0
  160.8450  208.0060  152.2250 N   0  0  0  0  0  2  0  0  0  0  0  0
  161.4940  205.5520  153.5440 O   0  0  0  0  0  1  0  0  0  0  0  0
  160.6020  206.1260  154.3640 O   0  0  0  0  0  0  0  0  0  0  0  0
  1  5  1  6  0  0  0
  1 28  1  0  0  0  0
  2  3  1  0  0  0  0
  2  5  1  0  0  0  0
  3 16  1  6  0  0  0
  3  4  1  0  0  0  0
  4  1  1  0  0  0  0
  6 13  1  0  0  0  0
  7 17  1  1  0  0  0
  7 10  1  0  0  0  0
  8  6  2  0  0  0  0
  8  9  1  0  0  0  0
  9 16  2  0  0  0  0
 10 12  2  0  0  0  0
 10 15  1  0  0  0  0
 11 15  2  0  0  0  0
 13  7  1  0  0  0  0
 13 14  2  0  0  0  0
 14 11  1  0  0  0  0
 16 14  1  0  0  0  0
 18 17  1  0  0  0  0
 19 18  1  0  0  0  0
 20 19  1  0  0  0  0
 21 30  1  6  0  0  0
 21 24  1  0  0  0  0
 21 26  1  0  0  0  0
 22 29  1  0  0  0  0
 23 29  1  0  0  0  0
 24 23  1  1  0  0  0
 25 24  1  0  0  0  0
 26 22  2  0  0  0  0
 27 25  1  0  0  0  0
 28 27  1  1  0  0  0
 28 30  1  0  0  0  0
 31 32  1  0  0  0  0
 32 26  1  0  0  0  0
M  END
>  <MODEL>
2

>  <REMARK>
 VINA RESULT:      -8.6      2.519      9.176
  Name = 
  6 active torsions:
  status: ('A' for Active; 'I' for Inactive)
    1  A    between atoms: C_3  and  C_6
    2  A    between atoms: C_3  and  N_19
    3  A    between atoms: C_4  and  N_19
    4  A    between atoms: N_11  and  C_24
    5  A    between atoms: C_16  and  O_26
    6  A    between atoms: C_20  and  C_32
                            x       y       z     vdW  Elec       q    Type
                         _______ _______ _______ _____ _____    ______ ____

>  <TORSDO>
F 6

$$$$
=
 OpenBabel11072411553D

 32 36  0  0  1  0  0  0  0  0999 V2000
  162.1370  208.3680  151.1850 N   0  0  2  0  0  0  0  0  0  0  0  0
  161.2050  210.4640  152.0050 C   0  0  0  0  0  2  0  0  0  0  0  0
  160.6000  209.3210  152.7690 C   0  0  1  0  0  3  0  0  0  0  0  0
  161.5030  208.1440  152.4830 C   0  0  0  0  0  2  0  0  0  0  0  0
  162.0890  209.8170  150.9570 C   0  0  0  0  0  2  0  0  0  0  0  0
  160.3430  210.0640  156.9830 C   0  0  0  0  0  3  0  0  0  0  0  0
  158.2430  211.4150  156.7550 C   0  0  1  0  0  3  0  0  0  0  0  0
  161.3640  209.3380  156.4630 N   0  0  0  0  0  0  0  0  0  0  0  0
  161.4630  209.1010  155.1280 C   0  0  0  0  0  3  0  0  0  0  0  0
  157.0860  211.6080  155.8140 C   0  0  0  0  0  0  0  0  0  0  0  0
  158.3410  210.8210  153.8780 C   0  0  0  0  0  3  0  0  0  0  0  0
  155.9780  212.0010  156.2640 O   0  0  0  0  0  0  0  0  0  0  0  0
  159.3480  210.5820  156.1500 C   0  0  0  0  0  0  0  0  0  0  0  0
  159.4230  210.3420  154.7620 C   0  0  0  0  0  0  0  0  0  0  0  0
  157.2450  211.3990  154.3680 C   0  0  0  0  0  3  0  0  0  0  0  0
  160.5000  209.6030  154.2420 C   0  0  0  0  0  0  0  0  0  0  0  0
  158.7660  212.7140  157.1460 N   0  0  0  0  0  2  0  0  0  0  0  0
  159.6440  213.1610  156.0760 C   0  0  0  0  0  2  0  0  0  0  0  0
  159.1210  214.4530  155.4820 C   0  0  0  0  0  2  0  0  0  0  0  0
  158.8920  214.2890  154.1150 O   0  0  0  0  0  1  0  0  0  0  0  0
  160.9470  205.6370  149.0080 C   0  0  1  0  0  3  0  0  0  0  0  0
  161.2350  203.3430  148.0990 C   0  0  0  0  0  3  0  0  0  0  0  0
  162.4530  205.1550  146.9690 C   0  0  0  0  0  2  0  0  0  0  0  0
  161.6450  206.2030  147.7300 C   0  0  2  0  0  3  0  0  0  0  0  0
  162.4910  207.2910  148.0410 O   0  0  0  0  0  0  0  0  0  0  0  0
  160.9170  204.1310  149.1330 C   0  0  0  0  0  0  0  0  0  0  0  0
  161.7220  208.2370  148.7410 C   0  0  0  0  0  2  0  0  0  0  0  0
  161.3410  207.7060  150.1420 C   0  0  1  0  0  3  0  0  0  0  0  0
  161.6110  203.9080  146.7660 C   0  0  0  0  0  2  0  0  0  0  0  0
  161.5200  206.2470  150.2070 N   0  0  0  0  0  2  0  0  0  0  0  0
  161.2260  202.5700  150.9150 O   0  0  0  0  0  1  0  0  0  0  0  0
  160.5310  203.5690  150.3520 O   0  0  0  0  0  0  0  0  0  0  0  0
  1  5  1  6  0  0  0
  1  4  1  0  0  0  0
  2  3  1  0  0  0  0
  3 16  1  1  0  0  0
  4  3  1  0  0  0  0
  5  2  1  0  0  0  0
  7 17  1  6  0  0  0
  8  6  1  0  0  0  0
  9  8  2  0  0  0  0
 10 12  2  0  0  0  0
 10  7  1  0  0  0  0
 11 15  2  0  0  0  0
 11 14  1  0  0  0  0
 13  7  1  0  0  0  0
 13  6  2  0  0  0  0
 14 13  1  0  0  0  0
 15 10  1  0  0  0  0
 16 14  2  0  0  0  0
 16  9  1  0  0  0  0
 18 17  1  0  0  0  0
 19 18  1  0  0  0  0
 20 19  1  0  0  0  0
 21 26  1  1  0  0  0
 21 30  1  0  0  0  0
 22 26  2  0  0  0  0
 24 23  1  1  0  0  0
 24 25  1  0  0  0  0
 24 21  1  0  0  0  0
 25 27  1  0  0  0  0
 26 32  1  0  0  0  0
 28 27  1  6  0  0  0
 28 30  1  0  0  0  0
 28  1  1  0  0  0  0
 29 23  1  0  0  0  0
 29 22  1  0  0  0  0
 32 31  1  0  0  0  0
M  END
>  <MODEL>
3

>  <REMARK>
 VINA RESULT:      -8.5      2.188      4.146
  Name = 
  6 active torsions:
  status: ('A' for Active; 'I' for Inactive)
    1  A    between atoms: C_3  and  C_6
    2  A    between atoms: C_3  and  N_19
    3  A    between atoms: C_4  and  N_19
    4  A    between atoms: N_11  and  C_24
    5  A    between atoms: C_16  and  O_26
    6  A    between atoms: C_20  and  C_32
                            x       y       z     vdW  Elec       q    Type
                         _______ _______ _______ _____ _____    ______ ____

>  <TORSDO>
F 6

$$$$
=
 OpenBabel11072411553D

 32 36  0  0  1  0  0  0  0  0999 V2000
  161.3200  208.6210  156.2500 N   0  0  2  0  0  0  0  0  0  0  0  0
  159.7480  206.9510  155.4260 C   0  0  0  0  0  2  0  0  0  0  0  0
  160.4340  207.6030  154.2600 C   0  0  1  0  0  3  0  0  0  0  0  0
  161.6320  208.3030  154.8580 C   0  0  0  0  0  2  0  0  0  0  0  0
  160.2610  207.6860  156.6500 C   0  0  0  0  0  2  0  0  0  0  0  0
  161.6100  204.7410  151.2930 C   0  0  0  0  0  3  0  0  0  0  0  0
  161.8430  206.4860  149.5070 C   0  0  1  0  0  3  0  0  0  0  0  0
  161.3150  204.3540  152.5590 N   0  0  0  0  0  0  0  0  0  0  0  0
  160.9330  205.2490  153.5090 C   0  0  0  0  0  3  0  0  0  0  0  0
  162.0620  207.9660  149.3540 C   0  0  0  0  0  0  0  0  0  0  0  0
  161.1480  208.4750  151.5560 C   0  0  0  0  0  3  0  0  0  0  0  0
  162.6190  208.4070  148.3160 O   0  0  0  0  0  0  0  0  0  0  0  0
  161.5420  206.0890  150.9320 C   0  0  0  0  0  0  0  0  0  0  0  0
  161.1560  207.0390  151.9020 C   0  0  0  0  0  0  0  0  0  0  0  0
  161.5830  208.9090  150.3740 C   0  0  0  0  0  3  0  0  0  0  0  0
  160.8360  206.6130  153.2030 C   0  0  0  0  0  0  0  0  0  0  0  0
  160.7510  206.0690  148.6410 N   0  0  0  0  0  2  0  0  0  0  0  0
  161.3270  205.2310  147.6020 C   0  0  0  0  0  2  0  0  0  0  0  0
  161.1520  205.8880  146.2480 C   0  0  0  0  0  2  0  0  0  0  0  0
  162.3480  205.8260  145.5310 O   0  0  0  0  0  1  0  0  0  0  0  0
  159.0360  211.4390  155.5750 C   0  0  1  0  0  3  0  0  0  0  0  0
  157.1680  212.4130  154.2580 C   0  0  0  0  0  3  0  0  0  0  0  0
  159.4280  212.6200  153.3150 C   0  0  0  0  0  2  0  0  0  0  0  0
  160.0470  212.1760  154.6380 C   0  0  2  0  0  3  0  0  0  0  0  0
  161.1780  211.3770  154.3650 O   0  0  0  0  0  0  0  0  0  0  0  0
  157.5800  211.5410  155.1860 C   0  0  0  0  0  0  0  0  0  0  0  0
  161.7240  210.9820  155.5990 C   0  0  0  0  0  2  0  0  0  0  0  0
  160.7850  209.9880  156.3210 C   0  0  1  0  0  3  0  0  0  0  0  0
  158.1200  213.3440  153.5790 C   0  0  0  0  0  2  0  0  0  0  0  0
  159.4330  210.0420  155.7430 N   0  0  0  0  0  2  0  0  0  0  0  0
  155.5120  210.3430  155.2380 O   0  0  0  0  0  1  0  0  0  0  0  0
  156.6570  210.7130  155.8310 O   0  0  0  0  0  0  0  0  0  0  0  0
  1  4  1  6  0  0  0
  1 28  1  0  0  0  0
  1  5  1  0  0  0  0
  2  5  1  0  0  0  0
  3 16  1  6  0  0  0
  3  4  1  0  0  0  0
  3  2  1  0  0  0  0
  6  8  1  0  0  0  0
  7 17  1  6  0  0  0
  7 13  1  0  0  0  0
  8  9  2  0  0  0  0
 10  7  1  0  0  0  0
 10 15  1  0  0  0  0
 11 14  1  0  0  0  0
 12 10  2  0  0  0  0
 13  6  2  0  0  0  0
 13 14  1  0  0  0  0
 14 16  2  0  0  0  0
 15 11  2  0  0  0  0
 16  9  1  0  0  0  0
 18 17  1  0  0  0  0
 19 18  1  0  0  0  0
 20 19  1  0  0  0  0
 21 26  1  6  0  0  0
 21 30  1  0  0  0  0
 22 26  2  0  0  0  0
 23 29  1  0  0  0  0
 24 23  1  6  0  0  0
 24 21  1  0  0  0  0
 25 24  1  0  0  0  0
 25 27  1  0  0  0  0
 26 32  1  0  0  0  0
 28 27  1  6  0  0  0
 29 22  1  0  0  0  0
 30 28  1  0  0  0  0
 31 32  1  0  0  0  0
M  END
>  <MODEL>
4

>  <REMARK>
 VINA RESULT:      -8.1      2.433      8.868
  Name = 
  6 active torsions:
  status: ('A' for Active; 'I' for Inactive)
    1  A    between atoms: C_3  and  C_6
    2  A    between atoms: C_3  and  N_19
    3  A    between atoms: C_4  and  N_19
    4  A    between atoms: N_11  and  C_24
    5  A    between atoms: C_16  and  O_26
    6  A    between atoms: C_20  and  C_32
                            x       y       z     vdW  Elec       q    Type
                         _______ _______ _______ _____ _____    ______ ____

>  <TORSDO>
F 6

$$$$
=
 OpenBabel11072411553D

 32 36  0  0  1  0  0  0  0  0999 V2000
  162.1020  206.3320  150.9940 N   0  0  2  0  0  0  0  0  0  0  0  0
  161.9430  208.5960  151.8810 C   0  0  0  0  0  2  0  0  0  0  0  0
  160.8320  207.7610  152.4510 C   0  0  1  0  0  3  0  0  0  0  0  0
  161.2380  206.3330  152.1730 C   0  0  0  0  0  2  0  0  0  0  0  0
  162.6570  207.6870  150.8980 C   0  0  0  0  0  2  0  0  0  0  0  0
  160.2110  208.3990  156.6450 C   0  0  0  0  0  3  0  0  0  0  0  0
  159.7340  210.8420  156.3410 C   0  0  1  0  0  3  0  0  0  0  0  0
  160.5380  207.1730  156.1650 N   0  0  0  0  0  0  0  0  0  0  0  0
  160.7450  206.9570  154.8390 C   0  0  0  0  0  3  0  0  0  0  0  0
  159.2780  211.8110  155.2850 C   0  0  0  0  0  0  0  0  0  0  0  0
  160.0450  210.4000  153.4520 C   0  0  0  0  0  3  0  0  0  0  0  0
  158.6790  212.8640  155.6260 O   0  0  0  0  0  0  0  0  0  0  0  0
  160.0650  209.4820  155.7740 C   0  0  0  0  0  0  0  0  0  0  0  0
  160.2660  209.2830  154.3920 C   0  0  0  0  0  0  0  0  0  0  0  0
  159.5720  211.5750  153.8650 C   0  0  0  0  0  3  0  0  0  0  0  0
  160.6230  208.0080  153.9190 C   0  0  0  0  0  0  0  0  0  0  0  0
  160.8990  211.3860  157.0220 N   0  0  0  0  0  2  0  0  0  0  0  0
  162.0580  211.0760  156.2000 C   0  0  0  0  0  2  0  0  0  0  0  0
  163.1740  210.5250  157.0640 C   0  0  0  0  0  2  0  0  0  0  0  0
  164.2130  211.4540  157.1470 O   0  0  0  0  0  1  0  0  0  0  0  0
  161.0600  204.7320  147.8370 C   0  0  1  0  0  3  0  0  0  0  0  0
  161.5720  203.2230  145.9310 C   0  0  0  0  0  3  0  0  0  0  0  0
  162.3310  205.5530  145.7460 C   0  0  0  0  0  2  0  0  0  0  0  0
  161.4830  205.9490  146.9530 C   0  0  2  0  0  3  0  0  0  0  0  0
  162.1850  206.9160  147.7040 O   0  0  0  0  0  0  0  0  0  0  0  0
  161.2800  203.3660  147.2290 C   0  0  0  0  0  0  0  0  0  0  0  0
  161.3820  207.2590  148.8070 C   0  0  0  0  0  2  0  0  0  0  0  0
  161.2820  206.0790  149.8010 C   0  0  1  0  0  3  0  0  0  0  0  0
  161.6710  204.3990  145.0130 C   0  0  0  0  0  2  0  0  0  0  0  0
  161.6910  204.8230  149.1530 N   0  0  0  0  0  2  0  0  0  0  0  0
  160.0790  202.0570  148.8270 O   0  0  0  0  0  1  0  0  0  0  0  0
  161.1550  202.2410  148.0490 O   0  0  0  0  0  0  0  0  0  0  0  0
  1  5  1  6  0  0  0
  1  4  1  0  0  0  0
  2  3  1  0  0  0  0
  3 16  1  1  0  0  0
  4  3  1  0  0  0  0
  5  2  1  0  0  0  0
  7 17  1  6  0  0  0
  8  6  1  0  0  0  0
  9  8  2  0  0  0  0
 10 12  2  0  0  0  0
 10  7  1  0  0  0  0
 11 15  2  0  0  0  0
 11 14  1  0  0  0  0
 13  7  1  0  0  0  0
 13  6  2  0  0  0  0
 14 13  1  0  0  0  0
 15 10  1  0  0  0  0
 16 14  2  0  0  0  0
 16  9  1  0  0  0  0
 18 17  1  0  0  0  0
 18 19  1  0  0  0  0
 19 20  1  0  0  0  0
 21 26  1  6  0  0  0
 21 30  1  0  0  0  0
 22 26  2  0  0  0  0
 24 23  1  6  0  0  0
 24 25  1  0  0  0  0
 24 21  1  0  0  0  0
 25 27  1  0  0  0  0
 26 32  1  0  0  0  0
 28 27  1  6  0  0  0
 28  1  1  0  0  0  0
 29 23  1  0  0  0  0
 29 22  1  0  0  0  0
 30 28  1  0  0  0  0
 32 31  1  0  0  0  0
M  END
>  <MODEL>
5

>  <REMARK>
 VINA RESULT:      -8.1      1.970      3.783
  Name = 
  6 active torsions:
  status: ('A' for Active; 'I' for Inactive)
    1  A    between atoms: C_3  and  C_6
    2  A    between atoms: C_3  and  N_19
    3  A    between atoms: C_4  and  N_19
    4  A    between atoms: N_11  and  C_24
    5  A    between atoms: C_16  and  O_26
    6  A    between atoms: C_20  and  C_32
                            x       y       z     vdW  Elec       q    Type
                         _______ _______ _______ _____ _____    ______ ____

>  <TORSDO>
F 6

$$$$
=
 OpenBabel11072411553D

 32 36  0  0  1  0  0  0  0  0999 V2000
  161.8220  207.6910  153.8040 N   0  0  2  0  0  0  0  0  0  0  0  0
  161.3700  205.7040  152.4680 C   0  0  0  0  0  2  0  0  0  0  0  0
  160.8360  206.9130  151.7540 C   0  0  1  0  0  3  0  0  0  0  0  0
  161.4970  208.0880  152.4350 C   0  0  0  0  0  2  0  0  0  0  0  0
  161.8930  206.2250  153.7930 C   0  0  0  0  0  2  0  0  0  0  0  0
  161.6350  206.8940  147.5420 C   0  0  0  0  0  3  0  0  0  0  0  0
  161.5390  204.3920  147.3980 C   0  0  1  0  0  3  0  0  0  0  0  0
  161.5750  208.0580  148.2370 N   0  0  0  0  0  0  0  0  0  0  0  0
  161.3300  208.0790  149.5740 C   0  0  0  0  0  3  0  0  0  0  0  0
  160.9680  203.2100  148.1320 C   0  0  0  0  0  0  0  0  0  0  0  0
  160.8780  204.3920  150.2620 C   0  0  0  0  0  3  0  0  0  0  0  0
  160.7010  202.1560  147.4990 O   0  0  0  0  0  0  0  0  0  0  0  0
  161.4310  205.6730  148.1910 C   0  0  0  0  0  0  0  0  0  0  0  0
  161.1670  205.6680  149.5760 C   0  0  0  0  0  0  0  0  0  0  0  0
  160.7720  203.2480  149.5870 C   0  0  0  0  0  3  0  0  0  0  0  0
  161.1280  206.8850  150.2800 C   0  0  0  0  0  0  0  0  0  0  0  0
  162.9330  204.1300  147.0750 N   0  0  0  0  0  2  0  0  0  0  0  0
  163.0920  204.3640  145.6490 C   0  0  0  0  0  2  0  0  0  0  0  0
  161.7450  204.2920  144.9580 C   0  0  0  0  0  2  0  0  0  0  0  0
  161.5220  205.4600  144.2280 O   0  0  0  0  0  1  0  0  0  0  0  0
  159.3460  209.9290  155.3780 C   0  0  1  0  0  3  0  0  0  0  0  0
  158.4930  212.2250  155.7900 C   0  0  0  0  0  3  0  0  0  0  0  0
  160.2900  211.4200  157.2610 C   0  0  0  0  0  2  0  0  0  0  0  0
  160.1090  209.9960  156.7400 C   0  0  2  0  0  3  0  0  0  0  0  0
  161.3770  209.3790  156.6540 O   0  0  0  0  0  0  0  0  0  0  0  0
  158.6540  211.2000  154.9450 C   0  0  0  0  0  0  0  0  0  0  0  0
  161.1800  208.0730  156.1710 C   0  0  0  0  0  2  0  0  0  0  0  0
  160.7250  208.0980  154.6940 C   0  0  1  0  0  3  0  0  0  0  0  0
  158.9630  212.1560  157.2080 C   0  0  0  0  0  2  0  0  0  0  0  0
  160.2340  209.4360  154.3270 N   0  0  0  0  0  2  0  0  0  0  0  0
  158.4110  212.3510  152.8650 O   0  0  0  0  0  1  0  0  0  0  0  0
  158.1660  211.2840  153.6380 O   0  0  0  0  0  0  0  0  0  0  0  0
  1  4  1  6  0  0  0
  1 28  1  0  0  0  0
  2  5  1  0  0  0  0
  3 16  1  6  0  0  0
  3  4  1  0  0  0  0
  3  2  1  0  0  0  0
  5  1  1  0  0  0  0
  6 13  2  0  0  0  0
  6  8  1  0  0  0  0
  7 17  1  1  0  0  0
  7 10  1  0  0  0  0
  7 13  1  0  0  0  0
  8  9  2  0  0  0  0
  9 16  1  0  0  0  0
 10 15  1  0  0  0  0
 12 10  2  0  0  0  0
 13 14  1  0  0  0  0
 14 11  1  0  0  0  0
 14 16  2  0  0  0  0
 15 11  2  0  0  0  0
 18 17  1  0  0  0  0
 19 18  1  0  0  0  0
 20 19  1  0  0  0  0
 21 30  1  6  0  0  0
 21 24  1  0  0  0  0
 22 29  1  0  0  0  0
 24 23  1  6  0  0  0
 25 24  1  0  0  0  0
 26 21  1  0  0  0  0
 26 22  2  0  0  0  0
 27 25  1  0  0  0  0
 28 27  1  1  0  0  0
 29 23  1  0  0  0  0
 30 28  1  0  0  0  0
 31 32  1  0  0  0  0
 32 26  1  0  0  0  0
M  END
>  <MODEL>
6

>  <REMARK>
 VINA RESULT:      -8.0      1.778      9.128
  Name = 
  6 active torsions:
  status: ('A' for Active; 'I' for Inactive)
    1  A    between atoms: C_3  and  C_6
    2  A    between atoms: C_3  and  N_19
    3  A    between atoms: C_4  and  N_19
    4  A    between atoms: N_11  and  C_24
    5  A    between atoms: C_16  and  O_26
    6  A    between atoms: C_20  and  C_32
                            x       y       z     vdW  Elec       q    Type
                         _______ _______ _______ _____ _____    ______ ____

>  <TORSDO>
F 6

$$$$
=
 OpenBabel11072411553D

 32 36  0  0  1  0  0  0  0  0999 V2000
  160.7450  203.3420  150.1880 N   0  0  2  0  0  0  0  0  0  0  0  0
  162.0530  203.6570  152.2200 C   0  0  0  0  0  2  0  0  0  0  0  0
  161.7240  204.9990  151.6290 C   0  0  1  0  0  3  0  0  0  0  0  0
  160.6140  204.7250  150.6420 C   0  0  0  0  0  2  0  0  0  0  0  0
  161.5040  202.6440  151.2340 C   0  0  0  0  0  2  0  0  0  0  0  0
  160.4980  207.8100  154.6240 C   0  0  0  0  0  3  0  0  0  0  0  0
  161.0460  209.7890  153.1840 C   0  0  1  0  0  3  0  0  0  0  0  0
  160.4380  206.4750  154.8540 N   0  0  0  0  0  0  0  0  0  0  0  0
  160.8310  205.5710  153.9170 C   0  0  0  0  0  3  0  0  0  0  0  0
  161.2240  210.1550  151.7360 C   0  0  0  0  0  0  0  0  0  0  0  0
  161.7840  207.8760  151.0790 C   0  0  0  0  0  3  0  0  0  0  0  0
  161.0030  211.3360  151.3630 O   0  0  0  0  0  0  0  0  0  0  0  0
  160.9590  208.2970  153.3980 C   0  0  0  0  0  0  0  0  0  0  0  0
  161.3640  207.3800  152.4050 C   0  0  0  0  0  0  0  0  0  0  0  0
  161.7070  209.1670  150.7620 C   0  0  0  0  0  3  0  0  0  0  0  0
  161.3110  206.0000  152.6720 C   0  0  0  0  0  0  0  0  0  0  0  0
  162.1530  210.3310  153.9570 N   0  0  0  0  0  2  0  0  0  0  0  0
  161.5770  211.0790  155.0620 C   0  0  0  0  0  2  0  0  0  0  0  0
  162.2870  210.7260  156.3540 C   0  0  0  0  0  2  0  0  0  0  0  0
  163.6340  211.0780  156.2660 O   0  0  0  0  0  1  0  0  0  0  0  0
  161.9120  204.4160  146.8570 C   0  0  1  0  0  3  0  0  0  0  0  0
  161.6100  205.8280  144.8360 C   0  0  0  0  0  3  0  0  0  0  0  0
  160.3890  203.6960  144.9020 C   0  0  0  0  0  2  0  0  0  0  0  0
  161.2060  203.2400  146.1090 C   0  0  2  0  0  3  0  0  0  0  0  0
  160.3650  202.5060  146.9750 O   0  0  0  0  0  0  0  0  0  0  0  0
  161.9380  205.7410  146.1300 C   0  0  0  0  0  0  0  0  0  0  0  0
  161.1420  202.1020  148.0750 C   0  0  0  0  0  2  0  0  0  0  0  0
  161.5320  203.3170  148.9480 C   0  0  1  0  0  3  0  0  0  0  0  0
  161.2270  204.6230  144.0390 C   0  0  0  0  0  2  0  0  0  0  0  0
  161.3490  204.5700  148.1980 N   0  0  0  0  0  2  0  0  0  0  0  0
  161.4620  207.5820  147.5760 O   0  0  0  0  0  1  0  0  0  0  0  0
  162.3320  206.8820  146.8340 O   0  0  0  0  0  0  0  0  0  0  0  0
  1  4  1  1  0  0  0
  1  5  1  0  0  0  0
  3  2  1  0  0  0  0
  3 16  1  1  0  0  0
  4  3  1  0  0  0  0
  5  2  1  0  0  0  0
  6  8  1  0  0  0  0
  7 13  1  0  0  0  0
  7 17  1  1  0  0  0
  9  8  2  0  0  0  0
 10  7  1  0  0  0  0
 11 14  1  0  0  0  0
 12 10  2  0  0  0  0
 13  6  2  0  0  0  0
 14 16  2  0  0  0  0
 14 13  1  0  0  0  0
 15 11  2  0  0  0  0
 15 10  1  0  0  0  0
 16  9  1  0  0  0  0
 17 18  1  0  0  0  0
 18 19  1  0  0  0  0
 20 19  1  0  0  0  0
 21 26  1  6  0  0  0
 21 30  1  0  0  0  0
 22 26  2  0  0  0  0
 24 23  1  6  0  0  0
 24 21  1  0  0  0  0
 24 25  1  0  0  0  0
 25 27  1  0  0  0  0
 26 32  1  0  0  0  0
 28 27  1  6  0  0  0
 28  1  1  0  0  0  0
 29 22  1  0  0  0  0
 29 23  1  0  0  0  0
 30 28  1  0  0  0  0
 32 31  1  0  0  0  0
M  END
>  <MODEL>
7

>  <REMARK>
 VINA RESULT:      -7.9      1.822      3.129
  Name = 
  6 active torsions:
  status: ('A' for Active; 'I' for Inactive)
    1  A    between atoms: C_3  and  C_6
    2  A    between atoms: C_3  and  N_19
    3  A    between atoms: C_4  and  N_19
    4  A    between atoms: N_11  and  C_24
    5  A    between atoms: C_16  and  O_26
    6  A    between atoms: C_20  and  C_32
                            x       y       z     vdW  Elec       q    Type
                         _______ _______ _______ _____ _____    ______ ____

>  <TORSDO>
F 6

$$$$
=
 OpenBabel11072411553D

 32 36  0  0  1  0  0  0  0  0999 V2000
  161.7330  207.0690  152.3810 N   0  0  2  0  0  0  0  0  0  0  0  0
  161.4930  204.6720  152.7510 C   0  0  0  0  0  2  0  0  0  0  0  0
  160.7110  205.0660  151.5300 C   0  0  1  0  0  3  0  0  0  0  0  0
  161.2300  206.4360  151.1630 C   0  0  0  0  0  2  0  0  0  0  0  0
  162.0380  205.9730  153.3090 C   0  0  0  0  0  2  0  0  0  0  0  0
  161.2010  202.2250  148.3580 C   0  0  0  0  0  3  0  0  0  0  0  0
  161.6540  204.0050  146.6510 C   0  0  1  0  0  3  0  0  0  0  0  0
  160.9040  201.8200  149.6180 N   0  0  0  0  0  0  0  0  0  0  0  0
  160.7380  202.7100  150.6330 C   0  0  0  0  0  3  0  0  0  0  0  0
  162.1290  205.4290  146.5600 C   0  0  0  0  0  0  0  0  0  0  0  0
  161.4340  205.9590  148.8350 C   0  0  0  0  0  3  0  0  0  0  0  0
  162.7040  205.8260  145.5130 O   0  0  0  0  0  0  0  0  0  0  0  0
  161.3580  203.5830  148.0700 C   0  0  0  0  0  0  0  0  0  0  0  0
  161.2000  204.5260  149.1070 C   0  0  0  0  0  0  0  0  0  0  0  0
  161.8800  206.3790  147.6520 C   0  0  0  0  0  3  0  0  0  0  0  0
  160.8740  204.0860  150.4020 C   0  0  0  0  0  0  0  0  0  0  0  0
  160.4640  203.8410  145.8320 N   0  0  0  0  0  2  0  0  0  0  0  0
  160.7370  202.7670  144.8910 C   0  0  0  0  0  2  0  0  0  0  0  0
  159.7520  201.6340  145.0960 C   0  0  0  0  0  2  0  0  0  0  0  0
  160.4400  200.4340  145.2810 O   0  0  0  0  0  1  0  0  0  0  0  0
  159.9930  210.1270  153.4940 C   0  0  1  0  0  3  0  0  0  0  0  0
  160.0460  212.5620  153.9840 C   0  0  0  0  0  3  0  0  0  0  0  0
  160.7880  211.0450  155.7710 C   0  0  0  0  0  2  0  0  0  0  0  0
  160.2330  209.8420  155.0120 C   0  0  2  0  0  3  0  0  0  0  0  0
  161.1010  208.7450  155.2030 O   0  0  0  0  0  0  0  0  0  0  0  0
  160.0490  211.5780  153.0770 C   0  0  0  0  0  0  0  0  0  0  0  0
  160.5670  207.6550  154.4930 C   0  0  0  0  0  2  0  0  0  0  0  0
  160.6660  207.8920  152.9680 C   0  0  1  0  0  3  0  0  0  0  0  0
  159.9620  212.2780  155.4500 C   0  0  0  0  0  2  0  0  0  0  0  0
  160.8990  209.3170  152.6810 N   0  0  0  0  0  2  0  0  0  0  0  0
  159.5200  212.9920  151.2250 O   0  0  0  0  0  1  0  0  0  0  0  0
  160.0880  211.8800  151.7130 O   0  0  0  0  0  0  0  0  0  0  0  0
  1  4  1  6  0  0  0
  1 28  1  0  0  0  0
  1  5  1  0  0  0  0
  2  5  1  0  0  0  0
  3 16  1  6  0  0  0
  3  2  1  0  0  0  0
  4  3  1  0  0  0  0
  6  8  1  0  0  0  0
  7 17  1  6  0  0  0
  7 13  1  0  0  0  0
  8  9  2  0  0  0  0
 10  7  1  0  0  0  0
 10 15  1  0  0  0  0
 11 14  1  0  0  0  0
 12 10  2  0  0  0  0
 13  6  2  0  0  0  0
 13 14  1  0  0  0  0
 14 16  2  0  0  0  0
 15 11  2  0  0  0  0
 16  9  1  0  0  0  0
 18 19  1  0  0  0  0
 18 17  1  0  0  0  0
 19 20  1  0  0  0  0
 21 30  1  6  0  0  0
 21 24  1  0  0  0  0
 22 29  1  0  0  0  0
 24 25  1  0  0  0  0
 24 23  1  6  0  0  0
 26 21  1  0  0  0  0
 26 22  2  0  0  0  0
 27 25  1  0  0  0  0
 28 27  1  1  0  0  0
 29 23  1  0  0  0  0
 30 28  1  0  0  0  0
 31 32  1  0  0  0  0
 32 26  1  0  0  0  0
M  END
>  <MODEL>
8

>  <REMARK>
 VINA RESULT:      -7.9      1.720      9.222
  Name = 
  6 active torsions:
  status: ('A' for Active; 'I' for Inactive)
    1  A    between atoms: C_3  and  C_6
    2  A    between atoms: C_3  and  N_19
    3  A    between atoms: C_4  and  N_19
    4  A    between atoms: N_11  and  C_24
    5  A    between atoms: C_16  and  O_26
    6  A    between atoms: C_20  and  C_32
                            x       y       z     vdW  Elec       q    Type
                         _______ _______ _______ _____ _____    ______ ____

>  <TORSDO>
F 6

$$$$
=
 OpenBabel11072411553D

 32 36  0  0  1  0  0  0  0  0999 V2000
  162.1760  207.1510  153.3780 N   0  0  2  0  0  0  0  0  0  0  0  0
  160.1780  205.8990  152.7650 C   0  0  0  0  0  2  0  0  0  0  0  0
  160.9630  206.2160  151.5250 C   0  0  1  0  0  3  0  0  0  0  0  0
  162.3300  206.6200  152.0240 C   0  0  0  0  0  2  0  0  0  0  0  0
  160.9230  206.5870  153.8930 C   0  0  0  0  0  2  0  0  0  0  0  0
  161.1960  202.8550  148.8740 C   0  0  0  0  0  3  0  0  0  0  0  0
  161.6890  204.2900  146.8780 C   0  0  1  0  0  3  0  0  0  0  0  0
  160.9190  202.6880  150.1920 N   0  0  0  0  0  0  0  0  0  0  0  0
  160.8340  203.7440  151.0430 C   0  0  0  0  0  3  0  0  0  0  0  0
  162.2360  205.6480  146.5340 C   0  0  0  0  0  0  0  0  0  0  0  0
  161.6450  206.5960  148.7010 C   0  0  0  0  0  3  0  0  0  0  0  0
  162.7970  205.8280  145.4220 O   0  0  0  0  0  0  0  0  0  0  0  0
  161.4170  204.1330  148.3550 C   0  0  0  0  0  0  0  0  0  0  0  0
  161.3430  205.2460  149.2190 C   0  0  0  0  0  0  0  0  0  0  0  0
  162.0740  206.7830  147.4540 C   0  0  0  0  0  3  0  0  0  0  0  0
  161.0360  205.0510  150.5770 C   0  0  0  0  0  0  0  0  0  0  0  0
  160.4650  204.0600  146.1270 N   0  0  0  0  0  2  0  0  0  0  0  0
  160.7740  203.0840  145.0950 C   0  0  0  0  0  2  0  0  0  0  0  0
  160.4560  201.6880  145.5890 C   0  0  0  0  0  2  0  0  0  0  0  0
  159.7110  201.0020  144.6280 O   0  0  0  0  0  1  0  0  0  0  0  0
  160.8170  210.4970  154.1350 C   0  0  1  0  0  3  0  0  0  0  0  0
  159.0510  211.9070  155.1660 C   0  0  0  0  0  3  0  0  0  0  0  0
  158.6310  211.0740  152.8920 C   0  0  0  0  0  2  0  0  0  0  0  0
  160.0860  210.6320  152.7610 C   0  0  2  0  0  3  0  0  0  0  0  0
  160.1290  209.4240  152.0300 O   0  0  0  0  0  0  0  0  0  0  0  0
  160.1030  211.0960  155.3250 C   0  0  0  0  0  0  0  0  0  0  0  0
  161.4790  209.0410  151.9270 C   0  0  0  0  0  2  0  0  0  0  0  0
  162.0340  208.6120  153.3050 C   0  0  1  0  0  3  0  0  0  0  0  0
  158.5440  212.2800  153.8100 C   0  0  0  0  0  2  0  0  0  0  0  0
  161.1630  209.0990  154.3860 N   0  0  0  0  0  2  0  0  0  0  0  0
  161.6180  211.4550  157.1370 O   0  0  0  0  0  1  0  0  0  0  0  0
  160.5760  210.8000  156.6060 O   0  0  0  0  0  0  0  0  0  0  0  0
  1  4  1  6  0  0  0
  1  5  1  0  0  0  0
  2  5  1  0  0  0  0
  3 16  1  6  0  0  0
  3  4  1  0  0  0  0
  3  2  1  0  0  0  0
  6  8  1  0  0  0  0
  7 17  1  6  0  0  0
  7 13  1  0  0  0  0
  8  9  2  0  0  0  0
 10  7  1  0  0  0  0
 10 15  1  0  0  0  0
 11 14  1  0  0  0  0
 12 10  2  0  0  0  0
 13  6  2  0  0  0  0
 13 14  1  0  0  0  0
 14 16  2  0  0  0  0
 15 11  2  0  0  0  0
 16  9  1  0  0  0  0
 18 19  1  0  0  0  0
 18 17  1  0  0  0  0
 20 19  1  0  0  0  0
 21 30  1  1  0  0  0
 21 26  1  0  0  0  0
 22 26  2  0  0  0  0
 23 29  1  0  0  0  0
 24 23  1  1  0  0  0
 24 21  1  0  0  0  0
 25 24  1  0  0  0  0
 26 32  1  0  0  0  0
 27 25  1  0  0  0  0
 28 27  1  6  0  0  0
 28  1  1  0  0  0  0
 28 30  1  0  0  0  0
 29 22  1  0  0  0  0
 32 31  1  0  0  0  0
M  END
>  <MODEL>
9

>  <REMARK>
 VINA RESULT:      -7.2      1.926      9.275
  Name = 
  6 active torsions:
  status: ('A' for Active; 'I' for Inactive)
    1  A    between atoms: C_3  and  C_6
    2  A    between atoms: C_3  and  N_19
    3  A    between atoms: C_4  and  N_19
    4  A    between atoms: N_11  and  C_24
    5  A    between atoms: C_16  and  O_26
    6  A    between atoms: C_20  and  C_32
                            x       y       z     vdW  Elec       q    Type
                         _______ _______ _______ _____ _____    ______ ____

>  <TORSDO>
F 6

$$$$
