=
 OpenBabel11072415113D

 39 42  0  0  1  0  0  0  0  0999 V2000
  162.1230  211.9160  149.2120 C   0  0  0  0  0  2  0  0  0  0  0  0
  163.4340  205.9460  152.4030 O   0  0  0  0  0  1  0  0  0  0  0  0
  162.0870  205.5790  152.4630 C   0  0  2  0  0  3  0  0  0  0  0  0
  161.8580  209.8400  147.9650 N   0  0  0  0  0  2  0  0  0  0  0  0
  161.8590  211.4990  150.6440 C   0  0  0  0  0  2  0  0  0  0  0  0
  160.2380  208.8350  153.2850 C   0  0  0  0  0  0  0  0  0  0  0  0
  160.3270  207.3910  155.3660 C   0  0  1  0  0  3  0  0  0  0  0  0
  159.8030  208.5450  154.5300 C   0  0  0  0  0  3  0  0  0  0  0  0
  162.4600  207.6680  148.4710 O   0  0  0  0  0  0  0  0  0  0  0  0
  161.3840  208.0370  152.6670 C   0  0  2  0  0  3  0  0  0  0  0  0
  161.5050  205.4820  151.0440 C   0  0  2  0  0  3  0  0  0  0  0  0
  161.4250  207.9740  151.1450 C   0  0  0  0  0  0  0  0  0  0  0  0
  161.5040  206.6440  154.7260 C   0  0  0  0  0  2  0  0  0  0  0  0
  162.0730  208.7850  148.9080 C   0  0  0  0  0  0  0  0  0  0  0  0
  161.2840  206.6160  153.2290 C   0  0  2  0  0  3  0  0  0  0  0  0
  162.5430  210.1840  151.0000 C   0  0  0  0  0  2  0  0  0  0  0  0
  161.0830  206.7580  150.5330 O   0  0  0  0  0  0  0  0  0  0  0  0
  161.2390  211.1170  148.2780 C   0  0  0  0  0  2  0  0  0  0  0  0
  161.8930  208.9830  150.3720 C   0  0  0  0  0  0  0  0  0  0  0  0
  160.3430  204.4920  150.9990 C   0  0  2  0  0  3  0  0  0  0  0  0
  160.1290  203.9450  152.2530 F   0  0  0  0  0  0  0  0  0  0  0  0
  160.8720  203.6790  148.8220 O   0  0  0  0  0  0  0  0  0  0  0  0
  160.6440  202.0740  150.4400 O   0  0  0  0  0  1  0  0  0  0  0  0
  160.6190  203.3980  150.0220 C   0  0  0  0  0  0  0  0  0  0  0  0
  159.4820  210.2420  152.4590 S   0  0  0  0  0  0  0  0  0  0  0  0
  157.7260  211.7900  153.9280 C   0  0  1  0  0  3  0  0  0  0  0  0
  160.2450  212.1740  154.3300 C   0  0  0  0  0  2  0  0  0  0  0  0
  157.7000  213.2820  154.3010 C   0  0  0  0  0  2  0  0  0  0  0  0
  159.1360  211.1690  153.9960 C   0  0  2  0  0  3  0  0  0  0  0  0
  159.7820  213.0710  155.4390 C   0  0  0  0  0  3  0  0  0  0  0  0
  158.5920  213.5620  155.4080 N   0  0  0  0  0  0  0  0  0  0  0  0
  156.7770  211.0210  154.8320 C   0  0  0  0  0  2  0  0  0  0  0  0
  155.6100  211.6840  156.5850 C   0  0  0  0  0  1  0  0  0  0  0  0
  155.7000  211.8280  155.2010 O   0  0  0  0  0  0  0  0  0  0  0  0
  160.6870  207.8470  156.6360 O   0  0  0  0  0  0  0  0  0  0  0  0
  162.0210  208.2410  156.5160 C   0  0  0  0  0  2  0  0  0  0  0  0
  162.1870  209.6240  157.0420 C   0  0  0  0  0  0  0  0  0  0  0  0
  161.1750  210.3380  157.2610 O   0  0  0  0  0  1  0  0  0  0  0  0
  163.4580  210.1400  157.2490 O   0  0  0  0  0  0  0  0  0  0  0  0
  1  5  1  0  0  0  0
  3  2  1  6  0  0  0
  3 15  1  0  0  0  0
  4 18  1  0  0  0  0
  4 14  1  0  0  0  0
  5 16  1  0  0  0  0
  6  8  2  0  0  0  0
  7 35  1  1  0  0  0
  8  7  1  0  0  0  0
  9 14  2  0  0  0  0
 10 12  1  6  0  0  0
 10 15  1  0  0  0  0
 10  6  1  0  0  0  0
 11 20  1  1  0  0  0
 11  3  1  0  0  0  0
 13  7  1  0  0  0  0
 14 19  1  0  0  0  0
 15 13  1  1  0  0  0
 17 11  1  0  0  0  0
 17 12  1  0  0  0  0
 18  1  1  0  0  0  0
 19 16  1  0  0  0  0
 19 12  2  0  0  0  0
 20 21  1  1  0  0  0
 22 24  2  0  0  0  0
 24 23  1  0  0  0  0
 24 20  1  0  0  0  0
 25  6  1  0  0  0  0
 26 29  1  0  0  0  0
 26 28  1  0  0  0  0
 26 32  1  1  0  0  0
 27 30  1  0  0  0  0
 28 31  1  0  0  0  0
 29 25  1  6  0  0  0
 29 27  1  0  0  0  0
 31 30  2  0  0  0  0
 32 34  1  0  0  0  0
 34 33  1  0  0  0  0
 36 35  1  0  0  0  0
 36 37  1  0  0  0  0
 37 39  2  0  0  0  0
 37 38  1  0  0  0  0
M  END
>  <MODEL>
1

>  <REMARK>
 VINA RESULT:      -4.6      0.000      0.000
  Name = 
  9 active torsions:
  status: ('A' for Active; 'I' for Inactive)
    1  A    between atoms: C_6  and  C_24
    2  A    between atoms: C_6  and  C_32
    3  A    between atoms: C_7  and  S_18
    4  A    between atoms: C_8  and  C_14
    5  A    between atoms: C_10  and  O_37
    6  A    between atoms: C_13  and  C_25
    7  A    between atoms: C_13  and  O_37
    8  A    between atoms: C_14  and  O_23
    9  A    between atoms: C_16  and  S_18
                            x       y       z     vdW  Elec       q    Type
                         _______ _______ _______ _____ _____    ______ ____

>  <TORSDO>
F 9

$$$$
=
 OpenBabel11072415113D

 39 42  0  0  1  0  0  0  0  0999 V2000
  161.7590  203.3930  151.7980 C   0  0  0  0  0  2  0  0  0  0  0  0
  163.1190  210.0460  152.9940 O   0  0  0  0  0  1  0  0  0  0  0  0
  161.8860  210.4790  152.4980 C   0  0  2  0  0  3  0  0  0  0  0  0
  160.5810  204.5200  153.6080 N   0  0  0  0  0  2  0  0  0  0  0  0
  162.0620  204.5140  150.8260 C   0  0  0  0  0  2  0  0  0  0  0  0
  161.2500  208.2690  149.4310 C   0  0  0  0  0  0  0  0  0  0  0  0
  161.9420  210.5790  148.6510 C   0  0  1  0  0  3  0  0  0  0  0  0
  161.3470  209.1960  148.4540 C   0  0  0  0  0  3  0  0  0  0  0  0
  160.9040  206.5890  154.5830 O   0  0  0  0  0  0  0  0  0  0  0  0
  161.8360  208.5460  150.8140 C   0  0  2  0  0  3  0  0  0  0  0  0
  160.7440  209.8580  153.3160 C   0  0  2  0  0  3  0  0  0  0  0  0
  161.2040  207.7990  151.9820 C   0  0  0  0  0  0  0  0  0  0  0  0
  162.5570  210.7990  150.0400 C   0  0  0  0  0  2  0  0  0  0  0  0
  160.9700  205.8960  153.5330 C   0  0  0  0  0  0  0  0  0  0  0  0
  161.7120  210.0540  151.0500 C   0  0  2  0  0  3  0  0  0  0  0  0
  162.5600  205.7710  151.5290 C   0  0  0  0  0  2  0  0  0  0  0  0
  160.4020  208.5360  152.8680 O   0  0  0  0  0  0  0  0  0  0  0  0
  160.4210  203.6420  152.4620 C   0  0  0  0  0  2  0  0  0  0  0  0
  161.4820  206.5070  152.2750 C   0  0  0  0  0  0  0  0  0  0  0  0
  159.5060  210.7530  153.2890 C   0  0  2  0  0  3  0  0  0  0  0  0
  159.8280  212.0030  152.7860 F   0  0  0  0  0  0  0  0  0  0  0  0
  157.9230  211.6300  154.8400 O   0  0  0  0  0  0  0  0  0  0  0  0
  159.4880  210.2120  155.7300 O   0  0  0  0  0  1  0  0  0  0  0  0
  158.9360  210.9040  154.6600 C   0  0  0  0  0  0  0  0  0  0  0  0
  160.5040  206.6920  148.9950 S   0  0  0  0  0  0  0  0  0  0  0  0
  160.9690  205.3590  146.6180 C   0  0  1  0  0  3  0  0  0  0  0  0
  163.0300  205.9610  148.0470 C   0  0  0  0  0  2  0  0  0  0  0  0
  161.8960  204.1940  146.2310 C   0  0  0  0  0  2  0  0  0  0  0  0
  161.6240  206.3640  147.5880 C   0  0  2  0  0  3  0  0  0  0  0  0
  163.8110  205.4600  146.8690 C   0  0  0  0  0  3  0  0  0  0  0  0
  163.2570  204.6510  146.0350 N   0  0  0  0  0  0  0  0  0  0  0  0
  160.5020  206.0790  145.3630 C   0  0  0  0  0  2  0  0  0  0  0  0
  161.3570  205.7920  143.3490 C   0  0  0  0  0  1  0  0  0  0  0  0
  160.4990  205.2040  144.2760 O   0  0  0  0  0  0  0  0  0  0  0  0
  162.8960  210.8320  147.6630 O   0  0  0  0  0  0  0  0  0  0  0  0
  163.2300  212.1790  147.8190 C   0  0  0  0  0  2  0  0  0  0  0  0
  162.2810  213.0250  147.0440 C   0  0  0  0  0  0  0  0  0  0  0  0
  162.3230  213.0270  145.7870 O   0  0  0  0  0  0  0  0  0  0  0  0
  161.3780  213.8430  147.7090 O   0  0  0  0  0  1  0  0  0  0  0  0
  1 18  1  0  0  0  0
  3  2  1  1  0  0  0
  3 11  1  0  0  0  0
  5 16  1  0  0  0  0
  5  1  1  0  0  0  0
  7 35  1  6  0  0  0
  7 13  1  0  0  0  0
  8  7  1  0  0  0  0
  8  6  2  0  0  0  0
 10  6  1  6  0  0  0
 10 15  1  0  0  0  0
 10 12  1  0  0  0  0
 11 20  1  6  0  0  0
 12 19  2  0  0  0  0
 12 17  1  0  0  0  0
 14  4  1  0  0  0  0
 14  9  2  0  0  0  0
 15 13  1  6  0  0  0
 15  3  1  0  0  0  0
 16 19  1  0  0  0  0
 17 11  1  0  0  0  0
 18  4  1  0  0  0  0
 19 14  1  0  0  0  0
 20 21  1  1  0  0  0
 20 24  1  0  0  0  0
 24 22  2  0  0  0  0
 24 23  1  0  0  0  0
 25  6  1  0  0  0  0
 26 32  1  6  0  0  0
 26 29  1  0  0  0  0
 28 26  1  0  0  0  0
 29 27  1  0  0  0  0
 29 25  1  1  0  0  0
 30 27  1  0  0  0  0
 31 28  1  0  0  0  0
 31 30  2  0  0  0  0
 33 34  1  0  0  0  0
 34 32  1  0  0  0  0
 35 36  1  0  0  0  0
 37 39  1  0  0  0  0
 37 36  1  0  0  0  0
 38 37  2  0  0  0  0
M  END
>  <MODEL>
2

>  <REMARK>
 VINA RESULT:      -2.6      3.579      8.631
  Name = 
  9 active torsions:
  status: ('A' for Active; 'I' for Inactive)
    1  A    between atoms: C_6  and  C_24
    2  A    between atoms: C_6  and  C_32
    3  A    between atoms: C_7  and  S_18
    4  A    between atoms: C_8  and  C_14
    5  A    between atoms: C_10  and  O_37
    6  A    between atoms: C_13  and  C_25
    7  A    between atoms: C_13  and  O_37
    8  A    between atoms: C_14  and  O_23
    9  A    between atoms: C_16  and  S_18
                            x       y       z     vdW  Elec       q    Type
                         _______ _______ _______ _____ _____    ______ ____

>  <TORSDO>
F 9

$$$$
