=
 OpenBabel11072413263D

 41 43  0  0  1  0  0  0  0  0999 V2000
  162.1960  205.7660  151.7440 O   0  0  0  0  0  0  0  0  0  0  0  0
  161.3270  208.0240  152.6130 C   0  0  2  0  0  0  0  0  0  0  0  0
  161.7520  206.2040  150.4700 C   0  0  2  0  0  3  0  0  0  0  0  0
  161.7990  206.5930  152.8350 C   0  0  2  0  0  0  0  0  0  0  0  0
  162.4080  206.3160  154.0610 O   0  0  0  0  0  1  0  0  0  0  0  0
  161.9640  207.7040  150.2170 C   0  0  2  0  0  3  0  0  0  0  0  0
  160.3210  206.9210  152.9560 C   0  0  0  0  0  2  0  0  0  0  0  0
  161.1320  208.5230  151.1880 C   0  0  0  0  0  2  0  0  0  0  0  0
  160.4250  205.8150  150.2440 O   0  0  0  0  0  1  0  0  0  0  0  0
  161.5590  208.0750  148.8000 C   0  0  0  0  0  2  0  0  0  0  0  0
  162.1120  207.0890  147.7850 C   0  0  0  0  0  2  0  0  0  0  0  0
  160.8000  206.5100  146.6550 S   0  0  0  0  0  0  0  0  0  0  0  0
  161.9680  205.7050  145.4990 C   0  0  2  0  0  3  0  0  0  0  0  0
  161.3280  205.3860  144.1520 C   0  0  0  0  0  2  0  0  0  0  0  0
  160.3360  204.4070  144.2790 O   0  0  0  0  0  1  0  0  0  0  0  0
  163.8780  204.4670  146.1720 O   0  0  0  0  0  0  0  0  0  0  0  0
  162.6200  204.5200  146.1300 C   0  0  0  0  0  0  0  0  0  0  0  0
  161.8460  203.4830  146.6590 O   0  0  0  0  0  0  0  0  0  0  0  0
  161.6420  203.3390  148.0560 C   0  0  0  0  0  2  0  0  0  0  0  0
  161.3080  200.1410  146.6390 O   0  0  0  0  0  0  0  0  0  0  0  0
  161.1800  201.0480  147.4690 C   0  0  0  0  0  0  0  0  0  0  0  0
  161.0460  202.0030  148.3460 C   0  0  0  0  0  0  0  0  0  0  0  0
  160.8180  202.1050  150.8210 O   0  0  0  0  0  1  0  0  0  0  0  0
  159.1240  201.2750  149.5290 O   0  0  0  0  0  0  0  0  0  0  0  0
  160.2780  201.7740  149.5830 C   0  0  0  0  0  0  0  0  0  0  0  0
  161.4230  209.0420  153.7370 C   0  0  0  0  0  2  0  0  0  0  0  0
  160.8510  210.3770  153.2970 C   0  0  0  0  0  2  0  0  0  0  0  0
  159.4800  210.5550  153.9190 C   0  0  0  0  0  2  0  0  0  0  0  0
  156.9430  214.1150  153.2270 C   0  0  2  0  0  3  0  0  0  0  0  0
  159.6940  212.5320  152.4010 C   0  0  0  0  0  2  0  0  0  0  0  0
  155.8970  213.2590  153.5670 O   0  0  0  0  0  1  0  0  0  0  0  0
  158.8740  211.8950  153.5250 C   0  0  2  0  0  3  0  0  0  0  0  0
  159.8590  213.0600  155.5630 C   0  0  0  0  0  1  0  0  0  0  0  0
  158.6080  212.8210  154.7320 C   0  0  1  0  0  3  0  0  0  0  0  0
  157.5100  213.7350  151.8420 C   0  0  0  0  0  2  0  0  0  0  0  0
  159.0410  213.7730  151.7740 C   0  0  2  0  0  3  0  0  0  0  0  0
  157.9800  214.1720  154.3600 C   0  0  0  0  0  2  0  0  0  0  0  0
  159.4510  213.8910  150.4420 O   0  0  0  0  0  0  0  0  0  0  0  0
  160.4740  213.0660  150.3260 O   0  0  0  0  0  0  0  0  0  0  0  0
  161.5860  212.1810  148.4200 C   0  0  0  0  0  1  0  0  0  0  0  0
  161.0910  213.4260  149.1260 C   0  0  0  0  0  2  0  0  0  0  0  0
  1  4  1  0  0  0  0
  2  4  1  0  0  0  0
  2  7  1  0  0  0  0
  2 26  1  1  0  0  0
  3  9  1  1  0  0  0
  3  1  1  0  0  0  0
  4  7  1  0  0  0  0
  4  5  1  1  0  0  0
  6 10  1  6  0  0  0
  6  3  1  0  0  0  0
  6  8  1  0  0  0  0
  8  2  1  0  0  0  0
 11 10  1  0  0  0  0
 12 11  1  0  0  0  0
 13 14  1  6  0  0  0
 13 17  1  0  0  0  0
 13 12  1  0  0  0  0
 14 15  1  0  0  0  0
 17 16  2  0  0  0  0
 17 18  1  0  0  0  0
 18 19  1  0  0  0  0
 19 22  1  0  0  0  0
 20 21  2  0  0  0  0
 21 22  2  0  0  0  0
 22 25  1  0  0  0  0
 24 25  2  0  0  0  0
 25 23  1  0  0  0  0
 27 26  1  0  0  0  0
 27 28  1  0  0  0  0
 29 31  1  1  0  0  0
 29 37  1  0  0  0  0
 30 32  1  0  0  0  0
 32 28  1  1  0  0  0
 32 34  1  0  0  0  0
 34 33  1  6  0  0  0
 35 29  1  0  0  0  0
 36 38  1  6  0  0  0
 36 35  1  0  0  0  0
 36 30  1  0  0  0  0
 37 34  1  0  0  0  0
 39 38  1  0  0  0  0
 40 41  1  0  0  0  0
 41 39  1  0  0  0  0
M  END
>  <MODEL>
1

>  <REMARK>
 VINA RESULT:      -6.3      0.000      0.000
  Name = 
  17 active torsions:
  status: ('A' for Active; 'I' for Inactive)
    1  A    between atoms: O_2  and  C_27
    2  A    between atoms: O_2  and  C_38
    3  A    between atoms: C_5  and  C_9
    4  A    between atoms: C_5  and  C_11
    5  A    between atoms: C_6  and  C_11
    6  A    between atoms: C_6  and  C_20
    7  A    between atoms: C_12  and  C_21
    8  A    between atoms: S_14  and  C_21
    9  A    between atoms: S_14  and  C_37
   10  A    between atoms: C_16  and  C_23
   11  A    between atoms: C_16  and  C_37
   12  A    between atoms: C_21  and  C_27
   13  A    between atoms: O_24  and  O_31
   14  A    between atoms: O_24  and  C_33
   15  A    between atoms: C_25  and  C_38
   16  A    between atoms: C_25  and  C_40
   17  A    between atoms: O_31  and  C_35
                            x       y       z     vdW  Elec       q    Type
                         _______ _______ _______ _____ _____    ______ ____

>  <TORSDO>
F 17

$$$$
=
 OpenBabel11072413263D

 41 43  0  0  1  0  0  0  0  0999 V2000
  162.1970  209.1000  149.0250 O   0  0  0  0  0  0  0  0  0  0  0  0
  161.4410  207.5790  150.9540 C   0  0  2  0  0  0  0  0  0  0  0  0
  161.9540  207.9820  148.1870 C   0  0  2  0  0  3  0  0  0  0  0  0
  162.1290  208.8280  150.4220 C   0  0  2  0  0  0  0  0  0  0  0  0
  162.1360  209.9470  151.2610 O   0  0  0  0  0  1  0  0  0  0  0  0
  160.7310  207.1490  148.5970 C   0  0  2  0  0  3  0  0  0  0  0  0
  162.9690  207.6770  150.9470 C   0  0  0  0  0  2  0  0  0  0  0  0
  160.9510  206.5300  149.9650 C   0  0  0  0  0  2  0  0  0  0  0  0
  163.1070  207.1960  148.0600 O   0  0  0  0  0  1  0  0  0  0  0  0
  160.4780  206.0320  147.5960 C   0  0  0  0  0  2  0  0  0  0  0  0
  160.4270  206.5600  146.1720 C   0  0  0  0  0  2  0  0  0  0  0  0
  160.4300  205.1900  144.9660 S   0  0  0  0  0  0  0  0  0  0  0  0
  161.5520  204.1420  145.9610 C   0  0  2  0  0  3  0  0  0  0  0  0
  162.9860  204.1670  145.4420 C   0  0  0  0  0  2  0  0  0  0  0  0
  163.8650  204.6900  146.3970 O   0  0  0  0  0  1  0  0  0  0  0  0
  160.5730  202.1650  145.0860 O   0  0  0  0  0  0  0  0  0  0  0  0
  161.0090  202.7590  146.1070 C   0  0  0  0  0  0  0  0  0  0  0  0
  160.9820  202.1360  147.3590 O   0  0  0  0  0  0  0  0  0  0  0  0
  161.4750  202.7770  148.5250 C   0  0  0  0  0  2  0  0  0  0  0  0
  158.5810  200.9640  149.3520 O   0  0  0  0  0  0  0  0  0  0  0  0
  159.6000  201.6410  149.5260 C   0  0  0  0  0  0  0  0  0  0  0  0
  160.6760  202.3530  149.7110 C   0  0  0  0  0  0  0  0  0  0  0  0
  160.4650  203.8630  151.6770 O   0  0  0  0  0  0  0  0  0  0  0  0
  161.9560  202.1310  151.6950 O   0  0  0  0  0  1  0  0  0  0  0  0
  161.0690  202.7680  151.0700 C   0  0  0  0  0  0  0  0  0  0  0  0
  160.9040  207.5510  152.3760 C   0  0  0  0  0  2  0  0  0  0  0  0
  160.1930  208.8510  152.7020 C   0  0  0  0  0  2  0  0  0  0  0  0
  160.5820  209.2880  154.1010 C   0  0  0  0  0  2  0  0  0  0  0  0
  157.9210  212.3800  155.8170 C   0  0  2  0  0  3  0  0  0  0  0  0
  160.1030  211.6630  153.4760 C   0  0  0  0  0  2  0  0  0  0  0  0
  157.1300  211.2920  156.1840 O   0  0  0  0  0  1  0  0  0  0  0  0
  159.8410  210.5570  154.5000 C   0  0  2  0  0  3  0  0  0  0  0  0
  161.5670  211.1290  156.2820 C   0  0  0  0  0  1  0  0  0  0  0  0
  160.0870  210.9680  155.9690 C   0  0  1  0  0  3  0  0  0  0  0  0
  157.8620  212.5860  154.2890 C   0  0  0  0  0  2  0  0  0  0  0  0
  159.2230  212.9090  153.6610 C   0  0  2  0  0  3  0  0  0  0  0  0
  159.3360  212.2350  156.4000 C   0  0  0  0  0  2  0  0  0  0  0  0
  159.0360  213.5320  152.4220 O   0  0  0  0  0  0  0  0  0  0  0  0
  159.9500  213.0030  151.6320 O   0  0  0  0  0  0  0  0  0  0  0  0
  160.7450  213.1070  149.3940 C   0  0  0  0  0  1  0  0  0  0  0  0
  159.9000  213.7660  150.4630 C   0  0  0  0  0  2  0  0  0  0  0  0
  1  4  1  0  0  0  0
  2 26  1  1  0  0  0
  3  9  1  1  0  0  0
  3  6  1  0  0  0  0
  3  1  1  0  0  0  0
  4  7  1  0  0  0  0
  4  2  1  0  0  0  0
  4  5  1  1  0  0  0
  6 10  1  6  0  0  0
  6  8  1  0  0  0  0
  7  2  1  0  0  0  0
  8  2  1  0  0  0  0
 11 10  1  0  0  0  0
 12 13  1  0  0  0  0
 12 11  1  0  0  0  0
 13 14  1  6  0  0  0
 13 17  1  0  0  0  0
 14 15  1  0  0  0  0
 16 17  2  0  0  0  0
 17 18  1  0  0  0  0
 18 19  1  0  0  0  0
 19 22  1  0  0  0  0
 20 21  2  0  0  0  0
 21 22  2  0  0  0  0
 22 25  1  0  0  0  0
 25 23  2  0  0  0  0
 25 24  1  0  0  0  0
 26 27  1  0  0  0  0
 27 28  1  0  0  0  0
 29 31  1  6  0  0  0
 29 37  1  0  0  0  0
 30 36  1  0  0  0  0
 30 32  1  0  0  0  0
 32 28  1  6  0  0  0
 32 34  1  0  0  0  0
 34 33  1  6  0  0  0
 34 37  1  0  0  0  0
 35 29  1  0  0  0  0
 36 38  1  6  0  0  0
 36 35  1  0  0  0  0
 39 38  1  0  0  0  0
 40 41  1  0  0  0  0
 41 39  1  0  0  0  0
M  END
>  <MODEL>
2

>  <REMARK>
 VINA RESULT:      -5.9      1.783      2.704
  Name = 
  17 active torsions:
  status: ('A' for Active; 'I' for Inactive)
    1  A    between atoms: O_2  and  C_27
    2  A    between atoms: O_2  and  C_38
    3  A    between atoms: C_5  and  C_9
    4  A    between atoms: C_5  and  C_11
    5  A    between atoms: C_6  and  C_11
    6  A    between atoms: C_6  and  C_20
    7  A    between atoms: C_12  and  C_21
    8  A    between atoms: S_14  and  C_21
    9  A    between atoms: S_14  and  C_37
   10  A    between atoms: C_16  and  C_23
   11  A    between atoms: C_16  and  C_37
   12  A    between atoms: C_21  and  C_27
   13  A    between atoms: O_24  and  O_31
   14  A    between atoms: O_24  and  C_33
   15  A    between atoms: C_25  and  C_38
   16  A    between atoms: C_25  and  C_40
   17  A    between atoms: O_31  and  C_35
                            x       y       z     vdW  Elec       q    Type
                         _______ _______ _______ _____ _____    ______ ____

>  <TORSDO>
F 17

$$$$
=
 OpenBabel11072413263D

 41 43  0  0  1  0  0  0  0  0999 V2000
  161.0830  207.4470  148.2280 O   0  0  0  0  0  0  0  0  0  0  0  0
  161.7520  207.7880  150.6870 C   0  0  2  0  0  0  0  0  0  0  0  0
  160.8730  206.0900  148.5820 C   0  0  2  0  0  3  0  0  0  0  0  0
  161.7110  208.2390  149.2330 C   0  0  2  0  0  0  0  0  0  0  0  0
  161.7210  209.6170  149.0030 O   0  0  0  0  0  1  0  0  0  0  0  0
  160.2770  205.8960  149.9850 C   0  0  2  0  0  3  0  0  0  0  0  0
  163.0110  207.7150  149.8180 C   0  0  0  0  0  2  0  0  0  0  0  0
  161.2460  206.3960  151.0410 C   0  0  0  0  0  2  0  0  0  0  0  0
  162.0430  205.3410  148.4000 O   0  0  0  0  0  1  0  0  0  0  0  0
  159.9890  204.4270  150.2500 C   0  0  0  0  0  2  0  0  0  0  0  0
  160.7720  203.9120  151.4460 C   0  0  0  0  0  2  0  0  0  0  0  0
  161.4080  202.2290  151.1350 S   0  0  0  0  0  0  0  0  0  0  0  0
  160.3490  201.9570  149.6680 C   0  0  2  0  0  3  0  0  0  0  0  0
  159.2310  200.9540  149.9350 C   0  0  0  0  0  2  0  0  0  0  0  0
  158.0980  201.2360  149.1630 O   0  0  0  0  0  1  0  0  0  0  0  0
  161.5450  200.4200  148.3120 O   0  0  0  0  0  0  0  0  0  0  0  0
  161.1680  201.6110  148.4690 C   0  0  0  0  0  0  0  0  0  0  0  0
  161.5150  202.5960  147.5390 O   0  0  0  0  0  0  0  0  0  0  0  0
  161.0380  202.5650  146.2030 C   0  0  0  0  0  2  0  0  0  0  0  0
  163.9120  204.5600  145.8770 O   0  0  0  0  0  0  0  0  0  0  0  0
  162.7570  204.1680  145.6740 C   0  0  0  0  0  0  0  0  0  0  0  0
  161.5400  203.7560  145.4590 C   0  0  0  0  0  0  0  0  0  0  0  0
  161.0280  205.7370  144.0440 O   0  0  0  0  0  0  0  0  0  0  0  0
  159.5720  203.9780  144.1540 O   0  0  0  0  0  1  0  0  0  0  0  0
  160.6620  204.4850  144.5250 C   0  0  0  0  0  0  0  0  0  0  0  0
  161.9150  208.8110  151.7990 C   0  0  0  0  0  2  0  0  0  0  0  0
  160.5600  209.2450  152.3260 C   0  0  0  0  0  2  0  0  0  0  0  0
  160.7040  209.6490  153.7800 C   0  0  0  0  0  2  0  0  0  0  0  0
  157.3860  212.1710  155.2720 C   0  0  2  0  0  3  0  0  0  0  0  0
  159.9240  211.9560  153.2050 C   0  0  0  0  0  2  0  0  0  0  0  0
  156.7440  210.9510  155.4830 O   0  0  0  0  0  1  0  0  0  0  0  0
  159.7230  210.7580  154.1360 C   0  0  2  0  0  3  0  0  0  0  0  0
  161.1030  211.4750  156.1520 C   0  0  0  0  0  1  0  0  0  0  0  0
  159.7190  211.1060  155.6410 C   0  0  1  0  0  3  0  0  0  0  0  0
  157.4810  212.4640  153.7590 C   0  0  0  0  0  2  0  0  0  0  0  0
  158.8380  213.0350  153.3290 C   0  0  2  0  0  3  0  0  0  0  0  0
  158.7240  212.2100  156.0270 C   0  0  0  0  0  2  0  0  0  0  0  0
  158.7030  213.7000  152.1060 O   0  0  0  0  0  0  0  0  0  0  0  0
  159.9250  213.7540  151.6110 O   0  0  0  0  0  0  0  0  0  0  0  0
  160.5780  213.3010  149.3710 C   0  0  0  0  0  1  0  0  0  0  0  0
  159.7590  214.1810  150.2910 C   0  0  0  0  0  2  0  0  0  0  0  0
  1  3  1  0  0  0  0
  1  4  1  0  0  0  0
  2  8  1  0  0  0  0
  2 26  1  1  0  0  0
  3  9  1  1  0  0  0
  3  6  1  0  0  0  0
  4  5  1  6  0  0  0
  4  7  1  0  0  0  0
  4  2  1  0  0  0  0
  6 10  1  1  0  0  0
  6  8  1  0  0  0  0
  7  2  1  0  0  0  0
 10 11  1  0  0  0  0
 12 11  1  0  0  0  0
 13 14  1  1  0  0  0
 13 12  1  0  0  0  0
 15 14  1  0  0  0  0
 16 17  2  0  0  0  0
 17 13  1  0  0  0  0
 18 17  1  0  0  0  0
 19 18  1  0  0  0  0
 21 20  2  0  0  0  0
 22 21  2  0  0  0  0
 22 19  1  0  0  0  0
 23 25  2  0  0  0  0
 24 25  1  0  0  0  0
 25 22  1  0  0  0  0
 26 27  1  0  0  0  0
 27 28  1  0  0  0  0
 29 31  1  6  0  0  0
 29 37  1  0  0  0  0
 30 36  1  0  0  0  0
 30 32  1  0  0  0  0
 32 28  1  1  0  0  0
 32 34  1  0  0  0  0
 34 37  1  0  0  0  0
 34 33  1  6  0  0  0
 35 29  1  0  0  0  0
 36 38  1  6  0  0  0
 36 35  1  0  0  0  0
 39 38  1  0  0  0  0
 40 41  1  0  0  0  0
 41 39  1  0  0  0  0
M  END
>  <MODEL>
3

>  <REMARK>
 VINA RESULT:      -5.6      2.038      3.899
  Name = 
  17 active torsions:
  status: ('A' for Active; 'I' for Inactive)
    1  A    between atoms: O_2  and  C_27
    2  A    between atoms: O_2  and  C_38
    3  A    between atoms: C_5  and  C_9
    4  A    between atoms: C_5  and  C_11
    5  A    between atoms: C_6  and  C_11
    6  A    between atoms: C_6  and  C_20
    7  A    between atoms: C_12  and  C_21
    8  A    between atoms: S_14  and  C_21
    9  A    between atoms: S_14  and  C_37
   10  A    between atoms: C_16  and  C_23
   11  A    between atoms: C_16  and  C_37
   12  A    between atoms: C_21  and  C_27
   13  A    between atoms: O_24  and  O_31
   14  A    between atoms: O_24  and  C_33
   15  A    between atoms: C_25  and  C_38
   16  A    between atoms: C_25  and  C_40
   17  A    between atoms: O_31  and  C_35
                            x       y       z     vdW  Elec       q    Type
                         _______ _______ _______ _____ _____    ______ ____

>  <TORSDO>
F 17

$$$$
=
 OpenBabel11072413263D

 41 43  0  0  1  0  0  0  0  0999 V2000
  160.8900  207.3460  147.9990 O   0  0  0  0  0  0  0  0  0  0  0  0
  161.9570  208.0180  150.2390 C   0  0  2  0  0  0  0  0  0  0  0  0
  160.7970  206.0440  148.5530 C   0  0  2  0  0  3  0  0  0  0  0  0
  161.6500  208.2730  148.7700 C   0  0  2  0  0  0  0  0  0  0  0  0
  161.5670  209.6090  148.3690 O   0  0  0  0  0  1  0  0  0  0  0  0
  160.4590  206.0260  150.0520 C   0  0  2  0  0  3  0  0  0  0  0  0
  163.0500  207.8520  149.1790 C   0  0  0  0  0  2  0  0  0  0  0  0
  161.5740  206.6770  150.8500 C   0  0  0  0  0  2  0  0  0  0  0  0
  161.9470  205.2970  148.2650 O   0  0  0  0  0  1  0  0  0  0  0  0
  160.2780  204.6010  150.5480 C   0  0  0  0  0  2  0  0  0  0  0  0
  161.5320  204.0850  151.2330 C   0  0  0  0  0  2  0  0  0  0  0  0
  161.5740  202.2590  151.2330 S   0  0  0  0  0  0  0  0  0  0  0  0
  160.4130  202.1020  149.8270 C   0  0  2  0  0  3  0  0  0  0  0  0
  159.2380  201.1820  150.1430 C   0  0  0  0  0  2  0  0  0  0  0  0
  158.3230  201.1420  149.0840 O   0  0  0  0  0  1  0  0  0  0  0  0
  161.6590  200.5800  148.5000 O   0  0  0  0  0  0  0  0  0  0  0  0
  161.1310  201.7210  148.5750 C   0  0  0  0  0  0  0  0  0  0  0  0
  161.2210  202.6190  147.5070 O   0  0  0  0  0  0  0  0  0  0  0  0
  161.1590  202.1850  146.1580 C   0  0  0  0  0  2  0  0  0  0  0  0
  158.8020  203.4100  143.8580 O   0  0  0  0  0  0  0  0  0  0  0  0
  159.8320  203.3810  144.5410 C   0  0  0  0  0  0  0  0  0  0  0  0
  160.9170  203.3520  145.2620 C   0  0  0  0  0  0  0  0  0  0  0  0
  161.5080  205.7310  144.8320 O   0  0  0  0  0  0  0  0  0  0  0  0
  163.1270  204.2070  145.3630 O   0  0  0  0  0  1  0  0  0  0  0  0
  161.9080  204.4390  145.1570 C   0  0  0  0  0  0  0  0  0  0  0  0
  162.2690  209.1810  151.1660 C   0  0  0  0  0  2  0  0  0  0  0  0
  161.0660  209.5100  152.0310 C   0  0  0  0  0  2  0  0  0  0  0  0
  161.1500  210.9610  152.4610 C   0  0  0  0  0  2  0  0  0  0  0  0
  159.2970  212.5030  156.1730 C   0  0  2  0  0  3  0  0  0  0  0  0
  159.9540  209.8520  154.3580 C   0  0  0  0  0  2  0  0  0  0  0  0
  160.2810  213.4870  156.0860 O   0  0  0  0  0  1  0  0  0  0  0  0
  160.3760  211.1920  153.7510 C   0  0  2  0  0  3  0  0  0  0  0  0
  158.2610  211.8400  152.4910 C   0  0  0  0  0  1  0  0  0  0  0  0
  159.2310  212.2190  153.5990 C   0  0  1  0  0  3  0  0  0  0  0  0
  159.9330  211.1510  156.5590 C   0  0  0  0  0  2  0  0  0  0  0  0
  159.3680  209.9610  155.7730 C   0  0  2  0  0  3  0  0  0  0  0  0
  158.4470  212.4800  154.8920 C   0  0  0  0  0  2  0  0  0  0  0  0
  159.6160  208.7750  156.4710 O   0  0  0  0  0  0  0  0  0  0  0  0
  160.6960  208.2670  155.9080 O   0  0  0  0  0  0  0  0  0  0  0  0
  160.8120  206.4760  154.3500 C   0  0  0  0  0  1  0  0  0  0  0  0
  160.4120  206.9100  155.7440 C   0  0  0  0  0  2  0  0  0  0  0  0
  1  3  1  0  0  0  0
  1  4  1  0  0  0  0
  2  8  1  0  0  0  0
  2 26  1  1  0  0  0
  3  9  1  1  0  0  0
  3  6  1  0  0  0  0
  4  5  1  6  0  0  0
  4  7  1  0  0  0  0
  4  2  1  0  0  0  0
  6 10  1  1  0  0  0
  6  8  1  0  0  0  0
  7  2  1  0  0  0  0
 10 11  1  0  0  0  0
 11 12  1  0  0  0  0
 13 14  1  1  0  0  0
 13 12  1  0  0  0  0
 15 14  1  0  0  0  0
 16 17  2  0  0  0  0
 17 13  1  0  0  0  0
 18 17  1  0  0  0  0
 19 18  1  0  0  0  0
 20 21  2  0  0  0  0
 21 22  2  0  0  0  0
 22 19  1  0  0  0  0
 23 25  2  0  0  0  0
 25 22  1  0  0  0  0
 25 24  1  0  0  0  0
 26 27  1  0  0  0  0
 27 28  1  0  0  0  0
 29 31  1  6  0  0  0
 29 35  1  0  0  0  0
 30 36  1  0  0  0  0
 32 28  1  6  0  0  0
 32 30  1  0  0  0  0
 34 33  1  6  0  0  0
 34 32  1  0  0  0  0
 34 37  1  0  0  0  0
 36 38  1  1  0  0  0
 36 35  1  0  0  0  0
 37 29  1  0  0  0  0
 39 38  1  0  0  0  0
 40 41  1  0  0  0  0
 41 39  1  0  0  0  0
M  END
>  <MODEL>
4

>  <REMARK>
 VINA RESULT:      -5.5      2.434      4.904
  Name = 
  17 active torsions:
  status: ('A' for Active; 'I' for Inactive)
    1  A    between atoms: O_2  and  C_27
    2  A    between atoms: O_2  and  C_38
    3  A    between atoms: C_5  and  C_9
    4  A    between atoms: C_5  and  C_11
    5  A    between atoms: C_6  and  C_11
    6  A    between atoms: C_6  and  C_20
    7  A    between atoms: C_12  and  C_21
    8  A    between atoms: S_14  and  C_21
    9  A    between atoms: S_14  and  C_37
   10  A    between atoms: C_16  and  C_23
   11  A    between atoms: C_16  and  C_37
   12  A    between atoms: C_21  and  C_27
   13  A    between atoms: O_24  and  O_31
   14  A    between atoms: O_24  and  C_33
   15  A    between atoms: C_25  and  C_38
   16  A    between atoms: C_25  and  C_40
   17  A    between atoms: O_31  and  C_35
                            x       y       z     vdW  Elec       q    Type
                         _______ _______ _______ _____ _____    ______ ____

>  <TORSDO>
F 17

$$$$
=
 OpenBabel11072413263D

 41 43  0  0  1  0  0  0  0  0999 V2000
  162.3350  204.9460  152.1330 O   0  0  0  0  0  0  0  0  0  0  0  0
  160.9520  207.1110  152.2250 C   0  0  2  0  0  0  0  0  0  0  0  0
  161.7070  204.7220  150.8810 C   0  0  2  0  0  3  0  0  0  0  0  0
  161.8040  206.0350  152.8840 C   0  0  2  0  0  0  0  0  0  0  0  0
  162.5450  206.4190  154.0050 O   0  0  0  0  0  1  0  0  0  0  0  0
  161.4920  205.9980  150.0530 C   0  0  2  0  0  3  0  0  0  0  0  0
  160.3040  206.0490  153.1190 C   0  0  0  0  0  2  0  0  0  0  0  0
  160.5370  206.9350  150.7710 C   0  0  0  0  0  2  0  0  0  0  0  0
  160.5210  203.9940  151.0420 O   0  0  0  0  0  1  0  0  0  0  0  0
  160.9090  205.6660  148.6890 C   0  0  0  0  0  2  0  0  0  0  0  0
  161.0950  206.8120  147.7090 C   0  0  0  0  0  2  0  0  0  0  0  0
  160.4560  206.3690  146.0570 S   0  0  0  0  0  0  0  0  0  0  0  0
  161.3250  204.7590  146.0070 C   0  0  2  0  0  3  0  0  0  0  0  0
  162.8370  204.9180  145.8890 C   0  0  0  0  0  2  0  0  0  0  0  0
  163.1770  205.8240  144.8780 O   0  0  0  0  0  1  0  0  0  0  0  0
  160.0080  204.3710  144.0710 O   0  0  0  0  0  0  0  0  0  0  0  0
  160.7490  203.8680  144.9570 C   0  0  0  0  0  0  0  0  0  0  0  0
  161.0220  202.4970  144.9620 O   0  0  0  0  0  0  0  0  0  0  0  0
  160.1100  201.5540  145.5010 C   0  0  0  0  0  2  0  0  0  0  0  0
  161.5580  198.3580  145.6880 O   0  0  0  0  0  0  0  0  0  0  0  0
  161.1960  199.4780  146.0650 C   0  0  0  0  0  0  0  0  0  0  0  0
  160.8160  200.6590  146.4630 C   0  0  0  0  0  0  0  0  0  0  0  0
  161.7370  200.2630  148.7400 O   0  0  0  0  0  1  0  0  0  0  0  0
  160.6180  202.1970  148.2580 O   0  0  0  0  0  0  0  0  0  0  0  0
  161.0460  201.0840  147.8560 C   0  0  0  0  0  0  0  0  0  0  0  0
  160.8460  208.4910  152.8540 C   0  0  0  0  0  2  0  0  0  0  0  0
  161.8980  209.4210  152.2770 C   0  0  0  0  0  2  0  0  0  0  0  0
  162.2980  210.4290  153.3360 C   0  0  0  0  0  2  0  0  0  0  0  0
  160.0780  209.0480  156.9070 C   0  0  2  0  0  3  0  0  0  0  0  0
  160.5180  211.4770  154.7480 C   0  0  0  0  0  2  0  0  0  0  0  0
  160.2610  207.7810  156.3550 O   0  0  0  0  0  1  0  0  0  0  0  0
  161.4460  210.2710  154.5880 C   0  0  2  0  0  3  0  0  0  0  0  0
  163.3740  210.9390  156.1110 C   0  0  0  0  0  1  0  0  0  0  0  0
  162.2730  209.9240  155.8460 C   0  0  1  0  0  3  0  0  0  0  0  0
  159.0580  209.8490  156.0700 C   0  0  0  0  0  2  0  0  0  0  0  0
  159.4590  211.3120  155.8490 C   0  0  2  0  0  3  0  0  0  0  0  0
  161.4330  209.7420  157.1180 C   0  0  0  0  0  2  0  0  0  0  0  0
  158.3290  212.0670  155.5220 O   0  0  0  0  0  0  0  0  0  0  0  0
  157.6420  211.3100  154.6870 O   0  0  0  0  0  0  0  0  0  0  0  0
  155.4580  210.4640  155.0960 C   0  0  0  0  0  1  0  0  0  0  0  0
  156.3110  211.6940  154.8660 C   0  0  0  0  0  2  0  0  0  0  0  0
  1  4  1  0  0  0  0
  2 26  1  1  0  0  0
  2  4  1  0  0  0  0
  2  7  1  0  0  0  0
  3  9  1  1  0  0  0
  3  1  1  0  0  0  0
  4  7  1  0  0  0  0
  4  5  1  1  0  0  0
  6 10  1  6  0  0  0
  6  8  1  0  0  0  0
  6  3  1  0  0  0  0
  8  2  1  0  0  0  0
 11 10  1  0  0  0  0
 12 11  1  0  0  0  0
 13 14  1  6  0  0  0
 13 12  1  0  0  0  0
 15 14  1  0  0  0  0
 16 17  2  0  0  0  0
 17 18  1  0  0  0  0
 17 13  1  0  0  0  0
 18 19  1  0  0  0  0
 19 22  1  0  0  0  0
 20 21  2  0  0  0  0
 21 22  2  0  0  0  0
 22 25  1  0  0  0  0
 25 24  2  0  0  0  0
 25 23  1  0  0  0  0
 27 26  1  0  0  0  0
 27 28  1  0  0  0  0
 29 31  1  6  0  0  0
 29 37  1  0  0  0  0
 30 36  1  0  0  0  0
 32 28  1  6  0  0  0
 32 30  1  0  0  0  0
 32 34  1  0  0  0  0
 34 33  1  1  0  0  0
 34 37  1  0  0  0  0
 35 29  1  0  0  0  0
 36 38  1  6  0  0  0
 36 35  1  0  0  0  0
 39 41  1  0  0  0  0
 39 38  1  0  0  0  0
 41 40  1  0  0  0  0
M  END
>  <MODEL>
5

>  <REMARK>
 VINA RESULT:      -5.4      2.439      3.799
  Name = 
  17 active torsions:
  status: ('A' for Active; 'I' for Inactive)
    1  A    between atoms: O_2  and  C_27
    2  A    between atoms: O_2  and  C_38
    3  A    between atoms: C_5  and  C_9
    4  A    between atoms: C_5  and  C_11
    5  A    between atoms: C_6  and  C_11
    6  A    between atoms: C_6  and  C_20
    7  A    between atoms: C_12  and  C_21
    8  A    between atoms: S_14  and  C_21
    9  A    between atoms: S_14  and  C_37
   10  A    between atoms: C_16  and  C_23
   11  A    between atoms: C_16  and  C_37
   12  A    between atoms: C_21  and  C_27
   13  A    between atoms: O_24  and  O_31
   14  A    between atoms: O_24  and  C_33
   15  A    between atoms: C_25  and  C_38
   16  A    between atoms: C_25  and  C_40
   17  A    between atoms: O_31  and  C_35
                            x       y       z     vdW  Elec       q    Type
                         _______ _______ _______ _____ _____    ______ ____

>  <TORSDO>
F 17

$$$$
=
 OpenBabel11072413263D

 41 43  0  0  1  0  0  0  0  0999 V2000
  162.2820  208.6310  149.8020 O   0  0  0  0  0  0  0  0  0  0  0  0
  161.1970  209.7220  151.8620 C   0  0  2  0  0  0  0  0  0  0  0  0
  162.1780  207.4130  150.5230 C   0  0  2  0  0  3  0  0  0  0  0  0
  161.9750  209.8020  150.5550 C   0  0  2  0  0  0  0  0  0  0  0  0
  161.8470  210.9820  149.8180 O   0  0  0  0  0  1  0  0  0  0  0  0
  160.8970  207.2920  151.3610 C   0  0  2  0  0  3  0  0  0  0  0  0
  162.7050  209.9900  151.8730 C   0  0  0  0  0  2  0  0  0  0  0  0
  160.8760  208.3540  152.4460 C   0  0  0  0  0  2  0  0  0  0  0  0
  163.3300  207.1880  151.2880 O   0  0  0  0  0  1  0  0  0  0  0  0
  160.8100  205.9250  152.0210 C   0  0  0  0  0  2  0  0  0  0  0  0
  161.3880  204.8380  151.1300 C   0  0  0  0  0  2  0  0  0  0  0  0
  160.6910  204.9350  149.4450 S   0  0  0  0  0  0  0  0  0  0  0  0
  160.5810  203.1200  149.2440 C   0  0  2  0  0  3  0  0  0  0  0  0
  161.0440  202.3670  150.4870 C   0  0  0  0  0  2  0  0  0  0  0  0
  160.6970  201.0130  150.4220 O   0  0  0  0  0  1  0  0  0  0  0  0
  160.9810  201.5490  147.5110 O   0  0  0  0  0  0  0  0  0  0  0  0
  161.2730  202.6730  148.0000 C   0  0  0  0  0  0  0  0  0  0  0  0
  162.2340  203.4860  147.3910 O   0  0  0  0  0  0  0  0  0  0  0  0
  162.3400  203.5910  145.9800 C   0  0  0  0  0  2  0  0  0  0  0  0
  159.3670  203.2340  144.1420 O   0  0  0  0  0  0  0  0  0  0  0  0
  160.2630  203.8010  144.7770 C   0  0  0  0  0  0  0  0  0  0  0  0
  161.2070  204.4000  145.4470 C   0  0  0  0  0  0  0  0  0  0  0  0
  161.9280  206.4640  146.6350 O   0  0  0  0  0  1  0  0  0  0  0  0
  160.4540  206.5800  144.8920 O   0  0  0  0  0  0  0  0  0  0  0  0
  161.1710  205.8620  145.6360 C   0  0  0  0  0  0  0  0  0  0  0  0
  160.4250  210.9310  152.3640 C   0  0  0  0  0  2  0  0  0  0  0  0
  159.5750  210.5590  153.5650 C   0  0  0  0  0  2  0  0  0  0  0  0
  159.7450  211.6180  154.6360 C   0  0  0  0  0  2  0  0  0  0  0  0
  155.8440  213.4050  155.7190 C   0  0  2  0  0  3  0  0  0  0  0  0
  158.3030  213.3500  153.5500 C   0  0  0  0  0  2  0  0  0  0  0  0
  155.5990  212.1640  156.3050 O   0  0  0  0  0  1  0  0  0  0  0  0
  158.4820  212.4550  154.7790 C   0  0  2  0  0  3  0  0  0  0  0  0
  159.6090  214.0700  156.3920 C   0  0  0  0  0  1  0  0  0  0  0  0
  158.3930  213.1950  156.1320 C   0  0  1  0  0  3  0  0  0  0  0  0
  155.8270  213.2770  154.1810 C   0  0  0  0  0  2  0  0  0  0  0  0
  156.9450  214.0650  153.4880 C   0  0  2  0  0  3  0  0  0  0  0  0
  157.1180  214.0330  156.3050 C   0  0  0  0  0  2  0  0  0  0  0  0
  156.6020  214.2940  152.1510 O   0  0  0  0  0  0  0  0  0  0  0  0
  157.5770  213.7470  151.4500 O   0  0  0  0  0  0  0  0  0  0  0  0
  155.6410  214.0780  150.1100 C   0  0  0  0  0  1  0  0  0  0  0  0
  157.1220  213.7610  150.1300 C   0  0  0  0  0  2  0  0  0  0  0  0
  1  3  1  0  0  0  0
  1  4  1  0  0  0  0
  2  7  1  0  0  0  0
  2 26  1  1  0  0  0
  2  8  1  0  0  0  0
  3  9  1  1  0  0  0
  3  6  1  0  0  0  0
  4  5  1  6  0  0  0
  4  2  1  0  0  0  0
  4  7  1  0  0  0  0
  6 10  1  1  0  0  0
  6  8  1  0  0  0  0
 11 10  1  0  0  0  0
 12 11  1  0  0  0  0
 13 12  1  0  0  0  0
 13 14  1  1  0  0  0
 15 14  1  0  0  0  0
 16 17  2  0  0  0  0
 17 13  1  0  0  0  0
 18 17  1  0  0  0  0
 19 18  1  0  0  0  0
 20 21  2  0  0  0  0
 21 22  2  0  0  0  0
 22 25  1  0  0  0  0
 22 19  1  0  0  0  0
 24 25  2  0  0  0  0
 25 23  1  0  0  0  0
 26 27  1  0  0  0  0
 27 28  1  0  0  0  0
 29 31  1  1  0  0  0
 29 37  1  0  0  0  0
 30 32  1  0  0  0  0
 32 28  1  6  0  0  0
 32 34  1  0  0  0  0
 34 37  1  0  0  0  0
 34 33  1  6  0  0  0
 35 29  1  0  0  0  0
 36 38  1  6  0  0  0
 36 30  1  0  0  0  0
 36 35  1  0  0  0  0
 39 38  1  0  0  0  0
 40 41  1  0  0  0  0
 41 39  1  0  0  0  0
M  END
>  <MODEL>
6

>  <REMARK>
 VINA RESULT:      -5.3      1.844      3.858
  Name = 
  17 active torsions:
  status: ('A' for Active; 'I' for Inactive)
    1  A    between atoms: O_2  and  C_27
    2  A    between atoms: O_2  and  C_38
    3  A    between atoms: C_5  and  C_9
    4  A    between atoms: C_5  and  C_11
    5  A    between atoms: C_6  and  C_11
    6  A    between atoms: C_6  and  C_20
    7  A    between atoms: C_12  and  C_21
    8  A    between atoms: S_14  and  C_21
    9  A    between atoms: S_14  and  C_37
   10  A    between atoms: C_16  and  C_23
   11  A    between atoms: C_16  and  C_37
   12  A    between atoms: C_21  and  C_27
   13  A    between atoms: O_24  and  O_31
   14  A    between atoms: O_24  and  C_33
   15  A    between atoms: C_25  and  C_38
   16  A    between atoms: C_25  and  C_40
   17  A    between atoms: O_31  and  C_35
                            x       y       z     vdW  Elec       q    Type
                         _______ _______ _______ _____ _____    ______ ____

>  <TORSDO>
F 17

$$$$
=
 OpenBabel11072413263D

 41 43  0  0  1  0  0  0  0  0999 V2000
  160.6960  205.7200  149.4490 O   0  0  0  0  0  0  0  0  0  0  0  0
  161.6250  208.1030  149.1960 C   0  0  2  0  0  0  0  0  0  0  0  0
  161.0600  205.8350  150.8150 C   0  0  2  0  0  3  0  0  0  0  0  0
  161.1630  206.7750  148.6120 C   0  0  2  0  0  0  0  0  0  0  0  0
  160.6310  206.8070  147.3200 O   0  0  0  0  0  1  0  0  0  0  0  0
  160.8370  207.2370  151.4040 C   0  0  2  0  0  3  0  0  0  0  0  0
  162.6460  207.0950  148.6620 C   0  0  0  0  0  2  0  0  0  0  0  0
  161.7300  208.2470  150.7070 C   0  0  0  0  0  2  0  0  0  0  0  0
  162.3690  205.3810  151.0220 O   0  0  0  0  0  1  0  0  0  0  0  0
  161.1540  207.2550  152.8900 C   0  0  0  0  0  2  0  0  0  0  0  0
  160.8420  208.6060  153.5110 C   0  0  0  0  0  2  0  0  0  0  0  0
  161.0620  208.5600  155.3230 S   0  0  0  0  0  0  0  0  0  0  0  0
  161.1280  210.3800  155.4940 C   0  0  2  0  0  3  0  0  0  0  0  0
  162.1990  210.8340  156.4810 C   0  0  0  0  0  2  0  0  0  0  0  0
  163.4760  210.7730  155.9110 O   0  0  0  0  0  1  0  0  0  0  0  0
  159.2420  210.6700  156.9060 O   0  0  0  0  0  0  0  0  0  0  0  0
  159.7790  210.9420  155.7990 C   0  0  0  0  0  0  0  0  0  0  0  0
  159.1200  211.7520  154.8690 O   0  0  0  0  0  0  0  0  0  0  0  0
  157.7040  211.8010  154.7890 C   0  0  0  0  0  2  0  0  0  0  0  0
  154.9600  213.8350  153.9660 O   0  0  0  0  0  0  0  0  0  0  0  0
  156.0940  213.3490  153.8860 C   0  0  0  0  0  0  0  0  0  0  0  0
  157.2900  212.8390  153.8010 C   0  0  0  0  0  0  0  0  0  0  0  0
  158.9600  214.4100  152.8370 O   0  0  0  0  0  1  0  0  0  0  0  0
  158.2960  212.5590  151.6720 O   0  0  0  0  0  0  0  0  0  0  0  0
  158.2000  213.2520  152.7170 C   0  0  0  0  0  0  0  0  0  0  0  0
  161.6020  209.3600  148.3410 C   0  0  0  0  0  2  0  0  0  0  0  0
  162.5610  210.3980  148.8940 C   0  0  0  0  0  2  0  0  0  0  0  0
  161.7690  211.5990  149.3690 C   0  0  0  0  0  2  0  0  0  0  0  0
  159.0790  213.2680  146.2750 C   0  0  2  0  0  3  0  0  0  0  0  0
  162.1870  212.7670  147.1960 C   0  0  0  0  0  2  0  0  0  0  0  0
  158.2140  212.2540  146.6840 O   0  0  0  0  0  1  0  0  0  0  0  0
  161.1180  212.3200  148.1960 C   0  0  2  0  0  3  0  0  0  0  0  0
  160.7980  214.4530  149.5480 C   0  0  0  0  0  1  0  0  0  0  0  0
  160.1400  213.4320  148.6330 C   0  0  1  0  0  3  0  0  0  0  0  0
  160.2740  212.6670  145.5040 C   0  0  0  0  0  2  0  0  0  0  0  0
  161.6210  213.2990  145.8710 C   0  0  2  0  0  3  0  0  0  0  0  0
  159.4580  214.1620  147.4670 C   0  0  0  0  0  2  0  0  0  0  0  0
  162.5450  213.0680  144.8460 O   0  0  0  0  0  0  0  0  0  0  0  0
  161.9650  213.5270  143.7540 O   0  0  0  0  0  0  0  0  0  0  0  0
  161.1170  212.5420  141.7630 C   0  0  0  0  0  1  0  0  0  0  0  0
  162.2470  212.5770  142.7700 C   0  0  0  0  0  2  0  0  0  0  0  0
  1  3  1  0  0  0  0
  2 26  1  6  0  0  0
  2  8  1  0  0  0  0
  3  9  1  6  0  0  0
  3  6  1  0  0  0  0
  4  5  1  6  0  0  0
  4  7  1  0  0  0  0
  4  2  1  0  0  0  0
  4  1  1  0  0  0  0
  6 10  1  1  0  0  0
  7  2  1  0  0  0  0
  8  6  1  0  0  0  0
 10 11  1  0  0  0  0
 11 12  1  0  0  0  0
 12 13  1  0  0  0  0
 13 17  1  0  0  0  0
 13 14  1  1  0  0  0
 15 14  1  0  0  0  0
 17 16  2  0  0  0  0
 18 17  1  0  0  0  0
 19 18  1  0  0  0  0
 21 20  2  0  0  0  0
 22 21  2  0  0  0  0
 22 19  1  0  0  0  0
 24 25  2  0  0  0  0
 25 23  1  0  0  0  0
 25 22  1  0  0  0  0
 26 27  1  0  0  0  0
 27 28  1  0  0  0  0
 29 31  1  1  0  0  0
 29 37  1  0  0  0  0
 30 32  1  0  0  0  0
 32 34  1  0  0  0  0
 32 28  1  1  0  0  0
 34 33  1  6  0  0  0
 35 36  1  0  0  0  0
 35 29  1  0  0  0  0
 36 38  1  6  0  0  0
 36 30  1  0  0  0  0
 37 34  1  0  0  0  0
 39 38  1  0  0  0  0
 40 41  1  0  0  0  0
 41 39  1  0  0  0  0
M  END
>  <MODEL>
7

>  <REMARK>
 VINA RESULT:      -5.1      3.235      8.670
  Name = 
  17 active torsions:
  status: ('A' for Active; 'I' for Inactive)
    1  A    between atoms: O_2  and  C_27
    2  A    between atoms: O_2  and  C_38
    3  A    between atoms: C_5  and  C_9
    4  A    between atoms: C_5  and  C_11
    5  A    between atoms: C_6  and  C_11
    6  A    between atoms: C_6  and  C_20
    7  A    between atoms: C_12  and  C_21
    8  A    between atoms: S_14  and  C_21
    9  A    between atoms: S_14  and  C_37
   10  A    between atoms: C_16  and  C_23
   11  A    between atoms: C_16  and  C_37
   12  A    between atoms: C_21  and  C_27
   13  A    between atoms: O_24  and  O_31
   14  A    between atoms: O_24  and  C_33
   15  A    between atoms: C_25  and  C_38
   16  A    between atoms: C_25  and  C_40
   17  A    between atoms: O_31  and  C_35
                            x       y       z     vdW  Elec       q    Type
                         _______ _______ _______ _____ _____    ______ ____

>  <TORSDO>
F 17

$$$$
=
 OpenBabel11072413263D

 41 43  0  0  1  0  0  0  0  0999 V2000
  161.4650  214.3670  148.1470 O   0  0  0  0  0  0  0  0  0  0  0  0
  161.6130  211.9470  149.0010 C   0  0  2  0  0  0  0  0  0  0  0  0
  160.2100  214.4130  148.8080 C   0  0  2  0  0  3  0  0  0  0  0  0
  162.0610  213.0740  148.0810 C   0  0  2  0  0  0  0  0  0  0  0  0
  163.3880  213.0380  147.6440 O   0  0  0  0  0  1  0  0  0  0  0  0
  160.1790  213.6490  150.1390 C   0  0  2  0  0  3  0  0  0  0  0  0
  161.2120  211.9460  147.5230 C   0  0  0  0  0  2  0  0  0  0  0  0
  160.4040  212.1670  149.9000 C   0  0  0  0  0  2  0  0  0  0  0  0
  159.1800  214.0130  147.9470 O   0  0  0  0  0  1  0  0  0  0  0  0
  158.8380  213.8280  150.8330 C   0  0  0  0  0  2  0  0  0  0  0  0
  158.9720  213.7220  152.3430 C   0  0  0  0  0  2  0  0  0  0  0  0
  158.8580  211.9840  152.8890 S   0  0  0  0  0  0  0  0  0  0  0  0
  158.0340  212.3960  154.4700 C   0  0  2  0  0  3  0  0  0  0  0  0
  157.0480  213.5510  154.3280 C   0  0  0  0  0  2  0  0  0  0  0  0
  155.7240  213.0960  154.3560 O   0  0  0  0  0  1  0  0  0  0  0  0
  159.5690  213.7470  155.6740 O   0  0  0  0  0  0  0  0  0  0  0  0
  159.0330  212.6130  155.5570 C   0  0  0  0  0  0  0  0  0  0  0  0
  159.3720  211.5720  156.4270 O   0  0  0  0  0  0  0  0  0  0  0  0
  159.0870  210.2170  156.1200 C   0  0  0  0  0  2  0  0  0  0  0  0
  162.4690  210.7890  155.3620 O   0  0  0  0  0  0  0  0  0  0  0  0
  161.4410  210.1500  155.6100 C   0  0  0  0  0  0  0  0  0  0  0  0
  160.3570  209.4760  155.8730 C   0  0  0  0  0  0  0  0  0  0  0  0
  161.5640  207.3140  155.6250 O   0  0  0  0  0  0  0  0  0  0  0  0
  159.3330  207.3510  156.1240 O   0  0  0  0  0  1  0  0  0  0  0  0
  160.3830  208.0010  155.8820 C   0  0  0  0  0  0  0  0  0  0  0  0
  162.5550  210.7950  149.3110 C   0  0  0  0  0  2  0  0  0  0  0  0
  162.0120  209.9560  150.4530 C   0  0  0  0  0  2  0  0  0  0  0  0
  162.9070  208.7480  150.6470 C   0  0  0  0  0  2  0  0  0  0  0  0
  161.2240  204.6750  151.0450 C   0  0  2  0  0  3  0  0  0  0  0  0
  161.2160  207.4650  149.3220 C   0  0  0  0  0  2  0  0  0  0  0  0
  162.4700  204.3670  151.5900 O   0  0  0  0  0  1  0  0  0  0  0  0
  162.1040  207.4580  150.5690 C   0  0  2  0  0  3  0  0  0  0  0  0
  160.4560  208.2540  152.3390 C   0  0  0  0  0  1  0  0  0  0  0  0
  161.3640  207.1220  151.8830 C   0  0  1  0  0  3  0  0  0  0  0  0
  161.3550  204.9210  149.5270 C   0  0  0  0  0  2  0  0  0  0  0  0
  160.5380  206.1190  149.0280 C   0  0  2  0  0  3  0  0  0  0  0  0
  160.5600  205.8150  151.8340 C   0  0  0  0  0  2  0  0  0  0  0  0
  160.3210  206.0000  147.6510 O   0  0  0  0  0  0  0  0  0  0  0  0
  161.2060  205.1130  147.2410 O   0  0  0  0  0  0  0  0  0  0  0  0
  160.3120  206.1180  145.2810 C   0  0  0  0  0  1  0  0  0  0  0  0
  161.5280  205.5010  145.9390 C   0  0  0  0  0  2  0  0  0  0  0  0
  1  3  1  0  0  0  0
  2 26  1  1  0  0  0
  2  8  1  0  0  0  0
  3  9  1  6  0  0  0
  3  6  1  0  0  0  0
  4  5  1  6  0  0  0
  4  1  1  0  0  0  0
  4  2  1  0  0  0  0
  6 10  1  6  0  0  0
  7  4  1  0  0  0  0
  7  2  1  0  0  0  0
  8  6  1  0  0  0  0
 10 11  1  0  0  0  0
 11 12  1  0  0  0  0
 12 13  1  0  0  0  0
 13 14  1  6  0  0  0
 13 17  1  0  0  0  0
 14 15  1  0  0  0  0
 17 16  2  0  0  0  0
 17 18  1  0  0  0  0
 19 18  1  0  0  0  0
 20 21  2  0  0  0  0
 21 22  2  0  0  0  0
 22 25  1  0  0  0  0
 22 19  1  0  0  0  0
 23 25  2  0  0  0  0
 25 24  1  0  0  0  0
 26 27  1  0  0  0  0
 27 28  1  0  0  0  0
 29 31  1  1  0  0  0
 29 37  1  0  0  0  0
 30 32  1  0  0  0  0
 32 28  1  1  0  0  0
 32 34  1  0  0  0  0
 34 33  1  6  0  0  0
 35 29  1  0  0  0  0
 36 38  1  6  0  0  0
 36 30  1  0  0  0  0
 36 35  1  0  0  0  0
 37 34  1  0  0  0  0
 39 38  1  0  0  0  0
 40 41  1  0  0  0  0
 41 39  1  0  0  0  0
M  END
>  <MODEL>
8

>  <REMARK>
 VINA RESULT:      -4.7      2.566      9.272
  Name = 
  17 active torsions:
  status: ('A' for Active; 'I' for Inactive)
    1  A    between atoms: O_2  and  C_27
    2  A    between atoms: O_2  and  C_38
    3  A    between atoms: C_5  and  C_9
    4  A    between atoms: C_5  and  C_11
    5  A    between atoms: C_6  and  C_11
    6  A    between atoms: C_6  and  C_20
    7  A    between atoms: C_12  and  C_21
    8  A    between atoms: S_14  and  C_21
    9  A    between atoms: S_14  and  C_37
   10  A    between atoms: C_16  and  C_23
   11  A    between atoms: C_16  and  C_37
   12  A    between atoms: C_21  and  C_27
   13  A    between atoms: O_24  and  O_31
   14  A    between atoms: O_24  and  C_33
   15  A    between atoms: C_25  and  C_38
   16  A    between atoms: C_25  and  C_40
   17  A    between atoms: O_31  and  C_35
                            x       y       z     vdW  Elec       q    Type
                         _______ _______ _______ _____ _____    ______ ____

>  <TORSDO>
F 17

$$$$
=
 OpenBabel11072413263D

 41 43  0  0  1  0  0  0  0  0999 V2000
  161.7860  211.0070  155.6700 O   0  0  0  0  0  0  0  0  0  0  0  0
  159.2770  210.4490  155.6560 C   0  0  2  0  0  0  0  0  0  0  0  0
  161.9920  209.6040  155.6140 C   0  0  2  0  0  3  0  0  0  0  0  0
  160.4370  211.4070  155.8930 C   0  0  2  0  0  0  0  0  0  0  0  0
  160.1710  212.7690  155.7260 O   0  0  0  0  0  1  0  0  0  0  0  0
  160.9730  208.8600  154.7380 C   0  0  2  0  0  3  0  0  0  0  0  0
  159.7180  210.7940  157.0820 C   0  0  0  0  0  2  0  0  0  0  0  0
  159.5790  208.9950  155.3230 C   0  0  0  0  0  2  0  0  0  0  0  0
  162.0730  209.0610  156.9020 O   0  0  0  0  0  1  0  0  0  0  0  0
  161.3170  207.3820  154.6460 C   0  0  0  0  0  2  0  0  0  0  0  0
  161.8830  207.0240  153.2820 C   0  0  0  0  0  2  0  0  0  0  0  0
  160.8120  207.6540  151.9440 S   0  0  0  0  0  0  0  0  0  0  0  0
  161.7870  206.8650  150.6120 C   0  0  2  0  0  3  0  0  0  0  0  0
  161.5500  207.5170  149.2540 C   0  0  0  0  0  2  0  0  0  0  0  0
  162.7000  207.4670  148.4570 O   0  0  0  0  0  1  0  0  0  0  0  0
  162.0160  204.7000  151.5550 O   0  0  0  0  0  0  0  0  0  0  0  0
  161.5790  205.3880  150.5950 C   0  0  0  0  0  0  0  0  0  0  0  0
  160.9140  204.7770  149.5270 O   0  0  0  0  0  0  0  0  0  0  0  0
  160.3030  203.5030  149.6560 C   0  0  0  0  0  2  0  0  0  0  0  0
  161.4350  203.3510  146.3330 O   0  0  0  0  0  0  0  0  0  0  0  0
  161.1800  202.9610  147.4780 C   0  0  0  0  0  0  0  0  0  0  0  0
  160.9130  202.5490  148.6850 C   0  0  0  0  0  0  0  0  0  0  0  0
  161.2570  200.7880  150.4080 O   0  0  0  0  0  1  0  0  0  0  0  0
  161.3210  200.2680  148.1820 O   0  0  0  0  0  0  0  0  0  0  0  0
  161.1730  201.1490  149.0680 C   0  0  0  0  0  0  0  0  0  0  0  0
  157.8860  210.9920  155.3700 C   0  0  0  0  0  2  0  0  0  0  0  0
  157.9290  211.9920  154.2300 C   0  0  0  0  0  2  0  0  0  0  0  0
  158.6270  211.3570  153.0430 C   0  0  0  0  0  2  0  0  0  0  0  0
  157.5870  213.7240  149.4510 C   0  0  2  0  0  3  0  0  0  0  0  0
  160.0020  212.6090  151.3680 C   0  0  0  0  0  2  0  0  0  0  0  0
  156.5060  212.8480  149.3620 O   0  0  0  0  0  1  0  0  0  0  0  0
  158.5810  212.2760  151.8300 C   0  0  2  0  0  3  0  0  0  0  0  0
  158.0480  214.3130  153.2600 C   0  0  0  0  0  1  0  0  0  0  0  0
  157.6660  213.5040  152.0310 C   0  0  1  0  0  3  0  0  0  0  0  0
  158.8960  212.9870  149.0960 C   0  0  0  0  0  2  0  0  0  0  0  0
  160.0680  213.3400  150.0190 C   0  0  2  0  0  3  0  0  0  0  0  0
  157.5900  214.4350  150.8130 C   0  0  0  0  0  2  0  0  0  0  0  0
  161.2770  213.0360  149.3850 O   0  0  0  0  0  0  0  0  0  0  0  0
  161.6690  214.1690  148.8360 O   0  0  0  0  0  0  0  0  0  0  0  0
  163.1320  212.5460  147.8990 C   0  0  0  0  0  1  0  0  0  0  0  0
  162.3090  213.7920  147.6530 C   0  0  0  0  0  2  0  0  0  0  0  0
  1  4  1  0  0  0  0
  2 26  1  6  0  0  0
  2  4  1  0  0  0  0
  2  7  1  0  0  0  0
  3  1  1  0  0  0  0
  3  9  1  1  0  0  0
  4  5  1  6  0  0  0
  4  7  1  0  0  0  0
  6 10  1  1  0  0  0
  6  8  1  0  0  0  0
  6  3  1  0  0  0  0
  8  2  1  0  0  0  0
 11 10  1  0  0  0  0
 12 11  1  0  0  0  0
 13 14  1  6  0  0  0
 13 12  1  0  0  0  0
 15 14  1  0  0  0  0
 17 13  1  0  0  0  0
 17 16  2  0  0  0  0
 18 19  1  0  0  0  0
 18 17  1  0  0  0  0
 20 21  2  0  0  0  0
 21 22  2  0  0  0  0
 22 25  1  0  0  0  0
 22 19  1  0  0  0  0
 24 25  2  0  0  0  0
 25 23  1  0  0  0  0
 27 26  1  0  0  0  0
 28 27  1  0  0  0  0
 29 31  1  1  0  0  0
 29 37  1  0  0  0  0
 30 32  1  0  0  0  0
 32 34  1  0  0  0  0
 32 28  1  1  0  0  0
 34 33  1  1  0  0  0
 35 29  1  0  0  0  0
 35 36  1  0  0  0  0
 36 38  1  6  0  0  0
 36 30  1  0  0  0  0
 37 34  1  0  0  0  0
 39 38  1  0  0  0  0
 41 40  1  0  0  0  0
 41 39  1  0  0  0  0
M  END
>  <MODEL>
9

>  <REMARK>
 VINA RESULT:      -4.7      2.181      4.219
  Name = 
  17 active torsions:
  status: ('A' for Active; 'I' for Inactive)
    1  A    between atoms: O_2  and  C_27
    2  A    between atoms: O_2  and  C_38
    3  A    between atoms: C_5  and  C_9
    4  A    between atoms: C_5  and  C_11
    5  A    between atoms: C_6  and  C_11
    6  A    between atoms: C_6  and  C_20
    7  A    between atoms: C_12  and  C_21
    8  A    between atoms: S_14  and  C_21
    9  A    between atoms: S_14  and  C_37
   10  A    between atoms: C_16  and  C_23
   11  A    between atoms: C_16  and  C_37
   12  A    between atoms: C_21  and  C_27
   13  A    between atoms: O_24  and  O_31
   14  A    between atoms: O_24  and  C_33
   15  A    between atoms: C_25  and  C_38
   16  A    between atoms: C_25  and  C_40
   17  A    between atoms: O_31  and  C_35
                            x       y       z     vdW  Elec       q    Type
                         _______ _______ _______ _____ _____    ______ ____

>  <TORSDO>
F 17

$$$$
