=
 OpenBabel11072412433D

 55 62  0  0  1  0  0  0  0  0999 V2000
  161.9460  210.2210  150.4070 C   0  0  2  0  0  3  0  0  0  0  0  0
  161.8720  211.1090  154.0890 C   0  0  0  0  0  0  0  0  0  0  0  0
  160.6220  207.8020  153.6970 C   0  0  2  0  0  3  0  0  0  0  0  0
  162.4710  210.8520  156.4320 C   0  0  0  0  0  3  0  0  0  0  0  0
  159.8910  209.0320  153.3140 C   0  0  0  0  0  0  0  0  0  0  0  0
  159.6880  207.1040  156.9570 N   0  0  0  0  0  2  0  0  0  0  0  0
  161.3510  211.5930  156.8080 C   0  0  0  0  0  3  0  0  0  0  0  0
  160.5030  212.1210  155.8310 C   0  0  0  0  0  3  0  0  0  0  0  0
  158.9230  209.4810  154.1670 C   0  0  0  0  0  0  0  0  0  0  0  0
  158.7510  208.8060  155.4910 C   0  0  0  0  0  2  0  0  0  0  0  0
  159.4210  213.8820  153.8780 N   0  0  0  0  0  1  0  0  0  0  0  0
  161.0660  206.2700  155.3410 C   0  0  1  0  0  3  0  0  0  0  0  0
  158.0970  210.7270  153.9360 C   0  0  0  0  0  2  0  0  0  0  0  0
  160.7630  211.9100  154.4660 C   0  0  0  0  0  0  0  0  0  0  0  0
  161.4540  210.2520  151.8250 C   0  0  0  0  0  0  0  0  0  0  0  0
  160.7290  206.3480  156.7660 C   0  0  0  0  0  2  0  0  0  0  0  0
  162.1990  210.8450  152.7180 N   0  0  0  0  0  0  0  0  0  0  0  0
  160.1970  209.6990  152.1240 O   0  0  0  0  0  0  0  0  0  0  0  0
  162.7290  210.6170  155.0800 C   0  0  0  0  0  3  0  0  0  0  0  0
  158.6790  211.7390  152.9420 C   0  0  0  0  0  2  0  0  0  0  0  0
  159.9450  206.8490  154.5940 C   0  0  1  0  0  3  0  0  0  0  0  0
  161.9410  207.7000  153.8080 C   0  0  0  0  0  3  0  0  0  0  0  0
  159.2560  207.5770  155.6850 C   0  0  1  0  0  3  0  0  0  0  0  0
  162.2240  206.7230  154.8710 C   0  0  0  0  0  3  0  0  0  0  0  0
  159.8710  212.5690  153.4390 C   0  0  1  0  0  3  0  0  0  0  0  0
  160.8700  212.3440  150.0730 O   0  0  0  0  0  1  0  0  0  0  0  0
  162.0280  211.6190  149.7750 C   0  0  2  0  0  3  0  0  0  0  0  0
  162.3050  211.6100  148.2890 C   0  0  0  0  0  0  0  0  0  0  0  0
  163.3930  211.2390  147.8690 O   0  0  0  0  0  0  0  0  0  0  0  0
  161.2850  212.1150  147.3160 C   0  0  0  0  0  1  0  0  0  0  0  0
  161.1430  209.2560  149.5390 C   0  0  0  0  0  2  0  0  0  0  0  0
  161.8080  207.8920  149.5020 C   0  0  2  0  0  3  0  0  0  0  0  0
  162.8400  207.9050  148.5570 O   0  0  0  0  0  1  0  0  0  0  0  0
  161.2650  204.2930  149.5850 C   0  0  0  0  0  3  0  0  0  0  0  0
  161.0280  205.5580  149.3900 C   0  0  0  0  0  0  0  0  0  0  0  0
  160.7920  206.8270  149.1980 C   0  0  0  0  0  3  0  0  0  0  0  0
  161.2770  204.2060  152.3700 O   0  0  0  0  0  1  0  0  0  0  0  0
  161.1630  200.1810  145.8800 C   0  0  0  0  0  0  0  0  0  0  0  0
  158.6740  202.3420  145.1720 O   0  0  0  0  0  0  0  0  0  0  0  0
  161.6740  200.6280  148.4550 C   0  0  0  0  0  3  0  0  0  0  0  0
  160.9390  200.7710  147.2000 C   0  0  0  0  0  0  0  0  0  0  0  0
  161.5140  201.8370  151.9260 C   0  0  0  0  0  2  0  0  0  0  0  0
  159.9580  202.1420  149.4930 C   0  0  1  0  0  0  0  0  0  0  0  0
  160.2520  203.4350  150.2880 C   0  0  1  0  0  3  0  0  0  0  0  0
  159.5770  201.6370  145.6910 C   0  0  0  0  0  0  0  0  0  0  0  0
  161.9950  201.2850  150.7000 O   0  0  0  0  0  0  0  0  0  0  0  0
  160.6700  203.1150  151.7410 C   0  0  2  0  0  3  0  0  0  0  0  0
  160.3600  200.6770  144.9830 N   0  0  0  0  0  0  0  0  0  0  0  0
  159.9880  201.6590  147.0750 C   0  0  0  0  0  0  0  0  0  0  0  0
  159.5670  202.4620  148.1360 O   0  0  0  0  0  0  0  0  0  0  0  0
  161.2420  201.3070  149.5280 C   0  0  0  0  0  0  0  0  0  0  0  0
  158.9400  201.3810  150.1190 O   0  0  0  0  0  0  0  0  0  0  0  0
  157.9880  200.9960  149.1600 C   0  0  0  0  0  1  0  0  0  0  0  0
  161.7580  197.9080  145.1580 C   0  0  0  0  0  1  0  0  0  0  0  0
  162.1200  199.2040  145.6100 O   0  0  0  0  0  0  0  0  0  0  0  0
  1 31  1  6  0  0  0
  1 15  1  0  0  0  0
  2 14  2  0  0  0  0
  2 19  1  0  0  0  0
  3 22  1  1  0  0  0
  3 21  1  0  0  0  0
  4  7  1  0  0  0  0
  5  3  1  0  0  0  0
  5  9  2  0  0  0  0
  8  7  2  0  0  0  0
  9 10  1  0  0  0  0
 10 23  1  0  0  0  0
 12 24  1  1  0  0  0
 12 16  1  0  0  0  0
 13  9  1  0  0  0  0
 14  8  1  0  0  0  0
 15 18  1  0  0  0  0
 15 17  2  0  0  0  0
 16  6  1  0  0  0  0
 17  2  1  0  0  0  0
 18  5  1  0  0  0  0
 19  4  2  0  0  0  0
 20 25  1  0  0  0  0
 20 13  1  0  0  0  0
 21 12  1  0  0  0  0
 21 23  1  0  0  0  0
 22 24  2  0  0  0  0
 23  6  1  0  0  0  0
 25 11  1  0  0  0  0
 25 14  1  0  0  0  0
 27 26  1  0  0  0  0
 27  1  1  0  0  0  0
 28 27  1  0  0  0  0
 29 28  2  0  0  0  0
 30 28  1  0  0  0  0
 32 31  1  0  0  0  0
 33 32  1  0  0  0  0
 34 44  1  0  0  0  0
 35 34  2  0  0  0  0
 36 35  2  0  0  0  0
 36 32  1  0  0  0  0
 38 41  1  0  0  0  0
 39 45  2  0  0  0  0
 40 51  2  0  0  0  0
 41 40  1  0  0  0  0
 43 51  1  0  0  0  0
 43 52  1  0  0  0  0
 43 44  1  0  0  0  0
 44 47  1  0  0  0  0
 45 49  1  0  0  0  0
 46 42  1  0  0  0  0
 47 42  1  0  0  0  0
 47 37  1  0  0  0  0
 48 45  1  0  0  0  0
 48 38  2  0  0  0  0
 49 41  2  0  0  0  0
 49 50  1  0  0  0  0
 50 43  1  0  0  0  0
 51 46  1  0  0  0  0
 53 52  1  0  0  0  0
 54 55  1  0  0  0  0
 55 38  1  0  0  0  0
M  END
>  <MODEL>
1

>  <REMARK>
 VINA RESULT:       2.1      0.000      0.000
  Name = 
  9 active torsions:
  status: ('A' for Active; 'I' for Inactive)
    1  A    between atoms: O_1  and  C_27
    2  A    between atoms: C_2  and  C_6
    3  A    between atoms: C_2  and  C_34
    4  A    between atoms: C_2  and  C_40
    5  A    between atoms: C_4  and  C_6
    6  A    between atoms: C_4  and  C_52
    7  A    between atoms: O_10  and  C_11
    8  A    between atoms: C_23  and  C_40
    9  A    between atoms: C_30  and  C_42
                            x       y       z     vdW  Elec       q    Type
                         _______ _______ _______ _____ _____    ______ ____

>  <TORSDO>
F 9

$$$$
