=
 OpenBabel11072410253D

 51 53  0  0  1  0  0  0  0  0999 V2000
  160.9960  209.6890  151.7390 C   0  0  0  0  0  3  0  0  0  0  0  0
  160.9550  208.3520  151.7700 C   0  0  0  0  0  3  0  0  0  0  0  0
  160.7730  210.5690  152.9350 C   0  0  2  0  0  3  0  0  0  0  0  0
  160.6150  212.7940  150.1520 C   0  0  0  0  0  0  0  0  0  0  0  0
  160.2050  211.9120  152.5580 C   0  0  1  0  0  3  0  0  0  0  0  0
  160.9750  213.6530  147.7420 C   0  0  0  0  0  2  0  0  0  0  0  0
  160.7980  213.2240  148.9600 C   0  0  0  0  0  0  0  0  0  0  0  0
  160.4210  212.3590  151.3440 C   0  0  0  0  0  2  0  0  0  0  0  0
  159.8430  213.9410  146.8530 C   0  0  0  0  0  0  0  0  0  0  0  0
  158.6540  213.7560  147.2370 O   0  0  0  0  0  0  0  0  0  0  0  0
  160.1050  214.4200  145.4650 C   0  0  0  0  0  2  0  0  0  0  0  0
  160.1930  213.2470  144.5030 C   0  0  0  0  0  2  0  0  0  0  0  0
  160.2760  213.7320  143.1360 N   0  0  0  0  0  1  0  0  0  0  0  0
  159.2770  212.6530  153.4910 C   0  0  2  0  0  3  0  0  0  0  0  0
  158.0670  211.8110  153.9260 C   0  0  1  0  0  3  0  0  0  0  0  0
  157.9470  210.6500  153.1570 O   0  0  0  0  0  1  0  0  0  0  0  0
  158.1290  211.4470  155.4110 C   0  0  0  0  0  2  0  0  0  0  0  0
  156.5950  212.3600  157.1680 O   0  0  0  0  0  1  0  0  0  0  0  0
  155.8380  210.8220  155.6410 O   0  0  0  0  0  0  0  0  0  0  0  0
  156.7900  211.5260  156.0710 C   0  0  0  0  0  0  0  0  0  0  0  0
  158.8000  213.9470  152.8510 C   0  0  0  0  0  2  0  0  0  0  0  0
  157.2880  214.0030  152.8500 C   0  0  0  0  0  2  0  0  0  0  0  0
  155.5570  214.2350  151.2220 O   0  0  0  0  0  1  0  0  0  0  0  0
  157.7060  214.4530  150.4380 O   0  0  0  0  0  0  0  0  0  0  0  0
  156.7970  214.2270  151.4630 C   0  0  0  0  0  0  0  0  0  0  0  0
  162.0940  210.7230  153.6680 C   0  0  0  0  0  2  0  0  0  0  0  0
  161.8690  211.0990  154.9930 O   0  0  0  0  0  1  0  0  0  0  0  0
  160.6750  207.5560  153.0130 C   0  0  1  0  0  3  0  0  0  0  0  0
  161.4540  206.2400  153.0340 C   0  0  0  0  0  2  0  0  0  0  0  0
  161.1100  203.0090  150.2620 C   0  0  0  0  0  2  0  0  0  0  0  0
  161.2320  205.2150  150.7950 C   0  0  2  0  0  3  0  0  0  0  0  0
  161.3350  203.7460  152.7300 C   0  0  0  0  0  2  0  0  0  0  0  0
  161.0640  202.5710  151.7430 C   0  0  0  0  0  2  0  0  0  0  0  0
  160.7980  205.1150  152.2410 C   0  0  1  0  0  3  0  0  0  0  0  0
  160.4250  205.6140  149.5830 C   0  0  2  0  0  3  0  0  0  0  0  0
  160.2230  204.2340  150.1910 C   0  0  1  0  0  3  0  0  0  0  0  0
  160.5800  206.4660  147.1880 C   0  0  0  0  0  2  0  0  0  0  0  0
  162.3380  204.2060  146.4300 C   0  0  2  0  0  3  0  0  0  0  0  0
  160.5460  204.5750  144.8770 O   0  0  0  0  0  1  0  0  0  0  0  0
  161.2060  205.5610  148.2490 C   0  0  2  0  0  3  0  0  0  0  0  0
  161.4860  204.1530  147.7000 C   0  0  0  0  0  2  0  0  0  0  0  0
  161.4610  206.5290  145.9430 C   0  0  0  0  0  2  0  0  0  0  0  0
  163.6390  204.6120  146.7370 O   0  0  0  0  0  1  0  0  0  0  0  0
  161.7270  205.1320  145.3740 C   0  0  1  0  0  3  0  0  0  0  0  0
  160.8690  208.3450  154.3120 C   0  0  1  0  0  3  0  0  0  0  0  0
  159.6700  208.5410  155.0080 O   0  0  0  0  0  0  0  0  0  0  0  0
  159.1260  207.2620  155.1610 C   0  0  0  0  0  1  0  0  0  0  0  0
  161.8730  207.7660  155.1480 O   0  0  0  0  0  0  0  0  0  0  0  0
  162.6180  208.8740  157.1490 O   0  0  0  0  0  0  0  0  0  0  0  0
  161.2580  207.0380  157.2610 O   0  0  0  0  0  1  0  0  0  0  0  0
  161.8970  207.8540  156.5430 C   0  0  0  0  0  0  0  0  0  0  0  0
  1  2  2  0  0  0  0
  3  1  1  6  0  0  0
  3 26  1  0  0  0  0
  4  8  1  0  0  0  0
  5  8  1  6  0  0  0
  5  3  1  0  0  0  0
  5 14  1  0  0  0  0
  6  7  1  0  0  0  0
  7  4  3  0  0  0  0
  9 10  2  0  0  0  0
  9  6  1  0  0  0  0
 11  9  1  0  0  0  0
 12 11  1  0  0  0  0
 13 12  1  0  0  0  0
 14 21  1  6  0  0  0
 14 15  1  0  0  0  0
 15 16  1  6  0  0  0
 15 17  1  0  0  0  0
 17 20  1  0  0  0  0
 19 20  2  0  0  0  0
 20 18  1  0  0  0  0
 22 21  1  0  0  0  0
 23 25  1  0  0  0  0
 24 25  2  0  0  0  0
 25 22  1  0  0  0  0
 26 27  1  0  0  0  0
 28  2  1  6  0  0  0
 28 29  1  0  0  0  0
 28 45  1  0  0  0  0
 30 33  1  0  0  0  0
 31 34  1  0  0  0  0
 33 32  1  0  0  0  0
 34 32  1  0  0  0  0
 34 29  1  0  0  0  0
 35 36  1  0  0  0  0
 35 31  1  0  0  0  0
 36 30  1  0  0  0  0
 36 31  1  0  0  0  0
 37 40  1  0  0  0  0
 38 43  1  0  0  0  0
 38 41  1  0  0  0  0
 39 44  1  0  0  0  0
 40 35  1  0  0  0  0
 41 40  1  0  0  0  0
 42 37  1  0  0  0  0
 44 42  1  0  0  0  0
 44 38  1  0  0  0  0
 45 46  1  0  0  0  0
 45 48  1  0  0  0  0
 46 47  1  0  0  0  0
 48 51  1  0  0  0  0
 51 49  2  0  0  0  0
 51 50  1  0  0  0  0
M  END
>  <MODEL>
1

>  <REMARK>
 VINA RESULT:      -5.4      0.000      0.000
  Name = 
  21 active torsions:
  status: ('A' for Active; 'I' for Inactive)
    1  A    between atoms: C_6  and  C_42
    2  A    between atoms: C_8  and  C_30
    3  A    between atoms: C_10  and  C_28
    4  A    between atoms: C_10  and  C_43
    5  A    between atoms: C_11  and  O_13
    6  A    between atoms: C_11  and  C_17
    7  A    between atoms: C_11  and  O_48
    8  A    between atoms: C_12  and  C_42
    9  A    between atoms: C_16  and  C_22
   10  A    between atoms: C_16  and  C_38
   11  A    between atoms: C_17  and  C_27
   12  A    between atoms: C_17  and  C_31
   13  A    between atoms: C_20  and  C_33
   14  A    between atoms: C_22  and  C_49
   15  A    between atoms: C_25  and  C_27
   16  A    between atoms: C_26  and  C_42
   17  A    between atoms: C_26  and  C_49
   18  A    between atoms: C_30  and  C_44
   19  A    between atoms: C_32  and  C_44
   20  A    between atoms: C_43  and  C_49
   21  A    between atoms: C_47  and  O_48
                            x       y       z     vdW  Elec       q    Type
                         _______ _______ _______ _____ _____    ______ ____

>  <TORSDO>
F 21

$$$$
=
 OpenBabel11072410253D

 51 53  0  0  1  0  0  0  0  0999 V2000
  161.4540  211.4230  152.5810 C   0  0  0  0  0  3  0  0  0  0  0  0
  161.8830  210.2250  152.9950 C   0  0  0  0  0  3  0  0  0  0  0  0
  160.1360  211.6610  151.9030 C   0  0  2  0  0  3  0  0  0  0  0  0
  161.3830  213.0900  148.8840 C   0  0  0  0  0  0  0  0  0  0  0  0
  160.1110  212.9590  151.1420 C   0  0  1  0  0  3  0  0  0  0  0  0
  162.6040  213.2080  146.6100 C   0  0  0  0  0  2  0  0  0  0  0  0
  161.9930  213.1520  147.7600 C   0  0  0  0  0  0  0  0  0  0  0  0
  160.7620  213.0250  150.0050 C   0  0  0  0  0  2  0  0  0  0  0  0
  161.8850  213.5180  145.3680 C   0  0  0  0  0  0  0  0  0  0  0  0
  162.5080  213.6870  144.2830 O   0  0  0  0  0  0  0  0  0  0  0  0
  160.4010  213.6720  145.4000 C   0  0  0  0  0  2  0  0  0  0  0  0
  159.7350  212.6080  144.5420 C   0  0  0  0  0  2  0  0  0  0  0  0
  158.6520  211.9830  145.2810 N   0  0  0  0  0  1  0  0  0  0  0  0
  159.2320  214.1050  151.5850 C   0  0  2  0  0  3  0  0  0  0  0  0
  158.5070  213.8250  152.9100 C   0  0  1  0  0  3  0  0  0  0  0  0
  159.1950  214.3710  153.9970 O   0  0  0  0  0  1  0  0  0  0  0  0
  157.0670  214.3420  152.8940 C   0  0  0  0  0  2  0  0  0  0  0  0
  154.9050  214.0980  154.1360 O   0  0  0  0  0  0  0  0  0  0  0  0
  156.8470  213.2160  154.9850 O   0  0  0  0  0  1  0  0  0  0  0  0
  156.2720  213.8480  154.0600 C   0  0  0  0  0  0  0  0  0  0  0  0
  158.2180  214.4480  150.5060 C   0  0  0  0  0  2  0  0  0  0  0  0
  157.2690  213.2890  150.2940 C   0  0  0  0  0  2  0  0  0  0  0  0
  155.7300  214.1950  148.7090 O   0  0  0  0  0  1  0  0  0  0  0  0
  157.1540  212.5780  147.9110 O   0  0  0  0  0  0  0  0  0  0  0  0
  156.6660  213.3790  148.9360 C   0  0  0  0  0  0  0  0  0  0  0  0
  159.0440  211.6280  152.9570 C   0  0  0  0  0  2  0  0  0  0  0  0
  158.0430  210.7270  152.5870 O   0  0  0  0  0  1  0  0  0  0  0  0
  161.0950  208.9560  152.8300 C   0  0  1  0  0  3  0  0  0  0  0  0
  161.9050  207.8720  152.1160 C   0  0  0  0  0  2  0  0  0  0  0  0
  161.0680  204.0180  150.4760 C   0  0  0  0  0  2  0  0  0  0  0  0
  161.4390  206.2550  150.3060 C   0  0  2  0  0  3  0  0  0  0  0  0
  161.5240  205.4320  152.5920 C   0  0  0  0  0  2  0  0  0  0  0  0
  161.0760  204.0530  152.0200 C   0  0  0  0  0  2  0  0  0  0  0  0
  161.0920  206.6430  151.7260 C   0  0  1  0  0  3  0  0  0  0  0  0
  160.5990  206.3590  149.0560 C   0  0  2  0  0  3  0  0  0  0  0  0
  160.3030  205.2570  150.0630 C   0  0  1  0  0  3  0  0  0  0  0  0
  160.8360  206.5820  146.5300 C   0  0  0  0  0  2  0  0  0  0  0  0
  161.9830  203.8580  146.3330 C   0  0  2  0  0  3  0  0  0  0  0  0
  160.2550  204.2790  144.7210 O   0  0  0  0  0  1  0  0  0  0  0  0
  161.2840  205.8210  147.7780 C   0  0  2  0  0  3  0  0  0  0  0  0
  161.2020  204.3000  147.5720 C   0  0  0  0  0  2  0  0  0  0  0  0
  161.6490  206.1500  145.3120 C   0  0  0  0  0  2  0  0  0  0  0  0
  163.3550  204.0030  146.5490 O   0  0  0  0  0  1  0  0  0  0  0  0
  161.5550  204.6370  145.0860 C   0  0  1  0  0  3  0  0  0  0  0  0
  160.4810  208.4320  154.1320 C   0  0  1  0  0  3  0  0  0  0  0  0
  161.3630  207.6210  154.8560 O   0  0  0  0  0  0  0  0  0  0  0  0
  160.5530  206.6560  155.4640 C   0  0  0  0  0  1  0  0  0  0  0  0
  159.9550  209.4860  154.9400 O   0  0  0  0  0  0  0  0  0  0  0  0
  161.4130  210.8710  156.2620 O   0  0  0  0  0  0  0  0  0  0  0  0
  160.0520  209.3190  157.2500 O   0  0  0  0  0  1  0  0  0  0  0  0
  160.4600  209.8630  156.1880 C   0  0  0  0  0  0  0  0  0  0  0  0
  1  2  2  0  0  0  0
  3  1  1  1  0  0  0
  3 26  1  0  0  0  0
  4  8  1  0  0  0  0
  5  8  1  6  0  0  0
  5 14  1  0  0  0  0
  5  3  1  0  0  0  0
  6  7  1  0  0  0  0
  7  4  3  0  0  0  0
  9 11  1  0  0  0  0
  9  6  1  0  0  0  0
 10  9  2  0  0  0  0
 12 13  1  0  0  0  0
 12 11  1  0  0  0  0
 14 21  1  6  0  0  0
 14 15  1  0  0  0  0
 15 16  1  1  0  0  0
 17 15  1  0  0  0  0
 17 20  1  0  0  0  0
 20 18  2  0  0  0  0
 20 19  1  0  0  0  0
 22 21  1  0  0  0  0
 23 25  1  0  0  0  0
 24 25  2  0  0  0  0
 25 22  1  0  0  0  0
 27 26  1  0  0  0  0
 28 29  1  1  0  0  0
 28  2  1  0  0  0  0
 28 45  1  0  0  0  0
 30 33  1  0  0  0  0
 31 34  1  0  0  0  0
 33 32  1  0  0  0  0
 34 29  1  0  0  0  0
 34 32  1  0  0  0  0
 35 36  1  0  0  0  0
 35 31  1  0  0  0  0
 36 31  1  0  0  0  0
 36 30  1  0  0  0  0
 37 40  1  0  0  0  0
 38 43  1  0  0  0  0
 38 41  1  0  0  0  0
 39 44  1  0  0  0  0
 40 35  1  0  0  0  0
 41 40  1  0  0  0  0
 42 37  1  0  0  0  0
 44 42  1  0  0  0  0
 44 38  1  0  0  0  0
 45 46  1  0  0  0  0
 45 48  1  0  0  0  0
 46 47  1  0  0  0  0
 48 51  1  0  0  0  0
 51 49  2  0  0  0  0
 51 50  1  0  0  0  0
M  END
>  <MODEL>
2

>  <REMARK>
 VINA RESULT:      -5.2      1.637      2.279
  Name = 
  21 active torsions:
  status: ('A' for Active; 'I' for Inactive)
    1  A    between atoms: C_6  and  C_42
    2  A    between atoms: C_8  and  C_30
    3  A    between atoms: C_10  and  C_28
    4  A    between atoms: C_10  and  C_43
    5  A    between atoms: C_11  and  O_13
    6  A    between atoms: C_11  and  C_17
    7  A    between atoms: C_11  and  O_48
    8  A    between atoms: C_12  and  C_42
    9  A    between atoms: C_16  and  C_22
   10  A    between atoms: C_16  and  C_38
   11  A    between atoms: C_17  and  C_27
   12  A    between atoms: C_17  and  C_31
   13  A    between atoms: C_20  and  C_33
   14  A    between atoms: C_22  and  C_49
   15  A    between atoms: C_25  and  C_27
   16  A    between atoms: C_26  and  C_42
   17  A    between atoms: C_26  and  C_49
   18  A    between atoms: C_30  and  C_44
   19  A    between atoms: C_32  and  C_44
   20  A    between atoms: C_43  and  C_49
   21  A    between atoms: C_47  and  O_48
                            x       y       z     vdW  Elec       q    Type
                         _______ _______ _______ _____ _____    ______ ____

>  <TORSDO>
F 21

$$$$
=
 OpenBabel11072410253D

 51 53  0  0  1  0  0  0  0  0999 V2000
  162.5170  210.0380  149.0490 C   0  0  0  0  0  3  0  0  0  0  0  0
  162.3370  211.3640  149.0070 C   0  0  0  0  0  3  0  0  0  0  0  0
  161.4030  209.0350  149.1300 C   0  0  2  0  0  3  0  0  0  0  0  0
  161.9180  209.3600  152.6440 C   0  0  0  0  0  0  0  0  0  0  0  0
  161.4900  208.1850  150.3710 C   0  0  1  0  0  3  0  0  0  0  0  0
  162.2910  210.5310  154.9170 C   0  0  0  0  0  2  0  0  0  0  0  0
  162.1090  209.9380  153.7710 C   0  0  0  0  0  0  0  0  0  0  0  0
  161.7150  208.7810  151.5170 C   0  0  0  0  0  2  0  0  0  0  0  0
  161.3140  210.4170  156.0080 C   0  0  0  0  0  0  0  0  0  0  0  0
  161.3040  211.2490  156.9580 O   0  0  0  0  0  0  0  0  0  0  0  0
  160.3490  209.2800  156.0120 C   0  0  0  0  0  2  0  0  0  0  0  0
  160.9490  208.0730  156.7160 C   0  0  0  0  0  2  0  0  0  0  0  0
  159.9350  207.0480  156.8920 N   0  0  0  0  0  1  0  0  0  0  0  0
  161.1670  206.7100  150.3270 C   0  0  2  0  0  3  0  0  0  0  0  0
  161.4470  205.9970  151.6590 C   0  0  1  0  0  3  0  0  0  0  0  0
  160.3010  205.9300  152.4560 O   0  0  0  0  0  1  0  0  0  0  0  0
  162.0140  204.5920  151.4460 C   0  0  0  0  0  2  0  0  0  0  0  0
  160.7240  202.8830  152.7480 O   0  0  0  0  0  1  0  0  0  0  0  0
  160.2980  203.2190  150.5180 O   0  0  0  0  0  0  0  0  0  0  0  0
  160.9610  203.5340  151.5410 C   0  0  0  0  0  0  0  0  0  0  0  0
  161.9360  206.0290  149.2070 C   0  0  0  0  0  2  0  0  0  0  0  0
  160.9910  205.2350  148.3330 C   0  0  0  0  0  2  0  0  0  0  0  0
  162.7480  204.7650  146.7870 O   0  0  0  0  0  0  0  0  0  0  0  0
  161.4340  202.9770  147.3830 O   0  0  0  0  0  1  0  0  0  0  0  0
  161.7710  204.3230  147.4520 C   0  0  0  0  0  0  0  0  0  0  0  0
  161.4400  208.1770  147.8800 C   0  0  0  0  0  2  0  0  0  0  0  0
  162.7610  207.9020  147.5210 O   0  0  0  0  0  1  0  0  0  0  0  0
  160.9860  212.0200  149.0410 C   0  0  1  0  0  3  0  0  0  0  0  0
  160.7380  212.7430  150.3660 C   0  0  0  0  0  2  0  0  0  0  0  0
  157.2260  214.0610  152.4090 C   0  0  0  0  0  2  0  0  0  0  0  0
  159.2020  212.9430  152.2920 C   0  0  2  0  0  3  0  0  0  0  0  0
  158.5950  214.0500  150.2150 C   0  0  0  0  0  2  0  0  0  0  0  0
  157.2450  214.4130  150.9050 C   0  0  0  0  0  2  0  0  0  0  0  0
  159.2740  212.7820  150.7900 C   0  0  1  0  0  3  0  0  0  0  0  0
  158.7660  211.9450  153.3390 C   0  0  2  0  0  3  0  0  0  0  0  0
  157.7140  212.6300  152.4790 C   0  0  1  0  0  3  0  0  0  0  0  0
  157.6700  211.8810  155.6370 C   0  0  0  0  0  2  0  0  0  0  0  0
  158.9430  214.4480  156.3860 C   0  0  2  0  0  3  0  0  0  0  0  0
  156.6000  214.3640  156.9010 O   0  0  0  0  0  1  0  0  0  0  0  0
  158.7870  212.4860  154.7870 C   0  0  2  0  0  3  0  0  0  0  0  0
  158.8340  214.0170  154.9220 C   0  0  0  0  0  2  0  0  0  0  0  0
  157.8150  212.2970  157.0980 C   0  0  0  0  0  2  0  0  0  0  0  0
  160.2010  214.1180  156.8960 O   0  0  0  0  0  1  0  0  0  0  0  0
  157.8400  213.8220  157.2450 C   0  0  1  0  0  3  0  0  0  0  0  0
  160.7090  212.9340  147.8430 C   0  0  1  0  0  3  0  0  0  0  0  0
  161.7530  213.8350  147.5990 O   0  0  0  0  0  0  0  0  0  0  0  0
  162.6130  213.1660  146.7230 C   0  0  0  0  0  1  0  0  0  0  0  0
  160.3710  212.1930  146.6690 O   0  0  0  0  0  0  0  0  0  0  0  0
  159.5420  212.5060  144.4310 O   0  0  0  0  0  0  0  0  0  0  0  0
  158.1680  212.7720  146.2420 O   0  0  0  0  0  1  0  0  0  0  0  0
  159.3190  212.5080  145.8020 C   0  0  0  0  0  0  0  0  0  0  0  0
  1  3  1  0  0  0  0
  2  1  2  0  0  0  0
  3 26  1  6  0  0  0
  3  5  1  0  0  0  0
  4  7  3  0  0  0  0
  5  8  1  1  0  0  0
  6  9  1  0  0  0  0
  7  6  1  0  0  0  0
  8  4  1  0  0  0  0
  9 11  1  0  0  0  0
  9 10  2  0  0  0  0
 11 12  1  0  0  0  0
 12 13  1  0  0  0  0
 14 21  1  6  0  0  0
 14  5  1  0  0  0  0
 14 15  1  0  0  0  0
 15 16  1  6  0  0  0
 17 20  1  0  0  0  0
 17 15  1  0  0  0  0
 19 20  2  0  0  0  0
 20 18  1  0  0  0  0
 22 21  1  0  0  0  0
 23 25  2  0  0  0  0
 24 25  1  0  0  0  0
 25 22  1  0  0  0  0
 27 26  1  0  0  0  0
 28  2  1  1  0  0  0
 28 29  1  0  0  0  0
 29 34  1  0  0  0  0
 30 36  1  0  0  0  0
 31 36  1  0  0  0  0
 31 35  1  0  0  0  0
 32 34  1  0  0  0  0
 32 33  1  0  0  0  0
 33 30  1  0  0  0  0
 34 31  1  0  0  0  0
 35 40  1  0  0  0  0
 36 35  1  0  0  0  0
 37 42  1  0  0  0  0
 38 43  1  0  0  0  0
 38 44  1  0  0  0  0
 39 44  1  0  0  0  0
 40 41  1  0  0  0  0
 40 37  1  0  0  0  0
 41 38  1  0  0  0  0
 42 44  1  0  0  0  0
 45 28  1  0  0  0  0
 46 45  1  0  0  0  0
 47 46  1  0  0  0  0
 48 45  1  0  0  0  0
 49 51  2  0  0  0  0
 51 50  1  0  0  0  0
 51 48  1  0  0  0  0
M  END
>  <MODEL>
3

>  <REMARK>
 VINA RESULT:      -5.1      3.067     10.210
  Name = 
  21 active torsions:
  status: ('A' for Active; 'I' for Inactive)
    1  A    between atoms: C_6  and  C_42
    2  A    between atoms: C_8  and  C_30
    3  A    between atoms: C_10  and  C_28
    4  A    between atoms: C_10  and  C_43
    5  A    between atoms: C_11  and  O_13
    6  A    between atoms: C_11  and  C_17
    7  A    between atoms: C_11  and  O_48
    8  A    between atoms: C_12  and  C_42
    9  A    between atoms: C_16  and  C_22
   10  A    between atoms: C_16  and  C_38
   11  A    between atoms: C_17  and  C_27
   12  A    between atoms: C_17  and  C_31
   13  A    between atoms: C_20  and  C_33
   14  A    between atoms: C_22  and  C_49
   15  A    between atoms: C_25  and  C_27
   16  A    between atoms: C_26  and  C_42
   17  A    between atoms: C_26  and  C_49
   18  A    between atoms: C_30  and  C_44
   19  A    between atoms: C_32  and  C_44
   20  A    between atoms: C_43  and  C_49
   21  A    between atoms: C_47  and  O_48
                            x       y       z     vdW  Elec       q    Type
                         _______ _______ _______ _____ _____    ______ ____

>  <TORSDO>
F 21

$$$$
=
 OpenBabel11072410253D

 51 53  0  0  1  0  0  0  0  0999 V2000
  159.9030  208.5260  152.7610 C   0  0  0  0  0  3  0  0  0  0  0  0
  159.7370  209.8310  153.0090 C   0  0  0  0  0  3  0  0  0  0  0  0
  161.2370  207.8470  152.6610 C   0  0  2  0  0  3  0  0  0  0  0  0
  161.6320  204.5690  151.3130 C   0  0  0  0  0  0  0  0  0  0  0  0
  161.4280  207.1560  151.3370 C   0  0  1  0  0  3  0  0  0  0  0  0
  161.7820  201.9900  151.2800 C   0  0  0  0  0  2  0  0  0  0  0  0
  161.7120  203.2910  151.2960 C   0  0  0  0  0  0  0  0  0  0  0  0
  161.5390  205.8490  151.3290 C   0  0  0  0  0  2  0  0  0  0  0  0
  160.8140  201.1740  150.5350 C   0  0  0  0  0  0  0  0  0  0  0  0
  159.7050  200.8550  151.0480 O   0  0  0  0  0  0  0  0  0  0  0  0
  161.1640  200.6850  149.1700 C   0  0  0  0  0  2  0  0  0  0  0  0
  160.6860  201.6660  148.1120 C   0  0  0  0  0  2  0  0  0  0  0  0
  160.9720  201.1450  146.7870 N   0  0  0  0  0  1  0  0  0  0  0  0
  161.3310  207.9210  150.0380 C   0  0  2  0  0  3  0  0  0  0  0  0
  161.1140  207.0100  148.8200 C   0  0  1  0  0  3  0  0  0  0  0  0
  159.8670  207.2300  148.2310 O   0  0  0  0  0  1  0  0  0  0  0  0
  162.2190  207.1790  147.7760 C   0  0  0  0  0  2  0  0  0  0  0  0
  162.3670  206.0270  145.5570 O   0  0  0  0  0  0  0  0  0  0  0  0
  162.5940  204.8390  147.5080 O   0  0  0  0  0  1  0  0  0  0  0  0
  162.4100  205.9510  146.9460 C   0  0  0  0  0  0  0  0  0  0  0  0
  162.5720  208.7740  149.8280 C   0  0  0  0  0  2  0  0  0  0  0  0
  162.2480  210.2330  150.0610 C   0  0  0  0  0  2  0  0  0  0  0  0
  161.3730  210.6320  147.8760 O   0  0  0  0  0  0  0  0  0  0  0  0
  163.1050  211.9960  148.5250 O   0  0  0  0  0  1  0  0  0  0  0  0
  162.2170  210.9530  148.7580 C   0  0  0  0  0  0  0  0  0  0  0  0
  161.3620  206.8640  153.8100 C   0  0  0  0  0  2  0  0  0  0  0  0
  160.2570  206.9700  154.6580 O   0  0  0  0  0  1  0  0  0  0  0  0
  160.8760  210.7890  153.2160 C   0  0  1  0  0  3  0  0  0  0  0  0
  160.9540  211.8300  152.0970 C   0  0  0  0  0  2  0  0  0  0  0  0
  157.2050  213.5050  150.9180 C   0  0  0  0  0  2  0  0  0  0  0  0
  159.4250  213.1060  150.6320 C   0  0  2  0  0  3  0  0  0  0  0  0
  158.5210  212.1230  152.6640 C   0  0  0  0  0  2  0  0  0  0  0  0
  157.1860  212.8510  152.3170 C   0  0  0  0  0  2  0  0  0  0  0  0
  159.7810  212.8040  152.0710 C   0  0  1  0  0  3  0  0  0  0  0  0
  159.6150  214.3840  149.8500 C   0  0  2  0  0  3  0  0  0  0  0  0
  158.4950  214.2980  150.8770 C   0  0  1  0  0  3  0  0  0  0  0  0
  157.5600  214.3310  148.3470 C   0  0  0  0  0  2  0  0  0  0  0  0
  159.1660  213.3060  146.0800 C   0  0  2  0  0  3  0  0  0  0  0  0
  157.1210  212.0950  146.4180 O   0  0  0  0  0  1  0  0  0  0  0  0
  159.0880  214.3300  148.3980 C   0  0  2  0  0  3  0  0  0  0  0  0
  159.6820  213.2190  147.5180 C   0  0  0  0  0  2  0  0  0  0  0  0
  157.0660  214.4500  146.9080 C   0  0  0  0  0  2  0  0  0  0  0  0
  159.6940  214.4310  145.4430 O   0  0  0  0  0  1  0  0  0  0  0  0
  157.6360  213.3330  146.0270 C   0  0  1  0  0  3  0  0  0  0  0  0
  160.8900  211.4490  154.5990 C   0  0  1  0  0  3  0  0  0  0  0  0
  159.6920  211.2580  155.2980 O   0  0  0  0  0  0  0  0  0  0  0  0
  159.3940  212.5060  155.8550 C   0  0  0  0  0  1  0  0  0  0  0  0
  162.0210  211.0470  155.3740 O   0  0  0  0  0  0  0  0  0  0  0  0
  163.1620  209.7690  157.0640 O   0  0  0  0  0  1  0  0  0  0  0  0
  160.9540  209.3930  156.5970 O   0  0  0  0  0  0  0  0  0  0  0  0
  162.0040  210.0410  156.3460 C   0  0  0  0  0  0  0  0  0  0  0  0
  1  2  2  0  0  0  0
  2 28  1  0  0  0  0
  3  1  1  6  0  0  0
  3 26  1  0  0  0  0
  4  8  1  0  0  0  0
  5  8  1  6  0  0  0
  5  3  1  0  0  0  0
  6  7  1  0  0  0  0
  7  4  3  0  0  0  0
  9 10  2  0  0  0  0
  9  6  1  0  0  0  0
 11  9  1  0  0  0  0
 12 11  1  0  0  0  0
 13 12  1  0  0  0  0
 14 21  1  6  0  0  0
 14  5  1  0  0  0  0
 15 16  1  6  0  0  0
 15 14  1  0  0  0  0
 17 15  1  0  0  0  0
 18 20  2  0  0  0  0
 20 19  1  0  0  0  0
 20 17  1  0  0  0  0
 21 22  1  0  0  0  0
 23 25  2  0  0  0  0
 24 25  1  0  0  0  0
 25 22  1  0  0  0  0
 26 27  1  0  0  0  0
 28 29  1  6  0  0  0
 28 45  1  0  0  0  0
 30 33  1  0  0  0  0
 31 36  1  0  0  0  0
 31 34  1  0  0  0  0
 33 32  1  0  0  0  0
 34 29  1  0  0  0  0
 34 32  1  0  0  0  0
 35 31  1  0  0  0  0
 35 36  1  0  0  0  0
 36 30  1  0  0  0  0
 37 40  1  0  0  0  0
 38 41  1  0  0  0  0
 40 35  1  0  0  0  0
 41 40  1  0  0  0  0
 42 37  1  0  0  0  0
 43 38  1  0  0  0  0
 44 38  1  0  0  0  0
 44 39  1  0  0  0  0
 44 42  1  0  0  0  0
 45 46  1  0  0  0  0
 45 48  1  0  0  0  0
 46 47  1  0  0  0  0
 48 51  1  0  0  0  0
 51 50  2  0  0  0  0
 51 49  1  0  0  0  0
M  END
>  <MODEL>
4

>  <REMARK>
 VINA RESULT:      -5.0      2.871      8.550
  Name = 
  21 active torsions:
  status: ('A' for Active; 'I' for Inactive)
    1  A    between atoms: C_6  and  C_42
    2  A    between atoms: C_8  and  C_30
    3  A    between atoms: C_10  and  C_28
    4  A    between atoms: C_10  and  C_43
    5  A    between atoms: C_11  and  O_13
    6  A    between atoms: C_11  and  C_17
    7  A    between atoms: C_11  and  O_48
    8  A    between atoms: C_12  and  C_42
    9  A    between atoms: C_16  and  C_22
   10  A    between atoms: C_16  and  C_38
   11  A    between atoms: C_17  and  C_27
   12  A    between atoms: C_17  and  C_31
   13  A    between atoms: C_20  and  C_33
   14  A    between atoms: C_22  and  C_49
   15  A    between atoms: C_25  and  C_27
   16  A    between atoms: C_26  and  C_42
   17  A    between atoms: C_26  and  C_49
   18  A    between atoms: C_30  and  C_44
   19  A    between atoms: C_32  and  C_44
   20  A    between atoms: C_43  and  C_49
   21  A    between atoms: C_47  and  O_48
                            x       y       z     vdW  Elec       q    Type
                         _______ _______ _______ _____ _____    ______ ____

>  <TORSDO>
F 21

$$$$
=
 OpenBabel11072410253D

 51 53  0  0  1  0  0  0  0  0999 V2000
  162.0660  211.2110  151.5680 C   0  0  0  0  0  3  0  0  0  0  0  0
  161.9070  210.1470  152.3650 C   0  0  0  0  0  3  0  0  0  0  0  0
  161.0210  211.7180  150.6160 C   0  0  2  0  0  3  0  0  0  0  0  0
  161.9580  209.1390  148.3370 C   0  0  0  0  0  0  0  0  0  0  0  0
  161.4250  211.5360  149.1770 C   0  0  1  0  0  3  0  0  0  0  0  0
  162.4380  206.7480  147.4840 C   0  0  0  0  0  2  0  0  0  0  0  0
  162.2020  207.9560  147.9150 C   0  0  0  0  0  0  0  0  0  0  0  0
  161.7020  210.3240  148.7580 C   0  0  0  0  0  2  0  0  0  0  0  0
  161.6580  206.1530  146.3920 C   0  0  0  0  0  0  0  0  0  0  0  0
  160.4030  206.2840  146.3450 O   0  0  0  0  0  0  0  0  0  0  0  0
  162.3560  205.3490  145.3470 C   0  0  0  0  0  2  0  0  0  0  0  0
  161.3690  204.8710  144.2930 C   0  0  0  0  0  2  0  0  0  0  0  0
  161.3920  205.7660  143.1500 N   0  0  0  0  0  1  0  0  0  0  0  0
  161.3570  212.6850  148.1990 C   0  0  2  0  0  3  0  0  0  0  0  0
  160.0940  212.6550  147.3250 C   0  0  1  0  0  3  0  0  0  0  0  0
  160.0430  211.5020  146.5370 O   0  0  0  0  0  1  0  0  0  0  0  0
  158.8180  212.7680  148.1620 C   0  0  0  0  0  2  0  0  0  0  0  0
  156.6660  214.0150  147.8570 O   0  0  0  0  0  1  0  0  0  0  0  0
  157.4970  212.6900  146.1770 O   0  0  0  0  0  0  0  0  0  0  0  0
  157.6310  213.1560  147.3390 C   0  0  0  0  0  0  0  0  0  0  0  0
  162.5940  212.7070  147.3150 C   0  0  0  0  0  2  0  0  0  0  0  0
  162.5650  213.9160  146.4060 C   0  0  0  0  0  2  0  0  0  0  0  0
  161.4570  213.3920  144.3570 O   0  0  0  0  0  1  0  0  0  0  0  0
  163.7440  213.1740  144.3430 O   0  0  0  0  0  0  0  0  0  0  0  0
  162.5490  213.4730  144.9850 C   0  0  0  0  0  0  0  0  0  0  0  0
  160.7590  213.1800  150.9270 C   0  0  0  0  0  2  0  0  0  0  0  0
  159.4400  213.3550  151.3490 O   0  0  0  0  0  1  0  0  0  0  0  0
  160.6560  209.3160  152.4030 C   0  0  1  0  0  3  0  0  0  0  0  0
  160.7230  208.1410  151.4260 C   0  0  0  0  0  2  0  0  0  0  0  0
  162.6220  204.3290  151.7630 C   0  0  0  0  0  2  0  0  0  0  0  0
  160.9490  205.7050  151.0710 C   0  0  2  0  0  3  0  0  0  0  0  0
  162.6930  206.8540  152.3150 C   0  0  0  0  0  2  0  0  0  0  0  0
  163.3180  205.4490  152.5680 C   0  0  0  0  0  2  0  0  0  0  0  0
  161.1640  206.8270  152.0620 C   0  0  1  0  0  3  0  0  0  0  0  0
  159.9350  204.5860  151.1010 C   0  0  2  0  0  3  0  0  0  0  0  0
  161.1430  204.5230  152.0250 C   0  0  1  0  0  3  0  0  0  0  0  0
  159.8380  202.1470  150.3770 C   0  0  0  0  0  2  0  0  0  0  0  0
  161.2680  202.7720  147.8590 C   0  0  2  0  0  3  0  0  0  0  0  0
  162.1530  200.8560  149.0030 O   0  0  0  0  0  1  0  0  0  0  0  0
  160.0440  203.5920  149.9220 C   0  0  2  0  0  3  0  0  0  0  0  0
  161.2990  203.7360  149.0460 C   0  0  0  0  0  2  0  0  0  0  0  0
  159.7790  201.2050  149.1760 C   0  0  0  0  0  2  0  0  0  0  0  0
  160.2850  203.1590  146.9450 O   0  0  0  0  0  1  0  0  0  0  0  0
  161.0360  201.3260  148.3090 C   0  0  1  0  0  3  0  0  0  0  0  0
  160.2600  208.8550  153.8090 C   0  0  1  0  0  3  0  0  0  0  0  0
  161.3680  208.5410  154.6060 O   0  0  0  0  0  0  0  0  0  0  0  0
  161.0560  209.0390  155.8750 C   0  0  0  0  0  1  0  0  0  0  0  0
  159.3950  209.7890  154.4580 O   0  0  0  0  0  0  0  0  0  0  0  0
  158.0230  211.3470  153.2410 O   0  0  0  0  0  0  0  0  0  0  0  0
  159.9210  212.0420  154.3130 O   0  0  0  0  0  1  0  0  0  0  0  0
  159.1500  211.0920  154.0110 C   0  0  0  0  0  0  0  0  0  0  0  0
  1  2  2  0  0  0  0
  2 28  1  0  0  0  0
  3 26  1  1  0  0  0
  3  1  1  0  0  0  0
  4  8  1  0  0  0  0
  5  8  1  6  0  0  0
  5  3  1  0  0  0  0
  6  7  1  0  0  0  0
  7  4  3  0  0  0  0
  9  6  1  0  0  0  0
 10  9  2  0  0  0  0
 11  9  1  0  0  0  0
 12 11  1  0  0  0  0
 13 12  1  0  0  0  0
 14 21  1  6  0  0  0
 14  5  1  0  0  0  0
 15 16  1  1  0  0  0
 15 17  1  0  0  0  0
 15 14  1  0  0  0  0
 19 20  2  0  0  0  0
 20 18  1  0  0  0  0
 20 17  1  0  0  0  0
 22 21  1  0  0  0  0
 23 25  1  0  0  0  0
 24 25  2  0  0  0  0
 25 22  1  0  0  0  0
 26 27  1  0  0  0  0
 28 29  1  6  0  0  0
 28 45  1  0  0  0  0
 29 34  1  0  0  0  0
 30 36  1  0  0  0  0
 30 33  1  0  0  0  0
 31 35  1  0  0  0  0
 31 36  1  0  0  0  0
 31 34  1  0  0  0  0
 32 33  1  0  0  0  0
 34 32  1  0  0  0  0
 35 36  1  0  0  0  0
 38 44  1  0  0  0  0
 38 41  1  0  0  0  0
 40 37  1  0  0  0  0
 40 35  1  0  0  0  0
 41 40  1  0  0  0  0
 42 37  1  0  0  0  0
 43 38  1  0  0  0  0
 44 39  1  0  0  0  0
 44 42  1  0  0  0  0
 45 48  1  0  0  0  0
 45 46  1  0  0  0  0
 46 47  1  0  0  0  0
 49 51  2  0  0  0  0
 51 50  1  0  0  0  0
 51 48  1  0  0  0  0
M  END
>  <MODEL>
5

>  <REMARK>
 VINA RESULT:      -5.0      2.361      5.705
  Name = 
  21 active torsions:
  status: ('A' for Active; 'I' for Inactive)
    1  A    between atoms: C_6  and  C_42
    2  A    between atoms: C_8  and  C_30
    3  A    between atoms: C_10  and  C_28
    4  A    between atoms: C_10  and  C_43
    5  A    between atoms: C_11  and  O_13
    6  A    between atoms: C_11  and  C_17
    7  A    between atoms: C_11  and  O_48
    8  A    between atoms: C_12  and  C_42
    9  A    between atoms: C_16  and  C_22
   10  A    between atoms: C_16  and  C_38
   11  A    between atoms: C_17  and  C_27
   12  A    between atoms: C_17  and  C_31
   13  A    between atoms: C_20  and  C_33
   14  A    between atoms: C_22  and  C_49
   15  A    between atoms: C_25  and  C_27
   16  A    between atoms: C_26  and  C_42
   17  A    between atoms: C_26  and  C_49
   18  A    between atoms: C_30  and  C_44
   19  A    between atoms: C_32  and  C_44
   20  A    between atoms: C_43  and  C_49
   21  A    between atoms: C_47  and  O_48
                            x       y       z     vdW  Elec       q    Type
                         _______ _______ _______ _____ _____    ______ ____

>  <TORSDO>
F 21

$$$$
=
 OpenBabel11072410253D

 51 53  0  0  1  0  0  0  0  0999 V2000
  160.2260  208.0890  152.4840 C   0  0  0  0  0  3  0  0  0  0  0  0
  159.9610  209.2210  153.1490 C   0  0  0  0  0  3  0  0  0  0  0  0
  161.5950  207.4880  152.3510 C   0  0  2  0  0  3  0  0  0  0  0  0
  161.3830  204.3440  150.6790 C   0  0  0  0  0  0  0  0  0  0  0  0
  161.8220  206.8830  150.9900 C   0  0  1  0  0  3  0  0  0  0  0  0
  160.8950  201.8280  150.3510 C   0  0  0  0  0  2  0  0  0  0  0  0
  161.1480  203.0960  150.5160 C   0  0  0  0  0  0  0  0  0  0  0  0
  161.6070  205.5980  150.8380 C   0  0  0  0  0  2  0  0  0  0  0  0
  159.8910  201.3610  149.3870 C   0  0  0  0  0  0  0  0  0  0  0  0
  158.7390  201.0130  149.7690 O   0  0  0  0  0  0  0  0  0  0  0  0
  160.2530  201.2580  147.9440 C   0  0  0  0  0  2  0  0  0  0  0  0
  161.5570  200.4950  147.7730 C   0  0  0  0  0  2  0  0  0  0  0  0
  161.5660  199.8070  146.4940 N   0  0  0  0  0  1  0  0  0  0  0  0
  162.1310  207.7520  149.7940 C   0  0  2  0  0  3  0  0  0  0  0  0
  161.8230  209.2380  150.0380 C   0  0  1  0  0  3  0  0  0  0  0  0
  162.8060  209.8440  150.8240 O   0  0  0  0  0  1  0  0  0  0  0  0
  161.6560  210.0090  148.7270 C   0  0  0  0  0  2  0  0  0  0  0  0
  162.7540  211.8910  147.4910 O   0  0  0  0  0  0  0  0  0  0  0  0
  162.9050  211.7500  149.7770 O   0  0  0  0  0  1  0  0  0  0  0  0
  162.4670  211.2650  148.7000 C   0  0  0  0  0  0  0  0  0  0  0  0
  161.3740  207.2640  148.5700 C   0  0  0  0  0  2  0  0  0  0  0  0
  162.3440  206.8500  147.4860 C   0  0  0  0  0  2  0  0  0  0  0  0
  162.2120  205.2320  145.7360 O   0  0  0  0  0  0  0  0  0  0  0  0
  160.2720  206.3760  146.1910 O   0  0  0  0  0  1  0  0  0  0  0  0
  161.6160  206.1120  146.4180 C   0  0  0  0  0  0  0  0  0  0  0  0
  161.7690  206.4490  153.4430 C   0  0  0  0  0  2  0  0  0  0  0  0
  160.5390  206.1650  154.0400 O   0  0  0  0  0  1  0  0  0  0  0  0
  161.0100  210.0400  153.8470 C   0  0  1  0  0  3  0  0  0  0  0  0
  161.2020  211.4040  153.1820 C   0  0  0  0  0  2  0  0  0  0  0  0
  157.3580  213.0010  152.2250 C   0  0  0  0  0  2  0  0  0  0  0  0
  159.5890  212.7420  151.8720 C   0  0  2  0  0  3  0  0  0  0  0  0
  158.7690  211.5190  153.8060 C   0  0  0  0  0  2  0  0  0  0  0  0
  157.3950  212.2100  153.5520 C   0  0  0  0  0  2  0  0  0  0  0  0
  159.9840  212.3160  153.2680 C   0  0  1  0  0  3  0  0  0  0  0  0
  159.7030  214.0990  151.2190 C   0  0  2  0  0  3  0  0  0  0  0  0
  158.6070  213.8560  152.2470 C   0  0  1  0  0  3  0  0  0  0  0  0
  157.6260  214.2160  149.7510 C   0  0  0  0  0  2  0  0  0  0  0  0
  159.1640  213.3030  147.3910 C   0  0  2  0  0  3  0  0  0  0  0  0
  157.0860  212.1360  147.6790 O   0  0  0  0  0  1  0  0  0  0  0  0
  159.1530  214.1640  149.7760 C   0  0  2  0  0  3  0  0  0  0  0  0
  159.6980  213.0990  148.8100 C   0  0  0  0  0  2  0  0  0  0  0  0
  157.1150  214.4520  148.3320 C   0  0  0  0  0  2  0  0  0  0  0  0
  159.7190  214.4530  146.8250 O   0  0  0  0  0  1  0  0  0  0  0  0
  157.6350  213.3820  147.3660 C   0  0  1  0  0  3  0  0  0  0  0  0
  160.7870  210.1770  155.3560 C   0  0  1  0  0  3  0  0  0  0  0  0
  159.7660  209.3430  155.8280 O   0  0  0  0  0  0  0  0  0  0  0  0
  159.6070  209.6900  157.1740 C   0  0  0  0  0  1  0  0  0  0  0  0
  161.9950  209.9990  156.0970 O   0  0  0  0  0  0  0  0  0  0  0  0
  162.3150  212.3460  156.5210 O   0  0  0  0  0  0  0  0  0  0  0  0
  163.8760  210.8090  157.1820 O   0  0  0  0  0  1  0  0  0  0  0  0
  162.7750  211.0390  156.6140 C   0  0  0  0  0  0  0  0  0  0  0  0
  1  2  2  0  0  0  0
  3  1  1  6  0  0  0
  3 26  1  0  0  0  0
  4  8  1  0  0  0  0
  5  8  1  6  0  0  0
  5  3  1  0  0  0  0
  6  7  1  0  0  0  0
  7  4  3  0  0  0  0
  9 10  2  0  0  0  0
  9  6  1  0  0  0  0
 11  9  1  0  0  0  0
 12 11  1  0  0  0  0
 13 12  1  0  0  0  0
 14 21  1  6  0  0  0
 14 15  1  0  0  0  0
 14  5  1  0  0  0  0
 15 16  1  6  0  0  0
 17 15  1  0  0  0  0
 18 20  2  0  0  0  0
 20 17  1  0  0  0  0
 20 19  1  0  0  0  0
 22 21  1  0  0  0  0
 23 25  2  0  0  0  0
 24 25  1  0  0  0  0
 25 22  1  0  0  0  0
 26 27  1  0  0  0  0
 28  2  1  6  0  0  0
 28 45  1  0  0  0  0
 29 34  1  0  0  0  0
 29 28  1  0  0  0  0
 30 36  1  0  0  0  0
 30 33  1  0  0  0  0
 31 36  1  0  0  0  0
 31 34  1  0  0  0  0
 33 32  1  0  0  0  0
 34 32  1  0  0  0  0
 35 31  1  0  0  0  0
 35 36  1  0  0  0  0
 37 40  1  0  0  0  0
 38 41  1  0  0  0  0
 40 35  1  0  0  0  0
 41 40  1  0  0  0  0
 42 37  1  0  0  0  0
 43 38  1  0  0  0  0
 44 38  1  0  0  0  0
 44 39  1  0  0  0  0
 44 42  1  0  0  0  0
 45 46  1  0  0  0  0
 45 48  1  0  0  0  0
 46 47  1  0  0  0  0
 48 51  1  0  0  0  0
 49 51  2  0  0  0  0
 51 50  1  0  0  0  0
M  END
>  <MODEL>
6

>  <REMARK>
 VINA RESULT:      -4.6      3.061      8.578
  Name = 
  21 active torsions:
  status: ('A' for Active; 'I' for Inactive)
    1  A    between atoms: C_6  and  C_42
    2  A    between atoms: C_8  and  C_30
    3  A    between atoms: C_10  and  C_28
    4  A    between atoms: C_10  and  C_43
    5  A    between atoms: C_11  and  O_13
    6  A    between atoms: C_11  and  C_17
    7  A    between atoms: C_11  and  O_48
    8  A    between atoms: C_12  and  C_42
    9  A    between atoms: C_16  and  C_22
   10  A    between atoms: C_16  and  C_38
   11  A    between atoms: C_17  and  C_27
   12  A    between atoms: C_17  and  C_31
   13  A    between atoms: C_20  and  C_33
   14  A    between atoms: C_22  and  C_49
   15  A    between atoms: C_25  and  C_27
   16  A    between atoms: C_26  and  C_42
   17  A    between atoms: C_26  and  C_49
   18  A    between atoms: C_30  and  C_44
   19  A    between atoms: C_32  and  C_44
   20  A    between atoms: C_43  and  C_49
   21  A    between atoms: C_47  and  O_48
                            x       y       z     vdW  Elec       q    Type
                         _______ _______ _______ _____ _____    ______ ____

>  <TORSDO>
F 21

$$$$
=
 OpenBabel11072410253D

 51 53  0  0  1  0  0  0  0  0999 V2000
  161.9640  207.5520  153.7300 C   0  0  0  0  0  3  0  0  0  0  0  0
  162.6760  206.8430  152.8450 C   0  0  0  0  0  3  0  0  0  0  0  0
  160.5500  208.0040  153.5100 C   0  0  2  0  0  3  0  0  0  0  0  0
  161.2920  210.6600  151.2480 C   0  0  0  0  0  0  0  0  0  0  0  0
  160.4390  209.5020  153.4080 C   0  0  1  0  0  3  0  0  0  0  0  0
  162.0910  211.8110  149.0770 C   0  0  0  0  0  2  0  0  0  0  0  0
  161.6930  211.2320  150.1750 C   0  0  0  0  0  0  0  0  0  0  0  0
  160.8790  210.0850  152.3180 C   0  0  0  0  0  2  0  0  0  0  0  0
  161.1730  212.5980  148.2440 C   0  0  0  0  0  0  0  0  0  0  0  0
  160.2450  213.2760  148.7650 O   0  0  0  0  0  0  0  0  0  0  0  0
  161.3180  212.5620  146.7590 C   0  0  0  0  0  2  0  0  0  0  0  0
  162.4000  213.5290  146.3050 C   0  0  0  0  0  2  0  0  0  0  0  0
  162.6820  213.3300  144.8940 N   0  0  0  0  0  1  0  0  0  0  0  0
  159.6980  210.3000  154.4550 C   0  0  2  0  0  3  0  0  0  0  0  0
  159.2540  211.6820  153.9510 C   0  0  1  0  0  3  0  0  0  0  0  0
  158.2350  211.5790  152.9990 O   0  0  0  0  0  1  0  0  0  0  0  0
  158.8030  212.5910  155.0970 C   0  0  0  0  0  2  0  0  0  0  0  0
  156.4380  213.4000  155.2480 O   0  0  0  0  0  0  0  0  0  0  0  0
  156.9990  211.2910  155.9610 O   0  0  0  0  0  1  0  0  0  0  0  0
  157.3670  212.3840  155.4550 C   0  0  0  0  0  0  0  0  0  0  0  0
  160.5460  210.4570  155.7060 C   0  0  0  0  0  2  0  0  0  0  0  0
  161.9890  210.7070  155.3310 C   0  0  0  0  0  2  0  0  0  0  0  0
  163.8500  211.0630  156.7840 O   0  0  0  0  0  0  0  0  0  0  0  0
  162.6090  209.1730  157.1910 O   0  0  0  0  0  1  0  0  0  0  0  0
  162.8750  210.3280  156.4660 C   0  0  0  0  0  0  0  0  0  0  0  0
  159.6950  207.4710  154.6440 C   0  0  0  0  0  2  0  0  0  0  0  0
  160.5040  206.9380  155.6490 O   0  0  0  0  0  1  0  0  0  0  0  0
  162.1460  206.4130  151.5060 C   0  0  1  0  0  3  0  0  0  0  0  0
  163.2690  206.2280  150.4830 C   0  0  0  0  0  2  0  0  0  0  0  0
  160.8860  206.9600  147.0140 C   0  0  0  0  0  2  0  0  0  0  0  0
  162.1290  205.6270  148.3730 C   0  0  2  0  0  3  0  0  0  0  0  0
  161.9530  207.9190  149.1650 C   0  0  0  0  0  2  0  0  0  0  0  0
  161.2070  208.2300  147.8320 C   0  0  0  0  0  2  0  0  0  0  0  0
  162.9170  206.7080  149.0800 C   0  0  1  0  0  3  0  0  0  0  0  0
  162.5440  204.7400  147.2240 C   0  0  2  0  0  3  0  0  0  0  0  0
  162.1920  206.1960  146.9530 C   0  0  1  0  0  3  0  0  0  0  0  0
  161.1810  202.6550  147.7510 C   0  0  0  0  0  2  0  0  0  0  0  0
  160.4560  202.3300  144.8970 C   0  0  2  0  0  3  0  0  0  0  0  0
  161.2100  200.2940  145.9230 O   0  0  0  0  0  1  0  0  0  0  0  0
  161.4450  203.7680  146.7360 C   0  0  2  0  0  3  0  0  0  0  0  0
  161.6370  203.2060  145.3180 C   0  0  0  0  0  2  0  0  0  0  0  0
  159.9800  201.8120  147.3280 C   0  0  0  0  0  2  0  0  0  0  0  0
  159.3180  203.1140  144.6980 O   0  0  0  0  0  1  0  0  0  0  0  0
  160.1720  201.2300  145.9240 C   0  0  1  0  0  3  0  0  0  0  0  0
  161.2320  205.1850  151.5650 C   0  0  1  0  0  3  0  0  0  0  0  0
  160.5790  204.9400  150.3520 O   0  0  0  0  0  0  0  0  0  0  0  0
  159.6520  205.9800  150.2220 C   0  0  0  0  0  1  0  0  0  0  0  0
  161.9210  204.0240  152.0330 O   0  0  0  0  0  0  0  0  0  0  0  0
  162.5860  201.7440  151.6440 O   0  0  0  0  0  1  0  0  0  0  0  0
  160.3950  202.3770  151.4610 O   0  0  0  0  0  0  0  0  0  0  0  0
  161.5880  202.7080  151.6970 C   0  0  0  0  0  0  0  0  0  0  0  0
  2  1  2  0  0  0  0
  3  1  1  1  0  0  0
  3 26  1  0  0  0  0
  4  8  1  0  0  0  0
  5  8  1  6  0  0  0
  5  3  1  0  0  0  0
  5 14  1  0  0  0  0
  6  7  1  0  0  0  0
  7  4  3  0  0  0  0
  9 10  2  0  0  0  0
  9  6  1  0  0  0  0
 11  9  1  0  0  0  0
 12 11  1  0  0  0  0
 13 12  1  0  0  0  0
 14 21  1  1  0  0  0
 15 16  1  6  0  0  0
 15 14  1  0  0  0  0
 15 17  1  0  0  0  0
 17 20  1  0  0  0  0
 18 20  2  0  0  0  0
 20 19  1  0  0  0  0
 22 21  1  0  0  0  0
 22 25  1  0  0  0  0
 25 23  2  0  0  0  0
 25 24  1  0  0  0  0
 26 27  1  0  0  0  0
 28 29  1  6  0  0  0
 28 45  1  0  0  0  0
 28  2  1  0  0  0  0
 30 33  1  0  0  0  0
 31 34  1  0  0  0  0
 33 32  1  0  0  0  0
 34 32  1  0  0  0  0
 34 29  1  0  0  0  0
 35 31  1  0  0  0  0
 36 30  1  0  0  0  0
 36 35  1  0  0  0  0
 36 31  1  0  0  0  0
 38 41  1  0  0  0  0
 38 44  1  0  0  0  0
 39 44  1  0  0  0  0
 40 35  1  0  0  0  0
 40 37  1  0  0  0  0
 41 40  1  0  0  0  0
 42 37  1  0  0  0  0
 43 38  1  0  0  0  0
 44 42  1  0  0  0  0
 45 48  1  0  0  0  0
 46 45  1  0  0  0  0
 47 46  1  0  0  0  0
 49 51  1  0  0  0  0
 50 51  2  0  0  0  0
 51 48  1  0  0  0  0
M  END
>  <MODEL>
7

>  <REMARK>
 VINA RESULT:      -3.9      2.368      4.603
  Name = 
  21 active torsions:
  status: ('A' for Active; 'I' for Inactive)
    1  A    between atoms: C_6  and  C_42
    2  A    between atoms: C_8  and  C_30
    3  A    between atoms: C_10  and  C_28
    4  A    between atoms: C_10  and  C_43
    5  A    between atoms: C_11  and  O_13
    6  A    between atoms: C_11  and  C_17
    7  A    between atoms: C_11  and  O_48
    8  A    between atoms: C_12  and  C_42
    9  A    between atoms: C_16  and  C_22
   10  A    between atoms: C_16  and  C_38
   11  A    between atoms: C_17  and  C_27
   12  A    between atoms: C_17  and  C_31
   13  A    between atoms: C_20  and  C_33
   14  A    between atoms: C_22  and  C_49
   15  A    between atoms: C_25  and  C_27
   16  A    between atoms: C_26  and  C_42
   17  A    between atoms: C_26  and  C_49
   18  A    between atoms: C_30  and  C_44
   19  A    between atoms: C_32  and  C_44
   20  A    between atoms: C_43  and  C_49
   21  A    between atoms: C_47  and  O_48
                            x       y       z     vdW  Elec       q    Type
                         _______ _______ _______ _____ _____    ______ ____

>  <TORSDO>
F 21

$$$$
=
 OpenBabel11072410253D

 51 53  0  0  1  0  0  0  0  0999 V2000
  160.8520  208.1080  152.8360 C   0  0  0  0  0  3  0  0  0  0  0  0
  160.5280  208.6920  153.9960 C   0  0  0  0  0  3  0  0  0  0  0  0
  160.9210  208.8250  151.5190 C   0  0  2  0  0  3  0  0  0  0  0  0
  161.3600  205.3460  150.8680 C   0  0  0  0  0  0  0  0  0  0  0  0
  161.2040  207.8890  150.3740 C   0  0  1  0  0  3  0  0  0  0  0  0
  161.4630  202.8090  151.3460 C   0  0  0  0  0  2  0  0  0  0  0  0
  161.4170  204.0890  151.1050 C   0  0  0  0  0  0  0  0  0  0  0  0
  161.2900  206.6050  150.6280 C   0  0  0  0  0  2  0  0  0  0  0  0
  160.5430  201.8670  150.6970 C   0  0  0  0  0  0  0  0  0  0  0  0
  160.2950  200.7420  151.2130 O   0  0  0  0  0  0  0  0  0  0  0  0
  159.9240  202.2320  149.3890 C   0  0  0  0  0  2  0  0  0  0  0  0
  160.2040  201.1600  148.3480 C   0  0  0  0  0  2  0  0  0  0  0  0
  161.6030  200.7750  148.3980 N   0  0  0  0  0  1  0  0  0  0  0  0
  161.2260  208.3880  148.9480 C   0  0  2  0  0  3  0  0  0  0  0  0
  162.2090  207.6130  148.0570 C   0  0  1  0  0  3  0  0  0  0  0  0
  163.2160  207.0050  148.8120 O   0  0  0  0  0  1  0  0  0  0  0  0
  161.4980  206.5640  147.2000 C   0  0  0  0  0  2  0  0  0  0  0  0
  162.0260  204.1410  147.5590 O   0  0  0  0  0  1  0  0  0  0  0  0
  163.3650  205.4430  146.2250 O   0  0  0  0  0  0  0  0  0  0  0  0
  162.3460  205.3560  146.9600 C   0  0  0  0  0  0  0  0  0  0  0  0
  161.5540  209.8710  148.9070 C   0  0  0  0  0  2  0  0  0  0  0  0
  162.7260  210.1220  147.9850 C   0  0  0  0  0  2  0  0  0  0  0  0
  163.9670  212.0230  147.2480 O   0  0  0  0  0  0  0  0  0  0  0  0
  162.5700  212.3720  149.0390 O   0  0  0  0  0  1  0  0  0  0  0  0
  163.1320  211.5510  148.0690 C   0  0  0  0  0  0  0  0  0  0  0  0
  161.9860  209.9020  151.6160 C   0  0  0  0  0  2  0  0  0  0  0  0
  163.1380  209.3890  152.2150 O   0  0  0  0  0  1  0  0  0  0  0  0
  160.1860  210.1500  154.1260 C   0  0  1  0  0  3  0  0  0  0  0  0
  158.7150  210.4190  153.8080 C   0  0  0  0  0  2  0  0  0  0  0  0
  156.7870  214.0240  152.5690 C   0  0  0  0  0  2  0  0  0  0  0  0
  158.3710  212.4040  152.3750 C   0  0  2  0  0  3  0  0  0  0  0  0
  156.8700  212.0680  154.2580 C   0  0  0  0  0  2  0  0  0  0  0  0
  156.2530  213.4550  153.9010 C   0  0  0  0  0  2  0  0  0  0  0  0
  158.3400  211.8970  153.8000 C   0  0  1  0  0  3  0  0  0  0  0  0
  159.3460  213.3530  151.7210 C   0  0  2  0  0  3  0  0  0  0  0  0
  158.2930  213.9050  152.6700 C   0  0  1  0  0  3  0  0  0  0  0  0
  157.5380  213.9110  150.0170 C   0  0  0  0  0  2  0  0  0  0  0  0
  159.3200  213.1430  147.7790 C   0  0  2  0  0  3  0  0  0  0  0  0
  157.1180  212.2040  147.6030 O   0  0  0  0  0  1  0  0  0  0  0  0
  159.0320  213.6740  150.2410 C   0  0  2  0  0  3  0  0  0  0  0  0
  159.6090  212.6900  149.2120 C   0  0  0  0  0  2  0  0  0  0  0  0
  157.2750  214.3930  148.5920 C   0  0  0  0  0  2  0  0  0  0  0  0
  160.0650  214.2840  147.4720 O   0  0  0  0  0  1  0  0  0  0  0  0
  157.8270  213.4070  147.5580 C   0  0  1  0  0  3  0  0  0  0  0  0
  160.5920  210.7650  155.4700 C   0  0  1  0  0  3  0  0  0  0  0  0
  161.7840  210.2280  155.9700 O   0  0  0  0  0  0  0  0  0  0  0  0
  161.4300  209.6190  157.1780 C   0  0  0  0  0  1  0  0  0  0  0  0
  160.6410  212.1910  155.4150 O   0  0  0  0  0  0  0  0  0  0  0  0
  159.7110  214.3730  155.8210 O   0  0  0  0  0  0  0  0  0  0  0  0
  159.2860  212.6310  157.2430 O   0  0  0  0  0  1  0  0  0  0  0  0
  159.8650  213.0470  156.2040 C   0  0  0  0  0  0  0  0  0  0  0  0
  1  2  2  0  0  0  0
  2 28  1  0  0  0  0
  3 26  1  1  0  0  0
  3  1  1  0  0  0  0
  4  7  3  0  0  0  0
  5  8  1  6  0  0  0
  5  3  1  0  0  0  0
  7  6  1  0  0  0  0
  8  4  1  0  0  0  0
  9 10  2  0  0  0  0
  9  6  1  0  0  0  0
 11  9  1  0  0  0  0
 12 13  1  0  0  0  0
 12 11  1  0  0  0  0
 14 21  1  1  0  0  0
 14  5  1  0  0  0  0
 15 16  1  1  0  0  0
 15 14  1  0  0  0  0
 17 15  1  0  0  0  0
 19 20  2  0  0  0  0
 20 17  1  0  0  0  0
 20 18  1  0  0  0  0
 22 25  1  0  0  0  0
 22 21  1  0  0  0  0
 23 25  2  0  0  0  0
 25 24  1  0  0  0  0
 26 27  1  0  0  0  0
 28 29  1  1  0  0  0
 28 45  1  0  0  0  0
 30 36  1  0  0  0  0
 30 33  1  0  0  0  0
 31 36  1  0  0  0  0
 31 34  1  0  0  0  0
 33 32  1  0  0  0  0
 34 29  1  0  0  0  0
 34 32  1  0  0  0  0
 35 31  1  0  0  0  0
 35 36  1  0  0  0  0
 37 40  1  0  0  0  0
 38 41  1  0  0  0  0
 40 35  1  0  0  0  0
 41 40  1  0  0  0  0
 42 37  1  0  0  0  0
 43 38  1  0  0  0  0
 44 39  1  0  0  0  0
 44 38  1  0  0  0  0
 44 42  1  0  0  0  0
 45 46  1  0  0  0  0
 46 47  1  0  0  0  0
 48 45  1  0  0  0  0
 48 51  1  0  0  0  0
 49 51  2  0  0  0  0
 51 50  1  0  0  0  0
M  END
>  <MODEL>
8

>  <REMARK>
 VINA RESULT:      -3.8      3.052      8.688
  Name = 
  21 active torsions:
  status: ('A' for Active; 'I' for Inactive)
    1  A    between atoms: C_6  and  C_42
    2  A    between atoms: C_8  and  C_30
    3  A    between atoms: C_10  and  C_28
    4  A    between atoms: C_10  and  C_43
    5  A    between atoms: C_11  and  O_13
    6  A    between atoms: C_11  and  C_17
    7  A    between atoms: C_11  and  O_48
    8  A    between atoms: C_12  and  C_42
    9  A    between atoms: C_16  and  C_22
   10  A    between atoms: C_16  and  C_38
   11  A    between atoms: C_17  and  C_27
   12  A    between atoms: C_17  and  C_31
   13  A    between atoms: C_20  and  C_33
   14  A    between atoms: C_22  and  C_49
   15  A    between atoms: C_25  and  C_27
   16  A    between atoms: C_26  and  C_42
   17  A    between atoms: C_26  and  C_49
   18  A    between atoms: C_30  and  C_44
   19  A    between atoms: C_32  and  C_44
   20  A    between atoms: C_43  and  C_49
   21  A    between atoms: C_47  and  O_48
                            x       y       z     vdW  Elec       q    Type
                         _______ _______ _______ _____ _____    ______ ____

>  <TORSDO>
F 21

$$$$
=
 OpenBabel11072410253D

 51 53  0  0  1  0  0  0  0  0999 V2000
  160.8370  208.0780  153.1430 C   0  0  0  0  0  3  0  0  0  0  0  0
  160.2310  208.6580  154.1860 C   0  0  0  0  0  3  0  0  0  0  0  0
  161.2820  208.8100  151.9100 C   0  0  2  0  0  3  0  0  0  0  0  0
  161.8450  205.3410  151.3000 C   0  0  0  0  0  0  0  0  0  0  0  0
  161.9870  207.9060  150.9330 C   0  0  1  0  0  3  0  0  0  0  0  0
  161.6620  202.7860  151.6310 C   0  0  0  0  0  2  0  0  0  0  0  0
  161.7600  204.0750  151.4670 C   0  0  0  0  0  0  0  0  0  0  0  0
  161.9200  206.6110  151.1260 C   0  0  0  0  0  2  0  0  0  0  0  0
  161.0670  201.9200  150.6050 C   0  0  0  0  0  0  0  0  0  0  0  0
  161.0740  200.6630  150.7340 O   0  0  0  0  0  0  0  0  0  0  0  0
  160.4840  202.5330  149.3770 C   0  0  0  0  0  2  0  0  0  0  0  0
  160.9090  201.7580  148.1400 C   0  0  0  0  0  2  0  0  0  0  0  0
  160.6870  202.5620  146.9510 N   0  0  0  0  0  1  0  0  0  0  0  0
  162.6170  208.4600  149.6760 C   0  0  2  0  0  3  0  0  0  0  0  0
  161.9210  209.7320  149.1690 C   0  0  1  0  0  3  0  0  0  0  0  0
  161.1860  210.3540  150.1810 O   0  0  0  0  0  1  0  0  0  0  0  0
  162.9170  210.7250  148.5650 C   0  0  0  0  0  2  0  0  0  0  0  0
  161.4800  211.8460  146.8460 O   0  0  0  0  0  0  0  0  0  0  0  0
  162.3800  213.0490  148.5810 O   0  0  0  0  0  1  0  0  0  0  0  0
  162.2430  211.9370  148.0060 C   0  0  0  0  0  0  0  0  0  0  0  0
  162.6300  207.4080  148.5790 C   0  0  0  0  0  2  0  0  0  0  0  0
  161.3150  207.4170  147.8310 C   0  0  0  0  0  2  0  0  0  0  0  0
  160.4650  206.3710  145.8600 O   0  0  0  0  0  0  0  0  0  0  0  0
  162.3190  205.3870  146.7960 O   0  0  0  0  0  1  0  0  0  0  0  0
  161.3310  206.3640  146.7790 C   0  0  0  0  0  0  0  0  0  0  0  0
  162.1780  209.9590  152.3330 C   0  0  0  0  0  2  0  0  0  0  0  0
  161.6070  211.1780  151.9650 O   0  0  0  0  0  1  0  0  0  0  0  0
  159.9120  210.1250  154.2530 C   0  0  1  0  0  3  0  0  0  0  0  0
  158.5310  210.4340  153.6730 C   0  0  0  0  0  2  0  0  0  0  0  0
  156.5420  214.0580  152.5950 C   0  0  0  0  0  2  0  0  0  0  0  0
  158.1120  212.4410  152.2920 C   0  0  2  0  0  3  0  0  0  0  0  0
  156.7150  212.0770  154.2480 C   0  0  0  0  0  2  0  0  0  0  0  0
  156.0810  213.4690  153.9460 C   0  0  0  0  0  2  0  0  0  0  0  0
  158.1590  211.9120  153.7080 C   0  0  1  0  0  3  0  0  0  0  0  0
  159.0510  213.3990  151.5990 C   0  0  2  0  0  3  0  0  0  0  0  0
  158.0520  213.9370  152.6130 C   0  0  1  0  0  3  0  0  0  0  0  0
  157.1480  213.9370  149.9950 C   0  0  0  0  0  2  0  0  0  0  0  0
  158.8440  213.2750  147.6590 C   0  0  2  0  0  3  0  0  0  0  0  0
  156.6650  212.2710  147.5650 O   0  0  0  0  0  1  0  0  0  0  0  0
  158.6570  213.7430  150.1440 C   0  0  2  0  0  3  0  0  0  0  0  0
  159.2150  212.8000  149.0660 C   0  0  0  0  0  2  0  0  0  0  0  0
  156.8030  214.4410  148.5960 C   0  0  0  0  0  2  0  0  0  0  0  0
  159.5390  214.4460  147.3450 O   0  0  0  0  0  1  0  0  0  0  0  0
  157.3350  213.4960  147.5140 C   0  0  1  0  0  3  0  0  0  0  0  0
  160.0860  210.7350  155.6480 C   0  0  1  0  0  3  0  0  0  0  0  0
  160.9770  210.0080  156.4470 O   0  0  0  0  0  0  0  0  0  0  0  0
  162.1770  210.7220  156.3950 C   0  0  0  0  0  1  0  0  0  0  0  0
  160.4410  212.1170  155.5900 O   0  0  0  0  0  0  0  0  0  0  0  0
  160.2790  214.4350  156.2180 O   0  0  0  0  0  0  0  0  0  0  0  0
  158.7200  212.9140  156.9220 O   0  0  0  0  0  1  0  0  0  0  0  0
  159.7770  213.1410  156.2740 C   0  0  0  0  0  0  0  0  0  0  0  0
  1  2  2  0  0  0  0
  2 28  1  0  0  0  0
  3 26  1  1  0  0  0
  3  1  1  0  0  0  0
  4  7  3  0  0  0  0
  5  8  1  6  0  0  0
  5  3  1  0  0  0  0
  7  6  1  0  0  0  0
  8  4  1  0  0  0  0
  9 10  2  0  0  0  0
  9  6  1  0  0  0  0
 11  9  1  0  0  0  0
 12 11  1  0  0  0  0
 13 12  1  0  0  0  0
 14 21  1  6  0  0  0
 14  5  1  0  0  0  0
 15 14  1  0  0  0  0
 15 16  1  1  0  0  0
 17 15  1  0  0  0  0
 18 20  2  0  0  0  0
 20 17  1  0  0  0  0
 20 19  1  0  0  0  0
 22 21  1  0  0  0  0
 23 25  2  0  0  0  0
 25 24  1  0  0  0  0
 25 22  1  0  0  0  0
 27 26  1  0  0  0  0
 28 29  1  1  0  0  0
 28 45  1  0  0  0  0
 29 34  1  0  0  0  0
 30 36  1  0  0  0  0
 30 33  1  0  0  0  0
 31 36  1  0  0  0  0
 31 34  1  0  0  0  0
 33 32  1  0  0  0  0
 34 32  1  0  0  0  0
 35 31  1  0  0  0  0
 35 36  1  0  0  0  0
 37 40  1  0  0  0  0
 38 41  1  0  0  0  0
 40 35  1  0  0  0  0
 41 40  1  0  0  0  0
 42 37  1  0  0  0  0
 43 38  1  0  0  0  0
 44 39  1  0  0  0  0
 44 38  1  0  0  0  0
 44 42  1  0  0  0  0
 45 46  1  0  0  0  0
 47 46  1  0  0  0  0
 48 45  1  0  0  0  0
 48 51  1  0  0  0  0
 49 51  2  0  0  0  0
 51 50  1  0  0  0  0
M  END
>  <MODEL>
9

>  <REMARK>
 VINA RESULT:      -3.6      2.782      8.574
  Name = 
  21 active torsions:
  status: ('A' for Active; 'I' for Inactive)
    1  A    between atoms: C_6  and  C_42
    2  A    between atoms: C_8  and  C_30
    3  A    between atoms: C_10  and  C_28
    4  A    between atoms: C_10  and  C_43
    5  A    between atoms: C_11  and  O_13
    6  A    between atoms: C_11  and  C_17
    7  A    between atoms: C_11  and  O_48
    8  A    between atoms: C_12  and  C_42
    9  A    between atoms: C_16  and  C_22
   10  A    between atoms: C_16  and  C_38
   11  A    between atoms: C_17  and  C_27
   12  A    between atoms: C_17  and  C_31
   13  A    between atoms: C_20  and  C_33
   14  A    between atoms: C_22  and  C_49
   15  A    between atoms: C_25  and  C_27
   16  A    between atoms: C_26  and  C_42
   17  A    between atoms: C_26  and  C_49
   18  A    between atoms: C_30  and  C_44
   19  A    between atoms: C_32  and  C_44
   20  A    between atoms: C_43  and  C_49
   21  A    between atoms: C_47  and  O_48
                            x       y       z     vdW  Elec       q    Type
                         _______ _______ _______ _____ _____    ______ ____

>  <TORSDO>
F 21

$$$$
