=
 OpenBabel11072410423D

 50 54  0  0  1  0  0  0  0  0999 V2000
  161.5170  208.3160  147.8500 C   0  0  0  0  0  3  0  0  0  0  0  0
  161.9930  211.5800  149.6480 C   0  0  0  0  0  3  0  0  0  0  0  0
  161.4650  209.7520  148.1510 C   0  0  0  0  0  0  0  0  0  0  0  0
  162.2640  207.5250  148.5640 N   0  0  0  0  0  0  0  0  0  0  0  0
  161.4220  212.4850  148.7460 C   0  0  0  0  0  0  0  0  0  0  0  0
  160.8420  212.0210  147.5500 C   0  0  0  0  0  0  0  0  0  0  0  0
  163.1570  208.0220  149.6180 C   0  0  0  0  0  2  0  0  0  0  0  0
  160.8770  210.6490  147.2600 C   0  0  0  0  0  3  0  0  0  0  0  0
  162.5490  209.2220  150.3560 C   0  0  1  0  0  3  0  0  0  0  0  0
  162.0160  210.2140  149.3570 C   0  0  0  0  0  0  0  0  0  0  0  0
  161.4300  214.1940  149.1420 Cl  0  0  0  0  0  0  0  0  0  0  0  0
  161.4730  208.7580  151.2220 N   0  0  0  0  0  2  0  0  0  0  0  0
  162.3480  209.6860  153.1820 O   0  0  0  0  0  0  0  0  0  0  0  0
  161.4090  209.0650  152.6150 C   0  0  0  0  0  0  0  0  0  0  0  0
  160.2050  208.6670  153.3960 C   0  0  0  0  0  2  0  0  0  0  0  0
  160.4320  207.3340  154.1050 C   0  0  2  0  0  3  0  0  0  0  0  0
  160.0740  207.2290  156.3760 O   0  0  0  0  0  1  0  0  0  0  0  0
  161.0160  207.5010  155.4390 N   0  0  0  0  0  2  0  0  0  0  0  0
  162.4180  206.2050  153.4650 O   0  0  0  0  0  0  0  0  0  0  0  0
  161.2290  206.3910  153.2530 C   0  0  0  0  0  0  0  0  0  0  0  0
  160.5690  205.7010  152.1020 C   0  0  0  0  0  2  0  0  0  0  0  0
  161.5380  205.2860  151.1830 O   0  0  0  0  0  0  0  0  0  0  0  0
  160.8360  204.8820  150.0420 C   0  0  0  0  0  2  0  0  0  0  0  0
  161.3020  203.4980  149.5860 C   0  0  1  0  0  3  0  0  0  0  0  0
  159.7320  201.7070  149.2900 O   0  0  0  0  0  1  0  0  0  0  0  0
  160.4750  202.3990  150.2490 C   0  0  0  0  0  3  0  0  0  0  0  0
  161.3170  201.5020  150.9060 O   0  0  0  0  0  1  0  0  0  0  0  0
  161.2870  203.3770  148.0630 C   0  0  0  0  0  2  0  0  0  0  0  0
  161.2830  204.6400  147.4560 O   0  0  0  0  0  0  0  0  0  0  0  0
  161.6650  203.4490  145.3930 C   0  0  0  0  0  2  0  0  0  0  0  0
  162.1220  204.5400  146.3340 C   0  0  1  0  0  0  0  0  0  0  0  0
  161.5730  204.9040  144.9580 C   0  0  2  0  0  3  0  0  0  0  0  0
  163.6300  204.5020  146.5420 C   0  0  0  0  0  1  0  0  0  0  0  0
  160.1190  205.3440  145.0130 C   0  0  0  0  0  2  0  0  0  0  0  0
  160.0590  206.7120  145.2760 O   0  0  0  0  0  1  0  0  0  0  0  0
  160.2530  212.9640  146.6400 N   0  0  0  0  0  2  0  0  0  0  0  0
  159.4380  212.6820  145.4530 C   0  0  2  0  0  3  0  0  0  0  0  0
  159.0630  214.1510  143.1380 Cl  0  0  0  0  0  0  0  0  0  0  0  0
  162.3660  213.3020  143.4040 C   0  0  0  0  0  2  0  0  0  0  0  0
  160.4360  211.9420  143.3990 O   0  0  0  0  0  0  0  0  0  0  0  0
  161.6020  212.2500  142.7750 N   0  0  0  0  0  0  0  0  0  0  0  0
  161.8320  211.8770  141.4110 C   0  0  0  0  0  0  0  0  0  0  0  0
  161.4170  213.8340  144.4360 C   0  0  0  0  0  2  0  0  0  0  0  0
  160.1120  213.0990  144.1350 C   0  0  2  0  0  0  0  0  0  0  0  0
  162.9100  212.2060  140.8440 O   0  0  0  0  0  0  0  0  0  0  0  0
  161.4850  209.7970  140.0980 C   0  0  0  0  0  2  0  0  0  0  0  0
  160.8300  211.0420  140.6750 C   0  0  0  0  0  3  0  0  0  0  0  0
  161.1970  210.9790  139.2030 C   0  0  0  0  0  2  0  0  0  0  0  0
  157.2830  212.3190  146.4320 O   0  0  0  0  0  1  0  0  0  0  0  0
  157.9970  213.1700  145.5890 C   0  0  0  0  0  2  0  0  0  0  0  0
  1  3  1  0  0  0  0
  1  4  2  0  0  0  0
  3 10  2  0  0  0  0
  4  7  1  0  0  0  0
  5 11  1  0  0  0  0
  5  2  2  0  0  0  0
  6  5  1  0  0  0  0
  7  9  1  0  0  0  0
  8  6  2  0  0  0  0
  8  3  1  0  0  0  0
  9 12  1  1  0  0  0
 10  2  1  0  0  0  0
 10  9  1  0  0  0  0
 12 14  1  0  0  0  0
 14 13  2  0  0  0  0
 14 15  1  0  0  0  0
 16 15  1  6  0  0  0
 16 18  1  0  0  0  0
 18 17  1  0  0  0  0
 20 19  2  0  0  0  0
 20 16  1  0  0  0  0
 21 20  1  0  0  0  0
 22 21  1  0  0  0  0
 23 22  1  0  0  0  0
 24 28  1  6  0  0  0
 24 23  1  0  0  0  0
 24 26  1  0  0  0  0
 25 26  1  0  0  0  0
 26 27  1  0  0  0  0
 29 28  1  0  0  0  0
 30 31  1  0  0  0  0
 31 33  1  1  0  0  0
 31 29  1  0  0  0  0
 32 34  1  1  0  0  0
 32 30  1  0  0  0  0
 32 31  1  0  0  0  0
 34 35  1  0  0  0  0
 36  6  1  0  0  0  0
 37 50  1  1  0  0  0
 37 36  1  0  0  0  0
 39 43  1  0  0  0  0
 40 44  1  0  0  0  0
 41 40  1  0  0  0  0
 41 39  1  0  0  0  0
 42 41  1  0  0  0  0
 44 38  1  6  0  0  0
 44 43  1  0  0  0  0
 44 37  1  0  0  0  0
 45 42  2  0  0  0  0
 46 47  1  0  0  0  0
 47 42  1  0  0  0  0
 48 46  1  0  0  0  0
 48 47  1  0  0  0  0
 50 49  1  0  0  0  0
M  END
>  <MODEL>
1

>  <REMARK>
 VINA RESULT:      -4.5      0.000      0.000
  Name = 
  19 active torsions:
  status: ('A' for Active; 'I' for Inactive)
    1  A    between atoms: C_7  and  C_14
    2  A    between atoms: C_7  and  C_30
    3  A    between atoms: C_7  and  C_46
    4  A    between atoms: C_9  and  C_35
    5  A    between atoms: C_12  and  C_37
    6  A    between atoms: C_12  and  O_40
    7  A    between atoms: C_14  and  O_40
    8  A    between atoms: N_16  and  C_29
    9  A    between atoms: N_16  and  CA_45
   10  A    between atoms: C_19  and  C_24
   11  A    between atoms: C_19  and  C_50
   12  A    between atoms: C_20  and  C_21
   13  A    between atoms: C_22  and  O_25
   14  A    between atoms: C_24  and  C_37
   15  A    between atoms: C_24  and  N_48
   16  A    between atoms: O_25  and  C_30
   17  A    between atoms: N_26  and  C_34
   18  A    between atoms: C_28  and  CA_45
   19  A    between atoms: C_39  and  CA_45
                            x       y       z     vdW  Elec       q    Type
                         _______ _______ _______ _____ _____    ______ ____

>  <TORSDO>
F 19

$$$$
=
 OpenBabel11072410423D

 50 54  0  0  1  0  0  0  0  0999 V2000
  160.5960  205.4430  152.2010 C   0  0  0  0  0  3  0  0  0  0  0  0
  162.2170  208.5310  150.8040 C   0  0  0  0  0  3  0  0  0  0  0  0
  161.0700  206.4430  151.2360 C   0  0  0  0  0  0  0  0  0  0  0  0
  160.9930  205.4890  153.4390 N   0  0  0  0  0  0  0  0  0  0  0  0
  162.0260  208.3520  149.4300 C   0  0  0  0  0  0  0  0  0  0  0  0
  161.3280  207.2270  148.9520 C   0  0  0  0  0  0  0  0  0  0  0  0
  161.9960  206.4530  153.9100 C   0  0  0  0  0  2  0  0  0  0  0  0
  160.8610  206.2730  149.8680 C   0  0  0  0  0  3  0  0  0  0  0  0
  161.8640  207.8040  153.1960 C   0  0  1  0  0  3  0  0  0  0  0  0
  161.7410  207.5810  151.7110 C   0  0  0  0  0  0  0  0  0  0  0  0
  162.6560  209.5600  148.3240 Cl  0  0  0  0  0  0  0  0  0  0  0  0
  160.6840  208.4970  153.6960 N   0  0  0  0  0  2  0  0  0  0  0  0
  161.8180  210.4450  154.3190 O   0  0  0  0  0  0  0  0  0  0  0  0
  160.7230  209.8330  154.1990 C   0  0  0  0  0  0  0  0  0  0  0  0
  159.4490  210.5150  154.5630 C   0  0  0  0  0  2  0  0  0  0  0  0
  159.6470  212.0250  154.6580 C   0  0  2  0  0  3  0  0  0  0  0  0
  157.9820  211.7860  156.2270 O   0  0  0  0  0  1  0  0  0  0  0  0
  158.9890  212.6040  155.8340 N   0  0  0  0  0  2  0  0  0  0  0  0
  159.7340  212.3950  152.3160 O   0  0  0  0  0  0  0  0  0  0  0  0
  159.2380  212.7100  153.3870 C   0  0  0  0  0  0  0  0  0  0  0  0
  158.2400  213.8230  153.4390 C   0  0  0  0  0  2  0  0  0  0  0  0
  157.1390  213.5050  152.6380 O   0  0  0  0  0  0  0  0  0  0  0  0
  157.1590  214.4210  151.5790 C   0  0  0  0  0  2  0  0  0  0  0  0
  156.6210  213.7750  150.3000 C   0  0  1  0  0  3  0  0  0  0  0  0
  154.6050  214.4530  151.4120 O   0  0  0  0  0  1  0  0  0  0  0  0
  155.0940  213.7910  150.2840 C   0  0  0  0  0  3  0  0  0  0  0  0
  154.6380  214.4460  149.1400 O   0  0  0  0  0  1  0  0  0  0  0  0
  157.2080  214.4330  149.0530 C   0  0  0  0  0  2  0  0  0  0  0  0
  158.5500  214.0700  148.8740 O   0  0  0  0  0  0  0  0  0  0  0  0
  159.1710  214.2110  146.5470 C   0  0  0  0  0  2  0  0  0  0  0  0
  158.6070  213.3610  147.6630 C   0  0  1  0  0  0  0  0  0  0  0  0
  159.9690  213.0220  147.0620 C   0  0  2  0  0  3  0  0  0  0  0  0
  157.3830  212.5810  147.2060 C   0  0  0  0  0  1  0  0  0  0  0  0
  161.1200  213.5310  147.9130 C   0  0  0  0  0  2  0  0  0  0  0  0
  161.4930  212.5450  148.8250 O   0  0  0  0  0  1  0  0  0  0  0  0
  161.1340  207.0640  147.5380 N   0  0  0  0  0  2  0  0  0  0  0  0
  160.5840  205.9010  146.8320 C   0  0  2  0  0  3  0  0  0  0  0  0
  163.0030  204.6830  146.2650 Cl  0  0  0  0  0  0  0  0  0  0  0  0
  161.3870  202.8900  148.6880 C   0  0  0  0  0  2  0  0  0  0  0  0
  160.6760  203.5220  146.5270 O   0  0  0  0  0  0  0  0  0  0  0  0
  160.9590  202.4930  147.3670 N   0  0  0  0  0  0  0  0  0  0  0  0
  161.2210  201.1780  146.8640 C   0  0  0  0  0  0  0  0  0  0  0  0
  161.5820  204.3700  148.5460 C   0  0  0  0  0  2  0  0  0  0  0  0
  161.3970  204.6140  147.0500 C   0  0  2  0  0  0  0  0  0  0  0  0
  161.5160  200.2470  147.6630 O   0  0  0  0  0  0  0  0  0  0  0  0
  159.6230  200.6960  145.0240 C   0  0  0  0  0  2  0  0  0  0  0  0
  161.0840  200.8850  145.4020 C   0  0  0  0  0  3  0  0  0  0  0  0
  160.5150  199.4900  145.2080 C   0  0  0  0  0  2  0  0  0  0  0  0
  161.2960  205.7130  144.5540 O   0  0  0  0  0  1  0  0  0  0  0  0
  160.2670  206.1890  145.3660 C   0  0  0  0  0  2  0  0  0  0  0  0
  1  4  2  0  0  0  0
  2 10  1  0  0  0  0
  3 10  2  0  0  0  0
  3  1  1  0  0  0  0
  4  7  1  0  0  0  0
  5  2  2  0  0  0  0
  6  5  1  0  0  0  0
  6  8  2  0  0  0  0
  8  3  1  0  0  0  0
  9 12  1  1  0  0  0
  9  7  1  0  0  0  0
 10  9  1  0  0  0  0
 11  5  1  0  0  0  0
 12 14  1  0  0  0  0
 14 13  2  0  0  0  0
 14 15  1  0  0  0  0
 16 15  1  6  0  0  0
 16 18  1  0  0  0  0
 18 17  1  0  0  0  0
 19 20  2  0  0  0  0
 20 21  1  0  0  0  0
 20 16  1  0  0  0  0
 22 21  1  0  0  0  0
 23 22  1  0  0  0  0
 24 28  1  6  0  0  0
 24 23  1  0  0  0  0
 26 24  1  0  0  0  0
 26 25  1  0  0  0  0
 27 26  1  0  0  0  0
 29 28  1  0  0  0  0
 30 32  1  0  0  0  0
 30 31  1  0  0  0  0
 31 33  1  6  0  0  0
 31 29  1  0  0  0  0
 32 31  1  0  0  0  0
 32 34  1  1  0  0  0
 34 35  1  0  0  0  0
 36  6  1  0  0  0  0
 37 50  1  6  0  0  0
 37 44  1  0  0  0  0
 37 36  1  0  0  0  0
 40 44  1  0  0  0  0
 40 41  1  0  0  0  0
 41 39  1  0  0  0  0
 42 41  1  0  0  0  0
 42 45  2  0  0  0  0
 43 39  1  0  0  0  0
 44 38  1  6  0  0  0
 44 43  1  0  0  0  0
 46 48  1  0  0  0  0
 46 47  1  0  0  0  0
 47 42  1  0  0  0  0
 48 47  1  0  0  0  0
 49 50  1  0  0  0  0
M  END
>  <MODEL>
2

>  <REMARK>
 VINA RESULT:      -4.3      3.645      8.621
  Name = 
  19 active torsions:
  status: ('A' for Active; 'I' for Inactive)
    1  A    between atoms: C_7  and  C_14
    2  A    between atoms: C_7  and  C_30
    3  A    between atoms: C_7  and  C_46
    4  A    between atoms: C_9  and  C_35
    5  A    between atoms: C_12  and  C_37
    6  A    between atoms: C_12  and  O_40
    7  A    between atoms: C_14  and  O_40
    8  A    between atoms: N_16  and  C_29
    9  A    between atoms: N_16  and  CA_45
   10  A    between atoms: C_19  and  C_24
   11  A    between atoms: C_19  and  C_50
   12  A    between atoms: C_20  and  C_21
   13  A    between atoms: C_22  and  O_25
   14  A    between atoms: C_24  and  C_37
   15  A    between atoms: C_24  and  N_48
   16  A    between atoms: O_25  and  C_30
   17  A    between atoms: N_26  and  C_34
   18  A    between atoms: C_28  and  CA_45
   19  A    between atoms: C_39  and  CA_45
                            x       y       z     vdW  Elec       q    Type
                         _______ _______ _______ _____ _____    ______ ____

>  <TORSDO>
F 19

$$$$
=
 OpenBabel11072410423D

 50 54  0  0  1  0  0  0  0  0999 V2000
  161.0660  208.3170  154.7150 C   0  0  0  0  0  3  0  0  0  0  0  0
  162.0950  210.0840  151.5630 C   0  0  0  0  0  3  0  0  0  0  0  0
  161.3270  208.5740  153.2930 C   0  0  0  0  0  0  0  0  0  0  0  0
  161.5030  209.1430  155.6200 N   0  0  0  0  0  0  0  0  0  0  0  0
  161.8760  209.0920  150.6010 C   0  0  0  0  0  0  0  0  0  0  0  0
  161.3540  207.8410  150.9780 C   0  0  0  0  0  0  0  0  0  0  0  0
  162.3530  210.2950  155.2920 C   0  0  0  0  0  2  0  0  0  0  0  0
  161.0900  207.5910  152.3330 C   0  0  0  0  0  3  0  0  0  0  0  0
  161.9680  210.9160  153.9430 C   0  0  1  0  0  3  0  0  0  0  0  0
  161.8200  209.8310  152.9100 C   0  0  0  0  0  0  0  0  0  0  0  0
  162.2510  209.4450  148.9230 Cl  0  0  0  0  0  0  0  0  0  0  0  0
  160.7130  211.6410  154.0890 N   0  0  0  0  0  2  0  0  0  0  0  0
  160.9800  212.0950  156.3670 O   0  0  0  0  0  0  0  0  0  0  0  0
  160.3020  212.2470  155.3160 C   0  0  0  0  0  0  0  0  0  0  0  0
  159.0710  213.0840  155.3410 C   0  0  0  0  0  2  0  0  0  0  0  0
  157.8880  212.3320  154.7380 C   0  0  2  0  0  3  0  0  0  0  0  0
  156.4250  210.9600  155.8650 O   0  0  0  0  0  1  0  0  0  0  0  0
  157.6810  211.0200  155.3580 N   0  0  0  0  0  2  0  0  0  0  0  0
  158.1230  211.1560  152.6900 O   0  0  0  0  0  0  0  0  0  0  0  0
  158.0040  212.2390  153.2450 C   0  0  0  0  0  0  0  0  0  0  0  0
  158.0170  213.4910  152.4280 C   0  0  0  0  0  2  0  0  0  0  0  0
  158.7660  213.2860  151.2640 O   0  0  0  0  0  0  0  0  0  0  0  0
  158.6190  214.4530  150.5030 C   0  0  0  0  0  2  0  0  0  0  0  0
  159.3930  214.3390  149.1890 C   0  0  1  0  0  3  0  0  0  0  0  0
  160.7570  212.4690  148.5530 O   0  0  0  0  0  1  0  0  0  0  0  0
  160.7040  213.5840  149.3940 C   0  0  0  0  0  3  0  0  0  0  0  0
  161.7840  214.4200  149.1080 O   0  0  0  0  0  1  0  0  0  0  0  0
  158.5400  213.7070  148.0910 C   0  0  0  0  0  2  0  0  0  0  0  0
  159.0710  213.9730  146.8220 O   0  0  0  0  0  0  0  0  0  0  0  0
  158.4260  213.5390  144.5370 C   0  0  0  0  0  2  0  0  0  0  0  0
  158.5140  213.0190  145.9540 C   0  0  1  0  0  0  0  0  0  0  0  0
  159.3860  212.4040  144.8630 C   0  0  2  0  0  3  0  0  0  0  0  0
  157.2340  212.3060  146.3660 C   0  0  0  0  0  1  0  0  0  0  0  0
  160.8050  212.9480  144.8820 C   0  0  0  0  0  2  0  0  0  0  0  0
  161.2170  213.2110  143.5760 O   0  0  0  0  0  1  0  0  0  0  0  0
  161.1290  206.8370  149.9750 N   0  0  0  0  0  2  0  0  0  0  0  0
  161.4310  205.4030  150.0510 C   0  0  2  0  0  3  0  0  0  0  0  0
  163.2930  205.4880  148.0060 Cl  0  0  0  0  0  0  0  0  0  0  0  0
  161.3290  202.7150  147.6170 C   0  0  0  0  0  2  0  0  0  0  0  0
  160.7360  204.9950  147.7900 O   0  0  0  0  0  0  0  0  0  0  0  0
  160.7210  203.8790  147.0160 N   0  0  0  0  0  0  0  0  0  0  0  0
  160.5170  203.9640  145.6000 C   0  0  0  0  0  0  0  0  0  0  0  0
  161.9810  203.2760  148.8460 C   0  0  0  0  0  2  0  0  0  0  0  0
  161.7980  204.7840  148.6920 C   0  0  2  0  0  0  0  0  0  0  0  0
  160.5430  202.9150  144.8980 O   0  0  0  0  0  0  0  0  0  0  0  0
  161.2050  205.5860  143.8500 C   0  0  0  0  0  2  0  0  0  0  0  0
  160.2090  205.2810  144.9570 C   0  0  0  0  0  3  0  0  0  0  0  0
  161.3520  206.2500  145.1990 C   0  0  0  0  0  2  0  0  0  0  0  0
  160.9880  203.8600  151.8260 O   0  0  0  0  0  1  0  0  0  0  0  0
  160.3780  204.6130  150.8240 C   0  0  0  0  0  2  0  0  0  0  0  0
  1  4  2  0  0  0  0
  2 10  1  0  0  0  0
  3  1  1  0  0  0  0
  5  6  1  0  0  0  0
  5  2  2  0  0  0  0
  6  8  2  0  0  0  0
  7  4  1  0  0  0  0
  8  3  1  0  0  0  0
  9 12  1  1  0  0  0
  9  7  1  0  0  0  0
 10  3  2  0  0  0  0
 10  9  1  0  0  0  0
 11  5  1  0  0  0  0
 12 14  1  0  0  0  0
 14 15  1  0  0  0  0
 14 13  2  0  0  0  0
 16 15  1  1  0  0  0
 16 18  1  0  0  0  0
 18 17  1  0  0  0  0
 19 20  2  0  0  0  0
 20 16  1  0  0  0  0
 21 20  1  0  0  0  0
 22 21  1  0  0  0  0
 23 22  1  0  0  0  0
 24 28  1  6  0  0  0
 24 26  1  0  0  0  0
 24 23  1  0  0  0  0
 25 26  1  0  0  0  0
 27 26  1  0  0  0  0
 29 28  1  0  0  0  0
 30 32  1  0  0  0  0
 30 31  1  0  0  0  0
 31 33  1  1  0  0  0
 31 29  1  0  0  0  0
 32 34  1  1  0  0  0
 32 31  1  0  0  0  0
 35 34  1  0  0  0  0
 36 37  1  0  0  0  0
 36  6  1  0  0  0  0
 37 50  1  6  0  0  0
 39 43  1  0  0  0  0
 40 44  1  0  0  0  0
 41 39  1  0  0  0  0
 41 40  1  0  0  0  0
 42 41  1  0  0  0  0
 44 38  1  6  0  0  0
 44 43  1  0  0  0  0
 44 37  1  0  0  0  0
 45 42  2  0  0  0  0
 46 47  1  0  0  0  0
 46 48  1  0  0  0  0
 47 48  1  0  0  0  0
 47 42  1  0  0  0  0
 50 49  1  0  0  0  0
M  END
>  <MODEL>
3

>  <REMARK>
 VINA RESULT:      -3.6      3.243      8.130
  Name = 
  19 active torsions:
  status: ('A' for Active; 'I' for Inactive)
    1  A    between atoms: C_7  and  C_14
    2  A    between atoms: C_7  and  C_30
    3  A    between atoms: C_7  and  C_46
    4  A    between atoms: C_9  and  C_35
    5  A    between atoms: C_12  and  C_37
    6  A    between atoms: C_12  and  O_40
    7  A    between atoms: C_14  and  O_40
    8  A    between atoms: N_16  and  C_29
    9  A    between atoms: N_16  and  CA_45
   10  A    between atoms: C_19  and  C_24
   11  A    between atoms: C_19  and  C_50
   12  A    between atoms: C_20  and  C_21
   13  A    between atoms: C_22  and  O_25
   14  A    between atoms: C_24  and  C_37
   15  A    between atoms: C_24  and  N_48
   16  A    between atoms: O_25  and  C_30
   17  A    between atoms: N_26  and  C_34
   18  A    between atoms: C_28  and  CA_45
   19  A    between atoms: C_39  and  CA_45
                            x       y       z     vdW  Elec       q    Type
                         _______ _______ _______ _____ _____    ______ ____

>  <TORSDO>
F 19

$$$$
=
 OpenBabel11072410423D

 50 54  0  0  1  0  0  0  0  0999 V2000
  160.8710  208.4310  155.3730 C   0  0  0  0  0  3  0  0  0  0  0  0
  161.9270  210.5360  152.4460 C   0  0  0  0  0  3  0  0  0  0  0  0
  161.2390  208.8160  154.0050 C   0  0  0  0  0  0  0  0  0  0  0  0
  161.0630  209.2570  156.3600 N   0  0  0  0  0  0  0  0  0  0  0  0
  161.9830  209.5850  151.4220 C   0  0  0  0  0  0  0  0  0  0  0  0
  161.6400  208.2450  151.6790 C   0  0  0  0  0  0  0  0  0  0  0  0
  161.7390  210.5490  156.1860 C   0  0  0  0  0  2  0  0  0  0  0  0
  161.2750  207.8700  152.9810 C   0  0  0  0  0  3  0  0  0  0  0  0
  161.4050  211.1850  154.8300 C   0  0  1  0  0  3  0  0  0  0  0  0
  161.5540  210.1580  153.7390 C   0  0  0  0  0  0  0  0  0  0  0  0
  162.4740  210.0990  149.8180 Cl  0  0  0  0  0  0  0  0  0  0  0  0
  160.0380  211.6880  154.8590 N   0  0  0  0  0  2  0  0  0  0  0  0
  160.2140  212.6930  156.9630 O   0  0  0  0  0  0  0  0  0  0  0  0
  159.5210  212.4750  155.9330 C   0  0  0  0  0  0  0  0  0  0  0  0
  158.1580  213.0620  155.8180 C   0  0  0  0  0  2  0  0  0  0  0  0
  157.2340  212.1450  155.0220 C   0  0  2  0  0  3  0  0  0  0  0  0
  155.8880  210.3140  155.3840 O   0  0  0  0  0  1  0  0  0  0  0  0
  157.1320  210.8050  155.6090 N   0  0  0  0  0  2  0  0  0  0  0  0
  158.1020  211.0860  153.0840 O   0  0  0  0  0  0  0  0  0  0  0  0
  157.6260  212.0990  153.5740 C   0  0  0  0  0  0  0  0  0  0  0  0
  157.4700  213.3230  152.7300 C   0  0  0  0  0  2  0  0  0  0  0  0
  158.1280  213.1400  151.5090 O   0  0  0  0  0  0  0  0  0  0  0  0
  157.8260  214.2700  150.7390 C   0  0  0  0  0  2  0  0  0  0  0  0
  158.8460  214.4390  149.6100 C   0  0  1  0  0  3  0  0  0  0  0  0
  160.4130  212.8880  150.5570 O   0  0  0  0  0  1  0  0  0  0  0  0
  160.2660  214.2070  150.1210 C   0  0  0  0  0  3  0  0  0  0  0  0
  161.1840  214.4530  149.1000 O   0  0  0  0  0  1  0  0  0  0  0  0
  158.5160  213.5390  148.4210 C   0  0  0  0  0  2  0  0  0  0  0  0
  158.9660  214.1030  147.2200 O   0  0  0  0  0  0  0  0  0  0  0  0
  158.9630  213.7410  144.8340 C   0  0  0  0  0  2  0  0  0  0  0  0
  158.5340  213.2440  146.1960 C   0  0  1  0  0  0  0  0  0  0  0  0
  159.5710  212.4630  145.3930 C   0  0  2  0  0  3  0  0  0  0  0  0
  157.0860  212.7750  146.1870 C   0  0  0  0  0  1  0  0  0  0  0  0
  160.9920  212.7500  145.8480 C   0  0  0  0  0  2  0  0  0  0  0  0
  161.7100  213.3150  144.7960 O   0  0  0  0  0  1  0  0  0  0  0  0
  161.6960  207.2840  150.6120 N   0  0  0  0  0  2  0  0  0  0  0  0
  160.7260  206.2300  150.2970 C   0  0  2  0  0  3  0  0  0  0  0  0
  162.7290  204.8560  148.9700 Cl  0  0  0  0  0  0  0  0  0  0  0  0
  161.4920  202.8870  151.4780 C   0  0  0  0  0  2  0  0  0  0  0  0
  160.3860  203.9360  149.6740 O   0  0  0  0  0  0  0  0  0  0  0  0
  160.7050  202.7600  150.2730 N   0  0  0  0  0  0  0  0  0  0  0  0
  160.6400  201.5220  149.5540 C   0  0  0  0  0  0  0  0  0  0  0  0
  161.8650  204.3390  151.4820 C   0  0  0  0  0  2  0  0  0  0  0  0
  161.3660  204.8410  150.1300 C   0  0  2  0  0  0  0  0  0  0  0  0
  160.9760  200.4470  150.1230 O   0  0  0  0  0  0  0  0  0  0  0  0
  160.9630  200.5760  147.2800 C   0  0  0  0  0  2  0  0  0  0  0  0
  160.1140  201.4880  148.1520 C   0  0  0  0  0  3  0  0  0  0  0  0
  161.1440  202.0750  147.2030 C   0  0  0  0  0  2  0  0  0  0  0  0
  160.5060  206.8780  148.0030 O   0  0  0  0  0  1  0  0  0  0  0  0
  159.7780  206.6120  149.1620 C   0  0  0  0  0  2  0  0  0  0  0  0
  1  4  2  0  0  0  0
  2 10  1  0  0  0  0
  3  1  1  0  0  0  0
  5  6  1  0  0  0  0
  5  2  2  0  0  0  0
  6  8  2  0  0  0  0
  7  4  1  0  0  0  0
  8  3  1  0  0  0  0
  9 12  1  1  0  0  0
  9  7  1  0  0  0  0
 10  3  2  0  0  0  0
 10  9  1  0  0  0  0
 11  5  1  0  0  0  0
 12 14  1  0  0  0  0
 14 13  2  0  0  0  0
 15 14  1  0  0  0  0
 16 18  1  0  0  0  0
 16 15  1  1  0  0  0
 17 18  1  0  0  0  0
 19 20  2  0  0  0  0
 20 16  1  0  0  0  0
 21 20  1  0  0  0  0
 22 21  1  0  0  0  0
 23 22  1  0  0  0  0
 24 28  1  6  0  0  0
 24 26  1  0  0  0  0
 24 23  1  0  0  0  0
 26 25  1  0  0  0  0
 27 26  1  0  0  0  0
 29 28  1  0  0  0  0
 30 32  1  0  0  0  0
 30 31  1  0  0  0  0
 31 33  1  1  0  0  0
 31 29  1  0  0  0  0
 32 34  1  1  0  0  0
 32 31  1  0  0  0  0
 35 34  1  0  0  0  0
 36  6  1  0  0  0  0
 37 50  1  6  0  0  0
 37 36  1  0  0  0  0
 39 43  1  0  0  0  0
 40 44  1  0  0  0  0
 40 41  1  0  0  0  0
 41 39  1  0  0  0  0
 42 45  2  0  0  0  0
 42 41  1  0  0  0  0
 44 38  1  6  0  0  0
 44 37  1  0  0  0  0
 44 43  1  0  0  0  0
 46 47  1  0  0  0  0
 47 42  1  0  0  0  0
 48 46  1  0  0  0  0
 48 47  1  0  0  0  0
 49 50  1  0  0  0  0
M  END
>  <MODEL>
4

>  <REMARK>
 VINA RESULT:      -3.3      3.566      8.937
  Name = 
  19 active torsions:
  status: ('A' for Active; 'I' for Inactive)
    1  A    between atoms: C_7  and  C_14
    2  A    between atoms: C_7  and  C_30
    3  A    between atoms: C_7  and  C_46
    4  A    between atoms: C_9  and  C_35
    5  A    between atoms: C_12  and  C_37
    6  A    between atoms: C_12  and  O_40
    7  A    between atoms: C_14  and  O_40
    8  A    between atoms: N_16  and  C_29
    9  A    between atoms: N_16  and  CA_45
   10  A    between atoms: C_19  and  C_24
   11  A    between atoms: C_19  and  C_50
   12  A    between atoms: C_20  and  C_21
   13  A    between atoms: C_22  and  O_25
   14  A    between atoms: C_24  and  C_37
   15  A    between atoms: C_24  and  N_48
   16  A    between atoms: O_25  and  C_30
   17  A    between atoms: N_26  and  C_34
   18  A    between atoms: C_28  and  CA_45
   19  A    between atoms: C_39  and  CA_45
                            x       y       z     vdW  Elec       q    Type
                         _______ _______ _______ _____ _____    ______ ____

>  <TORSDO>
F 19

$$$$
=
 OpenBabel11072410423D

 50 54  0  0  1  0  0  0  0  0999 V2000
  161.2450  207.9430  148.3770 C   0  0  0  0  0  3  0  0  0  0  0  0
  162.3490  211.2960  149.6620 C   0  0  0  0  0  3  0  0  0  0  0  0
  161.5000  209.3880  148.4380 C   0  0  0  0  0  0  0  0  0  0  0  0
  161.7600  207.1500  149.2710 N   0  0  0  0  0  0  0  0  0  0  0  0
  162.0390  212.1280  148.5810 C   0  0  0  0  0  0  0  0  0  0  0  0
  161.4310  211.5950  147.4290 C   0  0  0  0  0  0  0  0  0  0  0  0
  162.6880  207.6230  150.3050 C   0  0  0  0  0  2  0  0  0  0  0  0
  161.1720  210.2180  147.3670 C   0  0  0  0  0  3  0  0  0  0  0  0
  162.3280  209.0350  150.7860 C   0  0  1  0  0  3  0  0  0  0  0  0
  162.0800  209.9270  149.5970 C   0  0  0  0  0  0  0  0  0  0  0  0
  162.4100  213.8390  148.6970 Cl  0  0  0  0  0  0  0  0  0  0  0  0
  161.1340  208.9690  151.6180 N   0  0  0  0  0  2  0  0  0  0  0  0
  162.1800  207.9150  153.4250 O   0  0  0  0  0  0  0  0  0  0  0  0
  161.1390  208.4410  152.9450 C   0  0  0  0  0  0  0  0  0  0  0  0
  159.9070  208.5370  153.7740 C   0  0  0  0  0  2  0  0  0  0  0  0
  160.2380  208.9950  155.1920 C   0  0  2  0  0  3  0  0  0  0  0  0
  160.7020  207.5210  156.8960 O   0  0  0  0  0  1  0  0  0  0  0  0
  159.6840  208.1010  156.2140 N   0  0  0  0  0  2  0  0  0  0  0  0
  160.5960  211.3400  155.1430 O   0  0  0  0  0  0  0  0  0  0  0  0
  159.8340  210.4230  155.4130 C   0  0  0  0  0  0  0  0  0  0  0  0
  158.4970  210.7270  156.0100 C   0  0  0  0  0  2  0  0  0  0  0  0
  157.6580  211.2720  155.0320 O   0  0  0  0  0  0  0  0  0  0  0  0
  157.6520  212.6540  155.2600 C   0  0  0  0  0  2  0  0  0  0  0  0
  156.2480  213.2270  155.0560 C   0  0  1  0  0  3  0  0  0  0  0  0
  154.6400  213.4350  156.8250 O   0  0  0  0  0  1  0  0  0  0  0  0
  155.7950  214.0080  156.2870 C   0  0  0  0  0  3  0  0  0  0  0  0
  156.8010  213.9970  157.2530 O   0  0  0  0  0  1  0  0  0  0  0  0
  156.1700  214.0720  153.7870 C   0  0  0  0  0  2  0  0  0  0  0  0
  157.4260  214.1840  153.1750 O   0  0  0  0  0  0  0  0  0  0  0  0
  158.1750  214.4470  150.8960 C   0  0  0  0  0  2  0  0  0  0  0  0
  157.2660  213.7180  151.8590 C   0  0  1  0  0  0  0  0  0  0  0  0
  158.4160  212.9730  151.1880 C   0  0  2  0  0  3  0  0  0  0  0  0
  155.8600  213.5720  151.2950 C   0  0  0  0  0  1  0  0  0  0  0  0
  159.6270  212.8400  152.0950 C   0  0  0  0  0  2  0  0  0  0  0  0
  160.0800  211.5220  152.0720 O   0  0  0  0  0  1  0  0  0  0  0  0
  161.1130  212.4660  146.3310 N   0  0  0  0  0  2  0  0  0  0  0  0
  160.0270  212.3260  145.3550 C   0  0  2  0  0  3  0  0  0  0  0  0
  159.4750  214.3160  143.5130 Cl  0  0  0  0  0  0  0  0  0  0  0  0
  162.2990  212.6470  142.5460 C   0  0  0  0  0  2  0  0  0  0  0  0
  160.1290  211.8370  143.0070 O   0  0  0  0  0  0  0  0  0  0  0  0
  161.1070  211.9800  142.0750 N   0  0  0  0  0  0  0  0  0  0  0  0
  160.8180  211.8730  140.6760 C   0  0  0  0  0  0  0  0  0  0  0  0
  161.8880  213.1530  143.8960 C   0  0  0  0  0  2  0  0  0  0  0  0
  160.3940  212.8460  143.9550 C   0  0  2  0  0  0  0  0  0  0  0  0
  161.7380  212.0450  139.8300 O   0  0  0  0  0  0  0  0  0  0  0  0
  159.4570  210.1220  139.5580 C   0  0  0  0  0  2  0  0  0  0  0  0
  159.4450  211.4930  140.2140 C   0  0  0  0  0  3  0  0  0  0  0  0
  159.4290  211.3660  138.7010 C   0  0  0  0  0  2  0  0  0  0  0  0
  158.8900  213.9680  146.6750 O   0  0  0  0  0  1  0  0  0  0  0  0
  158.6880  212.8450  145.8730 C   0  0  0  0  0  2  0  0  0  0  0  0
  1  3  1  0  0  0  0
  1  4  2  0  0  0  0
  3 10  2  0  0  0  0
  4  7  1  0  0  0  0
  5 11  1  0  0  0  0
  5  2  2  0  0  0  0
  6  5  1  0  0  0  0
  7  9  1  0  0  0  0
  8  6  2  0  0  0  0
  8  3  1  0  0  0  0
  9 12  1  1  0  0  0
 10  2  1  0  0  0  0
 10  9  1  0  0  0  0
 12 14  1  0  0  0  0
 14 13  2  0  0  0  0
 14 15  1  0  0  0  0
 16 15  1  6  0  0  0
 16 20  1  0  0  0  0
 16 18  1  0  0  0  0
 18 17  1  0  0  0  0
 19 20  2  0  0  0  0
 20 21  1  0  0  0  0
 22 23  1  0  0  0  0
 22 21  1  0  0  0  0
 24 28  1  6  0  0  0
 24 23  1  0  0  0  0
 24 26  1  0  0  0  0
 26 25  1  0  0  0  0
 26 27  1  0  0  0  0
 29 28  1  0  0  0  0
 30 32  1  0  0  0  0
 30 31  1  0  0  0  0
 31 33  1  6  0  0  0
 31 29  1  0  0  0  0
 32 31  1  0  0  0  0
 32 34  1  1  0  0  0
 35 34  1  0  0  0  0
 36  6  1  0  0  0  0
 37 50  1  1  0  0  0
 37 36  1  0  0  0  0
 39 43  1  0  0  0  0
 40 44  1  0  0  0  0
 41 39  1  0  0  0  0
 41 40  1  0  0  0  0
 42 41  1  0  0  0  0
 43 44  1  0  0  0  0
 44 38  1  6  0  0  0
 44 37  1  0  0  0  0
 45 42  2  0  0  0  0
 46 47  1  0  0  0  0
 47 42  1  0  0  0  0
 48 46  1  0  0  0  0
 48 47  1  0  0  0  0
 50 49  1  0  0  0  0
M  END
>  <MODEL>
5

>  <REMARK>
 VINA RESULT:      -2.9      3.332      6.566
  Name = 
  19 active torsions:
  status: ('A' for Active; 'I' for Inactive)
    1  A    between atoms: C_7  and  C_14
    2  A    between atoms: C_7  and  C_30
    3  A    between atoms: C_7  and  C_46
    4  A    between atoms: C_9  and  C_35
    5  A    between atoms: C_12  and  C_37
    6  A    between atoms: C_12  and  O_40
    7  A    between atoms: C_14  and  O_40
    8  A    between atoms: N_16  and  C_29
    9  A    between atoms: N_16  and  CA_45
   10  A    between atoms: C_19  and  C_24
   11  A    between atoms: C_19  and  C_50
   12  A    between atoms: C_20  and  C_21
   13  A    between atoms: C_22  and  O_25
   14  A    between atoms: C_24  and  C_37
   15  A    between atoms: C_24  and  N_48
   16  A    between atoms: O_25  and  C_30
   17  A    between atoms: N_26  and  C_34
   18  A    between atoms: C_28  and  CA_45
   19  A    between atoms: C_39  and  CA_45
                            x       y       z     vdW  Elec       q    Type
                         _______ _______ _______ _____ _____    ______ ____

>  <TORSDO>
F 19

$$$$
=
 OpenBabel11072410423D

 50 54  0  0  1  0  0  0  0  0999 V2000
  163.2560  213.3870  148.4400 C   0  0  0  0  0  3  0  0  0  0  0  0
  160.7690  210.8040  147.3160 C   0  0  0  0  0  3  0  0  0  0  0  0
  162.5550  212.1030  148.3090 C   0  0  0  0  0  0  0  0  0  0  0  0
  162.9930  214.3620  147.6200 N   0  0  0  0  0  0  0  0  0  0  0  0
  161.2160  209.6680  147.9990 C   0  0  0  0  0  0  0  0  0  0  0  0
  162.3220  209.7510  148.8650 C   0  0  0  0  0  0  0  0  0  0  0  0
  162.0830  214.2090  146.4780 C   0  0  0  0  0  2  0  0  0  0  0  0
  162.9900  210.9760  149.0060 C   0  0  0  0  0  3  0  0  0  0  0  0
  160.9130  213.2740  146.8080 C   0  0  1  0  0  3  0  0  0  0  0  0
  161.4330  212.0240  147.4690 C   0  0  0  0  0  0  0  0  0  0  0  0
  160.3630  208.1520  147.7650 Cl  0  0  0  0  0  0  0  0  0  0  0  0
  159.9860  213.9600  147.6990 N   0  0  0  0  0  2  0  0  0  0  0  0
  158.0960  212.7590  147.0230 O   0  0  0  0  0  0  0  0  0  0  0  0
  158.6020  213.6210  147.7910 C   0  0  0  0  0  0  0  0  0  0  0  0
  157.7560  214.2800  148.8250 C   0  0  0  0  0  2  0  0  0  0  0  0
  157.5180  213.3480  150.0100 C   0  0  2  0  0  3  0  0  0  0  0  0
  155.3040  213.9340  149.7910 O   0  0  0  0  0  1  0  0  0  0  0  0
  156.2600  213.6350  150.7050 N   0  0  0  0  0  2  0  0  0  0  0  0
  159.8370  213.3730  150.5170 O   0  0  0  0  0  0  0  0  0  0  0  0
  158.6920  213.3450  150.9450 C   0  0  0  0  0  0  0  0  0  0  0  0
  158.4590  213.2630  152.4200 C   0  0  0  0  0  2  0  0  0  0  0  0
  159.3160  212.3110  152.9810 O   0  0  0  0  0  0  0  0  0  0  0  0
  158.4920  211.4060  153.6590 C   0  0  0  0  0  2  0  0  0  0  0  0
  158.3630  211.7970  155.1330 C   0  0  1  0  0  3  0  0  0  0  0  0
  156.1030  212.4290  154.6340 O   0  0  0  0  0  1  0  0  0  0  0  0
  156.9020  211.7770  155.5760 C   0  0  0  0  0  3  0  0  0  0  0  0
  156.4640  210.4590  155.7090 O   0  0  0  0  0  1  0  0  0  0  0  0
  159.2380  210.9160  156.0230 C   0  0  0  0  0  2  0  0  0  0  0  0
  159.7460  209.8230  155.3090 O   0  0  0  0  0  0  0  0  0  0  0  0
  161.0420  209.1910  157.2440 C   0  0  0  0  0  2  0  0  0  0  0  0
  161.0490  209.6090  155.7910 C   0  0  1  0  0  0  0  0  0  0  0  0
  161.4780  208.1960  156.1780 C   0  0  2  0  0  3  0  0  0  0  0  0
  162.1170  210.6580  155.5180 C   0  0  0  0  0  1  0  0  0  0  0  0
  160.3690  207.1780  155.9710 C   0  0  0  0  0  2  0  0  0  0  0  0
  159.6780  206.9960  157.1680 O   0  0  0  0  0  1  0  0  0  0  0  0
  162.7610  208.5750  149.5640 N   0  0  0  0  0  2  0  0  0  0  0  0
  162.2780  208.0560  150.8490 C   0  0  2  0  0  3  0  0  0  0  0  0
  163.8590  205.8260  151.2740 Cl  0  0  0  0  0  0  0  0  0  0  0  0
  160.5680  204.8980  151.3580 C   0  0  0  0  0  2  0  0  0  0  0  0
  161.7970  206.0160  149.6800 O   0  0  0  0  0  0  0  0  0  0  0  0
  161.0760  204.9120  150.0060 N   0  0  0  0  0  0  0  0  0  0  0  0
  161.1790  203.7070  149.2370 C   0  0  0  0  0  0  0  0  0  0  0  0
  161.2600  206.0700  151.9870 C   0  0  0  0  0  2  0  0  0  0  0  0
  162.2500  206.5200  150.9150 C   0  0  2  0  0  0  0  0  0  0  0  0
  160.5250  202.6850  149.5820 O   0  0  0  0  0  0  0  0  0  0  0  0
  161.4070  204.5720  146.9200 C   0  0  0  0  0  2  0  0  0  0  0  0
  162.0070  203.6740  147.9890 C   0  0  0  0  0  3  0  0  0  0  0  0
  161.1970  203.0770  146.8520 C   0  0  0  0  0  2  0  0  0  0  0  0
  161.1820  209.3690  152.5240 O   0  0  0  0  0  1  0  0  0  0  0  0
  160.9800  208.7170  151.3080 C   0  0  0  0  0  2  0  0  0  0  0  0
  2 10  2  0  0  0  0
  2  5  1  0  0  0  0
  3  1  1  0  0  0  0
  3  8  2  0  0  0  0
  4  1  2  0  0  0  0
  5  6  2  0  0  0  0
  6  8  1  0  0  0  0
  6 36  1  0  0  0  0
  7  9  1  0  0  0  0
  7  4  1  0  0  0  0
  9 10  1  0  0  0  0
  9 12  1  1  0  0  0
 10  3  1  0  0  0  0
 11  5  1  0  0  0  0
 12 14  1  0  0  0  0
 13 14  2  0  0  0  0
 14 15  1  0  0  0  0
 16 15  1  6  0  0  0
 16 18  1  0  0  0  0
 16 20  1  0  0  0  0
 17 18  1  0  0  0  0
 19 20  2  0  0  0  0
 20 21  1  0  0  0  0
 21 22  1  0  0  0  0
 22 23  1  0  0  0  0
 24 23  1  6  0  0  0
 24 26  1  0  0  0  0
 24 28  1  0  0  0  0
 25 26  1  0  0  0  0
 26 27  1  0  0  0  0
 29 31  1  0  0  0  0
 29 28  1  0  0  0  0
 31 33  1  6  0  0  0
 31 32  1  0  0  0  0
 31 30  1  0  0  0  0
 32 34  1  6  0  0  0
 32 30  1  0  0  0  0
 34 35  1  0  0  0  0
 36 37  1  0  0  0  0
 37 44  1  0  0  0  0
 37 50  1  6  0  0  0
 39 43  1  0  0  0  0
 40 41  1  0  0  0  0
 40 44  1  0  0  0  0
 41 39  1  0  0  0  0
 42 45  2  0  0  0  0
 42 41  1  0  0  0  0
 44 38  1  1  0  0  0
 44 43  1  0  0  0  0
 46 47  1  0  0  0  0
 47 42  1  0  0  0  0
 48 46  1  0  0  0  0
 48 47  1  0  0  0  0
 50 49  1  0  0  0  0
M  END
>  <MODEL>
6

>  <REMARK>
 VINA RESULT:      -2.0      3.405      9.036
  Name = 
  19 active torsions:
  status: ('A' for Active; 'I' for Inactive)
    1  A    between atoms: C_7  and  C_14
    2  A    between atoms: C_7  and  C_30
    3  A    between atoms: C_7  and  C_46
    4  A    between atoms: C_9  and  C_35
    5  A    between atoms: C_12  and  C_37
    6  A    between atoms: C_12  and  O_40
    7  A    between atoms: C_14  and  O_40
    8  A    between atoms: N_16  and  C_29
    9  A    between atoms: N_16  and  CA_45
   10  A    between atoms: C_19  and  C_24
   11  A    between atoms: C_19  and  C_50
   12  A    between atoms: C_20  and  C_21
   13  A    between atoms: C_22  and  O_25
   14  A    between atoms: C_24  and  C_37
   15  A    between atoms: C_24  and  N_48
   16  A    between atoms: O_25  and  C_30
   17  A    between atoms: N_26  and  C_34
   18  A    between atoms: C_28  and  CA_45
   19  A    between atoms: C_39  and  CA_45
                            x       y       z     vdW  Elec       q    Type
                         _______ _______ _______ _____ _____    ______ ____

>  <TORSDO>
F 19

$$$$
=
 OpenBabel11072410423D

 50 54  0  0  1  0  0  0  0  0999 V2000
  161.0820  207.8710  147.7120 C   0  0  0  0  0  3  0  0  0  0  0  0
  162.3790  211.0460  149.2450 C   0  0  0  0  0  3  0  0  0  0  0  0
  161.3380  209.3000  147.9300 C   0  0  0  0  0  0  0  0  0  0  0  0
  161.7470  206.9770  148.3850 N   0  0  0  0  0  0  0  0  0  0  0  0
  161.8820  212.0090  148.3590 C   0  0  0  0  0  0  0  0  0  0  0  0
  161.0850  211.6220  147.2670 C   0  0  0  0  0  0  0  0  0  0  0  0
  162.8390  207.3310  149.3000 C   0  0  0  0  0  2  0  0  0  0  0  0
  160.8250  210.2590  147.0570 C   0  0  0  0  0  3  0  0  0  0  0  0
  162.5630  208.6530  150.0280 C   0  0  1  0  0  3  0  0  0  0  0  0
  162.1080  209.6910  149.0360 C   0  0  0  0  0  0  0  0  0  0  0  0
  162.2610  213.6980  148.6480 Cl  0  0  0  0  0  0  0  0  0  0  0  0
  161.5320  208.4400  151.0350 N   0  0  0  0  0  2  0  0  0  0  0  0
  162.5670  206.5920  152.0270 O   0  0  0  0  0  0  0  0  0  0  0  0
  161.6190  207.4230  152.0340 C   0  0  0  0  0  0  0  0  0  0  0  0
  160.5880  207.3630  153.1070 C   0  0  0  0  0  2  0  0  0  0  0  0
  161.2230  207.5450  154.4830 C   0  0  2  0  0  3  0  0  0  0  0  0
  159.2550  207.5120  155.6750 O   0  0  0  0  0  1  0  0  0  0  0  0
  160.4540  206.8920  155.5470 N   0  0  0  0  0  2  0  0  0  0  0  0
  161.8750  209.7530  153.9070 O   0  0  0  0  0  0  0  0  0  0  0  0
  161.4770  208.9940  154.7790 C   0  0  0  0  0  0  0  0  0  0  0  0
  161.2800  209.5080  156.1700 C   0  0  0  0  0  2  0  0  0  0  0  0
  160.2580  210.4630  156.1790 O   0  0  0  0  0  0  0  0  0  0  0  0
  160.7640  211.5720  155.4900 C   0  0  0  0  0  2  0  0  0  0  0  0
  159.6610  212.2450  154.6710 C   0  0  1  0  0  3  0  0  0  0  0  0
  158.7570  211.1470  152.7380 O   0  0  0  0  0  1  0  0  0  0  0  0
  159.8200  211.9350  153.1850 C   0  0  0  0  0  3  0  0  0  0  0  0
  159.8460  213.1210  152.4520 O   0  0  0  0  0  1  0  0  0  0  0  0
  158.2730  211.8650  155.1840 C   0  0  0  0  0  2  0  0  0  0  0  0
  157.3990  212.9590  155.1380 O   0  0  0  0  0  0  0  0  0  0  0  0
  156.1820  214.4530  156.5900 C   0  0  0  0  0  2  0  0  0  0  0  0
  157.2860  213.4290  156.4570 C   0  0  1  0  0  0  0  0  0  0  0  0
  156.0320  213.0950  157.2610 C   0  0  2  0  0  3  0  0  0  0  0  0
  158.5430  213.8650  157.1950 C   0  0  0  0  0  1  0  0  0  0  0  0
  155.0410  212.2600  156.4680 C   0  0  0  0  0  2  0  0  0  0  0  0
  154.6290  211.1740  157.2390 O   0  0  0  0  0  1  0  0  0  0  0  0
  160.5780  212.6260  146.3720 N   0  0  0  0  0  2  0  0  0  0  0  0
  159.5680  212.4680  145.3200 C   0  0  2  0  0  3  0  0  0  0  0  0
  158.8110  213.6570  142.9380 Cl  0  0  0  0  0  0  0  0  0  0  0  0
  162.2140  213.3240  142.9920 C   0  0  0  0  0  2  0  0  0  0  0  0
  160.5170  211.7030  143.2520 O   0  0  0  0  0  0  0  0  0  0  0  0
  161.5760  212.1210  142.5110 N   0  0  0  0  0  0  0  0  0  0  0  0
  161.7630  211.6670  141.1650 C   0  0  0  0  0  0  0  0  0  0  0  0
  161.2710  213.8010  144.0550 C   0  0  0  0  0  2  0  0  0  0  0  0
  160.0760  212.8610  143.9220 C   0  0  2  0  0  0  0  0  0  0  0  0
  162.7350  212.0980  140.4860 O   0  0  0  0  0  0  0  0  0  0  0  0
  160.7370  210.8020  139.0740 C   0  0  0  0  0  2  0  0  0  0  0  0
  160.8490  210.6340  140.5810 C   0  0  0  0  0  3  0  0  0  0  0  0
  159.6320  211.3090  139.9720 C   0  0  0  0  0  2  0  0  0  0  0  0
  157.6810  212.4410  146.7930 O   0  0  0  0  0  1  0  0  0  0  0  0
  158.2230  213.0920  145.6850 C   0  0  0  0  0  2  0  0  0  0  0  0
  1  3  1  0  0  0  0
  1  4  2  0  0  0  0
  3 10  2  0  0  0  0
  4  7  1  0  0  0  0
  5 11  1  0  0  0  0
  5  2  2  0  0  0  0
  6  5  1  0  0  0  0
  7  9  1  0  0  0  0
  8  6  2  0  0  0  0
  8  3  1  0  0  0  0
  9 12  1  1  0  0  0
 10  2  1  0  0  0  0
 10  9  1  0  0  0  0
 12 14  1  0  0  0  0
 13 14  2  0  0  0  0
 14 15  1  0  0  0  0
 16 15  1  6  0  0  0
 16 20  1  0  0  0  0
 16 18  1  0  0  0  0
 18 17  1  0  0  0  0
 19 20  2  0  0  0  0
 20 21  1  0  0  0  0
 21 22  1  0  0  0  0
 23 22  1  0  0  0  0
 24 28  1  1  0  0  0
 24 23  1  0  0  0  0
 25 26  1  0  0  0  0
 26 24  1  0  0  0  0
 27 26  1  0  0  0  0
 29 28  1  0  0  0  0
 29 31  1  0  0  0  0
 30 32  1  0  0  0  0
 31 30  1  0  0  0  0
 31 33  1  1  0  0  0
 31 32  1  0  0  0  0
 32 34  1  6  0  0  0
 34 35  1  0  0  0  0
 36  6  1  0  0  0  0
 37 50  1  1  0  0  0
 37 36  1  0  0  0  0
 39 43  1  0  0  0  0
 40 44  1  0  0  0  0
 41 39  1  0  0  0  0
 41 40  1  0  0  0  0
 42 41  1  0  0  0  0
 44 38  1  6  0  0  0
 44 43  1  0  0  0  0
 44 37  1  0  0  0  0
 45 42  2  0  0  0  0
 46 48  1  0  0  0  0
 46 47  1  0  0  0  0
 47 42  1  0  0  0  0
 48 47  1  0  0  0  0
 50 49  1  0  0  0  0
M  END
>  <MODEL>
7

>  <REMARK>
 VINA RESULT:      -1.8      3.045      6.769
  Name = 
  19 active torsions:
  status: ('A' for Active; 'I' for Inactive)
    1  A    between atoms: C_7  and  C_14
    2  A    between atoms: C_7  and  C_30
    3  A    between atoms: C_7  and  C_46
    4  A    between atoms: C_9  and  C_35
    5  A    between atoms: C_12  and  C_37
    6  A    between atoms: C_12  and  O_40
    7  A    between atoms: C_14  and  O_40
    8  A    between atoms: N_16  and  C_29
    9  A    between atoms: N_16  and  CA_45
   10  A    between atoms: C_19  and  C_24
   11  A    between atoms: C_19  and  C_50
   12  A    between atoms: C_20  and  C_21
   13  A    between atoms: C_22  and  O_25
   14  A    between atoms: C_24  and  C_37
   15  A    between atoms: C_24  and  N_48
   16  A    between atoms: O_25  and  C_30
   17  A    between atoms: N_26  and  C_34
   18  A    between atoms: C_28  and  CA_45
   19  A    between atoms: C_39  and  CA_45
                            x       y       z     vdW  Elec       q    Type
                         _______ _______ _______ _____ _____    ______ ____

>  <TORSDO>
F 19

$$$$
=
 OpenBabel11072410423D

 50 54  0  0  1  0  0  0  0  0999 V2000
  160.9990  207.9260  147.3230 C   0  0  0  0  0  3  0  0  0  0  0  0
  162.2300  210.9240  149.2240 C   0  0  0  0  0  3  0  0  0  0  0  0
  161.2160  209.3240  147.7150 C   0  0  0  0  0  0  0  0  0  0  0  0
  161.7040  206.9770  147.8660 N   0  0  0  0  0  0  0  0  0  0  0  0
  161.6880  211.9740  148.4760 C   0  0  0  0  0  0  0  0  0  0  0  0
  160.8810  211.7020  147.3550 C   0  0  0  0  0  0  0  0  0  0  0  0
  162.8030  207.2480  148.8020 C   0  0  0  0  0  2  0  0  0  0  0  0
  160.6590  210.3690  146.9790 C   0  0  0  0  0  3  0  0  0  0  0  0
  162.5010  208.4580  149.6960 C   0  0  1  0  0  3  0  0  0  0  0  0
  161.9960  209.5980  148.8500 C   0  0  0  0  0  0  0  0  0  0  0  0
  162.0210  213.6240  148.9700 Cl  0  0  0  0  0  0  0  0  0  0  0  0
  161.4960  208.0870  150.6840 N   0  0  0  0  0  2  0  0  0  0  0  0
  162.8540  206.5580  151.8180 O   0  0  0  0  0  0  0  0  0  0  0  0
  161.7530  207.1680  151.7460 C   0  0  0  0  0  0  0  0  0  0  0  0
  160.7140  206.9490  152.7900 C   0  0  0  0  0  2  0  0  0  0  0  0
  161.2330  207.3520  154.1680 C   0  0  2  0  0  3  0  0  0  0  0  0
  159.7010  206.9110  155.8270 O   0  0  0  0  0  1  0  0  0  0  0  0
  160.8110  206.4230  155.2200 N   0  0  0  0  0  2  0  0  0  0  0  0
  160.6900  209.5930  153.6040 O   0  0  0  0  0  0  0  0  0  0  0  0
  160.8730  208.7730  154.4920 C   0  0  0  0  0  0  0  0  0  0  0  0
  160.7770  209.2010  155.9220 C   0  0  0  0  0  2  0  0  0  0  0  0
  159.4560  209.5470  156.2220 O   0  0  0  0  0  0  0  0  0  0  0  0
  159.5340  210.5440  157.2010 C   0  0  0  0  0  2  0  0  0  0  0  0
  158.8760  211.8350  156.7080 C   0  0  1  0  0  3  0  0  0  0  0  0
  159.9680  213.9690  156.8190 O   0  0  0  0  0  1  0  0  0  0  0  0
  159.9130  212.7750  156.0970 C   0  0  0  0  0  3  0  0  0  0  0  0
  161.1710  212.1730  156.1190 O   0  0  0  0  0  1  0  0  0  0  0  0
  157.7340  211.5430  155.7380 C   0  0  0  0  0  2  0  0  0  0  0  0
  158.0400  211.9930  154.4460 O   0  0  0  0  0  0  0  0  0  0  0  0
  157.2860  214.2840  154.3750 C   0  0  0  0  0  2  0  0  0  0  0  0
  156.9840  212.8360  154.0620 C   0  0  1  0  0  0  0  0  0  0  0  0
  157.2000  213.8300  152.9250 C   0  0  2  0  0  3  0  0  0  0  0  0
  155.5620  212.4650  154.4590 C   0  0  0  0  0  1  0  0  0  0  0  0
  158.6040  213.7530  152.3480 C   0  0  0  0  0  2  0  0  0  0  0  0
  158.5320  213.4060  151.0000 O   0  0  0  0  0  1  0  0  0  0  0  0
  160.3270  212.7940  146.6030 N   0  0  0  0  0  2  0  0  0  0  0  0
  159.4000  212.7260  145.4670 C   0  0  2  0  0  3  0  0  0  0  0  0
  158.6770  214.0750  143.1610 Cl  0  0  0  0  0  0  0  0  0  0  0  0
  162.0710  214.2540  143.5450 C   0  0  0  0  0  2  0  0  0  0  0  0
  160.6430  212.3760  143.4430 O   0  0  0  0  0  0  0  0  0  0  0  0
  161.6820  213.0380  142.8710 N   0  0  0  0  0  0  0  0  0  0  0  0
  162.0600  212.7870  141.5120 C   0  0  0  0  0  0  0  0  0  0  0  0
  160.9710  214.4480  144.5460 C   0  0  0  0  0  2  0  0  0  0  0  0
  159.9610  213.3620  144.1840 C   0  0  2  0  0  0  0  0  0  0  0  0
  163.0060  213.4410  140.9930 O   0  0  0  0  0  0  0  0  0  0  0  0
  160.5640  212.3030  139.5890 C   0  0  0  0  0  2  0  0  0  0  0  0
  161.3820  211.7090  140.7240 C   0  0  0  0  0  3  0  0  0  0  0  0
  159.8750  211.8480  140.8540 C   0  0  0  0  0  2  0  0  0  0  0  0
  157.1740  212.0900  146.0750 O   0  0  0  0  0  1  0  0  0  0  0  0
  157.9900  213.1920  145.8200 C   0  0  0  0  0  2  0  0  0  0  0  0
  1  3  1  0  0  0  0
  1  4  2  0  0  0  0
  3 10  2  0  0  0  0
  4  7  1  0  0  0  0
  5 11  1  0  0  0  0
  5  2  2  0  0  0  0
  6  5  1  0  0  0  0
  7  9  1  0  0  0  0
  8  6  2  0  0  0  0
  8  3  1  0  0  0  0
  9 12  1  1  0  0  0
 10  2  1  0  0  0  0
 10  9  1  0  0  0  0
 12 14  1  0  0  0  0
 14 13  2  0  0  0  0
 14 15  1  0  0  0  0
 16 15  1  6  0  0  0
 16 20  1  0  0  0  0
 16 18  1  0  0  0  0
 18 17  1  0  0  0  0
 19 20  2  0  0  0  0
 20 21  1  0  0  0  0
 21 22  1  0  0  0  0
 22 23  1  0  0  0  0
 24 28  1  6  0  0  0
 24 23  1  0  0  0  0
 26 27  1  0  0  0  0
 26 24  1  0  0  0  0
 26 25  1  0  0  0  0
 29 28  1  0  0  0  0
 31 30  1  0  0  0  0
 31 29  1  0  0  0  0
 31 33  1  1  0  0  0
 32 34  1  1  0  0  0
 32 31  1  0  0  0  0
 32 30  1  0  0  0  0
 35 34  1  0  0  0  0
 36  6  1  0  0  0  0
 37 50  1  1  0  0  0
 37 36  1  0  0  0  0
 39 43  1  0  0  0  0
 40 44  1  0  0  0  0
 41 40  1  0  0  0  0
 41 39  1  0  0  0  0
 42 41  1  0  0  0  0
 44 38  1  6  0  0  0
 44 43  1  0  0  0  0
 44 37  1  0  0  0  0
 45 42  2  0  0  0  0
 46 47  1  0  0  0  0
 46 48  1  0  0  0  0
 47 48  1  0  0  0  0
 47 42  1  0  0  0  0
 50 49  1  0  0  0  0
M  END
>  <MODEL>
8

>  <REMARK>
 VINA RESULT:      -1.5      2.818      6.374
  Name = 
  19 active torsions:
  status: ('A' for Active; 'I' for Inactive)
    1  A    between atoms: C_7  and  C_14
    2  A    between atoms: C_7  and  C_30
    3  A    between atoms: C_7  and  C_46
    4  A    between atoms: C_9  and  C_35
    5  A    between atoms: C_12  and  C_37
    6  A    between atoms: C_12  and  O_40
    7  A    between atoms: C_14  and  O_40
    8  A    between atoms: N_16  and  C_29
    9  A    between atoms: N_16  and  CA_45
   10  A    between atoms: C_19  and  C_24
   11  A    between atoms: C_19  and  C_50
   12  A    between atoms: C_20  and  C_21
   13  A    between atoms: C_22  and  O_25
   14  A    between atoms: C_24  and  C_37
   15  A    between atoms: C_24  and  N_48
   16  A    between atoms: O_25  and  C_30
   17  A    between atoms: N_26  and  C_34
   18  A    between atoms: C_28  and  CA_45
   19  A    between atoms: C_39  and  CA_45
                            x       y       z     vdW  Elec       q    Type
                         _______ _______ _______ _____ _____    ______ ____

>  <TORSDO>
F 19

$$$$
=
 OpenBabel11072410423D

 50 54  0  0  1  0  0  0  0  0999 V2000
  161.7890  208.7970  147.6560 C   0  0  0  0  0  3  0  0  0  0  0  0
  161.7360  211.8730  149.8120 C   0  0  0  0  0  3  0  0  0  0  0  0
  161.5480  210.1770  148.0940 C   0  0  0  0  0  0  0  0  0  0  0  0
  162.5570  208.0130  148.3550 N   0  0  0  0  0  0  0  0  0  0  0  0
  161.1440  212.8070  148.9560 C   0  0  0  0  0  0  0  0  0  0  0  0
  160.7240  212.4220  147.6690 C   0  0  0  0  0  0  0  0  0  0  0  0
  163.2950  208.4810  149.5350 C   0  0  0  0  0  2  0  0  0  0  0  0
  160.9390  211.1010  147.2460 C   0  0  0  0  0  3  0  0  0  0  0  0
  162.4950  209.5210  150.3290 C   0  0  1  0  0  3  0  0  0  0  0  0
  161.9390  210.5570  149.3880 C   0  0  0  0  0  0  0  0  0  0  0  0
  160.9250  214.4530  149.5210 Cl  0  0  0  0  0  0  0  0  0  0  0  0
  161.4090  208.8550  151.0360 N   0  0  0  0  0  2  0  0  0  0  0  0
  162.7000  207.0510  151.7780 O   0  0  0  0  0  0  0  0  0  0  0  0
  161.5900  207.6490  151.7800 C   0  0  0  0  0  0  0  0  0  0  0  0
  160.4580  207.1100  152.5840 C   0  0  0  0  0  2  0  0  0  0  0  0
  160.7010  205.6500  152.9560 C   0  0  2  0  0  3  0  0  0  0  0  0
  161.3750  206.5460  154.9640 O   0  0  0  0  0  1  0  0  0  0  0  0
  161.5810  205.5060  154.1190 N   0  0  0  0  0  2  0  0  0  0  0  0
  162.0710  204.0230  151.9020 O   0  0  0  0  0  0  0  0  0  0  0  0
  161.1890  204.8600  151.7770 C   0  0  0  0  0  0  0  0  0  0  0  0
  160.6180  205.1310  150.4210 C   0  0  0  0  0  2  0  0  0  0  0  0
  161.3730  204.4640  149.4500 O   0  0  0  0  0  0  0  0  0  0  0  0
  161.3770  205.3000  148.3270 C   0  0  0  0  0  2  0  0  0  0  0  0
  160.9940  204.5150  147.0710 C   0  0  1  0  0  3  0  0  0  0  0  0
  161.9920  204.4250  144.8910 O   0  0  0  0  0  1  0  0  0  0  0  0
  161.3840  205.2820  145.8100 C   0  0  0  0  0  3  0  0  0  0  0  0
  160.2490  205.8440  145.2260 O   0  0  0  0  0  1  0  0  0  0  0  0
  161.5900  203.1100  147.0870 C   0  0  0  0  0  2  0  0  0  0  0  0
  160.6170  202.1440  146.7980 O   0  0  0  0  0  0  0  0  0  0  0  0
  162.0810  201.1820  148.4570 C   0  0  0  0  0  2  0  0  0  0  0  0
  161.0840  200.9380  147.3480 C   0  0  1  0  0  0  0  0  0  0  0  0
  160.7200  200.5860  148.7880 C   0  0  2  0  0  3  0  0  0  0  0  0
  161.5500  199.8320  146.4120 C   0  0  0  0  0  1  0  0  0  0  0  0
  159.8610  201.6530  149.4450 C   0  0  0  0  0  2  0  0  0  0  0  0
  160.0940  201.6540  150.8200 O   0  0  0  0  0  1  0  0  0  0  0  0
  160.1110  213.3930  146.8050 N   0  0  0  0  0  2  0  0  0  0  0  0
  159.2210  213.1500  145.6640 C   0  0  2  0  0  3  0  0  0  0  0  0
  158.7320  214.3280  143.2080 Cl  0  0  0  0  0  0  0  0  0  0  0  0
  162.0950  213.8070  143.5510 C   0  0  0  0  0  2  0  0  0  0  0  0
  160.2930  212.2890  143.6960 O   0  0  0  0  0  0  0  0  0  0  0  0
  161.4310  212.6310  143.0390 N   0  0  0  0  0  0  0  0  0  0  0  0
  161.7010  212.1380  141.7210 C   0  0  0  0  0  0  0  0  0  0  0  0
  161.0970  214.3590  144.5240 C   0  0  0  0  0  2  0  0  0  0  0  0
  159.8640  213.4840  144.3080 C   0  0  2  0  0  0  0  0  0  0  0  0
  162.7490  212.5000  141.1180 O   0  0  0  0  0  0  0  0  0  0  0  0
  161.5710  210.0500  140.3840 C   0  0  0  0  0  2  0  0  0  0  0  0
  160.7810  211.1450  141.0810 C   0  0  0  0  0  3  0  0  0  0  0  0
  160.9650  211.1730  139.5740 C   0  0  0  0  0  2  0  0  0  0  0  0
  156.8940  212.7380  146.0420 O   0  0  0  0  0  1  0  0  0  0  0  0
  157.8310  213.7530  145.8530 C   0  0  0  0  0  2  0  0  0  0  0  0
  1  3  1  0  0  0  0
  1  4  2  0  0  0  0
  3 10  2  0  0  0  0
  4  7  1  0  0  0  0
  5 11  1  0  0  0  0
  5  2  2  0  0  0  0
  6  5  1  0  0  0  0
  7  9  1  0  0  0  0
  8  6  2  0  0  0  0
  8  3  1  0  0  0  0
  9 12  1  6  0  0  0
 10  2  1  0  0  0  0
 10  9  1  0  0  0  0
 12 14  1  0  0  0  0
 13 14  2  0  0  0  0
 14 15  1  0  0  0  0
 16 15  1  6  0  0  0
 16 18  1  0  0  0  0
 18 17  1  0  0  0  0
 20 19  2  0  0  0  0
 20 16  1  0  0  0  0
 21 20  1  0  0  0  0
 22 21  1  0  0  0  0
 23 22  1  0  0  0  0
 24 28  1  1  0  0  0
 24 23  1  0  0  0  0
 25 26  1  0  0  0  0
 26 24  1  0  0  0  0
 27 26  1  0  0  0  0
 29 28  1  0  0  0  0
 29 31  1  0  0  0  0
 30 32  1  0  0  0  0
 31 33  1  6  0  0  0
 31 30  1  0  0  0  0
 31 32  1  0  0  0  0
 32 34  1  1  0  0  0
 34 35  1  0  0  0  0
 36  6  1  0  0  0  0
 37 50  1  1  0  0  0
 37 36  1  0  0  0  0
 39 43  1  0  0  0  0
 40 44  1  0  0  0  0
 41 39  1  0  0  0  0
 41 40  1  0  0  0  0
 42 41  1  0  0  0  0
 44 38  1  6  0  0  0
 44 43  1  0  0  0  0
 44 37  1  0  0  0  0
 45 42  2  0  0  0  0
 46 47  1  0  0  0  0
 47 42  1  0  0  0  0
 48 46  1  0  0  0  0
 48 47  1  0  0  0  0
 50 49  1  0  0  0  0
M  END
>  <MODEL>
9

>  <REMARK>
 VINA RESULT:      -1.5      1.338      2.707
  Name = 
  19 active torsions:
  status: ('A' for Active; 'I' for Inactive)
    1  A    between atoms: C_7  and  C_14
    2  A    between atoms: C_7  and  C_30
    3  A    between atoms: C_7  and  C_46
    4  A    between atoms: C_9  and  C_35
    5  A    between atoms: C_12  and  C_37
    6  A    between atoms: C_12  and  O_40
    7  A    between atoms: C_14  and  O_40
    8  A    between atoms: N_16  and  C_29
    9  A    between atoms: N_16  and  CA_45
   10  A    between atoms: C_19  and  C_24
   11  A    between atoms: C_19  and  C_50
   12  A    between atoms: C_20  and  C_21
   13  A    between atoms: C_22  and  O_25
   14  A    between atoms: C_24  and  C_37
   15  A    between atoms: C_24  and  N_48
   16  A    between atoms: O_25  and  C_30
   17  A    between atoms: N_26  and  C_34
   18  A    between atoms: C_28  and  CA_45
   19  A    between atoms: C_39  and  CA_45
                            x       y       z     vdW  Elec       q    Type
                         _______ _______ _______ _____ _____    ______ ____

>  <TORSDO>
F 19

$$$$
