=
 OpenBabel11072411243D

 42 50  0  0  1  0  0  0  0  0999 V2000
  158.4200  211.1930  154.1410 C   0  0  2  0  0  0  0  0  0  0  0  0
  162.3080  208.8030  155.2110 O   0  0  0  0  0  0  0  0  0  0  0  0
  157.8630  210.1820  153.1410 C   0  0  0  0  0  1  0  0  0  0  0  0
  162.3680  209.1280  151.6420 C   0  0  0  0  0  3  0  0  0  0  0  0
  160.3880  211.9720  150.7140 C   0  0  0  0  0  0  0  0  0  0  0  0
  159.0630  210.4020  155.3060 C   0  0  2  0  0  3  0  0  0  0  0  0
  157.7190  213.2230  155.3310 O   0  0  0  0  0  0  0  0  0  0  0  0
  160.7670  211.3780  153.0490 C   0  0  0  0  0  0  0  0  0  0  0  0
  156.2640  211.3130  155.5690 C   0  0  2  0  0  3  0  0  0  0  0  0
  155.4510  213.6010  156.0700 C   0  0  0  0  0  0  0  0  0  0  0  0
  156.6540  214.1470  155.3380 C   0  0  0  0  0  2  0  0  0  0  0  0
  155.2410  212.2770  156.1110 C   0  0  0  0  0  3  0  0  0  0  0  0
  160.7070  211.8470  149.5020 O   0  0  0  0  0  0  0  0  0  0  0  0
  162.0630  208.5130  152.8020 C   0  0  0  0  0  0  0  0  0  0  0  0
  161.6690  210.7440  154.0860 C   0  0  2  0  0  3  0  0  0  0  0  0
  157.0080  210.6790  156.7380 C   0  0  0  0  0  2  0  0  0  0  0  0
  161.6150  209.2380  154.0710 C   0  0  2  0  0  3  0  0  0  0  0  0
  158.8660  212.8990  152.2950 C   0  0  0  0  0  3  0  0  0  0  0  0
  157.2530  212.0740  154.6580 C   0  0  2  0  0  3  0  0  0  0  0  0
  158.0550  209.7060  156.2230 C   0  0  0  0  0  2  0  0  0  0  0  0
  154.5060  214.4490  156.5490 F   0  0  0  0  0  0  0  0  0  0  0  0
  162.1000  209.7960  156.1950 C   0  0  0  0  0  2  0  0  0  0  0  0
  159.4730  212.0920  153.4260 C   0  0  1  0  0  3  0  0  0  0  0  0
  162.4560  210.6100  151.4140 C   0  0  0  0  0  2  0  0  0  0  0  0
  160.0780  211.2340  156.0860 C   0  0  0  0  0  2  0  0  0  0  0  0
  159.2860  212.8070  151.0720 N   0  0  0  0  0  0  0  0  0  0  0  0
  161.5110  211.0490  155.5620 C   0  0  2  0  0  3  0  0  0  0  0  0
  161.1670  211.3020  151.7670 C   0  0  0  0  0  0  0  0  0  0  0  0
  163.9450  206.5490  151.6160 O   0  0  0  0  0  0  0  0  0  0  0  0
  161.9900  205.6870  150.5930 C   0  0  1  0  0  3  0  0  0  0  0  0
  160.5350  205.7710  151.0300 C   0  0  2  0  0  3  0  0  0  0  0  0
  159.8830  205.8800  153.3320 O   0  0  0  0  0  1  0  0  0  0  0  0
  161.0310  206.6070  149.8600 C   0  0  2  0  0  3  0  0  0  0  0  0
  161.8830  207.0170  152.7050 C   0  0  2  0  0  3  0  0  0  0  0  0
  162.7300  206.4420  151.6300 C   0  0  0  0  0  0  0  0  0  0  0  0
  160.4660  206.6230  152.3060 C   0  0  1  0  0  3  0  0  0  0  0  0
  161.3020  204.6200  148.3810 C   0  0  0  0  0  2  0  0  0  0  0  0
  161.5680  205.0130  146.0240 O   0  0  0  0  0  0  0  0  0  0  0  0
  160.7450  206.1530  146.0700 C   0  0  0  0  0  2  0  0  0  0  0  0
  161.0530  204.1020  146.9650 C   0  0  0  0  0  2  0  0  0  0  0  0
  160.6070  205.9720  148.5500 C   0  0  0  0  0  3  0  0  0  0  0  0
  160.9610  206.8980  147.3880 C   0  0  0  0  0  2  0  0  0  0  0  0
  1  3  1  6  0  0  0
  1 19  1  0  0  0  0
  1  6  1  0  0  0  0
  2 22  1  0  0  0  0
  4 14  2  0  0  0  0
  5 26  1  0  0  0  0
  5 28  1  0  0  0  0
  6 25  1  1  0  0  0
  6 20  1  0  0  0  0
  7 11  1  0  0  0  0
  8 23  1  0  0  0  0
  9 12  1  1  0  0  0
  9 16  1  0  0  0  0
 10 12  2  0  0  0  0
 10 21  1  0  0  0  0
 11 10  1  0  0  0  0
 13  5  2  0  0  0  0
 15  8  1  6  0  0  0
 15 27  1  0  0  0  0
 17 14  1  6  0  0  0
 17 15  1  0  0  0  0
 17  2  1  0  0  0  0
 19  7  1  1  0  0  0
 19  9  1  0  0  0  0
 20 16  1  0  0  0  0
 23 18  1  6  0  0  0
 23  1  1  0  0  0  0
 24  4  1  0  0  0  0
 24 28  1  0  0  0  0
 26 18  2  0  0  0  0
 27 25  1  6  0  0  0
 27 22  1  0  0  0  0
 28  8  2  0  0  0  0
 29 35  2  0  0  0  0
 30 31  1  0  0  0  0
 30 35  1  1  0  0  0
 31 36  1  0  0  0  0
 33 30  1  0  0  0  0
 33 31  1  0  0  0  0
 34 14  1  0  0  0  0
 35 34  1  0  0  0  0
 36 34  1  0  0  0  0
 36 32  1  0  0  0  0
 37 41  1  0  0  0  0
 38 39  1  0  0  0  0
 38 40  1  0  0  0  0
 39 42  1  0  0  0  0
 40 37  1  0  0  0  0
 41 33  1  0  0  0  0
 42 41  1  0  0  0  0
M  END
>  <MODEL>
1

>  <REMARK>
 VINA RESULT:       1.4      0.000      0.000
  Name = 
  2 active torsions:
  status: ('A' for Active; 'I' for Inactive)
    1  A    between atoms: C_17  and  C_29
    2  A    between atoms: C_28  and  C_34
                            x       y       z     vdW  Elec       q    Type
                         _______ _______ _______ _____ _____    ______ ____

>  <TORSDO>
F 2

$$$$
=
 OpenBabel11072411243D

 42 50  0  0  1  0  0  0  0  0999 V2000
  158.5800  211.3530  153.8530 C   0  0  2  0  0  0  0  0  0  0  0  0
  162.3080  208.5240  154.1020 O   0  0  0  0  0  0  0  0  0  0  0  0
  157.8380  210.5700  152.7710 C   0  0  0  0  0  1  0  0  0  0  0  0
  162.0620  209.4360  150.6440 C   0  0  0  0  0  3  0  0  0  0  0  0
  160.2800  212.5410  150.4000 C   0  0  0  0  0  0  0  0  0  0  0  0
  159.2530  210.3310  154.8010 C   0  0  2  0  0  3  0  0  0  0  0  0
  158.1890  213.2040  155.4190 O   0  0  0  0  0  0  0  0  0  0  0  0
  160.8200  211.5360  152.5560 C   0  0  0  0  0  0  0  0  0  0  0  0
  156.5890  211.3990  155.5070 C   0  0  2  0  0  3  0  0  0  0  0  0
  156.0460  213.6260  156.4500 C   0  0  0  0  0  0  0  0  0  0  0  0
  157.2200  214.1930  155.6880 C   0  0  0  0  0  2  0  0  0  0  0  0
  155.7170  212.3350  156.3030 C   0  0  0  0  0  3  0  0  0  0  0  0
  160.4700  212.5960  149.1570 O   0  0  0  0  0  0  0  0  0  0  0  0
  161.8110  208.6610  151.7180 C   0  0  0  0  0  0  0  0  0  0  0  0
  161.7520  210.6700  153.3750 C   0  0  2  0  0  3  0  0  0  0  0  0
  157.3770  210.5230  156.4730 C   0  0  0  0  0  2  0  0  0  0  0  0
  161.5560  209.1960  153.1270 C   0  0  2  0  0  3  0  0  0  0  0  0
  159.0080  213.3050  152.2640 C   0  0  0  0  0  3  0  0  0  0  0  0
  157.5550  212.2230  154.6270 C   0  0  2  0  0  3  0  0  0  0  0  0
  158.2740  209.5710  155.6990 C   0  0  0  0  0  2  0  0  0  0  0  0
  155.2340  214.4530  157.1570 F   0  0  0  0  0  0  0  0  0  0  0  0
  162.2890  209.3510  155.2480 C   0  0  0  0  0  2  0  0  0  0  0  0
  159.6400  212.2750  153.1800 C   0  0  1  0  0  3  0  0  0  0  0  0
  162.2680  210.9250  150.6470 C   0  0  0  0  0  2  0  0  0  0  0  0
  160.4110  210.9390  155.5890 C   0  0  0  0  0  2  0  0  0  0  0  0
  159.3000  213.3860  151.0030 N   0  0  0  0  0  0  0  0  0  0  0  0
  161.7640  210.7340  154.8890 C   0  0  2  0  0  3  0  0  0  0  0  0
  161.0880  211.6450  151.2430 C   0  0  0  0  0  0  0  0  0  0  0  0
  163.7240  206.4350  151.2840 O   0  0  0  0  0  0  0  0  0  0  0  0
  162.3300  205.9470  149.4320 C   0  0  1  0  0  3  0  0  0  0  0  0
  160.8620  206.2670  149.1970 C   0  0  2  0  0  3  0  0  0  0  0  0
  159.2750  206.4280  150.9830 O   0  0  0  0  0  1  0  0  0  0  0  0
  161.9410  207.0350  148.4480 C   0  0  2  0  0  3  0  0  0  0  0  0
  161.4830  207.2220  151.4050 C   0  0  2  0  0  3  0  0  0  0  0  0
  162.6290  206.5370  150.7560 C   0  0  0  0  0  0  0  0  0  0  0  0
  160.3530  207.0860  150.3920 C   0  0  1  0  0  3  0  0  0  0  0  0
  160.6810  206.4870  146.3700 C   0  0  0  0  0  2  0  0  0  0  0  0
  161.2210  204.4290  145.2500 O   0  0  0  0  0  0  0  0  0  0  0  0
  162.5700  204.5120  145.6400 C   0  0  0  0  0  2  0  0  0  0  0  0
  160.7790  205.7480  145.0350 C   0  0  0  0  0  2  0  0  0  0  0  0
  162.0600  206.5150  147.0290 C   0  0  0  0  0  3  0  0  0  0  0  0
  162.6700  205.1130  147.0420 C   0  0  0  0  0  2  0  0  0  0  0  0
  1  3  1  6  0  0  0
  1 19  1  0  0  0  0
  1  6  1  0  0  0  0
  2 22  1  0  0  0  0
  4 24  1  0  0  0  0
  4 14  2  0  0  0  0
  5 26  1  0  0  0  0
  5 28  1  0  0  0  0
  6 25  1  1  0  0  0
  6 20  1  0  0  0  0
  7 11  1  0  0  0  0
  8 23  1  0  0  0  0
  9 12  1  1  0  0  0
  9 16  1  0  0  0  0
 10 21  1  0  0  0  0
 11 10  1  0  0  0  0
 12 10  2  0  0  0  0
 13  5  2  0  0  0  0
 15  8  1  1  0  0  0
 15 27  1  0  0  0  0
 17 14  1  6  0  0  0
 17 15  1  0  0  0  0
 17  2  1  0  0  0  0
 19  7  1  1  0  0  0
 19  9  1  0  0  0  0
 20 16  1  0  0  0  0
 23 18  1  6  0  0  0
 23  1  1  0  0  0  0
 24 28  1  0  0  0  0
 26 18  2  0  0  0  0
 27 22  1  1  0  0  0
 27 25  1  0  0  0  0
 28  8  2  0  0  0  0
 30 35  1  1  0  0  0
 31 30  1  0  0  0  0
 31 36  1  0  0  0  0
 33 31  1  0  0  0  0
 33 30  1  0  0  0  0
 34 14  1  0  0  0  0
 35 29  2  0  0  0  0
 35 34  1  0  0  0  0
 36 32  1  0  0  0  0
 36 34  1  0  0  0  0
 37 41  1  0  0  0  0
 38 39  1  0  0  0  0
 39 42  1  0  0  0  0
 40 38  1  0  0  0  0
 40 37  1  0  0  0  0
 41 42  1  0  0  0  0
 41 33  1  0  0  0  0
M  END
>  <MODEL>
2

>  <REMARK>
 VINA RESULT:       1.9      0.972      1.275
  Name = 
  2 active torsions:
  status: ('A' for Active; 'I' for Inactive)
    1  A    between atoms: C_17  and  C_29
    2  A    between atoms: C_28  and  C_34
                            x       y       z     vdW  Elec       q    Type
                         _______ _______ _______ _____ _____    ______ ____

>  <TORSDO>
F 2

$$$$
=
 OpenBabel11072411243D

 42 50  0  0  1  0  0  0  0  0999 V2000
  161.0050  208.9920  152.4680 C   0  0  2  0  0  0  0  0  0  0  0  0
  162.0440  211.9590  155.9450 O   0  0  0  0  0  0  0  0  0  0  0  0
  159.5060  209.2840  152.4310 C   0  0  0  0  0  1  0  0  0  0  0  0
  159.4600  209.8520  157.2610 C   0  0  0  0  0  3  0  0  0  0  0  0
  159.4650  206.7580  155.4440 C   0  0  0  0  0  0  0  0  0  0  0  0
  161.7420  210.3270  152.7290 C   0  0  2  0  0  3  0  0  0  0  0  0
  162.7090  207.8060  151.1580 O   0  0  0  0  0  0  0  0  0  0  0  0
  161.1150  208.5020  155.0140 C   0  0  0  0  0  0  0  0  0  0  0  0
  161.3820  209.4130  149.9420 C   0  0  2  0  0  3  0  0  0  0  0  0
  162.6420  207.6430  148.7490 C   0  0  0  0  0  0  0  0  0  0  0  0
  162.7950  206.9190  150.0650 C   0  0  0  0  0  2  0  0  0  0  0  0
  161.9200  208.7710  148.6900 C   0  0  0  0  0  3  0  0  0  0  0  0
  158.5770  206.2720  156.1950 O   0  0  0  0  0  0  0  0  0  0  0  0
  159.9340  210.9430  156.6270 C   0  0  0  0  0  0  0  0  0  0  0  0
  161.9270  209.6640  155.5430 C   0  0  2  0  0  3  0  0  0  0  0  0
  162.2390  210.6270  150.2770 C   0  0  0  0  0  2  0  0  0  0  0  0
  161.1260  210.9340  155.6700 C   0  0  2  0  0  3  0  0  0  0  0  0
  160.6070  206.6320  153.3580 C   0  0  0  0  0  3  0  0  0  0  0  0
  161.4270  208.3930  151.1010 C   0  0  2  0  0  3  0  0  0  0  0  0
  161.7270  211.2940  151.5430 C   0  0  0  0  0  2  0  0  0  0  0  0
  163.1000  207.0740  147.6050 F   0  0  0  0  0  0  0  0  0  0  0  0
  163.2400  211.5990  155.2830 C   0  0  0  0  0  2  0  0  0  0  0  0
  161.2960  207.9610  153.5990 C   0  0  1  0  0  3  0  0  0  0  0  0
  160.0730  208.4800  157.2570 C   0  0  0  0  0  2  0  0  0  0  0  0
  163.1460  210.1200  153.2900 C   0  0  0  0  0  2  0  0  0  0  0  0
  159.7640  206.1230  154.2010 N   0  0  0  0  0  0  0  0  0  0  0  0
  163.1710  210.1480  154.8270 C   0  0  2  0  0  3  0  0  0  0  0  0
  160.2270  207.9470  155.8580 C   0  0  0  0  0  0  0  0  0  0  0  0
  157.0620  211.0560  155.8890 O   0  0  0  0  0  0  0  0  0  0  0  0
  157.7070  213.0200  154.7320 C   0  0  1  0  0  3  0  0  0  0  0  0
  158.8720  213.9660  154.9770 C   0  0  2  0  0  3  0  0  0  0  0  0
  159.7790  214.3570  157.1590 O   0  0  0  0  0  1  0  0  0  0  0  0
  158.9020  213.0090  153.7960 C   0  0  2  0  0  3  0  0  0  0  0  0
  159.0280  212.1490  156.6650 C   0  0  2  0  0  3  0  0  0  0  0  0
  157.8590  211.9720  155.7670 C   0  0  0  0  0  0  0  0  0  0  0  0
  159.7060  213.4080  156.1400 C   0  0  1  0  0  3  0  0  0  0  0  0
  157.0510  213.7180  152.2860 C   0  0  0  0  0  2  0  0  0  0  0  0
  157.3850  213.4640  149.9190 O   0  0  0  0  0  0  0  0  0  0  0  0
  158.7650  213.7100  150.0360 C   0  0  0  0  0  2  0  0  0  0  0  0
  156.7470  214.2590  150.8890 C   0  0  0  0  0  2  0  0  0  0  0  0
  158.5630  213.7500  152.5170 C   0  0  0  0  0  3  0  0  0  0  0  0
  159.2920  213.1080  151.3380 C   0  0  0  0  0  2  0  0  0  0  0  0
  1  3  1  6  0  0  0
  1  6  1  0  0  0  0
  1 23  1  0  0  0  0
  5 28  1  0  0  0  0
  5 13  2  0  0  0  0
  6 20  1  6  0  0  0
  6 25  1  0  0  0  0
  8 28  2  0  0  0  0
  9 12  1  6  0  0  0
  9 16  1  0  0  0  0
  9 19  1  0  0  0  0
 10 11  1  0  0  0  0
 11  7  1  0  0  0  0
 12 10  2  0  0  0  0
 14 34  1  0  0  0  0
 14  4  2  0  0  0  0
 15  8  1  6  0  0  0
 15 17  1  0  0  0  0
 16 20  1  0  0  0  0
 17  2  1  1  0  0  0
 17 14  1  0  0  0  0
 18 26  2  0  0  0  0
 19  7  1  1  0  0  0
 19  1  1  0  0  0  0
 21 10  1  0  0  0  0
 22  2  1  0  0  0  0
 23 18  1  6  0  0  0
 23  8  1  0  0  0  0
 24  4  1  0  0  0  0
 26  5  1  0  0  0  0
 27 25  1  6  0  0  0
 27 22  1  0  0  0  0
 27 15  1  0  0  0  0
 28 24  1  0  0  0  0
 30 31  1  0  0  0  0
 30 35  1  1  0  0  0
 31 36  1  0  0  0  0
 33 30  1  0  0  0  0
 33 31  1  0  0  0  0
 35 29  2  0  0  0  0
 35 34  1  0  0  0  0
 36 34  1  0  0  0  0
 36 32  1  0  0  0  0
 37 41  1  0  0  0  0
 38 39  1  0  0  0  0
 38 40  1  0  0  0  0
 39 42  1  0  0  0  0
 40 37  1  0  0  0  0
 41 33  1  0  0  0  0
 42 41  1  0  0  0  0
M  END
>  <MODEL>
3

>  <REMARK>
 VINA RESULT:       3.4      3.336      7.723
  Name = 
  2 active torsions:
  status: ('A' for Active; 'I' for Inactive)
    1  A    between atoms: C_17  and  C_29
    2  A    between atoms: C_28  and  C_34
                            x       y       z     vdW  Elec       q    Type
                         _______ _______ _______ _____ _____    ______ ____

>  <TORSDO>
F 2

$$$$
