=
 OpenBabel11072414403D

 26 29  0  0  1  0  0  0  0  0999 V2000
  162.1340  207.7470  149.9910 N   0  0  0  0  0  0  0  0  0  0  0  0
  162.0140  207.3740  148.6940 C   0  0  0  0  0  3  0  0  0  0  0  0
  161.4590  205.5740  150.7370 C   0  0  0  0  0  0  0  0  0  0  0  0
  161.3400  205.1510  149.3910 C   0  0  0  0  0  0  0  0  0  0  0  0
  161.2130  204.6260  151.8720 C   0  0  0  0  0  1  0  0  0  0  0  0
  161.8680  206.8920  151.0100 C   0  0  0  0  0  0  0  0  0  0  0  0
  161.6070  206.0800  148.3550 C   0  0  0  0  0  0  0  0  0  0  0  0
  160.3670  205.5690  144.8590 C   0  0  0  0  0  2  0  0  0  0  0  0
  161.8450  205.8570  144.6400 C   0  0  0  0  0  2  0  0  0  0  0  0
  163.3320  204.5190  146.1080 C   0  0  0  0  0  1  0  0  0  0  0  0
  161.4230  205.7510  146.9690 N   0  0  0  0  0  0  0  0  0  0  0  0
  160.1140  205.7450  146.3430 C   0  0  0  0  0  2  0  0  0  0  0  0
  162.5060  205.7880  146.0040 C   0  0  2  0  0  3  0  0  0  0  0  0
  160.9630  201.8400  148.1670 C   0  0  0  0  0  0  0  0  0  0  0  0
  161.5850  203.0310  148.0900 N   0  0  0  0  0  0  0  0  0  0  0  0
  161.2660  200.7560  147.2990 N   0  0  0  0  0  1  0  0  0  0  0  0
  160.0470  202.9760  149.7150 C   0  0  0  0  0  3  0  0  0  0  0  0
  160.0280  201.7630  149.1330 N   0  0  0  0  0  2  0  0  0  0  0  0
  161.0040  203.7410  149.0740 C   0  0  0  0  0  0  0  0  0  0  0  0
  161.9970  207.3930  152.4150 C   0  0  0  0  0  2  0  0  0  0  0  0
  160.7030  207.8660  152.8990 N   0  0  0  0  0  0  0  0  0  0  0  0
  161.3210  209.6120  155.1660 C   0  0  0  0  0  2  0  0  0  0  0  0
  160.6200  209.3310  152.7880 C   0  0  0  0  0  2  0  0  0  0  0  0
  161.5890  210.0480  153.7340 C   0  0  0  0  0  2  0  0  0  0  0  0
  160.4970  207.4260  154.2870 C   0  0  0  0  0  2  0  0  0  0  0  0
  161.4610  208.1020  155.2680 C   0  0  0  0  0  2  0  0  0  0  0  0
  1  6  1  0  0  0  0
  2  1  2  0  0  0  0
  3  6  2  0  0  0  0
  3  5  1  0  0  0  0
  4  3  1  0  0  0  0
  6 20  1  0  0  0  0
  7  2  1  0  0  0  0
  7  4  2  0  0  0  0
  8 12  1  0  0  0  0
  9  8  1  0  0  0  0
  9 13  1  0  0  0  0
 11  7  1  0  0  0  0
 12 11  1  0  0  0  0
 13 10  1  6  0  0  0
 13 11  1  0  0  0  0
 14 18  1  0  0  0  0
 15 14  2  0  0  0  0
 15 19  1  0  0  0  0
 16 14  1  0  0  0  0
 18 17  1  0  0  0  0
 19  4  1  0  0  0  0
 19 17  2  0  0  0  0
 20 21  1  0  0  0  0
 21 25  1  0  0  0  0
 22 26  1  0  0  0  0
 23 21  1  0  0  0  0
 23 24  1  0  0  0  0
 24 22  1  0  0  0  0
 25 26  1  0  0  0  0
M  END
>  <MODEL>
1

>  <REMARK>
 VINA RESULT:      -8.0      0.000      0.000
  Name = 
  4 active torsions:
  status: ('A' for Active; 'I' for Inactive)
    1  A    between atoms: N_9  and  C_25
    2  A    between atoms: N_10  and  C_22
    3  A    between atoms: C_12  and  C_19
    4  A    between atoms: C_22  and  C_23
                            x       y       z     vdW  Elec       q    Type
                         _______ _______ _______ _____ _____    ______ ____

>  <TORSDO>
F 4

$$$$
=
 OpenBabel11072414403D

 26 29  0  0  1  0  0  0  0  0999 V2000
  161.2770  204.7790  152.2470 N   0  0  0  0  0  0  0  0  0  0  0  0
  161.0590  203.7820  151.3560 C   0  0  0  0  0  3  0  0  0  0  0  0
  161.7130  206.3380  150.4820 C   0  0  0  0  0  0  0  0  0  0  0  0
  161.4740  205.3200  149.5270 C   0  0  0  0  0  0  0  0  0  0  0  0
  162.0250  207.7420  150.0580 C   0  0  0  0  0  1  0  0  0  0  0  0
  161.6010  206.0360  151.8520 C   0  0  0  0  0  0  0  0  0  0  0  0
  161.1590  204.0160  149.9810 C   0  0  0  0  0  0  0  0  0  0  0  0
  161.2640  201.5750  147.1430 C   0  0  0  0  0  2  0  0  0  0  0  0
  161.1260  200.6610  148.3520 C   0  0  0  0  0  2  0  0  0  0  0  0
  159.3190  201.3570  149.9030 C   0  0  0  0  0  1  0  0  0  0  0  0
  160.9910  202.9130  149.0760 N   0  0  0  0  0  0  0  0  0  0  0  0
  161.4060  202.9830  147.6870 C   0  0  0  0  0  2  0  0  0  0  0  0
  160.7770  201.5510  149.5300 C   0  0  2  0  0  3  0  0  0  0  0  0
  160.8830  206.0940  146.1140 C   0  0  0  0  0  0  0  0  0  0  0  0
  160.3890  205.8880  147.3480 N   0  0  0  0  0  0  0  0  0  0  0  0
  160.0580  206.4030  144.9960 N   0  0  0  0  0  1  0  0  0  0  0  0
  162.6160  205.6830  147.2750 C   0  0  0  0  0  3  0  0  0  0  0  0
  162.2210  205.9800  146.0240 N   0  0  0  0  0  0  0  0  0  0  0  0
  161.4910  205.6340  148.0770 C   0  0  2  0  0  3  0  0  0  0  0  0
  161.8550  207.0720  152.9020 C   0  0  0  0  0  2  0  0  0  0  0  0
  160.5870  207.6050  153.3960 N   0  0  0  0  0  0  0  0  0  0  0  0
  161.3200  209.5260  155.4790 C   0  0  0  0  0  2  0  0  0  0  0  0
  160.5180  209.0560  153.1640 C   0  0  0  0  0  2  0  0  0  0  0  0
  161.5330  209.8360  154.0050 C   0  0  0  0  0  2  0  0  0  0  0  0
  160.4340  207.2870  154.8230 C   0  0  0  0  0  2  0  0  0  0  0  0
  161.4460  208.0280  155.7030 C   0  0  0  0  0  2  0  0  0  0  0  0
  2  1  2  0  0  0  0
  3  6  2  0  0  0  0
  4  7  2  0  0  0  0
  4  3  1  0  0  0  0
  5  3  1  0  0  0  0
  6  1  1  0  0  0  0
  6 20  1  0  0  0  0
  7  2  1  0  0  0  0
  8 12  1  0  0  0  0
  8  9  1  0  0  0  0
  9 13  1  0  0  0  0
 11 13  1  0  0  0  0
 11  7  1  0  0  0  0
 12 11  1  0  0  0  0
 13 10  1  6  0  0  0
 14 15  2  0  0  0  0
 15 19  1  0  0  0  0
 16 14  1  0  0  0  0
 17 19  1  0  0  0  0
 18 14  1  0  0  0  0
 18 17  2  0  0  0  0
 19  4  1  6  0  0  0
 20 21  1  0  0  0  0
 21 25  1  0  0  0  0
 22 26  1  0  0  0  0
 23 21  1  0  0  0  0
 23 24  1  0  0  0  0
 24 22  1  0  0  0  0
 25 26  1  0  0  0  0
M  END
>  <MODEL>
2

>  <REMARK>
 VINA RESULT:      -7.3      1.358      3.665
  Name = 
  4 active torsions:
  status: ('A' for Active; 'I' for Inactive)
    1  A    between atoms: N_9  and  C_25
    2  A    between atoms: N_10  and  C_22
    3  A    between atoms: C_12  and  C_19
    4  A    between atoms: C_22  and  C_23
                            x       y       z     vdW  Elec       q    Type
                         _______ _______ _______ _____ _____    ______ ____

>  <TORSDO>
F 4

$$$$
=
 OpenBabel11072414403D

 26 29  0  0  1  0  0  0  0  0999 V2000
  161.9540  208.9660  149.9470 N   0  0  0  0  0  0  0  0  0  0  0  0
  161.8740  208.3050  148.7680 C   0  0  0  0  0  3  0  0  0  0  0  0
  161.4520  206.9680  151.1680 C   0  0  0  0  0  0  0  0  0  0  0  0
  161.3780  206.2470  149.9510 C   0  0  0  0  0  0  0  0  0  0  0  0
  161.2760  206.2810  152.4890 C   0  0  0  0  0  1  0  0  0  0  0  0
  161.7510  208.3420  151.1350 C   0  0  0  0  0  0  0  0  0  0  0  0
  161.5760  206.9400  148.7320 C   0  0  0  0  0  0  0  0  0  0  0  0
  160.4770  205.7060  145.3700 C   0  0  0  0  0  2  0  0  0  0  0  0
  161.9900  205.7660  145.2160 C   0  0  0  0  0  2  0  0  0  0  0  0
  163.2080  204.6830  147.0870 C   0  0  0  0  0  1  0  0  0  0  0  0
  161.4280  206.2950  147.4560 N   0  0  0  0  0  0  0  0  0  0  0  0
  160.1660  206.2760  146.7400 C   0  0  0  0  0  2  0  0  0  0  0  0
  162.5600  205.9690  146.6070 C   0  0  2  0  0  3  0  0  0  0  0  0
  160.5800  202.8300  149.4120 C   0  0  0  0  0  0  0  0  0  0  0  0
  160.5750  204.0970  148.9600 N   0  0  0  0  0  0  0  0  0  0  0  0
  160.0490  201.7430  148.6630 N   0  0  0  0  0  1  0  0  0  0  0  0
  161.4960  203.9210  150.9910 C   0  0  0  0  0  3  0  0  0  0  0  0
  161.1260  202.6780  150.6330 N   0  0  0  0  0  2  0  0  0  0  0  0
  161.1600  204.7790  149.9610 C   0  0  0  0  0  0  0  0  0  0  0  0
  161.8300  209.1530  152.3910 C   0  0  0  0  0  2  0  0  0  0  0  0
  160.5160  209.2190  153.0280 N   0  0  0  0  0  0  0  0  0  0  0  0
  160.5360  211.7020  154.5760 C   0  0  0  0  0  2  0  0  0  0  0  0
  159.7880  210.4140  152.5750 C   0  0  0  0  0  2  0  0  0  0  0  0
  160.4350  211.7150  153.0590 C   0  0  0  0  0  2  0  0  0  0  0  0
  160.6690  209.2120  154.4900 C   0  0  0  0  0  2  0  0  0  0  0  0
  161.3340  210.4870  155.0180 C   0  0  0  0  0  2  0  0  0  0  0  0
  1  6  1  0  0  0  0
  2  1  2  0  0  0  0
  3  5  1  0  0  0  0
  4 19  1  0  0  0  0
  4  3  1  0  0  0  0
  6  3  2  0  0  0  0
  6 20  1  0  0  0  0
  7  2  1  0  0  0  0
  7  4  2  0  0  0  0
  8 12  1  0  0  0  0
  9  8  1  0  0  0  0
  9 13  1  0  0  0  0
 11  7  1  0  0  0  0
 12 11  1  0  0  0  0
 13 10  1  1  0  0  0
 13 11  1  0  0  0  0
 14 18  1  0  0  0  0
 15 14  2  0  0  0  0
 15 19  1  0  0  0  0
 16 14  1  0  0  0  0
 18 17  1  0  0  0  0
 19 17  2  0  0  0  0
 20 21  1  0  0  0  0
 21 25  1  0  0  0  0
 22 26  1  0  0  0  0
 23 21  1  0  0  0  0
 23 24  1  0  0  0  0
 24 22  1  0  0  0  0
 25 26  1  0  0  0  0
M  END
>  <MODEL>
3

>  <REMARK>
 VINA RESULT:      -7.3      1.194      1.541
  Name = 
  4 active torsions:
  status: ('A' for Active; 'I' for Inactive)
    1  A    between atoms: N_9  and  C_25
    2  A    between atoms: N_10  and  C_22
    3  A    between atoms: C_12  and  C_19
    4  A    between atoms: C_22  and  C_23
                            x       y       z     vdW  Elec       q    Type
                         _______ _______ _______ _____ _____    ______ ____

>  <TORSDO>
F 4

$$$$
=
 OpenBabel11072414403D

 26 29  0  0  1  0  0  0  0  0999 V2000
  161.6300  205.7480  153.4940 N   0  0  0  0  0  0  0  0  0  0  0  0
  161.4260  206.6750  154.4610 C   0  0  0  0  0  3  0  0  0  0  0  0
  161.2570  207.3750  151.7770 C   0  0  0  0  0  0  0  0  0  0  0  0
  161.0550  208.3690  152.7650 C   0  0  0  0  0  0  0  0  0  0  0  0
  161.2200  207.7150  150.3170 C   0  0  0  0  0  1  0  0  0  0  0  0
  161.5520  206.0590  152.1750 C   0  0  0  0  0  0  0  0  0  0  0  0
  161.1250  207.9990  154.1310 C   0  0  0  0  0  0  0  0  0  0  0  0
  159.6950  209.9660  156.9790 C   0  0  0  0  0  2  0  0  0  0  0  0
  161.1900  210.0280  157.2600 C   0  0  0  0  0  2  0  0  0  0  0  0
  162.5320  210.6770  155.2780 C   0  0  0  0  0  1  0  0  0  0  0  0
  160.8450  208.9310  155.1890 N   0  0  0  0  0  0  0  0  0  0  0  0
  159.5250  209.0590  155.7770 C   0  0  0  0  0  2  0  0  0  0  0  0
  161.8860  209.5180  156.0130 C   0  0  2  0  0  3  0  0  0  0  0  0
  159.9800  211.6910  152.1280 C   0  0  0  0  0  0  0  0  0  0  0  0
  159.7450  210.4970  152.7010 N   0  0  0  0  0  0  0  0  0  0  0  0
  159.0690  212.7800  152.2170 N   0  0  0  0  0  1  0  0  0  0  0  0
  161.6990  210.5510  151.6120 C   0  0  0  0  0  3  0  0  0  0  0  0
  161.1460  211.7680  151.4600 N   0  0  0  0  0  2  0  0  0  0  0  0
  160.8380  209.7840  152.3740 C   0  0  0  0  0  0  0  0  0  0  0  0
  161.7620  204.9690  151.1700 C   0  0  0  0  0  2  0  0  0  0  0  0
  160.4740  204.4880  150.6760 N   0  0  0  0  0  0  0  0  0  0  0  0
  161.1040  202.1440  149.0400 C   0  0  0  0  0  2  0  0  0  0  0  0
  160.2200  203.1210  151.1590 C   0  0  0  0  0  2  0  0  0  0  0  0
  161.1870  202.0960  150.5580 C   0  0  0  0  0  2  0  0  0  0  0  0
  160.4490  204.5470  149.2080 C   0  0  0  0  0  2  0  0  0  0  0  0
  161.4190  203.5520  148.5620 C   0  0  0  0  0  2  0  0  0  0  0  0
  1  2  1  0  0  0  0
  3  6  1  0  0  0  0
  3  4  2  0  0  0  0
  4  7  1  0  0  0  0
  5  3  1  0  0  0  0
  6  1  2  0  0  0  0
  7  2  2  0  0  0  0
  7 11  1  0  0  0  0
  8  9  1  0  0  0  0
 11 12  1  0  0  0  0
 11 13  1  0  0  0  0
 12  8  1  0  0  0  0
 13 10  1  6  0  0  0
 13  9  1  0  0  0  0
 14 16  1  0  0  0  0
 14 15  2  0  0  0  0
 17 19  2  0  0  0  0
 18 17  1  0  0  0  0
 18 14  1  0  0  0  0
 19 15  1  0  0  0  0
 19  4  1  0  0  0  0
 20  6  1  0  0  0  0
 21 23  1  0  0  0  0
 21 20  1  0  0  0  0
 22 24  1  0  0  0  0
 24 23  1  0  0  0  0
 25 21  1  0  0  0  0
 26 22  1  0  0  0  0
 26 25  1  0  0  0  0
M  END
>  <MODEL>
4

>  <REMARK>
 VINA RESULT:      -6.8      2.609      8.332
  Name = 
  4 active torsions:
  status: ('A' for Active; 'I' for Inactive)
    1  A    between atoms: N_9  and  C_25
    2  A    between atoms: N_10  and  C_22
    3  A    between atoms: C_12  and  C_19
    4  A    between atoms: C_22  and  C_23
                            x       y       z     vdW  Elec       q    Type
                         _______ _______ _______ _____ _____    ______ ____

>  <TORSDO>
F 4

$$$$
=
 OpenBabel11072414403D

 26 29  0  0  1  0  0  0  0  0999 V2000
  161.9390  205.6310  152.1760 N   0  0  0  0  0  0  0  0  0  0  0  0
  161.6970  206.0170  153.4520 C   0  0  0  0  0  3  0  0  0  0  0  0
  161.3260  207.7920  151.3450 C   0  0  0  0  0  0  0  0  0  0  0  0
  161.0810  208.2280  152.6700 C   0  0  0  0  0  0  0  0  0  0  0  0
  161.1830  208.7250  150.1810 C   0  0  0  0  0  1  0  0  0  0  0  0
  161.7650  206.4730  151.1260 C   0  0  0  0  0  0  0  0  0  0  0  0
  161.2550  207.3120  153.7360 C   0  0  0  0  0  0  0  0  0  0  0  0
  161.1940  208.5760  157.2610 C   0  0  0  0  0  2  0  0  0  0  0  0
  159.7360  208.7070  156.8440 C   0  0  0  0  0  2  0  0  0  0  0  0
  158.8340  206.6560  155.7790 C   0  0  0  0  0  1  0  0  0  0  0  0
  160.9410  207.6550  155.0950 N   0  0  0  0  0  0  0  0  0  0  0  0
  161.9500  208.1200  156.0290 C   0  0  0  0  0  2  0  0  0  0  0  0
  159.5900  207.9500  155.5380 C   0  0  2  0  0  3  0  0  0  0  0  0
  159.6270  211.4400  153.0810 C   0  0  0  0  0  0  0  0  0  0  0  0
  159.4870  210.1530  152.7150 N   0  0  0  0  0  0  0  0  0  0  0  0
  158.5620  212.3810  153.0130 N   0  0  0  0  0  1  0  0  0  0  0  0
  161.5590  210.6180  153.4210 C   0  0  0  0  0  3  0  0  0  0  0  0
  160.8610  211.7650  153.5120 N   0  0  0  0  0  2  0  0  0  0  0  0
  160.7110  209.6400  152.9380 C   0  0  0  0  0  0  0  0  0  0  0  0
  162.0270  205.9580  149.7450 C   0  0  0  0  0  2  0  0  0  0  0  0
  160.8010  205.4040  149.1760 N   0  0  0  0  0  0  0  0  0  0  0  0
  161.4830  204.7000  146.4180 C   0  0  0  0  0  2  0  0  0  0  0  0
  161.0120  204.0060  148.7690 C   0  0  0  0  0  2  0  0  0  0  0  0
  161.9870  203.8780  147.5940 C   0  0  0  0  0  2  0  0  0  0  0  0
  160.3610  206.2280  148.0410 C   0  0  0  0  0  2  0  0  0  0  0  0
  161.3190  206.1480  146.8490 C   0  0  0  0  0  2  0  0  0  0  0  0
  1  2  1  0  0  0  0
  2  7  2  0  0  0  0
  3  4  2  0  0  0  0
  4 19  1  0  0  0  0
  4  7  1  0  0  0  0
  5  3  1  0  0  0  0
  6  3  1  0  0  0  0
  6  1  2  0  0  0  0
  7 11  1  0  0  0  0
  9  8  1  0  0  0  0
 11 13  1  0  0  0  0
 11 12  1  0  0  0  0
 12  8  1  0  0  0  0
 13 10  1  1  0  0  0
 13  9  1  0  0  0  0
 14 18  1  0  0  0  0
 15 19  1  0  0  0  0
 15 14  2  0  0  0  0
 16 14  1  0  0  0  0
 17 18  1  0  0  0  0
 19 17  2  0  0  0  0
 20  6  1  0  0  0  0
 21 20  1  0  0  0  0
 22 26  1  0  0  0  0
 22 24  1  0  0  0  0
 23 21  1  0  0  0  0
 24 23  1  0  0  0  0
 25 21  1  0  0  0  0
 26 25  1  0  0  0  0
M  END
>  <MODEL>
5

>  <REMARK>
 VINA RESULT:      -6.3      2.073      8.342
  Name = 
  4 active torsions:
  status: ('A' for Active; 'I' for Inactive)
    1  A    between atoms: N_9  and  C_25
    2  A    between atoms: N_10  and  C_22
    3  A    between atoms: C_12  and  C_19
    4  A    between atoms: C_22  and  C_23
                            x       y       z     vdW  Elec       q    Type
                         _______ _______ _______ _____ _____    ______ ____

>  <TORSDO>
F 4

$$$$
=
 OpenBabel11072414403D

 26 29  0  0  1  0  0  0  0  0999 V2000
  161.3120  209.6120  150.6630 N   0  0  0  0  0  0  0  0  0  0  0  0
  160.8450  210.4380  151.6290 C   0  0  0  0  0  3  0  0  0  0  0  0
  161.6710  207.8600  152.2550 C   0  0  0  0  0  0  0  0  0  0  0  0
  161.1720  208.6950  153.2830 C   0  0  0  0  0  0  0  0  0  0  0  0
  162.0870  206.4470  152.5360 C   0  0  0  0  0  1  0  0  0  0  0  0
  161.7260  208.3490  150.9370 C   0  0  0  0  0  0  0  0  0  0  0  0
  160.7700  210.0140  152.9590 C   0  0  0  0  0  0  0  0  0  0  0  0
  160.4530  212.4370  155.7970 C   0  0  0  0  0  2  0  0  0  0  0  0
  159.4480  212.9810  154.7920 C   0  0  0  0  0  2  0  0  0  0  0  0
  157.9260  211.2410  153.8910 C   0  0  0  0  0  1  0  0  0  0  0  0
  160.3360  210.9470  153.9610 N   0  0  0  0  0  0  0  0  0  0  0  0
  161.1530  211.2780  155.1150 C   0  0  0  0  0  2  0  0  0  0  0  0
  159.2770  211.9120  153.7290 C   0  0  2  0  0  3  0  0  0  0  0  0
  160.2170  207.2640  156.3880 C   0  0  0  0  0  0  0  0  0  0  0  0
  159.9200  207.5230  155.1020 N   0  0  0  0  0  0  0  0  0  0  0  0
  159.3290  206.5750  157.2600 N   0  0  0  0  0  1  0  0  0  0  0  0
  161.9370  208.2990  155.6840 C   0  0  0  0  0  3  0  0  0  0  0  0
  161.4230  207.7150  156.7820 N   0  0  0  0  0  2  0  0  0  0  0  0
  161.0130  208.1730  154.6630 C   0  0  0  0  0  0  0  0  0  0  0  0
  162.2570  207.5110  149.8160 C   0  0  0  0  0  2  0  0  0  0  0  0
  161.2120  207.2900  148.8180 N   0  0  0  0  0  0  0  0  0  0  0  0
  161.5940  204.5370  147.9010 C   0  0  0  0  0  2  0  0  0  0  0  0
  160.3170  206.2040  149.2480 C   0  0  0  0  0  2  0  0  0  0  0  0
  161.0160  204.8410  149.2740 C   0  0  0  0  0  2  0  0  0  0  0  0
  161.8220  206.9920  147.5140 C   0  0  0  0  0  2  0  0  0  0  0  0
  162.5530  205.6460  147.5000 C   0  0  0  0  0  2  0  0  0  0  0  0
  1  6  2  0  0  0  0
  1  2  1  0  0  0  0
  2  7  2  0  0  0  0
  3  5  1  0  0  0  0
  3  4  2  0  0  0  0
  4 19  1  0  0  0  0
  6  3  1  0  0  0  0
  7  4  1  0  0  0  0
  7 11  1  0  0  0  0
  9  8  1  0  0  0  0
 11 12  1  0  0  0  0
 12  8  1  0  0  0  0
 13 10  1  1  0  0  0
 13 11  1  0  0  0  0
 13  9  1  0  0  0  0
 14 18  1  0  0  0  0
 14 16  1  0  0  0  0
 15 14  2  0  0  0  0
 17 18  1  0  0  0  0
 19 15  1  0  0  0  0
 19 17  2  0  0  0  0
 20  6  1  0  0  0  0
 21 23  1  0  0  0  0
 21 20  1  0  0  0  0
 22 24  1  0  0  0  0
 23 24  1  0  0  0  0
 25 21  1  0  0  0  0
 26 25  1  0  0  0  0
 26 22  1  0  0  0  0
M  END
>  <MODEL>
6

>  <REMARK>
 VINA RESULT:      -6.0      2.584      8.006
  Name = 
  4 active torsions:
  status: ('A' for Active; 'I' for Inactive)
    1  A    between atoms: N_9  and  C_25
    2  A    between atoms: N_10  and  C_22
    3  A    between atoms: C_12  and  C_19
    4  A    between atoms: C_22  and  C_23
                            x       y       z     vdW  Elec       q    Type
                         _______ _______ _______ _____ _____    ______ ____

>  <TORSDO>
F 4

$$$$
=
 OpenBabel11072414403D

 26 29  0  0  1  0  0  0  0  0999 V2000
  162.0830  209.2630  150.3100 N   0  0  0  0  0  0  0  0  0  0  0  0
  161.7670  210.1750  151.2610 C   0  0  0  0  0  3  0  0  0  0  0  0
  161.6520  207.4550  151.8200 C   0  0  0  0  0  0  0  0  0  0  0  0
  161.3000  208.3840  152.8280 C   0  0  0  0  0  0  0  0  0  0  0  0
  161.5620  205.9780  152.0600 C   0  0  0  0  0  1  0  0  0  0  0  0
  162.0390  207.9290  150.5530 C   0  0  0  0  0  0  0  0  0  0  0  0
  161.3780  209.7690  152.5410 C   0  0  0  0  0  0  0  0  0  0  0  0
  160.0370  212.5470  154.6650 C   0  0  0  0  0  2  0  0  0  0  0  0
  160.6250  211.6000  155.7020 C   0  0  0  0  0  2  0  0  0  0  0  0
  162.9310  210.8650  155.1590 C   0  0  0  0  0  1  0  0  0  0  0  0
  161.1230  210.7710  153.5390 N   0  0  0  0  0  0  0  0  0  0  0  0
  160.1790  211.8520  153.3250 C   0  0  0  0  0  2  0  0  0  0  0  0
  161.4560  210.5860  154.9390 C   0  0  2  0  0  3  0  0  0  0  0  0
  160.6850  207.0400  156.0550 C   0  0  0  0  0  0  0  0  0  0  0  0
  161.5560  207.2900  155.0610 N   0  0  0  0  0  0  0  0  0  0  0  0
  161.0590  206.3820  157.2600 N   0  0  0  0  0  1  0  0  0  0  0  0
  159.4920  208.0160  154.5900 C   0  0  0  0  0  3  0  0  0  0  0  0
  159.4290  207.4600  155.8130 N   0  0  0  0  0  0  0  0  0  0  0  0
  160.7950  207.9120  154.1410 C   0  0  2  0  0  3  0  0  0  0  0  0
  162.4320  206.9890  149.4560 C   0  0  0  0  0  2  0  0  0  0  0  0
  161.3540  206.8850  148.4760 N   0  0  0  0  0  0  0  0  0  0  0  0
  161.6530  204.2290  147.2840 C   0  0  0  0  0  2  0  0  0  0  0  0
  160.4510  205.7770  148.8260 C   0  0  0  0  0  2  0  0  0  0  0  0
  161.1230  204.4070  148.6980 C   0  0  0  0  0  2  0  0  0  0  0  0
  161.9180  206.7060  147.1300 C   0  0  0  0  0  2  0  0  0  0  0  0
  162.6210  205.3550  146.9620 C   0  0  0  0  0  2  0  0  0  0  0  0
  1  6  2  0  0  0  0
  1  2  1  0  0  0  0
  2  7  2  0  0  0  0
  3  5  1  0  0  0  0
  3  4  2  0  0  0  0
  6  3  1  0  0  0  0
  7  4  1  0  0  0  0
  7 11  1  0  0  0  0
  8  9  1  0  0  0  0
 11 13  1  0  0  0  0
 12 11  1  0  0  0  0
 12  8  1  0  0  0  0
 13 10  1  6  0  0  0
 13  9  1  0  0  0  0
 14 16  1  0  0  0  0
 15 14  2  0  0  0  0
 17 18  2  0  0  0  0
 18 14  1  0  0  0  0
 19  4  1  6  0  0  0
 19 17  1  0  0  0  0
 19 15  1  0  0  0  0
 20  6  1  0  0  0  0
 21 23  1  0  0  0  0
 21 20  1  0  0  0  0
 22 24  1  0  0  0  0
 24 23  1  0  0  0  0
 25 21  1  0  0  0  0
 26 25  1  0  0  0  0
 26 22  1  0  0  0  0
M  END
>  <MODEL>
7

>  <REMARK>
 VINA RESULT:      -5.8      2.348      7.738
  Name = 
  4 active torsions:
  status: ('A' for Active; 'I' for Inactive)
    1  A    between atoms: N_9  and  C_25
    2  A    between atoms: N_10  and  C_22
    3  A    between atoms: C_12  and  C_19
    4  A    between atoms: C_22  and  C_23
                            x       y       z     vdW  Elec       q    Type
                         _______ _______ _______ _____ _____    ______ ____

>  <TORSDO>
F 4

$$$$
=
 OpenBabel11072414403D

 26 29  0  0  1  0  0  0  0  0999 V2000
  158.1210  212.5170  137.8920 N   0  0  0  0  0  0  0  0  0  0  0  0
  159.4020  212.6700  138.3040 C   0  0  0  0  0  3  0  0  0  0  0  0
  158.4410  210.1650  137.5770 C   0  0  0  0  0  0  0  0  0  0  0  0
  159.7810  210.2910  138.0190 C   0  0  0  0  0  0  0  0  0  0  0  0
  157.8660  208.8280  137.2170 C   0  0  0  0  0  1  0  0  0  0  0  0
  157.6230  211.3080  137.5280 C   0  0  0  0  0  0  0  0  0  0  0  0
  160.2680  211.5740  138.3710 C   0  0  0  0  0  0  0  0  0  0  0  0
  163.9500  212.2440  138.5110 C   0  0  0  0  0  2  0  0  0  0  0  0
  163.4500  212.9090  139.7850 C   0  0  0  0  0  2  0  0  0  0  0  0
  161.9560  211.4530  141.1280 C   0  0  0  0  0  1  0  0  0  0  0  0
  161.6380  211.7930  138.7430 N   0  0  0  0  0  0  0  0  0  0  0  0
  162.7180  211.7540  137.7750 C   0  0  0  0  0  2  0  0  0  0  0  0
  162.0190  212.4470  139.9820 C   0  0  2  0  0  3  0  0  0  0  0  0
  161.7180  207.4850  139.0080 C   0  0  0  0  0  0  0  0  0  0  0  0
  160.9100  208.5040  139.3540 N   0  0  0  0  0  0  0  0  0  0  0  0
  162.2640  206.5780  139.9580 N   0  0  0  0  0  1  0  0  0  0  0  0
  161.2830  208.4220  137.1480 C   0  0  0  0  0  3  0  0  0  0  0  0
  161.9700  207.3990  137.6880 N   0  0  0  0  0  0  0  0  0  0  0  0
  160.6360  209.0880  138.1730 C   0  0  2  0  0  3  0  0  0  0  0  0
  156.2040  211.2320  137.0570 C   0  0  0  0  0  2  0  0  0  0  0  0
  155.3200  211.8740  138.0260 N   0  0  0  0  0  0  0  0  0  0  0  0
  153.1600  209.9530  138.4880 C   0  0  0  0  0  2  0  0  0  0  0  0
  155.2500  211.0770  139.2610 C   0  0  0  0  0  2  0  0  0  0  0  0
  154.5550  209.7280  139.0510 C   0  0  0  0  0  2  0  0  0  0  0  0
  153.9860  212.0610  137.4370 C   0  0  0  0  0  2  0  0  0  0  0  0
  153.2610  210.7340  137.1890 C   0  0  0  0  0  2  0  0  0  0  0  0
  1  2  1  0  0  0  0
  2  7  2  0  0  0  0
  3  4  2  0  0  0  0
  4  7  1  0  0  0  0
  5  3  1  0  0  0  0
  6  3  1  0  0  0  0
  6  1  2  0  0  0  0
  7 11  1  0  0  0  0
  8  9  1  0  0  0  0
  9 13  1  0  0  0  0
 11 13  1  0  0  0  0
 12  8  1  0  0  0  0
 12 11  1  0  0  0  0
 13 10  1  1  0  0  0
 14 15  2  0  0  0  0
 14 16  1  0  0  0  0
 17 18  2  0  0  0  0
 17 19  1  0  0  0  0
 18 14  1  0  0  0  0
 19  4  1  1  0  0  0
 19 15  1  0  0  0  0
 20  6  1  0  0  0  0
 20 21  1  0  0  0  0
 21 23  1  0  0  0  0
 22 24  1  0  0  0  0
 24 23  1  0  0  0  0
 25 21  1  0  0  0  0
 26 25  1  0  0  0  0
 26 22  1  0  0  0  0
M  END
>  <MODEL>
8

>  <REMARK>
 VINA RESULT:      -5.5     10.643     13.549
  Name = 
  4 active torsions:
  status: ('A' for Active; 'I' for Inactive)
    1  A    between atoms: N_9  and  C_25
    2  A    between atoms: N_10  and  C_22
    3  A    between atoms: C_12  and  C_19
    4  A    between atoms: C_22  and  C_23
                            x       y       z     vdW  Elec       q    Type
                         _______ _______ _______ _____ _____    ______ ____

>  <TORSDO>
F 4

$$$$
=
 OpenBabel11072414403D

 26 29  0  0  1  0  0  0  0  0999 V2000
  161.9560  210.7040  150.6410 N   0  0  0  0  0  0  0  0  0  0  0  0
  162.0260  209.8720  151.7070 C   0  0  0  0  0  3  0  0  0  0  0  0
  160.2810  212.0360  151.7160 C   0  0  0  0  0  0  0  0  0  0  0  0
  160.3440  211.1930  152.8520 C   0  0  0  0  0  0  0  0  0  0  0  0
  159.3890  213.2400  151.6920 C   0  0  0  0  0  1  0  0  0  0  0  0
  161.1130  211.7670  150.6130 C   0  0  0  0  0  0  0  0  0  0  0  0
  161.2220  210.0810  152.8320 C   0  0  0  0  0  0  0  0  0  0  0  0
  161.4600  208.2970  156.1160 C   0  0  0  0  0  2  0  0  0  0  0  0
  160.4550  207.4440  155.3550 C   0  0  0  0  0  2  0  0  0  0  0  0
  161.2060  206.8550  153.0650 C   0  0  0  0  0  1  0  0  0  0  0  0
  161.2760  209.1320  153.9090 N   0  0  0  0  0  0  0  0  0  0  0  0
  161.7690  209.4860  155.2280 C   0  0  0  0  0  2  0  0  0  0  0  0
  160.5040  207.9020  153.9100 C   0  0  2  0  0  3  0  0  0  0  0  0
  157.9820  211.6150  155.4680 C   0  0  0  0  0  0  0  0  0  0  0  0
  158.2910  211.0790  154.2730 N   0  0  0  0  0  0  0  0  0  0  0  0
  156.7210  211.4200  156.0970 N   0  0  0  0  0  1  0  0  0  0  0  0
  159.9690  212.2920  155.1230 C   0  0  0  0  0  3  0  0  0  0  0  0
  158.9640  212.3550  156.0160 N   0  0  0  0  0  2  0  0  0  0  0  0
  159.5490  211.5080  154.0640 C   0  0  0  0  0  0  0  0  0  0  0  0
  161.0780  212.6200  149.3840 C   0  0  0  0  0  2  0  0  0  0  0  0
  161.7330  211.9290  148.2760 N   0  0  0  0  0  0  0  0  0  0  0  0
  161.7910  213.8700  146.0860 C   0  0  0  0  0  2  0  0  0  0  0  0
  162.9720  212.6290  147.9000 C   0  0  0  0  0  2  0  0  0  0  0  0
  162.7060  214.0100  147.2920 C   0  0  0  0  0  2  0  0  0  0  0  0
  160.8120  211.8280  147.1350 C   0  0  0  0  0  2  0  0  0  0  0  0
  160.4990  213.1910  146.5090 C   0  0  0  0  0  2  0  0  0  0  0  0
  1  2  1  0  0  0  0
  2  7  2  0  0  0  0
  3  4  2  0  0  0  0
  4 19  1  0  0  0  0
  5  3  1  0  0  0  0
  6  1  2  0  0  0  0
  6  3  1  0  0  0  0
  7  4  1  0  0  0  0
  7 11  1  0  0  0  0
  9  8  1  0  0  0  0
 11 13  1  0  0  0  0
 11 12  1  0  0  0  0
 12  8  1  0  0  0  0
 13 10  1  6  0  0  0
 13  9  1  0  0  0  0
 14 18  1  0  0  0  0
 14 16  1  0  0  0  0
 15 14  2  0  0  0  0
 17 18  1  0  0  0  0
 19 15  1  0  0  0  0
 19 17  2  0  0  0  0
 20  6  1  0  0  0  0
 21 20  1  0  0  0  0
 22 26  1  0  0  0  0
 22 24  1  0  0  0  0
 23 21  1  0  0  0  0
 24 23  1  0  0  0  0
 25 21  1  0  0  0  0
 26 25  1  0  0  0  0
M  END
>  <MODEL>
9

>  <REMARK>
 VINA RESULT:      -5.5      5.225      8.972
  Name = 
  4 active torsions:
  status: ('A' for Active; 'I' for Inactive)
    1  A    between atoms: N_9  and  C_25
    2  A    between atoms: N_10  and  C_22
    3  A    between atoms: C_12  and  C_19
    4  A    between atoms: C_22  and  C_23
                            x       y       z     vdW  Elec       q    Type
                         _______ _______ _______ _____ _____    ______ ____

>  <TORSDO>
F 4

$$$$
