=
 OpenBabel11072414443D

 45 49  0  0  1  0  0  0  0  0999 V2000
  160.3200  209.6310  154.0890 C   0  0  1  0  0  3  0  0  0  0  0  0
  161.7000  208.9060  155.9190 N   0  0  0  0  0  2  0  0  0  0  0  0
  162.2340  210.5790  155.7500 S   0  0  0  0  0  0  0  0  0  0  0  0
  161.2000  208.5170  154.6140 C   0  0  1  0  0  3  0  0  0  0  0  0
  160.8890  210.9520  154.5820 C   0  0  2  0  0  3  0  0  0  0  0  0
  160.3130  209.6100  152.5720 C   0  0  0  0  0  1  0  0  0  0  0  0
  160.1650  212.0560  156.5820 O   0  0  0  0  0  1  0  0  0  0  0  0
  159.8010  211.7830  155.2610 C   0  0  1  0  0  3  0  0  0  0  0  0
  159.6000  213.1000  154.5240 C   0  0  0  0  0  2  0  0  0  0  0  0
  158.4710  212.9900  153.5100 C   0  0  2  0  0  3  0  0  0  0  0  0
  158.9050  213.3820  152.1180 C   0  0  0  0  0  0  0  0  0  0  0  0
  160.0410  212.9930  151.7400 O   0  0  0  0  0  0  0  0  0  0  0  0
  158.1650  214.1970  151.2400 O   0  0  0  0  0  0  0  0  0  0  0  0
  156.8870  213.2420  149.3670 C   0  0  0  0  0  1  0  0  0  0  0  0
  158.0650  214.0900  149.8170 C   0  0  2  0  0  3  0  0  0  0  0  0
  159.3160  213.6280  149.2350 N   0  0  0  0  0  2  0  0  0  0  0  0
  159.0400  213.2360  147.9190 N   0  0  0  0  0  2  0  0  0  0  0  0
  160.9530  212.5620  146.3610 N   0  0  0  0  0  0  0  0  0  0  0  0
  160.0870  212.8670  147.0660 C   0  0  0  0  0  0  0  0  0  0  0  0
  157.2190  213.6960  154.0000 C   0  0  0  0  0  2  0  0  0  0  0  0
  156.9300  213.3080  155.3680 N   0  0  0  0  0  2  0  0  0  0  0  0
  155.6350  211.7000  156.6250 C   0  0  0  0  0  2  0  0  0  0  0  0
  155.7510  212.4600  155.3200 C   0  0  0  0  0  3  0  0  0  0  0  0
  156.1800  211.0090  155.3940 C   0  0  0  0  0  2  0  0  0  0  0  0
  160.2410  206.9800  154.7620 S   0  0  0  0  0  0  0  0  0  0  0  0
  161.5710  205.9750  154.0380 C   0  0  1  0  0  3  0  0  0  0  0  0
  160.9620  204.8760  153.1890 C   0  0  0  0  0  2  0  0  0  0  0  0
  161.3140  205.1880  151.8200 N   0  0  0  0  0  0  0  0  0  0  0  0
  162.4190  206.8380  153.1090 C   0  0  0  0  0  3  0  0  0  0  0  0
  162.1530  206.3610  151.6920 C   0  0  0  0  0  3  0  0  0  0  0  0
  160.1610  203.3810  150.8920 O   0  0  0  0  0  0  0  0  0  0  0  0
  160.8860  204.3950  150.7060 C   0  0  0  0  0  0  0  0  0  0  0  0
  161.3200  204.7310  149.3190 C   0  0  0  0  0  2  0  0  0  0  0  0
  161.5720  208.1350  149.3010 O   0  0  0  0  0  0  0  0  0  0  0  0
  161.9110  207.0050  148.5040 C   0  0  2  0  0  0  0  0  0  0  0  0
  160.8970  206.4650  147.4770 C   0  0  2  0  0  3  0  0  0  0  0  0
  160.7470  206.0850  148.9120 C   0  0  1  0  0  3  0  0  0  0  0  0
  161.8650  208.4160  147.9890 C   0  0  0  0  0  2  0  0  0  0  0  0
  160.7560  204.2710  146.2170 N   0  0  0  0  0  2  0  0  0  0  0  0
  162.6870  205.5830  146.1410 O   0  0  0  0  0  0  0  0  0  0  0  0
  161.5180  205.4210  146.5890 C   0  0  0  0  0  0  0  0  0  0  0  0
  161.3090  203.2210  145.3770 C   0  0  0  0  0  2  0  0  0  0  0  0
  160.7460  201.9060  145.7870 C   0  0  0  0  0  0  0  0  0  0  0  0
  160.0490  201.1330  144.8660 O   0  0  0  0  0  0  0  0  0  0  0  0
  160.8740  201.5050  146.9730 O   0  0  0  0  0  1  0  0  0  0  0  0
  1  6  1  6  0  0  0
  1  5  1  0  0  0  0
  1  4  1  0  0  0  0
  3  2  1  0  0  0  0
  4 25  1  1  0  0  0
  4  2  1  0  0  0  0
  5  8  1  1  0  0  0
  5  3  1  0  0  0  0
  8  7  1  1  0  0  0
  9  8  1  0  0  0  0
 10 20  1  1  0  0  0
 10  9  1  0  0  0  0
 11 10  1  0  0  0  0
 12 11  2  0  0  0  0
 13 11  1  0  0  0  0
 15 14  1  1  0  0  0
 15 13  1  0  0  0  0
 16 15  1  0  0  0  0
 17 16  1  0  0  0  0
 18 19  3  0  0  0  0
 19 17  1  0  0  0  0
 20 21  1  0  0  0  0
 23 21  1  0  0  0  0
 23 24  1  0  0  0  0
 23 22  1  0  0  0  0
 24 22  1  0  0  0  0
 26 25  1  6  0  0  0
 27 26  1  0  0  0  0
 28 27  1  0  0  0  0
 29 26  1  0  0  0  0
 30 28  1  0  0  0  0
 30 29  2  0  0  0  0
 32 31  2  0  0  0  0
 32 28  1  0  0  0  0
 33 32  1  0  0  0  0
 35 38  1  1  0  0  0
 35 37  1  0  0  0  0
 35 34  1  0  0  0  0
 36 41  1  6  0  0  0
 36 35  1  0  0  0  0
 36 37  1  0  0  0  0
 37 33  1  6  0  0  0
 38 34  1  0  0  0  0
 39 41  1  0  0  0  0
 40 41  2  0  0  0  0
 42 43  1  0  0  0  0
 42 39  1  0  0  0  0
 43 45  1  0  0  0  0
 44 43  2  0  0  0  0
M  END
>  <MODEL>
1

>  <REMARK>
 VINA RESULT:      -6.1      0.000      0.000
  Name = 
  19 active torsions:
  status: ('A' for Active; 'I' for Inactive)
    1  A    between atoms: N_1  and  C_12
    2  A    between atoms: C_3  and  S_30
    3  A    between atoms: N_4  and  C_10
    4  A    between atoms: N_4  and  C_42
    5  A    between atoms: N_6  and  N_16
    6  A    between atoms: N_6  and  C_45
    7  A    between atoms: C_7  and  C_21
    8  A    between atoms: C_7  and  C_33
    9  A    between atoms: C_12  and  C_40
   10  A    between atoms: C_14  and  C_35
   11  A    between atoms: N_16  and  C_27
   12  A    between atoms: C_17  and  C_37
   13  A    between atoms: C_17  and  C_38
   14  A    between atoms: C_18  and  O_23
   15  A    between atoms: C_18  and  C_38
   16  A    between atoms: O_23  and  C_45
   17  A    between atoms: S_30  and  C_32
   18  A    between atoms: C_37  and  C_39
   19  A    between atoms: C_38  and  C_42
                            x       y       z     vdW  Elec       q    Type
                         _______ _______ _______ _____ _____    ______ ____

>  <TORSDO>
F 19

$$$$
=
 OpenBabel11072414443D

 45 49  0  0  1  0  0  0  0  0999 V2000
  162.1740  213.1490  145.4030 C   0  0  1  0  0  3  0  0  0  0  0  0
  160.8830  213.6880  147.3590 N   0  0  0  0  0  2  0  0  0  0  0  0
  159.9080  214.4530  146.1030 S   0  0  0  0  0  0  0  0  0  0  0  0
  162.2350  213.6380  146.8340 C   0  0  1  0  0  3  0  0  0  0  0  0
  160.8850  213.6670  144.7830 C   0  0  2  0  0  3  0  0  0  0  0  0
  163.3650  213.6770  144.6260 C   0  0  0  0  0  1  0  0  0  0  0  0
  159.2840  211.9120  145.0950 O   0  0  0  0  0  1  0  0  0  0  0  0
  160.1020  212.5230  144.1420 C   0  0  1  0  0  3  0  0  0  0  0  0
  159.2300  213.0450  143.0080 C   0  0  0  0  0  2  0  0  0  0  0  0
  159.9130  212.8530  141.6620 C   0  0  2  0  0  3  0  0  0  0  0  0
  158.9500  212.9610  140.5050 C   0  0  0  0  0  0  0  0  0  0  0  0
  159.1810  213.8550  139.6480 O   0  0  0  0  0  0  0  0  0  0  0  0
  157.7860  212.1850  140.3460 O   0  0  0  0  0  0  0  0  0  0  0  0
  155.7960  212.7770  139.0260 C   0  0  0  0  0  1  0  0  0  0  0  0
  157.0550  211.9340  139.1420 C   0  0  2  0  0  3  0  0  0  0  0  0
  156.7720  210.5160  138.9860 N   0  0  0  0  0  2  0  0  0  0  0  0
  155.4320  210.4030  138.5960 N   0  0  0  0  0  2  0  0  0  0  0  0
  153.8200  208.9640  139.9650 N   0  0  0  0  0  0  0  0  0  0  0  0
  154.5490  209.6150  139.3460 C   0  0  0  0  0  0  0  0  0  0  0  0
  160.7680  211.5980  141.6520 C   0  0  0  0  0  2  0  0  0  0  0  0
  161.7320  211.6590  140.5690 N   0  0  0  0  0  2  0  0  0  0  0  0
  162.3500  210.5810  138.4960 C   0  0  0  0  0  2  0  0  0  0  0  0
  161.5370  210.4620  139.7690 C   0  0  0  0  0  3  0  0  0  0  0  0
  160.8590  210.8390  138.4680 C   0  0  0  0  0  2  0  0  0  0  0  0
  163.2380  212.5050  147.8400 S   0  0  0  0  0  0  0  0  0  0  0  0
  161.7760  211.6420  148.4870 C   0  0  1  0  0  3  0  0  0  0  0  0
  161.8250  210.1860  148.0640 C   0  0  0  0  0  2  0  0  0  0  0  0
  162.0280  209.4240  149.2780 N   0  0  0  0  0  0  0  0  0  0  0  0
  161.7990  211.6640  150.0120 C   0  0  0  0  0  3  0  0  0  0  0  0
  162.0560  210.2400  150.4740 C   0  0  0  0  0  3  0  0  0  0  0  0
  162.1260  207.3500  148.2080 O   0  0  0  0  0  0  0  0  0  0  0  0
  162.1670  207.9990  149.2890 C   0  0  0  0  0  0  0  0  0  0  0  0
  162.3220  207.2560  150.5730 C   0  0  0  0  0  2  0  0  0  0  0  0
  161.4880  203.9470  150.6460 O   0  0  0  0  0  0  0  0  0  0  0  0
  161.8010  205.0200  151.5280 C   0  0  2  0  0  0  0  0  0  0  0  0
  160.6760  205.9420  152.0360 C   0  0  2  0  0  3  0  0  0  0  0  0
  161.2480  206.1770  150.6790 C   0  0  1  0  0  3  0  0  0  0  0  0
  161.1180  203.7510  151.9540 C   0  0  0  0  0  2  0  0  0  0  0  0
  160.7200  208.2200  153.1460 N   0  0  0  0  0  2  0  0  0  0  0  0
  161.9370  206.4280  154.0210 O   0  0  0  0  0  0  0  0  0  0  0  0
  161.1680  206.8630  153.1190 C   0  0  0  0  0  0  0  0  0  0  0  0
  161.1750  209.1610  154.1560 C   0  0  0  0  0  2  0  0  0  0  0  0
  160.1540  209.2690  155.2330 C   0  0  0  0  0  0  0  0  0  0  0  0
  160.0890  208.3010  156.2270 O   0  0  0  0  0  1  0  0  0  0  0  0
  159.3290  210.2200  155.2290 O   0  0  0  0  0  0  0  0  0  0  0  0
  1  6  1  6  0  0  0
  1  4  1  0  0  0  0
  3  2  1  0  0  0  0
  4  2  1  0  0  0  0
  4 25  1  1  0  0  0
  5  8  1  1  0  0  0
  5  1  1  0  0  0  0
  5  3  1  0  0  0  0
  8  7  1  1  0  0  0
  9  8  1  0  0  0  0
 10 20  1  1  0  0  0
 10  9  1  0  0  0  0
 11 10  1  0  0  0  0
 12 11  2  0  0  0  0
 13 11  1  0  0  0  0
 15 14  1  1  0  0  0
 15 13  1  0  0  0  0
 16 15  1  0  0  0  0
 17 16  1  0  0  0  0
 17 19  1  0  0  0  0
 19 18  3  0  0  0  0
 21 20  1  0  0  0  0
 22 23  1  0  0  0  0
 23 21  1  0  0  0  0
 24 22  1  0  0  0  0
 24 23  1  0  0  0  0
 26 25  1  6  0  0  0
 26 29  1  0  0  0  0
 27 26  1  0  0  0  0
 27 28  1  0  0  0  0
 28 32  1  0  0  0  0
 28 30  1  0  0  0  0
 29 30  2  0  0  0  0
 31 32  2  0  0  0  0
 32 33  1  0  0  0  0
 34 35  1  0  0  0  0
 34 38  1  0  0  0  0
 35 38  1  1  0  0  0
 35 36  1  0  0  0  0
 36 41  1  1  0  0  0
 37 33  1  1  0  0  0
 37 35  1  0  0  0  0
 37 36  1  0  0  0  0
 39 42  1  0  0  0  0
 41 39  1  0  0  0  0
 41 40  2  0  0  0  0
 42 43  1  0  0  0  0
 43 44  1  0  0  0  0
 45 43  2  0  0  0  0
M  END
>  <MODEL>
2

>  <REMARK>
 VINA RESULT:      -5.8      5.820     10.265
  Name = 
  19 active torsions:
  status: ('A' for Active; 'I' for Inactive)
    1  A    between atoms: N_1  and  C_12
    2  A    between atoms: C_3  and  S_30
    3  A    between atoms: N_4  and  C_10
    4  A    between atoms: N_4  and  C_42
    5  A    between atoms: N_6  and  N_16
    6  A    between atoms: N_6  and  C_45
    7  A    between atoms: C_7  and  C_21
    8  A    between atoms: C_7  and  C_33
    9  A    between atoms: C_12  and  C_40
   10  A    between atoms: C_14  and  C_35
   11  A    between atoms: N_16  and  C_27
   12  A    between atoms: C_17  and  C_37
   13  A    between atoms: C_17  and  C_38
   14  A    between atoms: C_18  and  O_23
   15  A    between atoms: C_18  and  C_38
   16  A    between atoms: O_23  and  C_45
   17  A    between atoms: S_30  and  C_32
   18  A    between atoms: C_37  and  C_39
   19  A    between atoms: C_38  and  C_42
                            x       y       z     vdW  Elec       q    Type
                         _______ _______ _______ _____ _____    ______ ____

>  <TORSDO>
F 19

$$$$
=
 OpenBabel11072414443D

 45 49  0  0  1  0  0  0  0  0999 V2000
  160.2360  209.6660  153.8500 C   0  0  1  0  0  3  0  0  0  0  0  0
  161.4620  209.1840  155.8610 N   0  0  0  0  0  2  0  0  0  0  0  0
  161.8930  210.8770  155.6140 S   0  0  0  0  0  0  0  0  0  0  0  0
  161.1310  208.6650  154.5480 C   0  0  1  0  0  3  0  0  0  0  0  0
  160.6560  211.0600  154.2910 C   0  0  2  0  0  3  0  0  0  0  0  0
  160.3910  209.5360  152.3460 C   0  0  0  0  0  1  0  0  0  0  0  0
  158.8800  211.2090  155.8930 O   0  0  0  0  0  1  0  0  0  0  0  0
  159.4470  211.8500  154.7890 C   0  0  1  0  0  3  0  0  0  0  0  0
  159.8630  213.2560  155.1990 C   0  0  0  0  0  2  0  0  0  0  0  0
  158.7440  214.2540  154.9400 C   0  0  2  0  0  3  0  0  0  0  0  0
  157.7730  214.3450  156.0920 C   0  0  0  0  0  0  0  0  0  0  0  0
  158.2510  214.2630  157.2530 O   0  0  0  0  0  0  0  0  0  0  0  0
  156.3750  214.4520  155.9640 O   0  0  0  0  0  0  0  0  0  0  0  0
  154.2570  214.2250  157.1950 C   0  0  0  0  0  1  0  0  0  0  0  0
  155.3780  213.5390  156.4310 C   0  0  2  0  0  3  0  0  0  0  0  0
  155.9730  212.4580  157.2020 N   0  0  0  0  0  2  0  0  0  0  0  0
  155.1400  211.3420  157.0620 N   0  0  0  0  0  2  0  0  0  0  0  0
  155.2470  209.9290  154.9330 N   0  0  0  0  0  0  0  0  0  0  0  0
  155.1980  210.5680  155.8960 C   0  0  0  0  0  0  0  0  0  0  0  0
  158.0940  214.0140  153.5880 C   0  0  0  0  0  2  0  0  0  0  0  0
  159.1030  213.9980  152.5450 N   0  0  0  0  0  2  0  0  0  0  0  0
  159.3520  213.5250  150.1880 C   0  0  0  0  0  2  0  0  0  0  0  0
  158.5470  213.2380  151.4390 C   0  0  0  0  0  3  0  0  0  0  0  0
  158.0110  214.1970  150.3960 C   0  0  0  0  0  2  0  0  0  0  0  0
  160.2720  207.0730  154.7200 S   0  0  0  0  0  0  0  0  0  0  0  0
  161.6510  206.1460  153.9850 C   0  0  1  0  0  3  0  0  0  0  0  0
  161.1010  204.9790  153.1870 C   0  0  0  0  0  2  0  0  0  0  0  0
  161.3900  205.2730  151.7990 N   0  0  0  0  0  0  0  0  0  0  0  0
  162.4050  207.0400  153.0050 C   0  0  0  0  0  3  0  0  0  0  0  0
  162.1350  206.5000  151.6120 C   0  0  0  0  0  3  0  0  0  0  0  0
  160.3490  203.3590  150.9600 O   0  0  0  0  0  0  0  0  0  0  0  0
  160.9910  204.4180  150.7220 C   0  0  0  0  0  0  0  0  0  0  0  0
  161.3580  204.7410  149.3130 C   0  0  0  0  0  2  0  0  0  0  0  0
  161.5320  208.1500  149.2760 O   0  0  0  0  0  0  0  0  0  0  0  0
  161.8790  207.0240  148.4760 C   0  0  2  0  0  0  0  0  0  0  0  0
  160.8540  206.4570  147.4740 C   0  0  2  0  0  3  0  0  0  0  0  0
  160.7460  206.0800  148.9140 C   0  0  1  0  0  3  0  0  0  0  0  0
  161.7890  208.4310  147.9570 C   0  0  0  0  0  2  0  0  0  0  0  0
  160.7170  204.2800  146.1860 N   0  0  0  0  0  2  0  0  0  0  0  0
  162.6510  205.5890  146.1380 O   0  0  0  0  0  0  0  0  0  0  0  0
  161.4790  205.4230  146.5770 C   0  0  0  0  0  0  0  0  0  0  0  0
  161.2730  203.2390  145.3350 C   0  0  0  0  0  2  0  0  0  0  0  0
  160.6950  201.9220  145.7160 C   0  0  0  0  0  0  0  0  0  0  0  0
  160.9650  201.3830  146.9680 O   0  0  0  0  0  1  0  0  0  0  0  0
  159.9890  201.2800  144.8960 O   0  0  0  0  0  0  0  0  0  0  0  0
  1  6  1  6  0  0  0
  1  5  1  0  0  0  0
  1  4  1  0  0  0  0
  3  2  1  0  0  0  0
  4 25  1  1  0  0  0
  4  2  1  0  0  0  0
  5  8  1  1  0  0  0
  5  3  1  0  0  0  0
  8  9  1  0  0  0  0
  8  7  1  1  0  0  0
 10 20  1  6  0  0  0
 10  9  1  0  0  0  0
 10 11  1  0  0  0  0
 11 12  2  0  0  0  0
 13 11  1  0  0  0  0
 13 15  1  0  0  0  0
 15 14  1  1  0  0  0
 15 16  1  0  0  0  0
 17 16  1  0  0  0  0
 18 19  3  0  0  0  0
 19 17  1  0  0  0  0
 21 20  1  0  0  0  0
 22 24  1  0  0  0  0
 22 23  1  0  0  0  0
 23 21  1  0  0  0  0
 24 23  1  0  0  0  0
 26 25  1  6  0  0  0
 27 26  1  0  0  0  0
 28 27  1  0  0  0  0
 29 26  1  0  0  0  0
 30 28  1  0  0  0  0
 30 29  2  0  0  0  0
 32 31  2  0  0  0  0
 32 28  1  0  0  0  0
 33 32  1  0  0  0  0
 35 38  1  6  0  0  0
 35 37  1  0  0  0  0
 35 34  1  0  0  0  0
 36 41  1  6  0  0  0
 36 35  1  0  0  0  0
 36 37  1  0  0  0  0
 37 33  1  6  0  0  0
 38 34  1  0  0  0  0
 39 41  1  0  0  0  0
 40 41  2  0  0  0  0
 42 43  1  0  0  0  0
 42 39  1  0  0  0  0
 43 44  1  0  0  0  0
 45 43  2  0  0  0  0
M  END
>  <MODEL>
3

>  <REMARK>
 VINA RESULT:      -5.3      1.868      4.086
  Name = 
  19 active torsions:
  status: ('A' for Active; 'I' for Inactive)
    1  A    between atoms: N_1  and  C_12
    2  A    between atoms: C_3  and  S_30
    3  A    between atoms: N_4  and  C_10
    4  A    between atoms: N_4  and  C_42
    5  A    between atoms: N_6  and  N_16
    6  A    between atoms: N_6  and  C_45
    7  A    between atoms: C_7  and  C_21
    8  A    between atoms: C_7  and  C_33
    9  A    between atoms: C_12  and  C_40
   10  A    between atoms: C_14  and  C_35
   11  A    between atoms: N_16  and  C_27
   12  A    between atoms: C_17  and  C_37
   13  A    between atoms: C_17  and  C_38
   14  A    between atoms: C_18  and  O_23
   15  A    between atoms: C_18  and  C_38
   16  A    between atoms: O_23  and  C_45
   17  A    between atoms: S_30  and  C_32
   18  A    between atoms: C_37  and  C_39
   19  A    between atoms: C_38  and  C_42
                            x       y       z     vdW  Elec       q    Type
                         _______ _______ _______ _____ _____    ______ ____

>  <TORSDO>
F 19

$$$$
=
 OpenBabel11072414443D

 45 49  0  0  1  0  0  0  0  0999 V2000
  162.0990  213.6950  144.3200 C   0  0  1  0  0  3  0  0  0  0  0  0
  160.2900  214.2370  145.8090 N   0  0  0  0  0  2  0  0  0  0  0  0
  159.5010  214.4490  144.2450 S   0  0  0  0  0  0  0  0  0  0  0  0
  161.7050  214.4530  145.5700 C   0  0  1  0  0  3  0  0  0  0  0  0
  160.9150  213.7150  143.3650 C   0  0  2  0  0  3  0  0  0  0  0  0
  163.2940  214.3640  143.6680 C   0  0  0  0  0  1  0  0  0  0  0  0
  159.9010  211.6110  143.9060 O   0  0  0  0  0  1  0  0  0  0  0  0
  160.5820  212.2990  142.8980 C   0  0  1  0  0  3  0  0  0  0  0  0
  159.7050  212.3420  141.6540 C   0  0  0  0  0  2  0  0  0  0  0  0
  160.5510  212.4540  140.3950 C   0  0  2  0  0  3  0  0  0  0  0  0
  159.7130  212.6110  139.1480 C   0  0  0  0  0  0  0  0  0  0  0  0
  160.2940  213.0400  138.1170 O   0  0  0  0  0  0  0  0  0  0  0  0
  158.3280  212.3740  139.0700 O   0  0  0  0  0  0  0  0  0  0  0  0
  158.1610  210.2800  137.7890 C   0  0  0  0  0  1  0  0  0  0  0  0
  157.6570  211.1160  138.9540 C   0  0  2  0  0  3  0  0  0  0  0  0
  156.2130  211.2930  138.9060 N   0  0  0  0  0  2  0  0  0  0  0  0
  155.9100  212.4210  139.6770 N   0  0  0  0  0  2  0  0  0  0  0  0
  153.6740  213.6220  139.3570 N   0  0  0  0  0  0  0  0  0  0  0  0
  154.6850  213.0790  139.5010 C   0  0  0  0  0  0  0  0  0  0  0  0
  161.5820  211.3420  140.3220 C   0  0  0  0  0  2  0  0  0  0  0  0
  160.9270  210.0660  140.0990 N   0  0  0  0  0  2  0  0  0  0  0  0
  161.5590  208.7270  138.1880 C   0  0  0  0  0  2  0  0  0  0  0  0
  161.9410  209.1600  139.5890 C   0  0  0  0  0  3  0  0  0  0  0  0
  161.3200  207.7980  139.3580 C   0  0  0  0  0  2  0  0  0  0  0  0
  162.6620  213.8520  146.9930 S   0  0  0  0  0  0  0  0  0  0  0  0
  161.2560  212.9110  147.6560 C   0  0  1  0  0  3  0  0  0  0  0  0
  161.5840  211.4300  147.6220 C   0  0  0  0  0  2  0  0  0  0  0  0
  161.6980  211.0160  149.0050 N   0  0  0  0  0  0  0  0  0  0  0  0
  161.0310  213.2850  149.1170 C   0  0  0  0  0  3  0  0  0  0  0  0
  161.4140  212.0740  149.9500 C   0  0  0  0  0  3  0  0  0  0  0  0
  162.2670  208.8050  148.5120 O   0  0  0  0  0  0  0  0  0  0  0  0
  162.0390  209.6800  149.3910 C   0  0  0  0  0  0  0  0  0  0  0  0
  162.0930  209.2910  150.8300 C   0  0  0  0  0  2  0  0  0  0  0  0
  162.0620  205.9320  151.4390 O   0  0  0  0  0  0  0  0  0  0  0  0
  162.0050  207.1740  152.1330 C   0  0  2  0  0  0  0  0  0  0  0  0
  160.6400  207.8490  152.3770 C   0  0  2  0  0  3  0  0  0  0  0  0
  161.3000  208.0050  151.0470 C   0  0  1  0  0  3  0  0  0  0  0  0
  161.5950  205.8570  152.7290 C   0  0  0  0  0  2  0  0  0  0  0  0
  160.1180  210.2530  152.9820 N   0  0  0  0  0  2  0  0  0  0  0  0
  161.4080  208.9080  154.3910 O   0  0  0  0  0  0  0  0  0  0  0  0
  160.7680  209.0240  153.3090 C   0  0  0  0  0  0  0  0  0  0  0  0
  160.2210  211.4280  153.8350 C   0  0  0  0  0  2  0  0  0  0  0  0
  158.8930  211.7220  154.4390 C   0  0  0  0  0  0  0  0  0  0  0  0
  158.8050  212.0730  155.7800 O   0  0  0  0  0  1  0  0  0  0  0  0
  157.8470  211.6250  153.7460 O   0  0  0  0  0  0  0  0  0  0  0  0
  1  6  1  6  0  0  0
  1  4  1  0  0  0  0
  3  2  1  0  0  0  0
  4  2  1  0  0  0  0
  4 25  1  1  0  0  0
  5  8  1  1  0  0  0
  5  3  1  0  0  0  0
  5  1  1  0  0  0  0
  8  7  1  1  0  0  0
  9  8  1  0  0  0  0
 10 20  1  6  0  0  0
 10  9  1  0  0  0  0
 11 10  1  0  0  0  0
 12 11  2  0  0  0  0
 13 11  1  0  0  0  0
 15 14  1  6  0  0  0
 15 13  1  0  0  0  0
 16 15  1  0  0  0  0
 16 17  1  0  0  0  0
 18 19  3  0  0  0  0
 19 17  1  0  0  0  0
 21 20  1  0  0  0  0
 22 24  1  0  0  0  0
 22 23  1  0  0  0  0
 23 21  1  0  0  0  0
 24 23  1  0  0  0  0
 26 25  1  1  0  0  0
 26 29  1  0  0  0  0
 27 26  1  0  0  0  0
 27 28  1  0  0  0  0
 28 32  1  0  0  0  0
 28 30  1  0  0  0  0
 29 30  2  0  0  0  0
 31 32  2  0  0  0  0
 32 33  1  0  0  0  0
 34 35  1  0  0  0  0
 34 38  1  0  0  0  0
 35 36  1  0  0  0  0
 35 38  1  1  0  0  0
 36 41  1  1  0  0  0
 37 33  1  1  0  0  0
 37 35  1  0  0  0  0
 37 36  1  0  0  0  0
 39 41  1  0  0  0  0
 39 42  1  0  0  0  0
 41 40  2  0  0  0  0
 42 43  1  0  0  0  0
 43 44  1  0  0  0  0
 45 43  2  0  0  0  0
M  END
>  <MODEL>
4

>  <REMARK>
 VINA RESULT:      -5.2      6.076     11.120
  Name = 
  19 active torsions:
  status: ('A' for Active; 'I' for Inactive)
    1  A    between atoms: N_1  and  C_12
    2  A    between atoms: C_3  and  S_30
    3  A    between atoms: N_4  and  C_10
    4  A    between atoms: N_4  and  C_42
    5  A    between atoms: N_6  and  N_16
    6  A    between atoms: N_6  and  C_45
    7  A    between atoms: C_7  and  C_21
    8  A    between atoms: C_7  and  C_33
    9  A    between atoms: C_12  and  C_40
   10  A    between atoms: C_14  and  C_35
   11  A    between atoms: N_16  and  C_27
   12  A    between atoms: C_17  and  C_37
   13  A    between atoms: C_17  and  C_38
   14  A    between atoms: C_18  and  O_23
   15  A    between atoms: C_18  and  C_38
   16  A    between atoms: O_23  and  C_45
   17  A    between atoms: S_30  and  C_32
   18  A    between atoms: C_37  and  C_39
   19  A    between atoms: C_38  and  C_42
                            x       y       z     vdW  Elec       q    Type
                         _______ _______ _______ _____ _____    ______ ____

>  <TORSDO>
F 19

$$$$
=
 OpenBabel11072414443D

 45 49  0  0  1  0  0  0  0  0999 V2000
  160.7610  209.2930  153.8390 C   0  0  1  0  0  3  0  0  0  0  0  0
  160.6530  210.0870  151.5720 N   0  0  0  0  0  2  0  0  0  0  0  0
  162.1660  209.1800  151.5290 S   0  0  0  0  0  0  0  0  0  0  0  0
  160.4720  210.4870  152.9550 C   0  0  1  0  0  3  0  0  0  0  0  0
  161.8580  208.4730  153.1780 C   0  0  2  0  0  3  0  0  0  0  0  0
  161.2270  209.7650  155.2040 C   0  0  0  0  0  1  0  0  0  0  0  0
  160.6670  206.6470  154.1750 O   0  0  0  0  0  1  0  0  0  0  0  0
  161.4350  207.0090  153.0650 C   0  0  1  0  0  3  0  0  0  0  0  0
  160.6100  206.7890  151.8050 C   0  0  0  0  0  2  0  0  0  0  0  0
  161.2550  205.7450  150.9050 C   0  0  2  0  0  3  0  0  0  0  0  0
  160.9980  206.0050  149.4410 C   0  0  0  0  0  0  0  0  0  0  0  0
  160.6650  207.1750  149.1160 O   0  0  0  0  0  0  0  0  0  0  0  0
  161.0420  205.0300  148.4270 O   0  0  0  0  0  0  0  0  0  0  0  0
  162.9010  205.0460  146.8160 C   0  0  0  0  0  1  0  0  0  0  0  0
  161.4090  205.2040  147.0550 C   0  0  2  0  0  3  0  0  0  0  0  0
  160.9100  206.4670  146.5340 N   0  0  0  0  0  2  0  0  0  0  0  0
  160.2340  206.1840  145.3410 N   0  0  0  0  0  2  0  0  0  0  0  0
  161.5600  205.6730  143.2140 N   0  0  0  0  0  0  0  0  0  0  0  0
  160.9600  205.9050  144.1760 C   0  0  0  0  0  0  0  0  0  0  0  0
  160.9150  204.3380  151.3630 C   0  0  0  0  0  2  0  0  0  0  0  0
  161.3920  203.3680  150.3940 N   0  0  0  0  0  2  0  0  0  0  0  0
  161.1600  201.0490  149.7540 C   0  0  0  0  0  2  0  0  0  0  0  0
  160.5360  202.2010  150.5150 C   0  0  0  0  0  3  0  0  0  0  0  0
  160.0120  201.8250  149.1450 C   0  0  0  0  0  2  0  0  0  0  0  0
  158.7630  211.0510  153.2060 S   0  0  0  0  0  0  0  0  0  0  0  0
  159.1970  212.7900  152.9040 C   0  0  1  0  0  3  0  0  0  0  0  0
  160.1870  212.8670  151.7570 C   0  0  0  0  0  2  0  0  0  0  0  0
  159.4850  213.5120  150.6680 N   0  0  0  0  0  0  0  0  0  0  0  0
  157.9540  213.5620  152.4730 C   0  0  0  0  0  3  0  0  0  0  0  0
  158.1400  213.9240  151.0100 C   0  0  0  0  0  3  0  0  0  0  0  0
  161.2600  213.3560  149.1570 O   0  0  0  0  0  0  0  0  0  0  0  0
  160.0790  213.7360  149.3840 C   0  0  0  0  0  0  0  0  0  0  0  0
  159.3300  214.4520  148.3100 C   0  0  0  0  0  2  0  0  0  0  0  0
  156.2080  214.1220  146.9710 O   0  0  0  0  0  0  0  0  0  0  0  0
  157.5660  214.2620  146.5680 C   0  0  2  0  0  0  0  0  0  0  0  0
  158.4410  213.0060  146.3880 C   0  0  2  0  0  3  0  0  0  0  0  0
  158.2290  213.5510  147.7600 C   0  0  1  0  0  3  0  0  0  0  0  0
  156.4660  213.7730  145.6680 C   0  0  0  0  0  2  0  0  0  0  0  0
  160.3570  212.4200  144.8370 N   0  0  0  0  0  2  0  0  0  0  0  0
  160.3150  214.4530  145.9860 O   0  0  0  0  0  0  0  0  0  0  0  0
  159.7610  213.3440  145.7500 C   0  0  0  0  0  0  0  0  0  0  0  0
  161.6400  212.6830  144.2040 C   0  0  0  0  0  2  0  0  0  0  0  0
  161.5650  212.3320  142.7600 C   0  0  0  0  0  0  0  0  0  0  0  0
  160.4560  211.6550  142.2680 O   0  0  0  0  0  1  0  0  0  0  0  0
  162.5170  212.6210  141.9880 O   0  0  0  0  0  0  0  0  0  0  0  0
  1  6  1  1  0  0  0
  2  4  1  0  0  0  0
  3  2  1  0  0  0  0
  3  5  1  0  0  0  0
  4 25  1  6  0  0  0
  4  1  1  0  0  0  0
  5  8  1  6  0  0  0
  5  1  1  0  0  0  0
  8  7  1  1  0  0  0
  9  8  1  0  0  0  0
 10 20  1  1  0  0  0
 10  9  1  0  0  0  0
 11 10  1  0  0  0  0
 12 11  2  0  0  0  0
 13 11  1  0  0  0  0
 15 14  1  1  0  0  0
 15 13  1  0  0  0  0
 16 15  1  0  0  0  0
 17 16  1  0  0  0  0
 18 19  3  0  0  0  0
 19 17  1  0  0  0  0
 21 23  1  0  0  0  0
 21 20  1  0  0  0  0
 22 23  1  0  0  0  0
 24 22  1  0  0  0  0
 24 23  1  0  0  0  0
 26 25  1  6  0  0  0
 27 26  1  0  0  0  0
 28 30  1  0  0  0  0
 28 27  1  0  0  0  0
 29 26  1  0  0  0  0
 30 29  2  0  0  0  0
 31 32  2  0  0  0  0
 32 28  1  0  0  0  0
 33 32  1  0  0  0  0
 35 38  1  6  0  0  0
 35 34  1  0  0  0  0
 35 37  1  0  0  0  0
 36 41  1  6  0  0  0
 36 35  1  0  0  0  0
 36 37  1  0  0  0  0
 37 33  1  6  0  0  0
 38 34  1  0  0  0  0
 39 41  1  0  0  0  0
 41 40  2  0  0  0  0
 42 39  1  0  0  0  0
 43 42  1  0  0  0  0
 44 43  1  0  0  0  0
 45 43  2  0  0  0  0
M  END
>  <MODEL>
5

>  <REMARK>
 VINA RESULT:      -5.0      3.100      8.556
  Name = 
  19 active torsions:
  status: ('A' for Active; 'I' for Inactive)
    1  A    between atoms: N_1  and  C_12
    2  A    between atoms: C_3  and  S_30
    3  A    between atoms: N_4  and  C_10
    4  A    between atoms: N_4  and  C_42
    5  A    between atoms: N_6  and  N_16
    6  A    between atoms: N_6  and  C_45
    7  A    between atoms: C_7  and  C_21
    8  A    between atoms: C_7  and  C_33
    9  A    between atoms: C_12  and  C_40
   10  A    between atoms: C_14  and  C_35
   11  A    between atoms: N_16  and  C_27
   12  A    between atoms: C_17  and  C_37
   13  A    between atoms: C_17  and  C_38
   14  A    between atoms: C_18  and  O_23
   15  A    between atoms: C_18  and  C_38
   16  A    between atoms: O_23  and  C_45
   17  A    between atoms: S_30  and  C_32
   18  A    between atoms: C_37  and  C_39
   19  A    between atoms: C_38  and  C_42
                            x       y       z     vdW  Elec       q    Type
                         _______ _______ _______ _____ _____    ______ ____

>  <TORSDO>
F 19

$$$$
=
 OpenBabel11072414443D

 45 49  0  0  1  0  0  0  0  0999 V2000
  161.4340  210.2260  154.5490 C   0  0  1  0  0  3  0  0  0  0  0  0
  160.0820  208.2730  154.9180 N   0  0  0  0  0  2  0  0  0  0  0  0
  160.5150  208.6890  156.5770 S   0  0  0  0  0  0  0  0  0  0  0  0
  161.1400  208.8150  154.0860 C   0  0  1  0  0  3  0  0  0  0  0  0
  161.2270  210.2800  156.0550 C   0  0  2  0  0  3  0  0  0  0  0  0
  162.8700  210.5890  154.2160 C   0  0  0  0  0  1  0  0  0  0  0  0
  161.0190  212.4400  157.0740 O   0  0  0  0  0  1  0  0  0  0  0  0
  160.2970  211.4340  156.4250 C   0  0  1  0  0  3  0  0  0  0  0  0
  159.6540  212.0200  155.1760 C   0  0  0  0  0  2  0  0  0  0  0  0
  158.1730  212.2880  155.4000 C   0  0  2  0  0  3  0  0  0  0  0  0
  157.6970  213.5340  154.6920 C   0  0  0  0  0  0  0  0  0  0  0  0
  156.8420  214.2410  155.2870 O   0  0  0  0  0  0  0  0  0  0  0  0
  158.0890  213.9290  153.3990 O   0  0  0  0  0  0  0  0  0  0  0  0
  155.7770  214.0960  152.5750 C   0  0  0  0  0  1  0  0  0  0  0  0
  157.2530  214.3520  152.3180 C   0  0  2  0  0  3  0  0  0  0  0  0
  157.6900  213.7710  151.0580 N   0  0  0  0  0  2  0  0  0  0  0  0
  158.8650  214.4340  150.6830 N   0  0  0  0  0  2  0  0  0  0  0  0
  160.4880  213.3270  149.0440 N   0  0  0  0  0  0  0  0  0  0  0  0
  159.7540  213.8270  149.7860 C   0  0  0  0  0  0  0  0  0  0  0  0
  157.8200  212.2310  156.8760 C   0  0  0  0  0  2  0  0  0  0  0  0
  156.8820  211.1510  157.1240 N   0  0  0  0  0  2  0  0  0  0  0  0
  154.5250  210.6350  157.2590 C   0  0  0  0  0  2  0  0  0  0  0  0
  155.5500  211.7190  157.0010 C   0  0  0  0  0  3  0  0  0  0  0  0
  154.8340  211.0600  155.8400 C   0  0  0  0  0  2  0  0  0  0  0  0
  160.6040  208.8270  152.3500 S   0  0  0  0  0  0  0  0  0  0  0  0
  162.0430  207.8600  151.8060 C   0  0  1  0  0  3  0  0  0  0  0  0
  161.7060  206.3820  151.8660 C   0  0  0  0  0  2  0  0  0  0  0  0
  161.6750  205.9230  150.4930 N   0  0  0  0  0  0  0  0  0  0  0  0
  162.3600  208.1850  150.3500 C   0  0  0  0  0  3  0  0  0  0  0  0
  162.0220  206.9500  149.5330 C   0  0  0  0  0  3  0  0  0  0  0  0
  161.0650  203.7310  151.0200 O   0  0  0  0  0  0  0  0  0  0  0  0
  161.3510  204.5770  150.1290 C   0  0  0  0  0  0  0  0  0  0  0  0
  161.3850  204.1420  148.7030 C   0  0  0  0  0  2  0  0  0  0  0  0
  160.9900  200.8030  149.2950 O   0  0  0  0  0  0  0  0  0  0  0  0
  160.7690  201.7700  148.2740 C   0  0  2  0  0  0  0  0  0  0  0  0
  161.8890  202.0810  147.2620 C   0  0  2  0  0  3  0  0  0  0  0  0
  161.9320  202.7200  148.6090 C   0  0  1  0  0  3  0  0  0  0  0  0
  160.7990  200.2870  148.0370 C   0  0  0  0  0  2  0  0  0  0  0  0
  161.9210  204.2720  145.9900 N   0  0  0  0  0  2  0  0  0  0  0  0
  160.5440  202.5080  145.3190 O   0  0  0  0  0  0  0  0  0  0  0  0
  161.3910  202.9530  146.1420 C   0  0  0  0  0  0  0  0  0  0  0  0
  161.4650  205.1670  144.9390 C   0  0  0  0  0  2  0  0  0  0  0  0
  160.5140  206.1600  145.5070 C   0  0  0  0  0  0  0  0  0  0  0  0
  160.9560  207.0880  146.4410 O   0  0  0  0  0  1  0  0  0  0  0  0
  159.3020  206.1420  145.1660 O   0  0  0  0  0  0  0  0  0  0  0  0
  1  6  1  1  0  0  0
  1  5  1  0  0  0  0
  2  3  1  0  0  0  0
  4 25  1  6  0  0  0
  4  1  1  0  0  0  0
  4  2  1  0  0  0  0
  5  8  1  6  0  0  0
  5  3  1  0  0  0  0
  8  7  1  6  0  0  0
  9  8  1  0  0  0  0
 10  9  1  1  0  0  0
 10 20  1  0  0  0  0
 11 12  2  0  0  0  0
 11 10  1  0  0  0  0
 13 11  1  0  0  0  0
 15 14  1  1  0  0  0
 15 13  1  0  0  0  0
 16 15  1  0  0  0  0
 17 16  1  0  0  0  0
 18 19  3  0  0  0  0
 19 17  1  0  0  0  0
 20 21  1  0  0  0  0
 23 21  1  0  0  0  0
 23 22  1  0  0  0  0
 24 23  1  0  0  0  0
 24 22  1  0  0  0  0
 26 27  1  0  0  0  0
 26 25  1  6  0  0  0
 28 27  1  0  0  0  0
 29 26  1  0  0  0  0
 30 29  2  0  0  0  0
 30 28  1  0  0  0  0
 32 28  1  0  0  0  0
 32 31  2  0  0  0  0
 33 32  1  0  0  0  0
 35 38  1  6  0  0  0
 35 37  1  0  0  0  0
 35 34  1  0  0  0  0
 36 41  1  6  0  0  0
 36 35  1  0  0  0  0
 36 37  1  0  0  0  0
 37 33  1  6  0  0  0
 38 34  1  0  0  0  0
 39 41  1  0  0  0  0
 40 41  2  0  0  0  0
 42 43  1  0  0  0  0
 42 39  1  0  0  0  0
 43 44  1  0  0  0  0
 45 43  2  0  0  0  0
M  END
>  <MODEL>
6

>  <REMARK>
 VINA RESULT:      -4.2      1.912      3.284
  Name = 
  19 active torsions:
  status: ('A' for Active; 'I' for Inactive)
    1  A    between atoms: N_1  and  C_12
    2  A    between atoms: C_3  and  S_30
    3  A    between atoms: N_4  and  C_10
    4  A    between atoms: N_4  and  C_42
    5  A    between atoms: N_6  and  N_16
    6  A    between atoms: N_6  and  C_45
    7  A    between atoms: C_7  and  C_21
    8  A    between atoms: C_7  and  C_33
    9  A    between atoms: C_12  and  C_40
   10  A    between atoms: C_14  and  C_35
   11  A    between atoms: N_16  and  C_27
   12  A    between atoms: C_17  and  C_37
   13  A    between atoms: C_17  and  C_38
   14  A    between atoms: C_18  and  O_23
   15  A    between atoms: C_18  and  C_38
   16  A    between atoms: O_23  and  C_45
   17  A    between atoms: S_30  and  C_32
   18  A    between atoms: C_37  and  C_39
   19  A    between atoms: C_38  and  C_42
                            x       y       z     vdW  Elec       q    Type
                         _______ _______ _______ _____ _____    ______ ____

>  <TORSDO>
F 19

$$$$
=
 OpenBabel11072414443D

 45 49  0  0  1  0  0  0  0  0999 V2000
  161.2600  210.0360  154.7250 C   0  0  1  0  0  3  0  0  0  0  0  0
  160.3640  207.8040  154.7160 N   0  0  0  0  0  2  0  0  0  0  0  0
  160.0340  208.2830  156.3820 S   0  0  0  0  0  0  0  0  0  0  0  0
  161.4980  208.6050  154.2930 C   0  0  1  0  0  3  0  0  0  0  0  0
  160.4980  210.0100  156.0410 C   0  0  2  0  0  3  0  0  0  0  0  0
  162.5880  210.7440  154.9160 C   0  0  0  0  0  1  0  0  0  0  0  0
  158.9070  211.3520  157.2300 O   0  0  0  0  0  1  0  0  0  0  0  0
  159.2550  210.8950  155.9560 C   0  0  1  0  0  3  0  0  0  0  0  0
  159.5180  212.0950  155.0580 C   0  0  0  0  0  2  0  0  0  0  0  0
  158.2910  212.4310  154.2230 C   0  0  2  0  0  3  0  0  0  0  0  0
  158.6320  212.7010  152.7780 C   0  0  0  0  0  0  0  0  0  0  0  0
  158.1120  211.9450  151.9160 O   0  0  0  0  0  0  0  0  0  0  0  0
  159.5290  213.6880  152.3290 O   0  0  0  0  0  0  0  0  0  0  0  0
  158.4940  214.3730  150.2050 C   0  0  0  0  0  1  0  0  0  0  0  0
  159.7720  214.1080  150.9830 C   0  0  2  0  0  3  0  0  0  0  0  0
  160.6430  213.1720  150.2890 N   0  0  0  0  0  2  0  0  0  0  0  0
  160.6850  213.5650  148.9460 N   0  0  0  0  0  2  0  0  0  0  0  0
  162.8220  213.2200  147.5820 N   0  0  0  0  0  0  0  0  0  0  0  0
  161.8550  213.3760  148.1990 C   0  0  0  0  0  0  0  0  0  0  0  0
  157.4550  213.5130  154.8840 C   0  0  0  0  0  2  0  0  0  0  0  0
  156.0890  213.0530  155.0560 N   0  0  0  0  0  2  0  0  0  0  0  0
  155.1260  214.1170  157.0010 C   0  0  0  0  0  2  0  0  0  0  0  0
  155.8770  212.9060  156.4860 C   0  0  0  0  0  3  0  0  0  0  0  0
  156.6200  214.0060  157.2150 C   0  0  0  0  0  2  0  0  0  0  0  0
  161.6650  208.5170  152.4860 S   0  0  0  0  0  0  0  0  0  0  0  0
  161.1450  206.7770  152.4320 C   0  0  1  0  0  3  0  0  0  0  0  0
  160.4100  206.5140  151.1310 C   0  0  0  0  0  2  0  0  0  0  0  0
  161.2590  205.6250  150.3670 N   0  0  0  0  0  0  0  0  0  0  0  0
  162.3730  205.8730  152.4410 C   0  0  0  0  0  3  0  0  0  0  0  0
  162.4600  205.2270  151.0690 C   0  0  0  0  0  3  0  0  0  0  0  0
  159.8560  205.5520  148.5000 O   0  0  0  0  0  0  0  0  0  0  0  0
  160.9250  205.1710  149.0500 C   0  0  0  0  0  0  0  0  0  0  0  0
  161.8090  204.2130  148.3250 C   0  0  0  0  0  2  0  0  0  0  0  0
  160.2170  202.0800  150.4610 O   0  0  0  0  0  0  0  0  0  0  0  0
  160.2230  202.4560  149.0880 C   0  0  2  0  0  0  0  0  0  0  0  0
  161.1690  201.7390  148.1050 C   0  0  2  0  0  3  0  0  0  0  0  0
  161.7100  202.8320  148.9660 C   0  0  1  0  0  3  0  0  0  0  0  0
  159.6090  201.1890  149.6110 C   0  0  0  0  0  2  0  0  0  0  0  0
  161.2060  203.4290  146.2180 N   0  0  0  0  0  2  0  0  0  0  0  0
  160.3710  201.2730  145.8890 O   0  0  0  0  0  0  0  0  0  0  0  0
  160.8710  202.1190  146.6800 C   0  0  0  0  0  0  0  0  0  0  0  0
  160.9250  203.8600  144.8580 C   0  0  0  0  0  2  0  0  0  0  0  0
  161.7100  205.0870  144.5510 C   0  0  0  0  0  0  0  0  0  0  0  0
  162.7980  205.4300  145.3440 O   0  0  0  0  0  1  0  0  0  0  0  0
  161.3730  205.8300  143.5930 O   0  0  0  0  0  0  0  0  0  0  0  0
  1  6  1  1  0  0  0
  1  5  1  0  0  0  0
  2  3  1  0  0  0  0
  4 25  1  6  0  0  0
  4  2  1  0  0  0  0
  4  1  1  0  0  0  0
  5  8  1  6  0  0  0
  5  3  1  0  0  0  0
  8  7  1  1  0  0  0
  9  8  1  0  0  0  0
 10 20  1  1  0  0  0
 10  9  1  0  0  0  0
 11 10  1  0  0  0  0
 12 11  2  0  0  0  0
 13 11  1  0  0  0  0
 15 14  1  6  0  0  0
 15 13  1  0  0  0  0
 16 15  1  0  0  0  0
 17 16  1  0  0  0  0
 18 19  3  0  0  0  0
 19 17  1  0  0  0  0
 20 21  1  0  0  0  0
 21 23  1  0  0  0  0
 22 24  1  0  0  0  0
 23 22  1  0  0  0  0
 23 24  1  0  0  0  0
 26 29  1  0  0  0  0
 26 25  1  6  0  0  0
 27 26  1  0  0  0  0
 28 30  1  0  0  0  0
 28 27  1  0  0  0  0
 30 29  2  0  0  0  0
 31 32  2  0  0  0  0
 32 28  1  0  0  0  0
 33 32  1  0  0  0  0
 35 38  1  6  0  0  0
 35 34  1  0  0  0  0
 36 41  1  6  0  0  0
 36 37  1  0  0  0  0
 36 35  1  0  0  0  0
 37 33  1  6  0  0  0
 37 35  1  0  0  0  0
 38 34  1  0  0  0  0
 39 41  1  0  0  0  0
 40 41  2  0  0  0  0
 42 39  1  0  0  0  0
 43 42  1  0  0  0  0
 43 44  1  0  0  0  0
 45 43  2  0  0  0  0
M  END
>  <MODEL>
7

>  <REMARK>
 VINA RESULT:      -4.0      1.774      2.982
  Name = 
  19 active torsions:
  status: ('A' for Active; 'I' for Inactive)
    1  A    between atoms: N_1  and  C_12
    2  A    between atoms: C_3  and  S_30
    3  A    between atoms: N_4  and  C_10
    4  A    between atoms: N_4  and  C_42
    5  A    between atoms: N_6  and  N_16
    6  A    between atoms: N_6  and  C_45
    7  A    between atoms: C_7  and  C_21
    8  A    between atoms: C_7  and  C_33
    9  A    between atoms: C_12  and  C_40
   10  A    between atoms: C_14  and  C_35
   11  A    between atoms: N_16  and  C_27
   12  A    between atoms: C_17  and  C_37
   13  A    between atoms: C_17  and  C_38
   14  A    between atoms: C_18  and  O_23
   15  A    between atoms: C_18  and  C_38
   16  A    between atoms: O_23  and  C_45
   17  A    between atoms: S_30  and  C_32
   18  A    between atoms: C_37  and  C_39
   19  A    between atoms: C_38  and  C_42
                            x       y       z     vdW  Elec       q    Type
                         _______ _______ _______ _____ _____    ______ ____

>  <TORSDO>
F 19

$$$$
=
 OpenBabel11072414443D

 45 49  0  0  1  0  0  0  0  0999 V2000
  160.8690  206.6760  152.6970 C   0  0  1  0  0  3  0  0  0  0  0  0
  162.7050  206.9010  151.1610 N   0  0  0  0  0  2  0  0  0  0  0  0
  163.2480  205.5240  152.1200 S   0  0  0  0  0  0  0  0  0  0  0  0
  161.8080  207.6510  152.0200 C   0  0  1  0  0  3  0  0  0  0  0  0
  161.6310  205.3830  152.9430 C   0  0  2  0  0  3  0  0  0  0  0  0
  160.3950  207.2510  154.0180 C   0  0  0  0  0  1  0  0  0  0  0  0
  159.6750  204.6310  151.7790 O   0  0  0  0  0  1  0  0  0  0  0  0
  160.8500  204.1900  152.3950 C   0  0  1  0  0  3  0  0  0  0  0  0
  161.6850  203.4320  151.3720 C   0  0  0  0  0  2  0  0  0  0  0  0
  161.0290  203.4640  150.0000 C   0  0  2  0  0  3  0  0  0  0  0  0
  160.8590  202.0850  149.4090 C   0  0  0  0  0  0  0  0  0  0  0  0
  160.1490  201.2690  150.0520 O   0  0  0  0  0  0  0  0  0  0  0  0
  161.4810  201.6280  148.2320 O   0  0  0  0  0  0  0  0  0  0  0  0
  160.7660  200.1400  146.4070 C   0  0  0  0  0  1  0  0  0  0  0  0
  160.9290  201.5640  146.9140 C   0  0  2  0  0  3  0  0  0  0  0  0
  161.6920  202.3830  145.9840 N   0  0  0  0  0  2  0  0  0  0  0  0
  160.7780  203.2010  145.3090 N   0  0  0  0  0  2  0  0  0  0  0  0
  161.6100  205.2500  144.0220 N   0  0  0  0  0  0  0  0  0  0  0  0
  161.2330  204.3230  144.6040 C   0  0  0  0  0  0  0  0  0  0  0  0
  161.7160  204.4600  149.0830 C   0  0  0  0  0  2  0  0  0  0  0  0
  160.7270  205.2470  148.3690 N   0  0  0  0  0  2  0  0  0  0  0  0
  161.1660  207.0500  146.8210 C   0  0  0  0  0  2  0  0  0  0  0  0
  161.2640  206.5920  148.2620 C   0  0  0  0  0  3  0  0  0  0  0  0
  162.4900  206.5690  147.3730 C   0  0  0  0  0  2  0  0  0  0  0  0
  160.8620  208.8400  151.0230 S   0  0  0  0  0  0  0  0  0  0  0  0
  161.6420  210.2710  151.8260 C   0  0  1  0  0  3  0  0  0  0  0  0
  160.8740  211.5290  151.4640 C   0  0  0  0  0  2  0  0  0  0  0  0
  160.2510  211.9810  152.6900 N   0  0  0  0  0  0  0  0  0  0  0  0
  161.5590  210.1180  153.3410 C   0  0  0  0  0  3  0  0  0  0  0  0
  160.5870  211.1720  153.8420 C   0  0  0  0  0  3  0  0  0  0  0  0
  159.1570  213.7960  151.7080 O   0  0  0  0  0  0  0  0  0  0  0  0
  159.4010  213.1320  152.7520 C   0  0  0  0  0  0  0  0  0  0  0  0
  158.8240  213.5870  154.0510 C   0  0  0  0  0  2  0  0  0  0  0  0
  155.8050  213.8030  152.4730 O   0  0  0  0  0  0  0  0  0  0  0  0
  156.3760  213.3390  153.6920 C   0  0  2  0  0  0  0  0  0  0  0  0
  156.5080  214.3030  154.8880 C   0  0  2  0  0  3  0  0  0  0  0  0
  157.5280  214.3520  153.8000 C   0  0  1  0  0  3  0  0  0  0  0  0
  154.9090  213.5950  153.4930 C   0  0  0  0  0  2  0  0  0  0  0  0
  157.3150  212.2030  156.0520 N   0  0  0  0  0  2  0  0  0  0  0  0
  156.9650  214.1820  157.2420 O   0  0  0  0  0  0  0  0  0  0  0  0
  156.9230  213.5740  156.1370 C   0  0  0  0  0  0  0  0  0  0  0  0
  157.7080  211.4410  157.2270 C   0  0  0  0  0  2  0  0  0  0  0  0
  159.0650  210.8670  157.0180 C   0  0  0  0  0  0  0  0  0  0  0  0
  159.2060  209.5270  156.6800 O   0  0  0  0  0  0  0  0  0  0  0  0
  160.0870  211.5840  157.1770 O   0  0  0  0  0  1  0  0  0  0  0  0
  1  5  1  0  0  0  0
  1  6  1  1  0  0  0
  2  4  1  0  0  0  0
  2  3  1  0  0  0  0
  3  5  1  0  0  0  0
  4 25  1  6  0  0  0
  4  1  1  0  0  0  0
  5  8  1  6  0  0  0
  8  7  1  6  0  0  0
  9  8  1  0  0  0  0
 10 20  1  6  0  0  0
 10  9  1  0  0  0  0
 11 10  1  0  0  0  0
 11 12  2  0  0  0  0
 13 11  1  0  0  0  0
 15 14  1  6  0  0  0
 15 13  1  0  0  0  0
 16 15  1  0  0  0  0
 17 16  1  0  0  0  0
 18 19  3  0  0  0  0
 19 17  1  0  0  0  0
 21 20  1  0  0  0  0
 22 24  1  0  0  0  0
 22 23  1  0  0  0  0
 23 21  1  0  0  0  0
 24 23  1  0  0  0  0
 26 25  1  6  0  0  0
 26 29  1  0  0  0  0
 27 26  1  0  0  0  0
 27 28  1  0  0  0  0
 28 32  1  0  0  0  0
 28 30  1  0  0  0  0
 29 30  2  0  0  0  0
 31 32  2  0  0  0  0
 32 33  1  0  0  0  0
 34 38  1  0  0  0  0
 34 35  1  0  0  0  0
 35 38  1  1  0  0  0
 35 37  1  0  0  0  0
 35 36  1  0  0  0  0
 36 41  1  1  0  0  0
 37 33  1  1  0  0  0
 37 36  1  0  0  0  0
 39 41  1  0  0  0  0
 39 42  1  0  0  0  0
 41 40  2  0  0  0  0
 43 45  1  0  0  0  0
 43 42  1  0  0  0  0
 44 43  2  0  0  0  0
M  END
>  <MODEL>
8

>  <REMARK>
 VINA RESULT:      -3.9      2.677     10.304
  Name = 
  19 active torsions:
  status: ('A' for Active; 'I' for Inactive)
    1  A    between atoms: N_1  and  C_12
    2  A    between atoms: C_3  and  S_30
    3  A    between atoms: N_4  and  C_10
    4  A    between atoms: N_4  and  C_42
    5  A    between atoms: N_6  and  N_16
    6  A    between atoms: N_6  and  C_45
    7  A    between atoms: C_7  and  C_21
    8  A    between atoms: C_7  and  C_33
    9  A    between atoms: C_12  and  C_40
   10  A    between atoms: C_14  and  C_35
   11  A    between atoms: N_16  and  C_27
   12  A    between atoms: C_17  and  C_37
   13  A    between atoms: C_17  and  C_38
   14  A    between atoms: C_18  and  O_23
   15  A    between atoms: C_18  and  C_38
   16  A    between atoms: O_23  and  C_45
   17  A    between atoms: S_30  and  C_32
   18  A    between atoms: C_37  and  C_39
   19  A    between atoms: C_38  and  C_42
                            x       y       z     vdW  Elec       q    Type
                         _______ _______ _______ _____ _____    ______ ____

>  <TORSDO>
F 19

$$$$
=
 OpenBabel11072414443D

 45 49  0  0  1  0  0  0  0  0999 V2000
  163.0970  213.5980  144.3020 C   0  0  1  0  0  3  0  0  0  0  0  0
  161.0960  213.5010  145.6310 N   0  0  0  0  0  2  0  0  0  0  0  0
  160.5050  214.3710  144.2150 S   0  0  0  0  0  0  0  0  0  0  0  0
  162.5210  213.7660  145.6910 C   0  0  1  0  0  3  0  0  0  0  0  0
  162.0450  214.0460  143.2990 C   0  0  2  0  0  3  0  0  0  0  0  0
  164.3420  214.4520  144.1530 C   0  0  0  0  0  1  0  0  0  0  0  0
  161.2460  211.8370  142.8230 O   0  0  0  0  0  1  0  0  0  0  0  0
  161.8230  212.9670  142.2400 C   0  0  1  0  0  3  0  0  0  0  0  0
  160.8980  213.4810  141.1440 C   0  0  0  0  0  2  0  0  0  0  0  0
  161.6950  214.0120  139.9620 C   0  0  2  0  0  3  0  0  0  0  0  0
  161.1330  213.5600  138.6360 C   0  0  0  0  0  0  0  0  0  0  0  0
  161.4810  214.2080  137.6150 O   0  0  0  0  0  0  0  0  0  0  0  0
  160.2060  212.5150  138.4650 O   0  0  0  0  0  0  0  0  0  0  0  0
  159.1920  210.3460  137.8970 C   0  0  0  0  0  1  0  0  0  0  0  0
  160.4310  211.2260  137.8850 C   0  0  2  0  0  3  0  0  0  0  0  0
  161.5690  210.5640  138.5030 N   0  0  0  0  0  2  0  0  0  0  0  0
  161.0850  209.4120  139.1340 N   0  0  0  0  0  2  0  0  0  0  0  0
  162.3150  207.1870  138.8510 N   0  0  0  0  0  0  0  0  0  0  0  0
  161.7590  208.1940  138.9790 C   0  0  0  0  0  0  0  0  0  0  0  0
  163.1810  213.7490  140.1360 C   0  0  0  0  0  2  0  0  0  0  0  0
  163.8460  213.7690  138.8470 N   0  0  0  0  0  2  0  0  0  0  0  0
  165.8880  214.4530  137.7490 C   0  0  0  0  0  2  0  0  0  0  0  0
  165.1970  214.2500  139.0820 C   0  0  0  0  0  3  0  0  0  0  0  0
  166.1860  213.2200  138.5750 C   0  0  0  0  0  2  0  0  0  0  0  0
  163.3100  212.5980  146.8400 S   0  0  0  0  0  0  0  0  0  0  0  0
  161.7280  212.1480  147.6100 C   0  0  1  0  0  3  0  0  0  0  0  0
  161.7660  210.6870  148.0160 C   0  0  0  0  0  2  0  0  0  0  0  0
  161.7500  210.6750  149.4640 N   0  0  0  0  0  0  0  0  0  0  0  0
  161.5280  212.9600  148.8860 C   0  0  0  0  0  3  0  0  0  0  0  0
  161.6430  211.9930  150.0520 C   0  0  0  0  0  3  0  0  0  0  0  0
  161.9000  208.3510  149.6540 O   0  0  0  0  0  0  0  0  0  0  0  0
  161.8150  209.4680  150.2330 C   0  0  0  0  0  0  0  0  0  0  0  0
  161.7430  209.5070  151.7230 C   0  0  0  0  0  2  0  0  0  0  0  0
  161.6930  206.2870  152.8540 O   0  0  0  0  0  0  0  0  0  0  0  0
  161.7580  207.6220  153.3450 C   0  0  2  0  0  0  0  0  0  0  0  0
  160.4540  208.3900  153.6380 C   0  0  2  0  0  3  0  0  0  0  0  0
  160.9470  208.3090  152.2320 C   0  0  1  0  0  3  0  0  0  0  0  0
  161.3890  206.4320  154.1850 C   0  0  0  0  0  2  0  0  0  0  0  0
  159.6490  210.5800  154.6260 N   0  0  0  0  0  2  0  0  0  0  0  0
  161.8980  209.9590  154.7420 O   0  0  0  0  0  0  0  0  0  0  0  0
  160.7290  209.6860  154.3510 C   0  0  0  0  0  0  0  0  0  0  0  0
  159.8560  211.8540  155.2950 C   0  0  0  0  0  2  0  0  0  0  0  0
  158.5930  212.2830  155.9540 C   0  0  0  0  0  0  0  0  0  0  0  0
  158.6200  212.7740  157.2530 O   0  0  0  0  0  1  0  0  0  0  0  0
  157.4950  212.1740  155.3470 O   0  0  0  0  0  0  0  0  0  0  0  0
  1  6  1  1  0  0  0
  1  4  1  0  0  0  0
  2  4  1  0  0  0  0
  3  2  1  0  0  0  0
  4 25  1  1  0  0  0
  5  8  1  6  0  0  0
  5  3  1  0  0  0  0
  5  1  1  0  0  0  0
  8  7  1  1  0  0  0
  9  8  1  0  0  0  0
 10 20  1  1  0  0  0
 10  9  1  0  0  0  0
 11 10  1  0  0  0  0
 12 11  2  0  0  0  0
 13 11  1  0  0  0  0
 15 14  1  1  0  0  0
 15 13  1  0  0  0  0
 15 16  1  0  0  0  0
 16 17  1  0  0  0  0
 18 19  3  0  0  0  0
 19 17  1  0  0  0  0
 21 23  1  0  0  0  0
 21 20  1  0  0  0  0
 22 24  1  0  0  0  0
 22 23  1  0  0  0  0
 24 23  1  0  0  0  0
 26 25  1  1  0  0  0
 26 27  1  0  0  0  0
 26 29  1  0  0  0  0
 27 28  1  0  0  0  0
 28 30  1  0  0  0  0
 28 32  1  0  0  0  0
 29 30  2  0  0  0  0
 31 32  2  0  0  0  0
 32 33  1  0  0  0  0
 34 35  1  0  0  0  0
 34 38  1  0  0  0  0
 35 36  1  0  0  0  0
 35 38  1  1  0  0  0
 36 41  1  1  0  0  0
 37 33  1  1  0  0  0
 37 35  1  0  0  0  0
 37 36  1  0  0  0  0
 39 42  1  0  0  0  0
 41 39  1  0  0  0  0
 41 40  2  0  0  0  0
 42 43  1  0  0  0  0
 43 44  1  0  0  0  0
 45 43  2  0  0  0  0
M  END
>  <MODEL>
9

>  <REMARK>
 VINA RESULT:      -3.6      6.330     11.813
  Name = 
  19 active torsions:
  status: ('A' for Active; 'I' for Inactive)
    1  A    between atoms: N_1  and  C_12
    2  A    between atoms: C_3  and  S_30
    3  A    between atoms: N_4  and  C_10
    4  A    between atoms: N_4  and  C_42
    5  A    between atoms: N_6  and  N_16
    6  A    between atoms: N_6  and  C_45
    7  A    between atoms: C_7  and  C_21
    8  A    between atoms: C_7  and  C_33
    9  A    between atoms: C_12  and  C_40
   10  A    between atoms: C_14  and  C_35
   11  A    between atoms: N_16  and  C_27
   12  A    between atoms: C_17  and  C_37
   13  A    between atoms: C_17  and  C_38
   14  A    between atoms: C_18  and  O_23
   15  A    between atoms: C_18  and  C_38
   16  A    between atoms: O_23  and  C_45
   17  A    between atoms: S_30  and  C_32
   18  A    between atoms: C_37  and  C_39
   19  A    between atoms: C_38  and  C_42
                            x       y       z     vdW  Elec       q    Type
                         _______ _______ _______ _____ _____    ______ ____

>  <TORSDO>
F 19

$$$$
